0
                    3D
 Structure written by MMmdl.
155163  0  0  1  0            999 V2000
  -30.7185  -14.4781   20.6254 C   0  0  0  0  0  0
  -30.4239  -12.3305   19.4330 C   0  0  0  0  0  0
  -29.5001  -12.5313   18.2135 C   0  0  0  0  0  0
  -28.0196  -12.3817   18.6154 C   0  0  0  0  0  0
  -27.6622  -13.2079   19.8785 C   0  0  2  0  0  0
  -28.6954  -12.9697   20.9992 C   0  0  0  0  0  0
  -25.2584  -13.8160   20.5664 C   0  0  0  0  0  0
  -24.1836  -13.0427   20.9160 C   0  0  0  0  0  0
  -24.6390  -11.6896   20.8716 C   0  0  0  0  0  0
  -23.9053  -10.4285   21.0391 C   0  0  0  0  0  0
  -24.3613   -9.4210   21.9169 C   0  0  0  0  0  0
  -23.6293   -8.2245   22.0745 C   0  0  0  0  0  0
  -22.4276   -8.0274   21.3537 C   0  0  0  0  0  0
  -21.9908   -9.0242   20.4639 C   0  0  0  0  0  0
  -22.7228  -10.2126   20.3043 C   0  0  0  0  0  0
  -21.6858   -6.0736   22.5278 C   0  0  0  0  0  0
  -21.4018   -6.5638   23.8210 C   0  0  0  0  0  0
  -21.3661   -5.6791   24.9172 C   0  0  0  0  0  0
  -21.6046   -4.3053   24.7226 C   0  0  0  0  0  0
  -21.8823   -3.8145   23.4347 C   0  0  0  0  0  0
  -21.9195   -4.6963   22.3405 C   0  0  0  0  0  0
  -22.7862  -13.5220   21.1845 C   0  0  0  0  0  0
  -22.1658   -4.2147   21.0982 F   0  0  0  0  0  0
  -21.5634   -3.4536   25.7741 F   0  0  0  0  0  0
  -30.0333  -13.3018   20.4731 N   0  0  0  0  0  0
  -26.3014  -12.9329   20.3346 N   0  0  0  0  0  0
  -25.9315  -11.6484   20.5735 N   0  0  0  0  0  0
  -22.0514  -12.8201   22.0416 N   0  0  0  0  0  0
  -25.4305  -15.1881   20.4092 N   0  0  0  0  0  0
  -31.7746  -14.7125   20.0266 O   0  0  0  0  0  0
  -21.6638   -6.8876   21.4239 O   0  0  0  0  0  0
  -22.3541  -14.5534   20.6717 O   0  0  0  0  0  0
  -24.6165  -31.8652   23.2078 C   0  0  0  0  0  0
  -25.9040  -32.4813   23.8392 C   0  0  1  0  0  0
  -27.2350  -27.4190   20.1026 C   0  0  0  0  0  0
  -25.5880  -33.8615   24.2317 N   0  0  0  0  0  0
  -23.4073  -30.4875   21.5479 C   0  0  2  0  0  0
  -24.8559  -28.9516   20.1127 C   0  0  0  0  0  0
  -22.7423  -29.4639   22.4965 C   0  0  0  0  0  0
  -18.0277  -28.1391   22.8491 C   0  0  0  0  0  0
  -24.1488  -36.7325   23.2640 C   0  0  0  0  0  0
  -25.9369  -30.8287   21.3617 C   0  0  0  0  0  0
  -26.0170  -29.4618   20.7087 C   0  0  0  0  0  0
  -27.2135  -28.7039   20.6963 C   0  0  0  0  0  0
  -26.0599  -26.9262   19.4996 C   0  0  0  0  0  0
  -24.8731  -27.6848   19.5028 C   0  0  0  0  0  0
  -23.6173  -29.8187   20.1631 C   0  0  0  0  0  0
  -25.4109  -36.3118   24.0338 C   0  0  1  0  0  0
  -20.5868  -28.3675   23.1321 C   0  0  2  0  0  0
  -20.6774  -26.9405   22.5433 C   0  0  0  0  0  0
  -19.5759  -26.6389   21.5232 C   0  0  0  0  0  0
  -18.1930  -26.7938   22.1629 C   0  0  0  0  0  0
  -19.1525  -28.8848   23.2906 C   0  0  0  0  0  0
  -18.9458  -30.1456   23.8916 C   0  0  0  0  0  0
  -17.6459  -30.6593   24.0574 C   0  0  0  0  0  0
  -25.9033  -34.9477   23.5130 C   0  0  0  0  0  0
  -16.5349  -29.9102   23.6330 C   0  0  0  0  0  0
  -16.7265  -28.6521   23.0346 C   0  0  0  0  0  0
  -26.4469  -31.6593   25.0720 C   0  0  0  0  0  0
  -25.3741  -31.3678   26.1469 C   0  0  0  0  0  0
  -27.0295  -30.3039   24.6087 C   0  0  0  0  0  0
  -27.6045  -32.4317   25.7480 C   0  0  0  0  0  0
  -27.5579  -37.1813   24.8461 C   0  0  0  0  0  0
  -21.4143  -29.3041   22.3716 N   0  0  0  0  0  0
  -26.4293  -37.3798   23.9407 N   0  0  0  0  0  0
  -24.6719  -31.0748   22.0981 N   0  0  0  0  0  0
  -23.4184  -28.8165   23.3002 O   0  0  0  0  0  0
  -28.3727  -26.6351   20.1162 O   0  0  0  0  0  0
  -26.5604  -34.8923   22.4696 O   0  0  0  0  0  0
  -23.5349  -32.1392   23.7465 O   0  0  0  0  0  0
  -29.6399  -17.2903   19.7333 C   0  0  0  0  0  0
  -29.3682  -18.6946   19.6007 C   0  0  0  0  0  0
  -29.9124  -16.8938   21.0225 C   0  0  0  0  0  0
  -29.4476  -19.3984   20.7848 C   0  0  0  0  0  0
  -30.1506  -15.5418   21.5826 C   0  0  0  0  0  0
  -26.6776  -22.6473   21.2625 C   0  0  0  0  0  0
  -28.5344  -24.0875   20.1923 C   0  0  0  0  0  0
  -28.2662  -25.4402   20.9238 C   0  0  0  0  0  0
  -28.1931  -22.8365   21.0684 C   0  0  2  0  0  0
  -29.9526  -15.2920   22.8116 N   0  0  0  0  0  0
  -29.2158  -20.7496   21.0917 N   0  0  0  0  0  0
  -28.6202  -21.5800   20.3631 N   0  0  0  0  0  0
  -29.0451  -19.2301   18.3466 N   0  0  0  0  0  0
  -29.8721  -18.2968   22.0832 S   0  0  0  0  0  0
  -31.4687  -12.4330   19.1339 H   0  0  0  0  0  0
  -30.3318  -11.3125   19.8169 H   0  0  0  0  0  0
  -29.7487  -11.8156   17.4293 H   0  0  0  0  0  0
  -29.6667  -13.5216   17.7872 H   0  0  0  0  0  0
  -27.8272  -11.3236   18.7981 H   0  0  0  0  0  0
  -27.3744  -12.6696   17.7844 H   0  0  0  0  0  0
  -27.7132  -14.2603   19.5988 H   0  0  0  0  0  0
  -28.6788  -11.9248   21.3117 H   0  0  0  0  0  0
  -28.4104  -13.5278   21.8874 H   0  0  0  0  0  0
  -25.2759   -9.5697   22.4734 H   0  0  0  0  0  0
  -24.0011   -7.4642   22.7462 H   0  0  0  0  0  0
  -21.0838   -8.8749   19.8943 H   0  0  0  0  0  0
  -22.3674  -10.9657   19.6149 H   0  0  0  0  0  0
  -21.2004   -7.6144   23.9720 H   0  0  0  0  0  0
  -21.1482   -6.0514   25.9077 H   0  0  0  0  0  0
  -22.0603   -2.7605   23.2845 H   0  0  0  0  0  0
  -22.4120  -11.9844   22.4781 H   0  0  0  0  0  0
  -21.1136  -13.1226   22.2637 H   0  0  0  0  0  0
  -24.6671  -15.8461   20.5230 H   0  0  0  0  0  0
  -26.2914  -15.6288   20.1098 H   0  0  0  0  0  0
  -26.7103  -32.5528   23.1151 H   0  0  0  0  0  0
  -25.0018  -33.9777   25.0452 H   0  0  0  0  0  0
  -22.6971  -31.3049   21.4056 H   0  0  0  0  0  0
  -23.3746  -35.9660   23.3313 H   0  0  0  0  0  0
  -24.3572  -36.8938   22.2052 H   0  0  0  0  0  0
  -23.7244  -37.6529   23.6652 H   0  0  0  0  0  0
  -26.0470  -31.5928   20.5912 H   0  0  0  0  0  0
  -26.8262  -30.8859   21.9776 H   0  0  0  0  0  0
  -28.1105  -29.0896   21.1597 H   0  0  0  0  0  0
  -26.0612  -25.9496   19.0353 H   0  0  0  0  0  0
  -23.9795  -27.2866   19.0424 H   0  0  0  0  0  0
  -23.7246  -30.5934   19.4033 H   0  0  0  0  0  0
  -22.7411  -29.2382   19.8685 H   0  0  0  0  0  0
  -25.1285  -36.1982   25.0828 H   0  0  0  0  0  0
  -20.9969  -28.3255   24.1440 H   0  0  0  0  0  0
  -20.5695  -26.2273   23.3616 H   0  0  0  0  0  0
  -21.6635  -26.7456   22.1207 H   0  0  0  0  0  0
  -19.6920  -25.6293   21.1265 H   0  0  0  0  0  0
  -19.6718  -27.3203   20.6766 H   0  0  0  0  0  0
  -17.4203  -26.6677   21.4030 H   0  0  0  0  0  0
  -18.0335  -26.0093   22.9038 H   0  0  0  0  0  0
  -19.7935  -30.7265   24.2286 H   0  0  0  0  0  0
  -17.5020  -31.6271   24.5184 H   0  0  0  0  0  0
  -15.5353  -30.3014   23.7650 H   0  0  0  0  0  0
  -15.8662  -28.0853   22.7052 H   0  0  0  0  0  0
  -24.5928  -30.7009   25.7805 H   0  0  0  0  0  0
  -24.8911  -32.2818   26.4935 H   0  0  0  0  0  0
  -25.8113  -30.8839   27.0215 H   0  0  0  0  0  0
  -26.2829  -29.6804   24.1153 H   0  0  0  0  0  0
  -27.4078  -29.7267   25.4534 H   0  0  0  0  0  0
  -27.8661  -30.4363   23.9225 H   0  0  0  0  0  0
  -27.2670  -33.3617   26.2070 H   0  0  0  0  0  0
  -28.3849  -32.6881   25.0302 H   0  0  0  0  0  0
  -28.0720  -31.8434   26.5386 H   0  0  0  0  0  0
  -28.2598  -38.0108   24.7511 H   0  0  0  0  0  0
  -28.1075  -36.2640   24.6292 H   0  0  0  0  0  0
  -27.2290  -37.1468   25.8861 H   0  0  0  0  0  0
  -20.9289  -29.8777   21.6952 H   0  0  0  0  0  0
  -26.0188  -38.2876   24.1411 H   0  0  0  0  0  0
  -29.6019  -16.6182   18.8876 H   0  0  0  0  0  0
  -26.2345  -23.4721   21.8191 H   0  0  0  0  0  0
  -26.4629  -21.7373   21.8255 H   0  0  0  0  0  0
  -26.1582  -22.5751   20.3055 H   0  0  0  0  0  0
  -29.5820  -24.0561   19.8892 H   0  0  0  0  0  0
  -27.9530  -24.0518   19.2703 H   0  0  0  0  0  0
  -28.9818  -25.5390   21.7407 H   0  0  0  0  0  0
  -27.2926  -25.4014   21.4135 H   0  0  0  0  0  0
  -28.6739  -22.9157   22.0462 H   0  0  0  0  0  0
  -29.6007  -16.1078   23.2979 H   0  0  0  0  0  0
  -28.6569  -18.5998   17.6527 H   0  0  0  0  0  0
  -28.5844  -20.1354   18.3507 H   0  0  0  0  0  0
  1 25  1  0  0  0
  1 30  2  0  0  0
  1 75  1  0  0  0
  2  3  1  0  0  0
  2 25  1  0  0  0
  2 85  1  0  0  0
  2 86  1  0  0  0
  3  4  1  0  0  0
  3 87  1  0  0  0
  3 88  1  0  0  0
  4  5  1  0  0  0
  4 89  1  0  0  0
  4 90  1  0  0  0
  5  6  1  0  0  0
  5 26  1  0  0  0
  5 91  1  0  0  0
  6 25  1  0  0  0
  6 92  1  0  0  0
  6 93  1  0  0  0
  7  8  2  0  0  0
  7 26  1  0  0  0
  7 29  1  0  0  0
  8  9  1  0  0  0
  8 22  1  0  0  0
  9 10  1  0  0  0
  9 27  2  0  0  0
 10 11  2  0  0  0
 10 15  1  0  0  0
 11 12  1  0  0  0
 11 94  1  0  0  0
 12 13  2  0  0  0
 12 95  1  0  0  0
 13 14  1  0  0  0
 13 31  1  0  0  0
 14 15  2  0  0  0
 14 96  1  0  0  0
 15 97  1  0  0  0
 16 17  2  0  0  0
 16 21  1  0  0  0
 16 31  1  0  0  0
 17 18  1  0  0  0
 17 98  1  0  0  0
 18 19  2  0  0  0
 18 99  1  0  0  0
 19 20  1  0  0  0
 19 24  1  0  0  0
 20 21  2  0  0  0
 20100  1  0  0  0
 21 23  1  0  0  0
 22 28  1  0  0  0
 22 32  2  0  0  0
 26 27  1  0  0  0
 28101  1  0  0  0
 28102  1  0  0  0
 29103  1  0  0  0
 29104  1  0  0  0
 33 34  1  0  0  0
 33 66  1  0  0  0
 33 70  2  0  0  0
 34 36  1  0  0  0
 34 59  1  0  0  0
 34105  1  0  0  0
 35 44  2  0  0  0
 35 45  1  0  0  0
 35 68  1  0  0  0
 36 56  1  0  0  0
 36106  1  0  0  0
 37 39  1  0  0  0
 37 47  1  0  0  0
 37 66  1  0  0  0
 37107  1  0  0  0
 38 43  2  0  0  0
 38 46  1  0  0  0
 38 47  1  0  0  0
 39 64  1  0  0  0
 39 67  2  0  0  0
 40 52  1  0  0  0
 40 53  2  0  0  0
 40 58  1  0  0  0
 41108  1  0  0  0
 41109  1  0  0  0
 41110  1  0  0  0
 41 48  1  0  0  0
 42 43  1  0  0  0
 42 66  1  0  0  0
 42111  1  0  0  0
 42112  1  0  0  0
 43 44  1  0  0  0
 44113  1  0  0  0
 45 46  2  0  0  0
 45114  1  0  0  0
 46115  1  0  0  0
 47116  1  0  0  0
 47117  1  0  0  0
 48 56  1  0  0  0
 48 65  1  0  0  0
 48118  1  0  0  0
 49 50  1  0  0  0
 49 53  1  0  0  0
 49 64  1  0  0  0
 49119  1  0  0  0
 50 51  1  0  0  0
 50120  1  0  0  0
 50121  1  0  0  0
 51 52  1  0  0  0
 51122  1  0  0  0
 51123  1  0  0  0
 52124  1  0  0  0
 52125  1  0  0  0
 53 54  1  0  0  0
 54 55  2  0  0  0
 54126  1  0  0  0
 55 57  1  0  0  0
 55127  1  0  0  0
 56 69  2  0  0  0
 57 58  2  0  0  0
 57128  1  0  0  0
 58129  1  0  0  0
 59 60  1  0  0  0
 59 61  1  0  0  0
 59 62  1  0  0  0
 60130  1  0  0  0
 60131  1  0  0  0
 60132  1  0  0  0
 61133  1  0  0  0
 61134  1  0  0  0
 61135  1  0  0  0
 62136  1  0  0  0
 62137  1  0  0  0
 62138  1  0  0  0
 63 65  1  0  0  0
 63139  1  0  0  0
 63140  1  0  0  0
 63141  1  0  0  0
 64142  1  0  0  0
 65143  1  0  0  0
 68 78  1  0  0  0
 71 72  1  0  0  0
 71 73  2  0  0  0
 71144  1  0  0  0
 72 74  2  0  0  0
 72 83  1  0  0  0
 73 75  1  0  0  0
 73 84  1  0  0  0
 74 81  1  0  0  0
 74 84  1  0  0  0
 75 80  2  0  0  0
 76145  1  0  0  0
 76146  1  0  0  0
 76147  1  0  0  0
 76 79  1  0  0  0
 77 78  1  0  0  0
 77 79  1  0  0  0
 77148  1  0  0  0
 77149  1  0  0  0
 78150  1  0  0  0
 78151  1  0  0  0
 79 82  1  0  0  0
 79152  1  0  0  0
 80153  1  0  0  0
 81 82  2  0  0  0
 83154  1  0  0  0
 83155  1  0  0  0
M  ISO  4   1 100  68 101  75 100  78 101
M  END
> <chiral flag>
0

> <version>
0

> <s_m_source_file>
/data/baiqing/PycharmProjects/Reinvent-master-3.2/result/LINK_invent/BTK/process_docking_weight1_custom_product_contain_oxygen_bond_distance_aromatic_linkinvent_7_9_3/rearranged_h_0113.sdf

> <i_m_source_file_index>
1

> <r_mmod_Potential_Energy-OPLS-2005>
54.8042831420898

> <r_mmod_Stretch_Energy-OPLS-2005>
45.3816032409668

> <r_mmod_Bend_Energy-OPLS-2005>
107.682029724121

> <r_mmod_Torsional_Energy-OPLS-2005>
211.49382019043

> <r_mmod_Improper_Torsional_Energy-OPLS-2005>
6.02825546264648

> <r_mmod_Van_der_Waal_Energy-OPLS-2005>
127.958213806152

> <r_mmod_Electrostatic_Energy-OPLS-2005>
-255.92839050293

> <r_mmod_Solvation_Energy-OPLS-2005>
-201.585510253906

> <b_mmod_Minimization_Converged-OPLS-2005>
0

> <r_mmod_RMS_Derivative-OPLS-2005>
1.39466428756714

$$$$
1
                    3D
 Structure written by MMmdl.
158166  0  0  1  0            999 V2000
  -30.6574  -14.6256   20.5342 C   0  0  0  0  0  0
  -30.4309  -12.3889   19.4646 C   0  0  0  0  0  0
  -29.5087  -12.5190   18.2327 C   0  0  0  0  0  0
  -28.0295  -12.3630   18.6381 C   0  0  0  0  0  0
  -27.6563  -13.2252   19.8742 C   0  0  2  0  0  0
  -28.6997  -13.0754   21.0052 C   0  0  0  0  0  0
  -25.2512  -13.8175   20.5585 C   0  0  0  0  0  0
  -24.1817  -13.0444   20.9187 C   0  0  0  0  0  0
  -24.6408  -11.6924   20.8775 C   0  0  0  0  0  0
  -23.9076  -10.4299   21.0412 C   0  0  0  0  0  0
  -24.3623   -9.4210   21.9186 C   0  0  0  0  0  0
  -23.6297   -8.2247   22.0756 C   0  0  0  0  0  0
  -22.4275   -8.0285   21.3548 C   0  0  0  0  0  0
  -21.9914   -9.0260   20.4655 C   0  0  0  0  0  0
  -22.7247  -10.2141   20.3063 C   0  0  0  0  0  0
  -21.6854   -6.0741   22.5273 C   0  0  0  0  0  0
  -21.4014   -6.5641   23.8209 C   0  0  0  0  0  0
  -21.3666   -5.6791   24.9174 C   0  0  0  0  0  0
  -21.6051   -4.3053   24.7220 C   0  0  0  0  0  0
  -21.8823   -3.8150   23.4336 C   0  0  0  0  0  0
  -21.9196   -4.6971   22.3397 C   0  0  0  0  0  0
  -22.7837  -13.5233   21.1825 C   0  0  0  0  0  0
  -22.1667   -4.2165   21.0974 F   0  0  0  0  0  0
  -21.5630   -3.4532   25.7727 F   0  0  0  0  0  0
  -30.0190  -13.4137   20.4490 N   0  0  0  0  0  0
  -26.3002  -12.9395   20.3373 N   0  0  0  0  0  0
  -25.9356  -11.6545   20.5834 N   0  0  0  0  0  0
  -22.0485  -12.8245   22.0399 N   0  0  0  0  0  0
  -25.4100  -15.1854   20.3688 N   0  0  0  0  0  0
  -31.7926  -14.7505   20.0813 O   0  0  0  0  0  0
  -21.6643   -6.8881   21.4234 O   0  0  0  0  0  0
  -22.3519  -14.5527   20.6653 O   0  0  0  0  0  0
  -24.6257  -31.8620   23.2042 C   0  0  0  0  0  0
  -25.9109  -32.4792   23.8368 C   0  0  1  0  0  0
  -27.2189  -27.3298   20.1139 C   0  0  0  0  0  0
  -25.5927  -33.8591   24.2296 N   0  0  0  0  0  0
  -23.4178  -30.4886   21.5478 C   0  0  2  0  0  0
  -24.8617  -28.9481   20.1113 C   0  0  0  0  0  0
  -22.7473  -29.4643   22.4940 C   0  0  0  0  0  0
  -18.0289  -28.1383   22.8487 C   0  0  0  0  0  0
  -24.1487  -36.7297   23.2643 C   0  0  0  0  0  0
  -25.9593  -30.7975   21.3732 C   0  0  0  0  0  0
  -26.0328  -29.4273   20.7125 C   0  0  0  0  0  0
  -27.2156  -28.6311   20.7016 C   0  0  0  0  0  0
  -26.0220  -26.9026   19.4904 C   0  0  0  0  0  0
  -24.8579  -27.6901   19.4925 C   0  0  0  0  0  0
  -23.6306  -29.8280   20.1615 C   0  0  0  0  0  0
  -25.4113  -36.3097   24.0337 C   0  0  1  0  0  0
  -20.5887  -28.3688   23.1276 C   0  0  2  0  0  0
  -20.6773  -26.9407   22.5410 C   0  0  0  0  0  0
  -19.5751  -26.6377   21.5212 C   0  0  0  0  0  0
  -18.1930  -26.7926   22.1622 C   0  0  0  0  0  0
  -19.1540  -28.8852   23.2881 C   0  0  0  0  0  0
  -18.9467  -30.1453   23.8901 C   0  0  0  0  0  0
  -17.6468  -30.6584   24.0564 C   0  0  0  0  0  0
  -25.9051  -34.9464   23.5118 C   0  0  0  0  0  0
  -16.5359  -29.9087   23.6324 C   0  0  0  0  0  0
  -16.7278  -28.6501   23.0352 C   0  0  0  0  0  0
  -26.4496  -31.6598   25.0734 C   0  0  0  0  0  0
  -25.3732  -31.3726   26.1462 C   0  0  0  0  0  0
  -27.0344  -30.3028   24.6180 C   0  0  0  0  0  0
  -27.6061  -32.4335   25.7496 C   0  0  0  0  0  0
  -27.5584  -37.1804   24.8467 C   0  0  0  0  0  0
  -21.4189  -29.3049   22.3676 N   0  0  0  0  0  0
  -26.4293  -37.3788   23.9414 N   0  0  0  0  0  0
  -24.6867  -31.0650   22.0986 N   0  0  0  0  0  0
  -23.4201  -28.8185   23.3016 O   0  0  0  0  0  0
  -28.3345  -26.4789   20.1696 O   0  0  0  0  0  0
  -26.5620  -34.8927   22.4683 O   0  0  0  0  0  0
  -23.5423  -32.1412   23.7380 O   0  0  0  0  0  0
  -28.7258  -19.3181   21.2087 C   0  0  0  0  0  0
  -28.7777  -17.8966   21.3659 C   0  0  0  0  0  0
  -29.9367  -17.1545   20.9314 C   0  0  0  0  0  0
  -30.9904  -17.9902   20.4348 C   0  0  0  0  0  0
  -29.7959  -20.0487   20.6570 C   0  0  0  0  0  0
  -27.6174  -17.2437   22.0672 C   0  0  0  0  0  0
  -28.8176  -22.4520   20.5093 C   0  0  0  0  0  0
  -32.3730  -17.5005   20.0559 C   0  0  0  0  0  0
  -26.2927  -17.9996   22.1200 C   0  0  0  0  0  0
  -29.2146  -23.9822   20.4617 C   0  0  0  0  0  0
  -28.0806  -25.0232   20.0748 C   0  0  0  0  0  0
  -30.8981  -19.3466   20.3067 N   0  0  0  0  0  0
  -29.9360  -15.6725   21.0555 N   0  0  0  0  0  0
  -29.8067  -21.5042   20.5463 N   0  0  0  0  0  0
  -27.6711  -16.1287   22.5963 O   0  0  0  0  0  0
  -27.6205  -22.1533   20.5057 O   0  0  0  0  0  0
  -31.4759  -12.4917   19.1668 H   0  0  0  0  0  0
  -30.3475  -11.3926   19.9014 H   0  0  0  0  0  0
  -29.7750  -11.7711   17.4843 H   0  0  0  0  0  0
  -29.6603  -13.4909   17.7599 H   0  0  0  0  0  0
  -27.8548  -11.3091   18.8569 H   0  0  0  0  0  0
  -27.3801  -12.6097   17.7972 H   0  0  0  0  0  0
  -27.6779  -14.2647   19.5460 H   0  0  0  0  0  0
  -28.7058  -12.0535   21.3873 H   0  0  0  0  0  0
  -28.4437  -13.7040   21.8580 H   0  0  0  0  0  0
  -25.2774   -9.5695   22.4751 H   0  0  0  0  0  0
  -24.0018   -7.4640   22.7468 H   0  0  0  0  0  0
  -21.0847   -8.8783   19.8964 H   0  0  0  0  0  0
  -22.3698  -10.9676   19.6171 H   0  0  0  0  0  0
  -21.2004   -7.6147   23.9714 H   0  0  0  0  0  0
  -21.1483   -6.0522   25.9078 H   0  0  0  0  0  0
  -22.0594   -2.7611   23.2829 H   0  0  0  0  0  0
  -22.4103  -11.9917   22.4808 H   0  0  0  0  0  0
  -21.1116  -13.1296   22.2616 H   0  0  0  0  0  0
  -24.6182  -15.8169   20.4089 H   0  0  0  0  0  0
  -26.2325  -15.5959   19.9494 H   0  0  0  0  0  0
  -26.7183  -32.5469   23.1123 H   0  0  0  0  0  0
  -25.0065  -33.9736   25.0437 H   0  0  0  0  0  0
  -22.7116  -31.3096   21.4078 H   0  0  0  0  0  0
  -23.3756  -35.9621   23.3304 H   0  0  0  0  0  0
  -24.3583  -36.8916   22.2057 H   0  0  0  0  0  0
  -23.7224  -37.6494   23.6663 H   0  0  0  0  0  0
  -26.0919  -31.5636   20.6079 H   0  0  0  0  0  0
  -26.8395  -30.8428   22.0030 H   0  0  0  0  0  0
  -28.1147  -28.9951   21.1797 H   0  0  0  0  0  0
  -25.9493  -25.9422   19.0040 H   0  0  0  0  0  0
  -23.9594  -27.3158   19.0216 H   0  0  0  0  0  0
  -23.7507  -30.6070   19.4071 H   0  0  0  0  0  0
  -22.7495  -29.2597   19.8572 H   0  0  0  0  0  0
  -25.1292  -36.1955   25.0828 H   0  0  0  0  0  0
  -20.9987  -28.3266   24.1396 H   0  0  0  0  0  0
  -20.5656  -26.2310   23.3619 H   0  0  0  0  0  0
  -21.6646  -26.7429   22.1218 H   0  0  0  0  0  0
  -19.6909  -25.6287   21.1248 H   0  0  0  0  0  0
  -19.6681  -27.3183   20.6735 H   0  0  0  0  0  0
  -17.4200  -26.6680   21.4022 H   0  0  0  0  0  0
  -18.0325  -26.0065   22.9013 H   0  0  0  0  0  0
  -19.7946  -30.7264   24.2274 H   0  0  0  0  0  0
  -17.5025  -31.6262   24.5168 H   0  0  0  0  0  0
  -15.5361  -30.2993   23.7639 H   0  0  0  0  0  0
  -15.8679  -28.0819   22.7067 H   0  0  0  0  0  0
  -24.5902  -30.7085   25.7784 H   0  0  0  0  0  0
  -24.8928  -32.2889   26.4904 H   0  0  0  0  0  0
  -25.8054  -30.8887   27.0229 H   0  0  0  0  0  0
  -26.2917  -29.6772   24.1213 H   0  0  0  0  0  0
  -27.4064  -29.7288   25.4677 H   0  0  0  0  0  0
  -27.8777  -30.4326   23.9391 H   0  0  0  0  0  0
  -27.2675  -33.3630   26.2082 H   0  0  0  0  0  0
  -28.3854  -32.6905   25.0310 H   0  0  0  0  0  0
  -28.0752  -31.8461   26.5398 H   0  0  0  0  0  0
  -28.2606  -38.0099   24.7527 H   0  0  0  0  0  0
  -28.1078  -36.2636   24.6278 H   0  0  0  0  0  0
  -27.2313  -37.1435   25.8873 H   0  0  0  0  0  0
  -20.9364  -29.8782   21.6897 H   0  0  0  0  0  0
  -26.0182  -38.2867   24.1413 H   0  0  0  0  0  0
  -27.8661  -19.8736   21.5507 H   0  0  0  0  0  0
  -32.7850  -16.8706   20.8432 H   0  0  0  0  0  0
  -33.0720  -18.3286   19.9315 H   0  0  0  0  0  0
  -32.3484  -16.9603   19.1108 H   0  0  0  0  0  0
  -26.3552  -18.8313   22.8209 H   0  0  0  0  0  0
  -25.4922  -17.3364   22.4463 H   0  0  0  0  0  0
  -26.0371  -18.3831   21.1326 H   0  0  0  0  0  0
  -30.0493  -24.0988   19.7708 H   0  0  0  0  0  0
  -29.5982  -24.2392   21.4491 H   0  0  0  0  0  0
  -27.2136  -24.7969   20.6980 H   0  0  0  0  0  0
  -27.7898  -24.7990   19.0475 H   0  0  0  0  0  0
  -29.0964  -15.3260   21.5053 H   0  0  0  0  0  0
  -30.7338  -21.8901   20.4496 H   0  0  0  0  0  0
  1 25  1  0  0  0
  1 30  2  0  0  0
  1 83  1  0  0  0
  2  3  1  0  0  0
  2 25  1  0  0  0
  2 87  1  0  0  0
  2 88  1  0  0  0
  3  4  1  0  0  0
  3 89  1  0  0  0
  3 90  1  0  0  0
  4  5  1  0  0  0
  4 91  1  0  0  0
  4 92  1  0  0  0
  5  6  1  0  0  0
  5 26  1  0  0  0
  5 93  1  0  0  0
  6 25  1  0  0  0
  6 94  1  0  0  0
  6 95  1  0  0  0
  7  8  2  0  0  0
  7 26  1  0  0  0
  7 29  1  0  0  0
  8  9  1  0  0  0
  8 22  1  0  0  0
  9 10  1  0  0  0
  9 27  2  0  0  0
 10 11  2  0  0  0
 10 15  1  0  0  0
 11 12  1  0  0  0
 11 96  1  0  0  0
 12 13  2  0  0  0
 12 97  1  0  0  0
 13 14  1  0  0  0
 13 31  1  0  0  0
 14 15  2  0  0  0
 14 98  1  0  0  0
 15 99  1  0  0  0
 16 17  2  0  0  0
 16 21  1  0  0  0
 16 31  1  0  0  0
 17 18  1  0  0  0
 17100  1  0  0  0
 18 19  2  0  0  0
 18101  1  0  0  0
 19 20  1  0  0  0
 19 24  1  0  0  0
 20 21  2  0  0  0
 20102  1  0  0  0
 21 23  1  0  0  0
 22 28  1  0  0  0
 22 32  2  0  0  0
 26 27  1  0  0  0
 28103  1  0  0  0
 28104  1  0  0  0
 29105  1  0  0  0
 29106  1  0  0  0
 33 34  1  0  0  0
 33 66  1  0  0  0
 33 70  2  0  0  0
 34 36  1  0  0  0
 34 59  1  0  0  0
 34107  1  0  0  0
 35 44  2  0  0  0
 35 45  1  0  0  0
 35 68  1  0  0  0
 36 56  1  0  0  0
 36108  1  0  0  0
 37 39  1  0  0  0
 37 47  1  0  0  0
 37 66  1  0  0  0
 37109  1  0  0  0
 38 43  2  0  0  0
 38 46  1  0  0  0
 38 47  1  0  0  0
 39 64  1  0  0  0
 39 67  2  0  0  0
 40 52  1  0  0  0
 40 53  2  0  0  0
 40 58  1  0  0  0
 41110  1  0  0  0
 41111  1  0  0  0
 41112  1  0  0  0
 41 48  1  0  0  0
 42 43  1  0  0  0
 42 66  1  0  0  0
 42113  1  0  0  0
 42114  1  0  0  0
 43 44  1  0  0  0
 44115  1  0  0  0
 45 46  2  0  0  0
 45116  1  0  0  0
 46117  1  0  0  0
 47118  1  0  0  0
 47119  1  0  0  0
 48 56  1  0  0  0
 48 65  1  0  0  0
 48120  1  0  0  0
 49 50  1  0  0  0
 49 53  1  0  0  0
 49 64  1  0  0  0
 49121  1  0  0  0
 50 51  1  0  0  0
 50122  1  0  0  0
 50123  1  0  0  0
 51 52  1  0  0  0
 51124  1  0  0  0
 51125  1  0  0  0
 52126  1  0  0  0
 52127  1  0  0  0
 53 54  1  0  0  0
 54 55  2  0  0  0
 54128  1  0  0  0
 55 57  1  0  0  0
 55129  1  0  0  0
 56 69  2  0  0  0
 57 58  2  0  0  0
 57130  1  0  0  0
 58131  1  0  0  0
 59 60  1  0  0  0
 59 61  1  0  0  0
 59 62  1  0  0  0
 60132  1  0  0  0
 60133  1  0  0  0
 60134  1  0  0  0
 61135  1  0  0  0
 61136  1  0  0  0
 61137  1  0  0  0
 62138  1  0  0  0
 62139  1  0  0  0
 62140  1  0  0  0
 63 65  1  0  0  0
 63141  1  0  0  0
 63142  1  0  0  0
 63143  1  0  0  0
 64144  1  0  0  0
 65145  1  0  0  0
 68 81  1  0  0  0
 71 72  2  0  0  0
 71 75  1  0  0  0
 71146  1  0  0  0
 72 73  1  0  0  0
 72 76  1  0  0  0
 73 74  2  0  0  0
 73 83  1  0  0  0
 74 78  1  0  0  0
 74 82  1  0  0  0
 75 82  2  0  0  0
 75 84  1  0  0  0
 76 79  1  0  0  0
 76 85  2  0  0  0
 77 80  1  0  0  0
 77 84  1  0  0  0
 77 86  2  0  0  0
 78147  1  0  0  0
 78148  1  0  0  0
 78149  1  0  0  0
 79150  1  0  0  0
 79151  1  0  0  0
 79152  1  0  0  0
 80 81  1  0  0  0
 80153  1  0  0  0
 80154  1  0  0  0
 81155  1  0  0  0
 81156  1  0  0  0
 83157  1  0  0  0
 84158  1  0  0  0
M  ISO  4   1 100  68 101  81 101  83 100
M  END
> <chiral flag>
0

> <version>
0

> <s_m_source_file>
/data/baiqing/PycharmProjects/Reinvent-master-3.2/result/LINK_invent/BTK/process_docking_weight1_custom_product_contain_oxygen_bond_distance_aromatic_linkinvent_7_9_3/rearranged_h_0113.sdf

> <i_m_source_file_index>
2

> <r_mmod_Potential_Energy-OPLS-2005>
-151.859436035156

> <r_mmod_Stretch_Energy-OPLS-2005>
84.9493560791016

> <r_mmod_Bend_Energy-OPLS-2005>
166.403060913086

> <r_mmod_Torsional_Energy-OPLS-2005>
246.184173583984

> <r_mmod_Improper_Torsional_Energy-OPLS-2005>
4.10336685180664

> <r_mmod_Van_der_Waal_Energy-OPLS-2005>
164.962875366211

> <r_mmod_Electrostatic_Energy-OPLS-2005>
-636.055725097656

> <r_mmod_Solvation_Energy-OPLS-2005>
-225.780014038086

> <b_mmod_Minimization_Converged-OPLS-2005>
0

> <r_mmod_RMS_Derivative-OPLS-2005>
1.16686916351318

$$$$
2
                    3D
 Structure written by MMmdl.
157165  0  0  1  0            999 V2000
  -30.5913  -14.7001   20.3843 C   0  0  0  0  0  0
  -30.4574  -12.3882   19.4941 C   0  0  0  0  0  0
  -29.5301  -12.4320   18.2516 C   0  0  0  0  0  0
  -28.0434  -12.2897   18.6476 C   0  0  0  0  0  0
  -27.6403  -13.1891   19.8456 C   0  0  2  0  0  0
  -28.6929  -13.1181   20.9782 C   0  0  0  0  0  0
  -25.2539  -13.8063   20.5681 C   0  0  0  0  0  0
  -24.1801  -13.0368   20.9200 C   0  0  0  0  0  0
  -24.6347  -11.6837   20.8767 C   0  0  0  0  0  0
  -23.9013  -10.4249   21.0442 C   0  0  0  0  0  0
  -24.3585   -9.4166   21.9213 C   0  0  0  0  0  0
  -23.6262   -8.2205   22.0761 C   0  0  0  0  0  0
  -22.4250   -8.0262   21.3551 C   0  0  0  0  0  0
  -21.9869   -9.0235   20.4656 C   0  0  0  0  0  0
  -22.7195  -10.2111   20.3079 C   0  0  0  0  0  0
  -21.6836   -6.0727   22.5288 C   0  0  0  0  0  0
  -21.4011   -6.5639   23.8220 C   0  0  0  0  0  0
  -21.3645   -5.6794   24.9178 C   0  0  0  0  0  0
  -21.6032   -4.3060   24.7235 C   0  0  0  0  0  0
  -21.8816   -3.8151   23.4355 C   0  0  0  0  0  0
  -21.9177   -4.6960   22.3409 C   0  0  0  0  0  0
  -22.7836  -13.5211   21.1845 C   0  0  0  0  0  0
  -22.1657   -4.2146   21.0987 F   0  0  0  0  0  0
  -21.5606   -3.4542   25.7745 F   0  0  0  0  0  0
  -30.0194  -13.4471   20.4259 N   0  0  0  0  0  0
  -26.2924  -12.9173   20.3267 N   0  0  0  0  0  0
  -25.9263  -11.6377   20.5780 N   0  0  0  0  0  0
  -22.0438  -12.8261   22.0409 N   0  0  0  0  0  0
  -25.4188  -15.1797   20.4106 N   0  0  0  0  0  0
  -31.7939  -14.8356   20.1427 O   0  0  0  0  0  0
  -21.6604   -6.8873   21.4255 O   0  0  0  0  0  0
  -22.3564  -14.5522   20.6667 O   0  0  0  0  0  0
  -24.6235  -31.8609   23.2025 C   0  0  0  0  0  0
  -25.9094  -32.4786   23.8355 C   0  0  1  0  0  0
  -27.2411  -27.3422   20.1270 C   0  0  0  0  0  0
  -25.5915  -33.8583   24.2288 N   0  0  0  0  0  0
  -23.4179  -30.4819   21.5435 C   0  0  2  0  0  0
  -24.8702  -28.9387   20.1126 C   0  0  0  0  0  0
  -22.7469  -29.4625   22.4942 C   0  0  0  0  0  0
  -18.0285  -28.1386   22.8499 C   0  0  0  0  0  0
  -24.1486  -36.7295   23.2638 C   0  0  0  0  0  0
  -25.9563  -30.8012   21.3708 C   0  0  0  0  0  0
  -26.0355  -29.4294   20.7141 C   0  0  0  0  0  0
  -27.2224  -28.6437   20.7101 C   0  0  0  0  0  0
  -26.0530  -26.8951   19.5031 C   0  0  0  0  0  0
  -24.8803  -27.6766   19.4966 C   0  0  0  0  0  0
  -23.6348  -29.8131   20.1594 C   0  0  0  0  0  0
  -25.4111  -36.3084   24.0329 C   0  0  1  0  0  0
  -20.5886  -28.3690   23.1287 C   0  0  2  0  0  0
  -20.6775  -26.9410   22.5420 C   0  0  0  0  0  0
  -19.5750  -26.6389   21.5225 C   0  0  0  0  0  0
  -18.1928  -26.7930   22.1636 C   0  0  0  0  0  0
  -19.1534  -28.8857   23.2887 C   0  0  0  0  0  0
  -18.9461  -30.1461   23.8897 C   0  0  0  0  0  0
  -17.6458  -30.6584   24.0573 C   0  0  0  0  0  0
  -25.9042  -34.9454   23.5107 C   0  0  0  0  0  0
  -16.5351  -29.9084   23.6331 C   0  0  0  0  0  0
  -16.7271  -28.6506   23.0349 C   0  0  0  0  0  0
  -26.4483  -31.6587   25.0720 C   0  0  0  0  0  0
  -25.3728  -31.3755   26.1462 C   0  0  0  0  0  0
  -27.0323  -30.3004   24.6178 C   0  0  0  0  0  0
  -27.6034  -32.4325   25.7494 C   0  0  0  0  0  0
  -27.5576  -37.1803   24.8463 C   0  0  0  0  0  0
  -21.4182  -29.3040   22.3675 N   0  0  0  0  0  0
  -26.4290  -37.3773   23.9401 N   0  0  0  0  0  0
  -24.6841  -31.0636   22.0969 N   0  0  0  0  0  0
  -23.4191  -28.8170   23.3017 O   0  0  0  0  0  0
  -28.3758  -26.5226   20.1874 O   0  0  0  0  0  0
  -26.5600  -34.8912   22.4669 O   0  0  0  0  0  0
  -23.5400  -32.1398   23.7358 O   0  0  0  0  0  0
  -30.9699  -18.1733   19.7588 C   0  0  0  0  0  0
  -29.4084  -19.5894   21.5711 C   0  0  0  0  0  0
  -30.0685  -17.4019   20.5461 C   0  0  0  0  0  0
  -30.2303  -20.3560   20.7053 C   0  0  0  0  0  0
  -31.0626  -19.5966   19.8230 C   0  0  0  0  0  0
  -29.3365  -18.1681   21.4967 C   0  0  0  0  0  0
  -29.3334  -22.6191   20.5008 C   0  0  0  0  0  0
  -29.4115  -24.1841   20.5359 C   0  0  0  0  0  0
  -32.8914  -21.0877   19.4384 C   0  0  0  0  0  0
  -28.1775  -25.0583   20.1049 C   0  0  0  0  0  0
  -29.6204  -15.9556   20.2021 C   0  0  1  0  0  0
  -30.2967  -21.7872   20.7762 N   0  0  0  0  0  0
  -29.2122  -16.0079   18.7856 N   0  3  0  0  0  0
  -30.4502  -24.7556   20.8991 O   0  0  0  0  0  0
  -31.9257  -20.1786   18.9215 O   0  0  0  0  0  0
  -28.4629  -17.5332   22.3127 F   0  0  0  0  0  0
  -31.5017  -12.5076   19.1967 H   0  0  0  0  0  0
  -30.3966  -11.4148   19.9835 H   0  0  0  0  0  0
  -29.8038  -11.6256   17.5687 H   0  0  0  0  0  0
  -29.6881  -13.3555   17.6957 H   0  0  0  0  0  0
  -27.8819  -11.2438   18.9119 H   0  0  0  0  0  0
  -27.3977  -12.4845   17.7902 H   0  0  0  0  0  0
  -27.6021  -14.1940   19.4491 H   0  0  0  0  0  0
  -28.7111  -12.1179   21.4129 H   0  0  0  0  0  0
  -28.4297  -13.7820   21.8024 H   0  0  0  0  0  0
  -25.2727   -9.5630   22.4789 H   0  0  0  0  0  0
  -23.9961   -7.4586   22.7470 H   0  0  0  0  0  0
  -21.0793   -8.8759   19.8975 H   0  0  0  0  0  0
  -22.3665  -10.9654   19.6195 H   0  0  0  0  0  0
  -21.2038   -7.6153   23.9728 H   0  0  0  0  0  0
  -21.1456   -6.0524   25.9074 H   0  0  0  0  0  0
  -22.0609   -2.7615   23.2852 H   0  0  0  0  0  0
  -22.4004  -11.9938   22.4867 H   0  0  0  0  0  0
  -21.1061  -13.1342   22.2560 H   0  0  0  0  0  0
  -24.6394  -15.8152   20.5374 H   0  0  0  0  0  0
  -26.2567  -15.6558   20.1182 H   0  0  0  0  0  0
  -26.7179  -32.5477   23.1117 H   0  0  0  0  0  0
  -25.0089  -33.9739   25.0453 H   0  0  0  0  0  0
  -22.7112  -31.3012   21.3984 H   0  0  0  0  0  0
  -23.3739  -35.9638   23.3306 H   0  0  0  0  0  0
  -24.3582  -36.8904   22.2054 H   0  0  0  0  0  0
  -23.7254  -37.6506   23.6650 H   0  0  0  0  0  0
  -26.0844  -31.5671   20.6047 H   0  0  0  0  0  0
  -26.8367  -30.8504   21.9998 H   0  0  0  0  0  0
  -28.1157  -29.0188   21.1901 H   0  0  0  0  0  0
  -26.0065  -25.9291   19.0217 H   0  0  0  0  0  0
  -23.9875  -27.2952   19.0198 H   0  0  0  0  0  0
  -23.7509  -30.5873   19.4000 H   0  0  0  0  0  0
  -22.7585  -29.2357   19.8592 H   0  0  0  0  0  0
  -25.1294  -36.1938   25.0823 H   0  0  0  0  0  0
  -20.9987  -28.3272   24.1405 H   0  0  0  0  0  0
  -20.5694  -26.2302   23.3621 H   0  0  0  0  0  0
  -21.6641  -26.7455   22.1200 H   0  0  0  0  0  0
  -19.6903  -25.6305   21.1239 H   0  0  0  0  0  0
  -19.6668  -27.3213   20.6760 H   0  0  0  0  0  0
  -17.4200  -26.6688   21.4027 H   0  0  0  0  0  0
  -18.0311  -26.0068   22.9028 H   0  0  0  0  0  0
  -19.7936  -30.7284   24.2250 H   0  0  0  0  0  0
  -17.5012  -31.6261   24.5184 H   0  0  0  0  0  0
  -15.5350  -30.2990   23.7647 H   0  0  0  0  0  0
  -15.8678  -28.0829   22.7051 H   0  0  0  0  0  0
  -24.5876  -30.7122   25.7807 H   0  0  0  0  0  0
  -24.8966  -32.2951   26.4873 H   0  0  0  0  0  0
  -25.8069  -30.8946   27.0240 H   0  0  0  0  0  0
  -26.2915  -29.6763   24.1171 H   0  0  0  0  0  0
  -27.3975  -29.7239   25.4687 H   0  0  0  0  0  0
  -27.8789  -30.4262   23.9428 H   0  0  0  0  0  0
  -27.2612  -33.3597   26.2097 H   0  0  0  0  0  0
  -28.3830  -32.6940   25.0328 H   0  0  0  0  0  0
  -28.0716  -31.8454   26.5401 H   0  0  0  0  0  0
  -28.2598  -38.0093   24.7495 H   0  0  0  0  0  0
  -28.1066  -36.2628   24.6303 H   0  0  0  0  0  0
  -27.2296  -37.1472   25.8865 H   0  0  0  0  0  0
  -20.9357  -29.8765   21.6897 H   0  0  0  0  0  0
  -26.0169  -38.2844   24.1403 H   0  0  0  0  0  0
  -31.5655  -17.6739   19.0074 H   0  0  0  0  0  0
  -28.7884  -20.0931   22.2988 H   0  0  0  0  0  0
  -28.3633  -22.2130   20.2013 H   0  0  0  0  0  0
  -33.2681  -20.7801   20.4149 H   0  0  0  0  0  0
  -32.5036  -22.1034   19.5037 H   0  0  0  0  0  0
  -33.7414  -21.1315   18.7591 H   0  0  0  0  0  0
  -27.3350  -24.7730   20.7374 H   0  0  0  0  0  0
  -27.9236  -24.7893   19.0787 H   0  0  0  0  0  0
  -28.7232  -15.7471   20.7799 H   0  0  0  0  0  0
  -30.0300  -16.0945   18.2087 H   0  0  0  0  0  0
  -28.6186  -16.8008   18.6215 H   0  0  0  0  0  0
  -28.7249  -15.1761   18.5120 H   0  0  0  0  0  0
  1 25  1  0  0  0
  1 30  2  0  0  0
  1 81  1  0  0  0
  2  3  1  0  0  0
  2 25  1  0  0  0
  2 87  1  0  0  0
  2 88  1  0  0  0
  3  4  1  0  0  0
  3 89  1  0  0  0
  3 90  1  0  0  0
  4  5  1  0  0  0
  4 91  1  0  0  0
  4 92  1  0  0  0
  5  6  1  0  0  0
  5 26  1  0  0  0
  5 93  1  0  0  0
  6 25  1  0  0  0
  6 94  1  0  0  0
  6 95  1  0  0  0
  7  8  2  0  0  0
  7 26  1  0  0  0
  7 29  1  0  0  0
  8  9  1  0  0  0
  8 22  1  0  0  0
  9 10  1  0  0  0
  9 27  2  0  0  0
 10 11  2  0  0  0
 10 15  1  0  0  0
 11 12  1  0  0  0
 11 96  1  0  0  0
 12 13  2  0  0  0
 12 97  1  0  0  0
 13 14  1  0  0  0
 13 31  1  0  0  0
 14 15  2  0  0  0
 14 98  1  0  0  0
 15 99  1  0  0  0
 16 17  2  0  0  0
 16 21  1  0  0  0
 16 31  1  0  0  0
 17 18  1  0  0  0
 17100  1  0  0  0
 18 19  2  0  0  0
 18101  1  0  0  0
 19 20  1  0  0  0
 19 24  1  0  0  0
 20 21  2  0  0  0
 20102  1  0  0  0
 21 23  1  0  0  0
 22 28  1  0  0  0
 22 32  2  0  0  0
 26 27  1  0  0  0
 28103  1  0  0  0
 28104  1  0  0  0
 29105  1  0  0  0
 29106  1  0  0  0
 33 34  1  0  0  0
 33 66  1  0  0  0
 33 70  2  0  0  0
 34 36  1  0  0  0
 34 59  1  0  0  0
 34107  1  0  0  0
 35 44  2  0  0  0
 35 45  1  0  0  0
 35 68  1  0  0  0
 36 56  1  0  0  0
 36108  1  0  0  0
 37 39  1  0  0  0
 37 47  1  0  0  0
 37 66  1  0  0  0
 37109  1  0  0  0
 38 43  2  0  0  0
 38 46  1  0  0  0
 38 47  1  0  0  0
 39 64  1  0  0  0
 39 67  2  0  0  0
 40 52  1  0  0  0
 40 53  2  0  0  0
 40 58  1  0  0  0
 41110  1  0  0  0
 41111  1  0  0  0
 41112  1  0  0  0
 41 48  1  0  0  0
 42 43  1  0  0  0
 42 66  1  0  0  0
 42113  1  0  0  0
 42114  1  0  0  0
 43 44  1  0  0  0
 44115  1  0  0  0
 45 46  2  0  0  0
 45116  1  0  0  0
 46117  1  0  0  0
 47118  1  0  0  0
 47119  1  0  0  0
 48 56  1  0  0  0
 48 65  1  0  0  0
 48120  1  0  0  0
 49 50  1  0  0  0
 49 53  1  0  0  0
 49 64  1  0  0  0
 49121  1  0  0  0
 50 51  1  0  0  0
 50122  1  0  0  0
 50123  1  0  0  0
 51 52  1  0  0  0
 51124  1  0  0  0
 51125  1  0  0  0
 52126  1  0  0  0
 52127  1  0  0  0
 53 54  1  0  0  0
 54 55  2  0  0  0
 54128  1  0  0  0
 55 57  1  0  0  0
 55129  1  0  0  0
 56 69  2  0  0  0
 57 58  2  0  0  0
 57130  1  0  0  0
 58131  1  0  0  0
 59 60  1  0  0  0
 59 61  1  0  0  0
 59 62  1  0  0  0
 60132  1  0  0  0
 60133  1  0  0  0
 60134  1  0  0  0
 61135  1  0  0  0
 61136  1  0  0  0
 61137  1  0  0  0
 62138  1  0  0  0
 62139  1  0  0  0
 62140  1  0  0  0
 63 65  1  0  0  0
 63141  1  0  0  0
 63142  1  0  0  0
 63143  1  0  0  0
 64144  1  0  0  0
 65145  1  0  0  0
 68 80  1  0  0  0
 71 73  2  0  0  0
 71 75  1  0  0  0
 71146  1  0  0  0
 72 74  1  0  0  0
 72 76  2  0  0  0
 72147  1  0  0  0
 73 76  1  0  0  0
 73 81  1  0  0  0
 74 75  2  0  0  0
 74 82  1  0  0  0
 75 85  1  0  0  0
 76 86  1  0  0  0
 77 78  1  0  0  0
 77 82  2  0  0  0
 77148  1  0  0  0
 78 80  1  0  0  0
 78 84  2  0  0  0
 79 85  1  0  0  0
 79149  1  0  0  0
 79150  1  0  0  0
 79151  1  0  0  0
 80152  1  0  0  0
 80153  1  0  0  0
 81 83  1  0  0  0
 81154  1  0  0  0
 83155  1  0  0  0
 83156  1  0  0  0
 83157  1  0  0  0
M  CHG  1  83   1
M  ISO  4   1 100  68 101  80 101  81 100
M  END
> <chiral flag>
0

> <version>
0

> <s_m_source_file>
/data/baiqing/PycharmProjects/Reinvent-master-3.2/result/LINK_invent/BTK/process_docking_weight1_custom_product_contain_oxygen_bond_distance_aromatic_linkinvent_7_9_3/rearranged_h_0113.sdf

> <i_m_source_file_index>
3

> <r_mmod_Potential_Energy-OPLS-2005>
-112.544242858887

> <r_mmod_Stretch_Energy-OPLS-2005>
84.8742752075195

> <r_mmod_Bend_Energy-OPLS-2005>
164.358642578125

> <r_mmod_Torsional_Energy-OPLS-2005>
255.540420532227

> <r_mmod_Improper_Torsional_Energy-OPLS-2005>
14.3285112380981

> <r_mmod_Van_der_Waal_Energy-OPLS-2005>
146.147644042969

> <r_mmod_Electrostatic_Energy-OPLS-2005>
-306.380218505859

> <r_mmod_Solvation_Energy-OPLS-2005>
-533.3056640625

> <b_mmod_Minimization_Converged-OPLS-2005>
0

> <r_mmod_RMS_Derivative-OPLS-2005>
2.36886715888977

$$$$
3
                    3D
 Structure written by MMmdl.
164173  0  0  1  0            999 V2000
  -30.6018  -14.6654   20.4901 C   0  0  0  0  0  0
  -30.4428  -12.4061   19.4543 C   0  0  0  0  0  0
  -29.5105  -12.5105   18.2254 C   0  0  0  0  0  0
  -28.0334  -12.3425   18.6363 C   0  0  0  0  0  0
  -27.6527  -13.2149   19.8616 C   0  0  2  0  0  0
  -28.6978  -13.0752   20.9921 C   0  0  0  0  0  0
  -25.2562  -13.8157   20.5671 C   0  0  0  0  0  0
  -24.1833  -13.0430   20.9199 C   0  0  0  0  0  0
  -24.6397  -11.6900   20.8741 C   0  0  0  0  0  0
  -23.9062  -10.4287   21.0406 C   0  0  0  0  0  0
  -24.3614   -9.4204   21.9183 C   0  0  0  0  0  0
  -23.6291   -8.2240   22.0752 C   0  0  0  0  0  0
  -22.4273   -8.0278   21.3544 C   0  0  0  0  0  0
  -21.9908   -9.0249   20.4645 C   0  0  0  0  0  0
  -22.7234  -10.2130   20.3055 C   0  0  0  0  0  0
  -21.6853   -6.0733   22.5278 C   0  0  0  0  0  0
  -21.4011   -6.5638   23.8211 C   0  0  0  0  0  0
  -21.3661   -5.6792   24.9174 C   0  0  0  0  0  0
  -21.6048   -4.3055   24.7226 C   0  0  0  0  0  0
  -21.8819   -3.8144   23.4348 C   0  0  0  0  0  0
  -21.9192   -4.6960   22.3403 C   0  0  0  0  0  0
  -22.7856  -13.5231   21.1858 C   0  0  0  0  0  0
  -22.1662   -4.2146   21.0980 F   0  0  0  0  0  0
  -21.5632   -3.4540   25.7739 F   0  0  0  0  0  0
  -30.0111  -13.4281   20.4294 N   0  0  0  0  0  0
  -26.2985  -12.9334   20.3298 N   0  0  0  0  0  0
  -25.9324  -11.6492   20.5748 N   0  0  0  0  0  0
  -22.0493  -12.8225   22.0412 N   0  0  0  0  0  0
  -25.4268  -15.1873   20.4042 N   0  0  0  0  0  0
  -31.7679  -14.8349   20.1205 O   0  0  0  0  0  0
  -21.6640   -6.8874   21.4238 O   0  0  0  0  0  0
  -22.3546  -14.5539   20.6704 O   0  0  0  0  0  0
  -24.6262  -31.8587   23.2016 C   0  0  0  0  0  0
  -25.9108  -32.4773   23.8350 C   0  0  1  0  0  0
  -27.2289  -27.3197   20.1275 C   0  0  0  0  0  0
  -25.5924  -33.8574   24.2281 N   0  0  0  0  0  0
  -23.4207  -30.4804   21.5439 C   0  0  2  0  0  0
  -24.8691  -28.9305   20.1141 C   0  0  0  0  0  0
  -22.7475  -29.4618   22.4941 C   0  0  0  0  0  0
  -18.0285  -28.1385   22.8486 C   0  0  0  0  0  0
  -24.1487  -36.7289   23.2641 C   0  0  0  0  0  0
  -25.9603  -30.7909   21.3709 C   0  0  0  0  0  0
  -26.0372  -29.4168   20.7160 C   0  0  0  0  0  0
  -27.2231  -28.6246   20.7084 C   0  0  0  0  0  0
  -26.0417  -26.8812   19.5041 C   0  0  0  0  0  0
  -24.8728  -27.6678   19.4983 C   0  0  0  0  0  0
  -23.6361  -29.8105   20.1607 C   0  0  0  0  0  0
  -25.4112  -36.3080   24.0332 C   0  0  1  0  0  0
  -20.5886  -28.3687   23.1285 C   0  0  2  0  0  0
  -20.6774  -26.9411   22.5411 C   0  0  0  0  0  0
  -19.5751  -26.6383   21.5212 C   0  0  0  0  0  0
  -18.1930  -26.7930   22.1623 C   0  0  0  0  0  0
  -19.1538  -28.8854   23.2881 C   0  0  0  0  0  0
  -18.9460  -30.1454   23.8899 C   0  0  0  0  0  0
  -17.6459  -30.6587   24.0563 C   0  0  0  0  0  0
  -25.9046  -34.9448   23.5107 C   0  0  0  0  0  0
  -16.5351  -29.9083   23.6332 C   0  0  0  0  0  0
  -16.7272  -28.6500   23.0355 C   0  0  0  0  0  0
  -26.4498  -31.6582   25.0718 C   0  0  0  0  0  0
  -25.3737  -31.3708   26.1447 C   0  0  0  0  0  0
  -27.0347  -30.3011   24.6167 C   0  0  0  0  0  0
  -27.6061  -32.4316   25.7488 C   0  0  0  0  0  0
  -27.5578  -37.1801   24.8468 C   0  0  0  0  0  0
  -21.4189  -29.3040   22.3680 N   0  0  0  0  0  0
  -26.4292  -37.3774   23.9408 N   0  0  0  0  0  0
  -24.6879  -31.0598   22.0963 N   0  0  0  0  0  0
  -23.4192  -28.8165   23.3032 O   0  0  0  0  0  0
  -28.3458  -26.4737   20.1388 O   0  0  0  0  0  0
  -26.5615  -34.8918   22.4673 O   0  0  0  0  0  0
  -23.5425  -32.1383   23.7345 O   0  0  0  0  0  0
  -28.5153  -19.3004   20.4148 C   0  0  0  0  0  0
  -28.5826  -17.8913   20.6387 C   0  0  0  0  0  0
  -30.9697  -17.9406   20.3923 C   0  0  0  0  0  0
  -29.6693  -20.0820   20.1551 C   0  0  0  0  0  0
  -29.8020  -17.1581   20.6046 C   0  0  0  0  0  0
  -30.9080  -19.3574   20.1844 C   0  0  0  0  0  0
  -28.7037  -23.8582   19.8594 C   0  0  0  0  0  0
  -29.0382  -22.6241   20.4177 C   0  0  0  0  0  0
  -28.8566  -21.7676   17.3816 C   0  0  0  0  0  0
  -28.7662  -24.1585   18.3586 C   0  0  0  0  0  0
  -28.1194  -23.1002   17.4412 C   0  0  0  0  0  0
  -30.0212  -21.5599   18.3433 C   0  0  0  0  0  0
  -28.8852  -22.4252   21.9205 C   0  0  0  0  0  0
  -28.1672  -25.1005   20.6794 C   0  0  0  0  0  0
  -29.5835  -21.4718   19.7421 N   0  0  0  0  0  0
  -32.1055  -20.0552   20.0080 N   0  0  0  0  0  0
  -29.7617  -15.7030   20.8166 N   0  0  0  0  0  0
  -28.5103  -20.8870   16.5900 O   0  0  0  0  0  0
  -31.4827  -12.5411   19.1520 H   0  0  0  0  0  0
  -30.3871  -11.4110   19.8984 H   0  0  0  0  0  0
  -29.7797  -11.7582   17.4827 H   0  0  0  0  0  0
  -29.6477  -13.4788   17.7414 H   0  0  0  0  0  0
  -27.8737  -11.2891   18.8692 H   0  0  0  0  0  0
  -27.3789  -12.5689   17.7936 H   0  0  0  0  0  0
  -27.6677  -14.2487   19.5164 H   0  0  0  0  0  0
  -28.7155  -12.0533   21.3740 H   0  0  0  0  0  0
  -28.4393  -13.7050   21.8447 H   0  0  0  0  0  0
  -25.2757   -9.5686   22.4760 H   0  0  0  0  0  0
  -24.0002   -7.4633   22.7472 H   0  0  0  0  0  0
  -21.0839   -8.8763   19.8951 H   0  0  0  0  0  0
  -22.3687  -10.9668   19.6167 H   0  0  0  0  0  0
  -21.1999   -7.6146   23.9714 H   0  0  0  0  0  0
  -21.1486   -6.0522   25.9078 H   0  0  0  0  0  0
  -22.0598   -2.7606   23.2848 H   0  0  0  0  0  0
  -22.4104  -11.9885   22.4801 H   0  0  0  0  0  0
  -21.1110  -13.1252   22.2610 H   0  0  0  0  0  0
  -24.6498  -15.8334   20.4919 H   0  0  0  0  0  0
  -26.2523  -15.6137   20.0046 H   0  0  0  0  0  0
  -26.7177  -32.5447   23.1101 H   0  0  0  0  0  0
  -25.0084  -33.9717   25.0436 H   0  0  0  0  0  0
  -22.7148  -31.3007   21.3982 H   0  0  0  0  0  0
  -23.3751  -35.9622   23.3308 H   0  0  0  0  0  0
  -24.3580  -36.8903   22.2055 H   0  0  0  0  0  0
  -23.7240  -37.6493   23.6659 H   0  0  0  0  0  0
  -26.0890  -31.5537   20.6018 H   0  0  0  0  0  0
  -26.8412  -30.8425   21.9992 H   0  0  0  0  0  0
  -28.1225  -28.9954   21.1797 H   0  0  0  0  0  0
  -26.0121  -25.9117   19.0268 H   0  0  0  0  0  0
  -23.9780  -27.2890   19.0234 H   0  0  0  0  0  0
  -23.7553  -30.5846   19.4019 H   0  0  0  0  0  0
  -22.7566  -29.2384   19.8597 H   0  0  0  0  0  0
  -25.1295  -36.1934   25.0827 H   0  0  0  0  0  0
  -20.9976  -28.3259   24.1406 H   0  0  0  0  0  0
  -20.5674  -26.2298   23.3610 H   0  0  0  0  0  0
  -21.6643  -26.7441   22.1202 H   0  0  0  0  0  0
  -19.6911  -25.6292   21.1243 H   0  0  0  0  0  0
  -19.6688  -27.3195   20.6743 H   0  0  0  0  0  0
  -17.4200  -26.6681   21.4024 H   0  0  0  0  0  0
  -18.0326  -26.0068   22.9015 H   0  0  0  0  0  0
  -19.7935  -30.7270   24.2271 H   0  0  0  0  0  0
  -17.5013  -31.6271   24.5158 H   0  0  0  0  0  0
  -15.5352  -30.2985   23.7655 H   0  0  0  0  0  0
  -15.8671  -28.0816   22.7076 H   0  0  0  0  0  0
  -24.5921  -30.7048   25.7775 H   0  0  0  0  0  0
  -24.8920  -32.2866   26.4882 H   0  0  0  0  0  0
  -25.8068  -30.8882   27.0217 H   0  0  0  0  0  0
  -26.2919  -29.6750   24.1210 H   0  0  0  0  0  0
  -27.4073  -29.7277   25.4666 H   0  0  0  0  0  0
  -27.8774  -30.4306   23.9372 H   0  0  0  0  0  0
  -27.2679  -33.3619   26.2063 H   0  0  0  0  0  0
  -28.3873  -32.6866   25.0315 H   0  0  0  0  0  0
  -28.0728  -31.8440   26.5404 H   0  0  0  0  0  0
  -28.2600  -38.0095   24.7510 H   0  0  0  0  0  0
  -28.1071  -36.2627   24.6301 H   0  0  0  0  0  0
  -27.2295  -37.1454   25.8872 H   0  0  0  0  0  0
  -20.9370  -29.8754   21.6881 H   0  0  0  0  0  0
  -26.0175  -38.2850   24.1407 H   0  0  0  0  0  0
  -27.5473  -19.7797   20.4045 H   0  0  0  0  0  0
  -27.6547  -17.3661   20.8148 H   0  0  0  0  0  0
  -31.9319  -17.4493   20.3868 H   0  0  0  0  0  0
  -29.7996  -24.3598   18.0746 H   0  0  0  0  0  0
  -28.2372  -25.0885   18.1554 H   0  0  0  0  0  0
  -27.0944  -22.9110   17.7595 H   0  0  0  0  0  0
  -28.0627  -23.4901   16.4250 H   0  0  0  0  0  0
  -30.7385  -22.3723   18.2341 H   0  0  0  0  0  0
  -30.5484  -20.6656   18.0109 H   0  0  0  0  0  0
  -27.8516  -22.6007   22.2209 H   0  0  0  0  0  0
  -29.5189  -23.1292   22.4603 H   0  0  0  0  0  0
  -29.1600  -21.4319   22.2718 H   0  0  0  0  0  0
  -28.6443  -25.1023   21.6586 H   0  0  0  0  0  0
  -27.1142  -24.9052   20.8841 H   0  0  0  0  0  0
  -32.9397  -19.6640   20.4311 H   0  0  0  0  0  0
  -32.0325  -21.0570   20.1565 H   0  0  0  0  0  0
  -28.8605  -15.3590   21.1098 H   0  0  0  0  0  0
  1 25  1  0  0  0
  1 30  2  0  0  0
  1 87  1  0  0  0
  2  3  1  0  0  0
  2 25  1  0  0  0
  2 89  1  0  0  0
  2 90  1  0  0  0
  3  4  1  0  0  0
  3 91  1  0  0  0
  3 92  1  0  0  0
  4  5  1  0  0  0
  4 93  1  0  0  0
  4 94  1  0  0  0
  5  6  1  0  0  0
  5 26  1  0  0  0
  5 95  1  0  0  0
  6 25  1  0  0  0
  6 96  1  0  0  0
  6 97  1  0  0  0
  7  8  2  0  0  0
  7 26  1  0  0  0
  7 29  1  0  0  0
  8  9  1  0  0  0
  8 22  1  0  0  0
  9 10  1  0  0  0
  9 27  2  0  0  0
 10 11  2  0  0  0
 10 15  1  0  0  0
 11 12  1  0  0  0
 11 98  1  0  0  0
 12 13  2  0  0  0
 12 99  1  0  0  0
 13 14  1  0  0  0
 13 31  1  0  0  0
 14 15  2  0  0  0
 14100  1  0  0  0
 15101  1  0  0  0
 16 17  2  0  0  0
 16 21  1  0  0  0
 16 31  1  0  0  0
 17 18  1  0  0  0
 17102  1  0  0  0
 18 19  2  0  0  0
 18103  1  0  0  0
 19 20  1  0  0  0
 19 24  1  0  0  0
 20 21  2  0  0  0
 20104  1  0  0  0
 21 23  1  0  0  0
 22 28  1  0  0  0
 22 32  2  0  0  0
 26 27  1  0  0  0
 28105  1  0  0  0
 28106  1  0  0  0
 29107  1  0  0  0
 29108  1  0  0  0
 33 34  1  0  0  0
 33 66  1  0  0  0
 33 70  2  0  0  0
 34 36  1  0  0  0
 34 59  1  0  0  0
 34109  1  0  0  0
 35 44  2  0  0  0
 35 45  1  0  0  0
 35 68  1  0  0  0
 36 56  1  0  0  0
 36110  1  0  0  0
 37 39  1  0  0  0
 37 47  1  0  0  0
 37 66  1  0  0  0
 37111  1  0  0  0
 38 43  2  0  0  0
 38 46  1  0  0  0
 38 47  1  0  0  0
 39 64  1  0  0  0
 39 67  2  0  0  0
 40 52  1  0  0  0
 40 53  2  0  0  0
 40 58  1  0  0  0
 41112  1  0  0  0
 41113  1  0  0  0
 41114  1  0  0  0
 41 48  1  0  0  0
 42 43  1  0  0  0
 42 66  1  0  0  0
 42115  1  0  0  0
 42116  1  0  0  0
 43 44  1  0  0  0
 44117  1  0  0  0
 45 46  2  0  0  0
 45118  1  0  0  0
 46119  1  0  0  0
 47120  1  0  0  0
 47121  1  0  0  0
 48 56  1  0  0  0
 48 65  1  0  0  0
 48122  1  0  0  0
 49 50  1  0  0  0
 49 53  1  0  0  0
 49 64  1  0  0  0
 49123  1  0  0  0
 50 51  1  0  0  0
 50124  1  0  0  0
 50125  1  0  0  0
 51 52  1  0  0  0
 51126  1  0  0  0
 51127  1  0  0  0
 52128  1  0  0  0
 52129  1  0  0  0
 53 54  1  0  0  0
 54 55  2  0  0  0
 54130  1  0  0  0
 55 57  1  0  0  0
 55131  1  0  0  0
 56 69  2  0  0  0
 57 58  2  0  0  0
 57132  1  0  0  0
 58133  1  0  0  0
 59 60  1  0  0  0
 59 61  1  0  0  0
 59 62  1  0  0  0
 60134  1  0  0  0
 60135  1  0  0  0
 60136  1  0  0  0
 61137  1  0  0  0
 61138  1  0  0  0
 61139  1  0  0  0
 62140  1  0  0  0
 62141  1  0  0  0
 62142  1  0  0  0
 63 65  1  0  0  0
 63143  1  0  0  0
 63144  1  0  0  0
 63145  1  0  0  0
 64146  1  0  0  0
 65147  1  0  0  0
 68 84  1  0  0  0
 71 72  2  0  0  0
 71 74  1  0  0  0
 71148  1  0  0  0
 72 75  1  0  0  0
 72149  1  0  0  0
 73 75  2  0  0  0
 73 76  1  0  0  0
 73150  1  0  0  0
 74 76  2  0  0  0
 74 85  1  0  0  0
 75 87  1  0  0  0
 76 86  1  0  0  0
 77 78  2  0  0  0
 77 80  1  0  0  0
 77 84  1  0  0  0
 78 83  1  0  0  0
 78 85  1  0  0  0
 79 81  1  0  0  0
 79 82  1  0  0  0
 79 88  2  0  0  0
 80 81  1  0  0  0
 80151  1  0  0  0
 80152  1  0  0  0
 81153  1  0  0  0
 81154  1  0  0  0
 82 85  1  0  0  0
 82155  1  0  0  0
 82156  1  0  0  0
 83157  1  0  0  0
 83158  1  0  0  0
 83159  1  0  0  0
 84160  1  0  0  0
 84161  1  0  0  0
 86162  1  0  0  0
 86163  1  0  0  0
 87164  1  0  0  0
M  ISO  4   1 100  68 101  84 101  87 100
M  END
> <chiral flag>
0

> <version>
0

> <s_m_source_file>
/data/baiqing/PycharmProjects/Reinvent-master-3.2/result/LINK_invent/BTK/process_docking_weight1_custom_product_contain_oxygen_bond_distance_aromatic_linkinvent_7_9_3/rearranged_h_0113.sdf

> <i_m_source_file_index>
4

> <r_mmod_Potential_Energy-OPLS-2005>
127.791290283203

> <r_mmod_Stretch_Energy-OPLS-2005>
94.1709899902344

> <r_mmod_Bend_Energy-OPLS-2005>
145.161102294922

> <r_mmod_Torsional_Energy-OPLS-2005>
280.511444091797

> <r_mmod_Improper_Torsional_Energy-OPLS-2005>
9.68120765686035

> <r_mmod_Van_der_Waal_Energy-OPLS-2005>
156.656387329102

> <r_mmod_Electrostatic_Energy-OPLS-2005>
-388.064971923828

> <r_mmod_Solvation_Energy-OPLS-2005>
-222.603118896484

> <b_mmod_Minimization_Converged-OPLS-2005>
0

> <r_mmod_RMS_Derivative-OPLS-2005>
0.480772495269775

$$$$
4
                    3D
 Structure written by MMmdl.
150158  0  0  1  0            999 V2000
  -30.4882  -14.8859   20.4288 C   0  0  0  0  0  0
  -30.4588  -12.5500   19.4686 C   0  0  0  0  0  0
  -29.5229  -12.5175   18.2385 C   0  0  0  0  0  0
  -28.0497  -12.3144   18.6513 C   0  0  0  0  0  0
  -27.6325  -13.2235   19.8395 C   0  0  2  0  0  0
  -28.6807  -13.1798   20.9679 C   0  0  0  0  0  0
  -25.2505  -13.8160   20.5765 C   0  0  0  0  0  0
  -24.1800  -13.0429   20.9300 C   0  0  0  0  0  0
  -24.6341  -11.6894   20.8738 C   0  0  0  0  0  0
  -23.9001  -10.4287   21.0389 C   0  0  0  0  0  0
  -24.3565   -9.4200   21.9156 C   0  0  0  0  0  0
  -23.6248   -8.2243   22.0741 C   0  0  0  0  0  0
  -22.4244   -8.0252   21.3527 C   0  0  0  0  0  0
  -21.9855   -9.0227   20.4647 C   0  0  0  0  0  0
  -22.7181  -10.2101   20.3035 C   0  0  0  0  0  0
  -21.6845   -6.0698   22.5267 C   0  0  0  0  0  0
  -21.4021   -6.5602   23.8197 C   0  0  0  0  0  0
  -21.3662   -5.6763   24.9166 C   0  0  0  0  0  0
  -21.6055   -4.3028   24.7228 C   0  0  0  0  0  0
  -21.8810   -3.8107   23.4347 C   0  0  0  0  0  0
  -21.9180   -4.6928   22.3391 C   0  0  0  0  0  0
  -22.7831  -13.5231   21.1988 C   0  0  0  0  0  0
  -22.1644   -4.2094   21.0979 F   0  0  0  0  0  0
  -21.5647   -3.4517   25.7744 F   0  0  0  0  0  0
  -29.9529  -13.6089   20.3719 N   0  0  0  0  0  0
  -26.2882  -12.9334   20.3204 N   0  0  0  0  0  0
  -25.9245  -11.6490   20.5676 N   0  0  0  0  0  0
  -22.0411  -12.8232   22.0509 N   0  0  0  0  0  0
  -25.4100  -15.1914   20.4185 N   0  0  0  0  0  0
  -31.7056  -15.0261   20.2600 O   0  0  0  0  0  0
  -21.6622   -6.8844   21.4224 O   0  0  0  0  0  0
  -22.3548  -14.5556   20.6822 O   0  0  0  0  0  0
  -24.6384  -31.8499   23.1920 C   0  0  0  0  0  0
  -25.9202  -32.4716   23.8272 C   0  0  1  0  0  0
  -27.2083  -27.1791   20.1495 C   0  0  0  0  0  0
  -25.5985  -33.8518   24.2211 N   0  0  0  0  0  0
  -23.4385  -30.4733   21.5373 C   0  0  2  0  0  0
  -24.8899  -28.9070   20.1049 C   0  0  0  0  0  0
  -22.7538  -29.4591   22.4879 C   0  0  0  0  0  0
  -18.0319  -28.1367   22.8474 C   0  0  0  0  0  0
  -24.1503  -36.7268   23.2640 C   0  0  0  0  0  0
  -25.9935  -30.7358   21.3872 C   0  0  0  0  0  0
  -26.0634  -29.3493   20.7308 C   0  0  0  0  0  0
  -27.2287  -28.4991   20.7435 C   0  0  0  0  0  0
  -26.0190  -26.8337   19.4759 C   0  0  0  0  0  0
  -24.8787  -27.6607   19.4608 C   0  0  0  0  0  0
  -23.6646  -29.8050   20.1544 C   0  0  0  0  0  0
  -25.4137  -36.3046   24.0304 C   0  0  1  0  0  0
  -20.5930  -28.3695   23.1214 C   0  0  2  0  0  0
  -20.6810  -26.9420   22.5375 C   0  0  0  0  0  0
  -19.5767  -26.6336   21.5197 C   0  0  0  0  0  0
  -18.1947  -26.7909   22.1608 C   0  0  0  0  0  0
  -19.1578  -28.8835   23.2855 C   0  0  0  0  0  0
  -18.9515  -30.1431   23.8883 C   0  0  0  0  0  0
  -17.6514  -30.6554   24.0568 C   0  0  0  0  0  0
  -25.9080  -34.9416   23.5054 C   0  0  0  0  0  0
  -16.5393  -29.9068   23.6330 C   0  0  0  0  0  0
  -16.7311  -28.6489   23.0341 C   0  0  0  0  0  0
  -26.4530  -31.6565   25.0692 C   0  0  0  0  0  0
  -25.3701  -31.3791   26.1378 C   0  0  0  0  0  0
  -27.0389  -30.2954   24.6268 C   0  0  0  0  0  0
  -27.6051  -32.4319   25.7504 C   0  0  0  0  0  0
  -27.5577  -37.1796   24.8458 C   0  0  0  0  0  0
  -21.4244  -29.3035   22.3601 N   0  0  0  0  0  0
  -26.4293  -37.3760   23.9397 N   0  0  0  0  0  0
  -24.7099  -31.0405   22.0927 N   0  0  0  0  0  0
  -23.4220  -28.8137   23.2999 O   0  0  0  0  0  0
  -28.2180  -26.1641   20.2033 O   0  0  0  0  0  0
  -26.5666  -34.8884   22.4634 O   0  0  0  0  0  0
  -23.5507  -32.1359   23.7164 O   0  0  0  0  0  0
  -28.4126  -19.9536   21.7253 C   0  0  0  0  0  0
  -28.0914  -18.7330   22.3614 C   0  0  0  0  0  0
  -29.6678  -18.6585   20.0942 C   0  0  0  0  0  0
  -29.1919  -19.9870   20.5512 C   0  0  0  0  0  0
  -28.5199  -17.4775   21.8698 C   0  0  0  0  0  0
  -29.3757  -17.3652   20.7441 C   0  0  0  0  0  0
  -28.2033  -23.5076   20.6796 C   0  0  0  0  0  0
  -27.8411  -24.8770   20.7546 C   0  0  0  0  0  0
  -29.1998  -22.5801   19.9284 C   0  0  0  0  0  0
  -29.5202  -21.2660   19.8836 N   0  0  0  0  0  0
  -28.0106  -16.3338   22.4845 N   0  0  0  0  0  0
  -29.5831  -15.9487   20.2394 N   0  0  0  0  0  0
  -31.4821  -12.7528   19.1474 H   0  0  0  0  0  0
  -30.4812  -11.5857   19.9801 H   0  0  0  0  0  0
  -29.8310  -11.7268   17.5551 H   0  0  0  0  0  0
  -29.6141  -13.4506   17.6779 H   0  0  0  0  0  0
  -27.9241  -11.2677   18.9268 H   0  0  0  0  0  0
  -27.3951  -12.4764   17.7913 H   0  0  0  0  0  0
  -27.6116  -14.2367   19.4450 H   0  0  0  0  0  0
  -28.7596  -12.1759   21.3862 H   0  0  0  0  0  0
  -28.3997  -13.8229   21.8001 H   0  0  0  0  0  0
  -25.2694   -9.5684   22.4743 H   0  0  0  0  0  0
  -23.9927   -7.4646   22.7472 H   0  0  0  0  0  0
  -21.0763   -8.8746   19.8981 H   0  0  0  0  0  0
  -22.3621  -10.9627   19.6143 H   0  0  0  0  0  0
  -21.2028   -7.6108   23.9697 H   0  0  0  0  0  0
  -21.1499   -6.0493   25.9073 H   0  0  0  0  0  0
  -22.0592   -2.7560   23.2877 H   0  0  0  0  0  0
  -22.3964  -11.9868   22.4912 H   0  0  0  0  0  0
  -21.1025  -13.1265   22.2693 H   0  0  0  0  0  0
  -24.5921  -15.7873   20.4988 H   0  0  0  0  0  0
  -26.1280  -15.6036   19.8393 H   0  0  0  0  0  0
  -26.7267  -32.5332   23.0997 H   0  0  0  0  0  0
  -25.0115  -33.9630   25.0347 H   0  0  0  0  0  0
  -22.7343  -31.2962   21.3866 H   0  0  0  0  0  0
  -23.3736  -35.9624   23.3305 H   0  0  0  0  0  0
  -24.3592  -36.8899   22.2050 H   0  0  0  0  0  0
  -23.7248  -37.6462   23.6675 H   0  0  0  0  0  0
  -26.1418  -31.4972   20.6183 H   0  0  0  0  0  0
  -26.8666  -30.7867   22.0295 H   0  0  0  0  0  0
  -28.1170  -28.8291   21.2608 H   0  0  0  0  0  0
  -25.9592  -25.8700   18.9865 H   0  0  0  0  0  0
  -23.9866  -27.3149   18.9583 H   0  0  0  0  0  0
  -23.7889  -30.5838   19.4015 H   0  0  0  0  0  0
  -22.7818  -29.2446   19.8424 H   0  0  0  0  0  0
  -25.1306  -36.1891   25.0786 H   0  0  0  0  0  0
  -21.0038  -28.3273   24.1341 H   0  0  0  0  0  0
  -20.5712  -26.2349   23.3612 H   0  0  0  0  0  0
  -21.6668  -26.7425   22.1152 H   0  0  0  0  0  0
  -19.6936  -25.6233   21.1278 H   0  0  0  0  0  0
  -19.6678  -27.3078   20.6683 H   0  0  0  0  0  0
  -17.4223  -26.6692   21.4001 H   0  0  0  0  0  0
  -18.0332  -26.0054   22.9012 H   0  0  0  0  0  0
  -19.8011  -30.7231   24.2237 H   0  0  0  0  0  0
  -17.5088  -31.6215   24.5202 H   0  0  0  0  0  0
  -15.5389  -30.2960   23.7655 H   0  0  0  0  0  0
  -15.8728  -28.0788   22.7056 H   0  0  0  0  0  0
  -24.5879  -30.7147   25.7704 H   0  0  0  0  0  0
  -24.8879  -32.2983   26.4700 H   0  0  0  0  0  0
  -25.7938  -30.9026   27.0226 H   0  0  0  0  0  0
  -26.3010  -29.6680   24.1255 H   0  0  0  0  0  0
  -27.3984  -29.7250   25.4845 H   0  0  0  0  0  0
  -27.8920  -30.4173   23.9594 H   0  0  0  0  0  0
  -27.2638  -33.3633   26.2044 H   0  0  0  0  0  0
  -28.3902  -32.6870   25.0371 H   0  0  0  0  0  0
  -28.0680  -31.8467   26.5463 H   0  0  0  0  0  0
  -28.2588  -38.0108   24.7496 H   0  0  0  0  0  0
  -28.1081  -36.2612   24.6298 H   0  0  0  0  0  0
  -27.2285  -37.1454   25.8867 H   0  0  0  0  0  0
  -20.9448  -29.8852   21.6870 H   0  0  0  0  0  0
  -26.0157  -38.2831   24.1391 H   0  0  0  0  0  0
  -28.0350  -20.8656   22.1628 H   0  0  0  0  0  0
  -27.4499  -18.7777   23.2318 H   0  0  0  0  0  0
  -30.2420  -18.6312   19.1817 H   0  0  0  0  0  0
  -27.6002  -22.8828   21.3180 H   0  0  0  0  0  0
  -27.0232  -25.0639   21.4378 H   0  0  0  0  0  0
  -29.7564  -23.2074   19.2287 H   0  0  0  0  0  0
  -27.5865  -16.5249   23.3863 H   0  0  0  0  0  0
  -27.2911  -15.8840   21.9238 H   0  0  0  0  0  0
  -28.6818  -15.5133   20.1178 H   0  0  0  0  0  0
  1 25  1  0  0  0
  1 30  2  0  0  0
  1 82  1  0  0  0
  2  3  1  0  0  0
  2 25  1  0  0  0
  2 83  1  0  0  0
  2 84  1  0  0  0
  3  4  1  0  0  0
  3 85  1  0  0  0
  3 86  1  0  0  0
  4  5  1  0  0  0
  4 87  1  0  0  0
  4 88  1  0  0  0
  5  6  1  0  0  0
  5 26  1  0  0  0
  5 89  1  0  0  0
  6 25  1  0  0  0
  6 90  1  0  0  0
  6 91  1  0  0  0
  7  8  2  0  0  0
  7 26  1  0  0  0
  7 29  1  0  0  0
  8  9  1  0  0  0
  8 22  1  0  0  0
  9 10  1  0  0  0
  9 27  2  0  0  0
 10 11  2  0  0  0
 10 15  1  0  0  0
 11 12  1  0  0  0
 11 92  1  0  0  0
 12 13  2  0  0  0
 12 93  1  0  0  0
 13 14  1  0  0  0
 13 31  1  0  0  0
 14 15  2  0  0  0
 14 94  1  0  0  0
 15 95  1  0  0  0
 16 17  2  0  0  0
 16 21  1  0  0  0
 16 31  1  0  0  0
 17 18  1  0  0  0
 17 96  1  0  0  0
 18 19  2  0  0  0
 18 97  1  0  0  0
 19 20  1  0  0  0
 19 24  1  0  0  0
 20 21  2  0  0  0
 20 98  1  0  0  0
 21 23  1  0  0  0
 22 28  1  0  0  0
 22 32  2  0  0  0
 26 27  1  0  0  0
 28 99  1  0  0  0
 28100  1  0  0  0
 29101  1  0  0  0
 29102  1  0  0  0
 33 34  1  0  0  0
 33 66  1  0  0  0
 33 70  2  0  0  0
 34 36  1  0  0  0
 34 59  1  0  0  0
 34103  1  0  0  0
 35 44  2  0  0  0
 35 45  1  0  0  0
 35 68  1  0  0  0
 36 56  1  0  0  0
 36104  1  0  0  0
 37 39  1  0  0  0
 37 47  1  0  0  0
 37 66  1  0  0  0
 37105  1  0  0  0
 38 43  2  0  0  0
 38 46  1  0  0  0
 38 47  1  0  0  0
 39 64  1  0  0  0
 39 67  2  0  0  0
 40 52  1  0  0  0
 40 53  2  0  0  0
 40 58  1  0  0  0
 41106  1  0  0  0
 41107  1  0  0  0
 41108  1  0  0  0
 41 48  1  0  0  0
 42 43  1  0  0  0
 42 66  1  0  0  0
 42109  1  0  0  0
 42110  1  0  0  0
 43 44  1  0  0  0
 44111  1  0  0  0
 45 46  2  0  0  0
 45112  1  0  0  0
 46113  1  0  0  0
 47114  1  0  0  0
 47115  1  0  0  0
 48 56  1  0  0  0
 48 65  1  0  0  0
 48116  1  0  0  0
 49 50  1  0  0  0
 49 53  1  0  0  0
 49 64  1  0  0  0
 49117  1  0  0  0
 50 51  1  0  0  0
 50118  1  0  0  0
 50119  1  0  0  0
 51 52  1  0  0  0
 51120  1  0  0  0
 51121  1  0  0  0
 52122  1  0  0  0
 52123  1  0  0  0
 53 54  1  0  0  0
 54 55  2  0  0  0
 54124  1  0  0  0
 55 57  1  0  0  0
 55125  1  0  0  0
 56 69  2  0  0  0
 57 58  2  0  0  0
 57126  1  0  0  0
 58127  1  0  0  0
 59 60  1  0  0  0
 59 61  1  0  0  0
 59 62  1  0  0  0
 60128  1  0  0  0
 60129  1  0  0  0
 60130  1  0  0  0
 61131  1  0  0  0
 61132  1  0  0  0
 61133  1  0  0  0
 62134  1  0  0  0
 62135  1  0  0  0
 62136  1  0  0  0
 63 65  1  0  0  0
 63137  1  0  0  0
 63138  1  0  0  0
 63139  1  0  0  0
 64140  1  0  0  0
 65141  1  0  0  0
 68 78  1  0  0  0
 71 72  2  0  0  0
 71 74  1  0  0  0
 71142  1  0  0  0
 72 75  1  0  0  0
 72143  1  0  0  0
 73 74  2  0  0  0
 73 76  1  0  0  0
 73144  1  0  0  0
 74 80  1  0  0  0
 75 76  2  0  0  0
 75 81  1  0  0  0
 76 82  1  0  0  0
 77 78  2  0  0  0
 77 79  1  0  0  0
 77145  1  0  0  0
 78146  1  0  0  0
 79 80  2  0  0  0
 79147  1  0  0  0
 81148  1  0  0  0
 81149  1  0  0  0
 82150  1  0  0  0
M  ISO  4   1 100  68 101  78 101  82 100
M  END
> <chiral flag>
0

> <version>
0

> <s_m_source_file>
/data/baiqing/PycharmProjects/Reinvent-master-3.2/result/LINK_invent/BTK/process_docking_weight1_custom_product_contain_oxygen_bond_distance_aromatic_linkinvent_7_9_3/rearranged_h_0113.sdf

> <i_m_source_file_index>
5

> <r_mmod_Potential_Energy-OPLS-2005>
395.741394042969

> <r_mmod_Stretch_Energy-OPLS-2005>
183.497863769531

> <r_mmod_Bend_Energy-OPLS-2005>
325.896270751953

> <r_mmod_Torsional_Energy-OPLS-2005>
277.459014892578

> <r_mmod_Improper_Torsional_Energy-OPLS-2005>
26.5321998596191

> <r_mmod_Van_der_Waal_Energy-OPLS-2005>
131.417388916016

> <r_mmod_Electrostatic_Energy-OPLS-2005>
-496.978546142578

> <r_mmod_Solvation_Energy-OPLS-2005>
-220.25993347168

> <b_mmod_Minimization_Converged-OPLS-2005>
0

> <r_mmod_RMS_Derivative-OPLS-2005>
4.1175742149353

$$$$
5
                    3D
 Structure written by MMmdl.
163171  0  0  1  0            999 V2000
  -30.7577  -14.4644   20.4320 C   0  0  0  0  0  0
  -30.3884  -12.2702   19.4456 C   0  0  0  0  0  0
  -29.4870  -12.4691   18.2126 C   0  0  0  0  0  0
  -28.0073  -12.3556   18.6220 C   0  0  0  0  0  0
  -27.6505  -13.2247   19.8599 C   0  0  2  0  0  0
  -28.6987  -13.0934   20.9901 C   0  0  0  0  0  0
  -25.2547  -13.8200   20.5697 C   0  0  0  0  0  0
  -24.1827  -13.0449   20.9196 C   0  0  0  0  0  0
  -24.6411  -11.6923   20.8754 C   0  0  0  0  0  0
  -23.9090  -10.4291   21.0411 C   0  0  0  0  0  0
  -24.3630   -9.4202   21.9188 C   0  0  0  0  0  0
  -23.6304   -8.2239   22.0748 C   0  0  0  0  0  0
  -22.4282   -8.0276   21.3539 C   0  0  0  0  0  0
  -21.9928   -9.0254   20.4640 C   0  0  0  0  0  0
  -22.7257  -10.2142   20.3063 C   0  0  0  0  0  0
  -21.6852   -6.0739   22.5273 C   0  0  0  0  0  0
  -21.4003   -6.5640   23.8201 C   0  0  0  0  0  0
  -21.3664   -5.6796   24.9168 C   0  0  0  0  0  0
  -21.6047   -4.3053   24.7220 C   0  0  0  0  0  0
  -21.8822   -3.8152   23.4337 C   0  0  0  0  0  0
  -21.9183   -4.6968   22.3394 C   0  0  0  0  0  0
  -22.7844  -13.5230   21.1860 C   0  0  0  0  0  0
  -22.1665   -4.2156   21.0972 F   0  0  0  0  0  0
  -21.5634   -3.4532   25.7735 F   0  0  0  0  0  0
  -30.0285  -13.3193   20.4122 N   0  0  0  0  0  0
  -26.2981  -12.9411   20.3338 N   0  0  0  0  0  0
  -25.9339  -11.6548   20.5788 N   0  0  0  0  0  0
  -22.0504  -12.8208   22.0419 N   0  0  0  0  0  0
  -25.4226  -15.1920   20.4083 N   0  0  0  0  0  0
  -31.9637  -14.4452   20.1854 O   0  0  0  0  0  0
  -21.6637   -6.8887   21.4243 O   0  0  0  0  0  0
  -22.3516  -14.5536   20.6710 O   0  0  0  0  0  0
  -24.6133  -31.8697   23.2122 C   0  0  0  0  0  0
  -25.9048  -32.4821   23.8411 C   0  0  1  0  0  0
  -27.2390  -27.4481   20.1056 C   0  0  0  0  0  0
  -25.5951  -33.8633   24.2349 N   0  0  0  0  0  0
  -23.4005  -30.4913   21.5525 C   0  0  2  0  0  0
  -24.8496  -28.9588   20.1162 C   0  0  0  0  0  0
  -22.7397  -29.4666   22.5017 C   0  0  0  0  0  0
  -18.0252  -28.1356   22.8489 C   0  0  0  0  0  0
  -24.1496  -36.7305   23.2629 C   0  0  0  0  0  0
  -25.9272  -30.8405   21.3618 C   0  0  0  0  0  0
  -26.0065  -29.4753   20.7103 C   0  0  0  0  0  0
  -27.2057  -28.7288   20.6974 C   0  0  0  0  0  0
  -26.0638  -26.9429   19.5032 C   0  0  0  0  0  0
  -24.8730  -27.6918   19.5077 C   0  0  0  0  0  0
  -23.6064  -29.8153   20.1693 C   0  0  0  0  0  0
  -25.4114  -36.3104   24.0330 C   0  0  1  0  0  0
  -20.5844  -28.3659   23.1334 C   0  0  2  0  0  0
  -20.6760  -26.9389   22.5433 C   0  0  0  0  0  0
  -19.5743  -26.6376   21.5229 C   0  0  0  0  0  0
  -18.1912  -26.7903   22.1613 C   0  0  0  0  0  0
  -19.1499  -28.8828   23.2903 C   0  0  0  0  0  0
  -18.9431  -30.1443   23.8893 C   0  0  0  0  0  0
  -17.6434  -30.6564   24.0565 C   0  0  0  0  0  0
  -25.9049  -34.9479   23.5119 C   0  0  0  0  0  0
  -16.5321  -29.9059   23.6357 C   0  0  0  0  0  0
  -16.7241  -28.6488   23.0352 C   0  0  0  0  0  0
  -26.4507  -31.6575   25.0720 C   0  0  0  0  0  0
  -25.3784  -31.3652   26.1463 C   0  0  0  0  0  0
  -27.0376  -30.3027   24.6130 C   0  0  0  0  0  0
  -27.6107  -32.4282   25.7462 C   0  0  0  0  0  0
  -27.5579  -37.1786   24.8450 C   0  0  0  0  0  0
  -21.4132  -29.3034   22.3757 N   0  0  0  0  0  0
  -26.4278  -37.3803   23.9408 N   0  0  0  0  0  0
  -24.6645  -31.0798   22.1011 N   0  0  0  0  0  0
  -23.4176  -28.8195   23.3038 O   0  0  0  0  0  0
  -28.4135  -26.7287   20.1232 O   0  0  0  0  0  0
  -26.5586  -34.8934   22.4667 O   0  0  0  0  0  0
  -23.5331  -32.1456   23.7516 O   0  0  0  0  0  0
  -30.4331  -20.3125   21.2626 C   0  0  0  0  0  0
  -28.6264  -20.0799   19.6602 C   0  0  0  0  0  0
  -30.7054  -18.9295   21.1664 C   0  0  0  0  0  0
  -29.9454  -18.1081   20.2756 C   0  0  0  0  0  0
  -29.4317  -20.9051   20.4681 C   0  0  0  0  0  0
  -28.8584  -18.6850   19.5481 C   0  0  0  0  0  0
  -31.8209  -18.3810   21.9970 C   0  0  0  0  0  0
  -30.5249  -16.7701   19.8795 C   0  0  0  0  0  0
  -29.5977  -23.2835   21.2221 C   0  0  0  0  0  0
  -33.0884  -19.2198   22.1043 C   0  0  0  0  0  0
  -27.1206  -18.5357   17.7498 C   0  0  0  0  0  0
  -29.6651  -24.7203   20.6832 C   0  0  0  0  0  0
  -28.2905  -25.3179   20.3356 C   0  0  0  0  0  0
  -29.2862  -22.3172   20.3402 N   0  0  0  0  0  0
  -28.0617  -17.9112   18.6757 N   0  0  0  0  0  0
  -30.0699  -15.6287   20.4554 N   0  0  0  0  0  0
  -31.7741  -17.2898   22.5682 O   0  0  0  0  0  0
  -31.4259  -16.8179   19.0299 O   0  0  0  0  0  0
  -29.8208  -23.0682   22.4166 O   0  0  0  0  0  0
  -31.4384  -12.2965   19.1474 H   0  0  0  0  0  0
  -30.2294  -11.2826   19.8823 H   0  0  0  0  0  0
  -29.7176  -11.7239   17.4500 H   0  0  0  0  0  0
  -29.6738  -13.4429   17.7556 H   0  0  0  0  0  0
  -27.8074  -11.3040   18.8341 H   0  0  0  0  0  0
  -27.3618  -12.6192   17.7827 H   0  0  0  0  0  0
  -27.6714  -14.2596   19.5181 H   0  0  0  0  0  0
  -28.6582  -12.1009   21.4410 H   0  0  0  0  0  0
  -28.4915  -13.8042   21.7919 H   0  0  0  0  0  0
  -25.2782   -9.5658   22.4752 H   0  0  0  0  0  0
  -24.0001   -7.4621   22.7454 H   0  0  0  0  0  0
  -21.0860   -8.8776   19.8933 H   0  0  0  0  0  0
  -22.3719  -10.9679   19.6163 H   0  0  0  0  0  0
  -21.1995   -7.6143   23.9712 H   0  0  0  0  0  0
  -21.1489   -6.0522   25.9076 H   0  0  0  0  0  0
  -22.0599   -2.7610   23.2831 H   0  0  0  0  0  0
  -22.4144  -11.9879   22.4798 H   0  0  0  0  0  0
  -21.1110  -13.1200   22.2640 H   0  0  0  0  0  0
  -24.6516  -15.8415   20.5091 H   0  0  0  0  0  0
  -26.2702  -15.6361   20.0799 H   0  0  0  0  0  0
  -26.7099  -32.5555   23.1158 H   0  0  0  0  0  0
  -25.0225  -33.9853   25.0578 H   0  0  0  0  0  0
  -22.6883  -31.3062   21.4067 H   0  0  0  0  0  0
  -23.3778  -35.9615   23.3277 H   0  0  0  0  0  0
  -24.3593  -36.8963   22.2044 H   0  0  0  0  0  0
  -23.7234  -37.6499   23.6668 H   0  0  0  0  0  0
  -26.0326  -31.6096   20.5933 H   0  0  0  0  0  0
  -26.8176  -30.8991   21.9762 H   0  0  0  0  0  0
  -28.0985  -29.1250   21.1615 H   0  0  0  0  0  0
  -26.0588  -25.9777   19.0171 H   0  0  0  0  0  0
  -23.9845  -27.2902   19.0414 H   0  0  0  0  0  0
  -23.6929  -30.5824   19.3991 H   0  0  0  0  0  0
  -22.7369  -29.2185   19.8890 H   0  0  0  0  0  0
  -25.1270  -36.1970   25.0811 H   0  0  0  0  0  0
  -20.9908  -28.3205   24.1470 H   0  0  0  0  0  0
  -20.5707  -26.2255   23.3620 H   0  0  0  0  0  0
  -21.6635  -26.7488   22.1190 H   0  0  0  0  0  0
  -19.6939  -25.6316   21.1230 H   0  0  0  0  0  0
  -19.6670  -27.3227   20.6792 H   0  0  0  0  0  0
  -17.4202  -26.6677   21.3992 H   0  0  0  0  0  0
  -18.0267  -26.0016   22.8972 H   0  0  0  0  0  0
  -19.7906  -30.7264   24.2233 H   0  0  0  0  0  0
  -17.4989  -31.6246   24.5158 H   0  0  0  0  0  0
  -15.5327  -30.2938   23.7733 H   0  0  0  0  0  0
  -15.8631  -28.0831   22.7047 H   0  0  0  0  0  0
  -24.5992  -30.6959   25.7782 H   0  0  0  0  0  0
  -24.8930  -32.2788   26.4909 H   0  0  0  0  0  0
  -25.8151  -30.8824   27.0219 H   0  0  0  0  0  0
  -26.2944  -29.6693   24.1272 H   0  0  0  0  0  0
  -27.4241  -29.7335   25.4603 H   0  0  0  0  0  0
  -27.8720  -30.4336   23.9228 H   0  0  0  0  0  0
  -27.2780  -33.3598   26.2050 H   0  0  0  0  0  0
  -28.3904  -32.6817   25.0261 H   0  0  0  0  0  0
  -28.0797  -31.8398   26.5365 H   0  0  0  0  0  0
  -28.2547  -38.0132   24.7582 H   0  0  0  0  0  0
  -28.1124  -36.2674   24.6153 H   0  0  0  0  0  0
  -27.2314  -37.1281   25.8856 H   0  0  0  0  0  0
  -20.9282  -29.8717   21.6959 H   0  0  0  0  0  0
  -26.0157  -38.2870   24.1487 H   0  0  0  0  0  0
  -31.0493  -20.9317   21.8995 H   0  0  0  0  0  0
  -27.8514  -20.5576   19.0798 H   0  0  0  0  0  0
  -33.2184  -19.8370   21.2143 H   0  0  0  0  0  0
  -33.9606  -18.5728   22.2003 H   0  0  0  0  0  0
  -33.0440  -19.8664   22.9801 H   0  0  0  0  0  0
  -26.6882  -17.7878   17.0834 H   0  0  0  0  0  0
  -27.6139  -19.2835   17.1247 H   0  0  0  0  0  0
  -26.2962  -19.0141   18.2831 H   0  0  0  0  0  0
  -30.3209  -24.7477   19.8128 H   0  0  0  0  0  0
  -30.1502  -25.3405   21.4391 H   0  0  0  0  0  0
  -27.5858  -25.1179   21.1470 H   0  0  0  0  0  0
  -27.9064  -24.8310   19.4379 H   0  0  0  0  0  0
  -28.9672  -22.6390   19.4367 H   0  0  0  0  0  0
  -28.3010  -16.9432   18.4861 H   0  0  0  0  0  0
  -29.1737  -15.6549   20.9117 H   0  0  0  0  0  0
  1 25  1  0  0  0
  1 30  2  0  0  0
  1 86  1  0  0  0
  2  3  1  0  0  0
  2 25  1  0  0  0
  2 90  1  0  0  0
  2 91  1  0  0  0
  3  4  1  0  0  0
  3 92  1  0  0  0
  3 93  1  0  0  0
  4  5  1  0  0  0
  4 94  1  0  0  0
  4 95  1  0  0  0
  5  6  1  0  0  0
  5 26  1  0  0  0
  5 96  1  0  0  0
  6 25  1  0  0  0
  6 97  1  0  0  0
  6 98  1  0  0  0
  7  8  2  0  0  0
  7 26  1  0  0  0
  7 29  1  0  0  0
  8  9  1  0  0  0
  8 22  1  0  0  0
  9 10  1  0  0  0
  9 27  2  0  0  0
 10 11  2  0  0  0
 10 15  1  0  0  0
 11 12  1  0  0  0
 11 99  1  0  0  0
 12 13  2  0  0  0
 12100  1  0  0  0
 13 14  1  0  0  0
 13 31  1  0  0  0
 14 15  2  0  0  0
 14101  1  0  0  0
 15102  1  0  0  0
 16 17  2  0  0  0
 16 21  1  0  0  0
 16 31  1  0  0  0
 17 18  1  0  0  0
 17103  1  0  0  0
 18 19  2  0  0  0
 18104  1  0  0  0
 19 20  1  0  0  0
 19 24  1  0  0  0
 20 21  2  0  0  0
 20105  1  0  0  0
 21 23  1  0  0  0
 22 28  1  0  0  0
 22 32  2  0  0  0
 26 27  1  0  0  0
 28106  1  0  0  0
 28107  1  0  0  0
 29108  1  0  0  0
 29109  1  0  0  0
 33 34  1  0  0  0
 33 66  1  0  0  0
 33 70  2  0  0  0
 34 36  1  0  0  0
 34 59  1  0  0  0
 34110  1  0  0  0
 35 44  2  0  0  0
 35 45  1  0  0  0
 35 68  1  0  0  0
 36 56  1  0  0  0
 36111  1  0  0  0
 37 39  1  0  0  0
 37 47  1  0  0  0
 37 66  1  0  0  0
 37112  1  0  0  0
 38 43  2  0  0  0
 38 46  1  0  0  0
 38 47  1  0  0  0
 39 64  1  0  0  0
 39 67  2  0  0  0
 40 52  1  0  0  0
 40 53  2  0  0  0
 40 58  1  0  0  0
 41113  1  0  0  0
 41114  1  0  0  0
 41115  1  0  0  0
 41 48  1  0  0  0
 42 43  1  0  0  0
 42 66  1  0  0  0
 42116  1  0  0  0
 42117  1  0  0  0
 43 44  1  0  0  0
 44118  1  0  0  0
 45 46  2  0  0  0
 45119  1  0  0  0
 46120  1  0  0  0
 47121  1  0  0  0
 47122  1  0  0  0
 48 56  1  0  0  0
 48 65  1  0  0  0
 48123  1  0  0  0
 49 50  1  0  0  0
 49 53  1  0  0  0
 49 64  1  0  0  0
 49124  1  0  0  0
 50 51  1  0  0  0
 50125  1  0  0  0
 50126  1  0  0  0
 51 52  1  0  0  0
 51127  1  0  0  0
 51128  1  0  0  0
 52129  1  0  0  0
 52130  1  0  0  0
 53 54  1  0  0  0
 54 55  2  0  0  0
 54131  1  0  0  0
 55 57  1  0  0  0
 55132  1  0  0  0
 56 69  2  0  0  0
 57 58  2  0  0  0
 57133  1  0  0  0
 58134  1  0  0  0
 59 60  1  0  0  0
 59 61  1  0  0  0
 59 62  1  0  0  0
 60135  1  0  0  0
 60136  1  0  0  0
 60137  1  0  0  0
 61138  1  0  0  0
 61139  1  0  0  0
 61140  1  0  0  0
 62141  1  0  0  0
 62142  1  0  0  0
 62143  1  0  0  0
 63 65  1  0  0  0
 63144  1  0  0  0
 63145  1  0  0  0
 63146  1  0  0  0
 64147  1  0  0  0
 65148  1  0  0  0
 68 83  1  0  0  0
 71 73  2  0  0  0
 71 75  1  0  0  0
 71149  1  0  0  0
 72 75  2  0  0  0
 72 76  1  0  0  0
 72150  1  0  0  0
 73 74  1  0  0  0
 73 77  1  0  0  0
 74 76  2  0  0  0
 74 78  1  0  0  0
 75 84  1  0  0  0
 76 85  1  0  0  0
 77 80  1  0  0  0
 77 87  2  0  0  0
 78 86  1  0  0  0
 78 88  2  0  0  0
 79 82  1  0  0  0
 79 84  1  0  0  0
 79 89  2  0  0  0
 80151  1  0  0  0
 80152  1  0  0  0
 80153  1  0  0  0
 81 85  1  0  0  0
 81154  1  0  0  0
 81155  1  0  0  0
 81156  1  0  0  0
 82 83  1  0  0  0
 82157  1  0  0  0
 82158  1  0  0  0
 83159  1  0  0  0
 83160  1  0  0  0
 84161  1  0  0  0
 85162  1  0  0  0
 86163  1  0  0  0
M  ISO  4   1 100  68 101  83 101  86 100
M  END
> <chiral flag>
0

> <version>
0

> <s_m_source_file>
/data/baiqing/PycharmProjects/Reinvent-master-3.2/result/LINK_invent/BTK/process_docking_weight1_custom_product_contain_oxygen_bond_distance_aromatic_linkinvent_7_9_3/rearranged_h_0113.sdf

> <i_m_source_file_index>
6

> <r_mmod_Potential_Energy-OPLS-2005>
-19.0509147644043

> <r_mmod_Stretch_Energy-OPLS-2005>
40.1890106201172

> <r_mmod_Bend_Energy-OPLS-2005>
112.93042755127

> <r_mmod_Torsional_Energy-OPLS-2005>
337.315765380859

> <r_mmod_Improper_Torsional_Energy-OPLS-2005>
10.485255241394

> <r_mmod_Van_der_Waal_Energy-OPLS-2005>
179.217041015625

> <r_mmod_Electrostatic_Energy-OPLS-2005>
-467.4873046875

> <r_mmod_Solvation_Energy-OPLS-2005>
-260.442779541016

> <b_mmod_Minimization_Converged-OPLS-2005>
0

> <r_mmod_RMS_Derivative-OPLS-2005>
2.93997669219971

$$$$
6
                    3D
 Structure written by MMmdl.
152161  0  0  1  0            999 V2000
  -30.6611  -14.5726   20.5121 C   0  0  0  0  0  0
  -30.4288  -12.3512   19.4468 C   0  0  0  0  0  0
  -29.5027  -12.5033   18.2201 C   0  0  0  0  0  0
  -28.0243  -12.3531   18.6296 C   0  0  0  0  0  0
  -27.6561  -13.2147   19.8674 C   0  0  2  0  0  0
  -28.6996  -13.0486   20.9961 C   0  0  0  0  0  0
  -25.2571  -13.8171   20.5696 C   0  0  0  0  0  0
  -24.1830  -13.0439   20.9189 C   0  0  0  0  0  0
  -24.6393  -11.6907   20.8734 C   0  0  0  0  0  0
  -23.9062  -10.4291   21.0400 C   0  0  0  0  0  0
  -24.3615   -9.4210   21.9183 C   0  0  0  0  0  0
  -23.6292   -8.2244   22.0752 C   0  0  0  0  0  0
  -22.4276   -8.0282   21.3542 C   0  0  0  0  0  0
  -21.9905   -9.0253   20.4645 C   0  0  0  0  0  0
  -22.7232  -10.2133   20.3054 C   0  0  0  0  0  0
  -21.6851   -6.0739   22.5280 C   0  0  0  0  0  0
  -21.4011   -6.5641   23.8215 C   0  0  0  0  0  0
  -21.3662   -5.6793   24.9176 C   0  0  0  0  0  0
  -21.6047   -4.3057   24.7225 C   0  0  0  0  0  0
  -21.8818   -3.8150   23.4345 C   0  0  0  0  0  0
  -21.9191   -4.6965   22.3403 C   0  0  0  0  0  0
  -22.7853  -13.5235   21.1851 C   0  0  0  0  0  0
  -22.1660   -4.2153   21.0980 F   0  0  0  0  0  0
  -21.5631   -3.4541   25.7739 F   0  0  0  0  0  0
  -30.0233  -13.3659   20.4369 N   0  0  0  0  0  0
  -26.3001  -12.9347   20.3340 N   0  0  0  0  0  0
  -25.9323  -11.6500   20.5757 N   0  0  0  0  0  0
  -22.0496  -12.8229   22.0408 N   0  0  0  0  0  0
  -25.4303  -15.1892   20.4123 N   0  0  0  0  0  0
  -31.8199  -14.7119   20.1128 O   0  0  0  0  0  0
  -21.6637   -6.8882   21.4242 O   0  0  0  0  0  0
  -22.3543  -14.5546   20.6704 O   0  0  0  0  0  0
  -24.6210  -31.8636   23.2072 C   0  0  0  0  0  0
  -25.9083  -32.4799   23.8383 C   0  0  1  0  0  0
  -27.2285  -27.3777   20.1109 C   0  0  0  0  0  0
  -25.5921  -33.8601   24.2312 N   0  0  0  0  0  0
  -23.4132  -30.4879   21.5474 C   0  0  2  0  0  0
  -24.8625  -28.9525   20.1084 C   0  0  0  0  0  0
  -22.7448  -29.4643   22.4952 C   0  0  0  0  0  0
  -18.0283  -28.1386   22.8488 C   0  0  0  0  0  0
  -24.1490  -36.7303   23.2635 C   0  0  0  0  0  0
  -25.9488  -30.8135   21.3699 C   0  0  0  0  0  0
  -26.0276  -29.4457   20.7120 C   0  0  0  0  0  0
  -27.2176  -28.6675   20.7081 C   0  0  0  0  0  0
  -26.0483  -26.9227   19.4850 C   0  0  0  0  0  0
  -24.8712  -27.6927   19.4876 C   0  0  0  0  0  0
  -23.6257  -29.8239   20.1610 C   0  0  0  0  0  0
  -25.4114  -36.3097   24.0329 C   0  0  1  0  0  0
  -20.5879  -28.3681   23.1296 C   0  0  2  0  0  0
  -20.6769  -26.9404   22.5421 C   0  0  0  0  0  0
  -19.5749  -26.6385   21.5216 C   0  0  0  0  0  0
  -18.1926  -26.7932   22.1618 C   0  0  0  0  0  0
  -19.1533  -28.8851   23.2887 C   0  0  0  0  0  0
  -18.9455  -30.1456   23.8900 C   0  0  0  0  0  0
  -17.6457  -30.6588   24.0569 C   0  0  0  0  0  0
  -25.9044  -34.9463   23.5118 C   0  0  0  0  0  0
  -16.5351  -29.9087   23.6332 C   0  0  0  0  0  0
  -16.7271  -28.6506   23.0349 C   0  0  0  0  0  0
  -26.4487  -31.6587   25.0728 C   0  0  0  0  0  0
  -25.3736  -31.3719   26.1468 C   0  0  0  0  0  0
  -27.0305  -30.3009   24.6147 C   0  0  0  0  0  0
  -27.6066  -32.4301   25.7488 C   0  0  0  0  0  0
  -27.5588  -37.1805   24.8461 C   0  0  0  0  0  0
  -21.4168  -29.3040   22.3692 N   0  0  0  0  0  0
  -26.4298  -37.3789   23.9408 N   0  0  0  0  0  0
  -24.6793  -31.0696   22.0993 N   0  0  0  0  0  0
  -23.4190  -28.8180   23.3014 O   0  0  0  0  0  0
  -28.3205  -26.5182   20.1606 O   0  0  0  0  0  0
  -26.5606  -34.8921   22.4681 O   0  0  0  0  0  0
  -23.5388  -32.1410   23.7431 O   0  0  0  0  0  0
  -31.0924  -19.0339   19.5897 C   0  0  0  0  0  0
  -31.0344  -17.6345   19.8401 C   0  0  0  0  0  0
  -29.0807  -17.9461   21.2690 C   0  0  0  0  0  0
  -29.1615  -19.3408   21.0040 C   0  0  0  0  0  0
  -30.1287  -19.8697   20.1868 C   0  0  0  0  0  0
  -30.0304  -17.0564   20.6782 C   0  0  0  0  0  0
  -28.2891  -20.4490   21.4968 C   0  0  0  0  0  0
  -28.6463  -24.0703   20.5053 C   0  0  0  0  0  0
  -28.0643  -25.2826   20.7607 C   0  0  0  0  0  0
  -28.1712  -22.8733   21.2458 C   0  0  0  0  0  0
  -29.9111  -21.3763   20.0973 C   0  0  0  0  0  0
  -28.7300  -21.6417   20.9689 N   0  0  0  0  0  0
  -29.8966  -15.6269   20.9166 N   0  0  0  0  0  0
  -27.3367  -20.2310   22.2562 O   0  0  0  0  0  0
  -27.2682  -22.9931   22.0855 O   0  0  0  0  0  0
  -31.4736  -12.4548   19.1469 H   0  0  0  0  0  0
  -30.3401  -11.3510   19.8745 H   0  0  0  0  0  0
  -29.7566  -11.7621   17.4617 H   0  0  0  0  0  0
  -29.6581  -13.4793   17.7572 H   0  0  0  0  0  0
  -27.8497  -11.2992   18.8491 H   0  0  0  0  0  0
  -27.3723  -12.6003   17.7909 H   0  0  0  0  0  0
  -27.6820  -14.2544   19.5395 H   0  0  0  0  0  0
  -28.6925  -12.0250   21.3737 H   0  0  0  0  0  0
  -28.4540  -13.6803   21.8512 H   0  0  0  0  0  0
  -25.2760   -9.5684   22.4759 H   0  0  0  0  0  0
  -24.0003   -7.4633   22.7470 H   0  0  0  0  0  0
  -21.0836   -8.8769   19.8952 H   0  0  0  0  0  0
  -22.3690  -10.9673   19.6165 H   0  0  0  0  0  0
  -21.2001   -7.6149   23.9720 H   0  0  0  0  0  0
  -21.1486   -6.0525   25.9080 H   0  0  0  0  0  0
  -22.0596   -2.7613   23.2845 H   0  0  0  0  0  0
  -22.4092  -11.9878   22.4788 H   0  0  0  0  0  0
  -21.1120  -13.1264   22.2619 H   0  0  0  0  0  0
  -24.6649  -15.8454   20.5230 H   0  0  0  0  0  0
  -26.2825  -15.6285   20.0880 H   0  0  0  0  0  0
  -26.7157  -32.5492   23.1139 H   0  0  0  0  0  0
  -25.0089  -33.9760   25.0470 H   0  0  0  0  0  0
  -22.7049  -31.3070   21.4070 H   0  0  0  0  0  0
  -23.3749  -35.9640   23.3313 H   0  0  0  0  0  0
  -24.3585  -36.8904   22.2047 H   0  0  0  0  0  0
  -23.7245  -37.6513   23.6641 H   0  0  0  0  0  0
  -26.0734  -31.5813   20.6046 H   0  0  0  0  0  0
  -26.8313  -30.8620   21.9961 H   0  0  0  0  0  0
  -28.1121  -29.0352   21.1914 H   0  0  0  0  0  0
  -26.0324  -25.9497   19.0144 H   0  0  0  0  0  0
  -23.9781  -27.3079   19.0155 H   0  0  0  0  0  0
  -23.7381  -30.6018   19.4050 H   0  0  0  0  0  0
  -22.7477  -29.2488   19.8610 H   0  0  0  0  0  0
  -25.1296  -36.1957   25.0821 H   0  0  0  0  0  0
  -20.9979  -28.3252   24.1413 H   0  0  0  0  0  0
  -20.5669  -26.2287   23.3615 H   0  0  0  0  0  0
  -21.6641  -26.7437   22.1214 H   0  0  0  0  0  0
  -19.6911  -25.6296   21.1241 H   0  0  0  0  0  0
  -19.6698  -27.3200   20.6750 H   0  0  0  0  0  0
  -17.4202  -26.6698   21.4009 H   0  0  0  0  0  0
  -18.0311  -26.0067   22.9002 H   0  0  0  0  0  0
  -19.7932  -30.7275   24.2266 H   0  0  0  0  0  0
  -17.5010  -31.6269   24.5169 H   0  0  0  0  0  0
  -15.5354  -30.2992   23.7655 H   0  0  0  0  0  0
  -15.8667  -28.0836   22.7050 H   0  0  0  0  0  0
  -24.5942  -30.7018   25.7823 H   0  0  0  0  0  0
  -24.8886  -32.2874   26.4863 H   0  0  0  0  0  0
  -25.8083  -30.8948   27.0260 H   0  0  0  0  0  0
  -26.2855  -29.6780   24.1176 H   0  0  0  0  0  0
  -27.4010  -29.7245   25.4636 H   0  0  0  0  0  0
  -27.8728  -30.4298   23.9346 H   0  0  0  0  0  0
  -27.2701  -33.3603   26.2078 H   0  0  0  0  0  0
  -28.3871  -32.6851   25.0306 H   0  0  0  0  0  0
  -28.0734  -31.8408   26.5390 H   0  0  0  0  0  0
  -28.2604  -38.0106   24.7512 H   0  0  0  0  0  0
  -28.1086  -36.2635   24.6275 H   0  0  0  0  0  0
  -27.2308  -37.1440   25.8866 H   0  0  0  0  0  0
  -20.9328  -29.8761   21.6913 H   0  0  0  0  0  0
  -26.0181  -38.2862   24.1423 H   0  0  0  0  0  0
  -31.8576  -19.4452   18.9462 H   0  0  0  0  0  0
  -31.7752  -17.0171   19.3548 H   0  0  0  0  0  0
  -28.2931  -17.5734   21.9091 H   0  0  0  0  0  0
  -29.4276  -23.9952   19.7649 H   0  0  0  0  0  0
  -27.2842  -25.3796   21.5066 H   0  0  0  0  0  0
  -29.7138  -21.6682   19.0648 H   0  0  0  0  0  0
  -30.7919  -21.9117   20.4550 H   0  0  0  0  0  0
  -29.0184  -15.3448   21.3241 H   0  0  0  0  0  0
  1 25  1  0  0  0
  1 30  2  0  0  0
  1 83  1  0  0  0
  2  3  1  0  0  0
  2 25  1  0  0  0
  2 86  1  0  0  0
  2 87  1  0  0  0
  3  4  1  0  0  0
  3 88  1  0  0  0
  3 89  1  0  0  0
  4  5  1  0  0  0
  4 90  1  0  0  0
  4 91  1  0  0  0
  5  6  1  0  0  0
  5 26  1  0  0  0
  5 92  1  0  0  0
  6 25  1  0  0  0
  6 93  1  0  0  0
  6 94  1  0  0  0
  7  8  2  0  0  0
  7 26  1  0  0  0
  7 29  1  0  0  0
  8  9  1  0  0  0
  8 22  1  0  0  0
  9 10  1  0  0  0
  9 27  2  0  0  0
 10 11  2  0  0  0
 10 15  1  0  0  0
 11 12  1  0  0  0
 11 95  1  0  0  0
 12 13  2  0  0  0
 12 96  1  0  0  0
 13 14  1  0  0  0
 13 31  1  0  0  0
 14 15  2  0  0  0
 14 97  1  0  0  0
 15 98  1  0  0  0
 16 17  2  0  0  0
 16 21  1  0  0  0
 16 31  1  0  0  0
 17 18  1  0  0  0
 17 99  1  0  0  0
 18 19  2  0  0  0
 18100  1  0  0  0
 19 20  1  0  0  0
 19 24  1  0  0  0
 20 21  2  0  0  0
 20101  1  0  0  0
 21 23  1  0  0  0
 22 28  1  0  0  0
 22 32  2  0  0  0
 26 27  1  0  0  0
 28102  1  0  0  0
 28103  1  0  0  0
 29104  1  0  0  0
 29105  1  0  0  0
 33 34  1  0  0  0
 33 66  1  0  0  0
 33 70  2  0  0  0
 34 36  1  0  0  0
 34 59  1  0  0  0
 34106  1  0  0  0
 35 44  2  0  0  0
 35 45  1  0  0  0
 35 68  1  0  0  0
 36 56  1  0  0  0
 36107  1  0  0  0
 37 39  1  0  0  0
 37 47  1  0  0  0
 37 66  1  0  0  0
 37108  1  0  0  0
 38 43  2  0  0  0
 38 46  1  0  0  0
 38 47  1  0  0  0
 39 64  1  0  0  0
 39 67  2  0  0  0
 40 52  1  0  0  0
 40 53  2  0  0  0
 40 58  1  0  0  0
 41109  1  0  0  0
 41110  1  0  0  0
 41111  1  0  0  0
 41 48  1  0  0  0
 42 43  1  0  0  0
 42 66  1  0  0  0
 42112  1  0  0  0
 42113  1  0  0  0
 43 44  1  0  0  0
 44114  1  0  0  0
 45 46  2  0  0  0
 45115  1  0  0  0
 46116  1  0  0  0
 47117  1  0  0  0
 47118  1  0  0  0
 48 56  1  0  0  0
 48 65  1  0  0  0
 48119  1  0  0  0
 49 50  1  0  0  0
 49 53  1  0  0  0
 49 64  1  0  0  0
 49120  1  0  0  0
 50 51  1  0  0  0
 50121  1  0  0  0
 50122  1  0  0  0
 51 52  1  0  0  0
 51123  1  0  0  0
 51124  1  0  0  0
 52125  1  0  0  0
 52126  1  0  0  0
 53 54  1  0  0  0
 54 55  2  0  0  0
 54127  1  0  0  0
 55 57  1  0  0  0
 55128  1  0  0  0
 56 69  2  0  0  0
 57 58  2  0  0  0
 57129  1  0  0  0
 58130  1  0  0  0
 59 60  1  0  0  0
 59 61  1  0  0  0
 59 62  1  0  0  0
 60131  1  0  0  0
 60132  1  0  0  0
 60133  1  0  0  0
 61134  1  0  0  0
 61135  1  0  0  0
 61136  1  0  0  0
 62137  1  0  0  0
 62138  1  0  0  0
 62139  1  0  0  0
 63 65  1  0  0  0
 63140  1  0  0  0
 63141  1  0  0  0
 63142  1  0  0  0
 64143  1  0  0  0
 65144  1  0  0  0
 68 79  1  0  0  0
 71 72  2  0  0  0
 71 75  1  0  0  0
 71145  1  0  0  0
 72 76  1  0  0  0
 72146  1  0  0  0
 73 74  1  0  0  0
 73 76  2  0  0  0
 73147  1  0  0  0
 74 75  2  0  0  0
 74 77  1  0  0  0
 75 81  1  0  0  0
 76 83  1  0  0  0
 77 82  1  0  0  0
 77 84  2  0  0  0
 78 79  2  0  0  0
 78 80  1  0  0  0
 78148  1  0  0  0
 79149  1  0  0  0
 80 82  1  0  0  0
 80 85  2  0  0  0
 81 82  1  0  0  0
 81150  1  0  0  0
 81151  1  0  0  0
 83152  1  0  0  0
M  ISO  4   1 100  68 101  79 101  83 100
M  END
> <chiral flag>
0

> <version>
0

> <s_m_source_file>
/data/baiqing/PycharmProjects/Reinvent-master-3.2/result/LINK_invent/BTK/process_docking_weight1_custom_product_contain_oxygen_bond_distance_aromatic_linkinvent_7_9_3/rearranged_h_0113.sdf

> <i_m_source_file_index>
7

> <r_mmod_Potential_Energy-OPLS-2005>
38.5259666442871

> <r_mmod_Stretch_Energy-OPLS-2005>
64.3726043701172

> <r_mmod_Bend_Energy-OPLS-2005>
181.027618408203

> <r_mmod_Torsional_Energy-OPLS-2005>
241.949020385742

> <r_mmod_Improper_Torsional_Energy-OPLS-2005>
3.7806282043457

> <r_mmod_Van_der_Waal_Energy-OPLS-2005>
161.285354614258

> <r_mmod_Electrostatic_Energy-OPLS-2005>
-411.210968017578

> <r_mmod_Solvation_Energy-OPLS-2005>
-234.388763427734

> <b_mmod_Minimization_Converged-OPLS-2005>
0

> <r_mmod_RMS_Derivative-OPLS-2005>
0.809937357902527

$$$$
7
                    3D
 Structure written by MMmdl.
157165  0  0  1  0            999 V2000
  -30.6950  -14.5288   20.5771 C   0  0  0  0  0  0
  -30.4332  -12.3397   19.4413 C   0  0  0  0  0  0
  -29.5013  -12.5070   18.2226 C   0  0  0  0  0  0
  -28.0235  -12.3518   18.6356 C   0  0  0  0  0  0
  -27.6619  -13.2137   19.8731 C   0  0  2  0  0  0
  -28.7083  -13.0361   20.9949 C   0  0  0  0  0  0
  -25.2630  -13.8184   20.5695 C   0  0  0  0  0  0
  -24.1881  -13.0448   20.9175 C   0  0  0  0  0  0
  -24.6454  -11.6928   20.8761 C   0  0  0  0  0  0
  -23.9108  -10.4296   21.0393 C   0  0  0  0  0  0
  -24.3657   -9.4203   21.9181 C   0  0  0  0  0  0
  -23.6321   -8.2239   22.0744 C   0  0  0  0  0  0
  -22.4279   -8.0308   21.3556 C   0  0  0  0  0  0
  -21.9932   -9.0278   20.4635 C   0  0  0  0  0  0
  -22.7269  -10.2155   20.3048 C   0  0  0  0  0  0
  -21.6850   -6.0753   22.5270 C   0  0  0  0  0  0
  -21.4007   -6.5661   23.8205 C   0  0  0  0  0  0
  -21.3667   -5.6812   24.9169 C   0  0  0  0  0  0
  -21.6040   -4.3075   24.7213 C   0  0  0  0  0  0
  -21.8823   -3.8168   23.4330 C   0  0  0  0  0  0
  -21.9187   -4.6978   22.3384 C   0  0  0  0  0  0
  -22.7903  -13.5254   21.1813 C   0  0  0  0  0  0
  -22.1653   -4.2166   21.0966 F   0  0  0  0  0  0
  -21.5617   -3.4562   25.7726 F   0  0  0  0  0  0
  -30.0346  -13.3449   20.4399 N   0  0  0  0  0  0
  -26.3066  -12.9370   20.3416 N   0  0  0  0  0  0
  -25.9387  -11.6522   20.5807 N   0  0  0  0  0  0
  -22.0573  -12.8234   22.0393 N   0  0  0  0  0  0
  -25.4422  -15.1876   20.4074 N   0  0  0  0  0  0
  -31.8277  -14.6728   20.1117 O   0  0  0  0  0  0
  -21.6647   -6.8906   21.4241 O   0  0  0  0  0  0
  -22.3571  -14.5549   20.6646 O   0  0  0  0  0  0
  -24.6204  -31.8687   23.2065 C   0  0  0  0  0  0
  -25.9077  -32.4819   23.8359 C   0  0  1  0  0  0
  -27.2166  -27.4062   20.0947 C   0  0  0  0  0  0
  -25.5914  -33.8609   24.2292 N   0  0  0  0  0  0
  -23.4051  -30.4948   21.5482 C   0  0  2  0  0  0
  -24.8483  -28.9612   20.1019 C   0  0  0  0  0  0
  -22.7400  -29.4694   22.4967 C   0  0  0  0  0  0
  -18.0287  -28.1390   22.8455 C   0  0  0  0  0  0
  -24.1480  -36.7299   23.2632 C   0  0  0  0  0  0
  -25.9395  -30.8262   21.3602 C   0  0  0  0  0  0
  -26.0160  -29.4625   20.6976 C   0  0  0  0  0  0
  -27.2074  -28.6982   20.6794 C   0  0  0  0  0  0
  -26.0344  -26.9286   19.4880 C   0  0  0  0  0  0
  -24.8558  -27.6985   19.4887 C   0  0  0  0  0  0
  -23.6105  -29.8294   20.1607 C   0  0  0  0  0  0
  -25.4107  -36.3097   24.0333 C   0  0  1  0  0  0
  -20.5853  -28.3710   23.1301 C   0  0  2  0  0  0
  -20.6781  -26.9442   22.5455 C   0  0  0  0  0  0
  -19.5806  -26.6411   21.5219 C   0  0  0  0  0  0
  -18.1971  -26.7917   22.1631 C   0  0  0  0  0  0
  -19.1520  -28.8873   23.2858 C   0  0  0  0  0  0
  -18.9435  -30.1463   23.8880 C   0  0  0  0  0  0
  -17.6430  -30.6567   24.0584 C   0  0  0  0  0  0
  -25.9051  -34.9473   23.5112 C   0  0  0  0  0  0
  -16.5336  -29.9044   23.6345 C   0  0  0  0  0  0
  -16.7264  -28.6486   23.0311 C   0  0  0  0  0  0
  -26.4489  -31.6586   25.0692 C   0  0  0  0  0  0
  -25.3728  -31.3716   26.1420 C   0  0  0  0  0  0
  -27.0329  -30.3015   24.6088 C   0  0  0  0  0  0
  -27.6048  -32.4316   25.7460 C   0  0  0  0  0  0
  -27.5574  -37.1789   24.8463 C   0  0  0  0  0  0
  -21.4132  -29.3058   22.3698 N   0  0  0  0  0  0
  -26.4283  -37.3787   23.9416 N   0  0  0  0  0  0
  -24.6728  -31.0789   22.0953 N   0  0  0  0  0  0
  -23.4165  -28.8260   23.3032 O   0  0  0  0  0  0
  -28.3406  -26.6020   20.1297 O   0  0  0  0  0  0
  -26.5609  -34.8949   22.4688 O   0  0  0  0  0  0
  -23.5398  -32.1443   23.7459 O   0  0  0  0  0  0
  -29.3452  -18.0050   21.0766 C   0  0  0  0  0  0
  -28.3861  -18.0898   22.0842 C   0  0  0  0  0  0
  -28.8185  -20.2572   20.9306 C   0  0  0  0  0  0
  -30.0878  -16.7556   20.6799 C   0  0  0  0  0  0
  -28.4292  -22.7417   20.9189 C   0  0  0  0  0  0
  -27.5012  -18.2374   25.3170 C   0  0  0  0  0  0
  -27.8457  -17.0450   23.0328 C   0  0  0  0  0  0
  -28.7103  -24.0622   20.1451 C   0  0  0  0  0  0
  -28.3006  -17.2026   24.5002 C   0  0  0  0  0  0
  -28.1522  -25.3473   20.8351 C   0  0  0  0  0  0
  -29.5613  -19.2531   20.4405 N   0  0  0  0  0  0
  -29.9221  -15.5579   21.1260 N   0  0  0  0  0  0
  -28.9462  -21.5918   20.4193 N   0  0  0  0  0  0
  -27.7743  -22.7828   21.9655 O   0  0  0  0  0  0
  -27.7225  -19.7106   22.1937 S   0  0  0  0  0  0
  -31.4756  -12.4347   19.1296 H   0  0  0  0  0  0
  -30.3407  -11.3430   19.8743 H   0  0  0  0  0  0
  -29.7533  -11.7814   17.4473 H   0  0  0  0  0  0
  -29.6526  -13.4932   17.7776 H   0  0  0  0  0  0
  -27.8459  -11.2994   18.8575 H   0  0  0  0  0  0
  -27.3719  -12.6046   17.8004 H   0  0  0  0  0  0
  -27.6948  -14.2523   19.5474 H   0  0  0  0  0  0
  -28.7093  -12.0104   21.3655 H   0  0  0  0  0  0
  -28.4582  -13.6524   21.8600 H   0  0  0  0  0  0
  -25.2804   -9.5639   22.4778 H   0  0  0  0  0  0
  -23.9998   -7.4601   22.7457 H   0  0  0  0  0  0
  -21.0862   -8.8826   19.8950 H   0  0  0  0  0  0
  -22.3754  -10.9701   19.6162 H   0  0  0  0  0  0
  -21.2026   -7.6167   23.9715 H   0  0  0  0  0  0
  -21.1467   -6.0540   25.9072 H   0  0  0  0  0  0
  -22.0597   -2.7623   23.2824 H   0  0  0  0  0  0
  -22.4246  -11.9907   22.4751 H   0  0  0  0  0  0
  -21.1192  -13.1244   22.2644 H   0  0  0  0  0  0
  -24.6925  -15.8628   20.4940 H   0  0  0  0  0  0
  -26.3187  -15.6019   20.1156 H   0  0  0  0  0  0
  -26.7145  -32.5521   23.1123 H   0  0  0  0  0  0
  -25.0044  -33.9730   25.0417 H   0  0  0  0  0  0
  -22.6970  -31.3137   21.4122 H   0  0  0  0  0  0
  -23.3748  -35.9621   23.3311 H   0  0  0  0  0  0
  -24.3566  -36.8894   22.2034 H   0  0  0  0  0  0
  -23.7217  -37.6509   23.6648 H   0  0  0  0  0  0
  -26.0596  -31.5963   20.5959 H   0  0  0  0  0  0
  -26.8247  -30.8746   21.9847 H   0  0  0  0  0  0
  -28.1105  -29.0769   21.1364 H   0  0  0  0  0  0
  -26.0118  -25.9490   19.0315 H   0  0  0  0  0  0
  -23.9595  -27.3150   19.0223 H   0  0  0  0  0  0
  -23.7159  -30.6058   19.4048 H   0  0  0  0  0  0
  -22.7305  -29.2525   19.8666 H   0  0  0  0  0  0
  -25.1280  -36.1960   25.0820 H   0  0  0  0  0  0
  -20.9923  -28.3367   24.1422 H   0  0  0  0  0  0
  -20.5638  -26.2353   23.3692 H   0  0  0  0  0  0
  -21.6668  -26.7480   22.1305 H   0  0  0  0  0  0
  -19.7023  -25.6339   21.1201 H   0  0  0  0  0  0
  -19.6719  -27.3249   20.6775 H   0  0  0  0  0  0
  -17.4232  -26.6545   21.4050 H   0  0  0  0  0  0
  -18.0437  -26.0096   22.9080 H   0  0  0  0  0  0
  -19.7920  -30.7282   24.2217 H   0  0  0  0  0  0
  -17.4984  -31.6232   24.5240 H   0  0  0  0  0  0
  -15.5330  -30.2933   23.7706 H   0  0  0  0  0  0
  -15.8665  -28.0815   22.7022 H   0  0  0  0  0  0
  -24.5881  -30.7096   25.7749 H   0  0  0  0  0  0
  -24.8953  -32.2893   26.4866 H   0  0  0  0  0  0
  -25.8045  -30.8869   27.0178 H   0  0  0  0  0  0
  -26.2889  -29.6748   24.1150 H   0  0  0  0  0  0
  -27.4100  -29.7280   25.4566 H   0  0  0  0  0  0
  -27.8728  -30.4322   23.9250 H   0  0  0  0  0  0
  -27.2634  -33.3588   26.2078 H   0  0  0  0  0  0
  -28.3827  -32.6907   25.0263 H   0  0  0  0  0  0
  -28.0757  -31.8418   26.5327 H   0  0  0  0  0  0
  -28.2603  -38.0072   24.7530 H   0  0  0  0  0  0
  -28.1048  -36.2612   24.6277 H   0  0  0  0  0  0
  -27.2300  -37.1442   25.8862 H   0  0  0  0  0  0
  -20.9349  -29.8725   21.6842 H   0  0  0  0  0  0
  -26.0178  -38.2864   24.1440 H   0  0  0  0  0  0
  -30.8417  -16.9557   19.9080 H   0  0  0  0  0  0
  -27.6257  -18.0756   26.3924 H   0  0  0  0  0  0
  -26.4292  -18.1816   25.1119 H   0  0  0  0  0  0
  -27.8368  -19.2540   25.1068 H   0  0  0  0  0  0
  -26.7546  -17.0383   22.9928 H   0  0  0  0  0  0
  -28.1152  -16.0432   22.7099 H   0  0  0  0  0  0
  -28.2932  -23.9700   19.1413 H   0  0  0  0  0  0
  -29.7901  -24.1549   20.0307 H   0  0  0  0  0  0
  -28.1735  -16.2353   24.9881 H   0  0  0  0  0  0
  -29.3689  -17.4188   24.5596 H   0  0  0  0  0  0
  -28.6407  -25.4476   21.8043 H   0  0  0  0  0  0
  -27.1004  -25.1752   21.0638 H   0  0  0  0  0  0
  -29.5184  -21.6867   19.5955 H   0  0  0  0  0  0
  1 25  1  0  0  0
  1 30  2  0  0  0
  1 82  1  0  0  0
  2  3  1  0  0  0
  2 25  1  0  0  0
  2 86  1  0  0  0
  2 87  1  0  0  0
  3  4  1  0  0  0
  3 88  1  0  0  0
  3 89  1  0  0  0
  4  5  1  0  0  0
  4 90  1  0  0  0
  4 91  1  0  0  0
  5  6  1  0  0  0
  5 26  1  0  0  0
  5 92  1  0  0  0
  6 25  1  0  0  0
  6 93  1  0  0  0
  6 94  1  0  0  0
  7  8  2  0  0  0
  7 26  1  0  0  0
  7 29  1  0  0  0
  8  9  1  0  0  0
  8 22  1  0  0  0
  9 10  1  0  0  0
  9 27  2  0  0  0
 10 11  2  0  0  0
 10 15  1  0  0  0
 11 12  1  0  0  0
 11 95  1  0  0  0
 12 13  2  0  0  0
 12 96  1  0  0  0
 13 14  1  0  0  0
 13 31  1  0  0  0
 14 15  2  0  0  0
 14 97  1  0  0  0
 15 98  1  0  0  0
 16 17  2  0  0  0
 16 21  1  0  0  0
 16 31  1  0  0  0
 17 18  1  0  0  0
 17 99  1  0  0  0
 18 19  2  0  0  0
 18100  1  0  0  0
 19 20  1  0  0  0
 19 24  1  0  0  0
 20 21  2  0  0  0
 20101  1  0  0  0
 21 23  1  0  0  0
 22 28  1  0  0  0
 22 32  2  0  0  0
 26 27  1  0  0  0
 28102  1  0  0  0
 28103  1  0  0  0
 29104  1  0  0  0
 29105  1  0  0  0
 33 34  1  0  0  0
 33 66  1  0  0  0
 33 70  2  0  0  0
 34 36  1  0  0  0
 34 59  1  0  0  0
 34106  1  0  0  0
 35 44  2  0  0  0
 35 45  1  0  0  0
 35 68  1  0  0  0
 36 56  1  0  0  0
 36107  1  0  0  0
 37 39  1  0  0  0
 37 47  1  0  0  0
 37 66  1  0  0  0
 37108  1  0  0  0
 38 43  2  0  0  0
 38 46  1  0  0  0
 38 47  1  0  0  0
 39 64  1  0  0  0
 39 67  2  0  0  0
 40 52  1  0  0  0
 40 53  2  0  0  0
 40 58  1  0  0  0
 41109  1  0  0  0
 41110  1  0  0  0
 41111  1  0  0  0
 41 48  1  0  0  0
 42 43  1  0  0  0
 42 66  1  0  0  0
 42112  1  0  0  0
 42113  1  0  0  0
 43 44  1  0  0  0
 44114  1  0  0  0
 45 46  2  0  0  0
 45115  1  0  0  0
 46116  1  0  0  0
 47117  1  0  0  0
 47118  1  0  0  0
 48 56  1  0  0  0
 48 65  1  0  0  0
 48119  1  0  0  0
 49 50  1  0  0  0
 49 53  1  0  0  0
 49 64  1  0  0  0
 49120  1  0  0  0
 50 51  1  0  0  0
 50121  1  0  0  0
 50122  1  0  0  0
 51 52  1  0  0  0
 51123  1  0  0  0
 51124  1  0  0  0
 52125  1  0  0  0
 52126  1  0  0  0
 53 54  1  0  0  0
 54 55  2  0  0  0
 54127  1  0  0  0
 55 57  1  0  0  0
 55128  1  0  0  0
 56 69  2  0  0  0
 57 58  2  0  0  0
 57129  1  0  0  0
 58130  1  0  0  0
 59 60  1  0  0  0
 59 61  1  0  0  0
 59 62  1  0  0  0
 60131  1  0  0  0
 60132  1  0  0  0
 60133  1  0  0  0
 61134  1  0  0  0
 61135  1  0  0  0
 61136  1  0  0  0
 62137  1  0  0  0
 62138  1  0  0  0
 62139  1  0  0  0
 63 65  1  0  0  0
 63140  1  0  0  0
 63141  1  0  0  0
 63142  1  0  0  0
 64143  1  0  0  0
 65144  1  0  0  0
 68 80  1  0  0  0
 71 72  2  0  0  0
 71 74  1  0  0  0
 71 81  1  0  0  0
 72 77  1  0  0  0
 72 85  1  0  0  0
 73 81  2  0  0  0
 73 83  1  0  0  0
 73 85  1  0  0  0
 74 82  2  0  0  0
 74145  1  0  0  0
 75 78  1  0  0  0
 75 83  1  0  0  0
 75 84  2  0  0  0
 76 79  1  0  0  0
 76146  1  0  0  0
 76147  1  0  0  0
 76148  1  0  0  0
 77 79  1  0  0  0
 77149  1  0  0  0
 77150  1  0  0  0
 78 80  1  0  0  0
 78151  1  0  0  0
 78152  1  0  0  0
 79153  1  0  0  0
 79154  1  0  0  0
 80155  1  0  0  0
 80156  1  0  0  0
 83157  1  0  0  0
M  ISO  4   1 100  68 101  80 101  82 100
M  END
> <chiral flag>
0

> <version>
0

> <s_m_source_file>
/data/baiqing/PycharmProjects/Reinvent-master-3.2/result/LINK_invent/BTK/process_docking_weight1_custom_product_contain_oxygen_bond_distance_aromatic_linkinvent_7_9_3/rearranged_h_0113.sdf

> <i_m_source_file_index>
8

> <r_mmod_Potential_Energy-OPLS-2005>
-111.053672790527

> <r_mmod_Stretch_Energy-OPLS-2005>
46.8758773803711

> <r_mmod_Bend_Energy-OPLS-2005>
109.106605529785

> <r_mmod_Torsional_Energy-OPLS-2005>
176.360824584961

> <r_mmod_Improper_Torsional_Energy-OPLS-2005>
3.40869832038879

> <r_mmod_Van_der_Waal_Energy-OPLS-2005>
139.617980957031

> <r_mmod_Electrostatic_Energy-OPLS-2005>
-409.281158447266

> <r_mmod_Solvation_Energy-OPLS-2005>
-198.590255737305

> <b_mmod_Minimization_Converged-OPLS-2005>
0

> <r_mmod_RMS_Derivative-OPLS-2005>
5.9452075958252

$$$$
8
                    3D
 Structure written by MMmdl.
157166  0  0  1  0            999 V2000
  -30.5844  -14.7180   20.4707 C   0  0  0  0  0  0
  -30.4495  -12.4375   19.4681 C   0  0  0  0  0  0
  -29.5164  -12.4907   18.2357 C   0  0  0  0  0  0
  -28.0477  -12.2755   18.6546 C   0  0  0  0  0  0
  -27.6473  -13.1738   19.8525 C   0  0  2  0  0  0
  -28.6906  -13.1083   20.9893 C   0  0  0  0  0  0
  -25.2601  -13.8019   20.5692 C   0  0  0  0  0  0
  -24.1826  -13.0350   20.9217 C   0  0  0  0  0  0
  -24.6334  -11.6812   20.8752 C   0  0  0  0  0  0
  -23.8995  -10.4227   21.0426 C   0  0  0  0  0  0
  -24.3561   -9.4145   21.9192 C   0  0  0  0  0  0
  -23.6247   -8.2181   22.0751 C   0  0  0  0  0  0
  -22.4231   -8.0232   21.3536 C   0  0  0  0  0  0
  -21.9865   -9.0204   20.4638 C   0  0  0  0  0  0
  -22.7184  -10.2086   20.3062 C   0  0  0  0  0  0
  -21.6823   -6.0715   22.5289 C   0  0  0  0  0  0
  -21.3985   -6.5621   23.8224 C   0  0  0  0  0  0
  -21.3669   -5.6781   24.9190 C   0  0  0  0  0  0
  -21.6049   -4.3048   24.7235 C   0  0  0  0  0  0
  -21.8814   -3.8135   23.4354 C   0  0  0  0  0  0
  -21.9173   -4.6948   22.3411 C   0  0  0  0  0  0
  -22.7877  -13.5212   21.1859 C   0  0  0  0  0  0
  -22.1646   -4.2141   21.0990 F   0  0  0  0  0  0
  -21.5645   -3.4538   25.7746 F   0  0  0  0  0  0
  -29.9957  -13.4750   20.4174 N   0  0  0  0  0  0
  -26.2946  -12.9100   20.3265 N   0  0  0  0  0  0
  -25.9236  -11.6307   20.5741 N   0  0  0  0  0  0
  -22.0486  -12.8252   22.0427 N   0  0  0  0  0  0
  -25.4363  -15.1729   20.4137 N   0  0  0  0  0  0
  -31.7659  -14.8620   20.1366 O   0  0  0  0  0  0
  -21.6588   -6.8841   21.4246 O   0  0  0  0  0  0
  -22.3602  -14.5529   20.6705 O   0  0  0  0  0  0
  -24.6287  -31.8582   23.2012 C   0  0  0  0  0  0
  -25.9145  -32.4757   23.8341 C   0  0  1  0  0  0
  -27.2265  -27.3077   20.1179 C   0  0  0  0  0  0
  -25.5971  -33.8556   24.2264 N   0  0  0  0  0  0
  -23.4223  -30.4827   21.5422 C   0  0  2  0  0  0
  -24.8727  -28.9397   20.1042 C   0  0  0  0  0  0
  -22.7479  -29.4628   22.4908 C   0  0  0  0  0  0
  -18.0289  -28.1379   22.8470 C   0  0  0  0  0  0
  -24.1489  -36.7272   23.2630 C   0  0  0  0  0  0
  -25.9655  -30.7809   21.3803 C   0  0  0  0  0  0
  -26.0389  -29.4085   20.7233 C   0  0  0  0  0  0
  -27.2172  -28.6008   20.7291 C   0  0  0  0  0  0
  -26.0461  -26.9122   19.4466 C   0  0  0  0  0  0
  -24.8792  -27.6966   19.4549 C   0  0  0  0  0  0
  -23.6391  -29.8172   20.1568 C   0  0  0  0  0  0
  -25.4118  -36.3049   24.0313 C   0  0  1  0  0  0
  -20.5890  -28.3691   23.1250 C   0  0  2  0  0  0
  -20.6776  -26.9404   22.5394 C   0  0  0  0  0  0
  -19.5753  -26.6367   21.5195 C   0  0  0  0  0  0
  -18.1929  -26.7923   22.1598 C   0  0  0  0  0  0
  -19.1541  -28.8855   23.2855 C   0  0  0  0  0  0
  -18.9472  -30.1465   23.8858 C   0  0  0  0  0  0
  -17.6470  -30.6582   24.0557 C   0  0  0  0  0  0
  -25.9066  -34.9432   23.5078 C   0  0  0  0  0  0
  -16.5359  -29.9078   23.6333 C   0  0  0  0  0  0
  -16.7280  -28.6503   23.0336 C   0  0  0  0  0  0
  -26.4523  -31.6570   25.0720 C   0  0  0  0  0  0
  -25.3782  -31.3740   26.1469 C   0  0  0  0  0  0
  -27.0360  -30.2976   24.6210 C   0  0  0  0  0  0
  -27.6065  -32.4315   25.7510 C   0  0  0  0  0  0
  -27.5573  -37.1788   24.8452 C   0  0  0  0  0  0
  -21.4194  -29.3048   22.3651 N   0  0  0  0  0  0
  -26.4277  -37.3760   23.9410 N   0  0  0  0  0  0
  -24.6903  -31.0583   22.0964 N   0  0  0  0  0  0
  -23.4196  -28.8152   23.2981 O   0  0  0  0  0  0
  -28.3179  -26.4164   20.1696 O   0  0  0  0  0  0
  -26.5609  -34.8915   22.4630 O   0  0  0  0  0  0
  -23.5449  -32.1381   23.7345 O   0  0  0  0  0  0
  -28.7441  -19.3604   19.8227 C   0  0  0  0  0  0
  -30.7187  -19.3804   21.1214 C   0  0  0  0  0  0
  -28.7987  -17.9303   19.8143 C   0  0  0  0  0  0
  -29.7043  -20.1557   20.4867 C   0  0  0  0  0  0
  -29.8290  -17.2404   20.5421 C   0  0  0  0  0  0
  -28.8748  -23.9360   20.2661 C   0  0  0  0  0  0
  -26.9910  -17.7072   18.0501 C   0  0  0  0  0  0
  -27.8101  -17.1992   18.9903 C   0  0  0  0  0  0
  -28.0442  -25.0334   20.3339 C   0  0  0  0  0  0
  -30.3765  -23.8950   20.0698 C   0  0  0  0  0  0
  -28.4386  -22.4550   20.3937 C   0  0  0  0  0  0
  -30.8353  -22.4623   20.4796 C   0  0  0  0  0  0
  -30.7679  -18.0077   21.1680 N   0  0  0  0  0  0
  -29.6496  -21.6026   20.4802 N   0  0  0  0  0  0
  -29.7327  -15.7775   20.7090 N   0  0  0  0  0  0
  -31.4872  -12.5863   19.1638 H   0  0  0  0  0  0
  -30.4158  -11.4536   19.9382 H   0  0  0  0  0  0
  -29.8140  -11.7351   17.5081 H   0  0  0  0  0  0
  -29.6194  -13.4547   17.7351 H   0  0  0  0  0  0
  -27.9319  -11.2243   18.9250 H   0  0  0  0  0  0
  -27.3826  -12.4441   17.8072 H   0  0  0  0  0  0
  -27.6415  -14.1747   19.4492 H   0  0  0  0  0  0
  -28.7346  -12.1025   21.4119 H   0  0  0  0  0  0
  -28.4105  -13.7674   21.8122 H   0  0  0  0  0  0
  -25.2708   -9.5619   22.4768 H   0  0  0  0  0  0
  -23.9955   -7.4562   22.7464 H   0  0  0  0  0  0
  -21.0801   -8.8708   19.8941 H   0  0  0  0  0  0
  -22.3641  -10.9623   19.6171 H   0  0  0  0  0  0
  -21.1956   -7.6121   23.9732 H   0  0  0  0  0  0
  -21.1513   -6.0507   25.9099 H   0  0  0  0  0  0
  -22.0582   -2.7597   23.2856 H   0  0  0  0  0  0
  -22.4052  -11.9895   22.4821 H   0  0  0  0  0  0
  -21.1122  -13.1347   22.2619 H   0  0  0  0  0  0
  -24.6637  -15.8223   20.5081 H   0  0  0  0  0  0
  -26.2665  -15.6118   20.0425 H   0  0  0  0  0  0
  -26.7221  -32.5410   23.1088 H   0  0  0  0  0  0
  -25.0203  -33.9707   25.0467 H   0  0  0  0  0  0
  -22.7170  -31.3044   21.3979 H   0  0  0  0  0  0
  -23.3765  -35.9587   23.3255 H   0  0  0  0  0  0
  -24.3581  -36.8948   22.2054 H   0  0  0  0  0  0
  -23.7231  -37.6450   23.6702 H   0  0  0  0  0  0
  -26.1045  -31.5429   20.6115 H   0  0  0  0  0  0
  -26.8415  -30.8244   22.0149 H   0  0  0  0  0  0
  -28.1084  -28.9489   21.2338 H   0  0  0  0  0  0
  -26.0076  -25.9656   18.9276 H   0  0  0  0  0  0
  -23.9924  -27.3370   18.9509 H   0  0  0  0  0  0
  -23.7507  -30.5906   19.3955 H   0  0  0  0  0  0
  -22.7615  -29.2401   19.8588 H   0  0  0  0  0  0
  -25.1300  -36.1872   25.0802 H   0  0  0  0  0  0
  -20.9981  -28.3271   24.1372 H   0  0  0  0  0  0
  -20.5636  -26.2309   23.3605 H   0  0  0  0  0  0
  -21.6651  -26.7407   22.1213 H   0  0  0  0  0  0
  -19.6905  -25.6269   21.1238 H   0  0  0  0  0  0
  -19.6698  -27.3163   20.6721 H   0  0  0  0  0  0
  -17.4202  -26.6687   21.3993 H   0  0  0  0  0  0
  -18.0321  -26.0061   22.8985 H   0  0  0  0  0  0
  -19.7958  -30.7301   24.2175 H   0  0  0  0  0  0
  -17.5033  -31.6259   24.5172 H   0  0  0  0  0  0
  -15.5360  -30.2965   23.7704 H   0  0  0  0  0  0
  -15.8682  -28.0835   22.7030 H   0  0  0  0  0  0
  -24.5890  -30.7158   25.7814 H   0  0  0  0  0  0
  -24.9077  -32.2940   26.4952 H   0  0  0  0  0  0
  -25.8123  -30.8856   27.0209 H   0  0  0  0  0  0
  -26.2934  -29.6703   24.1255 H   0  0  0  0  0  0
  -27.4057  -29.7246   25.4726 H   0  0  0  0  0  0
  -27.8815  -30.4219   23.9437 H   0  0  0  0  0  0
  -27.2659  -33.3647   26.2011 H   0  0  0  0  0  0
  -28.3936  -32.6817   25.0385 H   0  0  0  0  0  0
  -28.0657  -31.8481   26.5498 H   0  0  0  0  0  0
  -28.2552  -38.0117   24.7523 H   0  0  0  0  0  0
  -28.1101  -36.2644   24.6241 H   0  0  0  0  0  0
  -27.2295  -37.1395   25.8853 H   0  0  0  0  0  0
  -20.9370  -29.8828   21.6915 H   0  0  0  0  0  0
  -26.0132  -38.2818   24.1445 H   0  0  0  0  0  0
  -27.9565  -19.8687   19.2898 H   0  0  0  0  0  0
  -31.5120  -19.8809   21.6577 H   0  0  0  0  0  0
  -26.3013  -17.0616   17.5237 H   0  0  0  0  0  0
  -26.9748  -18.7503   17.7689 H   0  0  0  0  0  0
  -27.7287  -16.1477   19.1578 H   0  0  0  0  0  0
  -26.9974  -24.8526   20.5358 H   0  0  0  0  0  0
  -30.8858  -24.6772   20.6332 H   0  0  0  0  0  0
  -30.5864  -24.0596   19.0126 H   0  0  0  0  0  0
  -27.8371  -22.1847   19.5236 H   0  0  0  0  0  0
  -27.8179  -22.3239   21.2812 H   0  0  0  0  0  0
  -31.2648  -22.4787   21.4828 H   0  0  0  0  0  0
  -31.6021  -22.0874   19.7979 H   0  0  0  0  0  0
  -28.8033  -15.4668   20.9360 H   0  0  0  0  0  0
  1 25  1  0  0  0
  1 30  2  0  0  0
  1 85  1  0  0  0
  2  3  1  0  0  0
  2 25  1  0  0  0
  2 86  1  0  0  0
  2 87  1  0  0  0
  3  4  1  0  0  0
  3 88  1  0  0  0
  3 89  1  0  0  0
  4  5  1  0  0  0
  4 90  1  0  0  0
  4 91  1  0  0  0
  5  6  1  0  0  0
  5 26  1  0  0  0
  5 92  1  0  0  0
  6 25  1  0  0  0
  6 93  1  0  0  0
  6 94  1  0  0  0
  7  8  2  0  0  0
  7 26  1  0  0  0
  7 29  1  0  0  0
  8  9  1  0  0  0
  8 22  1  0  0  0
  9 10  1  0  0  0
  9 27  2  0  0  0
 10 11  2  0  0  0
 10 15  1  0  0  0
 11 12  1  0  0  0
 11 95  1  0  0  0
 12 13  2  0  0  0
 12 96  1  0  0  0
 13 14  1  0  0  0
 13 31  1  0  0  0
 14 15  2  0  0  0
 14 97  1  0  0  0
 15 98  1  0  0  0
 16 17  2  0  0  0
 16 21  1  0  0  0
 16 31  1  0  0  0
 17 18  1  0  0  0
 17 99  1  0  0  0
 18 19  2  0  0  0
 18100  1  0  0  0
 19 20  1  0  0  0
 19 24  1  0  0  0
 20 21  2  0  0  0
 20101  1  0  0  0
 21 23  1  0  0  0
 22 28  1  0  0  0
 22 32  2  0  0  0
 26 27  1  0  0  0
 28102  1  0  0  0
 28103  1  0  0  0
 29104  1  0  0  0
 29105  1  0  0  0
 33 34  1  0  0  0
 33 66  1  0  0  0
 33 70  2  0  0  0
 34 36  1  0  0  0
 34 59  1  0  0  0
 34106  1  0  0  0
 35 44  2  0  0  0
 35 45  1  0  0  0
 35 68  1  0  0  0
 36 56  1  0  0  0
 36107  1  0  0  0
 37 39  1  0  0  0
 37 47  1  0  0  0
 37 66  1  0  0  0
 37108  1  0  0  0
 38 43  2  0  0  0
 38 46  1  0  0  0
 38 47  1  0  0  0
 39 64  1  0  0  0
 39 67  2  0  0  0
 40 52  1  0  0  0
 40 53  2  0  0  0
 40 58  1  0  0  0
 41109  1  0  0  0
 41110  1  0  0  0
 41111  1  0  0  0
 41 48  1  0  0  0
 42 43  1  0  0  0
 42 66  1  0  0  0
 42112  1  0  0  0
 42113  1  0  0  0
 43 44  1  0  0  0
 44114  1  0  0  0
 45 46  2  0  0  0
 45115  1  0  0  0
 46116  1  0  0  0
 47117  1  0  0  0
 47118  1  0  0  0
 48 56  1  0  0  0
 48 65  1  0  0  0
 48119  1  0  0  0
 49 50  1  0  0  0
 49 53  1  0  0  0
 49 64  1  0  0  0
 49120  1  0  0  0
 50 51  1  0  0  0
 50121  1  0  0  0
 50122  1  0  0  0
 51 52  1  0  0  0
 51123  1  0  0  0
 51124  1  0  0  0
 52125  1  0  0  0
 52126  1  0  0  0
 53 54  1  0  0  0
 54 55  2  0  0  0
 54127  1  0  0  0
 55 57  1  0  0  0
 55128  1  0  0  0
 56 69  2  0  0  0
 57 58  2  0  0  0
 57129  1  0  0  0
 58130  1  0  0  0
 59 60  1  0  0  0
 59 61  1  0  0  0
 59 62  1  0  0  0
 60131  1  0  0  0
 60132  1  0  0  0
 60133  1  0  0  0
 61134  1  0  0  0
 61135  1  0  0  0
 61136  1  0  0  0
 62137  1  0  0  0
 62138  1  0  0  0
 62139  1  0  0  0
 63 65  1  0  0  0
 63140  1  0  0  0
 63141  1  0  0  0
 63142  1  0  0  0
 64143  1  0  0  0
 65144  1  0  0  0
 68 79  1  0  0  0
 71 73  2  0  0  0
 71 74  1  0  0  0
 71145  1  0  0  0
 72 74  2  0  0  0
 72 83  1  0  0  0
 72146  1  0  0  0
 73 75  1  0  0  0
 73 78  1  0  0  0
 74 84  1  0  0  0
 75 83  2  0  0  0
 75 85  1  0  0  0
 76 79  2  0  0  0
 76 80  1  0  0  0
 76 81  1  0  0  0
 77 78  2  0  0  0
 77147  1  0  0  0
 77148  1  0  0  0
 78149  1  0  0  0
 79150  1  0  0  0
 80 82  1  0  0  0
 80151  1  0  0  0
 80152  1  0  0  0
 81 84  1  0  0  0
 81153  1  0  0  0
 81154  1  0  0  0
 82 84  1  0  0  0
 82155  1  0  0  0
 82156  1  0  0  0
 85157  1  0  0  0
M  ISO  4   1 100  68 101  79 101  85 100
M  END
> <chiral flag>
0

> <version>
0

> <s_m_source_file>
/data/baiqing/PycharmProjects/Reinvent-master-3.2/result/LINK_invent/BTK/process_docking_weight1_custom_product_contain_oxygen_bond_distance_aromatic_linkinvent_7_9_3/rearranged_h_0113.sdf

> <i_m_source_file_index>
9

> <r_mmod_Potential_Energy-OPLS-2005>
109.258377075195

> <r_mmod_Stretch_Energy-OPLS-2005>
83.690055847168

> <r_mmod_Bend_Energy-OPLS-2005>
186.746322631836

> <r_mmod_Torsional_Energy-OPLS-2005>
251.763885498047

> <r_mmod_Improper_Torsional_Energy-OPLS-2005>
5.72697353363037

> <r_mmod_Van_der_Waal_Energy-OPLS-2005>
146.219436645508

> <r_mmod_Electrostatic_Energy-OPLS-2005>
-393.272277832031

> <r_mmod_Solvation_Energy-OPLS-2005>
-243.476928710938

> <b_mmod_Minimization_Converged-OPLS-2005>
0

> <r_mmod_RMS_Derivative-OPLS-2005>
2.49794673919678

$$$$
9
                    3D
 Structure written by MMmdl.
160168  0  0  1  0            999 V2000
  -30.6213  -14.7221   20.5425 C   0  0  0  0  0  0
  -30.4379  -12.4567   19.4764 C   0  0  0  0  0  0
  -29.5142  -12.5332   18.2387 C   0  0  0  0  0  0
  -28.0379  -12.3473   18.6407 C   0  0  0  0  0  0
  -27.6491  -13.2213   19.8606 C   0  0  2  0  0  0
  -28.6851  -13.0858   20.9940 C   0  0  0  0  0  0
  -25.2540  -13.8168   20.5672 C   0  0  0  0  0  0
  -24.1815  -13.0432   20.9173 C   0  0  0  0  0  0
  -24.6390  -11.6904   20.8718 C   0  0  0  0  0  0
  -23.9062  -10.4285   21.0397 C   0  0  0  0  0  0
  -24.3618   -9.4204   21.9179 C   0  0  0  0  0  0
  -23.6289   -8.2243   22.0757 C   0  0  0  0  0  0
  -22.4270   -8.0278   21.3547 C   0  0  0  0  0  0
  -21.9906   -9.0250   20.4647 C   0  0  0  0  0  0
  -22.7233  -10.2126   20.3052 C   0  0  0  0  0  0
  -21.6853   -6.0731   22.5277 C   0  0  0  0  0  0
  -21.4015   -6.5638   23.8209 C   0  0  0  0  0  0
  -21.3659   -5.6792   24.9173 C   0  0  0  0  0  0
  -21.6044   -4.3054   24.7225 C   0  0  0  0  0  0
  -21.8820   -3.8146   23.4346 C   0  0  0  0  0  0
  -21.9191   -4.6959   22.3401 C   0  0  0  0  0  0
  -22.7843  -13.5224   21.1846 C   0  0  0  0  0  0
  -22.1662   -4.2145   21.0978 F   0  0  0  0  0  0
  -21.5626   -3.4541   25.7739 F   0  0  0  0  0  0
  -29.9990  -13.4842   20.4559 N   0  0  0  0  0  0
  -26.2960  -12.9356   20.3271 N   0  0  0  0  0  0
  -25.9314  -11.6510   20.5717 N   0  0  0  0  0  0
  -22.0493  -12.8217   22.0406 N   0  0  0  0  0  0
  -25.4245  -15.1891   20.4114 N   0  0  0  0  0  0
  -31.7270  -14.8812   20.0091 O   0  0  0  0  0  0
  -21.6638   -6.8876   21.4242 O   0  0  0  0  0  0
  -22.3524  -14.5527   20.6690 O   0  0  0  0  0  0
  -24.6317  -31.8547   23.1998 C   0  0  0  0  0  0
  -25.9143  -32.4742   23.8343 C   0  0  1  0  0  0
  -27.2261  -27.2757   20.1088 C   0  0  0  0  0  0
  -25.5935  -33.8545   24.2264 N   0  0  0  0  0  0
  -23.4288  -30.4785   21.5437 C   0  0  2  0  0  0
  -24.8756  -28.9308   20.1082 C   0  0  0  0  0  0
  -22.7511  -29.4597   22.4921 C   0  0  0  0  0  0
  -18.0284  -28.1381   22.8488 C   0  0  0  0  0  0
  -24.1500  -36.7282   23.2646 C   0  0  0  0  0  0
  -25.9748  -30.7716   21.3792 C   0  0  0  0  0  0
  -26.0494  -29.3973   20.7147 C   0  0  0  0  0  0
  -27.2259  -28.5804   20.7092 C   0  0  0  0  0  0
  -26.0199  -26.8686   19.4929 C   0  0  0  0  0  0
  -24.8643  -27.6720   19.4902 C   0  0  0  0  0  0
  -23.6457  -29.8156   20.1586 C   0  0  0  0  0  0
  -25.4124  -36.3064   24.0331 C   0  0  1  0  0  0
  -20.5894  -28.3697   23.1271 C   0  0  2  0  0  0
  -20.6774  -26.9415   22.5412 C   0  0  0  0  0  0
  -19.5750  -26.6385   21.5213 C   0  0  0  0  0  0
  -18.1927  -26.7923   22.1623 C   0  0  0  0  0  0
  -19.1540  -28.8858   23.2870 C   0  0  0  0  0  0
  -18.9468  -30.1461   23.8880 C   0  0  0  0  0  0
  -17.6467  -30.6587   24.0560 C   0  0  0  0  0  0
  -25.9067  -34.9428   23.5106 C   0  0  0  0  0  0
  -16.5356  -29.9085   23.6331 C   0  0  0  0  0  0
  -16.7269  -28.6500   23.0358 C   0  0  0  0  0  0
  -26.4513  -31.6558   25.0727 C   0  0  0  0  0  0
  -25.3741  -31.3682   26.1450 C   0  0  0  0  0  0
  -27.0368  -30.2974   24.6214 C   0  0  0  0  0  0
  -27.6073  -32.4301   25.7489 C   0  0  0  0  0  0
  -27.5579  -37.1794   24.8464 C   0  0  0  0  0  0
  -21.4217  -29.3035   22.3658 N   0  0  0  0  0  0
  -26.4292  -37.3764   23.9406 N   0  0  0  0  0  0
  -24.6978  -31.0519   22.0972 N   0  0  0  0  0  0
  -23.4208  -28.8131   23.3018 O   0  0  0  0  0  0
  -28.3005  -26.3578   20.1915 O   0  0  0  0  0  0
  -26.5647  -34.8901   22.4680 O   0  0  0  0  0  0
  -23.5467  -32.1379   23.7288 O   0  0  0  0  0  0
  -28.8251  -19.7254   21.2771 C   0  0  0  0  0  0
  -28.8929  -18.3379   21.6431 C   0  0  0  0  0  0
  -29.5309  -20.2415   20.1664 C   0  0  0  0  0  0
  -29.7328  -17.3976   20.9173 C   0  0  0  0  0  0
  -30.2699  -19.2369   19.4771 C   0  0  0  0  0  0
  -30.8765  -19.3743   14.7870 C   0  0  0  0  0  0
  -31.5301  -19.2738   15.9539 C   0  0  0  0  0  0
  -28.6256  -23.9395   19.2812 C   0  0  0  0  0  0
  -28.4111  -25.3148   19.2444 C   0  0  0  0  0  0
  -29.9703  -15.9014   21.4049 C   0  0  0  0  0  0
  -30.9289  -18.6891   17.2114 C   0  0  0  0  0  0
  -28.8515  -22.7647   20.3124 C   0  0  0  0  0  0
  -30.3813  -17.9151   19.8337 N   0  0  0  0  0  0
  -29.6845  -15.6256   22.6113 N   0  0  0  0  0  0
  -28.0795  -17.9746   22.7307 N   0  0  0  0  0  0
  -30.9415  -19.6337   18.3202 N   0  0  0  0  0  0
  -29.5313  -21.5912   19.6963 O   0  0  0  0  0  0
  -31.4778  -12.5877   19.1740 H   0  0  0  0  0  0
  -30.3938  -11.4635   19.9263 H   0  0  0  0  0  0
  -29.8003  -11.7779   17.5055 H   0  0  0  0  0  0
  -29.6407  -13.4995   17.7486 H   0  0  0  0  0  0
  -27.8885  -11.2933   18.8802 H   0  0  0  0  0  0
  -27.3835  -12.5633   17.7949 H   0  0  0  0  0  0
  -27.6660  -14.2564   19.5196 H   0  0  0  0  0  0
  -28.7226  -12.0561   21.3540 H   0  0  0  0  0  0
  -28.3673  -13.6690   21.8536 H   0  0  0  0  0  0
  -25.2767   -9.5681   22.4749 H   0  0  0  0  0  0
  -23.9993   -7.4641   22.7486 H   0  0  0  0  0  0
  -21.0834   -8.8763   19.8961 H   0  0  0  0  0  0
  -22.3685  -10.9664   19.6161 H   0  0  0  0  0  0
  -21.2012   -7.6147   23.9710 H   0  0  0  0  0  0
  -21.1481   -6.0524   25.9073 H   0  0  0  0  0  0
  -22.0601   -2.7609   23.2847 H   0  0  0  0  0  0
  -22.4118  -11.9873   22.4777 H   0  0  0  0  0  0
  -21.1121  -13.1252   22.2637 H   0  0  0  0  0  0
  -24.6592  -15.8436   20.5327 H   0  0  0  0  0  0
  -26.2757  -15.6333   20.0929 H   0  0  0  0  0  0
  -26.7205  -32.5395   23.1080 H   0  0  0  0  0  0
  -25.0046  -33.9671   25.0388 H   0  0  0  0  0  0
  -22.7264  -31.3019   21.3992 H   0  0  0  0  0  0
  -23.3756  -35.9619   23.3297 H   0  0  0  0  0  0
  -24.3598  -36.8924   22.2064 H   0  0  0  0  0  0
  -23.7270  -37.6487   23.6678 H   0  0  0  0  0  0
  -26.1156  -31.5371   20.6154 H   0  0  0  0  0  0
  -26.8501  -30.8148   22.0155 H   0  0  0  0  0  0
  -28.1234  -28.9260   21.2034 H   0  0  0  0  0  0
  -25.9379  -25.8908   19.0412 H   0  0  0  0  0  0
  -23.9601  -27.3024   19.0255 H   0  0  0  0  0  0
  -23.7685  -30.5928   19.4026 H   0  0  0  0  0  0
  -22.7636  -29.2492   19.8554 H   0  0  0  0  0  0
  -25.1305  -36.1915   25.0823 H   0  0  0  0  0  0
  -20.9969  -28.3273   24.1399 H   0  0  0  0  0  0
  -20.5683  -26.2309   23.3617 H   0  0  0  0  0  0
  -21.6646  -26.7444   22.1210 H   0  0  0  0  0  0
  -19.6923  -25.6299   21.1239 H   0  0  0  0  0  0
  -19.6685  -27.3200   20.6743 H   0  0  0  0  0  0
  -17.4206  -26.6676   21.4010 H   0  0  0  0  0  0
  -18.0317  -26.0053   22.9011 H   0  0  0  0  0  0
  -19.7951  -30.7273   24.2241 H   0  0  0  0  0  0
  -17.5031  -31.6262   24.5172 H   0  0  0  0  0  0
  -15.5361  -30.2989   23.7668 H   0  0  0  0  0  0
  -15.8666  -28.0819   22.7077 H   0  0  0  0  0  0
  -24.5969  -30.6960   25.7789 H   0  0  0  0  0  0
  -24.8859  -32.2822   26.4835 H   0  0  0  0  0  0
  -25.8087  -30.8921   27.0248 H   0  0  0  0  0  0
  -26.2955  -29.6695   24.1259 H   0  0  0  0  0  0
  -27.4072  -29.7253   25.4731 H   0  0  0  0  0  0
  -27.8813  -30.4236   23.9440 H   0  0  0  0  0  0
  -27.2701  -33.3629   26.2014 H   0  0  0  0  0  0
  -28.3898  -32.6816   25.0318 H   0  0  0  0  0  0
  -28.0716  -31.8457   26.5442 H   0  0  0  0  0  0
  -28.2589  -38.0095   24.7517 H   0  0  0  0  0  0
  -28.1084  -36.2629   24.6286 H   0  0  0  0  0  0
  -27.2289  -37.1439   25.8863 H   0  0  0  0  0  0
  -20.9421  -29.8750   21.6845 H   0  0  0  0  0  0
  -26.0170  -38.2838   24.1399 H   0  0  0  0  0  0
  -28.2042  -20.3965   21.8515 H   0  0  0  0  0  0
  -31.3549  -19.7957   13.9142 H   0  0  0  0  0  0
  -29.8547  -19.0368   14.6833 H   0  0  0  0  0  0
  -32.5539  -19.6163   16.0203 H   0  0  0  0  0  0
  -28.6186  -23.5147   18.2872 H   0  0  0  0  0  0
  -28.2931  -25.7524   18.2614 H   0  0  0  0  0  0
  -31.5023  -17.8004   17.4788 H   0  0  0  0  0  0
  -29.9046  -18.3645   17.0161 H   0  0  0  0  0  0
  -27.8728  -22.4522   20.6772 H   0  0  0  0  0  0
  -29.4199  -23.1268   21.1695 H   0  0  0  0  0  0
  -29.3123  -16.4811   23.0263 H   0  0  0  0  0  0
  -27.3995  -18.6581   23.0536 H   0  0  0  0  0  0
  -27.6792  -17.0388   22.7324 H   0  0  0  0  0  0
  -30.7128  -20.5948   18.0829 H   0  0  0  0  0  0
  1 25  1  0  0  0
  1 30  2  0  0  0
  1 80  1  0  0  0
  2  3  1  0  0  0
  2 25  1  0  0  0
  2 88  1  0  0  0
  2 89  1  0  0  0
  3  4  1  0  0  0
  3 90  1  0  0  0
  3 91  1  0  0  0
  4  5  1  0  0  0
  4 92  1  0  0  0
  4 93  1  0  0  0
  5  6  1  0  0  0
  5 26  1  0  0  0
  5 94  1  0  0  0
  6 25  1  0  0  0
  6 95  1  0  0  0
  6 96  1  0  0  0
  7  8  2  0  0  0
  7 26  1  0  0  0
  7 29  1  0  0  0
  8  9  1  0  0  0
  8 22  1  0  0  0
  9 10  1  0  0  0
  9 27  2  0  0  0
 10 11  2  0  0  0
 10 15  1  0  0  0
 11 12  1  0  0  0
 11 97  1  0  0  0
 12 13  2  0  0  0
 12 98  1  0  0  0
 13 14  1  0  0  0
 13 31  1  0  0  0
 14 15  2  0  0  0
 14 99  1  0  0  0
 15100  1  0  0  0
 16 17  2  0  0  0
 16 21  1  0  0  0
 16 31  1  0  0  0
 17 18  1  0  0  0
 17101  1  0  0  0
 18 19  2  0  0  0
 18102  1  0  0  0
 19 20  1  0  0  0
 19 24  1  0  0  0
 20 21  2  0  0  0
 20103  1  0  0  0
 21 23  1  0  0  0
 22 28  1  0  0  0
 22 32  2  0  0  0
 26 27  1  0  0  0
 28104  1  0  0  0
 28105  1  0  0  0
 29106  1  0  0  0
 29107  1  0  0  0
 33 34  1  0  0  0
 33 66  1  0  0  0
 33 70  2  0  0  0
 34 36  1  0  0  0
 34 59  1  0  0  0
 34108  1  0  0  0
 35 44  2  0  0  0
 35 45  1  0  0  0
 35 68  1  0  0  0
 36 56  1  0  0  0
 36109  1  0  0  0
 37 39  1  0  0  0
 37 47  1  0  0  0
 37 66  1  0  0  0
 37110  1  0  0  0
 38 43  2  0  0  0
 38 46  1  0  0  0
 38 47  1  0  0  0
 39 64  1  0  0  0
 39 67  2  0  0  0
 40 52  1  0  0  0
 40 53  2  0  0  0
 40 58  1  0  0  0
 41111  1  0  0  0
 41112  1  0  0  0
 41113  1  0  0  0
 41 48  1  0  0  0
 42 43  1  0  0  0
 42 66  1  0  0  0
 42114  1  0  0  0
 42115  1  0  0  0
 43 44  1  0  0  0
 44116  1  0  0  0
 45 46  2  0  0  0
 45117  1  0  0  0
 46118  1  0  0  0
 47119  1  0  0  0
 47120  1  0  0  0
 48 56  1  0  0  0
 48 65  1  0  0  0
 48121  1  0  0  0
 49 50  1  0  0  0
 49 53  1  0  0  0
 49 64  1  0  0  0
 49122  1  0  0  0
 50 51  1  0  0  0
 50123  1  0  0  0
 50124  1  0  0  0
 51 52  1  0  0  0
 51125  1  0  0  0
 51126  1  0  0  0
 52127  1  0  0  0
 52128  1  0  0  0
 53 54  1  0  0  0
 54 55  2  0  0  0
 54129  1  0  0  0
 55 57  1  0  0  0
 55130  1  0  0  0
 56 69  2  0  0  0
 57 58  2  0  0  0
 57131  1  0  0  0
 58132  1  0  0  0
 59 60  1  0  0  0
 59 61  1  0  0  0
 59 62  1  0  0  0
 60133  1  0  0  0
 60134  1  0  0  0
 60135  1  0  0  0
 61136  1  0  0  0
 61137  1  0  0  0
 61138  1  0  0  0
 62139  1  0  0  0
 62140  1  0  0  0
 62141  1  0  0  0
 63 65  1  0  0  0
 63142  1  0  0  0
 63143  1  0  0  0
 63144  1  0  0  0
 64145  1  0  0  0
 65146  1  0  0  0
 68 79  1  0  0  0
 71 72  2  0  0  0
 71 73  1  0  0  0
 71147  1  0  0  0
 72 74  1  0  0  0
 72 85  1  0  0  0
 73 75  2  0  0  0
 73 87  1  0  0  0
 74 80  1  0  0  0
 74 83  2  0  0  0
 75 83  1  0  0  0
 75 86  1  0  0  0
 76 77  2  0  0  0
 76148  1  0  0  0
 76149  1  0  0  0
 77 81  1  0  0  0
 77150  1  0  0  0
 78 79  2  0  0  0
 78 82  1  0  0  0
 78151  1  0  0  0
 79152  1  0  0  0
 80 84  2  0  0  0
 81 86  1  0  0  0
 81153  1  0  0  0
 81154  1  0  0  0
 82 87  1  0  0  0
 82155  1  0  0  0
 82156  1  0  0  0
 84157  1  0  0  0
 85158  1  0  0  0
 85159  1  0  0  0
 86160  1  0  0  0
M  ISO  4   1 100  68 101  79 101  80 100
M  END
> <chiral flag>
0

> <version>
0

> <s_m_source_file>
/data/baiqing/PycharmProjects/Reinvent-master-3.2/result/LINK_invent/BTK/process_docking_weight1_custom_product_contain_oxygen_bond_distance_aromatic_linkinvent_7_9_3/rearranged_h_0113.sdf

> <i_m_source_file_index>
10

> <r_mmod_Potential_Energy-OPLS-2005>
327.692047119141

> <r_mmod_Stretch_Energy-OPLS-2005>
129.761154174805

> <r_mmod_Bend_Energy-OPLS-2005>
240.108215332031

> <r_mmod_Torsional_Energy-OPLS-2005>
203.049896240234

> <r_mmod_Improper_Torsional_Energy-OPLS-2005>
11.5744733810425

> <r_mmod_Van_der_Waal_Energy-OPLS-2005>
159.981872558594

> <r_mmod_Electrostatic_Energy-OPLS-2005>
-267.921325683594

> <r_mmod_Solvation_Energy-OPLS-2005>
-225.314590454102

> <b_mmod_Minimization_Converged-OPLS-2005>
0

> <r_mmod_RMS_Derivative-OPLS-2005>
1.13218510150909

$$$$
10
                    3D
 Structure written by MMmdl.
163171  0  0  1  0            999 V2000
  -30.7186  -14.5096   20.6563 C   0  0  0  0  0  0
  -30.4199  -12.3709   19.4213 C   0  0  0  0  0  0
  -29.4861  -12.5539   18.2078 C   0  0  0  0  0  0
  -28.0111  -12.3917   18.6204 C   0  0  0  0  0  0
  -27.6595  -13.2172   19.8861 C   0  0  2  0  0  0
  -28.7030  -12.9838   21.0014 C   0  0  0  0  0  0
  -25.2495  -13.8171   20.5521 C   0  0  0  0  0  0
  -24.1802  -13.0440   20.9162 C   0  0  0  0  0  0
  -24.6392  -11.6923   20.8777 C   0  0  0  0  0  0
  -23.9064  -10.4298   21.0431 C   0  0  0  0  0  0
  -24.3613   -9.4207   21.9204 C   0  0  0  0  0  0
  -23.6287   -8.2240   22.0763 C   0  0  0  0  0  0
  -22.4275   -8.0277   21.3546 C   0  0  0  0  0  0
  -21.9915   -9.0256   20.4647 C   0  0  0  0  0  0
  -22.7243  -10.2137   20.3068 C   0  0  0  0  0  0
  -21.6850   -6.0733   22.5281 C   0  0  0  0  0  0
  -21.4011   -6.5639   23.8214 C   0  0  0  0  0  0
  -21.3659   -5.6795   24.9178 C   0  0  0  0  0  0
  -21.6044   -4.3057   24.7228 C   0  0  0  0  0  0
  -21.8817   -3.8144   23.4349 C   0  0  0  0  0  0
  -21.9190   -4.6960   22.3403 C   0  0  0  0  0  0
  -22.7823  -13.5230   21.1838 C   0  0  0  0  0  0
  -22.1658   -4.2143   21.0981 F   0  0  0  0  0  0
  -21.5631   -3.4542   25.7743 F   0  0  0  0  0  0
  -30.0263  -13.3395   20.4665 N   0  0  0  0  0  0
  -26.3003  -12.9381   20.3424 N   0  0  0  0  0  0
  -25.9334  -11.6531   20.5849 N   0  0  0  0  0  0
  -22.0469  -12.8224   22.0410 N   0  0  0  0  0  0
  -25.4054  -15.1845   20.3535 N   0  0  0  0  0  0
  -31.7477  -14.7653   20.0192 O   0  0  0  0  0  0
  -21.6637   -6.8877   21.4240 O   0  0  0  0  0  0
  -22.3493  -14.5527   20.6692 O   0  0  0  0  0  0
  -24.6219  -31.8622   23.2035 C   0  0  0  0  0  0
  -25.9085  -32.4782   23.8353 C   0  0  1  0  0  0
  -27.2338  -27.3573   20.0919 C   0  0  0  0  0  0
  -25.5923  -33.8581   24.2284 N   0  0  0  0  0  0
  -23.4128  -30.4845   21.5480 C   0  0  2  0  0  0
  -24.8561  -28.9393   20.1161 C   0  0  0  0  0  0
  -22.7440  -29.4633   22.4974 C   0  0  0  0  0  0
  -18.0286  -28.1355   22.8479 C   0  0  0  0  0  0
  -24.1497  -36.7307   23.2641 C   0  0  0  0  0  0
  -25.9500  -30.8013   21.3687 C   0  0  0  0  0  0
  -26.0229  -29.4308   20.7123 C   0  0  0  0  0  0
  -27.2097  -28.6488   20.6942 C   0  0  0  0  0  0
  -26.0328  -26.8953   19.5027 C   0  0  0  0  0  0
  -24.8597  -27.6732   19.5108 C   0  0  0  0  0  0
  -23.6226  -29.8149   20.1648 C   0  0  0  0  0  0
  -25.4121  -36.3090   24.0329 C   0  0  1  0  0  0
  -20.5877  -28.3659   23.1300 C   0  0  2  0  0  0
  -20.6781  -26.9390   22.5414 C   0  0  0  0  0  0
  -19.5765  -26.6363   21.5206 C   0  0  0  0  0  0
  -18.1934  -26.7904   22.1603 C   0  0  0  0  0  0
  -19.1531  -28.8823   23.2883 C   0  0  0  0  0  0
  -18.9458  -30.1428   23.8889 C   0  0  0  0  0  0
  -17.6458  -30.6564   24.0550 C   0  0  0  0  0  0
  -25.9048  -34.9453   23.5103 C   0  0  0  0  0  0
  -16.5346  -29.9059   23.6324 C   0  0  0  0  0  0
  -16.7271  -28.6476   23.0342 C   0  0  0  0  0  0
  -26.4484  -31.6586   25.0712 C   0  0  0  0  0  0
  -25.3726  -31.3702   26.1447 C   0  0  0  0  0  0
  -27.0342  -30.3025   24.6136 C   0  0  0  0  0  0
  -27.6030  -32.4335   25.7483 C   0  0  0  0  0  0
  -27.5585  -37.1816   24.8463 C   0  0  0  0  0  0
  -21.4162  -29.3028   22.3705 N   0  0  0  0  0  0
  -26.4303  -37.3781   23.9394 N   0  0  0  0  0  0
  -24.6804  -31.0655   22.0973 N   0  0  0  0  0  0
  -23.4180  -28.8176   23.3047 O   0  0  0  0  0  0
  -28.4096  -26.6022   20.1218 O   0  0  0  0  0  0
  -26.5611  -34.8917   22.4668 O   0  0  0  0  0  0
  -23.5395  -32.1417   23.7384 O   0  0  0  0  0  0
  -27.3301  -17.8904   21.9785 C   0  0  0  0  0  0
  -29.8891  -17.8315   20.8981 C   0  0  0  0  0  0
  -28.1374  -16.7514   22.2118 C   0  0  0  0  0  0
  -29.4235  -16.6638   21.5902 C   0  0  0  0  0  0
  -27.7873  -19.0189   21.2596 C   0  0  0  0  0  0
  -29.1182  -19.0344   20.7814 C   0  0  0  0  0  0
  -26.3311  -15.5177   23.5087 C   0  0  0  0  0  0
  -27.6045  -15.6939   23.1134 C   0  0  0  0  0  0
  -30.3229  -15.4509   21.8206 C   0  0  0  0  0  0
  -25.6485  -20.1219   21.4614 C   0  0  0  0  0  0
  -28.7788  -24.0689   20.4924 C   0  0  0  0  0  0
  -28.9880  -22.6476   19.8329 C   0  0  0  0  0  0
  -28.5316  -25.2750   19.5119 C   0  0  0  0  0  0
  -29.4790  -21.4899   20.7802 C   0  0  0  0  0  0
  -30.7947  -15.2301   22.9788 N   0  0  0  0  0  0
  -26.9894  -20.1132   20.9896 O   0  0  0  0  0  0
  -29.6438  -20.1749   20.1597 O   0  0  0  0  0  0
  -31.4599  -12.4885   19.1129 H   0  0  0  0  0  0
  -30.3451  -11.3530   19.8074 H   0  0  0  0  0  0
  -29.7358  -11.8396   17.4222 H   0  0  0  0  0  0
  -29.6374  -13.5460   17.7791 H   0  0  0  0  0  0
  -27.8269  -11.3331   18.8049 H   0  0  0  0  0  0
  -27.3557  -12.6732   17.7953 H   0  0  0  0  0  0
  -27.7063  -14.2697   19.6068 H   0  0  0  0  0  0
  -28.6973  -11.9353   21.3037 H   0  0  0  0  0  0
  -28.4418  -13.5331   21.8978 H   0  0  0  0  0  0
  -25.2752   -9.5690   22.4790 H   0  0  0  0  0  0
  -23.9995   -7.4633   22.7486 H   0  0  0  0  0  0
  -21.0853   -8.8774   19.8941 H   0  0  0  0  0  0
  -22.3701  -10.9681   19.6180 H   0  0  0  0  0  0
  -21.2004   -7.6150   23.9712 H   0  0  0  0  0  0
  -21.1485   -6.0529   25.9083 H   0  0  0  0  0  0
  -22.0596   -2.7606   23.2855 H   0  0  0  0  0  0
  -22.4087  -11.9908   22.4835 H   0  0  0  0  0  0
  -21.1075  -13.1239   22.2581 H   0  0  0  0  0  0
  -24.6322  -15.8324   20.4458 H   0  0  0  0  0  0
  -26.2588  -15.6270   20.0407 H   0  0  0  0  0  0
  -26.7144  -32.5457   23.1096 H   0  0  0  0  0  0
  -25.0082  -33.9719   25.0437 H   0  0  0  0  0  0
  -22.7044  -31.3035   21.4058 H   0  0  0  0  0  0
  -23.3760  -35.9644   23.3298 H   0  0  0  0  0  0
  -24.3580  -36.8942   22.2058 H   0  0  0  0  0  0
  -23.7251  -37.6504   23.6674 H   0  0  0  0  0  0
  -26.0765  -31.5635   20.5993 H   0  0  0  0  0  0
  -26.8323  -30.8503   21.9943 H   0  0  0  0  0  0
  -28.1102  -29.0270   21.1582 H   0  0  0  0  0  0
  -25.9484  -25.9254   19.0413 H   0  0  0  0  0  0
  -23.9591  -27.2816   19.0572 H   0  0  0  0  0  0
  -23.7359  -30.5882   19.4040 H   0  0  0  0  0  0
  -22.7439  -29.2392   19.8681 H   0  0  0  0  0  0
  -25.1308  -36.1953   25.0827 H   0  0  0  0  0  0
  -20.9959  -28.3237   24.1426 H   0  0  0  0  0  0
  -20.5692  -26.2261   23.3602 H   0  0  0  0  0  0
  -21.6654  -26.7430   22.1208 H   0  0  0  0  0  0
  -19.6927  -25.6280   21.1226 H   0  0  0  0  0  0
  -19.6707  -27.3174   20.6736 H   0  0  0  0  0  0
  -17.4218  -26.6659   21.3987 H   0  0  0  0  0  0
  -18.0316  -26.0031   22.8977 H   0  0  0  0  0  0
  -19.7935  -30.7239   24.2255 H   0  0  0  0  0  0
  -17.5017  -31.6243   24.5152 H   0  0  0  0  0  0
  -15.5346  -30.2952   23.7657 H   0  0  0  0  0  0
  -15.8673  -28.0791   22.7059 H   0  0  0  0  0  0
  -24.5900  -30.7053   25.7780 H   0  0  0  0  0  0
  -24.8914  -32.2858   26.4891 H   0  0  0  0  0  0
  -25.8071  -30.8868   27.0205 H   0  0  0  0  0  0
  -26.2910  -29.6749   24.1204 H   0  0  0  0  0  0
  -27.4121  -29.7303   25.4618 H   0  0  0  0  0  0
  -27.8741  -30.4342   23.9309 H   0  0  0  0  0  0
  -27.2639  -33.3661   26.2006 H   0  0  0  0  0  0
  -28.3865  -32.6852   25.0323 H   0  0  0  0  0  0
  -28.0665  -31.8494   26.5442 H   0  0  0  0  0  0
  -28.2608  -38.0109   24.7506 H   0  0  0  0  0  0
  -28.1082  -36.2635   24.6316 H   0  0  0  0  0  0
  -27.2287  -37.1499   25.8863 H   0  0  0  0  0  0
  -20.9323  -29.8762   21.6933 H   0  0  0  0  0  0
  -26.0194  -38.2867   24.1371 H   0  0  0  0  0  0
  -26.3422  -17.9095   22.4049 H   0  0  0  0  0  0
  -30.8917  -17.8228   20.4947 H   0  0  0  0  0  0
  -26.0785  -14.7170   24.1891 H   0  0  0  0  0  0
  -25.5157  -16.1401   23.1736 H   0  0  0  0  0  0
  -28.3111  -14.9983   23.5383 H   0  0  0  0  0  0
  -25.1643  -21.0488   21.1542 H   0  0  0  0  0  0
  -25.6116  -20.0798   22.5508 H   0  0  0  0  0  0
  -25.0693  -19.2962   21.0451 H   0  0  0  0  0  0
  -29.6572  -24.3013   21.0959 H   0  0  0  0  0  0
  -27.9451  -24.0066   21.1920 H   0  0  0  0  0  0
  -29.7083  -22.7442   19.0199 H   0  0  0  0  0  0
  -28.0531  -22.3417   19.3619 H   0  0  0  0  0  0
  -27.7333  -25.0220   18.8208 H   0  0  0  0  0  0
  -29.4076  -25.3433   18.8662 H   0  0  0  0  0  0
  -28.8604  -21.4539   21.6767 H   0  0  0  0  0  0
  -30.4655  -21.7717   21.1511 H   0  0  0  0  0  0
  -30.4762  -15.9286   23.6404 H   0  0  0  0  0  0
  1 25  1  0  0  0
  1 30  2  0  0  0
  1 79  1  0  0  0
  2  3  1  0  0  0
  2 25  1  0  0  0
  2 88  1  0  0  0
  2 89  1  0  0  0
  3  4  1  0  0  0
  3 90  1  0  0  0
  3 91  1  0  0  0
  4  5  1  0  0  0
  4 92  1  0  0  0
  4 93  1  0  0  0
  5  6  1  0  0  0
  5 26  1  0  0  0
  5 94  1  0  0  0
  6 25  1  0  0  0
  6 95  1  0  0  0
  6 96  1  0  0  0
  7  8  2  0  0  0
  7 26  1  0  0  0
  7 29  1  0  0  0
  8  9  1  0  0  0
  8 22  1  0  0  0
  9 10  1  0  0  0
  9 27  2  0  0  0
 10 11  2  0  0  0
 10 15  1  0  0  0
 11 12  1  0  0  0
 11 97  1  0  0  0
 12 13  2  0  0  0
 12 98  1  0  0  0
 13 14  1  0  0  0
 13 31  1  0  0  0
 14 15  2  0  0  0
 14 99  1  0  0  0
 15100  1  0  0  0
 16 17  2  0  0  0
 16 21  1  0  0  0
 16 31  1  0  0  0
 17 18  1  0  0  0
 17101  1  0  0  0
 18 19  2  0  0  0
 18102  1  0  0  0
 19 20  1  0  0  0
 19 24  1  0  0  0
 20 21  2  0  0  0
 20103  1  0  0  0
 21 23  1  0  0  0
 22 28  1  0  0  0
 22 32  2  0  0  0
 26 27  1  0  0  0
 28104  1  0  0  0
 28105  1  0  0  0
 29106  1  0  0  0
 29107  1  0  0  0
 33 34  1  0  0  0
 33 66  1  0  0  0
 33 70  2  0  0  0
 34 36  1  0  0  0
 34 59  1  0  0  0
 34108  1  0  0  0
 35 44  2  0  0  0
 35 45  1  0  0  0
 35 68  1  0  0  0
 36 56  1  0  0  0
 36109  1  0  0  0
 37 39  1  0  0  0
 37 47  1  0  0  0
 37 66  1  0  0  0
 37110  1  0  0  0
 38 43  2  0  0  0
 38 46  1  0  0  0
 38 47  1  0  0  0
 39 64  1  0  0  0
 39 67  2  0  0  0
 40 52  1  0  0  0
 40 53  2  0  0  0
 40 58  1  0  0  0
 41111  1  0  0  0
 41112  1  0  0  0
 41113  1  0  0  0
 41 48  1  0  0  0
 42 43  1  0  0  0
 42 66  1  0  0  0
 42114  1  0  0  0
 42115  1  0  0  0
 43 44  1  0  0  0
 44116  1  0  0  0
 45 46  2  0  0  0
 45117  1  0  0  0
 46118  1  0  0  0
 47119  1  0  0  0
 47120  1  0  0  0
 48 56  1  0  0  0
 48 65  1  0  0  0
 48121  1  0  0  0
 49 50  1  0  0  0
 49 53  1  0  0  0
 49 64  1  0  0  0
 49122  1  0  0  0
 50 51  1  0  0  0
 50123  1  0  0  0
 50124  1  0  0  0
 51 52  1  0  0  0
 51125  1  0  0  0
 51126  1  0  0  0
 52127  1  0  0  0
 52128  1  0  0  0
 53 54  1  0  0  0
 54 55  2  0  0  0
 54129  1  0  0  0
 55 57  1  0  0  0
 55130  1  0  0  0
 56 69  2  0  0  0
 57 58  2  0  0  0
 57131  1  0  0  0
 58132  1  0  0  0
 59 60  1  0  0  0
 59 61  1  0  0  0
 59 62  1  0  0  0
 60133  1  0  0  0
 60134  1  0  0  0
 60135  1  0  0  0
 61136  1  0  0  0
 61137  1  0  0  0
 61138  1  0  0  0
 62139  1  0  0  0
 62140  1  0  0  0
 62141  1  0  0  0
 63 65  1  0  0  0
 63142  1  0  0  0
 63143  1  0  0  0
 63144  1  0  0  0
 64145  1  0  0  0
 65146  1  0  0  0
 68 83  1  0  0  0
 71 73  2  0  0  0
 71 75  1  0  0  0
 71147  1  0  0  0
 72 74  2  0  0  0
 72 76  1  0  0  0
 72148  1  0  0  0
 73 74  1  0  0  0
 73 78  1  0  0  0
 74 79  1  0  0  0
 75 76  2  0  0  0
 75 86  1  0  0  0
 76 87  1  0  0  0
 77 78  2  0  0  0
 77149  1  0  0  0
 77150  1  0  0  0
 78151  1  0  0  0
 79 85  2  0  0  0
 80 86  1  0  0  0
 80152  1  0  0  0
 80153  1  0  0  0
 80154  1  0  0  0
 81 82  1  0  0  0
 81 83  1  0  0  0
 81155  1  0  0  0
 81156  1  0  0  0
 82 84  1  0  0  0
 82157  1  0  0  0
 82158  1  0  0  0
 83159  1  0  0  0
 83160  1  0  0  0
 84 87  1  0  0  0
 84161  1  0  0  0
 84162  1  0  0  0
 85163  1  0  0  0
M  ISO  4   1 100  68 101  79 100  83 101
M  END
> <chiral flag>
0

> <version>
0

> <s_m_source_file>
/data/baiqing/PycharmProjects/Reinvent-master-3.2/result/LINK_invent/BTK/process_docking_weight1_custom_product_contain_oxygen_bond_distance_aromatic_linkinvent_7_9_3/rearranged_h_0113.sdf

> <i_m_source_file_index>
11

> <r_mmod_Potential_Energy-OPLS-2005>
216.780303955078

> <r_mmod_Stretch_Energy-OPLS-2005>
72.8109970092773

> <r_mmod_Bend_Energy-OPLS-2005>
152.389266967773

> <r_mmod_Torsional_Energy-OPLS-2005>
249.805603027344

> <r_mmod_Improper_Torsional_Energy-OPLS-2005>
4.62173175811768

> <r_mmod_Van_der_Waal_Energy-OPLS-2005>
152.898620605469

> <r_mmod_Electrostatic_Energy-OPLS-2005>
-238.108993530273

> <r_mmod_Solvation_Energy-OPLS-2005>
-200.285934448242

> <b_mmod_Minimization_Converged-OPLS-2005>
0

> <r_mmod_RMS_Derivative-OPLS-2005>
1.36533868312836

$$$$
11
                    3D
 Structure written by MMmdl.
155163  0  0  1  0            999 V2000
  -30.5639  -14.7939   20.4723 C   0  0  0  0  0  0
  -30.4580  -12.5003   19.4625 C   0  0  0  0  0  0
  -29.5145  -12.4947   18.2393 C   0  0  0  0  0  0
  -28.0455  -12.3046   18.6672 C   0  0  0  0  0  0
  -27.6408  -13.2212   19.8482 C   0  0  2  0  0  0
  -28.6879  -13.1745   20.9805 C   0  0  0  0  0  0
  -25.2491  -13.8169   20.5677 C   0  0  0  0  0  0
  -24.1802  -13.0460   20.9198 C   0  0  0  0  0  0
  -24.6371  -11.6905   20.8759 C   0  0  0  0  0  0
  -23.9043  -10.4288   21.0409 C   0  0  0  0  0  0
  -24.3598   -9.4198   21.9176 C   0  0  0  0  0  0
  -23.6269   -8.2229   22.0758 C   0  0  0  0  0  0
  -22.4251   -8.0272   21.3547 C   0  0  0  0  0  0
  -21.9882   -9.0244   20.4645 C   0  0  0  0  0  0
  -22.7208  -10.2115   20.3051 C   0  0  0  0  0  0
  -21.6846   -6.0713   22.5247 C   0  0  0  0  0  0
  -21.4015   -6.5613   23.8194 C   0  0  0  0  0  0
  -21.3658   -5.6776   24.9149 C   0  0  0  0  0  0
  -21.6046   -4.3032   24.7205 C   0  0  0  0  0  0
  -21.8830   -3.8119   23.4328 C   0  0  0  0  0  0
  -21.9198   -4.6941   22.3376 C   0  0  0  0  0  0
  -22.7806  -13.5205   21.1857 C   0  0  0  0  0  0
  -22.1660   -4.2124   21.0956 F   0  0  0  0  0  0
  -21.5645   -3.4523   25.7726 F   0  0  0  0  0  0
  -29.9775  -13.5520   20.3867 N   0  0  0  0  0  0
  -26.2931  -12.9354   20.3277 N   0  0  0  0  0  0
  -25.9297  -11.6520   20.5775 N   0  0  0  0  0  0
  -22.0475  -12.8217   22.0421 N   0  0  0  0  0  0
  -25.4196  -15.1919   20.4075 N   0  0  0  0  0  0
  -31.7715  -14.9147   20.2355 O   0  0  0  0  0  0
  -21.6633   -6.8857   21.4223 O   0  0  0  0  0  0
  -22.3484  -14.5514   20.6676 O   0  0  0  0  0  0
  -24.6281  -31.8608   23.1962 C   0  0  0  0  0  0
  -25.9177  -32.4720   23.8261 C   0  0  1  0  0  0
  -27.2116  -27.2637   20.1652 C   0  0  0  0  0  0
  -25.6018  -33.8526   24.2211 N   0  0  0  0  0  0
  -23.4189  -30.4876   21.5359 C   0  0  2  0  0  0
  -24.8601  -28.9273   20.1102 C   0  0  0  0  0  0
  -22.7484  -29.4694   22.4889 C   0  0  0  0  0  0
  -18.0322  -28.1358   22.8437 C   0  0  0  0  0  0
  -24.1521  -36.7265   23.2654 C   0  0  0  0  0  0
  -25.9638  -30.7823   21.3680 C   0  0  0  0  0  0
  -26.0325  -29.4025   20.7153 C   0  0  0  0  0  0
  -27.2146  -28.5888   20.7157 C   0  0  0  0  0  0
  -26.0195  -26.8561   19.5255 C   0  0  0  0  0  0
  -24.8614  -27.6647   19.4945 C   0  0  0  0  0  0
  -23.6291  -29.8164   20.1499 C   0  0  0  0  0  0
  -25.4141  -36.3038   24.0331 C   0  0  1  0  0  0
  -20.5935  -28.3718   23.1211 C   0  0  2  0  0  0
  -20.6833  -26.9419   22.5370 C   0  0  0  0  0  0
  -19.5822  -26.6364   21.5174 C   0  0  0  0  0  0
  -18.1989  -26.7899   22.1572 C   0  0  0  0  0  0
  -19.1580  -28.8847   23.2823 C   0  0  0  0  0  0
  -18.9500  -30.1438   23.8842 C   0  0  0  0  0  0
  -17.6505  -30.6567   24.0534 C   0  0  0  0  0  0
  -25.9085  -34.9410   23.5058 C   0  0  0  0  0  0
  -16.5385  -29.9056   23.6304 C   0  0  0  0  0  0
  -16.7319  -28.6478   23.0310 C   0  0  0  0  0  0
  -26.4548  -31.6556   25.0664 C   0  0  0  0  0  0
  -25.3765  -31.3705   26.1378 C   0  0  0  0  0  0
  -27.0430  -30.2973   24.6158 C   0  0  0  0  0  0
  -27.6091  -32.4333   25.7462 C   0  0  0  0  0  0
  -27.5586  -37.1784   24.8472 C   0  0  0  0  0  0
  -21.4216  -29.3079   22.3622 N   0  0  0  0  0  0
  -26.4301  -37.3738   23.9421 N   0  0  0  0  0  0
  -24.6868  -31.0646   22.0875 N   0  0  0  0  0  0
  -23.4217  -28.8288   23.3019 O   0  0  0  0  0  0
  -28.3539  -26.4327   20.0871 O   0  0  0  0  0  0
  -26.5647  -34.8918   22.4614 O   0  0  0  0  0  0
  -23.5459  -32.1419   23.7338 O   0  0  0  0  0  0
  -30.3411  -17.4527   22.2825 C   0  0  0  0  0  0
  -29.9207  -19.8800   22.2687 C   0  0  0  0  0  0
  -29.3740  -18.5225   20.3290 C   0  0  0  0  0  0
  -30.3643  -18.7103   22.9367 C   0  0  0  0  0  0
  -29.8584  -17.2999   20.9726 C   0  0  0  0  0  0
  -29.4010  -19.8487   20.9524 C   0  0  0  0  0  0
  -30.7547  -18.7494   24.3901 C   0  0  0  0  0  0
  -28.1975  -23.6817   20.3720 C   0  0  0  0  0  0
  -28.5869  -25.1670   20.8640 C   0  0  0  0  0  0
  -29.1850  -22.4493   20.7253 C   0  0  0  0  0  0
  -31.2673  -19.8791   24.8702 N   0  0  0  0  0  0
  -29.7075  -15.8953   20.4891 N   0  0  0  0  0  0
  -30.6341  -17.7604   25.1073 O   0  0  0  0  0  0
  -28.8482  -21.0282   20.3487 O   0  0  0  0  0  0
  -31.4803  -12.6937   19.1378 H   0  0  0  0  0  0
  -30.4771  -11.5312   19.9623 H   0  0  0  0  0  0
  -29.8090  -11.7069   17.5435 H   0  0  0  0  0  0
  -29.6129  -13.4323   17.6908 H   0  0  0  0  0  0
  -27.9282  -11.2592   18.9610 H   0  0  0  0  0  0
  -27.3756  -12.4609   17.8227 H   0  0  0  0  0  0
  -27.6245  -14.2322   19.4439 H   0  0  0  0  0  0
  -28.7473  -12.1825   21.4313 H   0  0  0  0  0  0
  -28.4118  -13.8624   21.7808 H   0  0  0  0  0  0
  -25.2750   -9.5656   22.4753 H   0  0  0  0  0  0
  -23.9967   -7.4623   22.7479 H   0  0  0  0  0  0
  -21.0823   -8.8752   19.8959 H   0  0  0  0  0  0
  -22.3669  -10.9657   19.6156 H   0  0  0  0  0  0
  -21.2011   -7.6122   23.9673 H   0  0  0  0  0  0
  -21.1476   -6.0505   25.9054 H   0  0  0  0  0  0
  -22.0624   -2.7580   23.2822 H   0  0  0  0  0  0
  -22.4082  -11.9866   22.4780 H   0  0  0  0  0  0
  -21.1108  -13.1267   22.2707 H   0  0  0  0  0  0
  -24.6460  -15.8416   20.5110 H   0  0  0  0  0  0
  -26.2648  -15.6369   20.0768 H   0  0  0  0  0  0
  -26.7263  -32.5354   23.1018 H   0  0  0  0  0  0
  -25.0161  -33.9615   25.0351 H   0  0  0  0  0  0
  -22.7085  -31.3019   21.3853 H   0  0  0  0  0  0
  -23.3770  -35.9609   23.3310 H   0  0  0  0  0  0
  -24.3619  -36.8907   22.2073 H   0  0  0  0  0  0
  -23.7282  -37.6477   23.6671 H   0  0  0  0  0  0
  -26.1093  -31.5524   20.6063 H   0  0  0  0  0  0
  -26.8254  -30.8119   22.0212 H   0  0  0  0  0  0
  -28.1195  -28.9829   21.1576 H   0  0  0  0  0  0
  -25.9779  -25.8896   19.0443 H   0  0  0  0  0  0
  -23.9655  -27.3041   19.0041 H   0  0  0  0  0  0
  -23.7488  -30.5828   19.3808 H   0  0  0  0  0  0
  -22.7363  -29.2544   19.8610 H   0  0  0  0  0  0
  -25.1313  -36.1879   25.0816 H   0  0  0  0  0  0
  -21.0013  -28.3320   24.1330 H   0  0  0  0  0  0
  -20.5757  -26.2326   23.3603 H   0  0  0  0  0  0
  -21.6710  -26.7445   22.1156 H   0  0  0  0  0  0
  -19.7014  -25.6263   21.1241 H   0  0  0  0  0  0
  -19.6786  -27.3132   20.6672 H   0  0  0  0  0  0
  -17.4268  -26.6624   21.3969 H   0  0  0  0  0  0
  -18.0401  -26.0015   22.8947 H   0  0  0  0  0  0
  -19.7996  -30.7247   24.2212 H   0  0  0  0  0  0
  -17.5072  -31.6240   24.5144 H   0  0  0  0  0  0
  -15.5399  -30.2943   23.7672 H   0  0  0  0  0  0
  -15.8707  -28.0803   22.7023 H   0  0  0  0  0  0
  -24.5922  -30.7083   25.7694 H   0  0  0  0  0  0
  -24.8964  -32.2874   26.4806 H   0  0  0  0  0  0
  -25.8047  -30.8853   27.0158 H   0  0  0  0  0  0
  -26.2999  -29.6664   24.1251 H   0  0  0  0  0  0
  -27.4218  -29.7296   25.4681 H   0  0  0  0  0  0
  -27.8831  -30.4275   23.9324 H   0  0  0  0  0  0
  -27.2662  -33.3648   26.1992 H   0  0  0  0  0  0
  -28.3911  -32.6894   25.0292 H   0  0  0  0  0  0
  -28.0744  -31.8494   26.5429 H   0  0  0  0  0  0
  -28.2569  -38.0115   24.7497 H   0  0  0  0  0  0
  -28.1100  -36.2617   24.6286 H   0  0  0  0  0  0
  -27.2291  -37.1442   25.8877 H   0  0  0  0  0  0
  -20.9443  -29.8750   21.6738 H   0  0  0  0  0  0
  -26.0173  -38.2814   24.1402 H   0  0  0  0  0  0
  -30.6261  -16.5687   22.8370 H   0  0  0  0  0  0
  -29.9169  -20.8073   22.8256 H   0  0  0  0  0  0
  -28.9549  -18.4501   19.3333 H   0  0  0  0  0  0
  -28.0677  -23.6689   19.2877 H   0  0  0  0  0  0
  -27.2305  -23.4948   20.8364 H   0  0  0  0  0  0
  -29.6722  -25.1011   20.9466 H   0  0  0  0  0  0
  -28.2972  -25.3030   21.9114 H   0  0  0  0  0  0
  -29.4921  -22.5498   21.7615 H   0  0  0  0  0  0
  -30.0797  -22.6845   20.1489 H   0  0  0  0  0  0
  -31.3422  -20.7141   24.3110 H   0  0  0  0  0  0
  -31.5465  -19.9089   25.8399 H   0  0  0  0  0  0
  -28.7476  -15.6173   20.3623 H   0  0  0  0  0  0
  1 25  1  0  0  0
  1 30  2  0  0  0
  1 82  1  0  0  0
  2  3  1  0  0  0
  2 25  1  0  0  0
  2 85  1  0  0  0
  2 86  1  0  0  0
  3  4  1  0  0  0
  3 87  1  0  0  0
  3 88  1  0  0  0
  4  5  1  0  0  0
  4 89  1  0  0  0
  4 90  1  0  0  0
  5  6  1  0  0  0
  5 26  1  0  0  0
  5 91  1  0  0  0
  6 25  1  0  0  0
  6 92  1  0  0  0
  6 93  1  0  0  0
  7  8  2  0  0  0
  7 26  1  0  0  0
  7 29  1  0  0  0
  8  9  1  0  0  0
  8 22  1  0  0  0
  9 10  1  0  0  0
  9 27  2  0  0  0
 10 11  2  0  0  0
 10 15  1  0  0  0
 11 12  1  0  0  0
 11 94  1  0  0  0
 12 13  2  0  0  0
 12 95  1  0  0  0
 13 14  1  0  0  0
 13 31  1  0  0  0
 14 15  2  0  0  0
 14 96  1  0  0  0
 15 97  1  0  0  0
 16 17  2  0  0  0
 16 21  1  0  0  0
 16 31  1  0  0  0
 17 18  1  0  0  0
 17 98  1  0  0  0
 18 19  2  0  0  0
 18 99  1  0  0  0
 19 20  1  0  0  0
 19 24  1  0  0  0
 20 21  2  0  0  0
 20100  1  0  0  0
 21 23  1  0  0  0
 22 28  1  0  0  0
 22 32  2  0  0  0
 26 27  1  0  0  0
 28101  1  0  0  0
 28102  1  0  0  0
 29103  1  0  0  0
 29104  1  0  0  0
 33 34  1  0  0  0
 33 66  1  0  0  0
 33 70  2  0  0  0
 34 36  1  0  0  0
 34 59  1  0  0  0
 34105  1  0  0  0
 35 44  2  0  0  0
 35 45  1  0  0  0
 35 68  1  0  0  0
 36 56  1  0  0  0
 36106  1  0  0  0
 37 39  1  0  0  0
 37 47  1  0  0  0
 37 66  1  0  0  0
 37107  1  0  0  0
 38 43  2  0  0  0
 38 46  1  0  0  0
 38 47  1  0  0  0
 39 64  1  0  0  0
 39 67  2  0  0  0
 40 52  1  0  0  0
 40 53  2  0  0  0
 40 58  1  0  0  0
 41108  1  0  0  0
 41109  1  0  0  0
 41110  1  0  0  0
 41 48  1  0  0  0
 42 43  1  0  0  0
 42 66  1  0  0  0
 42111  1  0  0  0
 42112  1  0  0  0
 43 44  1  0  0  0
 44113  1  0  0  0
 45 46  2  0  0  0
 45114  1  0  0  0
 46115  1  0  0  0
 47116  1  0  0  0
 47117  1  0  0  0
 48 56  1  0  0  0
 48 65  1  0  0  0
 48118  1  0  0  0
 49 50  1  0  0  0
 49 53  1  0  0  0
 49 64  1  0  0  0
 49119  1  0  0  0
 50 51  1  0  0  0
 50120  1  0  0  0
 50121  1  0  0  0
 51 52  1  0  0  0
 51122  1  0  0  0
 51123  1  0  0  0
 52124  1  0  0  0
 52125  1  0  0  0
 53 54  1  0  0  0
 54 55  2  0  0  0
 54126  1  0  0  0
 55 57  1  0  0  0
 55127  1  0  0  0
 56 69  2  0  0  0
 57 58  2  0  0  0
 57128  1  0  0  0
 58129  1  0  0  0
 59 60  1  0  0  0
 59 61  1  0  0  0
 59 62  1  0  0  0
 60130  1  0  0  0
 60131  1  0  0  0
 60132  1  0  0  0
 61133  1  0  0  0
 61134  1  0  0  0
 61135  1  0  0  0
 62136  1  0  0  0
 62137  1  0  0  0
 62138  1  0  0  0
 63 65  1  0  0  0
 63139  1  0  0  0
 63140  1  0  0  0
 63141  1  0  0  0
 64142  1  0  0  0
 65143  1  0  0  0
 68 79  1  0  0  0
 71 74  2  0  0  0
 71 75  1  0  0  0
 71144  1  0  0  0
 72 74  1  0  0  0
 72 76  2  0  0  0
 72145  1  0  0  0
 73 75  2  0  0  0
 73 76  1  0  0  0
 73146  1  0  0  0
 74 77  1  0  0  0
 75 82  1  0  0  0
 76 84  1  0  0  0
 77 81  1  0  0  0
 77 83  2  0  0  0
 78 79  1  0  0  0
 78 80  1  0  0  0
 78147  1  0  0  0
 78148  1  0  0  0
 79149  1  0  0  0
 79150  1  0  0  0
 80 84  1  0  0  0
 80151  1  0  0  0
 80152  1  0  0  0
 81153  1  0  0  0
 81154  1  0  0  0
 82155  1  0  0  0
M  ISO  4   1 100  68 101  79 101  82 100
M  END
> <chiral flag>
0

> <version>
0

> <s_m_source_file>
/data/baiqing/PycharmProjects/Reinvent-master-3.2/result/LINK_invent/BTK/process_docking_weight1_custom_product_contain_oxygen_bond_distance_aromatic_linkinvent_7_9_3/rearranged_h_0113.sdf

> <i_m_source_file_index>
12

> <r_mmod_Potential_Energy-OPLS-2005>
83.5521697998047

> <r_mmod_Stretch_Energy-OPLS-2005>
132.821212768555

> <r_mmod_Bend_Energy-OPLS-2005>
203.075561523438

> <r_mmod_Torsional_Energy-OPLS-2005>
283.616516113281

> <r_mmod_Improper_Torsional_Energy-OPLS-2005>
11.7872743606567

> <r_mmod_Van_der_Waal_Energy-OPLS-2005>
134.373886108398

> <r_mmod_Electrostatic_Energy-OPLS-2005>
-520.589965820312

> <r_mmod_Solvation_Energy-OPLS-2005>
-254.733245849609

> <b_mmod_Minimization_Converged-OPLS-2005>
0

> <r_mmod_RMS_Derivative-OPLS-2005>
9.64452457427979

$$$$
12
                    3D
 Structure written by MMmdl.
155163  0  0  1  0            999 V2000
  -30.4379  -15.0545   20.3605 C   0  0  0  0  0  0
  -30.4315  -12.6526   19.4982 C   0  0  0  0  0  0
  -29.5114  -12.5221   18.2580 C   0  0  0  0  0  0
  -28.0346  -12.3451   18.6719 C   0  0  0  0  0  0
  -27.6181  -13.2667   19.8485 C   0  0  2  0  0  0
  -28.6629  -13.2937   20.9855 C   0  0  0  0  0  0
  -25.2382  -13.8267   20.5820 C   0  0  0  0  0  0
  -24.1682  -13.0453   20.9250 C   0  0  0  0  0  0
  -24.6317  -11.6958   20.8777 C   0  0  0  0  0  0
  -23.9042  -10.4297   21.0408 C   0  0  0  0  0  0
  -24.3605   -9.4217   21.9172 C   0  0  0  0  0  0
  -23.6294   -8.2237   22.0757 C   0  0  0  0  0  0
  -22.4276   -8.0238   21.3525 C   0  0  0  0  0  0
  -21.9883   -9.0222   20.4636 C   0  0  0  0  0  0
  -22.7219  -10.2107   20.3048 C   0  0  0  0  0  0
  -21.6866   -6.0691   22.5275 C   0  0  0  0  0  0
  -21.4028   -6.5614   23.8202 C   0  0  0  0  0  0
  -21.3676   -5.6777   24.9168 C   0  0  0  0  0  0
  -21.6052   -4.3040   24.7242 C   0  0  0  0  0  0
  -21.8831   -3.8111   23.4370 C   0  0  0  0  0  0
  -21.9205   -4.6913   22.3416 C   0  0  0  0  0  0
  -22.7707  -13.5197   21.1939 C   0  0  0  0  0  0
  -22.1662   -4.2065   21.1010 F   0  0  0  0  0  0
  -21.5635   -3.4557   25.7788 F   0  0  0  0  0  0
  -29.9179  -13.7522   20.3809 N   0  0  0  0  0  0
  -26.2820  -12.9529   20.3381 N   0  0  0  0  0  0
  -25.9263  -11.6629   20.5821 N   0  0  0  0  0  0
  -22.0388  -12.8101   22.0468 N   0  0  0  0  0  0
  -25.4064  -15.1992   20.4349 N   0  0  0  0  0  0
  -31.6238  -15.1426   20.0214 O   0  0  0  0  0  0
  -21.6656   -6.8812   21.4209 O   0  0  0  0  0  0
  -22.3383  -14.5491   20.6827 O   0  0  0  0  0  0
  -24.6543  -31.8332   23.1797 C   0  0  0  0  0  0
  -25.9256  -32.4677   23.8199 C   0  0  1  0  0  0
  -27.2270  -27.0311   20.1594 C   0  0  0  0  0  0
  -25.5963  -33.8490   24.2120 N   0  0  0  0  0  0
  -23.4661  -30.4473   21.5291 C   0  0  2  0  0  0
  -24.9143  -28.8422   20.1201 C   0  0  0  0  0  0
  -22.7628  -29.4471   22.4829 C   0  0  0  0  0  0
  -18.0362  -28.1352   22.8357 C   0  0  0  0  0  0
  -24.1478  -36.7251   23.2667 C   0  0  0  0  0  0
  -26.0304  -30.6698   21.3903 C   0  0  0  0  0  0
  -26.1015  -29.2686   20.7337 C   0  0  0  0  0  0
  -27.2568  -28.3798   20.7336 C   0  0  0  0  0  0
  -26.0165  -26.7341   19.5009 C   0  0  0  0  0  0
  -24.8850  -27.5864   19.4940 C   0  0  0  0  0  0
  -23.6986  -29.7638   20.1573 C   0  0  0  0  0  0
  -25.4137  -36.3042   24.0319 C   0  0  1  0  0  0
  -20.5920  -28.3741   23.1155 C   0  0  2  0  0  0
  -20.6891  -26.9405   22.5299 C   0  0  0  0  0  0
  -19.5920  -26.6339   21.5045 C   0  0  0  0  0  0
  -18.2012  -26.7989   22.1295 C   0  0  0  0  0  0
  -19.1569  -28.8829   23.2796 C   0  0  0  0  0  0
  -18.9464  -30.1436   23.8803 C   0  0  0  0  0  0
  -17.6418  -30.6483   24.0514 C   0  0  0  0  0  0
  -25.9088  -34.9412   23.5053 C   0  0  0  0  0  0
  -16.5352  -29.8965   23.6246 C   0  0  0  0  0  0
  -16.7326  -28.6400   23.0245 C   0  0  0  0  0  0
  -26.4524  -31.6565   25.0680 C   0  0  0  0  0  0
  -25.3663  -31.3809   26.1361 C   0  0  0  0  0  0
  -27.0414  -30.2947   24.6353 C   0  0  0  0  0  0
  -27.6043  -32.4338   25.7511 C   0  0  0  0  0  0
  -27.5558  -37.1798   24.8485 C   0  0  0  0  0  0
  -21.4282  -29.3203   22.3699 N   0  0  0  0  0  0
  -26.4294  -37.3758   23.9395 N   0  0  0  0  0  0
  -24.7377  -31.0077   22.0873 N   0  0  0  0  0  0
  -23.4222  -28.7901   23.2913 O   0  0  0  0  0  0
  -28.2580  -25.9899   20.1329 O   0  0  0  0  0  0
  -26.5728  -34.8949   22.4665 O   0  0  0  0  0  0
  -23.5618  -32.1301   23.6929 O   0  0  0  0  0  0
  -28.4470  -23.2383   20.2668 C   0  0  0  0  0  0
  -26.6945  -18.4112   19.6523 C   0  0  0  0  0  0
  -27.4575  -18.9652   20.6903 C   0  0  0  0  0  0
  -28.6830  -17.3099   18.7791 C   0  0  0  0  0  0
  -27.3340  -17.7100   18.6058 C   0  0  0  0  0  0
  -28.8560  -18.9483   20.5329 C   0  0  0  0  0  0
  -29.4013  -17.6282   19.9661 C   0  0  0  0  0  0
  -28.4136  -21.8409   20.0947 C   0  0  0  0  0  0
  -28.0371  -24.5568   20.5229 C   0  0  0  0  0  0
  -26.6238  -17.4460   17.3391 C   0  0  0  0  0  0
  -25.5934  -18.1739   16.8643 C   0  0  0  0  0  0
  -29.3479  -20.5373   20.4457 C   0  0  0  0  0  0
  -24.9344  -17.9394   15.5202 C   0  0  0  0  0  0
  -29.6280  -16.2259   20.6361 N   0  0  0  0  0  0
  -30.5508  -20.7468   20.6256 O   0  0  0  0  0  0
  -31.4514  -12.8393   19.1588 H   0  0  0  0  0  0
  -30.4721  -11.7101   20.0477 H   0  0  0  0  0  0
  -29.8248  -11.6734   17.6481 H   0  0  0  0  0  0
  -29.6097  -13.4045   17.6280 H   0  0  0  0  0  0
  -27.8897  -11.3049   18.9533 H   0  0  0  0  0  0
  -27.3731  -12.5133   17.8167 H   0  0  0  0  0  0
  -27.5747  -14.2729   19.4334 H   0  0  0  0  0  0
  -28.7796  -12.3160   21.4560 H   0  0  0  0  0  0
  -28.3534  -13.9767   21.7772 H   0  0  0  0  0  0
  -25.2739   -9.5702   22.4742 H   0  0  0  0  0  0
  -24.0004   -7.4648   22.7498 H   0  0  0  0  0  0
  -21.0812   -8.8740   19.8962 H   0  0  0  0  0  0
  -22.3670  -10.9625   19.6147 H   0  0  0  0  0  0
  -21.2013   -7.6109   23.9676 H   0  0  0  0  0  0
  -21.1492   -6.0513   25.9063 H   0  0  0  0  0  0
  -22.0595   -2.7564   23.2942 H   0  0  0  0  0  0
  -22.4061  -11.9740   22.4772 H   0  0  0  0  0  0
  -21.1012  -13.1052   22.2771 H   0  0  0  0  0  0
  -24.6526  -15.8607   20.5787 H   0  0  0  0  0  0
  -26.2547  -15.6403   20.1089 H   0  0  0  0  0  0
  -26.7329  -32.5215   23.0925 H   0  0  0  0  0  0
  -24.9900  -33.9543   25.0119 H   0  0  0  0  0  0
  -22.7734  -31.2747   21.3620 H   0  0  0  0  0  0
  -23.3737  -35.9562   23.3348 H   0  0  0  0  0  0
  -24.3549  -36.8873   22.2066 H   0  0  0  0  0  0
  -23.7202  -37.6460   23.6679 H   0  0  0  0  0  0
  -26.1970  -31.4147   20.6123 H   0  0  0  0  0  0
  -26.8974  -30.7303   22.0377 H   0  0  0  0  0  0
  -28.1687  -28.6977   21.2161 H   0  0  0  0  0  0
  -25.9315  -25.7844   18.9922 H   0  0  0  0  0  0
  -23.9778  -27.2471   19.0084 H   0  0  0  0  0  0
  -23.8487  -30.5356   19.3992 H   0  0  0  0  0  0
  -22.8035  -29.2166   19.8508 H   0  0  0  0  0  0
  -25.1292  -36.1873   25.0796 H   0  0  0  0  0  0
  -20.9961  -28.3204   24.1273 H   0  0  0  0  0  0
  -20.5870  -26.2178   23.3400 H   0  0  0  0  0  0
  -21.6818  -26.7570   22.1185 H   0  0  0  0  0  0
  -19.7110  -25.6268   21.1050 H   0  0  0  0  0  0
  -19.6913  -27.3110   20.6561 H   0  0  0  0  0  0
  -17.4464  -26.7037   21.3470 H   0  0  0  0  0  0
  -17.9979  -25.9988   22.8387 H   0  0  0  0  0  0
  -19.7871  -30.7416   24.2089 H   0  0  0  0  0  0
  -17.4961  -31.6196   24.5041 H   0  0  0  0  0  0
  -15.5333  -30.2875   23.7525 H   0  0  0  0  0  0
  -15.8798  -28.0710   22.6819 H   0  0  0  0  0  0
  -24.5843  -30.7184   25.7672 H   0  0  0  0  0  0
  -24.8870  -32.3001   26.4722 H   0  0  0  0  0  0
  -25.7897  -30.9019   27.0191 H   0  0  0  0  0  0
  -26.3060  -29.6671   24.1346 H   0  0  0  0  0  0
  -27.3953  -29.7299   25.4975 H   0  0  0  0  0  0
  -27.8962  -30.4187   23.9730 H   0  0  0  0  0  0
  -27.2630  -33.3656   26.2053 H   0  0  0  0  0  0
  -28.3895  -32.6895   25.0380 H   0  0  0  0  0  0
  -28.0658  -31.8486   26.5490 H   0  0  0  0  0  0
  -28.2624  -38.0061   24.7483 H   0  0  0  0  0  0
  -28.1008  -36.2585   24.6335 H   0  0  0  0  0  0
  -27.2284  -37.1462   25.8906 H   0  0  0  0  0  0
  -20.9460  -29.9353   21.7316 H   0  0  0  0  0  0
  -26.0165  -38.2832   24.1374 H   0  0  0  0  0  0
  -25.6380  -18.6408   19.6084 H   0  0  0  0  0  0
  -26.9724  -19.6941   21.3228 H   0  0  0  0  0  0
  -29.0438  -16.5409   18.1094 H   0  0  0  0  0  0
  -27.5481  -21.5071   19.5451 H   0  0  0  0  0  0
  -27.3321  -24.6171   21.3367 H   0  0  0  0  0  0
  -26.9701  -16.6079   16.7522 H   0  0  0  0  0  0
  -25.2101  -19.0245   17.4170 H   0  0  0  0  0  0
  -23.8478  -18.0299   15.5771 H   0  0  0  0  0  0
  -25.1795  -16.9524   15.1164 H   0  0  0  0  0  0
  -25.2942  -18.6968   14.8184 H   0  0  0  0  0  0
  -28.8046  -15.9318   21.1422 H   0  0  0  0  0  0
  1 25  1  0  0  0
  1 30  2  0  0  0
  1 84  1  0  0  0
  2  3  1  0  0  0
  2 25  1  0  0  0
  2 86  1  0  0  0
  2 87  1  0  0  0
  3  4  1  0  0  0
  3 88  1  0  0  0
  3 89  1  0  0  0
  4  5  1  0  0  0
  4 90  1  0  0  0
  4 91  1  0  0  0
  5  6  1  0  0  0
  5 26  1  0  0  0
  5 92  1  0  0  0
  6 25  1  0  0  0
  6 93  1  0  0  0
  6 94  1  0  0  0
  7  8  2  0  0  0
  7 26  1  0  0  0
  7 29  1  0  0  0
  8  9  1  0  0  0
  8 22  1  0  0  0
  9 10  1  0  0  0
  9 27  2  0  0  0
 10 11  2  0  0  0
 10 15  1  0  0  0
 11 12  1  0  0  0
 11 95  1  0  0  0
 12 13  2  0  0  0
 12 96  1  0  0  0
 13 14  1  0  0  0
 13 31  1  0  0  0
 14 15  2  0  0  0
 14 97  1  0  0  0
 15 98  1  0  0  0
 16 17  2  0  0  0
 16 21  1  0  0  0
 16 31  1  0  0  0
 17 18  1  0  0  0
 17 99  1  0  0  0
 18 19  2  0  0  0
 18100  1  0  0  0
 19 20  1  0  0  0
 19 24  1  0  0  0
 20 21  2  0  0  0
 20101  1  0  0  0
 21 23  1  0  0  0
 22 28  1  0  0  0
 22 32  2  0  0  0
 26 27  1  0  0  0
 28102  1  0  0  0
 28103  1  0  0  0
 29104  1  0  0  0
 29105  1  0  0  0
 33 34  1  0  0  0
 33 66  1  0  0  0
 33 70  2  0  0  0
 34 36  1  0  0  0
 34 59  1  0  0  0
 34106  1  0  0  0
 35 44  2  0  0  0
 35 45  1  0  0  0
 35 68  1  0  0  0
 36 56  1  0  0  0
 36107  1  0  0  0
 37 39  1  0  0  0
 37 47  1  0  0  0
 37 66  1  0  0  0
 37108  1  0  0  0
 38 43  2  0  0  0
 38 46  1  0  0  0
 38 47  1  0  0  0
 39 64  1  0  0  0
 39 67  2  0  0  0
 40 52  1  0  0  0
 40 53  2  0  0  0
 40 58  1  0  0  0
 41109  1  0  0  0
 41110  1  0  0  0
 41111  1  0  0  0
 41 48  1  0  0  0
 42 43  1  0  0  0
 42 66  1  0  0  0
 42112  1  0  0  0
 42113  1  0  0  0
 43 44  1  0  0  0
 44114  1  0  0  0
 45 46  2  0  0  0
 45115  1  0  0  0
 46116  1  0  0  0
 47117  1  0  0  0
 47118  1  0  0  0
 48 56  1  0  0  0
 48 65  1  0  0  0
 48119  1  0  0  0
 49 50  1  0  0  0
 49 53  1  0  0  0
 49 64  1  0  0  0
 49120  1  0  0  0
 50 51  1  0  0  0
 50121  1  0  0  0
 50122  1  0  0  0
 51 52  1  0  0  0
 51123  1  0  0  0
 51124  1  0  0  0
 52125  1  0  0  0
 52126  1  0  0  0
 53 54  1  0  0  0
 54 55  2  0  0  0
 54127  1  0  0  0
 55 57  1  0  0  0
 55128  1  0  0  0
 56 69  2  0  0  0
 57 58  2  0  0  0
 57129  1  0  0  0
 58130  1  0  0  0
 59 60  1  0  0  0
 59 61  1  0  0  0
 59 62  1  0  0  0
 60131  1  0  0  0
 60132  1  0  0  0
 60133  1  0  0  0
 61134  1  0  0  0
 61135  1  0  0  0
 61136  1  0  0  0
 62137  1  0  0  0
 62138  1  0  0  0
 62139  1  0  0  0
 63 65  1  0  0  0
 63140  1  0  0  0
 63141  1  0  0  0
 63142  1  0  0  0
 64143  1  0  0  0
 65144  1  0  0  0
 68 79  1  0  0  0
 71 78  2  0  0  0
 71 79  2  0  0  0
 72 73  2  0  0  0
 72 75  1  0  0  0
 72145  1  0  0  0
 73 76  1  0  0  0
 73146  1  0  0  0
 74 75  2  0  0  0
 74 77  1  0  0  0
 74147  1  0  0  0
 75 80  1  0  0  0
 76 77  2  0  0  0
 76 82  1  0  0  0
 77 84  1  0  0  0
 78 82  1  0  0  0
 78148  1  0  0  0
 79149  1  0  0  0
 80 81  2  0  0  0
 80150  1  0  0  0
 81 83  1  0  0  0
 81151  1  0  0  0
 82 85  2  0  0  0
 83152  1  0  0  0
 83153  1  0  0  0
 83154  1  0  0  0
 84155  1  0  0  0
M  ISO  4   1 100  68 101  79 101  84 100
M  END
> <chiral flag>
0

> <version>
0

> <s_m_source_file>
/data/baiqing/PycharmProjects/Reinvent-master-3.2/result/LINK_invent/BTK/process_docking_weight1_custom_product_contain_oxygen_bond_distance_aromatic_linkinvent_7_9_3/rearranged_h_0113.sdf

> <i_m_source_file_index>
13

> <r_mmod_Potential_Energy-OPLS-2005>
1029.75329589844

> <r_mmod_Stretch_Energy-OPLS-2005>
369.386199951172

> <r_mmod_Bend_Energy-OPLS-2005>
358.222595214844

> <r_mmod_Torsional_Energy-OPLS-2005>
389.830535888672

> <r_mmod_Improper_Torsional_Energy-OPLS-2005>
34.6401863098145

> <r_mmod_Van_der_Waal_Energy-OPLS-2005>
122.34342956543

> <r_mmod_Electrostatic_Energy-OPLS-2005>
-312.642333984375

> <r_mmod_Solvation_Energy-OPLS-2005>
-219.034866333008

> <b_mmod_Minimization_Converged-OPLS-2005>
0

> <r_mmod_RMS_Derivative-OPLS-2005>
8.68253803253174

$$$$
13
                    3D
 Structure written by MMmdl.
158166  0  0  1  0            999 V2000
  -30.7299  -14.5214   20.4743 C   0  0  0  0  0  0
  -30.4057  -12.3151   19.4380 C   0  0  0  0  0  0
  -29.4880  -12.4699   18.2099 C   0  0  0  0  0  0
  -28.0142  -12.3225   18.6322 C   0  0  0  0  0  0
  -27.6491  -13.2043   19.8559 C   0  0  2  0  0  0
  -28.6989  -13.0948   20.9846 C   0  0  0  0  0  0
  -25.2583  -13.8168   20.5693 C   0  0  0  0  0  0
  -24.1832  -13.0447   20.9189 C   0  0  0  0  0  0
  -24.6381  -11.6907   20.8758 C   0  0  0  0  0  0
  -23.9047  -10.4291   21.0417 C   0  0  0  0  0  0
  -24.3606   -9.4202   21.9191 C   0  0  0  0  0  0
  -23.6283   -8.2235   22.0756 C   0  0  0  0  0  0
  -22.4264   -8.0277   21.3543 C   0  0  0  0  0  0
  -21.9896   -9.0253   20.4650 C   0  0  0  0  0  0
  -22.7222  -10.2134   20.3061 C   0  0  0  0  0  0
  -21.6847   -6.0731   22.5278 C   0  0  0  0  0  0
  -21.4018   -6.5642   23.8212 C   0  0  0  0  0  0
  -21.3655   -5.6797   24.9178 C   0  0  0  0  0  0
  -21.6038   -4.3059   24.7226 C   0  0  0  0  0  0
  -21.8822   -3.8147   23.4351 C   0  0  0  0  0  0
  -21.9194   -4.6961   22.3407 C   0  0  0  0  0  0
  -22.7861  -13.5250   21.1856 C   0  0  0  0  0  0
  -22.1662   -4.2148   21.0982 F   0  0  0  0  0  0
  -21.5622   -3.4544   25.7737 F   0  0  0  0  0  0
  -30.0179  -13.3621   20.3979 N   0  0  0  0  0  0
  -26.2980  -12.9310   20.3333 N   0  0  0  0  0  0
  -25.9305  -11.6479   20.5796 N   0  0  0  0  0  0
  -22.0509  -12.8230   22.0410 N   0  0  0  0  0  0
  -25.4358  -15.1885   20.4113 N   0  0  0  0  0  0
  -31.9262  -14.5365   20.1787 O   0  0  0  0  0  0
  -21.6633   -6.8872   21.4236 O   0  0  0  0  0  0
  -22.3537  -14.5544   20.6694 O   0  0  0  0  0  0
  -24.6159  -31.8671   23.2107 C   0  0  0  0  0  0
  -25.9042  -32.4820   23.8402 C   0  0  1  0  0  0
  -27.2275  -27.4257   20.1034 C   0  0  0  0  0  0
  -25.5892  -33.8615   24.2332 N   0  0  0  0  0  0
  -23.4041  -30.4935   21.5504 C   0  0  2  0  0  0
  -24.8511  -28.9596   20.1133 C   0  0  0  0  0  0
  -22.7418  -29.4671   22.4986 C   0  0  0  0  0  0
  -18.0288  -28.1367   22.8475 C   0  0  0  0  0  0
  -24.1490  -36.7317   23.2639 C   0  0  0  0  0  0
  -25.9349  -30.8314   21.3655 C   0  0  0  0  0  0
  -26.0132  -29.4671   20.7092 C   0  0  0  0  0  0
  -27.2090  -28.7090   20.6978 C   0  0  0  0  0  0
  -26.0540  -26.9424   19.4857 C   0  0  0  0  0  0
  -24.8666  -27.6965   19.4976 C   0  0  0  0  0  0
  -23.6129  -29.8259   20.1653 C   0  0  0  0  0  0
  -25.4109  -36.3112   24.0339 C   0  0  1  0  0  0
  -20.5873  -28.3659   23.1304 C   0  0  2  0  0  0
  -20.6781  -26.9410   22.5370 C   0  0  0  0  0  0
  -19.5772  -26.6437   21.5146 C   0  0  0  0  0  0
  -18.1947  -26.7937   22.1571 C   0  0  0  0  0  0
  -19.1530  -28.8824   23.2898 C   0  0  0  0  0  0
  -18.9448  -30.1424   23.8909 C   0  0  0  0  0  0
  -17.6450  -30.6556   24.0574 C   0  0  0  0  0  0
  -25.9030  -34.9477   23.5134 C   0  0  0  0  0  0
  -16.5342  -29.9065   23.6319 C   0  0  0  0  0  0
  -16.7271  -28.6483   23.0340 C   0  0  0  0  0  0
  -26.4466  -31.6603   25.0737 C   0  0  0  0  0  0
  -25.3733  -31.3715   26.1495 C   0  0  0  0  0  0
  -27.0298  -30.3041   24.6122 C   0  0  0  0  0  0
  -27.6042  -32.4328   25.7493 C   0  0  0  0  0  0
  -27.5580  -37.1813   24.8464 C   0  0  0  0  0  0
  -21.4146  -29.3048   22.3732 N   0  0  0  0  0  0
  -26.4295  -37.3795   23.9406 N   0  0  0  0  0  0
  -24.6699  -31.0778   22.1006 N   0  0  0  0  0  0
  -23.4199  -28.8209   23.3025 O   0  0  0  0  0  0
  -28.3627  -26.6414   20.1226 O   0  0  0  0  0  0
  -26.5597  -34.8924   22.4702 O   0  0  0  0  0  0
  -23.5348  -32.1427   23.7496 O   0  0  0  0  0  0
  -27.9299  -20.3735   19.5899 C   0  0  0  0  0  0
  -29.5299  -18.0956   20.2437 C   0  0  0  0  0  0
  -27.4955  -19.0817   19.2409 C   0  0  0  0  0  0
  -28.2959  -17.9474   19.5295 C   0  0  0  0  0  0
  -29.1472  -20.5631   20.2702 C   0  0  0  0  0  0
  -29.9209  -19.4246   20.6050 C   0  0  0  0  0  0
  -30.4977  -16.9404   20.5196 C   0  0  0  0  0  0
  -26.1683  -18.9404   18.5074 C   0  0  0  0  0  0
  -29.0378  -24.2166   20.2339 C   0  0  0  0  0  0
  -28.1945  -25.3820   20.8080 C   0  0  0  0  0  0
  -28.7620  -22.8749   20.9650 C   0  0  0  0  0  0
  -27.8253  -16.7237   19.0376 N   0  0  0  0  0  0
  -30.0139  -15.6686   20.6125 N   0  0  0  0  0  0
  -31.7013  -17.2031   20.6499 O   0  0  0  0  0  0
  -29.6535  -21.8216   20.5614 O   0  0  0  0  0  0
  -31.0736  -19.6533   21.2842 F   0  0  0  0  0  0
  -31.4518  -12.3766   19.1346 H   0  0  0  0  0  0
  -30.2836  -11.3290   19.8885 H   0  0  0  0  0  0
  -29.7362  -11.7192   17.4571 H   0  0  0  0  0  0
  -29.6476  -13.4420   17.7406 H   0  0  0  0  0  0
  -27.8498  -11.2715   18.8747 H   0  0  0  0  0  0
  -27.3540  -12.5477   17.7943 H   0  0  0  0  0  0
  -27.6602  -14.2269   19.4943 H   0  0  0  0  0  0
  -28.6860  -12.0995   21.4312 H   0  0  0  0  0  0
  -28.4736  -13.7954   21.7903 H   0  0  0  0  0  0
  -25.2755   -9.5677   22.4765 H   0  0  0  0  0  0
  -23.9996   -7.4622   22.7471 H   0  0  0  0  0  0
  -21.0829   -8.8766   19.8955 H   0  0  0  0  0  0
  -22.3679  -10.9674   19.6169 H   0  0  0  0  0  0
  -21.2013   -7.6153   23.9712 H   0  0  0  0  0  0
  -21.1470   -6.0532   25.9078 H   0  0  0  0  0  0
  -22.0603   -2.7609   23.2853 H   0  0  0  0  0  0
  -22.4135  -11.9891   22.4788 H   0  0  0  0  0  0
  -21.1131  -13.1254   22.2626 H   0  0  0  0  0  0
  -24.6753  -15.8492   20.5180 H   0  0  0  0  0  0
  -26.3001  -15.6280   20.0966 H   0  0  0  0  0  0
  -26.7118  -32.5533   23.1172 H   0  0  0  0  0  0
  -25.0049  -33.9789   25.0479 H   0  0  0  0  0  0
  -22.6917  -31.3094   21.4111 H   0  0  0  0  0  0
  -23.3747  -35.9657   23.3322 H   0  0  0  0  0  0
  -24.3578  -36.8912   22.2046 H   0  0  0  0  0  0
  -23.7249  -37.6533   23.6637 H   0  0  0  0  0  0
  -26.0504  -31.5989   20.5997 H   0  0  0  0  0  0
  -26.8206  -30.8808   21.9878 H   0  0  0  0  0  0
  -28.1055  -29.0921   21.1658 H   0  0  0  0  0  0
  -26.0545  -25.9748   19.0034 H   0  0  0  0  0  0
  -23.9748  -27.3011   19.0318 H   0  0  0  0  0  0
  -23.7157  -30.5986   19.4023 H   0  0  0  0  0  0
  -22.7374  -29.2433   19.8743 H   0  0  0  0  0  0
  -25.1287  -36.1986   25.0829 H   0  0  0  0  0  0
  -20.9972  -28.3196   24.1422 H   0  0  0  0  0  0
  -20.5683  -26.2262   23.3536 H   0  0  0  0  0  0
  -21.6656  -26.7469   22.1167 H   0  0  0  0  0  0
  -19.6930  -25.6379   21.1093 H   0  0  0  0  0  0
  -19.6708  -27.3321   20.6733 H   0  0  0  0  0  0
  -17.4238  -26.6707   21.3953 H   0  0  0  0  0  0
  -18.0349  -26.0039   22.8922 H   0  0  0  0  0  0
  -19.7926  -30.7232   24.2299 H   0  0  0  0  0  0
  -17.4999  -31.6224   24.5206 H   0  0  0  0  0  0
  -15.5336  -30.2968   23.7629 H   0  0  0  0  0  0
  -15.8676  -28.0815   22.7024 H   0  0  0  0  0  0
  -24.5888  -30.7083   25.7834 H   0  0  0  0  0  0
  -24.8950  -32.2874   26.4967 H   0  0  0  0  0  0
  -25.8082  -30.8863   27.0240 H   0  0  0  0  0  0
  -26.2844  -29.6808   24.1168 H   0  0  0  0  0  0
  -27.4052  -29.7275   25.4584 H   0  0  0  0  0  0
  -27.8688  -30.4363   23.9291 H   0  0  0  0  0  0
  -27.2653  -33.3607   26.2117 H   0  0  0  0  0  0
  -28.3819  -32.6925   25.0297 H   0  0  0  0  0  0
  -28.0752  -31.8430   26.5374 H   0  0  0  0  0  0
  -28.2616  -38.0094   24.7495 H   0  0  0  0  0  0
  -28.1061  -36.2622   24.6313 H   0  0  0  0  0  0
  -27.2295  -37.1495   25.8869 H   0  0  0  0  0  0
  -20.9316  -29.8759   21.6938 H   0  0  0  0  0  0
  -26.0194  -38.2882   24.1394 H   0  0  0  0  0  0
  -27.3341  -21.2227   19.2902 H   0  0  0  0  0  0
  -25.6355  -19.8905   18.4546 H   0  0  0  0  0  0
  -25.5200  -18.2312   19.0216 H   0  0  0  0  0  0
  -26.3292  -18.5912   17.4870 H   0  0  0  0  0  0
  -30.0961  -24.4671   20.3125 H   0  0  0  0  0  0
  -28.8257  -24.0989   19.1715 H   0  0  0  0  0  0
  -28.4713  -25.5379   21.8515 H   0  0  0  0  0  0
  -27.1524  -25.0597   20.8352 H   0  0  0  0  0  0
  -27.7083  -22.6153   20.8760 H   0  0  0  0  0  0
  -28.9272  -23.0196   22.0327 H   0  0  0  0  0  0
  -28.5084  -16.1825   18.5182 H   0  0  0  0  0  0
  -26.9985  -16.8227   18.4571 H   0  0  0  0  0  0
  -29.0082  -15.5928   20.6075 H   0  0  0  0  0  0
  1 25  1  0  0  0
  1 30  2  0  0  0
  1 83  1  0  0  0
  2  3  1  0  0  0
  2 25  1  0  0  0
  2 87  1  0  0  0
  2 88  1  0  0  0
  3  4  1  0  0  0
  3 89  1  0  0  0
  3 90  1  0  0  0
  4  5  1  0  0  0
  4 91  1  0  0  0
  4 92  1  0  0  0
  5  6  1  0  0  0
  5 26  1  0  0  0
  5 93  1  0  0  0
  6 25  1  0  0  0
  6 94  1  0  0  0
  6 95  1  0  0  0
  7  8  2  0  0  0
  7 26  1  0  0  0
  7 29  1  0  0  0
  8  9  1  0  0  0
  8 22  1  0  0  0
  9 10  1  0  0  0
  9 27  2  0  0  0
 10 11  2  0  0  0
 10 15  1  0  0  0
 11 12  1  0  0  0
 11 96  1  0  0  0
 12 13  2  0  0  0
 12 97  1  0  0  0
 13 14  1  0  0  0
 13 31  1  0  0  0
 14 15  2  0  0  0
 14 98  1  0  0  0
 15 99  1  0  0  0
 16 17  2  0  0  0
 16 21  1  0  0  0
 16 31  1  0  0  0
 17 18  1  0  0  0
 17100  1  0  0  0
 18 19  2  0  0  0
 18101  1  0  0  0
 19 20  1  0  0  0
 19 24  1  0  0  0
 20 21  2  0  0  0
 20102  1  0  0  0
 21 23  1  0  0  0
 22 28  1  0  0  0
 22 32  2  0  0  0
 26 27  1  0  0  0
 28103  1  0  0  0
 28104  1  0  0  0
 29105  1  0  0  0
 29106  1  0  0  0
 33 34  1  0  0  0
 33 66  1  0  0  0
 33 70  2  0  0  0
 34 36  1  0  0  0
 34 59  1  0  0  0
 34107  1  0  0  0
 35 44  2  0  0  0
 35 45  1  0  0  0
 35 68  1  0  0  0
 36 56  1  0  0  0
 36108  1  0  0  0
 37 39  1  0  0  0
 37 47  1  0  0  0
 37 66  1  0  0  0
 37109  1  0  0  0
 38 43  2  0  0  0
 38 46  1  0  0  0
 38 47  1  0  0  0
 39 64  1  0  0  0
 39 67  2  0  0  0
 40 52  1  0  0  0
 40 53  2  0  0  0
 40 58  1  0  0  0
 41110  1  0  0  0
 41111  1  0  0  0
 41112  1  0  0  0
 41 48  1  0  0  0
 42 43  1  0  0  0
 42 66  1  0  0  0
 42113  1  0  0  0
 42114  1  0  0  0
 43 44  1  0  0  0
 44115  1  0  0  0
 45 46  2  0  0  0
 45116  1  0  0  0
 46117  1  0  0  0
 47118  1  0  0  0
 47119  1  0  0  0
 48 56  1  0  0  0
 48 65  1  0  0  0
 48120  1  0  0  0
 49 50  1  0  0  0
 49 53  1  0  0  0
 49 64  1  0  0  0
 49121  1  0  0  0
 50 51  1  0  0  0
 50122  1  0  0  0
 50123  1  0  0  0
 51 52  1  0  0  0
 51124  1  0  0  0
 51125  1  0  0  0
 52126  1  0  0  0
 52127  1  0  0  0
 53 54  1  0  0  0
 54 55  2  0  0  0
 54128  1  0  0  0
 55 57  1  0  0  0
 55129  1  0  0  0
 56 69  2  0  0  0
 57 58  2  0  0  0
 57130  1  0  0  0
 58131  1  0  0  0
 59 60  1  0  0  0
 59 61  1  0  0  0
 59 62  1  0  0  0
 60132  1  0  0  0
 60133  1  0  0  0
 60134  1  0  0  0
 61135  1  0  0  0
 61136  1  0  0  0
 61137  1  0  0  0
 62138  1  0  0  0
 62139  1  0  0  0
 62140  1  0  0  0
 63 65  1  0  0  0
 63141  1  0  0  0
 63142  1  0  0  0
 63143  1  0  0  0
 64144  1  0  0  0
 65145  1  0  0  0
 68 80  1  0  0  0
 71 73  2  0  0  0
 71 75  1  0  0  0
 71146  1  0  0  0
 72 74  2  0  0  0
 72 76  1  0  0  0
 72 77  1  0  0  0
 73 74  1  0  0  0
 73 78  1  0  0  0
 74 82  1  0  0  0
 75 76  2  0  0  0
 75 85  1  0  0  0
 76 86  1  0  0  0
 77 83  1  0  0  0
 77 84  2  0  0  0
 78147  1  0  0  0
 78148  1  0  0  0
 78149  1  0  0  0
 79 80  1  0  0  0
 79 81  1  0  0  0
 79150  1  0  0  0
 79151  1  0  0  0
 80152  1  0  0  0
 80153  1  0  0  0
 81 85  1  0  0  0
 81154  1  0  0  0
 81155  1  0  0  0
 82156  1  0  0  0
 82157  1  0  0  0
 83158  1  0  0  0
M  ISO  4   1 100  68 101  80 101  83 100
M  END
> <chiral flag>
0

> <version>
0

> <s_m_source_file>
/data/baiqing/PycharmProjects/Reinvent-master-3.2/result/LINK_invent/BTK/process_docking_weight1_custom_product_contain_oxygen_bond_distance_aromatic_linkinvent_7_9_3/rearranged_h_0113.sdf

> <i_m_source_file_index>
14

> <r_mmod_Potential_Energy-OPLS-2005>
44.6373519897461

> <r_mmod_Stretch_Energy-OPLS-2005>
46.2997550964355

> <r_mmod_Bend_Energy-OPLS-2005>
109.004837036133

> <r_mmod_Torsional_Energy-OPLS-2005>
262.484375

> <r_mmod_Improper_Torsional_Energy-OPLS-2005>
13.0242376327515

> <r_mmod_Van_der_Waal_Energy-OPLS-2005>
178.173416137695

> <r_mmod_Electrostatic_Energy-OPLS-2005>
-365.879943847656

> <r_mmod_Solvation_Energy-OPLS-2005>
-226.656707763672

> <b_mmod_Minimization_Converged-OPLS-2005>
0

> <r_mmod_RMS_Derivative-OPLS-2005>
1.6242767572403

$$$$
14
                    3D
 Structure written by MMmdl.
153161  0  0  1  0            999 V2000
  -30.5543  -14.7996   20.4244 C   0  0  0  0  0  0
  -30.4447  -12.4859   19.4555 C   0  0  0  0  0  0
  -29.5078  -12.5076   18.2249 C   0  0  0  0  0  0
  -28.0364  -12.3199   18.6474 C   0  0  0  0  0  0
  -27.6383  -13.2265   19.8410 C   0  0  2  0  0  0
  -28.6888  -13.1758   20.9686 C   0  0  0  0  0  0
  -25.2516  -13.8180   20.5685 C   0  0  0  0  0  0
  -24.1818  -13.0437   20.9222 C   0  0  0  0  0  0
  -24.6408  -11.6909   20.8773 C   0  0  0  0  0  0
  -23.9088  -10.4289   21.0424 C   0  0  0  0  0  0
  -24.3630   -9.4201   21.9204 C   0  0  0  0  0  0
  -23.6293   -8.2241   22.0760 C   0  0  0  0  0  0
  -22.4275   -8.0282   21.3545 C   0  0  0  0  0  0
  -21.9914   -9.0279   20.4657 C   0  0  0  0  0  0
  -22.7250  -10.2154   20.3077 C   0  0  0  0  0  0
  -21.6844   -6.0743   22.5278 C   0  0  0  0  0  0
  -21.4014   -6.5647   23.8218 C   0  0  0  0  0  0
  -21.3652   -5.6801   24.9169 C   0  0  0  0  0  0
  -21.6033   -4.3063   24.7216 C   0  0  0  0  0  0
  -21.8814   -3.8151   23.4338 C   0  0  0  0  0  0
  -21.9188   -4.6972   22.3407 C   0  0  0  0  0  0
  -22.7848  -13.5222   21.1862 C   0  0  0  0  0  0
  -22.1663   -4.2163   21.0978 F   0  0  0  0  0  0
  -21.5605   -3.4541   25.7730 F   0  0  0  0  0  0
  -29.9782  -13.5486   20.3738 N   0  0  0  0  0  0
  -26.2933  -12.9381   20.3256 N   0  0  0  0  0  0
  -25.9343  -11.6532   20.5766 N   0  0  0  0  0  0
  -22.0470  -12.8241   22.0417 N   0  0  0  0  0  0
  -25.4174  -15.1913   20.4082 N   0  0  0  0  0  0
  -31.7692  -14.9234   20.2247 O   0  0  0  0  0  0
  -21.6620   -6.8885   21.4247 O   0  0  0  0  0  0
  -22.3562  -14.5540   20.6701 O   0  0  0  0  0  0
  -24.6345  -31.8520   23.1936 C   0  0  0  0  0  0
  -25.9157  -32.4741   23.8329 C   0  0  1  0  0  0
  -27.2255  -27.2262   20.1461 C   0  0  0  0  0  0
  -25.5925  -33.8538   24.2246 N   0  0  0  0  0  0
  -23.4353  -30.4695   21.5380 C   0  0  2  0  0  0
  -24.8864  -28.9052   20.1171 C   0  0  0  0  0  0
  -22.7546  -29.4571   22.4909 C   0  0  0  0  0  0
  -18.0310  -28.1399   22.8497 C   0  0  0  0  0  0
  -24.1482  -36.7277   23.2631 C   0  0  0  0  0  0
  -25.9840  -30.7560   21.3768 C   0  0  0  0  0  0
  -26.0602  -29.3723   20.7243 C   0  0  0  0  0  0
  -27.2361  -28.5471   20.7218 C   0  0  0  0  0  0
  -26.0289  -26.8295   19.5164 C   0  0  0  0  0  0
  -24.8775  -27.6433   19.4997 C   0  0  0  0  0  0
  -23.6582  -29.7978   20.1573 C   0  0  0  0  0  0
  -25.4100  -36.3054   24.0327 C   0  0  1  0  0  0
  -20.5917  -28.3708   23.1271 C   0  0  2  0  0  0
  -20.6786  -26.9417   22.5419 C   0  0  0  0  0  0
  -19.5756  -26.6391   21.5235 C   0  0  0  0  0  0
  -18.1940  -26.7950   22.1650 C   0  0  0  0  0  0
  -19.1552  -28.8874   23.2887 C   0  0  0  0  0  0
  -18.9469  -30.1485   23.8897 C   0  0  0  0  0  0
  -17.6458  -30.6584   24.0576 C   0  0  0  0  0  0
  -25.9055  -34.9433   23.5098 C   0  0  0  0  0  0
  -16.5359  -29.9075   23.6328 C   0  0  0  0  0  0
  -16.7300  -28.6504   23.0335 C   0  0  0  0  0  0
  -26.4499  -31.6581   25.0734 C   0  0  0  0  0  0
  -25.3705  -31.3755   26.1440 C   0  0  0  0  0  0
  -27.0332  -30.2999   24.6224 C   0  0  0  0  0  0
  -27.6073  -32.4302   25.7474 C   0  0  0  0  0  0
  -27.5585  -37.1768   24.8441 C   0  0  0  0  0  0
  -21.4259  -29.3037   22.3659 N   0  0  0  0  0  0
  -26.4273  -37.3762   23.9421 N   0  0  0  0  0  0
  -24.7044  -31.0425   22.0936 N   0  0  0  0  0  0
  -23.4229  -28.8123   23.3019 O   0  0  0  0  0  0
  -28.3141  -26.3151   20.1428 O   0  0  0  0  0  0
  -26.5648  -34.8913   22.4677 O   0  0  0  0  0  0
  -23.5469  -32.1360   23.7199 O   0  0  0  0  0  0
  -29.2630  -18.3022   19.7147 C   0  0  0  0  0  0
  -29.4680  -19.5771   20.4119 C   0  0  0  0  0  0
  -29.7992  -17.2873   20.5251 C   0  0  0  0  0  0
  -29.0489  -20.9910   19.8974 C   0  0  0  0  0  0
  -28.9501  -22.2318   20.5311 C   0  0  0  0  0  0
  -28.5955  -23.6073   19.8775 C   0  0  0  0  0  0
  -28.5880  -18.1468   18.3742 C   0  0  0  0  0  0
  -30.8069  -17.4151   22.8905 C   0  0  0  0  0  0
  -28.1246  -24.9137   20.7058 C   0  0  0  0  0  0
  -30.0561  -19.3049   21.5797 N   0  0  0  0  0  0
  -30.2599  -17.9479   21.6579 N   0  0  0  0  0  0
  -29.6820  -15.8878   20.3704 N   0  0  0  0  0  0
  -28.6449  -23.7247   18.6482 O   0  0  0  0  0  0
  -31.4785  -12.6393   19.1397 H   0  0  0  0  0  0
  -30.4162  -11.5121   19.9463 H   0  0  0  0  0  0
  -29.7945  -11.7306   17.5154 H   0  0  0  0  0  0
  -29.6160  -13.4565   17.6940 H   0  0  0  0  0  0
  -27.9077  -11.2723   18.9208 H   0  0  0  0  0  0
  -27.3707  -12.4958   17.8028 H   0  0  0  0  0  0
  -27.6186  -14.2438   19.4521 H   0  0  0  0  0  0
  -28.7382  -12.1782   21.4089 H   0  0  0  0  0  0
  -28.4248  -13.8596   21.7772 H   0  0  0  0  0  0
  -25.2775   -9.5657   22.4780 H   0  0  0  0  0  0
  -23.9972   -7.4627   22.7489 H   0  0  0  0  0  0
  -21.0821   -8.8840   19.8979 H   0  0  0  0  0  0
  -22.3721  -10.9724   19.6198 H   0  0  0  0  0  0
  -21.2038   -7.6162   23.9738 H   0  0  0  0  0  0
  -21.1459   -6.0518   25.9073 H   0  0  0  0  0  0
  -22.0597   -2.7621   23.2844 H   0  0  0  0  0  0
  -22.4046  -11.9887   22.4813 H   0  0  0  0  0  0
  -21.1115  -13.1357   22.2634 H   0  0  0  0  0  0
  -24.6389  -15.8324   20.5160 H   0  0  0  0  0  0
  -26.2476  -15.6405   20.0496 H   0  0  0  0  0  0
  -26.7242  -32.5389   23.1089 H   0  0  0  0  0  0
  -25.0024  -33.9665   25.0357 H   0  0  0  0  0  0
  -22.7347  -31.2919   21.3860 H   0  0  0  0  0  0
  -23.3737  -35.9617   23.3280 H   0  0  0  0  0  0
  -24.3575  -36.8902   22.2048 H   0  0  0  0  0  0
  -23.7244  -37.6478   23.6665 H   0  0  0  0  0  0
  -26.1169  -31.5109   20.6002 H   0  0  0  0  0  0
  -26.8647  -30.8167   22.0066 H   0  0  0  0  0  0
  -28.1403  -28.8996   21.1994 H   0  0  0  0  0  0
  -25.9791  -25.8592   19.0427 H   0  0  0  0  0  0
  -23.9793  -27.2781   19.0203 H   0  0  0  0  0  0
  -23.7924  -30.5739   19.4021 H   0  0  0  0  0  0
  -22.7763  -29.2341   19.8469 H   0  0  0  0  0  0
  -25.1262  -36.1898   25.0818 H   0  0  0  0  0  0
  -21.0012  -28.3285   24.1396 H   0  0  0  0  0  0
  -20.5685  -26.2313   23.3619 H   0  0  0  0  0  0
  -21.6645  -26.7423   22.1202 H   0  0  0  0  0  0
  -19.6888  -25.6306   21.1244 H   0  0  0  0  0  0
  -19.6673  -27.3219   20.6784 H   0  0  0  0  0  0
  -17.4197  -26.6720   21.4066 H   0  0  0  0  0  0
  -18.0326  -26.0099   22.9046 H   0  0  0  0  0  0
  -19.7924  -30.7330   24.2251 H   0  0  0  0  0  0
  -17.4978  -31.6248   24.5194 H   0  0  0  0  0  0
  -15.5352  -30.2963   23.7625 H   0  0  0  0  0  0
  -15.8722  -28.0825   22.7013 H   0  0  0  0  0  0
  -24.5880  -30.7106   25.7768 H   0  0  0  0  0  0
  -24.8893  -32.2930   26.4837 H   0  0  0  0  0  0
  -25.7989  -30.8950   27.0245 H   0  0  0  0  0  0
  -26.2937  -29.6741   24.1214 H   0  0  0  0  0  0
  -27.3982  -29.7256   25.4748 H   0  0  0  0  0  0
  -27.8820  -30.4271   23.9504 H   0  0  0  0  0  0
  -27.2720  -33.3611   26.2061 H   0  0  0  0  0  0
  -28.3867  -32.6835   25.0275 H   0  0  0  0  0  0
  -28.0768  -31.8412   26.5364 H   0  0  0  0  0  0
  -28.2539  -38.0126   24.7555 H   0  0  0  0  0  0
  -28.1144  -36.2662   24.6157 H   0  0  0  0  0  0
  -27.2328  -37.1264   25.8845 H   0  0  0  0  0  0
  -20.9451  -29.8757   21.6856 H   0  0  0  0  0  0
  -26.0142  -38.2815   24.1480 H   0  0  0  0  0  0
  -28.8259  -21.0001   18.8393 H   0  0  0  0  0  0
  -29.1515  -22.2622   21.5919 H   0  0  0  0  0  0
  -29.1413  -18.6584   17.5861 H   0  0  0  0  0  0
  -27.5832  -18.5685   18.3825 H   0  0  0  0  0  0
  -28.4927  -17.1060   18.0639 H   0  0  0  0  0  0
  -31.7930  -17.8445   23.0698 H   0  0  0  0  0  0
  -30.8961  -16.3294   22.8517 H   0  0  0  0  0  0
  -30.1472  -17.6751   23.7199 H   0  0  0  0  0  0
  -28.6475  -24.8819   21.6621 H   0  0  0  0  0  0
  -27.0710  -24.7725   20.9486 H   0  0  0  0  0  0
  -28.7339  -15.5907   20.2109 H   0  0  0  0  0  0
  1 25  1  0  0  0
  1 30  2  0  0  0
  1 82  1  0  0  0
  2  3  1  0  0  0
  2 25  1  0  0  0
  2 84  1  0  0  0
  2 85  1  0  0  0
  3  4  1  0  0  0
  3 86  1  0  0  0
  3 87  1  0  0  0
  4  5  1  0  0  0
  4 88  1  0  0  0
  4 89  1  0  0  0
  5  6  1  0  0  0
  5 26  1  0  0  0
  5 90  1  0  0  0
  6 25  1  0  0  0
  6 91  1  0  0  0
  6 92  1  0  0  0
  7  8  2  0  0  0
  7 26  1  0  0  0
  7 29  1  0  0  0
  8  9  1  0  0  0
  8 22  1  0  0  0
  9 10  1  0  0  0
  9 27  2  0  0  0
 10 11  2  0  0  0
 10 15  1  0  0  0
 11 12  1  0  0  0
 11 93  1  0  0  0
 12 13  2  0  0  0
 12 94  1  0  0  0
 13 14  1  0  0  0
 13 31  1  0  0  0
 14 15  2  0  0  0
 14 95  1  0  0  0
 15 96  1  0  0  0
 16 17  2  0  0  0
 16 21  1  0  0  0
 16 31  1  0  0  0
 17 18  1  0  0  0
 17 97  1  0  0  0
 18 19  2  0  0  0
 18 98  1  0  0  0
 19 20  1  0  0  0
 19 24  1  0  0  0
 20 21  2  0  0  0
 20 99  1  0  0  0
 21 23  1  0  0  0
 22 28  1  0  0  0
 22 32  2  0  0  0
 26 27  1  0  0  0
 28100  1  0  0  0
 28101  1  0  0  0
 29102  1  0  0  0
 29103  1  0  0  0
 33 34  1  0  0  0
 33 66  1  0  0  0
 33 70  2  0  0  0
 34 36  1  0  0  0
 34 59  1  0  0  0
 34104  1  0  0  0
 35 44  2  0  0  0
 35 45  1  0  0  0
 35 68  1  0  0  0
 36 56  1  0  0  0
 36105  1  0  0  0
 37 39  1  0  0  0
 37 47  1  0  0  0
 37 66  1  0  0  0
 37106  1  0  0  0
 38 43  2  0  0  0
 38 46  1  0  0  0
 38 47  1  0  0  0
 39 64  1  0  0  0
 39 67  2  0  0  0
 40 52  1  0  0  0
 40 53  2  0  0  0
 40 58  1  0  0  0
 41107  1  0  0  0
 41108  1  0  0  0
 41109  1  0  0  0
 41 48  1  0  0  0
 42 43  1  0  0  0
 42 66  1  0  0  0
 42110  1  0  0  0
 42111  1  0  0  0
 43 44  1  0  0  0
 44112  1  0  0  0
 45 46  2  0  0  0
 45113  1  0  0  0
 46114  1  0  0  0
 47115  1  0  0  0
 47116  1  0  0  0
 48 56  1  0  0  0
 48 65  1  0  0  0
 48117  1  0  0  0
 49 50  1  0  0  0
 49 53  1  0  0  0
 49 64  1  0  0  0
 49118  1  0  0  0
 50 51  1  0  0  0
 50119  1  0  0  0
 50120  1  0  0  0
 51 52  1  0  0  0
 51121  1  0  0  0
 51122  1  0  0  0
 52123  1  0  0  0
 52124  1  0  0  0
 53 54  1  0  0  0
 54 55  2  0  0  0
 54125  1  0  0  0
 55 57  1  0  0  0
 55126  1  0  0  0
 56 69  2  0  0  0
 57 58  2  0  0  0
 57127  1  0  0  0
 58128  1  0  0  0
 59 60  1  0  0  0
 59 61  1  0  0  0
 59 62  1  0  0  0
 60129  1  0  0  0
 60130  1  0  0  0
 60131  1  0  0  0
 61132  1  0  0  0
 61133  1  0  0  0
 61134  1  0  0  0
 62135  1  0  0  0
 62136  1  0  0  0
 62137  1  0  0  0
 63 65  1  0  0  0
 63138  1  0  0  0
 63139  1  0  0  0
 63140  1  0  0  0
 64141  1  0  0  0
 65142  1  0  0  0
 68 79  1  0  0  0
 71 72  1  0  0  0
 71 73  2  0  0  0
 71 77  1  0  0  0
 72 74  1  0  0  0
 72 80  2  0  0  0
 73 81  1  0  0  0
 73 82  1  0  0  0
 74 75  2  0  0  0
 74143  1  0  0  0
 75 76  1  0  0  0
 75144  1  0  0  0
 76 79  1  0  0  0
 76 83  2  0  0  0
 77145  1  0  0  0
 77146  1  0  0  0
 77147  1  0  0  0
 78 81  1  0  0  0
 78148  1  0  0  0
 78149  1  0  0  0
 78150  1  0  0  0
 79151  1  0  0  0
 79152  1  0  0  0
 80 81  1  0  0  0
 82153  1  0  0  0
M  ISO  4   1 100  68 101  79 101  82 100
M  END
> <chiral flag>
0

> <version>
0

> <s_m_source_file>
/data/baiqing/PycharmProjects/Reinvent-master-3.2/result/LINK_invent/BTK/process_docking_weight1_custom_product_contain_oxygen_bond_distance_aromatic_linkinvent_7_9_3/rearranged_h_0113.sdf

> <i_m_source_file_index>
15

> <r_mmod_Potential_Energy-OPLS-2005>
100.900421142578

> <r_mmod_Stretch_Energy-OPLS-2005>
135.92707824707

> <r_mmod_Bend_Energy-OPLS-2005>
178.888549804688

> <r_mmod_Torsional_Energy-OPLS-2005>
255.221557617188

> <r_mmod_Improper_Torsional_Energy-OPLS-2005>
10.5892105102539

> <r_mmod_Van_der_Waal_Energy-OPLS-2005>
103.620300292969

> <r_mmod_Electrostatic_Energy-OPLS-2005>
-457.100555419922

> <r_mmod_Solvation_Energy-OPLS-2005>
-238.248321533203

> <b_mmod_Minimization_Converged-OPLS-2005>
0

> <r_mmod_RMS_Derivative-OPLS-2005>
3.78056073188782

$$$$
15
                    3D
 Structure written by MMmdl.
171179  0  0  1  0            999 V2000
  -30.5892  -14.6165   20.5517 C   0  0  0  0  0  0
  -30.4547  -12.3897   19.4518 C   0  0  0  0  0  0
  -29.5152  -12.5271   18.2291 C   0  0  0  0  0  0
  -28.0360  -12.3613   18.6384 C   0  0  0  0  0  0
  -27.6591  -13.2080   19.8836 C   0  0  2  0  0  0
  -28.7009  -13.0076   21.0074 C   0  0  0  0  0  0
  -25.2540  -13.8055   20.5707 C   0  0  0  0  0  0
  -24.1778  -13.0355   20.9114 C   0  0  0  0  0  0
  -24.6370  -11.6847   20.8698 C   0  0  0  0  0  0
  -23.9046  -10.4250   21.0400 C   0  0  0  0  0  0
  -24.3594   -9.4181   21.9190 C   0  0  0  0  0  0
  -23.6259   -8.2229   22.0772 C   0  0  0  0  0  0
  -22.4244   -8.0271   21.3549 C   0  0  0  0  0  0
  -21.9872   -9.0251   20.4658 C   0  0  0  0  0  0
  -22.7215  -10.2113   20.3060 C   0  0  0  0  0  0
  -21.6843   -6.0729   22.5282 C   0  0  0  0  0  0
  -21.4019   -6.5633   23.8223 C   0  0  0  0  0  0
  -21.3661   -5.6787   24.9182 C   0  0  0  0  0  0
  -21.6029   -4.3051   24.7239 C   0  0  0  0  0  0
  -21.8804   -3.8145   23.4359 C   0  0  0  0  0  0
  -21.9199   -4.6961   22.3414 C   0  0  0  0  0  0
  -22.7826  -13.5207   21.1822 C   0  0  0  0  0  0
  -22.1645   -4.2151   21.0994 F   0  0  0  0  0  0
  -21.5637   -3.4536   25.7757 F   0  0  0  0  0  0
  -30.0249  -13.3718   20.4679 N   0  0  0  0  0  0
  -26.3012  -12.9272   20.3415 N   0  0  0  0  0  0
  -25.9312  -11.6429   20.5765 N   0  0  0  0  0  0
  -22.0439  -12.8253   22.0393 N   0  0  0  0  0  0
  -25.4176  -15.1745   20.4292 N   0  0  0  0  0  0
  -31.7164  -14.8579   20.1064 O   0  0  0  0  0  0
  -21.6615   -6.8862   21.4237 O   0  0  0  0  0  0
  -22.3529  -14.5543   20.6709 O   0  0  0  0  0  0
  -24.6223  -31.8672   23.2050 C   0  0  0  0  0  0
  -25.9088  -32.4839   23.8372 C   0  0  1  0  0  0
  -27.2472  -27.3619   20.1045 C   0  0  0  0  0  0
  -25.5916  -33.8627   24.2319 N   0  0  0  0  0  0
  -23.4150  -30.4894   21.5454 C   0  0  2  0  0  0
  -24.8683  -28.9481   20.1095 C   0  0  0  0  0  0
  -22.7459  -29.4691   22.4948 C   0  0  0  0  0  0
  -18.0271  -28.1437   22.8481 C   0  0  0  0  0  0
  -24.1469  -36.7303   23.2635 C   0  0  0  0  0  0
  -25.9505  -30.8075   21.3714 C   0  0  0  0  0  0
  -26.0310  -29.4359   20.7188 C   0  0  0  0  0  0
  -27.2197  -28.6508   20.7147 C   0  0  0  0  0  0
  -26.0645  -26.9284   19.4585 C   0  0  0  0  0  0
  -24.8857  -27.6977   19.4716 C   0  0  0  0  0  0
  -23.6309  -29.8199   20.1620 C   0  0  0  0  0  0
  -25.4108  -36.3132   24.0324 C   0  0  1  0  0  0
  -20.5865  -28.3754   23.1269 C   0  0  2  0  0  0
  -20.6754  -26.9470   22.5416 C   0  0  0  0  0  0
  -19.5736  -26.6446   21.5201 C   0  0  0  0  0  0
  -18.1918  -26.7982   22.1615 C   0  0  0  0  0  0
  -19.1523  -28.8907   23.2872 C   0  0  0  0  0  0
  -18.9451  -30.1482   23.8933 C   0  0  0  0  0  0
  -17.6455  -30.6636   24.0587 C   0  0  0  0  0  0
  -25.9045  -34.9490   23.5130 C   0  0  0  0  0  0
  -16.5347  -29.9155   23.6329 C   0  0  0  0  0  0
  -16.7258  -28.6567   23.0371 C   0  0  0  0  0  0
  -26.4476  -31.6634   25.0737 C   0  0  0  0  0  0
  -25.3731  -31.3713   26.1482 C   0  0  0  0  0  0
  -27.0282  -30.3067   24.6124 C   0  0  0  0  0  0
  -27.6096  -32.4349   25.7473 C   0  0  0  0  0  0
  -27.5579  -37.1811   24.8478 C   0  0  0  0  0  0
  -21.4186  -29.3106   22.3684 N   0  0  0  0  0  0
  -26.4299  -37.3817   23.9416 N   0  0  0  0  0  0
  -24.6818  -31.0695   22.1003 N   0  0  0  0  0  0
  -23.4176  -28.8233   23.3038 O   0  0  0  0  0  0
  -28.3854  -26.5484   20.1625 O   0  0  0  0  0  0
  -26.5620  -34.8963   22.4687 O   0  0  0  0  0  0
  -23.5409  -32.1441   23.7409 O   0  0  0  0  0  0
  -28.3531  -19.7879   20.1067 C   0  0  0  0  0  0
  -30.6075  -17.9067   20.7076 C   0  0  0  0  0  0
  -27.6980  -18.6074   20.2090 C   0  0  0  0  0  0
  -29.6066  -16.9868   20.8232 C   0  0  0  0  0  0
  -29.6029  -20.1743   20.4752 C   0  0  0  0  0  0
  -30.6173  -19.2808   20.7057 C   0  0  0  0  0  0
  -28.2498  -17.5264   21.0804 C   0  0  0  0  0  0
  -25.7263  -19.1517   18.9242 C   0  0  0  0  0  0
  -26.6271  -18.2932   19.4380 C   0  0  0  0  0  0
  -25.9561  -16.9939   23.8779 C   0  0  0  0  0  0
  -33.5028  -20.4435   22.5996 C   0  0  0  0  0  0
  -29.2869  -24.0937   20.4799 C   0  0  0  0  0  0
  -26.3670  -17.6272   22.5439 C   0  0  0  0  0  0
  -32.0215  -20.1555   22.3547 C   0  0  0  0  0  0
  -28.2317  -25.1130   19.8919 C   0  0  0  0  0  0
  -28.9199  -22.5730   20.2389 C   0  0  0  0  0  0
  -27.6027  -17.0191   22.0658 N   0  0  0  0  0  0
  -29.7227  -15.5702   20.9869 N   0  0  0  0  0  0
  -29.9257  -21.5499   20.5377 O   0  0  0  0  0  0
  -31.8397  -19.8334   20.9799 O   0  0  0  0  0  0
  -31.4956  -12.5370   19.1549 H   0  0  0  0  0  0
  -30.4128  -11.3805   19.8602 H   0  0  0  0  0  0
  -29.7735  -11.7926   17.4666 H   0  0  0  0  0  0
  -29.6600  -13.5061   17.7694 H   0  0  0  0  0  0
  -27.8632  -11.3032   18.8402 H   0  0  0  0  0  0
  -27.3840  -12.6182   17.8057 H   0  0  0  0  0  0
  -27.6833  -14.2513   19.5716 H   0  0  0  0  0  0
  -28.7114  -11.9671   21.3349 H   0  0  0  0  0  0
  -28.4390  -13.5849   21.8956 H   0  0  0  0  0  0
  -25.2741   -9.5665   22.4748 H   0  0  0  0  0  0
  -23.9983   -7.4611   22.7492 H   0  0  0  0  0  0
  -21.0804   -8.8757   19.8969 H   0  0  0  0  0  0
  -22.3681  -10.9636   19.6158 H   0  0  0  0  0  0
  -21.2001   -7.6152   23.9724 H   0  0  0  0  0  0
  -21.1484   -6.0526   25.9078 H   0  0  0  0  0  0
  -22.0588   -2.7616   23.2862 H   0  0  0  0  0  0
  -22.3990  -11.9885   22.4777 H   0  0  0  0  0  0
  -21.1078  -13.1338   22.2598 H   0  0  0  0  0  0
  -24.6315  -15.7673   20.6676 H   0  0  0  0  0  0
  -26.3054  -15.6070   20.6566 H   0  0  0  0  0  0
  -26.7178  -32.5548   23.1158 H   0  0  0  0  0  0
  -25.0058  -33.9776   25.0453 H   0  0  0  0  0  0
  -22.7055  -31.3067   21.3988 H   0  0  0  0  0  0
  -23.3778  -35.9602   23.3335 H   0  0  0  0  0  0
  -24.3526  -36.8884   22.2043 H   0  0  0  0  0  0
  -23.7183  -37.6493   23.6633 H   0  0  0  0  0  0
  -26.0590  -31.5691   20.5980 H   0  0  0  0  0  0
  -26.8379  -30.8726   21.9875 H   0  0  0  0  0  0
  -28.1106  -29.0175   21.2067 H   0  0  0  0  0  0
  -26.0270  -25.9857   18.9342 H   0  0  0  0  0  0
  -24.0004  -27.3182   18.9796 H   0  0  0  0  0  0
  -23.7453  -30.5957   19.4048 H   0  0  0  0  0  0
  -22.7526  -29.2428   19.8649 H   0  0  0  0  0  0
  -25.1281  -36.1996   25.0823 H   0  0  0  0  0  0
  -20.9922  -28.3371   24.1400 H   0  0  0  0  0  0
  -20.5641  -26.2382   23.3636 H   0  0  0  0  0  0
  -21.6630  -26.7534   22.1200 H   0  0  0  0  0  0
  -19.6902  -25.6358   21.1249 H   0  0  0  0  0  0
  -19.6674  -27.3242   20.6712 H   0  0  0  0  0  0
  -17.4164  -26.6720   21.4051 H   0  0  0  0  0  0
  -18.0351  -26.0139   22.9033 H   0  0  0  0  0  0
  -19.7934  -30.7275   24.2370 H   0  0  0  0  0  0
  -17.5031  -31.6318   24.5196 H   0  0  0  0  0  0
  -15.5357  -30.3082   23.7656 H   0  0  0  0  0  0
  -15.8644  -28.0899   22.7100 H   0  0  0  0  0  0
  -24.5960  -30.6989   25.7814 H   0  0  0  0  0  0
  -24.8853  -32.2842   26.4936 H   0  0  0  0  0  0
  -25.8106  -30.8912   27.0249 H   0  0  0  0  0  0
  -26.2793  -29.6852   24.1226 H   0  0  0  0  0  0
  -27.4049  -29.7311   25.4590 H   0  0  0  0  0  0
  -27.8643  -30.4345   23.9243 H   0  0  0  0  0  0
  -27.2778  -33.3687   26.2020 H   0  0  0  0  0  0
  -28.3909  -32.6851   25.0285 H   0  0  0  0  0  0
  -28.0754  -31.8486   26.5392 H   0  0  0  0  0  0
  -28.2645  -38.0069   24.7531 H   0  0  0  0  0  0
  -28.1018  -36.2610   24.6310 H   0  0  0  0  0  0
  -27.2278  -37.1462   25.8873 H   0  0  0  0  0  0
  -20.9383  -29.8803   21.6871 H   0  0  0  0  0  0
  -26.0200  -38.2895   24.1477 H   0  0  0  0  0  0
  -27.8767  -20.4759   19.4327 H   0  0  0  0  0  0
  -31.5940  -17.4735   20.7670 H   0  0  0  0  0  0
  -24.9143  -18.7798   18.3142 H   0  0  0  0  0  0
  -25.7578  -20.2166   19.0969 H   0  0  0  0  0  0
  -26.4684  -17.2505   19.2029 H   0  0  0  0  0  0
  -25.0385  -17.4512   24.2521 H   0  0  0  0  0  0
  -26.7227  -17.1292   24.6429 H   0  0  0  0  0  0
  -25.7716  -15.9232   23.7772 H   0  0  0  0  0  0
  -33.8480  -21.2605   21.9698 H   0  0  0  0  0  0
  -34.1081  -19.5645   22.3753 H   0  0  0  0  0  0
  -33.6818  -20.7282   23.6361 H   0  0  0  0  0  0
  -29.3872  -24.2645   21.5520 H   0  0  0  0  0  0
  -30.2678  -24.3037   20.0532 H   0  0  0  0  0  0
  -26.4911  -18.7040   22.6913 H   0  0  0  0  0  0
  -25.5566  -17.4946   21.8267 H   0  0  0  0  0  0
  -31.4249  -21.0264   22.6277 H   0  0  0  0  0  0
  -31.6989  -19.3316   22.9926 H   0  0  0  0  0  0
  -27.2665  -24.7775   20.2692 H   0  0  0  0  0  0
  -28.2057  -24.9822   18.8082 H   0  0  0  0  0  0
  -28.6443  -22.4712   19.1876 H   0  0  0  0  0  0
  -28.0254  -22.3589   20.8225 H   0  0  0  0  0  0
  -28.8691  -15.1845   21.3665 H   0  0  0  0  0  0
  1 25  1  0  0  0
  1 30  2  0  0  0
  1 88  1  0  0  0
  2  3  1  0  0  0
  2 25  1  0  0  0
  2 91  1  0  0  0
  2 92  1  0  0  0
  3  4  1  0  0  0
  3 93  1  0  0  0
  3 94  1  0  0  0
  4  5  1  0  0  0
  4 95  1  0  0  0
  4 96  1  0  0  0
  5  6  1  0  0  0
  5 26  1  0  0  0
  5 97  1  0  0  0
  6 25  1  0  0  0
  6 98  1  0  0  0
  6 99  1  0  0  0
  7  8  2  0  0  0
  7 26  1  0  0  0
  7 29  1  0  0  0
  8  9  1  0  0  0
  8 22  1  0  0  0
  9 10  1  0  0  0
  9 27  2  0  0  0
 10 11  2  0  0  0
 10 15  1  0  0  0
 11 12  1  0  0  0
 11100  1  0  0  0
 12 13  2  0  0  0
 12101  1  0  0  0
 13 14  1  0  0  0
 13 31  1  0  0  0
 14 15  2  0  0  0
 14102  1  0  0  0
 15103  1  0  0  0
 16 17  2  0  0  0
 16 21  1  0  0  0
 16 31  1  0  0  0
 17 18  1  0  0  0
 17104  1  0  0  0
 18 19  2  0  0  0
 18105  1  0  0  0
 19 20  1  0  0  0
 19 24  1  0  0  0
 20 21  2  0  0  0
 20106  1  0  0  0
 21 23  1  0  0  0
 22 28  1  0  0  0
 22 32  2  0  0  0
 26 27  1  0  0  0
 28107  1  0  0  0
 28108  1  0  0  0
 29109  1  0  0  0
 29110  1  0  0  0
 33 34  1  0  0  0
 33 66  1  0  0  0
 33 70  2  0  0  0
 34 36  1  0  0  0
 34 59  1  0  0  0
 34111  1  0  0  0
 35 44  2  0  0  0
 35 45  1  0  0  0
 35 68  1  0  0  0
 36 56  1  0  0  0
 36112  1  0  0  0
 37 39  1  0  0  0
 37 47  1  0  0  0
 37 66  1  0  0  0
 37113  1  0  0  0
 38 43  2  0  0  0
 38 46  1  0  0  0
 38 47  1  0  0  0
 39 64  1  0  0  0
 39 67  2  0  0  0
 40 52  1  0  0  0
 40 53  2  0  0  0
 40 58  1  0  0  0
 41114  1  0  0  0
 41115  1  0  0  0
 41116  1  0  0  0
 41 48  1  0  0  0
 42 43  1  0  0  0
 42 66  1  0  0  0
 42117  1  0  0  0
 42118  1  0  0  0
 43 44  1  0  0  0
 44119  1  0  0  0
 45 46  2  0  0  0
 45120  1  0  0  0
 46121  1  0  0  0
 47122  1  0  0  0
 47123  1  0  0  0
 48 56  1  0  0  0
 48 65  1  0  0  0
 48124  1  0  0  0
 49 50  1  0  0  0
 49 53  1  0  0  0
 49 64  1  0  0  0
 49125  1  0  0  0
 50 51  1  0  0  0
 50126  1  0  0  0
 50127  1  0  0  0
 51 52  1  0  0  0
 51128  1  0  0  0
 51129  1  0  0  0
 52130  1  0  0  0
 52131  1  0  0  0
 53 54  1  0  0  0
 54 55  2  0  0  0
 54132  1  0  0  0
 55 57  1  0  0  0
 55133  1  0  0  0
 56 69  2  0  0  0
 57 58  2  0  0  0
 57134  1  0  0  0
 58135  1  0  0  0
 59 60  1  0  0  0
 59 61  1  0  0  0
 59 62  1  0  0  0
 60136  1  0  0  0
 60137  1  0  0  0
 60138  1  0  0  0
 61139  1  0  0  0
 61140  1  0  0  0
 61141  1  0  0  0
 62142  1  0  0  0
 62143  1  0  0  0
 62144  1  0  0  0
 63 65  1  0  0  0
 63145  1  0  0  0
 63146  1  0  0  0
 63147  1  0  0  0
 64148  1  0  0  0
 65149  1  0  0  0
 68 85  1  0  0  0
 71 73  2  0  0  0
 71 75  1  0  0  0
 71150  1  0  0  0
 72 74  2  0  0  0
 72 76  1  0  0  0
 72151  1  0  0  0
 73 77  1  0  0  0
 73 79  1  0  0  0
 74 77  1  0  0  0
 74 88  1  0  0  0
 75 76  2  0  0  0
 75 89  1  0  0  0
 76 90  1  0  0  0
 77 87  2  0  0  0
 78 79  2  0  0  0
 78152  1  0  0  0
 78153  1  0  0  0
 79154  1  0  0  0
 80 83  1  0  0  0
 80155  1  0  0  0
 80156  1  0  0  0
 80157  1  0  0  0
 81 84  1  0  0  0
 81158  1  0  0  0
 81159  1  0  0  0
 81160  1  0  0  0
 82 85  1  0  0  0
 82 86  1  0  0  0
 82161  1  0  0  0
 82162  1  0  0  0
 83 87  1  0  0  0
 83163  1  0  0  0
 83164  1  0  0  0
 84 90  1  0  0  0
 84165  1  0  0  0
 84166  1  0  0  0
 85167  1  0  0  0
 85168  1  0  0  0
 86 89  1  0  0  0
 86169  1  0  0  0
 86170  1  0  0  0
 88171  1  0  0  0
M  ISO  4   1 100  68 101  85 101  88 100
M  END
> <chiral flag>
0

> <version>
0

> <s_m_source_file>
/data/baiqing/PycharmProjects/Reinvent-master-3.2/result/LINK_invent/BTK/process_docking_weight1_custom_product_contain_oxygen_bond_distance_aromatic_linkinvent_7_9_3/rearranged_h_0113.sdf

> <i_m_source_file_index>
16

> <r_mmod_Potential_Energy-OPLS-2005>
30.6282558441162

> <r_mmod_Stretch_Energy-OPLS-2005>
73.7314910888672

> <r_mmod_Bend_Energy-OPLS-2005>
164.210647583008

> <r_mmod_Torsional_Energy-OPLS-2005>
241.101303100586

> <r_mmod_Improper_Torsional_Energy-OPLS-2005>
9.10585308074951

> <r_mmod_Van_der_Waal_Energy-OPLS-2005>
163.648529052734

> <r_mmod_Electrostatic_Energy-OPLS-2005>
-456.089324951172

> <r_mmod_Solvation_Energy-OPLS-2005>
-203.771484375

> <b_mmod_Minimization_Converged-OPLS-2005>
0

> <r_mmod_RMS_Derivative-OPLS-2005>
4.9004430770874

$$$$
16
                    3D
 Structure written by MMmdl.
149157  0  0  1  0            999 V2000
  -30.3948  -15.3494   20.3387 C   0  0  0  0  0  0
  -30.4257  -12.8753   19.4580 C   0  0  0  0  0  0
  -29.5070  -12.5590   18.2509 C   0  0  0  0  0  0
  -28.0986  -12.2139   18.7572 C   0  0  0  0  0  0
  -27.6007  -13.2504   19.7925 C   0  0  2  0  0  0
  -28.6343  -13.5163   20.9026 C   0  0  0  0  0  0
  -25.2411  -13.8147   20.5614 C   0  0  0  0  0  0
  -24.1752  -13.0434   20.9125 C   0  0  0  0  0  0
  -24.6357  -11.6890   20.8743 C   0  0  0  0  0  0
  -23.9037  -10.4281   21.0434 C   0  0  0  0  0  0
  -24.3604   -9.4181   21.9212 C   0  0  0  0  0  0
  -23.6254   -8.2227   22.0784 C   0  0  0  0  0  0
  -22.4216   -8.0311   21.3576 C   0  0  0  0  0  0
  -21.9853   -9.0267   20.4647 C   0  0  0  0  0  0
  -22.7207  -10.2128   20.3063 C   0  0  0  0  0  0
  -21.6828   -6.0718   22.5286 C   0  0  0  0  0  0
  -21.3997   -6.5633   23.8214 C   0  0  0  0  0  0
  -21.3653   -5.6798   24.9188 C   0  0  0  0  0  0
  -21.6051   -4.3055   24.7248 C   0  0  0  0  0  0
  -21.8826   -3.8132   23.4373 C   0  0  0  0  0  0
  -21.9181   -4.6939   22.3421 C   0  0  0  0  0  0
  -22.7768  -13.5176   21.1898 C   0  0  0  0  0  0
  -22.1670   -4.2108   21.1012 F   0  0  0  0  0  0
  -21.5621   -3.4560   25.7784 F   0  0  0  0  0  0
  -29.8319  -14.0411   20.2209 N   0  0  0  0  0  0
  -26.2813  -12.9386   20.3124 N   0  0  0  0  0  0
  -25.9281  -11.6518   20.5676 N   0  0  0  0  0  0
  -22.0413  -12.8130   22.0422 N   0  0  0  0  0  0
  -25.4120  -15.1884   20.3952 N   0  0  0  0  0  0
  -31.6374  -15.3110   20.3018 O   0  0  0  0  0  0
  -21.6631   -6.8877   21.4257 O   0  0  0  0  0  0
  -22.3455  -14.5539   20.6823 O   0  0  0  0  0  0
  -24.6653  -31.8193   23.1675 C   0  0  0  0  0  0
  -25.9267  -32.4591   23.8190 C   0  0  1  0  0  0
  -27.2431  -26.8981   20.1777 C   0  0  0  0  0  0
  -25.5894  -33.8417   24.2053 N   0  0  0  0  0  0
  -23.4897  -30.4233   21.5174 C   0  0  2  0  0  0
  -24.9484  -28.8050   20.1228 C   0  0  0  0  0  0
  -22.7662  -29.4397   22.4741 C   0  0  0  0  0  0
  -18.0332  -28.1439   22.8351 C   0  0  0  0  0  0
  -24.1474  -36.7193   23.2653 C   0  0  0  0  0  0
  -26.0649  -30.6208   21.4045 C   0  0  0  0  0  0
  -26.1410  -29.2094   20.7384 C   0  0  0  0  0  0
  -27.2860  -28.2823   20.7281 C   0  0  0  0  0  0
  -26.0114  -26.6536   19.5299 C   0  0  0  0  0  0
  -24.9087  -27.5434   19.5133 C   0  0  0  0  0  0
  -23.7345  -29.7311   20.1519 C   0  0  0  0  0  0
  -25.4119  -36.2974   24.0294 C   0  0  1  0  0  0
  -20.5943  -28.3799   23.1218 C   0  0  2  0  0  0
  -20.6792  -26.9416   22.5563 C   0  0  0  0  0  0
  -19.5904  -26.6367   21.5201 C   0  0  0  0  0  0
  -18.1998  -26.8050   22.1388 C   0  0  0  0  0  0
  -19.1575  -28.8914   23.2799 C   0  0  0  0  0  0
  -18.9413  -30.1467   23.8879 C   0  0  0  0  0  0
  -17.6413  -30.6597   24.0519 C   0  0  0  0  0  0
  -25.9087  -34.9348   23.5011 C   0  0  0  0  0  0
  -16.5313  -29.9090   23.6272 C   0  0  0  0  0  0
  -16.7309  -28.6538   23.0255 C   0  0  0  0  0  0
  -26.4477  -31.6619   25.0788 C   0  0  0  0  0  0
  -25.3572  -31.3946   26.1457 C   0  0  0  0  0  0
  -27.0394  -30.2956   24.6671 C   0  0  0  0  0  0
  -27.5953  -32.4489   25.7580 C   0  0  0  0  0  0
  -27.5552  -37.1746   24.8453 C   0  0  0  0  0  0
  -21.4331  -29.3071   22.3513 N   0  0  0  0  0  0
  -26.4264  -37.3700   23.9379 N   0  0  0  0  0  0
  -24.7617  -30.9830   22.0814 N   0  0  0  0  0  0
  -23.4186  -28.7944   23.2995 O   0  0  0  0  0  0
  -28.2297  -25.7597   20.2461 O   0  0  0  0  0  0
  -26.5763  -34.8877   22.4648 O   0  0  0  0  0  0
  -23.5701  -32.1114   23.6784 O   0  0  0  0  0  0
  -29.9040  -20.1221   22.0930 C   0  0  0  0  0  0
  -30.2623  -17.9067   22.1138 C   0  0  0  0  0  0
  -29.4537  -19.7364   20.8498 C   0  0  0  0  0  0
  -29.7768  -18.1397   20.8581 C   0  0  0  0  0  0
  -28.8070  -21.1708   20.1444 C   0  0  0  0  0  0
  -28.7641  -22.6293   20.5000 C   0  0  0  0  0  0
  -30.7235  -19.0573   24.2410 C   0  0  0  0  0  0
  -27.9275  -24.1310   20.0457 C   0  0  0  0  0  0
  -30.3103  -19.0484   22.8540 N   0  0  0  0  0  0
  -29.6651  -16.6626   20.1940 N   0  0  0  0  0  0
  -31.4171  -13.1212   19.0822 H   0  0  0  0  0  0
  -30.5560  -11.9914   20.0906 H   0  0  0  0  0  0
  -29.8900  -11.7188   17.6727 H   0  0  0  0  0  0
  -29.4645  -13.4163   17.5730 H   0  0  0  0  0  0
  -28.1727  -11.2348   19.2396 H   0  0  0  0  0  0
  -27.3989  -12.0715   17.9319 H   0  0  0  0  0  0
  -27.4993  -14.1821   19.2338 H   0  0  0  0  0  0
  -28.8267  -12.6240   21.5014 H   0  0  0  0  0  0
  -28.2423  -14.2688   21.5893 H   0  0  0  0  0  0
  -25.2781   -9.5632   22.4772 H   0  0  0  0  0  0
  -24.0004   -7.4586   22.7468 H   0  0  0  0  0  0
  -21.0807   -8.8758   19.8905 H   0  0  0  0  0  0
  -22.3712  -10.9689   19.6169 H   0  0  0  0  0  0
  -21.1993   -7.6143   23.9683 H   0  0  0  0  0  0
  -21.1463   -6.0554   25.9084 H   0  0  0  0  0  0
  -22.0598   -2.7591   23.2878 H   0  0  0  0  0  0
  -22.4052  -11.9819   22.4881 H   0  0  0  0  0  0
  -21.1063  -13.1208   22.2741 H   0  0  0  0  0  0
  -24.6213  -15.8231   20.3607 H   0  0  0  0  0  0
  -26.2725  -15.6020   20.0634 H   0  0  0  0  0  0
  -26.7403  -32.5113   23.0989 H   0  0  0  0  0  0
  -24.9865  -33.9520   25.0080 H   0  0  0  0  0  0
  -22.8017  -31.2521   21.3337 H   0  0  0  0  0  0
  -23.3755  -35.9506   23.3307 H   0  0  0  0  0  0
  -24.3579  -36.8853   22.2072 H   0  0  0  0  0  0
  -23.7205  -37.6361   23.6728 H   0  0  0  0  0  0
  -26.2674  -31.3753   20.6439 H   0  0  0  0  0  0
  -26.9145  -30.6668   22.0755 H   0  0  0  0  0  0
  -28.1916  -28.5996   21.2285 H   0  0  0  0  0  0
  -25.8650  -25.6868   19.0746 H   0  0  0  0  0  0
  -23.9915  -27.2048   19.0546 H   0  0  0  0  0  0
  -23.8859  -30.4919   19.3844 H   0  0  0  0  0  0
  -22.8469  -29.1776   19.8455 H   0  0  0  0  0  0
  -25.1334  -36.1790   25.0784 H   0  0  0  0  0  0
  -20.9981  -28.3484   24.1367 H   0  0  0  0  0  0
  -20.5424  -26.2381   23.3791 H   0  0  0  0  0  0
  -21.6744  -26.7307   22.1629 H   0  0  0  0  0  0
  -19.7087  -25.6314   21.1170 H   0  0  0  0  0  0
  -19.6980  -27.3151   20.6750 H   0  0  0  0  0  0
  -17.4383  -26.6965   21.3644 H   0  0  0  0  0  0
  -18.0269  -26.0116   22.8670 H   0  0  0  0  0  0
  -19.7856  -30.7261   24.2332 H   0  0  0  0  0  0
  -17.4933  -31.6278   24.5115 H   0  0  0  0  0  0
  -15.5289  -30.2934   23.7571 H   0  0  0  0  0  0
  -15.8694  -28.0884   22.7005 H   0  0  0  0  0  0
  -24.5711  -30.7361   25.7752 H   0  0  0  0  0  0
  -24.8831  -32.3200   26.4748 H   0  0  0  0  0  0
  -25.7757  -30.9174   27.0337 H   0  0  0  0  0  0
  -26.3122  -29.6654   24.1567 H   0  0  0  0  0  0
  -27.3665  -29.7373   25.5450 H   0  0  0  0  0  0
  -27.9163  -30.4065   24.0305 H   0  0  0  0  0  0
  -27.2433  -33.3779   26.2098 H   0  0  0  0  0  0
  -28.3756  -32.7116   25.0418 H   0  0  0  0  0  0
  -28.0655  -31.8719   26.5560 H   0  0  0  0  0  0
  -28.2563  -38.0045   24.7505 H   0  0  0  0  0  0
  -28.1053  -36.2580   24.6287 H   0  0  0  0  0  0
  -27.2291  -37.1399   25.8864 H   0  0  0  0  0  0
  -20.9567  -29.8789   21.6653 H   0  0  0  0  0  0
  -26.0120  -38.2755   24.1421 H   0  0  0  0  0  0
  -29.9286  -21.0962   22.5637 H   0  0  0  0  0  0
  -30.5298  -16.9834   22.6087 H   0  0  0  0  0  0
  -28.2165  -20.9378   19.2696 H   0  0  0  0  0  0
  -29.3576  -22.8467   21.3755 H   0  0  0  0  0  0
  -30.2733  -18.1989   24.7479 H   0  0  0  0  0  0
  -30.3964  -19.9706   24.7399 H   0  0  0  0  0  0
  -31.8081  -18.9632   24.2971 H   0  0  0  0  0  0
  -27.0616  -24.0654   20.7075 H   0  0  0  0  0  0
  -27.5235  -24.0014   19.0408 H   0  0  0  0  0  0
  -28.7799  -16.5239   19.7241 H   0  0  0  0  0  0
  1 25  1  0  0  0
  1 30  2  0  0  0
  1 80  1  0  0  0
  2  3  1  0  0  0
  2 25  1  0  0  0
  2 81  1  0  0  0
  2 82  1  0  0  0
  3  4  1  0  0  0
  3 83  1  0  0  0
  3 84  1  0  0  0
  4  5  1  0  0  0
  4 85  1  0  0  0
  4 86  1  0  0  0
  5  6  1  0  0  0
  5 26  1  0  0  0
  5 87  1  0  0  0
  6 25  1  0  0  0
  6 88  1  0  0  0
  6 89  1  0  0  0
  7  8  2  0  0  0
  7 26  1  0  0  0
  7 29  1  0  0  0
  8  9  1  0  0  0
  8 22  1  0  0  0
  9 10  1  0  0  0
  9 27  2  0  0  0
 10 11  2  0  0  0
 10 15  1  0  0  0
 11 12  1  0  0  0
 11 90  1  0  0  0
 12 13  2  0  0  0
 12 91  1  0  0  0
 13 14  1  0  0  0
 13 31  1  0  0  0
 14 15  2  0  0  0
 14 92  1  0  0  0
 15 93  1  0  0  0
 16 17  2  0  0  0
 16 21  1  0  0  0
 16 31  1  0  0  0
 17 18  1  0  0  0
 17 94  1  0  0  0
 18 19  2  0  0  0
 18 95  1  0  0  0
 19 20  1  0  0  0
 19 24  1  0  0  0
 20 21  2  0  0  0
 20 96  1  0  0  0
 21 23  1  0  0  0
 22 28  1  0  0  0
 22 32  2  0  0  0
 26 27  1  0  0  0
 28 97  1  0  0  0
 28 98  1  0  0  0
 29 99  1  0  0  0
 29100  1  0  0  0
 33 34  1  0  0  0
 33 66  1  0  0  0
 33 70  2  0  0  0
 34 36  1  0  0  0
 34 59  1  0  0  0
 34101  1  0  0  0
 35 44  2  0  0  0
 35 45  1  0  0  0
 35 68  1  0  0  0
 36 56  1  0  0  0
 36102  1  0  0  0
 37 39  1  0  0  0
 37 47  1  0  0  0
 37 66  1  0  0  0
 37103  1  0  0  0
 38 43  2  0  0  0
 38 46  1  0  0  0
 38 47  1  0  0  0
 39 64  1  0  0  0
 39 67  2  0  0  0
 40 52  1  0  0  0
 40 53  2  0  0  0
 40 58  1  0  0  0
 41104  1  0  0  0
 41105  1  0  0  0
 41106  1  0  0  0
 41 48  1  0  0  0
 42 43  1  0  0  0
 42 66  1  0  0  0
 42107  1  0  0  0
 42108  1  0  0  0
 43 44  1  0  0  0
 44109  1  0  0  0
 45 46  2  0  0  0
 45110  1  0  0  0
 46111  1  0  0  0
 47112  1  0  0  0
 47113  1  0  0  0
 48 56  1  0  0  0
 48 65  1  0  0  0
 48114  1  0  0  0
 49 50  1  0  0  0
 49 53  1  0  0  0
 49 64  1  0  0  0
 49115  1  0  0  0
 50 51  1  0  0  0
 50116  1  0  0  0
 50117  1  0  0  0
 51 52  1  0  0  0
 51118  1  0  0  0
 51119  1  0  0  0
 52120  1  0  0  0
 52121  1  0  0  0
 53 54  1  0  0  0
 54 55  2  0  0  0
 54122  1  0  0  0
 55 57  1  0  0  0
 55123  1  0  0  0
 56 69  2  0  0  0
 57 58  2  0  0  0
 57124  1  0  0  0
 58125  1  0  0  0
 59 60  1  0  0  0
 59 61  1  0  0  0
 59 62  1  0  0  0
 60126  1  0  0  0
 60127  1  0  0  0
 60128  1  0  0  0
 61129  1  0  0  0
 61130  1  0  0  0
 61131  1  0  0  0
 62132  1  0  0  0
 62133  1  0  0  0
 62134  1  0  0  0
 63 65  1  0  0  0
 63135  1  0  0  0
 63136  1  0  0  0
 63137  1  0  0  0
 64138  1  0  0  0
 65139  1  0  0  0
 68 78  1  0  0  0
 71 73  2  0  0  0
 71 79  1  0  0  0
 71140  1  0  0  0
 72 74  2  0  0  0
 72 79  1  0  0  0
 72141  1  0  0  0
 73 74  1  0  0  0
 73 75  1  0  0  0
 74 80  1  0  0  0
 75 76  2  0  0  0
 75142  1  0  0  0
 76 78  1  0  0  0
 76143  1  0  0  0
 77 79  1  0  0  0
 77144  1  0  0  0
 77145  1  0  0  0
 77146  1  0  0  0
 78147  1  0  0  0
 78148  1  0  0  0
 80149  1  0  0  0
M  ISO  4   1 100  68 101  78 101  80 100
M  END
> <chiral flag>
0

> <version>
0

> <s_m_source_file>
/data/baiqing/PycharmProjects/Reinvent-master-3.2/result/LINK_invent/BTK/process_docking_weight1_custom_product_contain_oxygen_bond_distance_aromatic_linkinvent_7_9_3/rearranged_h_0113.sdf

> <i_m_source_file_index>
17

> <r_mmod_Potential_Energy-OPLS-2005>
1580.74841308594

> <r_mmod_Stretch_Energy-OPLS-2005>
685.176086425781

> <r_mmod_Bend_Energy-OPLS-2005>
555.465026855469

> <r_mmod_Torsional_Energy-OPLS-2005>
248.81787109375

> <r_mmod_Improper_Torsional_Energy-OPLS-2005>
12.5313787460327

> <r_mmod_Van_der_Waal_Energy-OPLS-2005>
111.438011169434

> <r_mmod_Electrostatic_Energy-OPLS-2005>
-360.836212158203

> <r_mmod_Solvation_Energy-OPLS-2005>
-222.590347290039

> <b_mmod_Minimization_Converged-OPLS-2005>
0

> <r_mmod_RMS_Derivative-OPLS-2005>
9.40029239654541

$$$$
17
                    3D
 Structure written by MMmdl.
157165  0  0  1  0            999 V2000
  -30.4992  -15.1059   20.3967 C   0  0  0  0  0  0
  -30.4452  -12.7029   19.4992 C   0  0  0  0  0  0
  -29.5290  -12.5525   18.2627 C   0  0  0  0  0  0
  -28.0687  -12.3043   18.6847 C   0  0  0  0  0  0
  -27.6169  -13.2606   19.8176 C   0  0  2  0  0  0
  -28.6581  -13.3714   20.9497 C   0  0  0  0  0  0
  -25.2401  -13.8229   20.5675 C   0  0  0  0  0  0
  -24.1752  -13.0435   20.9224 C   0  0  0  0  0  0
  -24.6385  -11.6930   20.8736 C   0  0  0  0  0  0
  -23.9078  -10.4300   21.0396 C   0  0  0  0  0  0
  -24.3638   -9.4212   21.9170 C   0  0  0  0  0  0
  -23.6318   -8.2238   22.0731 C   0  0  0  0  0  0
  -22.4289   -8.0271   21.3531 C   0  0  0  0  0  0
  -21.9933   -9.0237   20.4624 C   0  0  0  0  0  0
  -22.7253  -10.2120   20.3039 C   0  0  0  0  0  0
  -21.6856   -6.0731   22.5281 C   0  0  0  0  0  0
  -21.4021   -6.5636   23.8216 C   0  0  0  0  0  0
  -21.3666   -5.6781   24.9177 C   0  0  0  0  0  0
  -21.6038   -4.3041   24.7220 C   0  0  0  0  0  0
  -21.8829   -3.8135   23.4340 C   0  0  0  0  0  0
  -21.9194   -4.6958   22.3401 C   0  0  0  0  0  0
  -22.7770  -13.5178   21.1888 C   0  0  0  0  0  0
  -22.1659   -4.2148   21.0983 F   0  0  0  0  0  0
  -21.5635   -3.4533   25.7735 F   0  0  0  0  0  0
  -29.9114  -13.8282   20.3315 N   0  0  0  0  0  0
  -26.2826  -12.9474   20.3153 N   0  0  0  0  0  0
  -25.9313  -11.6596   20.5686 N   0  0  0  0  0  0
  -22.0431  -12.8153   22.0444 N   0  0  0  0  0  0
  -25.4020  -15.1978   20.4103 N   0  0  0  0  0  0
  -31.7232  -15.1215   20.2119 O   0  0  0  0  0  0
  -21.6636   -6.8875   21.4242 O   0  0  0  0  0  0
  -22.3438  -14.5474   20.6720 O   0  0  0  0  0  0
  -24.6538  -31.8348   23.1791 C   0  0  0  0  0  0
  -25.9253  -32.4640   23.8237 C   0  0  1  0  0  0
  -27.2110  -27.0383   20.1745 C   0  0  0  0  0  0
  -25.5952  -33.8449   24.2135 N   0  0  0  0  0  0
  -23.4633  -30.4493   21.5288 C   0  0  2  0  0  0
  -24.9117  -28.8531   20.1223 C   0  0  0  0  0  0
  -22.7627  -29.4486   22.4845 C   0  0  0  0  0  0
  -18.0311  -28.1412   22.8470 C   0  0  0  0  0  0
  -24.1502  -36.7253   23.2644 C   0  0  0  0  0  0
  -26.0247  -30.6766   21.3924 C   0  0  0  0  0  0
  -26.0939  -29.2726   20.7477 C   0  0  0  0  0  0
  -27.2473  -28.3835   20.7538 C   0  0  0  0  0  0
  -26.0032  -26.7414   19.5119 C   0  0  0  0  0  0
  -24.8828  -27.6026   19.4885 C   0  0  0  0  0  0
  -23.6964  -29.7706   20.1532 C   0  0  0  0  0  0
  -25.4128  -36.3006   24.0312 C   0  0  1  0  0  0
  -20.5931  -28.3734   23.1218 C   0  0  2  0  0  0
  -20.6800  -26.9426   22.5404 C   0  0  0  0  0  0
  -19.5772  -26.6381   21.5216 C   0  0  0  0  0  0
  -18.1950  -26.7948   22.1616 C   0  0  0  0  0  0
  -19.1570  -28.8896   23.2830 C   0  0  0  0  0  0
  -18.9477  -30.1487   23.8866 C   0  0  0  0  0  0
  -17.6470  -30.6599   24.0559 C   0  0  0  0  0  0
  -25.9080  -34.9378   23.5042 C   0  0  0  0  0  0
  -16.5366  -29.9083   23.6337 C   0  0  0  0  0  0
  -16.7290  -28.6507   23.0348 C   0  0  0  0  0  0
  -26.4527  -31.6541   25.0722 C   0  0  0  0  0  0
  -25.3688  -31.3751   26.1404 C   0  0  0  0  0  0
  -27.0403  -30.2931   24.6351 C   0  0  0  0  0  0
  -27.6054  -32.4313   25.7506 C   0  0  0  0  0  0
  -27.5573  -37.1773   24.8456 C   0  0  0  0  0  0
  -21.4306  -29.3045   22.3597 N   0  0  0  0  0  0
  -26.4281  -37.3725   23.9410 N   0  0  0  0  0  0
  -24.7346  -31.0111   22.0888 N   0  0  0  0  0  0
  -23.4223  -28.8052   23.3040 O   0  0  0  0  0  0
  -28.2248  -25.9880   20.1066 O   0  0  0  0  0  0
  -26.5680  -34.8899   22.4628 O   0  0  0  0  0  0
  -23.5625  -32.1256   23.6944 O   0  0  0  0  0  0
  -29.1866  -19.1062   20.2152 C   0  0  0  0  0  0
  -31.1901  -18.2341   21.2400 C   0  0  0  0  0  0
  -29.5136  -20.5652   20.4886 C   0  0  0  0  0  0
  -30.7677  -20.7095   21.1532 C   0  0  0  0  0  0
  -30.0007  -17.8776   20.5736 C   0  0  0  0  0  0
  -31.5540  -19.5751   21.5245 C   0  0  0  0  0  0
  -33.9527  -24.4060   20.4481 C   0  0  0  0  0  0
  -31.3021  -22.0591   21.4424 C   0  0  0  0  0  0
  -32.8604  -23.9237   21.0608 C   0  0  0  0  0  0
  -32.3484  -22.5974   20.7913 C   0  0  0  0  0  0
  -28.4463  -23.3063   20.8984 C   0  0  0  0  0  0
  -28.2044  -24.7430   20.9104 C   0  0  0  0  0  0
  -28.7598  -21.9789   20.0084 C   0  0  0  0  0  0
  -32.7605  -19.7734   22.2018 N   0  0  0  0  0  0
  -29.7185  -16.3352   20.3977 N   0  0  0  0  0  0
  -28.3440  -21.9937   18.8478 O   0  0  0  0  0  0
  -31.4693  -12.8913   19.1690 H   0  0  0  0  0  0
  -30.4820  -11.7771   20.0750 H   0  0  0  0  0  0
  -29.8801  -11.7408   17.6263 H   0  0  0  0  0  0
  -29.5841  -13.4615   17.6622 H   0  0  0  0  0  0
  -27.9963  -11.2694   19.0232 H   0  0  0  0  0  0
  -27.4033  -12.3907   17.8241 H   0  0  0  0  0  0
  -27.5503  -14.2414   19.3469 H   0  0  0  0  0  0
  -28.7853  -12.4191   21.4652 H   0  0  0  0  0  0
  -28.3241  -14.0937   21.6960 H   0  0  0  0  0  0
  -25.2799   -9.5684   22.4718 H   0  0  0  0  0  0
  -24.0026   -7.4641   22.7455 H   0  0  0  0  0  0
  -21.0859   -8.8754   19.8950 H   0  0  0  0  0  0
  -22.3715  -10.9643   19.6129 H   0  0  0  0  0  0
  -21.2010   -7.6148   23.9721 H   0  0  0  0  0  0
  -21.1481   -6.0510   25.9081 H   0  0  0  0  0  0
  -22.0599   -2.7598   23.2843 H   0  0  0  0  0  0
  -22.4078  -11.9866   22.4924 H   0  0  0  0  0  0
  -21.1021  -13.1118   22.2605 H   0  0  0  0  0  0
  -24.6291  -15.8436   20.5260 H   0  0  0  0  0  0
  -26.2343  -15.6433   20.0487 H   0  0  0  0  0  0
  -26.7325  -32.5228   23.0972 H   0  0  0  0  0  0
  -25.0074  -33.9542   25.0263 H   0  0  0  0  0  0
  -22.7720  -31.2786   21.3662 H   0  0  0  0  0  0
  -23.3760  -35.9585   23.3270 H   0  0  0  0  0  0
  -24.3595  -36.8923   22.2065 H   0  0  0  0  0  0
  -23.7251  -37.6434   23.6713 H   0  0  0  0  0  0
  -26.1845  -31.4161   20.6071 H   0  0  0  0  0  0
  -26.8948  -30.7407   22.0343 H   0  0  0  0  0  0
  -28.1565  -28.7051   21.2431 H   0  0  0  0  0  0
  -25.9156  -25.7857   19.0143 H   0  0  0  0  0  0
  -23.9834  -27.2773   18.9833 H   0  0  0  0  0  0
  -23.8469  -30.5410   19.3960 H   0  0  0  0  0  0
  -22.8086  -29.2197   19.8380 H   0  0  0  0  0  0
  -25.1310  -36.1827   25.0799 H   0  0  0  0  0  0
  -20.9998  -28.3331   24.1345 H   0  0  0  0  0  0
  -20.5695  -26.2345   23.3626 H   0  0  0  0  0  0
  -21.6667  -26.7437   22.1196 H   0  0  0  0  0  0
  -19.6934  -25.6281   21.1267 H   0  0  0  0  0  0
  -19.6716  -27.3175   20.6738 H   0  0  0  0  0  0
  -17.4215  -26.6669   21.4025 H   0  0  0  0  0  0
  -18.0358  -26.0104   22.9033 H   0  0  0  0  0  0
  -19.7954  -30.7314   24.2218 H   0  0  0  0  0  0
  -17.5019  -31.6276   24.5168 H   0  0  0  0  0  0
  -15.5361  -30.2968   23.7691 H   0  0  0  0  0  0
  -15.8692  -28.0820   22.7069 H   0  0  0  0  0  0
  -24.5897  -30.7060   25.7719 H   0  0  0  0  0  0
  -24.8846  -32.2938   26.4735 H   0  0  0  0  0  0
  -25.7960  -30.8989   27.0247 H   0  0  0  0  0  0
  -26.3039  -29.6639   24.1348 H   0  0  0  0  0  0
  -27.3972  -29.7246   25.4949 H   0  0  0  0  0  0
  -27.8968  -30.4145   23.9723 H   0  0  0  0  0  0
  -27.2662  -33.3655   26.2000 H   0  0  0  0  0  0
  -28.3921  -32.6791   25.0367 H   0  0  0  0  0  0
  -28.0681  -31.8492   26.5488 H   0  0  0  0  0  0
  -28.2550  -38.0105   24.7522 H   0  0  0  0  0  0
  -28.1107  -36.2627   24.6260 H   0  0  0  0  0  0
  -27.2304  -37.1403   25.8862 H   0  0  0  0  0  0
  -20.9548  -29.8744   21.6749 H   0  0  0  0  0  0
  -26.0143  -38.2790   24.1408 H   0  0  0  0  0  0
  -28.2609  -18.9280   19.6855 H   0  0  0  0  0  0
  -31.8518  -17.4445   21.5662 H   0  0  0  0  0  0
  -34.3177  -25.4015   20.6560 H   0  0  0  0  0  0
  -34.5023  -23.8153   19.7283 H   0  0  0  0  0  0
  -30.8156  -22.6186   22.2284 H   0  0  0  0  0  0
  -32.3472  -24.5557   21.7725 H   0  0  0  0  0  0
  -32.8254  -22.0083   20.0196 H   0  0  0  0  0  0
  -28.3435  -22.9515   21.9128 H   0  0  0  0  0  0
  -27.9547  -25.0849   21.9061 H   0  0  0  0  0  0
  -33.3451  -19.0132   22.5307 H   0  0  0  0  0  0
  -33.1144  -20.7100   22.3697 H   0  0  0  0  0  0
  -28.7371  -16.1291   20.2927 H   0  0  0  0  0  0
  1 25  1  0  0  0
  1 30  2  0  0  0
  1 85  1  0  0  0
  2  3  1  0  0  0
  2 25  1  0  0  0
  2 87  1  0  0  0
  2 88  1  0  0  0
  3  4  1  0  0  0
  3 89  1  0  0  0
  3 90  1  0  0  0
  4  5  1  0  0  0
  4 91  1  0  0  0
  4 92  1  0  0  0
  5  6  1  0  0  0
  5 26  1  0  0  0
  5 93  1  0  0  0
  6 25  1  0  0  0
  6 94  1  0  0  0
  6 95  1  0  0  0
  7  8  2  0  0  0
  7 26  1  0  0  0
  7 29  1  0  0  0
  8  9  1  0  0  0
  8 22  1  0  0  0
  9 10  1  0  0  0
  9 27  2  0  0  0
 10 11  2  0  0  0
 10 15  1  0  0  0
 11 12  1  0  0  0
 11 96  1  0  0  0
 12 13  2  0  0  0
 12 97  1  0  0  0
 13 14  1  0  0  0
 13 31  1  0  0  0
 14 15  2  0  0  0
 14 98  1  0  0  0
 15 99  1  0  0  0
 16 17  2  0  0  0
 16 21  1  0  0  0
 16 31  1  0  0  0
 17 18  1  0  0  0
 17100  1  0  0  0
 18 19  2  0  0  0
 18101  1  0  0  0
 19 20  1  0  0  0
 19 24  1  0  0  0
 20 21  2  0  0  0
 20102  1  0  0  0
 21 23  1  0  0  0
 22 28  1  0  0  0
 22 32  2  0  0  0
 26 27  1  0  0  0
 28103  1  0  0  0
 28104  1  0  0  0
 29105  1  0  0  0
 29106  1  0  0  0
 33 34  1  0  0  0
 33 66  1  0  0  0
 33 70  2  0  0  0
 34 36  1  0  0  0
 34 59  1  0  0  0
 34107  1  0  0  0
 35 44  2  0  0  0
 35 45  1  0  0  0
 35 68  1  0  0  0
 36 56  1  0  0  0
 36108  1  0  0  0
 37 39  1  0  0  0
 37 47  1  0  0  0
 37 66  1  0  0  0
 37109  1  0  0  0
 38 43  2  0  0  0
 38 46  1  0  0  0
 38 47  1  0  0  0
 39 64  1  0  0  0
 39 67  2  0  0  0
 40 52  1  0  0  0
 40 53  2  0  0  0
 40 58  1  0  0  0
 41110  1  0  0  0
 41111  1  0  0  0
 41112  1  0  0  0
 41 48  1  0  0  0
 42 43  1  0  0  0
 42 66  1  0  0  0
 42113  1  0  0  0
 42114  1  0  0  0
 43 44  1  0  0  0
 44115  1  0  0  0
 45 46  2  0  0  0
 45116  1  0  0  0
 46117  1  0  0  0
 47118  1  0  0  0
 47119  1  0  0  0
 48 56  1  0  0  0
 48 65  1  0  0  0
 48120  1  0  0  0
 49 50  1  0  0  0
 49 53  1  0  0  0
 49 64  1  0  0  0
 49121  1  0  0  0
 50 51  1  0  0  0
 50122  1  0  0  0
 50123  1  0  0  0
 51 52  1  0  0  0
 51124  1  0  0  0
 51125  1  0  0  0
 52126  1  0  0  0
 52127  1  0  0  0
 53 54  1  0  0  0
 54 55  2  0  0  0
 54128  1  0  0  0
 55 57  1  0  0  0
 55129  1  0  0  0
 56 69  2  0  0  0
 57 58  2  0  0  0
 57130  1  0  0  0
 58131  1  0  0  0
 59 60  1  0  0  0
 59 61  1  0  0  0
 59 62  1  0  0  0
 60132  1  0  0  0
 60133  1  0  0  0
 60134  1  0  0  0
 61135  1  0  0  0
 61136  1  0  0  0
 61137  1  0  0  0
 62138  1  0  0  0
 62139  1  0  0  0
 62140  1  0  0  0
 63 65  1  0  0  0
 63141  1  0  0  0
 63142  1  0  0  0
 63143  1  0  0  0
 64144  1  0  0  0
 65145  1  0  0  0
 68 82  1  0  0  0
 71 73  2  0  0  0
 71 75  1  0  0  0
 71146  1  0  0  0
 72 75  2  0  0  0
 72 76  1  0  0  0
 72147  1  0  0  0
 73 74  1  0  0  0
 73 83  1  0  0  0
 74 76  2  0  0  0
 74 78  1  0  0  0
 75 85  1  0  0  0
 76 84  1  0  0  0
 77 79  2  0  0  0
 77148  1  0  0  0
 77149  1  0  0  0
 78 80  2  0  0  0
 78150  1  0  0  0
 79 80  1  0  0  0
 79151  1  0  0  0
 80152  1  0  0  0
 81 82  2  0  0  0
 81 83  1  0  0  0
 81153  1  0  0  0
 82154  1  0  0  0
 83 86  2  0  0  0
 84155  1  0  0  0
 84156  1  0  0  0
 85157  1  0  0  0
M  ISO  4   1 100  68 101  82 101  85 100
M  END
> <chiral flag>
0

> <version>
0

> <s_m_source_file>
/data/baiqing/PycharmProjects/Reinvent-master-3.2/result/LINK_invent/BTK/process_docking_weight1_custom_product_contain_oxygen_bond_distance_aromatic_linkinvent_7_9_3/rearranged_h_0113.sdf

> <i_m_source_file_index>
18

> <r_mmod_Potential_Energy-OPLS-2005>
888.271423339844

> <r_mmod_Stretch_Energy-OPLS-2005>
363.688293457031

> <r_mmod_Bend_Energy-OPLS-2005>
396.388092041016

> <r_mmod_Torsional_Energy-OPLS-2005>
279.043762207031

> <r_mmod_Improper_Torsional_Energy-OPLS-2005>
7.59894561767578

> <r_mmod_Van_der_Waal_Energy-OPLS-2005>
133.453659057617

> <r_mmod_Electrostatic_Energy-OPLS-2005>
-370.77734375

> <r_mmod_Solvation_Energy-OPLS-2005>
-228.063873291016

> <b_mmod_Minimization_Converged-OPLS-2005>
0

> <r_mmod_RMS_Derivative-OPLS-2005>
2.56085181236267

$$$$
18
                    3D
 Structure written by MMmdl.
153161  0  0  1  0            999 V2000
  -30.6428  -14.7827   20.4515 C   0  0  0  0  0  0
  -30.4103  -12.4862   19.4721 C   0  0  0  0  0  0
  -29.5002  -12.5543   18.2276 C   0  0  0  0  0  0
  -28.0182  -12.4105   18.6159 C   0  0  0  0  0  0
  -27.6327  -13.2679   19.8522 C   0  0  2  0  0  0
  -28.6847  -13.2115   20.9852 C   0  0  0  0  0  0
  -25.2390  -13.8288   20.5753 C   0  0  0  0  0  0
  -24.1760  -13.0464   20.9280 C   0  0  0  0  0  0
  -24.6411  -11.6958   20.8750 C   0  0  0  0  0  0
  -23.9114  -10.4293   21.0379 C   0  0  0  0  0  0
  -24.3660   -9.4216   21.9158 C   0  0  0  0  0  0
  -23.6342   -8.2240   22.0720 C   0  0  0  0  0  0
  -22.4303   -8.0259   21.3522 C   0  0  0  0  0  0
  -21.9922   -9.0253   20.4651 C   0  0  0  0  0  0
  -22.7254  -10.2148   20.3061 C   0  0  0  0  0  0
  -21.6878   -6.0727   22.5287 C   0  0  0  0  0  0
  -21.4021   -6.5630   23.8219 C   0  0  0  0  0  0
  -21.3684   -5.6796   24.9168 C   0  0  0  0  0  0
  -21.6036   -4.3052   24.7235 C   0  0  0  0  0  0
  -21.8813   -3.8143   23.4353 C   0  0  0  0  0  0
  -21.9199   -4.6945   22.3404 C   0  0  0  0  0  0
  -22.7772  -13.5196   21.1943 C   0  0  0  0  0  0
  -22.1649   -4.2101   21.0980 F   0  0  0  0  0  0
  -21.5656   -3.4533   25.7747 F   0  0  0  0  0  0
  -29.9834  -13.5654   20.3991 N   0  0  0  0  0  0
  -26.2874  -12.9590   20.3300 N   0  0  0  0  0  0
  -25.9357  -11.6693   20.5780 N   0  0  0  0  0  0
  -22.0446  -12.8200   22.0523 N   0  0  0  0  0  0
  -25.3964  -15.2027   20.4192 N   0  0  0  0  0  0
  -31.8309  -14.8119   20.1262 O   0  0  0  0  0  0
  -21.6652   -6.8846   21.4242 O   0  0  0  0  0  0
  -22.3439  -14.5456   20.6732 O   0  0  0  0  0  0
  -24.6283  -31.8523   23.1900 C   0  0  0  0  0  0
  -25.9079  -32.4764   23.8271 C   0  0  1  0  0  0
  -27.2210  -27.2719   20.1429 C   0  0  0  0  0  0
  -25.5899  -33.8551   24.2243 N   0  0  0  0  0  0
  -23.4224  -30.4718   21.5374 C   0  0  2  0  0  0
  -24.8660  -28.9033   20.1237 C   0  0  0  0  0  0
  -22.7507  -29.4591   22.4973 C   0  0  0  0  0  0
  -18.0277  -28.1353   22.8494 C   0  0  0  0  0  0
  -24.1492  -36.7332   23.2633 C   0  0  0  0  0  0
  -25.9559  -30.7858   21.3397 C   0  0  0  0  0  0
  -26.0372  -29.3908   20.7206 C   0  0  0  0  0  0
  -27.2171  -28.5862   20.7188 C   0  0  0  0  0  0
  -26.0390  -26.8588   19.5013 C   0  0  0  0  0  0
  -24.8676  -27.6434   19.5041 C   0  0  0  0  0  0
  -23.6329  -29.7841   20.1628 C   0  0  0  0  0  0
  -25.4092  -36.3057   24.0350 C   0  0  1  0  0  0
  -20.5879  -28.3628   23.1322 C   0  0  2  0  0  0
  -20.6754  -26.9355   22.5412 C   0  0  0  0  0  0
  -19.5721  -26.6385   21.5197 C   0  0  0  0  0  0
  -18.1913  -26.7908   22.1625 C   0  0  0  0  0  0
  -19.1522  -28.8817   23.2904 C   0  0  0  0  0  0
  -18.9449  -30.1435   23.8901 C   0  0  0  0  0  0
  -17.6447  -30.6553   24.0559 C   0  0  0  0  0  0
  -25.9047  -34.9447   23.5070 C   0  0  0  0  0  0
  -16.5342  -29.9060   23.6311 C   0  0  0  0  0  0
  -16.7277  -28.6476   23.0344 C   0  0  0  0  0  0
  -26.4454  -31.6519   25.0600 C   0  0  0  0  0  0
  -25.3757  -31.3677   26.1397 C   0  0  0  0  0  0
  -27.0169  -30.2944   24.5872 C   0  0  0  0  0  0
  -27.6097  -32.4174   25.7361 C   0  0  0  0  0  0
  -27.5569  -37.1807   24.8480 C   0  0  0  0  0  0
  -21.4201  -29.3030   22.3765 N   0  0  0  0  0  0
  -26.4255  -37.3756   23.9445 N   0  0  0  0  0  0
  -24.6905  -31.0553   22.0823 N   0  0  0  0  0  0
  -23.4244  -28.8135   23.3032 O   0  0  0  0  0  0
  -28.3365  -26.4137   20.1165 O   0  0  0  0  0  0
  -26.5605  -34.8938   22.4643 O   0  0  0  0  0  0
  -23.5450  -32.1283   23.7278 O   0  0  0  0  0  0
  -29.3915  -18.5601   20.5772 C   0  0  0  0  0  0
  -31.1820  -20.1926   20.3891 C   0  0  0  0  0  0
  -31.6819  -17.7824   20.4170 C   0  0  0  0  0  0
  -29.7841  -19.9699   20.4779 C   0  0  0  0  0  0
  -30.3159  -17.4206   20.5511 C   0  0  0  0  0  0
  -32.1031  -19.1279   20.3572 C   0  0  0  0  0  0
  -29.1185  -22.3912   20.4574 C   0  0  0  0  0  0
  -26.7157  -23.1877   19.9545 C   0  0  0  0  0  0
  -28.3207  -25.0717   20.7980 C   0  0  0  0  0  0
  -28.1903  -23.6442   20.0268 C   0  0  1  0  0  0
  -28.8495  -21.0941   20.3728 N   0  0  0  0  0  0
  -29.9195  -15.9677   20.6582 N   0  0  0  0  0  0
  -33.4273  -19.4056   20.2557 F   0  0  0  0  0  0
  -31.4511  -12.5936   19.1631 H   0  0  0  0  0  0
  -30.3361  -11.5090   19.9534 H   0  0  0  0  0  0
  -29.7824  -11.7826   17.5088 H   0  0  0  0  0  0
  -29.6407  -13.5117   17.7239 H   0  0  0  0  0  0
  -27.8275  -11.3526   18.7980 H   0  0  0  0  0  0
  -27.3929  -12.6988   17.7701 H   0  0  0  0  0  0
  -27.6109  -14.2970   19.5028 H   0  0  0  0  0  0
  -28.7268  -12.2162   21.4212 H   0  0  0  0  0  0
  -28.4230  -13.8964   21.7939 H   0  0  0  0  0  0
  -25.2817   -9.5688   22.4748 H   0  0  0  0  0  0
  -24.0056   -7.4622   22.7438 H   0  0  0  0  0  0
  -21.0833   -8.8782   19.9017 H   0  0  0  0  0  0
  -22.3669  -10.9676   19.6199 H   0  0  0  0  0  0
  -21.1992   -7.6133   23.9694 H   0  0  0  0  0  0
  -21.1539   -6.0526   25.9067 H   0  0  0  0  0  0
  -22.0575   -2.7598   23.2872 H   0  0  0  0  0  0
  -22.4133  -11.9930   22.4941 H   0  0  0  0  0  0
  -21.1049  -13.1193   22.2727 H   0  0  0  0  0  0
  -24.6298  -15.8506   20.5522 H   0  0  0  0  0  0
  -26.2426  -15.6571   20.0989 H   0  0  0  0  0  0
  -26.7145  -32.5417   23.1036 H   0  0  0  0  0  0
  -25.0059  -33.9688   25.0384 H   0  0  0  0  0  0
  -22.7137  -31.2865   21.3865 H   0  0  0  0  0  0
  -23.3725  -35.9690   23.3230 H   0  0  0  0  0  0
  -24.3599  -36.8974   22.2046 H   0  0  0  0  0  0
  -23.7268  -37.6546   23.6662 H   0  0  0  0  0  0
  -26.0295  -31.5178   20.5314 H   0  0  0  0  0  0
  -26.8635  -30.8890   21.9275 H   0  0  0  0  0  0
  -28.1166  -28.9693   21.1828 H   0  0  0  0  0  0
  -26.0198  -25.9232   18.9718 H   0  0  0  0  0  0
  -23.9740  -27.2750   19.0210 H   0  0  0  0  0  0
  -23.7429  -30.5410   19.3866 H   0  0  0  0  0  0
  -22.7535  -29.2046   19.8748 H   0  0  0  0  0  0
  -25.1252  -36.1866   25.0840 H   0  0  0  0  0  0
  -20.9973  -28.3128   24.1433 H   0  0  0  0  0  0
  -20.5593  -26.2236   23.3593 H   0  0  0  0  0  0
  -21.6631  -26.7357   22.1205 H   0  0  0  0  0  0
  -19.6863  -25.6311   21.1161 H   0  0  0  0  0  0
  -19.6627  -27.3275   20.6771 H   0  0  0  0  0  0
  -17.4183  -26.6677   21.4025 H   0  0  0  0  0  0
  -18.0287  -26.0055   22.9014 H   0  0  0  0  0  0
  -19.7930  -30.7261   24.2277 H   0  0  0  0  0  0
  -17.4990  -31.6235   24.5140 H   0  0  0  0  0  0
  -15.5339  -30.2951   23.7622 H   0  0  0  0  0  0
  -15.8688  -28.0803   22.7026 H   0  0  0  0  0  0
  -24.5979  -30.6872   25.7842 H   0  0  0  0  0  0
  -24.8892  -32.2851   26.4732 H   0  0  0  0  0  0
  -25.8197  -30.9010   27.0196 H   0  0  0  0  0  0
  -26.2597  -29.6840   24.0908 H   0  0  0  0  0  0
  -27.3896  -29.7009   25.4224 H   0  0  0  0  0  0
  -27.8467  -30.4228   23.8920 H   0  0  0  0  0  0
  -27.2779  -33.3561   26.1793 H   0  0  0  0  0  0
  -28.4005  -32.6506   25.0223 H   0  0  0  0  0  0
  -28.0580  -31.8293   26.5370 H   0  0  0  0  0  0
  -28.2624  -38.0076   24.7499 H   0  0  0  0  0  0
  -28.1016  -36.2616   24.6285 H   0  0  0  0  0  0
  -27.2324  -37.1440   25.8896 H   0  0  0  0  0  0
  -20.9347  -29.8800   21.7039 H   0  0  0  0  0  0
  -26.0127  -38.2820   24.1471 H   0  0  0  0  0  0
  -28.3353  -18.3523   20.6554 H   0  0  0  0  0  0
  -31.5830  -21.1935   20.3168 H   0  0  0  0  0  0
  -32.4702  -17.0501   20.3601 H   0  0  0  0  0  0
  -30.1035  -22.7346   20.7866 H   0  0  0  0  0  0
  -26.4079  -22.7318   20.8952 H   0  0  0  0  0  0
  -26.5752  -22.4404   19.1699 H   0  0  0  0  0  0
  -26.0207  -23.9965   19.7500 H   0  0  0  0  0  0
  -29.2735  -25.0401   21.3230 H   0  0  0  0  0  0
  -27.5874  -25.0983   21.6035 H   0  0  0  0  0  0
  -28.5098  -23.8592   19.0073 H   0  0  0  0  0  0
  -28.9440  -15.8113   20.8680 H   0  0  0  0  0  0
  1 25  1  0  0  0
  1 30  2  0  0  0
  1 82  1  0  0  0
  2  3  1  0  0  0
  2 25  1  0  0  0
  2 84  1  0  0  0
  2 85  1  0  0  0
  3  4  1  0  0  0
  3 86  1  0  0  0
  3 87  1  0  0  0
  4  5  1  0  0  0
  4 88  1  0  0  0
  4 89  1  0  0  0
  5  6  1  0  0  0
  5 26  1  0  0  0
  5 90  1  0  0  0
  6 25  1  0  0  0
  6 91  1  0  0  0
  6 92  1  0  0  0
  7  8  2  0  0  0
  7 26  1  0  0  0
  7 29  1  0  0  0
  8  9  1  0  0  0
  8 22  1  0  0  0
  9 10  1  0  0  0
  9 27  2  0  0  0
 10 11  2  0  0  0
 10 15  1  0  0  0
 11 12  1  0  0  0
 11 93  1  0  0  0
 12 13  2  0  0  0
 12 94  1  0  0  0
 13 14  1  0  0  0
 13 31  1  0  0  0
 14 15  2  0  0  0
 14 95  1  0  0  0
 15 96  1  0  0  0
 16 17  2  0  0  0
 16 21  1  0  0  0
 16 31  1  0  0  0
 17 18  1  0  0  0
 17 97  1  0  0  0
 18 19  2  0  0  0
 18 98  1  0  0  0
 19 20  1  0  0  0
 19 24  1  0  0  0
 20 21  2  0  0  0
 20 99  1  0  0  0
 21 23  1  0  0  0
 22 28  1  0  0  0
 22 32  2  0  0  0
 26 27  1  0  0  0
 28100  1  0  0  0
 28101  1  0  0  0
 29102  1  0  0  0
 29103  1  0  0  0
 33 34  1  0  0  0
 33 66  1  0  0  0
 33 70  2  0  0  0
 34 36  1  0  0  0
 34 59  1  0  0  0
 34104  1  0  0  0
 35 44  2  0  0  0
 35 45  1  0  0  0
 35 68  1  0  0  0
 36 56  1  0  0  0
 36105  1  0  0  0
 37 39  1  0  0  0
 37 47  1  0  0  0
 37 66  1  0  0  0
 37106  1  0  0  0
 38 43  2  0  0  0
 38 46  1  0  0  0
 38 47  1  0  0  0
 39 64  1  0  0  0
 39 67  2  0  0  0
 40 52  1  0  0  0
 40 53  2  0  0  0
 40 58  1  0  0  0
 41107  1  0  0  0
 41108  1  0  0  0
 41109  1  0  0  0
 41 48  1  0  0  0
 42 43  1  0  0  0
 42 66  1  0  0  0
 42110  1  0  0  0
 42111  1  0  0  0
 43 44  1  0  0  0
 44112  1  0  0  0
 45 46  2  0  0  0
 45113  1  0  0  0
 46114  1  0  0  0
 47115  1  0  0  0
 47116  1  0  0  0
 48 56  1  0  0  0
 48 65  1  0  0  0
 48117  1  0  0  0
 49 50  1  0  0  0
 49 53  1  0  0  0
 49 64  1  0  0  0
 49118  1  0  0  0
 50 51  1  0  0  0
 50119  1  0  0  0
 50120  1  0  0  0
 51 52  1  0  0  0
 51121  1  0  0  0
 51122  1  0  0  0
 52123  1  0  0  0
 52124  1  0  0  0
 53 54  1  0  0  0
 54 55  2  0  0  0
 54125  1  0  0  0
 55 57  1  0  0  0
 55126  1  0  0  0
 56 69  2  0  0  0
 57 58  2  0  0  0
 57127  1  0  0  0
 58128  1  0  0  0
 59 60  1  0  0  0
 59 61  1  0  0  0
 59 62  1  0  0  0
 60129  1  0  0  0
 60130  1  0  0  0
 60131  1  0  0  0
 61132  1  0  0  0
 61133  1  0  0  0
 61134  1  0  0  0
 62135  1  0  0  0
 62136  1  0  0  0
 62137  1  0  0  0
 63 65  1  0  0  0
 63138  1  0  0  0
 63139  1  0  0  0
 63140  1  0  0  0
 64141  1  0  0  0
 65142  1  0  0  0
 68 79  1  0  0  0
 71 74  2  0  0  0
 71 75  1  0  0  0
 71143  1  0  0  0
 72 74  1  0  0  0
 72 76  2  0  0  0
 72144  1  0  0  0
 73 75  2  0  0  0
 73 76  1  0  0  0
 73145  1  0  0  0
 74 81  1  0  0  0
 75 82  1  0  0  0
 76 83  1  0  0  0
 77 80  1  0  0  0
 77 81  2  0  0  0
 77146  1  0  0  0
 78147  1  0  0  0
 78148  1  0  0  0
 78149  1  0  0  0
 78 80  1  0  0  0
 79 80  1  0  0  0
 79150  1  0  0  0
 79151  1  0  0  0
 80152  1  0  0  0
 82153  1  0  0  0
M  ISO  4   1 100  68 101  79 101  82 100
M  END
> <chiral flag>
0

> <version>
0

> <s_m_source_file>
/data/baiqing/PycharmProjects/Reinvent-master-3.2/result/LINK_invent/BTK/process_docking_weight1_custom_product_contain_oxygen_bond_distance_aromatic_linkinvent_7_9_3/rearranged_h_0113.sdf

> <i_m_source_file_index>
19

> <r_mmod_Potential_Energy-OPLS-2005>
263.892456054688

> <r_mmod_Stretch_Energy-OPLS-2005>
146.189712524414

> <r_mmod_Bend_Energy-OPLS-2005>
184.4580078125

> <r_mmod_Torsional_Energy-OPLS-2005>
244.363189697266

> <r_mmod_Improper_Torsional_Energy-OPLS-2005>
5.3399395942688

> <r_mmod_Van_der_Waal_Energy-OPLS-2005>
143.589096069336

> <r_mmod_Electrostatic_Energy-OPLS-2005>
-339.114135742188

> <r_mmod_Solvation_Energy-OPLS-2005>
-207.200592041016

> <b_mmod_Minimization_Converged-OPLS-2005>
0

> <r_mmod_RMS_Derivative-OPLS-2005>
7.00114154815674

$$$$
19
                    3D
 Structure written by MMmdl.
159167  0  0  1  0            999 V2000
  -30.6192  -14.7306   20.4620 C   0  0  0  0  0  0
  -30.4461  -12.4452   19.4754 C   0  0  0  0  0  0
  -29.5166  -12.4868   18.2386 C   0  0  0  0  0  0
  -28.0365  -12.3349   18.6451 C   0  0  0  0  0  0
  -27.6506  -13.2194   19.8610 C   0  0  2  0  0  0
  -28.6961  -13.0879   20.9856 C   0  0  0  0  0  0
  -25.2541  -13.8160   20.5685 C   0  0  0  0  0  0
  -24.1805  -13.0425   20.9149 C   0  0  0  0  0  0
  -24.6385  -11.6894   20.8712 C   0  0  0  0  0  0
  -23.9068  -10.4277   21.0390 C   0  0  0  0  0  0
  -24.3619   -9.4199   21.9178 C   0  0  0  0  0  0
  -23.6291   -8.2242   22.0739 C   0  0  0  0  0  0
  -22.4274   -8.0279   21.3518 C   0  0  0  0  0  0
  -21.9908   -9.0249   20.4624 C   0  0  0  0  0  0
  -22.7241  -10.2122   20.3041 C   0  0  0  0  0  0
  -21.6849   -6.0748   22.5283 C   0  0  0  0  0  0
  -21.4013   -6.5642   23.8219 C   0  0  0  0  0  0
  -21.3646   -5.6781   24.9168 C   0  0  0  0  0  0
  -21.6045   -4.3054   24.7218 C   0  0  0  0  0  0
  -21.8819   -3.8153   23.4336 C   0  0  0  0  0  0
  -21.9177   -4.6975   22.3399 C   0  0  0  0  0  0
  -22.7831  -13.5229   21.1840 C   0  0  0  0  0  0
  -22.1660   -4.2160   21.0983 F   0  0  0  0  0  0
  -21.5628   -3.4541   25.7736 F   0  0  0  0  0  0
  -29.9985  -13.4913   20.4281 N   0  0  0  0  0  0
  -26.2982  -12.9349   20.3331 N   0  0  0  0  0  0
  -25.9316  -11.6497   20.5745 N   0  0  0  0  0  0
  -22.0487  -12.8216   22.0405 N   0  0  0  0  0  0
  -25.4296  -15.1887   20.4182 N   0  0  0  0  0  0
  -31.8045  -14.8218   20.1246 O   0  0  0  0  0  0
  -21.6636   -6.8883   21.4233 O   0  0  0  0  0  0
  -22.3521  -14.5542   20.6707 O   0  0  0  0  0  0
  -24.6296  -31.8593   23.1996 C   0  0  0  0  0  0
  -25.9127  -32.4779   23.8348 C   0  0  1  0  0  0
  -27.2311  -27.2919   20.1234 C   0  0  0  0  0  0
  -25.5924  -33.8577   24.2284 N   0  0  0  0  0  0
  -23.4252  -30.4822   21.5435 C   0  0  2  0  0  0
  -24.8745  -28.9354   20.1116 C   0  0  0  0  0  0
  -22.7494  -29.4635   22.4928 C   0  0  0  0  0  0
  -18.0296  -28.1397   22.8500 C   0  0  0  0  0  0
  -24.1487  -36.7287   23.2639 C   0  0  0  0  0  0
  -25.9698  -30.7818   21.3754 C   0  0  0  0  0  0
  -26.0455  -29.4059   20.7188 C   0  0  0  0  0  0
  -27.2251  -28.5970   20.7158 C   0  0  0  0  0  0
  -26.0351  -26.8896   19.4801 C   0  0  0  0  0  0
  -24.8730  -27.6834   19.4825 C   0  0  0  0  0  0
  -23.6415  -29.8161   20.1602 C   0  0  0  0  0  0
  -25.4109  -36.3088   24.0346 C   0  0  1  0  0  0
  -20.5901  -28.3710   23.1273 C   0  0  2  0  0  0
  -20.6786  -26.9433   22.5403 C   0  0  0  0  0  0
  -19.5749  -26.6400   21.5219 C   0  0  0  0  0  0
  -18.1930  -26.7945   22.1636 C   0  0  0  0  0  0
  -19.1551  -28.8872   23.2886 C   0  0  0  0  0  0
  -18.9469  -30.1472   23.8911 C   0  0  0  0  0  0
  -17.6467  -30.6597   24.0567 C   0  0  0  0  0  0
  -25.9053  -34.9457   23.5122 C   0  0  0  0  0  0
  -16.5363  -29.9094   23.6332 C   0  0  0  0  0  0
  -16.7284  -28.6511   23.0364 C   0  0  0  0  0  0
  -26.4496  -31.6582   25.0718 C   0  0  0  0  0  0
  -25.3706  -31.3711   26.1420 C   0  0  0  0  0  0
  -27.0340  -30.3011   24.6175 C   0  0  0  0  0  0
  -27.6067  -32.4303   25.7477 C   0  0  0  0  0  0
  -27.5590  -37.1796   24.8470 C   0  0  0  0  0  0
  -21.4205  -29.3060   22.3657 N   0  0  0  0  0  0
  -26.4294  -37.3777   23.9422 N   0  0  0  0  0  0
  -24.6941  -31.0573   22.0965 N   0  0  0  0  0  0
  -23.4208  -28.8177   23.3020 O   0  0  0  0  0  0
  -28.3293  -26.4049   20.1947 O   0  0  0  0  0  0
  -26.5618  -34.8927   22.4689 O   0  0  0  0  0  0
  -23.5450  -32.1419   23.7295 O   0  0  0  0  0  0
  -30.7150  -18.8247   18.1021 C   0  0  0  0  0  0
  -29.7551  -18.7268   20.6848 C   0  0  0  0  0  0
  -30.4892  -17.5545   18.6833 C   0  0  0  0  0  0
  -30.0569  -17.4482   20.0449 C   0  0  0  0  0  0
  -30.4405  -20.0350   18.7633 C   0  0  0  0  0  0
  -29.8789  -20.0305   20.0603 C   0  0  0  0  0  0
  -31.6470  -16.3031   16.8394 C   0  0  0  0  0  0
  -30.7096  -16.3941   17.7989 C   0  0  0  0  0  0
  -29.7738  -16.0760   20.7586 C   0  0  0  0  0  0
  -29.0697  -23.8406   20.4212 C   0  0  0  0  0  0
  -31.9222  -21.8301   18.5822 C   0  0  0  0  0  0
  -28.0510  -24.9579   19.9304 C   0  0  0  0  0  0
  -28.7996  -22.3273   19.9932 C   0  0  0  0  0  0
  -28.8379  -16.0797   21.6140 N   0  0  0  0  0  0
  -30.0474  -24.1375   21.1178 O   0  0  0  0  0  0
  -30.7456  -21.1954   18.1015 O   0  0  0  0  0  0
  -29.5455  -21.2531   20.7072 O   0  0  0  0  0  0
  -31.4823  -12.5835   19.1613 H   0  0  0  0  0  0
  -30.4143  -11.4620   19.9482 H   0  0  0  0  0  0
  -29.7885  -11.6954   17.5396 H   0  0  0  0  0  0
  -29.6589  -13.4189   17.6943 H   0  0  0  0  0  0
  -27.8756  -11.2841   18.8923 H   0  0  0  0  0  0
  -27.3861  -12.5520   17.7977 H   0  0  0  0  0  0
  -27.6631  -14.2511   19.5091 H   0  0  0  0  0  0
  -28.7377  -12.0550   21.3359 H   0  0  0  0  0  0
  -28.4167  -13.6611   21.8664 H   0  0  0  0  0  0
  -25.2754   -9.5672   22.4774 H   0  0  0  0  0  0
  -23.9977   -7.4632   22.7471 H   0  0  0  0  0  0
  -21.0825   -8.8775   19.8951 H   0  0  0  0  0  0
  -22.3707  -10.9667   19.6158 H   0  0  0  0  0  0
  -21.2048   -7.6149   23.9739 H   0  0  0  0  0  0
  -21.1458   -6.0514   25.9070 H   0  0  0  0  0  0
  -22.0622   -2.7620   23.2847 H   0  0  0  0  0  0
  -22.4090  -11.9852   22.4757 H   0  0  0  0  0  0
  -21.1108  -13.1237   22.2627 H   0  0  0  0  0  0
  -24.6821  -15.8561   20.5728 H   0  0  0  0  0  0
  -26.3259  -15.6262   20.2444 H   0  0  0  0  0  0
  -26.7198  -32.5447   23.1094 H   0  0  0  0  0  0
  -25.0039  -33.9717   25.0411 H   0  0  0  0  0  0
  -22.7211  -31.3041   21.3964 H   0  0  0  0  0  0
  -23.3767  -35.9600   23.3290 H   0  0  0  0  0  0
  -24.3575  -36.8915   22.2052 H   0  0  0  0  0  0
  -23.7229  -37.6486   23.6657 H   0  0  0  0  0  0
  -26.1003  -31.5420   20.6041 H   0  0  0  0  0  0
  -26.8507  -30.8330   22.0032 H   0  0  0  0  0  0
  -28.1186  -28.9513   21.2102 H   0  0  0  0  0  0
  -25.9580  -25.9369   18.9793 H   0  0  0  0  0  0
  -23.9764  -27.3186   18.9998 H   0  0  0  0  0  0
  -23.7594  -30.5921   19.4033 H   0  0  0  0  0  0
  -22.7626  -29.2446   19.8569 H   0  0  0  0  0  0
  -25.1283  -36.1936   25.0839 H   0  0  0  0  0  0
  -21.0004  -28.3292   24.1390 H   0  0  0  0  0  0
  -20.5693  -26.2331   23.3607 H   0  0  0  0  0  0
  -21.6648  -26.7454   22.1188 H   0  0  0  0  0  0
  -19.6902  -25.6307   21.1255 H   0  0  0  0  0  0
  -19.6674  -27.3212   20.6745 H   0  0  0  0  0  0
  -17.4195  -26.6715   21.4035 H   0  0  0  0  0  0
  -18.0321  -26.0078   22.9023 H   0  0  0  0  0  0
  -19.7938  -30.7289   24.2297 H   0  0  0  0  0  0
  -17.5015  -31.6272   24.5164 H   0  0  0  0  0  0
  -15.5369  -30.2999   23.7638 H   0  0  0  0  0  0
  -15.8687  -28.0822   22.7088 H   0  0  0  0  0  0
  -24.5920  -30.7018   25.7733 H   0  0  0  0  0  0
  -24.8829  -32.2857   26.4801 H   0  0  0  0  0  0
  -25.8003  -30.8923   27.0226 H   0  0  0  0  0  0
  -26.2920  -29.6750   24.1204 H   0  0  0  0  0  0
  -27.4055  -29.7266   25.4669 H   0  0  0  0  0  0
  -27.8774  -30.4303   23.9389 H   0  0  0  0  0  0
  -27.2726  -33.3638   26.2015 H   0  0  0  0  0  0
  -28.3890  -32.6810   25.0299 H   0  0  0  0  0  0
  -28.0715  -31.8441   26.5413 H   0  0  0  0  0  0
  -28.2598  -38.0101   24.7541 H   0  0  0  0  0  0
  -28.1106  -36.2644   24.6271 H   0  0  0  0  0  0
  -27.2309  -37.1407   25.8871 H   0  0  0  0  0  0
  -20.9399  -29.8783   21.6854 H   0  0  0  0  0  0
  -26.0187  -38.2861   24.1408 H   0  0  0  0  0  0
  -31.0792  -18.8923   17.0878 H   0  0  0  0  0  0
  -29.3852  -18.7146   21.6993 H   0  0  0  0  0  0
  -31.7177  -15.4203   16.2197 H   0  0  0  0  0  0
  -32.3608  -17.0941   16.6550 H   0  0  0  0  0  0
  -30.0278  -15.5674   17.9134 H   0  0  0  0  0  0
  -31.8541  -22.0597   19.6458 H   0  0  0  0  0  0
  -32.0704  -22.7717   18.0538 H   0  0  0  0  0  0
  -32.8024  -21.2052   18.4174 H   0  0  0  0  0  0
  -27.1024  -24.7004   20.4034 H   0  0  0  0  0  0
  -27.9138  -24.8242   18.8573 H   0  0  0  0  0  0
  -28.9284  -22.2680   18.9156 H   0  0  0  0  0  0
  -27.7395  -22.1376   20.1591 H   0  0  0  0  0  0
  -28.4086  -16.9935   21.6893 H   0  0  0  0  0  0
  1 25  1  0  0  0
  1 30  2  0  0  0
  1 79  1  0  0  0
  2  3  1  0  0  0
  2 25  1  0  0  0
  2 88  1  0  0  0
  2 89  1  0  0  0
  3  4  1  0  0  0
  3 90  1  0  0  0
  3 91  1  0  0  0
  4  5  1  0  0  0
  4 92  1  0  0  0
  4 93  1  0  0  0
  5  6  1  0  0  0
  5 26  1  0  0  0
  5 94  1  0  0  0
  6 25  1  0  0  0
  6 95  1  0  0  0
  6 96  1  0  0  0
  7  8  2  0  0  0
  7 26  1  0  0  0
  7 29  1  0  0  0
  8  9  1  0  0  0
  8 22  1  0  0  0
  9 10  1  0  0  0
  9 27  2  0  0  0
 10 11  2  0  0  0
 10 15  1  0  0  0
 11 12  1  0  0  0
 11 97  1  0  0  0
 12 13  2  0  0  0
 12 98  1  0  0  0
 13 14  1  0  0  0
 13 31  1  0  0  0
 14 15  2  0  0  0
 14 99  1  0  0  0
 15100  1  0  0  0
 16 17  2  0  0  0
 16 21  1  0  0  0
 16 31  1  0  0  0
 17 18  1  0  0  0
 17101  1  0  0  0
 18 19  2  0  0  0
 18102  1  0  0  0
 19 20  1  0  0  0
 19 24  1  0  0  0
 20 21  2  0  0  0
 20103  1  0  0  0
 21 23  1  0  0  0
 22 28  1  0  0  0
 22 32  2  0  0  0
 26 27  1  0  0  0
 28104  1  0  0  0
 28105  1  0  0  0
 29106  1  0  0  0
 29107  1  0  0  0
 33 34  1  0  0  0
 33 66  1  0  0  0
 33 70  2  0  0  0
 34 36  1  0  0  0
 34 59  1  0  0  0
 34108  1  0  0  0
 35 44  2  0  0  0
 35 45  1  0  0  0
 35 68  1  0  0  0
 36 56  1  0  0  0
 36109  1  0  0  0
 37 39  1  0  0  0
 37 47  1  0  0  0
 37 66  1  0  0  0
 37110  1  0  0  0
 38 43  2  0  0  0
 38 46  1  0  0  0
 38 47  1  0  0  0
 39 64  1  0  0  0
 39 67  2  0  0  0
 40 52  1  0  0  0
 40 53  2  0  0  0
 40 58  1  0  0  0
 41111  1  0  0  0
 41112  1  0  0  0
 41113  1  0  0  0
 41 48  1  0  0  0
 42 43  1  0  0  0
 42 66  1  0  0  0
 42114  1  0  0  0
 42115  1  0  0  0
 43 44  1  0  0  0
 44116  1  0  0  0
 45 46  2  0  0  0
 45117  1  0  0  0
 46118  1  0  0  0
 47119  1  0  0  0
 47120  1  0  0  0
 48 56  1  0  0  0
 48 65  1  0  0  0
 48121  1  0  0  0
 49 50  1  0  0  0
 49 53  1  0  0  0
 49 64  1  0  0  0
 49122  1  0  0  0
 50 51  1  0  0  0
 50123  1  0  0  0
 50124  1  0  0  0
 51 52  1  0  0  0
 51125  1  0  0  0
 51126  1  0  0  0
 52127  1  0  0  0
 52128  1  0  0  0
 53 54  1  0  0  0
 54 55  2  0  0  0
 54129  1  0  0  0
 55 57  1  0  0  0
 55130  1  0  0  0
 56 69  2  0  0  0
 57 58  2  0  0  0
 57131  1  0  0  0
 58132  1  0  0  0
 59 60  1  0  0  0
 59 61  1  0  0  0
 59 62  1  0  0  0
 60133  1  0  0  0
 60134  1  0  0  0
 60135  1  0  0  0
 61136  1  0  0  0
 61137  1  0  0  0
 61138  1  0  0  0
 62139  1  0  0  0
 62140  1  0  0  0
 62141  1  0  0  0
 63 65  1  0  0  0
 63142  1  0  0  0
 63143  1  0  0  0
 63144  1  0  0  0
 64145  1  0  0  0
 65146  1  0  0  0
 68 82  1  0  0  0
 71 73  2  0  0  0
 71 75  1  0  0  0
 71147  1  0  0  0
 72 74  2  0  0  0
 72 76  1  0  0  0
 72148  1  0  0  0
 73 74  1  0  0  0
 73 78  1  0  0  0
 74 79  1  0  0  0
 75 76  2  0  0  0
 75 86  1  0  0  0
 76 87  1  0  0  0
 77 78  2  0  0  0
 77149  1  0  0  0
 77150  1  0  0  0
 78151  1  0  0  0
 79 84  2  0  0  0
 80 82  1  0  0  0
 80 83  1  0  0  0
 80 85  2  0  0  0
 81 86  1  0  0  0
 81152  1  0  0  0
 81153  1  0  0  0
 81154  1  0  0  0
 82155  1  0  0  0
 82156  1  0  0  0
 83 87  1  0  0  0
 83157  1  0  0  0
 83158  1  0  0  0
 84159  1  0  0  0
M  ISO  4   1 100  68 101  79 100  82 101
M  END
> <chiral flag>
0

> <version>
0

> <s_m_source_file>
/data/baiqing/PycharmProjects/Reinvent-master-3.2/result/LINK_invent/BTK/process_docking_weight1_custom_product_contain_oxygen_bond_distance_aromatic_linkinvent_7_9_3/rearranged_h_0113.sdf

> <i_m_source_file_index>
20

> <r_mmod_Potential_Energy-OPLS-2005>
359.171966552734

> <r_mmod_Stretch_Energy-OPLS-2005>
132.380218505859

> <r_mmod_Bend_Energy-OPLS-2005>
170.530792236328

> <r_mmod_Torsional_Energy-OPLS-2005>
257.937744140625

> <r_mmod_Improper_Torsional_Energy-OPLS-2005>
4.34141969680786

> <r_mmod_Van_der_Waal_Energy-OPLS-2005>
159.174774169922

> <r_mmod_Electrostatic_Energy-OPLS-2005>
-209.159423828125

> <r_mmod_Solvation_Energy-OPLS-2005>
-227.778854370117

> <b_mmod_Minimization_Converged-OPLS-2005>
0

> <r_mmod_RMS_Derivative-OPLS-2005>
2.10869717597961

$$$$
20
                    3D
 Structure written by MMmdl.
157165  0  0  1  0            999 V2000
  -30.6229  -14.6471   20.4990 C   0  0  0  0  0  0
  -30.4382  -12.3940   19.4608 C   0  0  0  0  0  0
  -29.5083  -12.5065   18.2316 C   0  0  0  0  0  0
  -28.0325  -12.3425   18.6454 C   0  0  0  0  0  0
  -27.6550  -13.2173   19.8705 C   0  0  2  0  0  0
  -28.6997  -13.0767   21.0011 C   0  0  0  0  0  0
  -25.2575  -13.8176   20.5729 C   0  0  0  0  0  0
  -24.1825  -13.0439   20.9180 C   0  0  0  0  0  0
  -24.6390  -11.6909   20.8732 C   0  0  0  0  0  0
  -23.9056  -10.4294   21.0399 C   0  0  0  0  0  0
  -24.3608   -9.4212   21.9180 C   0  0  0  0  0  0
  -23.6287   -8.2246   22.0750 C   0  0  0  0  0  0
  -22.4270   -8.0275   21.3539 C   0  0  0  0  0  0
  -21.9902   -9.0251   20.4641 C   0  0  0  0  0  0
  -22.7228  -10.2131   20.3051 C   0  0  0  0  0  0
  -21.6856   -6.0729   22.5276 C   0  0  0  0  0  0
  -21.4017   -6.5639   23.8210 C   0  0  0  0  0  0
  -21.3658   -5.6789   24.9173 C   0  0  0  0  0  0
  -21.6043   -4.3051   24.7227 C   0  0  0  0  0  0
  -21.8821   -3.8142   23.4348 C   0  0  0  0  0  0
  -21.9197   -4.6955   22.3402 C   0  0  0  0  0  0
  -22.7850  -13.5235   21.1853 C   0  0  0  0  0  0
  -22.1665   -4.2139   21.0981 F   0  0  0  0  0  0
  -21.5628   -3.4539   25.7742 F   0  0  0  0  0  0
  -30.0156  -13.4186   20.4373 N   0  0  0  0  0  0
  -26.3006  -12.9356   20.3379 N   0  0  0  0  0  0
  -25.9323  -11.6507   20.5779 N   0  0  0  0  0  0
  -22.0497  -12.8212   22.0399 N   0  0  0  0  0  0
  -25.4314  -15.1901   20.4222 N   0  0  0  0  0  0
  -31.7793  -14.8058   20.0964 O   0  0  0  0  0  0
  -21.6641   -6.8868   21.4234 O   0  0  0  0  0  0
  -22.3537  -14.5548   20.6718 O   0  0  0  0  0  0
  -24.6274  -31.8583   23.2016 C   0  0  0  0  0  0
  -25.9119  -32.4769   23.8344 C   0  0  1  0  0  0
  -27.2186  -27.3076   20.1123 C   0  0  0  0  0  0
  -25.5922  -33.8570   24.2253 N   0  0  0  0  0  0
  -23.4201  -30.4841   21.5448 C   0  0  2  0  0  0
  -24.8649  -28.9402   20.1085 C   0  0  0  0  0  0
  -22.7483  -29.4622   22.4925 C   0  0  0  0  0  0
  -18.0279  -28.1384   22.8469 C   0  0  0  0  0  0
  -24.1484  -36.7288   23.2634 C   0  0  0  0  0  0
  -25.9648  -30.7850   21.3769 C   0  0  0  0  0  0
  -26.0366  -29.4138   20.7137 C   0  0  0  0  0  0
  -27.2168  -28.6109   20.7019 C   0  0  0  0  0  0
  -26.0203  -26.8889   19.4877 C   0  0  0  0  0  0
  -24.8604  -27.6842   19.4854 C   0  0  0  0  0  0
  -23.6353  -29.8224   20.1587 C   0  0  0  0  0  0
  -25.4102  -36.3071   24.0324 C   0  0  1  0  0  0
  -20.5883  -28.3685   23.1269 C   0  0  2  0  0  0
  -20.6771  -26.9407   22.5399 C   0  0  0  0  0  0
  -19.5752  -26.6376   21.5196 C   0  0  0  0  0  0
  -18.1927  -26.7922   22.1606 C   0  0  0  0  0  0
  -19.1535  -28.8849   23.2866 C   0  0  0  0  0  0
  -18.9467  -30.1449   23.8885 C   0  0  0  0  0  0
  -17.6472  -30.6584   24.0563 C   0  0  0  0  0  0
  -25.9056  -34.9450   23.5089 C   0  0  0  0  0  0
  -16.5358  -29.9086   23.6339 C   0  0  0  0  0  0
  -16.7269  -28.6509   23.0344 C   0  0  0  0  0  0
  -26.4486  -31.6598   25.0739 C   0  0  0  0  0  0
  -25.3715  -31.3765   26.1476 C   0  0  0  0  0  0
  -27.0331  -30.3011   24.6234 C   0  0  0  0  0  0
  -27.6033  -32.4356   25.7507 C   0  0  0  0  0  0
  -27.5596  -37.1764   24.8435 C   0  0  0  0  0  0
  -21.4192  -29.3044   22.3677 N   0  0  0  0  0  0
  -26.4259  -37.3794   23.9454 N   0  0  0  0  0  0
  -24.6895  -31.0596   22.0968 N   0  0  0  0  0  0
  -23.4207  -28.8150   23.2995 O   0  0  0  0  0  0
  -28.3318  -26.4489   20.1593 O   0  0  0  0  0  0
  -26.5640  -34.8930   22.4665 O   0  0  0  0  0  0
  -23.5432  -32.1380   23.7338 O   0  0  0  0  0  0
  -30.9114  -17.8507   20.0294 C   0  0  0  0  0  0
  -28.8237  -19.3657   21.1274 C   0  0  0  0  0  0
  -30.8901  -19.2736   19.8964 C   0  0  0  0  0  0
  -29.8478  -20.0798   20.4459 C   0  0  0  0  0  0
  -29.8937  -17.1460   20.7206 C   0  0  0  0  0  0
  -28.8382  -17.9326   21.2629 C   0  0  0  0  0  0
  -29.0090  -22.4165   20.3903 C   0  0  0  0  0  0
  -32.0290  -19.9415   19.1430 C   0  0  0  0  0  0
  -26.7847  -17.9393   22.5241 C   0  0  0  0  0  0
  -29.2847  -23.9764   20.3796 C   0  0  0  0  0  0
  -28.0966  -24.9834   20.0497 C   0  0  0  0  0  0
  -29.9519  -21.5188   20.3606 N   0  0  0  0  0  0
  -29.8277  -15.6910   20.8947 N   0  0  0  0  0  0
  -27.8529  -17.2220   21.9209 O   0  0  0  0  0  0
  -31.4806  -12.5143   19.1599 H   0  0  0  0  0  0
  -30.3698  -11.3994   19.9046 H   0  0  0  0  0  0
  -29.7725  -11.7521   17.4890 H   0  0  0  0  0  0
  -29.6483  -13.4747   17.7481 H   0  0  0  0  0  0
  -27.8751  -11.2901   18.8838 H   0  0  0  0  0  0
  -27.3739  -12.5642   17.8046 H   0  0  0  0  0  0
  -27.6729  -14.2524   19.5279 H   0  0  0  0  0  0
  -28.7110  -12.0579   21.3906 H   0  0  0  0  0  0
  -28.4427  -13.7132   21.8498 H   0  0  0  0  0  0
  -25.2750   -9.5696   22.4756 H   0  0  0  0  0  0
  -23.9999   -7.4639   22.7470 H   0  0  0  0  0  0
  -21.0833   -8.8761   19.8948 H   0  0  0  0  0  0
  -22.3678  -10.9667   19.6158 H   0  0  0  0  0  0
  -21.2009   -7.6145   23.9709 H   0  0  0  0  0  0
  -21.1478   -6.0523   25.9074 H   0  0  0  0  0  0
  -22.0601   -2.7601   23.2857 H   0  0  0  0  0  0
  -22.4107  -11.9853   22.4757 H   0  0  0  0  0  0
  -21.1123  -13.1241   22.2633 H   0  0  0  0  0  0
  -24.6745  -15.8494   20.5596 H   0  0  0  0  0  0
  -26.3039  -15.6357   20.1681 H   0  0  0  0  0  0
  -26.7190  -32.5420   23.1092 H   0  0  0  0  0  0
  -25.0068  -33.9708   25.0395 H   0  0  0  0  0  0
  -22.7141  -31.3053   21.4024 H   0  0  0  0  0  0
  -23.3778  -35.9586   23.3205 H   0  0  0  0  0  0
  -24.3603  -36.8999   22.2072 H   0  0  0  0  0  0
  -23.7181  -37.6434   23.6718 H   0  0  0  0  0  0
  -26.1063  -31.5498   20.6123 H   0  0  0  0  0  0
  -26.8415  -30.8242   22.0124 H   0  0  0  0  0  0
  -28.1161  -28.9696   21.1834 H   0  0  0  0  0  0
  -25.9448  -25.9288   19.0015 H   0  0  0  0  0  0
  -23.9641  -27.3149   19.0068 H   0  0  0  0  0  0
  -23.7579  -30.6012   19.4054 H   0  0  0  0  0  0
  -22.7538  -29.2561   19.8528 H   0  0  0  0  0  0
  -25.1262  -36.1896   25.0807 H   0  0  0  0  0  0
  -20.9968  -28.3253   24.1394 H   0  0  0  0  0  0
  -20.5655  -26.2294   23.3594 H   0  0  0  0  0  0
  -21.6640  -26.7426   22.1200 H   0  0  0  0  0  0
  -19.6921  -25.6287   21.1227 H   0  0  0  0  0  0
  -19.6700  -27.3194   20.6734 H   0  0  0  0  0  0
  -17.4197  -26.6668   21.4009 H   0  0  0  0  0  0
  -18.0332  -26.0059   22.8996 H   0  0  0  0  0  0
  -19.7950  -30.7261   24.2250 H   0  0  0  0  0  0
  -17.5035  -31.6265   24.5166 H   0  0  0  0  0  0
  -15.5362  -30.2995   23.7676 H   0  0  0  0  0  0
  -15.8659  -28.0837   22.7061 H   0  0  0  0  0  0
  -24.5860  -30.7139   25.7812 H   0  0  0  0  0  0
  -24.8956  -32.2953   26.4912 H   0  0  0  0  0  0
  -25.8031  -30.8925   27.0248 H   0  0  0  0  0  0
  -26.2924  -29.6762   24.1233 H   0  0  0  0  0  0
  -27.3975  -29.7262   25.4759 H   0  0  0  0  0  0
  -27.8808  -30.4266   23.9496 H   0  0  0  0  0  0
  -27.2614  -33.3643   26.2084 H   0  0  0  0  0  0
  -28.3836  -32.6946   25.0337 H   0  0  0  0  0  0
  -28.0721  -31.8502   26.5424 H   0  0  0  0  0  0
  -28.2489  -38.0188   24.7662 H   0  0  0  0  0  0
  -28.1210  -36.2730   24.6000 H   0  0  0  0  0  0
  -27.2364  -37.1089   25.8841 H   0  0  0  0  0  0
  -20.9376  -29.8778   21.6898 H   0  0  0  0  0  0
  -26.0119  -38.2827   24.1593 H   0  0  0  0  0  0
  -31.7291  -17.2996   19.5891 H   0  0  0  0  0  0
  -28.0282  -19.9406   21.5747 H   0  0  0  0  0  0
  -27.9518  -22.1420   20.4338 H   0  0  0  0  0  0
  -32.7508  -19.2169   18.7652 H   0  0  0  0  0  0
  -32.5595  -20.6387   19.7924 H   0  0  0  0  0  0
  -31.6400  -20.4998   18.2905 H   0  0  0  0  0  0
  -26.0978  -17.2340   22.9923 H   0  0  0  0  0  0
  -26.2166  -18.5082   21.7869 H   0  0  0  0  0  0
  -27.1440  -18.6135   23.3030 H   0  0  0  0  0  0
  -30.0935  -24.1642   19.6735 H   0  0  0  0  0  0
  -29.6836  -24.2358   21.3591 H   0  0  0  0  0  0
  -27.2610  -24.7301   20.7031 H   0  0  0  0  0  0
  -27.7728  -24.7627   19.0317 H   0  0  0  0  0  0
  -28.9533  -15.3877   21.2976 H   0  0  0  0  0  0
  1 25  1  0  0  0
  1 30  2  0  0  0
  1 83  1  0  0  0
  2  3  1  0  0  0
  2 25  1  0  0  0
  2 85  1  0  0  0
  2 86  1  0  0  0
  3  4  1  0  0  0
  3 87  1  0  0  0
  3 88  1  0  0  0
  4  5  1  0  0  0
  4 89  1  0  0  0
  4 90  1  0  0  0
  5  6  1  0  0  0
  5 26  1  0  0  0
  5 91  1  0  0  0
  6 25  1  0  0  0
  6 92  1  0  0  0
  6 93  1  0  0  0
  7  8  2  0  0  0
  7 26  1  0  0  0
  7 29  1  0  0  0
  8  9  1  0  0  0
  8 22  1  0  0  0
  9 10  1  0  0  0
  9 27  2  0  0  0
 10 11  2  0  0  0
 10 15  1  0  0  0
 11 12  1  0  0  0
 11 94  1  0  0  0
 12 13  2  0  0  0
 12 95  1  0  0  0
 13 14  1  0  0  0
 13 31  1  0  0  0
 14 15  2  0  0  0
 14 96  1  0  0  0
 15 97  1  0  0  0
 16 17  2  0  0  0
 16 21  1  0  0  0
 16 31  1  0  0  0
 17 18  1  0  0  0
 17 98  1  0  0  0
 18 19  2  0  0  0
 18 99  1  0  0  0
 19 20  1  0  0  0
 19 24  1  0  0  0
 20 21  2  0  0  0
 20100  1  0  0  0
 21 23  1  0  0  0
 22 28  1  0  0  0
 22 32  2  0  0  0
 26 27  1  0  0  0
 28101  1  0  0  0
 28102  1  0  0  0
 29103  1  0  0  0
 29104  1  0  0  0
 33 34  1  0  0  0
 33 66  1  0  0  0
 33 70  2  0  0  0
 34 36  1  0  0  0
 34 59  1  0  0  0
 34105  1  0  0  0
 35 44  2  0  0  0
 35 45  1  0  0  0
 35 68  1  0  0  0
 36 56  1  0  0  0
 36106  1  0  0  0
 37 39  1  0  0  0
 37 47  1  0  0  0
 37 66  1  0  0  0
 37107  1  0  0  0
 38 43  2  0  0  0
 38 46  1  0  0  0
 38 47  1  0  0  0
 39 64  1  0  0  0
 39 67  2  0  0  0
 40 52  1  0  0  0
 40 53  2  0  0  0
 40 58  1  0  0  0
 41108  1  0  0  0
 41109  1  0  0  0
 41110  1  0  0  0
 41 48  1  0  0  0
 42 43  1  0  0  0
 42 66  1  0  0  0
 42111  1  0  0  0
 42112  1  0  0  0
 43 44  1  0  0  0
 44113  1  0  0  0
 45 46  2  0  0  0
 45114  1  0  0  0
 46115  1  0  0  0
 47116  1  0  0  0
 47117  1  0  0  0
 48 56  1  0  0  0
 48 65  1  0  0  0
 48118  1  0  0  0
 49 50  1  0  0  0
 49 53  1  0  0  0
 49 64  1  0  0  0
 49119  1  0  0  0
 50 51  1  0  0  0
 50120  1  0  0  0
 50121  1  0  0  0
 51 52  1  0  0  0
 51122  1  0  0  0
 51123  1  0  0  0
 52124  1  0  0  0
 52125  1  0  0  0
 53 54  1  0  0  0
 54 55  2  0  0  0
 54126  1  0  0  0
 55 57  1  0  0  0
 55127  1  0  0  0
 56 69  2  0  0  0
 57 58  2  0  0  0
 57128  1  0  0  0
 58129  1  0  0  0
 59 60  1  0  0  0
 59 61  1  0  0  0
 59 62  1  0  0  0
 60130  1  0  0  0
 60131  1  0  0  0
 60132  1  0  0  0
 61133  1  0  0  0
 61134  1  0  0  0
 61135  1  0  0  0
 62136  1  0  0  0
 62137  1  0  0  0
 62138  1  0  0  0
 63 65  1  0  0  0
 63139  1  0  0  0
 63140  1  0  0  0
 63141  1  0  0  0
 64142  1  0  0  0
 65143  1  0  0  0
 68 81  1  0  0  0
 71 73  2  0  0  0
 71 75  1  0  0  0
 71144  1  0  0  0
 72 74  2  0  0  0
 72 76  1  0  0  0
 72145  1  0  0  0
 73 74  1  0  0  0
 73 78  1  0  0  0
 74 82  1  0  0  0
 75 76  2  0  0  0
 75 83  1  0  0  0
 76 84  1  0  0  0
 77 80  1  0  0  0
 77 82  2  0  0  0
 77146  1  0  0  0
 78147  1  0  0  0
 78148  1  0  0  0
 78149  1  0  0  0
 79 84  1  0  0  0
 79150  1  0  0  0
 79151  1  0  0  0
 79152  1  0  0  0
 80 81  1  0  0  0
 80153  1  0  0  0
 80154  1  0  0  0
 81155  1  0  0  0
 81156  1  0  0  0
 83157  1  0  0  0
M  ISO  4   1 100  68 101  81 101  83 100
M  END
> <chiral flag>
0

> <version>
0

> <s_m_source_file>
/data/baiqing/PycharmProjects/Reinvent-master-3.2/result/LINK_invent/BTK/process_docking_weight1_custom_product_contain_oxygen_bond_distance_aromatic_linkinvent_7_9_3/rearranged_h_0113.sdf

> <i_m_source_file_index>
21

> <r_mmod_Potential_Energy-OPLS-2005>
0.567274928092957

> <r_mmod_Stretch_Energy-OPLS-2005>
85.6762008666992

> <r_mmod_Bend_Energy-OPLS-2005>
158.158462524414

> <r_mmod_Torsional_Energy-OPLS-2005>
211.338485717773

> <r_mmod_Improper_Torsional_Energy-OPLS-2005>
3.53792309761047

> <r_mmod_Van_der_Waal_Energy-OPLS-2005>
151.32763671875

> <r_mmod_Electrostatic_Energy-OPLS-2005>
-450.361755371094

> <r_mmod_Solvation_Energy-OPLS-2005>
-211.374893188477

> <b_mmod_Minimization_Converged-OPLS-2005>
0

> <r_mmod_RMS_Derivative-OPLS-2005>
1.43225431442261

$$$$
21
                    3D
 Structure written by MMmdl.
168177  0  0  1  0            999 V2000
  -30.6810  -14.5799   20.5016 C   0  0  0  0  0  0
  -30.4261  -12.3554   19.4520 C   0  0  0  0  0  0
  -29.5021  -12.5070   18.2235 C   0  0  0  0  0  0
  -28.0242  -12.3565   18.6338 C   0  0  0  0  0  0
  -27.6559  -13.2132   19.8743 C   0  0  2  0  0  0
  -28.7050  -13.0675   21.0024 C   0  0  0  0  0  0
  -25.2570  -13.8153   20.5704 C   0  0  0  0  0  0
  -24.1825  -13.0427   20.9192 C   0  0  0  0  0  0
  -24.6393  -11.6898   20.8746 C   0  0  0  0  0  0
  -23.9056  -10.4283   21.0403 C   0  0  0  0  0  0
  -24.3607   -9.4198   21.9181 C   0  0  0  0  0  0
  -23.6291   -8.2228   22.0745 C   0  0  0  0  0  0
  -22.4272   -8.0270   21.3537 C   0  0  0  0  0  0
  -21.9907   -9.0244   20.4639 C   0  0  0  0  0  0
  -22.7229  -10.2128   20.3051 C   0  0  0  0  0  0
  -21.6847   -6.0730   22.5273 C   0  0  0  0  0  0
  -21.4010   -6.5635   23.8207 C   0  0  0  0  0  0
  -21.3662   -5.6790   24.9170 C   0  0  0  0  0  0
  -21.6049   -4.3052   24.7221 C   0  0  0  0  0  0
  -21.8824   -3.8144   23.4341 C   0  0  0  0  0  0
  -21.9191   -4.6957   22.3399 C   0  0  0  0  0  0
  -22.7849  -13.5223   21.1856 C   0  0  0  0  0  0
  -22.1661   -4.2142   21.0977 F   0  0  0  0  0  0
  -21.5639   -3.4539   25.7737 F   0  0  0  0  0  0
  -30.0302  -13.3775   20.4399 N   0  0  0  0  0  0
  -26.3008  -12.9330   20.3396 N   0  0  0  0  0  0
  -25.9328  -11.6488   20.5793 N   0  0  0  0  0  0
  -22.0485  -12.8212   22.0407 N   0  0  0  0  0  0
  -25.4290  -15.1872   20.4108 N   0  0  0  0  0  0
  -31.8230  -14.7272   20.0601 O   0  0  0  0  0  0
  -21.6636   -6.8866   21.4232 O   0  0  0  0  0  0
  -22.3544  -14.5538   20.6715 O   0  0  0  0  0  0
  -24.6225  -31.8637   23.2084 C   0  0  0  0  0  0
  -25.9092  -32.4801   23.8399 C   0  0  1  0  0  0
  -27.2217  -27.3696   20.1061 C   0  0  0  0  0  0
  -25.5930  -33.8604   24.2323 N   0  0  0  0  0  0
  -23.4154  -30.4901   21.5484 C   0  0  2  0  0  0
  -24.8659  -28.9653   20.0972 C   0  0  0  0  0  0
  -22.7470  -29.4639   22.4937 C   0  0  0  0  0  0
  -18.0287  -28.1384   22.8489 C   0  0  0  0  0  0
  -24.1484  -36.7297   23.2636 C   0  0  0  0  0  0
  -25.9544  -30.8087   21.3769 C   0  0  0  0  0  0
  -26.0318  -29.4444   20.7120 C   0  0  0  0  0  0
  -27.2160  -28.6537   20.7182 C   0  0  0  0  0  0
  -26.0494  -26.9532   19.4331 C   0  0  0  0  0  0
  -24.8746  -27.7226   19.4474 C   0  0  0  0  0  0
  -23.6285  -29.8344   20.1591 C   0  0  0  0  0  0
  -25.4103  -36.3099   24.0343 C   0  0  1  0  0  0
  -20.5886  -28.3685   23.1285 C   0  0  2  0  0  0
  -20.6774  -26.9410   22.5409 C   0  0  0  0  0  0
  -19.5750  -26.6386   21.5213 C   0  0  0  0  0  0
  -18.1930  -26.7930   22.1622 C   0  0  0  0  0  0
  -19.1539  -28.8853   23.2883 C   0  0  0  0  0  0
  -18.9458  -30.1453   23.8900 C   0  0  0  0  0  0
  -17.6460  -30.6586   24.0563 C   0  0  0  0  0  0
  -25.9043  -34.9467   23.5128 C   0  0  0  0  0  0
  -16.5352  -29.9082   23.6331 C   0  0  0  0  0  0
  -16.7275  -28.6499   23.0355 C   0  0  0  0  0  0
  -26.4494  -31.6597   25.0750 C   0  0  0  0  0  0
  -25.3742  -31.3719   26.1486 C   0  0  0  0  0  0
  -27.0333  -30.3030   24.6175 C   0  0  0  0  0  0
  -27.6066  -32.4323   25.7506 C   0  0  0  0  0  0
  -27.5584  -37.1790   24.8458 C   0  0  0  0  0  0
  -21.4187  -29.3043   22.3685 N   0  0  0  0  0  0
  -26.4279  -37.3795   23.9430 N   0  0  0  0  0  0
  -24.6823  -31.0689   22.1016 N   0  0  0  0  0  0
  -23.4209  -28.8167   23.2997 O   0  0  0  0  0  0
  -28.2580  -26.4432   20.2415 O   0  0  0  0  0  0
  -26.5598  -34.8925   22.4686 O   0  0  0  0  0  0
  -23.5399  -32.1419   23.7431 O   0  0  0  0  0  0
  -29.0548  -19.1931   18.6842 C   0  0  0  0  0  0
  -29.0880  -16.7741   18.9408 C   0  0  0  0  0  0
  -30.1187  -18.1864   20.6435 C   0  0  0  0  0  0
  -28.7217  -17.9123   18.1938 C   0  0  0  0  0  0
  -29.7660  -19.3565   19.8917 C   0  0  0  0  0  0
  -29.7673  -16.8750   20.1769 C   0  0  0  0  0  0
  -28.3018  -23.9547   20.8104 C   0  0  0  0  0  0
  -28.0370  -17.7157   16.9019 C   0  0  0  0  0  0
  -27.8082  -25.2290   20.7826 C   0  0  0  0  0  0
  -27.7686  -18.6617   15.9837 C   0  0  0  0  0  0
  -30.2061  -20.7509   20.2070 C   0  0  0  0  0  0
  -27.4246  -22.8352   21.3266 C   0  0  0  0  0  0
  -27.9264  -21.5687   20.6399 C   0  0  0  0  0  0
  -29.6127  -23.3149   20.3221 C   0  0  1  0  0  0
  -27.0645  -18.3924   14.6712 C   0  0  0  0  0  0
  -30.7935  -23.7797   21.1939 C   0  0  0  0  0  0
  -29.3542  -21.8168   20.3829 N   0  0  0  0  0  0
  -29.9681  -15.6543   20.9334 N   0  0  0  0  0  0
  -31.5139  -20.9731   20.2372 N   0  3  0  0  0  0
  -31.4712  -12.4480   19.1518 H   0  0  0  0  0  0
  -30.3304  -11.3579   19.8835 H   0  0  0  0  0  0
  -29.7554  -11.7627   17.4671 H   0  0  0  0  0  0
  -29.6580  -13.4808   17.7567 H   0  0  0  0  0  0
  -27.8476  -11.3019   18.8478 H   0  0  0  0  0  0
  -27.3722  -12.6079   17.7965 H   0  0  0  0  0  0
  -27.6682  -14.2490   19.5466 H   0  0  0  0  0  0
  -28.7002  -12.0512   21.4004 H   0  0  0  0  0  0
  -28.4588  -13.7168   21.8435 H   0  0  0  0  0  0
  -25.2745   -9.5679   22.4764 H   0  0  0  0  0  0
  -24.0000   -7.4620   22.7463 H   0  0  0  0  0  0
  -21.0838   -8.8759   19.8947 H   0  0  0  0  0  0
  -22.3676  -10.9669   19.6170 H   0  0  0  0  0  0
  -21.1989   -7.6144   23.9704 H   0  0  0  0  0  0
  -21.1491   -6.0521   25.9074 H   0  0  0  0  0  0
  -22.0602   -2.7605   23.2839 H   0  0  0  0  0  0
  -22.4087  -11.9862   22.4784 H   0  0  0  0  0  0
  -21.1108  -13.1242   22.2617 H   0  0  0  0  0  0
  -24.6623  -15.8419   20.5197 H   0  0  0  0  0  0
  -26.2844  -15.6296   20.1031 H   0  0  0  0  0  0
  -26.7161  -32.5496   23.1157 H   0  0  0  0  0  0
  -25.0114  -33.9757   25.0495 H   0  0  0  0  0  0
  -22.7072  -31.3099   21.4116 H   0  0  0  0  0  0
  -23.3764  -35.9607   23.3268 H   0  0  0  0  0  0
  -24.3589  -36.8939   22.2057 H   0  0  0  0  0  0
  -23.7201  -37.6481   23.6664 H   0  0  0  0  0  0
  -26.0827  -31.5776   20.6136 H   0  0  0  0  0  0
  -26.8356  -30.8536   22.0047 H   0  0  0  0  0  0
  -28.0986  -28.9975   21.2384 H   0  0  0  0  0  0
  -26.0249  -25.9904   18.9417 H   0  0  0  0  0  0
  -23.9853  -27.3517   18.9562 H   0  0  0  0  0  0
  -23.7379  -30.6165   19.4073 H   0  0  0  0  0  0
  -22.7514  -29.2593   19.8575 H   0  0  0  0  0  0
  -25.1270  -36.1956   25.0834 H   0  0  0  0  0  0
  -20.9981  -28.3252   24.1404 H   0  0  0  0  0  0
  -20.5674  -26.2298   23.3606 H   0  0  0  0  0  0
  -21.6638  -26.7440   22.1194 H   0  0  0  0  0  0
  -19.6903  -25.6297   21.1242 H   0  0  0  0  0  0
  -19.6684  -27.3197   20.6744 H   0  0  0  0  0  0
  -17.4199  -26.6691   21.4024 H   0  0  0  0  0  0
  -18.0318  -26.0068   22.9012 H   0  0  0  0  0  0
  -19.7938  -30.7267   24.2273 H   0  0  0  0  0  0
  -17.5016  -31.6266   24.5160 H   0  0  0  0  0  0
  -15.5350  -30.2983   23.7656 H   0  0  0  0  0  0
  -15.8673  -28.0818   22.7071 H   0  0  0  0  0  0
  -24.5911  -30.7072   25.7820 H   0  0  0  0  0  0
  -24.8938  -32.2879   26.4942 H   0  0  0  0  0  0
  -25.8083  -30.8880   27.0246 H   0  0  0  0  0  0
  -26.2900  -29.6782   24.1207 H   0  0  0  0  0  0
  -27.4058  -29.7282   25.4666 H   0  0  0  0  0  0
  -27.8763  -30.4336   23.9381 H   0  0  0  0  0  0
  -27.2695  -33.3628   26.2088 H   0  0  0  0  0  0
  -28.3869  -32.6870   25.0321 H   0  0  0  0  0  0
  -28.0741  -31.8442   26.5416 H   0  0  0  0  0  0
  -28.2562  -38.0127   24.7567 H   0  0  0  0  0  0
  -28.1116  -36.2664   24.6195 H   0  0  0  0  0  0
  -27.2319  -37.1326   25.8862 H   0  0  0  0  0  0
  -20.9360  -29.8785   21.6916 H   0  0  0  0  0  0
  -26.0166  -38.2865   24.1472 H   0  0  0  0  0  0
  -28.8066  -20.0762   18.1126 H   0  0  0  0  0  0
  -28.8322  -15.8025   18.5479 H   0  0  0  0  0  0
  -30.6561  -18.3021   21.5742 H   0  0  0  0  0  0
  -27.7233  -16.7029   16.6888 H   0  0  0  0  0  0
  -26.8344  -25.3566   21.2394 H   0  0  0  0  0  0
  -28.0571  -19.6900   16.1430 H   0  0  0  0  0  0
  -26.3712  -23.0166   21.1102 H   0  0  0  0  0  0
  -27.5380  -22.7496   22.4075 H   0  0  0  0  0  0
  -27.4059  -21.4155   19.6929 H   0  0  0  0  0  0
  -27.7532  -20.6910   21.2660 H   0  0  0  0  0  0
  -29.7743  -23.6226   19.2876 H   0  0  0  0  0  0
  -26.8050  -17.3383   14.5633 H   0  0  0  0  0  0
  -27.7078  -18.6729   13.8365 H   0  0  0  0  0  0
  -26.1479  -18.9795   14.6083 H   0  0  0  0  0  0
  -30.8647  -23.2125   22.1224 H   0  0  0  0  0  0
  -30.6860  -24.8311   21.4651 H   0  0  0  0  0  0
  -31.7392  -23.6954   20.6600 H   0  0  0  0  0  0
  -29.1583  -15.3771   21.4684 H   0  0  0  0  0  0
  -32.1491  -20.2151   20.0381 H   0  0  0  0  0  0
  -31.8856  -21.8768   20.4730 H   0  0  0  0  0  0
  1 25  1  0  0  0
  1 30  2  0  0  0
  1 88  1  0  0  0
  2  3  1  0  0  0
  2 25  1  0  0  0
  2 90  1  0  0  0
  2 91  1  0  0  0
  3  4  1  0  0  0
  3 92  1  0  0  0
  3 93  1  0  0  0
  4  5  1  0  0  0
  4 94  1  0  0  0
  4 95  1  0  0  0
  5  6  1  0  0  0
  5 26  1  0  0  0
  5 96  1  0  0  0
  6 25  1  0  0  0
  6 97  1  0  0  0
  6 98  1  0  0  0
  7  8  2  0  0  0
  7 26  1  0  0  0
  7 29  1  0  0  0
  8  9  1  0  0  0
  8 22  1  0  0  0
  9 10  1  0  0  0
  9 27  2  0  0  0
 10 11  2  0  0  0
 10 15  1  0  0  0
 11 12  1  0  0  0
 11 99  1  0  0  0
 12 13  2  0  0  0
 12100  1  0  0  0
 13 14  1  0  0  0
 13 31  1  0  0  0
 14 15  2  0  0  0
 14101  1  0  0  0
 15102  1  0  0  0
 16 17  2  0  0  0
 16 21  1  0  0  0
 16 31  1  0  0  0
 17 18  1  0  0  0
 17103  1  0  0  0
 18 19  2  0  0  0
 18104  1  0  0  0
 19 20  1  0  0  0
 19 24  1  0  0  0
 20 21  2  0  0  0
 20105  1  0  0  0
 21 23  1  0  0  0
 22 28  1  0  0  0
 22 32  2  0  0  0
 26 27  1  0  0  0
 28106  1  0  0  0
 28107  1  0  0  0
 29108  1  0  0  0
 29109  1  0  0  0
 33 34  1  0  0  0
 33 66  1  0  0  0
 33 70  2  0  0  0
 34 36  1  0  0  0
 34 59  1  0  0  0
 34110  1  0  0  0
 35 44  2  0  0  0
 35 45  1  0  0  0
 35 68  1  0  0  0
 36 56  1  0  0  0
 36111  1  0  0  0
 37 39  1  0  0  0
 37 47  1  0  0  0
 37 66  1  0  0  0
 37112  1  0  0  0
 38 43  2  0  0  0
 38 46  1  0  0  0
 38 47  1  0  0  0
 39 64  1  0  0  0
 39 67  2  0  0  0
 40 52  1  0  0  0
 40 53  2  0  0  0
 40 58  1  0  0  0
 41113  1  0  0  0
 41114  1  0  0  0
 41115  1  0  0  0
 41 48  1  0  0  0
 42 43  1  0  0  0
 42 66  1  0  0  0
 42116  1  0  0  0
 42117  1  0  0  0
 43 44  1  0  0  0
 44118  1  0  0  0
 45 46  2  0  0  0
 45119  1  0  0  0
 46120  1  0  0  0
 47121  1  0  0  0
 47122  1  0  0  0
 48 56  1  0  0  0
 48 65  1  0  0  0
 48123  1  0  0  0
 49 50  1  0  0  0
 49 53  1  0  0  0
 49 64  1  0  0  0
 49124  1  0  0  0
 50 51  1  0  0  0
 50125  1  0  0  0
 50126  1  0  0  0
 51 52  1  0  0  0
 51127  1  0  0  0
 51128  1  0  0  0
 52129  1  0  0  0
 52130  1  0  0  0
 53 54  1  0  0  0
 54 55  2  0  0  0
 54131  1  0  0  0
 55 57  1  0  0  0
 55132  1  0  0  0
 56 69  2  0  0  0
 57 58  2  0  0  0
 57133  1  0  0  0
 58134  1  0  0  0
 59 60  1  0  0  0
 59 61  1  0  0  0
 59 62  1  0  0  0
 60135  1  0  0  0
 60136  1  0  0  0
 60137  1  0  0  0
 61138  1  0  0  0
 61139  1  0  0  0
 61140  1  0  0  0
 62141  1  0  0  0
 62142  1  0  0  0
 62143  1  0  0  0
 63 65  1  0  0  0
 63144  1  0  0  0
 63145  1  0  0  0
 63146  1  0  0  0
 64147  1  0  0  0
 65148  1  0  0  0
 68 79  1  0  0  0
 71 74  2  0  0  0
 71 75  1  0  0  0
 71149  1  0  0  0
 72 74  1  0  0  0
 72 76  2  0  0  0
 72150  1  0  0  0
 73 75  2  0  0  0
 73 76  1  0  0  0
 73151  1  0  0  0
 74 78  1  0  0  0
 75 81  1  0  0  0
 76 88  1  0  0  0
 77 79  2  0  0  0
 77 82  1  0  0  0
 77 84  1  0  0  0
 78 80  2  0  0  0
 78152  1  0  0  0
 79153  1  0  0  0
 80 85  1  0  0  0
 80154  1  0  0  0
 81 87  1  0  0  0
 81 89  2  0  0  0
 82 83  1  0  0  0
 82155  1  0  0  0
 82156  1  0  0  0
 83 87  1  0  0  0
 83157  1  0  0  0
 83158  1  0  0  0
 84 86  1  0  0  0
 84 87  1  0  0  0
 84159  1  0  0  0
 85160  1  0  0  0
 85161  1  0  0  0
 85162  1  0  0  0
 86163  1  0  0  0
 86164  1  0  0  0
 86165  1  0  0  0
 88166  1  0  0  0
 89167  1  0  0  0
 89168  1  0  0  0
M  CHG  1  89   1
M  ISO  4   1 100  68 101  79 101  88 100
M  END
> <chiral flag>
0

> <version>
0

> <s_m_source_file>
/data/baiqing/PycharmProjects/Reinvent-master-3.2/result/LINK_invent/BTK/process_docking_weight1_custom_product_contain_oxygen_bond_distance_aromatic_linkinvent_7_9_3/rearranged_h_0113.sdf

> <i_m_source_file_index>
22

> <r_mmod_Potential_Energy-OPLS-2005>
-38.6426696777344

> <r_mmod_Stretch_Energy-OPLS-2005>
62.1322288513184

> <r_mmod_Bend_Energy-OPLS-2005>
169.405838012695

> <r_mmod_Torsional_Energy-OPLS-2005>
309.551452636719

> <r_mmod_Improper_Torsional_Energy-OPLS-2005>
8.10671997070312

> <r_mmod_Van_der_Waal_Energy-OPLS-2005>
149.28401184082

> <r_mmod_Electrostatic_Energy-OPLS-2005>
-393.628204345703

> <r_mmod_Solvation_Energy-OPLS-2005>
-386.284973144531

> <b_mmod_Minimization_Converged-OPLS-2005>
0

> <r_mmod_RMS_Derivative-OPLS-2005>
1.04795718193054

$$$$
22
                    3D
 Structure written by MMmdl.
170179  0  0  1  0            999 V2000
  -30.6405  -14.6226   20.4784 C   0  0  0  0  0  0
  -30.4390  -12.3818   19.4403 C   0  0  0  0  0  0
  -29.5042  -12.5021   18.2170 C   0  0  0  0  0  0
  -28.0295  -12.3357   18.6356 C   0  0  0  0  0  0
  -27.6552  -13.2132   19.8600 C   0  0  2  0  0  0
  -28.7029  -13.0726   20.9872 C   0  0  0  0  0  0
  -25.2585  -13.8170   20.5691 C   0  0  0  0  0  0
  -24.1847  -13.0437   20.9183 C   0  0  0  0  0  0
  -24.6405  -11.6904   20.8730 C   0  0  0  0  0  0
  -23.9065  -10.4293   21.0392 C   0  0  0  0  0  0
  -24.3607   -9.4212   21.9174 C   0  0  0  0  0  0
  -23.6292   -8.2244   22.0743 C   0  0  0  0  0  0
  -22.4276   -8.0285   21.3540 C   0  0  0  0  0  0
  -21.9913   -9.0249   20.4636 C   0  0  0  0  0  0
  -22.7241  -10.2131   20.3041 C   0  0  0  0  0  0
  -21.6860   -6.0739   22.5282 C   0  0  0  0  0  0
  -21.4015   -6.5636   23.8212 C   0  0  0  0  0  0
  -21.3654   -5.6786   24.9178 C   0  0  0  0  0  0
  -21.6045   -4.3048   24.7226 C   0  0  0  0  0  0
  -21.8822   -3.8139   23.4342 C   0  0  0  0  0  0
  -21.9195   -4.6965   22.3405 C   0  0  0  0  0  0
  -22.7872  -13.5237   21.1855 C   0  0  0  0  0  0
  -22.1667   -4.2149   21.0985 F   0  0  0  0  0  0
  -21.5628   -3.4532   25.7732 F   0  0  0  0  0  0
  -30.0189  -13.4036   20.4169 N   0  0  0  0  0  0
  -26.3002  -12.9342   20.3322 N   0  0  0  0  0  0
  -25.9335  -11.6499   20.5752 N   0  0  0  0  0  0
  -22.0507  -12.8216   22.0397 N   0  0  0  0  0  0
  -25.4308  -15.1879   20.4148 N   0  0  0  0  0  0
  -31.8255  -14.7471   20.1620 O   0  0  0  0  0  0
  -21.6644   -6.8878   21.4238 O   0  0  0  0  0  0
  -22.3565  -14.5555   20.6732 O   0  0  0  0  0  0
  -24.6253  -31.8624   23.2038 C   0  0  0  0  0  0
  -25.9092  -32.4810   23.8367 C   0  0  1  0  0  0
  -27.2226  -27.3219   20.1153 C   0  0  0  0  0  0
  -25.5921  -33.8617   24.2287 N   0  0  0  0  0  0
  -23.4200  -30.4870   21.5443 C   0  0  2  0  0  0
  -24.8655  -28.9443   20.1076 C   0  0  0  0  0  0
  -22.7467  -29.4649   22.4910 C   0  0  0  0  0  0
  -18.0287  -28.1412   22.8517 C   0  0  0  0  0  0
  -24.1468  -36.7264   23.2647 C   0  0  0  0  0  0
  -25.9598  -30.7936   21.3728 C   0  0  0  0  0  0
  -26.0333  -29.4218   20.7145 C   0  0  0  0  0  0
  -27.2143  -28.6215   20.7116 C   0  0  0  0  0  0
  -26.0301  -26.9008   19.4793 C   0  0  0  0  0  0
  -24.8649  -27.6894   19.4803 C   0  0  0  0  0  0
  -23.6362  -29.8270   20.1569 C   0  0  0  0  0  0
  -25.4107  -36.3101   24.0343 C   0  0  1  0  0  0
  -20.5892  -28.3710   23.1282 C   0  0  2  0  0  0
  -20.6781  -26.9437   22.5404 C   0  0  0  0  0  0
  -19.5752  -26.6402   21.5223 C   0  0  0  0  0  0
  -18.1927  -26.7963   22.1626 C   0  0  0  0  0  0
  -19.1545  -28.8872   23.2912 C   0  0  0  0  0  0
  -18.9472  -30.1464   23.8936 C   0  0  0  0  0  0
  -17.6481  -30.6633   24.0570 C   0  0  0  0  0  0
  -25.9051  -34.9481   23.5112 C   0  0  0  0  0  0
  -16.5364  -29.9139   23.6342 C   0  0  0  0  0  0
  -16.7273  -28.6541   23.0396 C   0  0  0  0  0  0
  -26.4486  -31.6647   25.0746 C   0  0  0  0  0  0
  -25.3716  -31.3778   26.1464 C   0  0  0  0  0  0
  -27.0355  -30.3104   24.6162 C   0  0  0  0  0  0
  -27.6033  -32.4390   25.7523 C   0  0  0  0  0  0
  -27.5569  -37.1792   24.8477 C   0  0  0  0  0  0
  -21.4181  -29.3077   22.3666 N   0  0  0  0  0  0
  -26.4268  -37.3812   23.9436 N   0  0  0  0  0  0
  -24.6879  -31.0649   22.0982 N   0  0  0  0  0  0
  -23.4205  -28.8171   23.2974 O   0  0  0  0  0  0
  -28.3402  -26.4722   20.1755 O   0  0  0  0  0  0
  -26.5605  -34.8942   22.4665 O   0  0  0  0  0  0
  -23.5407  -32.1392   23.7371 O   0  0  0  0  0  0
  -29.2279  -19.4187   21.3419 C   0  0  0  0  0  0
  -30.7279  -19.2042   19.4866 C   0  0  0  0  0  0
  -29.2019  -17.9921   21.4824 C   0  0  0  0  0  0
  -30.0273  -20.0742   20.3751 C   0  0  0  0  0  0
  -29.9583  -17.1392   20.6180 C   0  0  0  0  0  0
  -30.7121  -17.7757   19.5899 C   0  0  0  0  0  0
  -30.1961  -24.5323   21.2360 C   0  0  0  0  0  0
  -29.2567  -24.0234   20.4103 C   0  0  0  0  0  0
  -31.3665  -23.8056   21.7107 C   0  0  0  0  0  0
  -27.2245  -17.9017   23.0307 C   0  0  0  0  0  0
  -28.3553  -17.3798   22.5280 C   0  0  0  0  0  0
  -32.2121  -23.1234   20.6482 C   0  0  0  0  0  0
  -31.6398  -21.8200   20.0753 C   0  0  0  0  0  0
  -29.1683  -22.4907   19.9528 C   0  0  1  0  0  0
  -28.9869  -22.3844   18.4276 C   0  0  0  0  0  0
  -32.4676  -17.5364   17.9565 C   0  0  0  0  0  0
  -28.1387  -25.0204   19.9378 C   0  0  0  0  0  0
  -30.2321  -21.5087   20.3791 N   0  0  0  0  0  0
  -29.8261  -15.6845   20.7624 N   0  0  0  0  0  0
  -31.7172  -23.7871   22.8937 O   0  0  0  0  0  0
  -31.3809  -16.9760   18.6858 O   0  0  0  0  0  0
  -31.4785  -12.5049   19.1303 H   0  0  0  0  0  0
  -30.3743  -11.3862   19.8803 H   0  0  0  0  0  0
  -29.7651  -11.7556   17.4654 H   0  0  0  0  0  0
  -29.6439  -13.4751   17.7425 H   0  0  0  0  0  0
  -27.8730  -11.2832   18.8731 H   0  0  0  0  0  0
  -27.3703  -12.5576   17.7966 H   0  0  0  0  0  0
  -27.6740  -14.2469   19.5129 H   0  0  0  0  0  0
  -28.7120  -12.0543   21.3790 H   0  0  0  0  0  0
  -28.4551  -13.7169   21.8320 H   0  0  0  0  0  0
  -25.2751   -9.5709   22.4749 H   0  0  0  0  0  0
  -24.0004   -7.4634   22.7464 H   0  0  0  0  0  0
  -21.0840   -8.8758   19.8940 H   0  0  0  0  0  0
  -22.3686  -10.9655   19.6141 H   0  0  0  0  0  0
  -21.2000   -7.6140   23.9722 H   0  0  0  0  0  0
  -21.1472   -6.0513   25.9083 H   0  0  0  0  0  0
  -22.0599   -2.7604   23.2840 H   0  0  0  0  0  0
  -22.4111  -11.9847   22.4734 H   0  0  0  0  0  0
  -21.1128  -13.1250   22.2624 H   0  0  0  0  0  0
  -24.6673  -15.8424   20.5437 H   0  0  0  0  0  0
  -26.2875  -15.6350   20.1151 H   0  0  0  0  0  0
  -26.7162  -32.5469   23.1125 H   0  0  0  0  0  0
  -25.0169  -33.9800   25.0489 H   0  0  0  0  0  0
  -22.7152  -31.3085   21.4028 H   0  0  0  0  0  0
  -23.3774  -35.9547   23.3316 H   0  0  0  0  0  0
  -24.3569  -36.8876   22.2063 H   0  0  0  0  0  0
  -23.7154  -37.6437   23.6655 H   0  0  0  0  0  0
  -26.0909  -31.5572   20.6050 H   0  0  0  0  0  0
  -26.8400  -30.8404   22.0013 H   0  0  0  0  0  0
  -28.1077  -28.9799   21.2027 H   0  0  0  0  0  0
  -25.9652  -25.9458   18.9796 H   0  0  0  0  0  0
  -23.9718  -27.3193   18.9962 H   0  0  0  0  0  0
  -23.7604  -30.6067   19.4037 H   0  0  0  0  0  0
  -22.7549  -29.2597   19.8505 H   0  0  0  0  0  0
  -25.1291  -36.1951   25.0838 H   0  0  0  0  0  0
  -21.0013  -28.3263   24.1390 H   0  0  0  0  0  0
  -20.5692  -26.2322   23.3605 H   0  0  0  0  0  0
  -21.6649  -26.7482   22.1183 H   0  0  0  0  0  0
  -19.6920  -25.6307   21.1267 H   0  0  0  0  0  0
  -19.6701  -27.3192   20.6741 H   0  0  0  0  0  0
  -17.4215  -26.6750   21.4005 H   0  0  0  0  0  0
  -18.0296  -26.0084   22.9001 H   0  0  0  0  0  0
  -19.7963  -30.7267   24.2313 H   0  0  0  0  0  0
  -17.5065  -31.6322   24.5149 H   0  0  0  0  0  0
  -15.5369  -30.3077   23.7669 H   0  0  0  0  0  0
  -15.8669  -28.0865   22.7130 H   0  0  0  0  0  0
  -24.5903  -30.7122   25.7791 H   0  0  0  0  0  0
  -24.8877  -32.2933   26.4881 H   0  0  0  0  0  0
  -25.8044  -30.8977   27.0254 H   0  0  0  0  0  0
  -26.2943  -29.6862   24.1158 H   0  0  0  0  0  0
  -27.4077  -29.7365   25.4658 H   0  0  0  0  0  0
  -27.8803  -30.4461   23.9403 H   0  0  0  0  0  0
  -27.2649  -33.3726   26.2038 H   0  0  0  0  0  0
  -28.3895  -32.6895   25.0390 H   0  0  0  0  0  0
  -28.0636  -31.8544   26.5495 H   0  0  0  0  0  0
  -28.2579  -38.0097   24.7579 H   0  0  0  0  0  0
  -28.1063  -36.2638   24.6239 H   0  0  0  0  0  0
  -27.2300  -37.1380   25.8879 H   0  0  0  0  0  0
  -20.9312  -29.8842   21.6942 H   0  0  0  0  0  0
  -26.0145  -38.2872   24.1474 H   0  0  0  0  0  0
  -28.6740  -20.0292   22.0400 H   0  0  0  0  0  0
  -31.3065  -19.6553   18.6973 H   0  0  0  0  0  0
  -30.1474  -25.5701   21.5326 H   0  0  0  0  0  0
  -26.6853  -17.3853   23.8130 H   0  0  0  0  0  0
  -26.8111  -18.8355   22.6785 H   0  0  0  0  0  0
  -28.7021  -16.4431   22.9434 H   0  0  0  0  0  0
  -33.2151  -22.9489   21.0380 H   0  0  0  0  0  0
  -32.3317  -23.8379   19.8336 H   0  0  0  0  0  0
  -32.2766  -21.0220   20.4628 H   0  0  0  0  0  0
  -31.7845  -21.8232   18.9945 H   0  0  0  0  0  0
  -28.2454  -22.1277   20.4065 H   0  0  0  0  0  0
  -29.8126  -22.8534   17.8917 H   0  0  0  0  0  0
  -28.0637  -22.8551   18.0937 H   0  0  0  0  0  0
  -28.9247  -21.3452   18.1026 H   0  0  0  0  0  0
  -33.0634  -16.7342   17.5203 H   0  0  0  0  0  0
  -33.1337  -18.1211   18.5941 H   0  0  0  0  0  0
  -32.1111  -18.1613   17.1376 H   0  0  0  0  0  0
  -27.2197  -24.6897   20.4251 H   0  0  0  0  0  0
  -27.9999  -24.9013   18.8649 H   0  0  0  0  0  0
  -28.9257  -15.3914   21.1058 H   0  0  0  0  0  0
  1 25  1  0  0  0
  1 30  2  0  0  0
  1 89  1  0  0  0
  2  3  1  0  0  0
  2 25  1  0  0  0
  2 92  1  0  0  0
  2 93  1  0  0  0
  3  4  1  0  0  0
  3 94  1  0  0  0
  3 95  1  0  0  0
  4  5  1  0  0  0
  4 96  1  0  0  0
  4 97  1  0  0  0
  5  6  1  0  0  0
  5 26  1  0  0  0
  5 98  1  0  0  0
  6 25  1  0  0  0
  6 99  1  0  0  0
  6100  1  0  0  0
  7  8  2  0  0  0
  7 26  1  0  0  0
  7 29  1  0  0  0
  8  9  1  0  0  0
  8 22  1  0  0  0
  9 10  1  0  0  0
  9 27  2  0  0  0
 10 11  2  0  0  0
 10 15  1  0  0  0
 11 12  1  0  0  0
 11101  1  0  0  0
 12 13  2  0  0  0
 12102  1  0  0  0
 13 14  1  0  0  0
 13 31  1  0  0  0
 14 15  2  0  0  0
 14103  1  0  0  0
 15104  1  0  0  0
 16 17  2  0  0  0
 16 21  1  0  0  0
 16 31  1  0  0  0
 17 18  1  0  0  0
 17105  1  0  0  0
 18 19  2  0  0  0
 18106  1  0  0  0
 19 20  1  0  0  0
 19 24  1  0  0  0
 20 21  2  0  0  0
 20107  1  0  0  0
 21 23  1  0  0  0
 22 28  1  0  0  0
 22 32  2  0  0  0
 26 27  1  0  0  0
 28108  1  0  0  0
 28109  1  0  0  0
 29110  1  0  0  0
 29111  1  0  0  0
 33 34  1  0  0  0
 33 66  1  0  0  0
 33 70  2  0  0  0
 34 36  1  0  0  0
 34 59  1  0  0  0
 34112  1  0  0  0
 35 44  2  0  0  0
 35 45  1  0  0  0
 35 68  1  0  0  0
 36 56  1  0  0  0
 36113  1  0  0  0
 37 39  1  0  0  0
 37 47  1  0  0  0
 37 66  1  0  0  0
 37114  1  0  0  0
 38 43  2  0  0  0
 38 46  1  0  0  0
 38 47  1  0  0  0
 39 64  1  0  0  0
 39 67  2  0  0  0
 40 52  1  0  0  0
 40 53  2  0  0  0
 40 58  1  0  0  0
 41115  1  0  0  0
 41116  1  0  0  0
 41117  1  0  0  0
 41 48  1  0  0  0
 42 43  1  0  0  0
 42 66  1  0  0  0
 42118  1  0  0  0
 42119  1  0  0  0
 43 44  1  0  0  0
 44120  1  0  0  0
 45 46  2  0  0  0
 45121  1  0  0  0
 46122  1  0  0  0
 47123  1  0  0  0
 47124  1  0  0  0
 48 56  1  0  0  0
 48 65  1  0  0  0
 48125  1  0  0  0
 49 50  1  0  0  0
 49 53  1  0  0  0
 49 64  1  0  0  0
 49126  1  0  0  0
 50 51  1  0  0  0
 50127  1  0  0  0
 50128  1  0  0  0
 51 52  1  0  0  0
 51129  1  0  0  0
 51130  1  0  0  0
 52131  1  0  0  0
 52132  1  0  0  0
 53 54  1  0  0  0
 54 55  2  0  0  0
 54133  1  0  0  0
 55 57  1  0  0  0
 55134  1  0  0  0
 56 69  2  0  0  0
 57 58  2  0  0  0
 57135  1  0  0  0
 58136  1  0  0  0
 59 60  1  0  0  0
 59 61  1  0  0  0
 59 62  1  0  0  0
 60137  1  0  0  0
 60138  1  0  0  0
 60139  1  0  0  0
 61140  1  0  0  0
 61141  1  0  0  0
 61142  1  0  0  0
 62143  1  0  0  0
 62144  1  0  0  0
 62145  1  0  0  0
 63 65  1  0  0  0
 63146  1  0  0  0
 63147  1  0  0  0
 63148  1  0  0  0
 64149  1  0  0  0
 65150  1  0  0  0
 68 87  1  0  0  0
 71 73  2  0  0  0
 71 74  1  0  0  0
 71151  1  0  0  0
 72 74  2  0  0  0
 72 76  1  0  0  0
 72152  1  0  0  0
 73 75  1  0  0  0
 73 81  1  0  0  0
 74 88  1  0  0  0
 75 76  2  0  0  0
 75 89  1  0  0  0
 76 91  1  0  0  0
 77 78  2  0  0  0
 77 79  1  0  0  0
 77153  1  0  0  0
 78 84  1  0  0  0
 78 87  1  0  0  0
 79 82  1  0  0  0
 79 90  2  0  0  0
 80 81  2  0  0  0
 80154  1  0  0  0
 80155  1  0  0  0
 81156  1  0  0  0
 82 83  1  0  0  0
 82157  1  0  0  0
 82158  1  0  0  0
 83 88  1  0  0  0
 83159  1  0  0  0
 83160  1  0  0  0
 84 85  1  0  0  0
 84 88  1  0  0  0
 84161  1  0  0  0
 85162  1  0  0  0
 85163  1  0  0  0
 85164  1  0  0  0
 86 91  1  0  0  0
 86165  1  0  0  0
 86166  1  0  0  0
 86167  1  0  0  0
 87168  1  0  0  0
 87169  1  0  0  0
 89170  1  0  0  0
M  ISO  4   1 100  68 101  87 101  89 100
M  END
> <chiral flag>
0

> <version>
0

> <s_m_source_file>
/data/baiqing/PycharmProjects/Reinvent-master-3.2/result/LINK_invent/BTK/process_docking_weight1_custom_product_contain_oxygen_bond_distance_aromatic_linkinvent_7_9_3/rearranged_h_0113.sdf

> <i_m_source_file_index>
23

> <r_mmod_Potential_Energy-OPLS-2005>
64.9373168945312

> <r_mmod_Stretch_Energy-OPLS-2005>
93.6962432861328

> <r_mmod_Bend_Energy-OPLS-2005>
162.608581542969

> <r_mmod_Torsional_Energy-OPLS-2005>
259.143188476562

> <r_mmod_Improper_Torsional_Energy-OPLS-2005>
7.18795013427734

> <r_mmod_Van_der_Waal_Energy-OPLS-2005>
172.799697875977

> <r_mmod_Electrostatic_Energy-OPLS-2005>
-439.212371826172

> <r_mmod_Solvation_Energy-OPLS-2005>
-238.414215087891

> <b_mmod_Minimization_Converged-OPLS-2005>
0

> <r_mmod_RMS_Derivative-OPLS-2005>
2.77450108528137

$$$$
23
                    3D
 Structure written by MMmdl.
149157  0  0  1  0            999 V2000
  -30.5950  -14.6843   20.4937 C   0  0  0  0  0  0
  -30.4454  -12.4192   19.4592 C   0  0  0  0  0  0
  -29.5128  -12.5139   18.2295 C   0  0  0  0  0  0
  -28.0361  -12.3431   18.6402 C   0  0  0  0  0  0
  -27.6533  -13.2174   19.8634 C   0  0  2  0  0  0
  -28.6980  -13.0816   20.9944 C   0  0  0  0  0  0
  -25.2566  -13.8168   20.5684 C   0  0  0  0  0  0
  -24.1832  -13.0436   20.9193 C   0  0  0  0  0  0
  -24.6399  -11.6906   20.8740 C   0  0  0  0  0  0
  -23.9065  -10.4291   21.0406 C   0  0  0  0  0  0
  -24.3616   -9.4207   21.9184 C   0  0  0  0  0  0
  -23.6292   -8.2242   22.0753 C   0  0  0  0  0  0
  -22.4274   -8.0281   21.3545 C   0  0  0  0  0  0
  -21.9908   -9.0255   20.4647 C   0  0  0  0  0  0
  -22.7237  -10.2134   20.3056 C   0  0  0  0  0  0
  -21.6852   -6.0736   22.5279 C   0  0  0  0  0  0
  -21.4013   -6.5639   23.8213 C   0  0  0  0  0  0
  -21.3660   -5.6792   24.9175 C   0  0  0  0  0  0
  -21.6045   -4.3055   24.7226 C   0  0  0  0  0  0
  -21.8819   -3.8147   23.4347 C   0  0  0  0  0  0
  -21.9192   -4.6963   22.3402 C   0  0  0  0  0  0
  -22.7855  -13.5233   21.1855 C   0  0  0  0  0  0
  -22.1661   -4.2149   21.0980 F   0  0  0  0  0  0
  -21.5630   -3.4539   25.7739 F   0  0  0  0  0  0
  -30.0101  -13.4424   20.4331 N   0  0  0  0  0  0
  -26.2991  -12.9348   20.3313 N   0  0  0  0  0  0
  -25.9327  -11.6503   20.5753 N   0  0  0  0  0  0
  -22.0492  -12.8229   22.0411 N   0  0  0  0  0  0
  -25.4283  -15.1890   20.4092 N   0  0  0  0  0  0
  -31.7543  -14.8597   20.1050 O   0  0  0  0  0  0
  -21.6639   -6.8878   21.4241 O   0  0  0  0  0  0
  -22.3543  -14.5540   20.6702 O   0  0  0  0  0  0
  -24.6274  -31.8582   23.2011 C   0  0  0  0  0  0
  -25.9114  -32.4771   23.8348 C   0  0  1  0  0  0
  -27.2274  -27.3023   20.1263 C   0  0  0  0  0  0
  -25.5924  -33.8573   24.2273 N   0  0  0  0  0  0
  -23.4232  -30.4803   21.5432 C   0  0  2  0  0  0
  -24.8727  -28.9309   20.1120 C   0  0  0  0  0  0
  -22.7484  -29.4615   22.4926 C   0  0  0  0  0  0
  -18.0288  -28.1385   22.8487 C   0  0  0  0  0  0
  -24.1489  -36.7292   23.2637 C   0  0  0  0  0  0
  -25.9654  -30.7825   21.3767 C   0  0  0  0  0  0
  -26.0410  -29.4070   20.7220 C   0  0  0  0  0  0
  -27.2221  -28.6032   20.7221 C   0  0  0  0  0  0
  -26.0405  -26.8855   19.4847 C   0  0  0  0  0  0
  -24.8745  -27.6751   19.4843 C   0  0  0  0  0  0
  -23.6407  -29.8129   20.1595 C   0  0  0  0  0  0
  -25.4114  -36.3081   24.0328 C   0  0  1  0  0  0
  -20.5889  -28.3693   23.1277 C   0  0  2  0  0  0
  -20.6776  -26.9414   22.5410 C   0  0  0  0  0  0
  -19.5752  -26.6384   21.5212 C   0  0  0  0  0  0
  -18.1933  -26.7928   22.1625 C   0  0  0  0  0  0
  -19.1540  -28.8856   23.2878 C   0  0  0  0  0  0
  -18.9462  -30.1456   23.8896 C   0  0  0  0  0  0
  -17.6462  -30.6588   24.0562 C   0  0  0  0  0  0
  -25.9054  -34.9449   23.5104 C   0  0  0  0  0  0
  -16.5354  -29.9086   23.6329 C   0  0  0  0  0  0
  -16.7275  -28.6502   23.0353 C   0  0  0  0  0  0
  -26.4495  -31.6586   25.0724 C   0  0  0  0  0  0
  -25.3726  -31.3724   26.1447 C   0  0  0  0  0  0
  -27.0340  -30.3008   24.6191 C   0  0  0  0  0  0
  -27.6054  -32.4322   25.7495 C   0  0  0  0  0  0
  -27.5583  -37.1795   24.8459 C   0  0  0  0  0  0
  -21.4195  -29.3044   22.3667 N   0  0  0  0  0  0
  -26.4289  -37.3779   23.9413 N   0  0  0  0  0  0
  -24.6906  -31.0575   22.0972 N   0  0  0  0  0  0
  -23.4197  -28.8156   23.3015 O   0  0  0  0  0  0
  -28.3277  -26.4261   20.1469 O   0  0  0  0  0  0
  -26.5627  -34.8919   22.4672 O   0  0  0  0  0  0
  -23.5432  -32.1388   23.7327 O   0  0  0  0  0  0
  -28.6474  -17.9265   21.1568 C   0  0  0  0  0  0
  -28.5366  -19.3462   21.0283 C   0  0  0  0  0  0
  -30.8045  -17.9711   20.1143 C   0  0  0  0  0  0
  -29.7761  -17.1845   20.7055 C   0  0  0  0  0  0
  -29.5600  -20.1340   20.4324 C   0  0  0  0  0  0
  -30.6958  -19.3963   19.9844 C   0  0  0  0  0  0
  -28.9427  -23.9828   20.1971 C   0  0  0  0  0  0
  -28.1082  -25.0557   20.4431 C   0  0  0  0  0  0
  -28.5990  -22.5673   20.5595 C   0  0  0  0  0  0
  -29.5314  -21.6022   20.2491 N   0  0  0  0  0  0
  -29.7639  -15.7170   20.8674 N   0  0  0  0  0  0
  -27.5361  -22.2689   21.1084 O   0  0  0  0  0  0
  -31.7153  -20.0771   19.4062 F   0  0  0  0  0  0
  -31.4847  -12.5577   19.1562 H   0  0  0  0  0  0
  -30.3950  -11.4254   19.9065 H   0  0  0  0  0  0
  -29.7850  -11.7589   17.4908 H   0  0  0  0  0  0
  -29.6464  -13.4805   17.7410 H   0  0  0  0  0  0
  -27.8800  -11.2901   18.8774 H   0  0  0  0  0  0
  -27.3806  -12.5643   17.7970 H   0  0  0  0  0  0
  -27.6679  -14.2508   19.5170 H   0  0  0  0  0  0
  -28.7200  -12.0595   21.3753 H   0  0  0  0  0  0
  -28.4346  -13.7085   21.8476 H   0  0  0  0  0  0
  -25.2761   -9.5684   22.4758 H   0  0  0  0  0  0
  -24.0002   -7.4634   22.7472 H   0  0  0  0  0  0
  -21.0839   -8.8775   19.8954 H   0  0  0  0  0  0
  -22.3696  -10.9674   19.6166 H   0  0  0  0  0  0
  -21.2004   -7.6147   23.9717 H   0  0  0  0  0  0
  -21.1483   -6.0522   25.9079 H   0  0  0  0  0  0
  -22.0597   -2.7609   23.2847 H   0  0  0  0  0  0
  -22.4102  -11.9890   22.4805 H   0  0  0  0  0  0
  -21.1110  -13.1263   22.2612 H   0  0  0  0  0  0
  -24.6570  -15.8402   20.5082 H   0  0  0  0  0  0
  -26.2677  -15.6241   20.0488 H   0  0  0  0  0  0
  -26.7181  -32.5440   23.1096 H   0  0  0  0  0  0
  -25.0062  -33.9716   25.0411 H   0  0  0  0  0  0
  -22.7182  -31.3013   21.3976 H   0  0  0  0  0  0
  -23.3755  -35.9620   23.3291 H   0  0  0  0  0  0
  -24.3584  -36.8923   22.2054 H   0  0  0  0  0  0
  -23.7237  -37.6488   23.6666 H   0  0  0  0  0  0
  -26.0989  -31.5435   20.6065 H   0  0  0  0  0  0
  -26.8449  -30.8333   22.0069 H   0  0  0  0  0  0
  -28.1186  -28.9617   21.2082 H   0  0  0  0  0  0
  -26.0060  -25.9227   18.9949 H   0  0  0  0  0  0
  -23.9810  -27.3055   19.0000 H   0  0  0  0  0  0
  -23.7617  -30.5883   19.4022 H   0  0  0  0  0  0
  -22.7607  -29.2426   19.8565 H   0  0  0  0  0  0
  -25.1292  -36.1929   25.0821 H   0  0  0  0  0  0
  -20.9984  -28.3269   24.1396 H   0  0  0  0  0  0
  -20.5674  -26.2304   23.3611 H   0  0  0  0  0  0
  -21.6644  -26.7441   22.1203 H   0  0  0  0  0  0
  -19.6914  -25.6294   21.1245 H   0  0  0  0  0  0
  -19.6689  -27.3192   20.6739 H   0  0  0  0  0  0
  -17.4202  -26.6673   21.4029 H   0  0  0  0  0  0
  -18.0336  -26.0070   22.9021 H   0  0  0  0  0  0
  -19.7938  -30.7271   24.2268 H   0  0  0  0  0  0
  -17.5017  -31.6269   24.5162 H   0  0  0  0  0  0
  -15.5354  -30.2989   23.7652 H   0  0  0  0  0  0
  -15.8674  -28.0820   22.7073 H   0  0  0  0  0  0
  -24.5904  -30.7070   25.7772 H   0  0  0  0  0  0
  -24.8913  -32.2889   26.4871 H   0  0  0  0  0  0
  -25.8049  -30.8901   27.0223 H   0  0  0  0  0  0
  -26.2918  -29.6756   24.1213 H   0  0  0  0  0  0
  -27.4028  -29.7268   25.4701 H   0  0  0  0  0  0
  -27.8792  -30.4288   23.9424 H   0  0  0  0  0  0
  -27.2663  -33.3620   26.2076 H   0  0  0  0  0  0
  -28.3863  -32.6888   25.0323 H   0  0  0  0  0  0
  -28.0724  -31.8446   26.5409 H   0  0  0  0  0  0
  -28.2582  -38.0111   24.7538 H   0  0  0  0  0  0
  -28.1100  -36.2647   24.6245 H   0  0  0  0  0  0
  -27.2308  -37.1392   25.8863 H   0  0  0  0  0  0
  -20.9375  -29.8765   21.6874 H   0  0  0  0  0  0
  -26.0169  -38.2849   24.1432 H   0  0  0  0  0  0
  -27.8229  -17.4000   21.6174 H   0  0  0  0  0  0
  -27.6380  -19.8156   21.3988 H   0  0  0  0  0  0
  -31.6975  -17.4913   19.7422 H   0  0  0  0  0  0
  -29.8906  -24.1767   19.7176 H   0  0  0  0  0  0
  -27.1517  -24.9056   20.9275 H   0  0  0  0  0  0
  -30.3644  -21.9621   19.8032 H   0  0  0  0  0  0
  -28.8930  -15.3604   21.2298 H   0  0  0  0  0  0
  1 25  1  0  0  0
  1 30  2  0  0  0
  1 81  1  0  0  0
  2  3  1  0  0  0
  2 25  1  0  0  0
  2 84  1  0  0  0
  2 85  1  0  0  0
  3  4  1  0  0  0
  3 86  1  0  0  0
  3 87  1  0  0  0
  4  5  1  0  0  0
  4 88  1  0  0  0
  4 89  1  0  0  0
  5  6  1  0  0  0
  5 26  1  0  0  0
  5 90  1  0  0  0
  6 25  1  0  0  0
  6 91  1  0  0  0
  6 92  1  0  0  0
  7  8  2  0  0  0
  7 26  1  0  0  0
  7 29  1  0  0  0
  8  9  1  0  0  0
  8 22  1  0  0  0
  9 10  1  0  0  0
  9 27  2  0  0  0
 10 11  2  0  0  0
 10 15  1  0  0  0
 11 12  1  0  0  0
 11 93  1  0  0  0
 12 13  2  0  0  0
 12 94  1  0  0  0
 13 14  1  0  0  0
 13 31  1  0  0  0
 14 15  2  0  0  0
 14 95  1  0  0  0
 15 96  1  0  0  0
 16 17  2  0  0  0
 16 21  1  0  0  0
 16 31  1  0  0  0
 17 18  1  0  0  0
 17 97  1  0  0  0
 18 19  2  0  0  0
 18 98  1  0  0  0
 19 20  1  0  0  0
 19 24  1  0  0  0
 20 21  2  0  0  0
 20 99  1  0  0  0
 21 23  1  0  0  0
 22 28  1  0  0  0
 22 32  2  0  0  0
 26 27  1  0  0  0
 28100  1  0  0  0
 28101  1  0  0  0
 29102  1  0  0  0
 29103  1  0  0  0
 33 34  1  0  0  0
 33 66  1  0  0  0
 33 70  2  0  0  0
 34 36  1  0  0  0
 34 59  1  0  0  0
 34104  1  0  0  0
 35 44  2  0  0  0
 35 45  1  0  0  0
 35 68  1  0  0  0
 36 56  1  0  0  0
 36105  1  0  0  0
 37 39  1  0  0  0
 37 47  1  0  0  0
 37 66  1  0  0  0
 37106  1  0  0  0
 38 43  2  0  0  0
 38 46  1  0  0  0
 38 47  1  0  0  0
 39 64  1  0  0  0
 39 67  2  0  0  0
 40 52  1  0  0  0
 40 53  2  0  0  0
 40 58  1  0  0  0
 41107  1  0  0  0
 41108  1  0  0  0
 41109  1  0  0  0
 41 48  1  0  0  0
 42 43  1  0  0  0
 42 66  1  0  0  0
 42110  1  0  0  0
 42111  1  0  0  0
 43 44  1  0  0  0
 44112  1  0  0  0
 45 46  2  0  0  0
 45113  1  0  0  0
 46114  1  0  0  0
 47115  1  0  0  0
 47116  1  0  0  0
 48 56  1  0  0  0
 48 65  1  0  0  0
 48117  1  0  0  0
 49 50  1  0  0  0
 49 53  1  0  0  0
 49 64  1  0  0  0
 49118  1  0  0  0
 50 51  1  0  0  0
 50119  1  0  0  0
 50120  1  0  0  0
 51 52  1  0  0  0
 51121  1  0  0  0
 51122  1  0  0  0
 52123  1  0  0  0
 52124  1  0  0  0
 53 54  1  0  0  0
 54 55  2  0  0  0
 54125  1  0  0  0
 55 57  1  0  0  0
 55126  1  0  0  0
 56 69  2  0  0  0
 57 58  2  0  0  0
 57127  1  0  0  0
 58128  1  0  0  0
 59 60  1  0  0  0
 59 61  1  0  0  0
 59 62  1  0  0  0
 60129  1  0  0  0
 60130  1  0  0  0
 60131  1  0  0  0
 61132  1  0  0  0
 61133  1  0  0  0
 61134  1  0  0  0
 62135  1  0  0  0
 62136  1  0  0  0
 62137  1  0  0  0
 63 65  1  0  0  0
 63138  1  0  0  0
 63139  1  0  0  0
 63140  1  0  0  0
 64141  1  0  0  0
 65142  1  0  0  0
 68 78  1  0  0  0
 71 72  2  0  0  0
 71 74  1  0  0  0
 71143  1  0  0  0
 72 75  1  0  0  0
 72144  1  0  0  0
 73 74  2  0  0  0
 73 76  1  0  0  0
 73145  1  0  0  0
 74 81  1  0  0  0
 75 76  2  0  0  0
 75 80  1  0  0  0
 76 83  1  0  0  0
 77 78  2  0  0  0
 77 79  1  0  0  0
 77146  1  0  0  0
 78147  1  0  0  0
 79 80  1  0  0  0
 79 82  2  0  0  0
 80148  1  0  0  0
 81149  1  0  0  0
M  ISO  4   1 100  68 101  78 101  81 100
M  END
> <chiral flag>
0

> <version>
0

> <s_m_source_file>
/data/baiqing/PycharmProjects/Reinvent-master-3.2/result/LINK_invent/BTK/process_docking_weight1_custom_product_contain_oxygen_bond_distance_aromatic_linkinvent_7_9_3/rearranged_h_0113.sdf

> <i_m_source_file_index>
24

> <r_mmod_Potential_Energy-OPLS-2005>
3.57187271118164

> <r_mmod_Stretch_Energy-OPLS-2005>
87.7789154052734

> <r_mmod_Bend_Energy-OPLS-2005>
146.698623657227

> <r_mmod_Torsional_Energy-OPLS-2005>
214.719848632812

> <r_mmod_Improper_Torsional_Energy-OPLS-2005>
3.76124024391174

> <r_mmod_Van_der_Waal_Energy-OPLS-2005>
143.205413818359

> <r_mmod_Electrostatic_Energy-OPLS-2005>
-434.423645019531

> <r_mmod_Solvation_Energy-OPLS-2005>
-218.998580932617

> <b_mmod_Minimization_Converged-OPLS-2005>
0

> <r_mmod_RMS_Derivative-OPLS-2005>
0.240034863352776

$$$$
24
                    3D
 Structure written by MMmdl.
160168  0  0  1  0            999 V2000
  -30.6744  -14.5097   20.5425 C   0  0  0  0  0  0
  -30.4181  -12.3214   19.4305 C   0  0  0  0  0  0
  -29.4893  -12.4977   18.2110 C   0  0  0  0  0  0
  -28.0110  -12.3596   18.6252 C   0  0  0  0  0  0
  -27.6536  -13.2066   19.8750 C   0  0  2  0  0  0
  -28.6970  -13.0150   20.9967 C   0  0  0  0  0  0
  -25.2545  -13.8084   20.5683 C   0  0  0  0  0  0
  -24.1799  -13.0373   20.9155 C   0  0  0  0  0  0
  -24.6374  -11.6847   20.8723 C   0  0  0  0  0  0
  -23.9049  -10.4229   21.0394 C   0  0  0  0  0  0
  -24.3607   -9.4151   21.9177 C   0  0  0  0  0  0
  -23.6283   -8.2186   22.0737 C   0  0  0  0  0  0
  -22.4268   -8.0234   21.3525 C   0  0  0  0  0  0
  -21.9899   -9.0209   20.4633 C   0  0  0  0  0  0
  -22.7221  -10.2087   20.3051 C   0  0  0  0  0  0
  -21.6824   -6.0715   22.5284 C   0  0  0  0  0  0
  -21.3984   -6.5622   23.8218 C   0  0  0  0  0  0
  -21.3673   -5.6780   24.9188 C   0  0  0  0  0  0
  -21.6053   -4.3043   24.7227 C   0  0  0  0  0  0
  -21.8809   -3.8130   23.4342 C   0  0  0  0  0  0
  -21.9186   -4.6946   22.3404 C   0  0  0  0  0  0
  -22.7826  -13.5153   21.1844 C   0  0  0  0  0  0
  -22.1661   -4.2146   21.0976 F   0  0  0  0  0  0
  -21.5656   -3.4529   25.7736 F   0  0  0  0  0  0
  -30.0167  -13.3231   20.4311 N   0  0  0  0  0  0
  -26.3004  -12.9288   20.3422 N   0  0  0  0  0  0
  -25.9316  -11.6443   20.5807 N   0  0  0  0  0  0
  -22.0497  -12.8163   22.0436 N   0  0  0  0  0  0
  -25.4259  -15.1779   20.4091 N   0  0  0  0  0  0
  -31.8318  -14.6636   20.1506 O   0  0  0  0  0  0
  -21.6609   -6.8856   21.4243 O   0  0  0  0  0  0
  -22.3522  -14.5478   20.6712 O   0  0  0  0  0  0
  -24.6200  -31.8658   23.2095 C   0  0  0  0  0  0
  -25.9074  -32.4818   23.8407 C   0  0  1  0  0  0
  -27.2234  -27.3949   20.1129 C   0  0  0  0  0  0
  -25.5924  -33.8612   24.2332 N   0  0  0  0  0  0
  -23.4088  -30.4936   21.5513 C   0  0  2  0  0  0
  -24.8510  -28.9573   20.1117 C   0  0  0  0  0  0
  -22.7450  -29.4688   22.4998 C   0  0  0  0  0  0
  -18.0329  -28.1414   22.8552 C   0  0  0  0  0  0
  -24.1480  -36.7326   23.2634 C   0  0  0  0  0  0
  -25.9421  -30.8221   21.3685 C   0  0  0  0  0  0
  -26.0152  -29.4574   20.7074 C   0  0  0  0  0  0
  -27.2038  -28.6859   20.7007 C   0  0  0  0  0  0
  -26.0369  -26.9271   19.4997 C   0  0  0  0  0  0
  -24.8577  -27.6921   19.5043 C   0  0  0  0  0  0
  -23.6145  -29.8276   20.1664 C   0  0  0  0  0  0
  -25.4095  -36.3116   24.0331 C   0  0  1  0  0  0
  -20.5902  -28.3761   23.1367 C   0  0  2  0  0  0
  -20.6881  -26.9516   22.5446 C   0  0  0  0  0  0
  -19.5853  -26.6410   21.5309 C   0  0  0  0  0  0
  -18.2031  -26.7965   22.1701 C   0  0  0  0  0  0
  -19.1564  -28.8918   23.2921 C   0  0  0  0  0  0
  -18.9489  -30.1568   23.8829 C   0  0  0  0  0  0
  -17.6496  -30.6707   24.0501 C   0  0  0  0  0  0
  -25.9037  -34.9478   23.5143 C   0  0  0  0  0  0
  -16.5388  -29.9160   23.6350 C   0  0  0  0  0  0
  -16.7320  -28.6549   23.0430 C   0  0  0  0  0  0
  -26.4469  -31.6596   25.0752 C   0  0  0  0  0  0
  -25.3739  -31.3719   26.1522 C   0  0  0  0  0  0
  -27.0313  -30.3019   24.6184 C   0  0  0  0  0  0
  -27.6017  -32.4333   25.7531 C   0  0  0  0  0  0
  -27.5574  -37.1810   24.8454 C   0  0  0  0  0  0
  -21.4167  -29.3149   22.3794 N   0  0  0  0  0  0
  -26.4287  -37.3789   23.9403 N   0  0  0  0  0  0
  -24.6760  -31.0773   22.0986 N   0  0  0  0  0  0
  -23.4208  -28.8189   23.3027 O   0  0  0  0  0  0
  -28.3714  -26.6140   20.1704 O   0  0  0  0  0  0
  -26.5591  -34.8936   22.4696 O   0  0  0  0  0  0
  -23.5383  -32.1387   23.7495 O   0  0  0  0  0  0
  -30.5449  -18.6906   21.8909 C   0  0  0  0  0  0
  -28.0351  -19.8365   21.4132 C   0  0  0  0  0  0
  -29.4295  -17.8359   21.7440 C   0  0  0  0  0  0
  -30.4005  -20.0979   21.8635 C   0  0  0  0  0  0
  -28.1528  -18.4229   21.5338 C   0  0  0  0  0  0
  -29.1443  -20.6900   21.5887 C   0  0  0  0  0  0
  -25.7956  -18.1591   21.8346 C   0  0  0  0  0  0
  -29.6120  -16.3117   21.9171 C   0  0  0  0  0  0
  -29.3926  -24.3503   20.6492 C   0  0  0  0  0  0
  -28.2023  -25.1739   20.0808 C   0  0  0  0  0  0
  -29.3270  -22.7993   20.4354 C   0  0  0  0  0  0
  -31.4882  -20.9062   22.1799 N   0  0  0  0  0  0
  -29.8911  -15.6000   20.6622 N   0  0  0  0  0  0
  -27.0570  -17.5891   21.4926 O   0  0  0  0  0  0
  -28.9608  -22.0677   21.6174 O   0  0  0  0  0  0
  -31.4634  -12.4173   19.1323 H   0  0  0  0  0  0
  -30.3185  -11.3162   19.8429 H   0  0  0  0  0  0
  -29.7283  -11.7610   17.4423 H   0  0  0  0  0  0
  -29.6497  -13.4784   17.7613 H   0  0  0  0  0  0
  -27.8229  -11.3049   18.8279 H   0  0  0  0  0  0
  -27.3597  -12.6311   17.7943 H   0  0  0  0  0  0
  -27.6855  -14.2500   19.5645 H   0  0  0  0  0  0
  -28.6791  -11.9908   21.3728 H   0  0  0  0  0  0
  -28.4701  -13.6482   21.8535 H   0  0  0  0  0  0
  -25.2746   -9.5605   22.4775 H   0  0  0  0  0  0
  -23.9982   -7.4544   22.7433 H   0  0  0  0  0  0
  -21.0842   -8.8709   19.8925 H   0  0  0  0  0  0
  -22.3668  -10.9635   19.6176 H   0  0  0  0  0  0
  -21.1945   -7.6128   23.9713 H   0  0  0  0  0  0
  -21.1534   -6.0518   25.9099 H   0  0  0  0  0  0
  -22.0582   -2.7596   23.2838 H   0  0  0  0  0  0
  -22.4141  -11.9836   22.4816 H   0  0  0  0  0  0
  -21.1125  -13.1188   22.2663 H   0  0  0  0  0  0
  -24.6659  -15.8320   20.5535 H   0  0  0  0  0  0
  -26.3230  -15.6324   20.2787 H   0  0  0  0  0  0
  -26.7135  -32.5499   23.1168 H   0  0  0  0  0  0
  -25.0067  -33.9744   25.0474 H   0  0  0  0  0  0
  -22.6997  -31.3122   21.4148 H   0  0  0  0  0  0
  -23.3748  -35.9659   23.3305 H   0  0  0  0  0  0
  -24.3557  -36.8931   22.2050 H   0  0  0  0  0  0
  -23.7245  -37.6527   23.6648 H   0  0  0  0  0  0
  -26.0694  -31.5910   20.6065 H   0  0  0  0  0  0
  -26.8256  -30.8672   21.9939 H   0  0  0  0  0  0
  -28.0983  -29.0650   21.1762 H   0  0  0  0  0  0
  -25.9981  -25.9579   19.0232 H   0  0  0  0  0  0
  -23.9591  -27.2965   19.0511 H   0  0  0  0  0  0
  -23.7282  -30.6028   19.4056 H   0  0  0  0  0  0
  -22.7379  -29.2492   19.8696 H   0  0  0  0  0  0
  -25.1281  -36.1975   25.0817 H   0  0  0  0  0  0
  -20.9972  -28.3439   24.1498 H   0  0  0  0  0  0
  -20.5889  -26.2364   23.3636 H   0  0  0  0  0  0
  -21.6772  -26.7645   22.1212 H   0  0  0  0  0  0
  -19.7040  -25.6284   21.1445 H   0  0  0  0  0  0
  -19.6776  -27.3148   20.6792 H   0  0  0  0  0  0
  -17.4292  -26.6677   21.4113 H   0  0  0  0  0  0
  -18.0451  -26.0090   22.9098 H   0  0  0  0  0  0
  -19.7952  -30.7478   24.2090 H   0  0  0  0  0  0
  -17.5082  -31.6452   24.4954 H   0  0  0  0  0  0
  -15.5413  -30.3109   23.7682 H   0  0  0  0  0  0
  -15.8693  -28.0859   22.7212 H   0  0  0  0  0  0
  -24.5919  -30.7040   25.7915 H   0  0  0  0  0  0
  -24.8940  -32.2881   26.4957 H   0  0  0  0  0  0
  -25.8123  -30.8927   27.0287 H   0  0  0  0  0  0
  -26.2887  -29.6781   24.1196 H   0  0  0  0  0  0
  -27.3998  -29.7267   25.4688 H   0  0  0  0  0  0
  -27.8760  -30.4317   23.9415 H   0  0  0  0  0  0
  -27.2590  -33.3619   26.2119 H   0  0  0  0  0  0
  -28.3830  -32.6908   25.0372 H   0  0  0  0  0  0
  -28.0693  -31.8458   26.5446 H   0  0  0  0  0  0
  -28.2599  -38.0103   24.7503 H   0  0  0  0  0  0
  -28.1069  -36.2635   24.6291 H   0  0  0  0  0  0
  -27.2285  -37.1470   25.8853 H   0  0  0  0  0  0
  -20.9307  -29.8978   21.7128 H   0  0  0  0  0  0
  -26.0193  -38.2864   24.1401 H   0  0  0  0  0  0
  -31.5098  -18.2476   22.0928 H   0  0  0  0  0  0
  -27.0745  -20.2939   21.2246 H   0  0  0  0  0  0
  -25.3603  -18.6834   20.9845 H   0  0  0  0  0  0
  -25.8710  -18.8466   22.6788 H   0  0  0  0  0  0
  -25.1004  -17.3751   22.1327 H   0  0  0  0  0  0
  -28.7250  -15.8857   22.3850 H   0  0  0  0  0  0
  -30.4269  -16.1463   22.6232 H   0  0  0  0  0  0
  -29.5275  -24.5656   21.7102 H   0  0  0  0  0  0
  -30.2938  -24.7207   20.1616 H   0  0  0  0  0  0
  -27.3038  -24.8670   20.6214 H   0  0  0  0  0  0
  -28.0594  -24.9098   19.0306 H   0  0  0  0  0  0
  -30.3042  -22.4493   20.0976 H   0  0  0  0  0  0
  -28.6296  -22.5566   19.6340 H   0  0  0  0  0  0
  -32.2169  -20.4731   22.7377 H   0  0  0  0  0  0
  -31.2471  -21.8281   22.5382 H   0  0  0  0  0  0
  -30.1461  -16.2774   19.9597 H   0  0  0  0  0  0
  1 25  1  0  0  0
  1 30  2  0  0  0
  1 83  1  0  0  0
  2  3  1  0  0  0
  2 25  1  0  0  0
  2 86  1  0  0  0
  2 87  1  0  0  0
  3  4  1  0  0  0
  3 88  1  0  0  0
  3 89  1  0  0  0
  4  5  1  0  0  0
  4 90  1  0  0  0
  4 91  1  0  0  0
  5  6  1  0  0  0
  5 26  1  0  0  0
  5 92  1  0  0  0
  6 25  1  0  0  0
  6 93  1  0  0  0
  6 94  1  0  0  0
  7  8  2  0  0  0
  7 26  1  0  0  0
  7 29  1  0  0  0
  8  9  1  0  0  0
  8 22  1  0  0  0
  9 10  1  0  0  0
  9 27  2  0  0  0
 10 11  2  0  0  0
 10 15  1  0  0  0
 11 12  1  0  0  0
 11 95  1  0  0  0
 12 13  2  0  0  0
 12 96  1  0  0  0
 13 14  1  0  0  0
 13 31  1  0  0  0
 14 15  2  0  0  0
 14 97  1  0  0  0
 15 98  1  0  0  0
 16 17  2  0  0  0
 16 21  1  0  0  0
 16 31  1  0  0  0
 17 18  1  0  0  0
 17 99  1  0  0  0
 18 19  2  0  0  0
 18100  1  0  0  0
 19 20  1  0  0  0
 19 24  1  0  0  0
 20 21  2  0  0  0
 20101  1  0  0  0
 21 23  1  0  0  0
 22 28  1  0  0  0
 22 32  2  0  0  0
 26 27  1  0  0  0
 28102  1  0  0  0
 28103  1  0  0  0
 29104  1  0  0  0
 29105  1  0  0  0
 33 34  1  0  0  0
 33 66  1  0  0  0
 33 70  2  0  0  0
 34 36  1  0  0  0
 34 59  1  0  0  0
 34106  1  0  0  0
 35 44  2  0  0  0
 35 45  1  0  0  0
 35 68  1  0  0  0
 36 56  1  0  0  0
 36107  1  0  0  0
 37 39  1  0  0  0
 37 47  1  0  0  0
 37 66  1  0  0  0
 37108  1  0  0  0
 38 43  2  0  0  0
 38 46  1  0  0  0
 38 47  1  0  0  0
 39 64  1  0  0  0
 39 67  2  0  0  0
 40 52  1  0  0  0
 40 53  2  0  0  0
 40 58  1  0  0  0
 41109  1  0  0  0
 41110  1  0  0  0
 41111  1  0  0  0
 41 48  1  0  0  0
 42 43  1  0  0  0
 42 66  1  0  0  0
 42112  1  0  0  0
 42113  1  0  0  0
 43 44  1  0  0  0
 44114  1  0  0  0
 45 46  2  0  0  0
 45115  1  0  0  0
 46116  1  0  0  0
 47117  1  0  0  0
 47118  1  0  0  0
 48 56  1  0  0  0
 48 65  1  0  0  0
 48119  1  0  0  0
 49 50  1  0  0  0
 49 53  1  0  0  0
 49 64  1  0  0  0
 49120  1  0  0  0
 50 51  1  0  0  0
 50121  1  0  0  0
 50122  1  0  0  0
 51 52  1  0  0  0
 51123  1  0  0  0
 51124  1  0  0  0
 52125  1  0  0  0
 52126  1  0  0  0
 53 54  1  0  0  0
 54 55  2  0  0  0
 54127  1  0  0  0
 55 57  1  0  0  0
 55128  1  0  0  0
 56 69  2  0  0  0
 57 58  2  0  0  0
 57129  1  0  0  0
 58130  1  0  0  0
 59 60  1  0  0  0
 59 61  1  0  0  0
 59 62  1  0  0  0
 60131  1  0  0  0
 60132  1  0  0  0
 60133  1  0  0  0
 61134  1  0  0  0
 61135  1  0  0  0
 61136  1  0  0  0
 62137  1  0  0  0
 62138  1  0  0  0
 62139  1  0  0  0
 63 65  1  0  0  0
 63140  1  0  0  0
 63141  1  0  0  0
 63142  1  0  0  0
 64143  1  0  0  0
 65144  1  0  0  0
 68 80  1  0  0  0
 71 73  2  0  0  0
 71 74  1  0  0  0
 71145  1  0  0  0
 72 75  2  0  0  0
 72 76  1  0  0  0
 72146  1  0  0  0
 73 75  1  0  0  0
 73 78  1  0  0  0
 74 76  2  0  0  0
 74 82  1  0  0  0
 75 84  1  0  0  0
 76 85  1  0  0  0
 77 84  1  0  0  0
 77147  1  0  0  0
 77148  1  0  0  0
 77149  1  0  0  0
 78 83  1  0  0  0
 78150  1  0  0  0
 78151  1  0  0  0
 79 80  1  0  0  0
 79 81  1  0  0  0
 79152  1  0  0  0
 79153  1  0  0  0
 80154  1  0  0  0
 80155  1  0  0  0
 81 85  1  0  0  0
 81156  1  0  0  0
 81157  1  0  0  0
 82158  1  0  0  0
 82159  1  0  0  0
 83160  1  0  0  0
M  ISO  4   1 100  68 101  80 101  83 100
M  END
> <chiral flag>
0

> <version>
0

> <s_m_source_file>
/data/baiqing/PycharmProjects/Reinvent-master-3.2/result/LINK_invent/BTK/process_docking_weight1_custom_product_contain_oxygen_bond_distance_aromatic_linkinvent_7_9_3/rearranged_h_0113.sdf

> <i_m_source_file_index>
25

> <r_mmod_Potential_Energy-OPLS-2005>
-24.6481876373291

> <r_mmod_Stretch_Energy-OPLS-2005>
44.1480712890625

> <r_mmod_Bend_Energy-OPLS-2005>
110.374481201172

> <r_mmod_Torsional_Energy-OPLS-2005>
322.142517089844

> <r_mmod_Improper_Torsional_Energy-OPLS-2005>
23.4742298126221

> <r_mmod_Van_der_Waal_Energy-OPLS-2005>
150.158828735352

> <r_mmod_Electrostatic_Energy-OPLS-2005>
-484.039794921875

> <r_mmod_Solvation_Energy-OPLS-2005>
-212.842498779297

> <b_mmod_Minimization_Converged-OPLS-2005>
0

> <r_mmod_RMS_Derivative-OPLS-2005>
4.44317102432251

$$$$
25
                    3D
 Structure written by MMmdl.
157165  0  0  1  0            999 V2000
  -30.5655  -14.7682   20.5342 C   0  0  0  0  0  0
  -30.4720  -12.4900   19.4589 C   0  0  0  0  0  0
  -29.5283  -12.5460   18.2325 C   0  0  0  0  0  0
  -28.0510  -12.3628   18.6394 C   0  0  0  0  0  0
  -27.6624  -13.2273   19.8685 C   0  0  2  0  0  0
  -28.7144  -13.0759   20.9908 C   0  0  0  0  0  0
  -25.2540  -13.8160   20.5530 C   0  0  0  0  0  0
  -24.1845  -13.0416   20.9125 C   0  0  0  0  0  0
  -24.6461  -11.6898   20.8753 C   0  0  0  0  0  0
  -23.9123  -10.4272   21.0426 C   0  0  0  0  0  0
  -24.3656   -9.4184   21.9210 C   0  0  0  0  0  0
  -23.6307   -8.2230   22.0790 C   0  0  0  0  0  0
  -22.4295   -8.0269   21.3571 C   0  0  0  0  0  0
  -21.9947   -9.0244   20.4673 C   0  0  0  0  0  0
  -22.7293  -10.2114   20.3076 C   0  0  0  0  0  0
  -21.6846   -6.0731   22.5282 C   0  0  0  0  0  0
  -21.3999   -6.5629   23.8213 C   0  0  0  0  0  0
  -21.3667   -5.6791   24.9176 C   0  0  0  0  0  0
  -21.6052   -4.3052   24.7233 C   0  0  0  0  0  0
  -21.8819   -3.8141   23.4351 C   0  0  0  0  0  0
  -21.9191   -4.6958   22.3407 C   0  0  0  0  0  0
  -22.7871  -13.5209   21.1778 C   0  0  0  0  0  0
  -22.1661   -4.2145   21.0986 F   0  0  0  0  0  0
  -21.5647   -3.4539   25.7748 F   0  0  0  0  0  0
  -30.0186  -13.4986   20.4473 N   0  0  0  0  0  0
  -26.3052  -12.9383   20.3336 N   0  0  0  0  0  0
  -25.9419  -11.6535   20.5826 N   0  0  0  0  0  0
  -22.0538  -12.8218   22.0365 N   0  0  0  0  0  0
  -25.4125  -15.1867   20.3731 N   0  0  0  0  0  0
  -31.6709  -15.0035   20.0368 O   0  0  0  0  0  0
  -21.6638   -6.8878   21.4254 O   0  0  0  0  0  0
  -22.3539  -14.5512   20.6624 O   0  0  0  0  0  0
  -24.6347  -31.8509   23.1961 C   0  0  0  0  0  0
  -25.9145  -32.4751   23.8308 C   0  0  1  0  0  0
  -27.2286  -27.2350   20.1294 C   0  0  0  0  0  0
  -25.5927  -33.8549   24.2227 N   0  0  0  0  0  0
  -23.4337  -30.4734   21.5399 C   0  0  2  0  0  0
  -24.8844  -28.9165   20.1127 C   0  0  0  0  0  0
  -22.7542  -29.4547   22.4889 C   0  0  0  0  0  0
  -18.0296  -28.1412   22.8470 C   0  0  0  0  0  0
  -24.1500  -36.7279   23.2642 C   0  0  0  0  0  0
  -25.9833  -30.7582   21.3795 C   0  0  0  0  0  0
  -26.0582  -29.3770   20.7229 C   0  0  0  0  0  0
  -27.2311  -28.5487   20.7197 C   0  0  0  0  0  0
  -26.0230  -26.8458   19.4999 C   0  0  0  0  0  0
  -24.8726  -27.6589   19.4936 C   0  0  0  0  0  0
  -23.6587  -29.8102   20.1562 C   0  0  0  0  0  0
  -25.4120  -36.3057   24.0328 C   0  0  1  0  0  0
  -20.5909  -28.3678   23.1285 C   0  0  2  0  0  0
  -20.6794  -26.9387   22.5422 C   0  0  0  0  0  0
  -19.5770  -26.6378   21.5229 C   0  0  0  0  0  0
  -18.1942  -26.7948   22.1627 C   0  0  0  0  0  0
  -19.1554  -28.8863   23.2875 C   0  0  0  0  0  0
  -18.9477  -30.1480   23.8866 C   0  0  0  0  0  0
  -17.6472  -30.6598   24.0560 C   0  0  0  0  0  0
  -25.9055  -34.9436   23.5074 C   0  0  0  0  0  0
  -16.5360  -29.9090   23.6349 C   0  0  0  0  0  0
  -16.7280  -28.6538   23.0309 C   0  0  0  0  0  0
  -26.4491  -31.6587   25.0707 C   0  0  0  0  0  0
  -25.3693  -31.3738   26.1409 C   0  0  0  0  0  0
  -27.0341  -30.3015   24.6184 C   0  0  0  0  0  0
  -27.6040  -32.4309   25.7498 C   0  0  0  0  0  0
  -27.5582  -37.1805   24.8461 C   0  0  0  0  0  0
  -21.4236  -29.3027   22.3681 N   0  0  0  0  0  0
  -26.4285  -37.3761   23.9417 N   0  0  0  0  0  0
  -24.7035  -31.0450   22.0959 N   0  0  0  0  0  0
  -23.4246  -28.8053   23.2951 O   0  0  0  0  0  0
  -28.3275  -26.3309   20.1697 O   0  0  0  0  0  0
  -26.5625  -34.8917   22.4643 O   0  0  0  0  0  0
  -23.5486  -32.1324   23.7244 O   0  0  0  0  0  0
  -27.7873  -19.5512   21.4230 C   0  0  0  0  0  0
  -29.7737  -18.3780   20.6515 C   0  0  0  0  0  0
  -27.3005  -18.3635   21.9976 C   0  0  0  0  0  0
  -28.1054  -17.1977   22.0025 C   0  0  0  0  0  0
  -29.0482  -19.6581   20.7915 C   0  0  0  0  0  0
  -29.3002  -17.1073   21.2240 C   0  0  0  0  0  0
  -25.2913  -19.4454   23.0892 C   0  0  0  0  0  0
  -25.9648  -18.3712   22.6426 C   0  0  0  0  0  0
  -28.7932  -22.1301   20.4013 C   0  0  0  0  0  0
  -27.6808  -16.0394   22.9173 C   0  0  0  0  0  0
  -29.2210  -23.6850   20.2633 C   0  0  0  0  0  0
  -28.0792  -24.8370   20.0594 C   0  0  0  0  0  0
  -29.5210  -21.0076   20.4107 N   0  0  0  0  0  0
  -29.8231  -15.6977   21.2458 N   0  0  0  0  0  0
  -31.5018  -12.6702   19.1457 H   0  0  0  0  0  0
  -30.4703  -11.4933   19.9036 H   0  0  0  0  0  0
  -29.8110  -11.7825   17.5066 H   0  0  0  0  0  0
  -29.6500  -13.5046   17.7251 H   0  0  0  0  0  0
  -27.9007  -11.3063   18.8664 H   0  0  0  0  0  0
  -27.3984  -12.5859   17.7946 H   0  0  0  0  0  0
  -27.6772  -14.2678   19.5417 H   0  0  0  0  0  0
  -28.7635  -12.0379   21.3209 H   0  0  0  0  0  0
  -28.4384  -13.6389   21.8773 H   0  0  0  0  0  0
  -25.2812   -9.5640   22.4775 H   0  0  0  0  0  0
  -23.9990   -7.4626   22.7530 H   0  0  0  0  0  0
  -21.0870   -8.8757   19.8998 H   0  0  0  0  0  0
  -22.3752  -10.9634   19.6165 H   0  0  0  0  0  0
  -21.1973   -7.6135   23.9709 H   0  0  0  0  0  0
  -21.1509   -6.0528   25.9081 H   0  0  0  0  0  0
  -22.0602   -2.7605   23.2854 H   0  0  0  0  0  0
  -22.4124  -11.9835   22.4698 H   0  0  0  0  0  0
  -21.1193  -13.1292   22.2622 H   0  0  0  0  0  0
  -24.6505  -15.8437   20.4934 H   0  0  0  0  0  0
  -26.2777  -15.6343   20.0995 H   0  0  0  0  0  0
  -26.7199  -32.5393   23.1037 H   0  0  0  0  0  0
  -25.0078  -33.9679   25.0374 H   0  0  0  0  0  0
  -22.7288  -31.2947   21.3910 H   0  0  0  0  0  0
  -23.3767  -35.9605   23.3282 H   0  0  0  0  0  0
  -24.3594  -36.8921   22.2061 H   0  0  0  0  0  0
  -23.7256  -37.6477   23.6672 H   0  0  0  0  0  0
  -26.1173  -31.5167   20.6067 H   0  0  0  0  0  0
  -26.8636  -30.8119   22.0091 H   0  0  0  0  0  0
  -28.1281  -28.8923   21.2166 H   0  0  0  0  0  0
  -25.9342  -25.8857   19.0155 H   0  0  0  0  0  0
  -23.9721  -27.2975   19.0157 H   0  0  0  0  0  0
  -23.7963  -30.5908   19.4071 H   0  0  0  0  0  0
  -22.7754  -29.2554   19.8368 H   0  0  0  0  0  0
  -25.1313  -36.1883   25.0820 H   0  0  0  0  0  0
  -20.9993  -28.3240   24.1408 H   0  0  0  0  0  0
  -20.5713  -26.2248   23.3606 H   0  0  0  0  0  0
  -21.6650  -26.7409   22.1186 H   0  0  0  0  0  0
  -19.6914  -25.6284   21.1264 H   0  0  0  0  0  0
  -19.6763  -27.3192   20.6769 H   0  0  0  0  0  0
  -17.4214  -26.6677   21.4036 H   0  0  0  0  0  0
  -18.0331  -26.0118   22.9049 H   0  0  0  0  0  0
  -19.7949  -30.7327   24.2197 H   0  0  0  0  0  0
  -17.5016  -31.6275   24.5168 H   0  0  0  0  0  0
  -15.5358  -30.2971   23.7723 H   0  0  0  0  0  0
  -15.8680  -28.0897   22.6959 H   0  0  0  0  0  0
  -24.5881  -30.7075   25.7726 H   0  0  0  0  0  0
  -24.8869  -32.2910   26.4805 H   0  0  0  0  0  0
  -25.7999  -30.8933   27.0202 H   0  0  0  0  0  0
  -26.2929  -29.6772   24.1184 H   0  0  0  0  0  0
  -27.4011  -29.7269   25.4698 H   0  0  0  0  0  0
  -27.8800  -30.4321   23.9430 H   0  0  0  0  0  0
  -27.2657  -33.3619   26.2056 H   0  0  0  0  0  0
  -28.3886  -32.6843   25.0355 H   0  0  0  0  0  0
  -28.0646  -31.8422   26.5442 H   0  0  0  0  0  0
  -28.2562  -38.0137   24.7516 H   0  0  0  0  0  0
  -28.1113  -36.2661   24.6262 H   0  0  0  0  0  0
  -27.2295  -37.1417   25.8861 H   0  0  0  0  0  0
  -20.9395  -29.8794   21.6947 H   0  0  0  0  0  0
  -26.0155  -38.2821   24.1447 H   0  0  0  0  0  0
  -27.1504  -20.4114   21.5188 H   0  0  0  0  0  0
  -30.7243  -18.3868   20.1363 H   0  0  0  0  0  0
  -24.3065  -19.3282   23.5186 H   0  0  0  0  0  0
  -25.6891  -20.4487   23.0460 H   0  0  0  0  0  0
  -25.4644  -17.4158   22.7323 H   0  0  0  0  0  0
  -27.7102  -22.0876   20.5233 H   0  0  0  0  0  0
  -27.1382  -16.3940   23.7933 H   0  0  0  0  0  0
  -28.5295  -15.5014   23.3404 H   0  0  0  0  0  0
  -27.0373  -15.3363   22.3958 H   0  0  0  0  0  0
  -29.9410  -23.7616   19.4481 H   0  0  0  0  0  0
  -29.7752  -23.9390   21.1660 H   0  0  0  0  0  0
  -27.2729  -24.6119   20.7590 H   0  0  0  0  0  0
  -27.6702  -24.6521   19.0664 H   0  0  0  0  0  0
  -29.1881  -15.1432   21.7967 H   0  0  0  0  0  0
  1 25  1  0  0  0
  1 30  2  0  0  0
  1 84  1  0  0  0
  2  3  1  0  0  0
  2 25  1  0  0  0
  2 85  1  0  0  0
  2 86  1  0  0  0
  3  4  1  0  0  0
  3 87  1  0  0  0
  3 88  1  0  0  0
  4  5  1  0  0  0
  4 89  1  0  0  0
  4 90  1  0  0  0
  5  6  1  0  0  0
  5 26  1  0  0  0
  5 91  1  0  0  0
  6 25  1  0  0  0
  6 92  1  0  0  0
  6 93  1  0  0  0
  7  8  2  0  0  0
  7 26  1  0  0  0
  7 29  1  0  0  0
  8  9  1  0  0  0
  8 22  1  0  0  0
  9 10  1  0  0  0
  9 27  2  0  0  0
 10 11  2  0  0  0
 10 15  1  0  0  0
 11 12  1  0  0  0
 11 94  1  0  0  0
 12 13  2  0  0  0
 12 95  1  0  0  0
 13 14  1  0  0  0
 13 31  1  0  0  0
 14 15  2  0  0  0
 14 96  1  0  0  0
 15 97  1  0  0  0
 16 17  2  0  0  0
 16 21  1  0  0  0
 16 31  1  0  0  0
 17 18  1  0  0  0
 17 98  1  0  0  0
 18 19  2  0  0  0
 18 99  1  0  0  0
 19 20  1  0  0  0
 19 24  1  0  0  0
 20 21  2  0  0  0
 20100  1  0  0  0
 21 23  1  0  0  0
 22 28  1  0  0  0
 22 32  2  0  0  0
 26 27  1  0  0  0
 28101  1  0  0  0
 28102  1  0  0  0
 29103  1  0  0  0
 29104  1  0  0  0
 33 34  1  0  0  0
 33 66  1  0  0  0
 33 70  2  0  0  0
 34 36  1  0  0  0
 34 59  1  0  0  0
 34105  1  0  0  0
 35 44  2  0  0  0
 35 45  1  0  0  0
 35 68  1  0  0  0
 36 56  1  0  0  0
 36106  1  0  0  0
 37 39  1  0  0  0
 37 47  1  0  0  0
 37 66  1  0  0  0
 37107  1  0  0  0
 38 43  2  0  0  0
 38 46  1  0  0  0
 38 47  1  0  0  0
 39 64  1  0  0  0
 39 67  2  0  0  0
 40 52  1  0  0  0
 40 53  2  0  0  0
 40 58  1  0  0  0
 41108  1  0  0  0
 41109  1  0  0  0
 41110  1  0  0  0
 41 48  1  0  0  0
 42 43  1  0  0  0
 42 66  1  0  0  0
 42111  1  0  0  0
 42112  1  0  0  0
 43 44  1  0  0  0
 44113  1  0  0  0
 45 46  2  0  0  0
 45114  1  0  0  0
 46115  1  0  0  0
 47116  1  0  0  0
 47117  1  0  0  0
 48 56  1  0  0  0
 48 65  1  0  0  0
 48118  1  0  0  0
 49 50  1  0  0  0
 49 53  1  0  0  0
 49 64  1  0  0  0
 49119  1  0  0  0
 50 51  1  0  0  0
 50120  1  0  0  0
 50121  1  0  0  0
 51 52  1  0  0  0
 51122  1  0  0  0
 51123  1  0  0  0
 52124  1  0  0  0
 52125  1  0  0  0
 53 54  1  0  0  0
 54 55  2  0  0  0
 54126  1  0  0  0
 55 57  1  0  0  0
 55127  1  0  0  0
 56 69  2  0  0  0
 57 58  2  0  0  0
 57128  1  0  0  0
 58129  1  0  0  0
 59 60  1  0  0  0
 59 61  1  0  0  0
 59 62  1  0  0  0
 60130  1  0  0  0
 60131  1  0  0  0
 60132  1  0  0  0
 61133  1  0  0  0
 61134  1  0  0  0
 61135  1  0  0  0
 62136  1  0  0  0
 62137  1  0  0  0
 62138  1  0  0  0
 63 65  1  0  0  0
 63139  1  0  0  0
 63140  1  0  0  0
 63141  1  0  0  0
 64142  1  0  0  0
 65143  1  0  0  0
 68 82  1  0  0  0
 71 73  2  0  0  0
 71 75  1  0  0  0
 71144  1  0  0  0
 72 75  2  0  0  0
 72 76  1  0  0  0
 72145  1  0  0  0
 73 74  1  0  0  0
 73 78  1  0  0  0
 74 76  2  0  0  0
 74 80  1  0  0  0
 75 83  1  0  0  0
 76 84  1  0  0  0
 77 78  2  0  0  0
 77146  1  0  0  0
 77147  1  0  0  0
 78148  1  0  0  0
 79 81  1  0  0  0
 79 83  2  0  0  0
 79149  1  0  0  0
 80150  1  0  0  0
 80151  1  0  0  0
 80152  1  0  0  0
 81 82  1  0  0  0
 81153  1  0  0  0
 81154  1  0  0  0
 82155  1  0  0  0
 82156  1  0  0  0
 84157  1  0  0  0
M  ISO  4   1 100  68 101  82 101  84 100
M  END
> <chiral flag>
0

> <version>
0

> <s_m_source_file>
/data/baiqing/PycharmProjects/Reinvent-master-3.2/result/LINK_invent/BTK/process_docking_weight1_custom_product_contain_oxygen_bond_distance_aromatic_linkinvent_7_9_3/rearranged_h_0113.sdf

> <i_m_source_file_index>
26

> <r_mmod_Potential_Energy-OPLS-2005>
309.343536376953

> <r_mmod_Stretch_Energy-OPLS-2005>
165.100814819336

> <r_mmod_Bend_Energy-OPLS-2005>
243.969970703125

> <r_mmod_Torsional_Energy-OPLS-2005>
239.317794799805

> <r_mmod_Improper_Torsional_Energy-OPLS-2005>
4.60106992721558

> <r_mmod_Van_der_Waal_Energy-OPLS-2005>
160.876235961914

> <r_mmod_Electrostatic_Energy-OPLS-2005>
-385.092071533203

> <r_mmod_Solvation_Energy-OPLS-2005>
-217.469818115234

> <b_mmod_Minimization_Converged-OPLS-2005>
0

> <r_mmod_RMS_Derivative-OPLS-2005>
2.12524199485779

$$$$
26
                    3D
 Structure written by MMmdl.
156164  0  0  1  0            999 V2000
  -30.4707  -15.0622   20.4036 C   0  0  0  0  0  0
  -30.4298  -12.6434   19.5679 C   0  0  0  0  0  0
  -29.5508  -12.5899   18.2952 C   0  0  0  0  0  0
  -28.0798  -12.3350   18.6849 C   0  0  0  0  0  0
  -27.6241  -13.2630   19.8454 C   0  0  2  0  0  0
  -28.6451  -13.3172   21.0006 C   0  0  0  0  0  0
  -25.2426  -13.8226   20.5779 C   0  0  0  0  0  0
  -24.1729  -13.0443   20.9214 C   0  0  0  0  0  0
  -24.6351  -11.6930   20.8709 C   0  0  0  0  0  0
  -23.9044  -10.4300   21.0406 C   0  0  0  0  0  0
  -24.3602   -9.4212   21.9195 C   0  0  0  0  0  0
  -23.6270   -8.2254   22.0790 C   0  0  0  0  0  0
  -22.4257   -8.0287   21.3582 C   0  0  0  0  0  0
  -21.9864   -9.0245   20.4679 C   0  0  0  0  0  0
  -22.7206  -10.2120   20.3058 C   0  0  0  0  0  0
  -21.6828   -6.0750   22.5298 C   0  0  0  0  0  0
  -21.4021   -6.5659   23.8232 C   0  0  0  0  0  0
  -21.3662   -5.6804   24.9189 C   0  0  0  0  0  0
  -21.6032   -4.3061   24.7225 C   0  0  0  0  0  0
  -21.8805   -3.8167   23.4338 C   0  0  0  0  0  0
  -21.9170   -4.6984   22.3415 C   0  0  0  0  0  0
  -22.7757  -13.5246   21.1837 C   0  0  0  0  0  0
  -22.1662   -4.2191   21.0973 F   0  0  0  0  0  0
  -21.5605   -3.4535   25.7723 F   0  0  0  0  0  0
  -29.9231  -13.7628   20.4309 N   0  0  0  0  0  0
  -26.2830  -12.9473   20.3222 N   0  0  0  0  0  0
  -25.9268  -11.6571   20.5627 N   0  0  0  0  0  0
  -22.0349  -12.8303   22.0402 N   0  0  0  0  0  0
  -25.4185  -15.1967   20.4454 N   0  0  0  0  0  0
  -31.6462  -15.1251   20.0231 O   0  0  0  0  0  0
  -21.6623   -6.8894   21.4264 O   0  0  0  0  0  0
  -22.3464  -14.5552   20.6640 O   0  0  0  0  0  0
  -24.6485  -31.8320   23.1780 C   0  0  0  0  0  0
  -25.9236  -32.4608   23.8210 C   0  0  1  0  0  0
  -27.2008  -27.0300   20.1696 C   0  0  0  0  0  0
  -25.5953  -33.8420   24.2125 N   0  0  0  0  0  0
  -23.4543  -30.4502   21.5240 C   0  0  2  0  0  0
  -24.9032  -28.8502   20.0988 C   0  0  0  0  0  0
  -22.7580  -29.4493   22.4790 C   0  0  0  0  0  0
  -18.0316  -28.1383   22.8469 C   0  0  0  0  0  0
  -24.1512  -36.7210   23.2645 C   0  0  0  0  0  0
  -26.0161  -30.6654   21.3974 C   0  0  0  0  0  0
  -26.0779  -29.2673   20.7377 C   0  0  0  0  0  0
  -27.2141  -28.3671   20.7671 C   0  0  0  0  0  0
  -26.0135  -26.7363   19.4719 C   0  0  0  0  0  0
  -24.8910  -27.6023   19.4519 C   0  0  0  0  0  0
  -23.6857  -29.7689   20.1447 C   0  0  0  0  0  0
  -25.4134  -36.2952   24.0304 C   0  0  1  0  0  0
  -20.5931  -28.3715   23.1202 C   0  0  2  0  0  0
  -20.6800  -26.9408   22.5389 C   0  0  0  0  0  0
  -19.5764  -26.6359   21.5215 C   0  0  0  0  0  0
  -18.1949  -26.7919   22.1634 C   0  0  0  0  0  0
  -19.1566  -28.8866   23.2837 C   0  0  0  0  0  0
  -18.9488  -30.1469   23.8862 C   0  0  0  0  0  0
  -17.6480  -30.6578   24.0538 C   0  0  0  0  0  0
  -25.9082  -34.9341   23.5029 C   0  0  0  0  0  0
  -16.5375  -29.9050   23.6335 C   0  0  0  0  0  0
  -16.7301  -28.6470   23.0353 C   0  0  0  0  0  0
  -26.4521  -31.6522   25.0707 C   0  0  0  0  0  0
  -25.3697  -31.3774   26.1418 C   0  0  0  0  0  0
  -27.0389  -30.2885   24.6411 C   0  0  0  0  0  0
  -27.6041  -32.4300   25.7477 C   0  0  0  0  0  0
  -27.5568  -37.1751   24.8450 C   0  0  0  0  0  0
  -21.4261  -29.3033   22.3556 N   0  0  0  0  0  0
  -26.4272  -37.3682   23.9388 N   0  0  0  0  0  0
  -24.7265  -31.0084   22.0862 N   0  0  0  0  0  0
  -23.4187  -28.8042   23.2971 O   0  0  0  0  0  0
  -28.2075  -25.9925   20.3629 O   0  0  0  0  0  0
  -26.5677  -34.8853   22.4612 O   0  0  0  0  0  0
  -23.5588  -32.1260   23.6954 O   0  0  0  0  0  0
  -29.2398  -17.6792   18.7217 C   0  0  0  0  0  0
  -28.6404  -20.0963   18.6205 C   0  0  0  0  0  0
  -29.3302  -19.0658   20.7005 C   0  0  0  0  0  0
  -28.7996  -18.8216   18.0021 C   0  0  0  0  0  0
  -29.4995  -17.6822   20.1053 C   0  0  0  0  0  0
  -28.9249  -20.3458   19.9854 C   0  0  0  0  0  0
  -28.2132  -19.5393   15.6468 C   0  0  0  0  0  0
  -31.0296  -22.0853   21.4989 C   0  0  0  0  0  0
  -28.5183  -18.6085   16.5661 C   0  0  0  0  0  0
  -29.6863  -22.1553   21.5404 C   0  0  0  0  0  0
  -28.0138  -22.9872   20.0926 C   0  0  0  0  0  0
  -28.4600  -24.5768   19.6665 C   0  0  0  0  0  0
  -29.7245  -16.2623   20.7412 N   0  0  0  0  0  0
  -28.8584  -21.8567   20.4637 N   0  0  0  0  0  0
  -26.7968  -22.7736   20.0115 O   0  0  0  0  0  0
  -31.4838  -12.7614   19.3142 H   0  0  0  0  0  0
  -30.3714  -11.6957   20.1047 H   0  0  0  0  0  0
  -29.9134  -11.8257   17.6091 H   0  0  0  0  0  0
  -29.6294  -13.5402   17.7641 H   0  0  0  0  0  0
  -27.9953  -11.2940   18.9953 H   0  0  0  0  0  0
  -27.4281  -12.4507   17.8180 H   0  0  0  0  0  0
  -27.5802  -14.2638   19.4126 H   0  0  0  0  0  0
  -28.7368  -12.3392   21.4772 H   0  0  0  0  0  0
  -28.3089  -13.9985   21.7820 H   0  0  0  0  0  0
  -25.2758   -9.5709   22.4741 H   0  0  0  0  0  0
  -24.0014   -7.4648   22.7475 H   0  0  0  0  0  0
  -21.0818   -8.8705   19.8988 H   0  0  0  0  0  0
  -22.3651  -10.9622   19.6142 H   0  0  0  0  0  0
  -21.2056   -7.6172   23.9749 H   0  0  0  0  0  0
  -21.1503   -6.0542   25.9094 H   0  0  0  0  0  0
  -22.0583   -2.7631   23.2790 H   0  0  0  0  0  0
  -22.3936  -11.9990   22.4873 H   0  0  0  0  0  0
  -21.0981  -13.1400   22.2574 H   0  0  0  0  0  0
  -24.6638  -15.8562   20.6032 H   0  0  0  0  0  0
  -26.2913  -15.6429   20.1946 H   0  0  0  0  0  0
  -26.7293  -32.5178   23.0916 H   0  0  0  0  0  0
  -25.0037  -33.9496   25.0233 H   0  0  0  0  0  0
  -22.7615  -31.2800   21.3647 H   0  0  0  0  0  0
  -23.3757  -35.9557   23.3269 H   0  0  0  0  0  0
  -24.3616  -36.8886   22.2069 H   0  0  0  0  0  0
  -23.7305  -37.6402   23.6732 H   0  0  0  0  0  0
  -26.1986  -31.4104   20.6212 H   0  0  0  0  0  0
  -26.8778  -30.7090   22.0533 H   0  0  0  0  0  0
  -28.0893  -28.6624   21.3290 H   0  0  0  0  0  0
  -25.9147  -25.7655   19.0080 H   0  0  0  0  0  0
  -23.9902  -27.2729   18.9501 H   0  0  0  0  0  0
  -23.8303  -30.5439   19.3905 H   0  0  0  0  0  0
  -22.7941  -29.2216   19.8311 H   0  0  0  0  0  0
  -25.1345  -36.1735   25.0798 H   0  0  0  0  0  0
  -21.0068  -28.3351   24.1308 H   0  0  0  0  0  0
  -20.5716  -26.2337   23.3619 H   0  0  0  0  0  0
  -21.6661  -26.7412   22.1180 H   0  0  0  0  0  0
  -19.6909  -25.6259   21.1255 H   0  0  0  0  0  0
  -19.6676  -27.3159   20.6729 H   0  0  0  0  0  0
  -17.4211  -26.6653   21.4043 H   0  0  0  0  0  0
  -18.0356  -26.0085   22.9056 H   0  0  0  0  0  0
  -19.7970  -30.7295   24.2217 H   0  0  0  0  0  0
  -17.5025  -31.6272   24.5111 H   0  0  0  0  0  0
  -15.5357  -30.2918   23.7678 H   0  0  0  0  0  0
  -15.8723  -28.0754   22.7083 H   0  0  0  0  0  0
  -24.5666  -30.7412   25.7689 H   0  0  0  0  0  0
  -24.9157  -32.3011   26.5014 H   0  0  0  0  0  0
  -25.7907  -30.8693   27.0106 H   0  0  0  0  0  0
  -26.3025  -29.6555   24.1452 H   0  0  0  0  0  0
  -27.3955  -29.7257   25.5049 H   0  0  0  0  0  0
  -27.8974  -30.4046   23.9792 H   0  0  0  0  0  0
  -27.2620  -33.3592   26.2050 H   0  0  0  0  0  0
  -28.3849  -32.6883   25.0310 H   0  0  0  0  0  0
  -28.0743  -31.8449   26.5394 H   0  0  0  0  0  0
  -28.2549  -38.0072   24.7489 H   0  0  0  0  0  0
  -28.1090  -36.2590   24.6288 H   0  0  0  0  0  0
  -27.2279  -37.1432   25.8849 H   0  0  0  0  0  0
  -20.9464  -29.8722   21.6717 H   0  0  0  0  0  0
  -26.0112  -38.2740   24.1363 H   0  0  0  0  0  0
  -29.3297  -16.7436   18.1888 H   0  0  0  0  0  0
  -28.3152  -20.9296   18.0195 H   0  0  0  0  0  0
  -29.5146  -19.1561   21.7607 H   0  0  0  0  0  0
  -28.0216  -19.2383   14.6245 H   0  0  0  0  0  0
  -28.1510  -20.5917   15.8698 H   0  0  0  0  0  0
  -31.6149  -22.3296   22.3737 H   0  0  0  0  0  0
  -31.5631  -21.7986   20.6028 H   0  0  0  0  0  0
  -28.5580  -17.5789   16.2286 H   0  0  0  0  0  0
  -29.1324  -22.4320   22.4301 H   0  0  0  0  0  0
  -28.1328  -24.6976   18.6331 H   0  0  0  0  0  0
  -29.5442  -24.5137   19.5919 H   0  0  0  0  0  0
  -28.9951  -16.0326   21.4010 H   0  0  0  0  0  0
  1 25  1  0  0  0
  1 30  2  0  0  0
  1 83  1  0  0  0
  2  3  1  0  0  0
  2 25  1  0  0  0
  2 86  1  0  0  0
  2 87  1  0  0  0
  3  4  1  0  0  0
  3 88  1  0  0  0
  3 89  1  0  0  0
  4  5  1  0  0  0
  4 90  1  0  0  0
  4 91  1  0  0  0
  5  6  1  0  0  0
  5 26  1  0  0  0
  5 92  1  0  0  0
  6 25  1  0  0  0
  6 93  1  0  0  0
  6 94  1  0  0  0
  7  8  2  0  0  0
  7 26  1  0  0  0
  7 29  1  0  0  0
  8  9  1  0  0  0
  8 22  1  0  0  0
  9 10  1  0  0  0
  9 27  2  0  0  0
 10 11  2  0  0  0
 10 15  1  0  0  0
 11 12  1  0  0  0
 11 95  1  0  0  0
 12 13  2  0  0  0
 12 96  1  0  0  0
 13 14  1  0  0  0
 13 31  1  0  0  0
 14 15  2  0  0  0
 14 97  1  0  0  0
 15 98  1  0  0  0
 16 17  2  0  0  0
 16 21  1  0  0  0
 16 31  1  0  0  0
 17 18  1  0  0  0
 17 99  1  0  0  0
 18 19  2  0  0  0
 18100  1  0  0  0
 19 20  1  0  0  0
 19 24  1  0  0  0
 20 21  2  0  0  0
 20101  1  0  0  0
 21 23  1  0  0  0
 22 28  1  0  0  0
 22 32  2  0  0  0
 26 27  1  0  0  0
 28102  1  0  0  0
 28103  1  0  0  0
 29104  1  0  0  0
 29105  1  0  0  0
 33 34  1  0  0  0
 33 66  1  0  0  0
 33 70  2  0  0  0
 34 36  1  0  0  0
 34 59  1  0  0  0
 34106  1  0  0  0
 35 44  2  0  0  0
 35 45  1  0  0  0
 35 68  1  0  0  0
 36 56  1  0  0  0
 36107  1  0  0  0
 37 39  1  0  0  0
 37 47  1  0  0  0
 37 66  1  0  0  0
 37108  1  0  0  0
 38 43  2  0  0  0
 38 46  1  0  0  0
 38 47  1  0  0  0
 39 64  1  0  0  0
 39 67  2  0  0  0
 40 52  1  0  0  0
 40 53  2  0  0  0
 40 58  1  0  0  0
 41109  1  0  0  0
 41110  1  0  0  0
 41111  1  0  0  0
 41 48  1  0  0  0
 42 43  1  0  0  0
 42 66  1  0  0  0
 42112  1  0  0  0
 42113  1  0  0  0
 43 44  1  0  0  0
 44114  1  0  0  0
 45 46  2  0  0  0
 45115  1  0  0  0
 46116  1  0  0  0
 47117  1  0  0  0
 47118  1  0  0  0
 48 56  1  0  0  0
 48 65  1  0  0  0
 48119  1  0  0  0
 49 50  1  0  0  0
 49 53  1  0  0  0
 49 64  1  0  0  0
 49120  1  0  0  0
 50 51  1  0  0  0
 50121  1  0  0  0
 50122  1  0  0  0
 51 52  1  0  0  0
 51123  1  0  0  0
 51124  1  0  0  0
 52125  1  0  0  0
 52126  1  0  0  0
 53 54  1  0  0  0
 54 55  2  0  0  0
 54127  1  0  0  0
 55 57  1  0  0  0
 55128  1  0  0  0
 56 69  2  0  0  0
 57 58  2  0  0  0
 57129  1  0  0  0
 58130  1  0  0  0
 59 60  1  0  0  0
 59 61  1  0  0  0
 59 62  1  0  0  0
 60131  1  0  0  0
 60132  1  0  0  0
 60133  1  0  0  0
 61134  1  0  0  0
 61135  1  0  0  0
 61136  1  0  0  0
 62137  1  0  0  0
 62138  1  0  0  0
 62139  1  0  0  0
 63 65  1  0  0  0
 63140  1  0  0  0
 63141  1  0  0  0
 63142  1  0  0  0
 64143  1  0  0  0
 65144  1  0  0  0
 68 82  1  0  0  0
 71 74  2  0  0  0
 71 75  1  0  0  0
 71145  1  0  0  0
 72 74  1  0  0  0
 72 76  2  0  0  0
 72146  1  0  0  0
 73 75  2  0  0  0
 73 76  1  0  0  0
 73147  1  0  0  0
 74 79  1  0  0  0
 75 83  1  0  0  0
 76 84  1  0  0  0
 77 79  2  0  0  0
 77148  1  0  0  0
 77149  1  0  0  0
 78 80  2  0  0  0
 78150  1  0  0  0
 78151  1  0  0  0
 79152  1  0  0  0
 80 84  1  0  0  0
 80153  1  0  0  0
 81 82  1  0  0  0
 81 84  1  0  0  0
 81 85  2  0  0  0
 82154  1  0  0  0
 82155  1  0  0  0
 83156  1  0  0  0
M  ISO  4   1 100  68 101  82 101  83 100
M  END
> <chiral flag>
0

> <version>
0

> <s_m_source_file>
/data/baiqing/PycharmProjects/Reinvent-master-3.2/result/LINK_invent/BTK/process_docking_weight1_custom_product_contain_oxygen_bond_distance_aromatic_linkinvent_7_9_3/rearranged_h_0113.sdf

> <i_m_source_file_index>
27

> <r_mmod_Potential_Energy-OPLS-2005>
1031.3046875

> <r_mmod_Stretch_Energy-OPLS-2005>
381.531616210938

> <r_mmod_Bend_Energy-OPLS-2005>
367.262664794922

> <r_mmod_Torsional_Energy-OPLS-2005>
356.580627441406

> <r_mmod_Improper_Torsional_Energy-OPLS-2005>
5.11476469039917

> <r_mmod_Van_der_Waal_Energy-OPLS-2005>
119.975486755371

> <r_mmod_Electrostatic_Energy-OPLS-2005>
-270.633880615234

> <r_mmod_Solvation_Energy-OPLS-2005>
-227.564361572266

> <b_mmod_Minimization_Converged-OPLS-2005>
0

> <r_mmod_RMS_Derivative-OPLS-2005>
5.03878211975098

$$$$
27
                    3D
 Structure written by MMmdl.
168178  0  0  1  0            999 V2000
  -30.6204  -14.6783   20.4719 C   0  0  0  0  0  0
  -30.4365  -12.4079   19.4761 C   0  0  0  0  0  0
  -29.5194  -12.5255   18.2379 C   0  0  0  0  0  0
  -28.0425  -12.3445   18.6452 C   0  0  0  0  0  0
  -27.6485  -13.2134   19.8695 C   0  0  2  0  0  0
  -28.6936  -13.1018   21.0027 C   0  0  0  0  0  0
  -25.2532  -13.8158   20.5744 C   0  0  0  0  0  0
  -24.1801  -13.0424   20.9234 C   0  0  0  0  0  0
  -24.6373  -11.6900   20.8738 C   0  0  0  0  0  0
  -23.9046  -10.4287   21.0423 C   0  0  0  0  0  0
  -24.3595   -9.4199   21.9211 C   0  0  0  0  0  0
  -23.6260   -8.2238   22.0779 C   0  0  0  0  0  0
  -22.4232   -8.0291   21.3576 C   0  0  0  0  0  0
  -21.9874   -9.0269   20.4679 C   0  0  0  0  0  0
  -22.7215  -10.2137   20.3072 C   0  0  0  0  0  0
  -21.6838   -6.0736   22.5305 C   0  0  0  0  0  0
  -21.4017   -6.5633   23.8242 C   0  0  0  0  0  0
  -21.3658   -5.6783   24.9202 C   0  0  0  0  0  0
  -21.6041   -4.3053   24.7238 C   0  0  0  0  0  0
  -21.8809   -3.8143   23.4356 C   0  0  0  0  0  0
  -21.9184   -4.6964   22.3413 C   0  0  0  0  0  0
  -22.7819  -13.5247   21.1893 C   0  0  0  0  0  0
  -22.1658   -4.2166   21.0984 F   0  0  0  0  0  0
  -21.5609   -3.4528   25.7739 F   0  0  0  0  0  0
  -30.0106  -13.4452   20.4394 N   0  0  0  0  0  0
  -26.2945  -12.9318   20.3336 N   0  0  0  0  0  0
  -25.9285  -11.6478   20.5729 N   0  0  0  0  0  0
  -22.0412  -12.8276   22.0429 N   0  0  0  0  0  0
  -25.4218  -15.1892   20.4240 N   0  0  0  0  0  0
  -31.7850  -14.8096   20.0794 O   0  0  0  0  0  0
  -21.6622   -6.8869   21.4258 O   0  0  0  0  0  0
  -22.3537  -14.5576   20.6733 O   0  0  0  0  0  0
  -24.6246  -31.8563   23.1977 C   0  0  0  0  0  0
  -25.9078  -32.4763   23.8326 C   0  0  1  0  0  0
  -27.2448  -27.3300   20.1110 C   0  0  0  0  0  0
  -25.5885  -33.8561   24.2251 N   0  0  0  0  0  0
  -23.4217  -30.4729   21.5378 C   0  0  2  0  0  0
  -24.8771  -28.9281   20.0960 C   0  0  0  0  0  0
  -22.7478  -29.4581   22.4918 C   0  0  0  0  0  0
  -18.0287  -28.1387   22.8490 C   0  0  0  0  0  0
  -24.1469  -36.7273   23.2642 C   0  0  0  0  0  0
  -25.9585  -30.7882   21.3690 C   0  0  0  0  0  0
  -26.0386  -29.4176   20.7081 C   0  0  0  0  0  0
  -27.2204  -28.6224   20.7188 C   0  0  0  0  0  0
  -26.0719  -26.8881   19.4672 C   0  0  0  0  0  0
  -24.8948  -27.6682   19.4693 C   0  0  0  0  0  0
  -23.6373  -29.7991   20.1537 C   0  0  0  0  0  0
  -25.4094  -36.3063   24.0333 C   0  0  1  0  0  0
  -20.5885  -28.3674   23.1280 C   0  0  2  0  0  0
  -20.6767  -26.9390   22.5420 C   0  0  0  0  0  0
  -19.5743  -26.6375   21.5220 C   0  0  0  0  0  0
  -18.1922  -26.7933   22.1630 C   0  0  0  0  0  0
  -19.1541  -28.8850   23.2887 C   0  0  0  0  0  0
  -18.9473  -30.1451   23.8898 C   0  0  0  0  0  0
  -17.6474  -30.6576   24.0564 C   0  0  0  0  0  0
  -25.9040  -34.9435   23.5097 C   0  0  0  0  0  0
  -16.5362  -29.9082   23.6331 C   0  0  0  0  0  0
  -16.7272  -28.6505   23.0346 C   0  0  0  0  0  0
  -26.4460  -31.6590   25.0707 C   0  0  0  0  0  0
  -25.3697  -31.3755   26.1448 C   0  0  0  0  0  0
  -27.0305  -30.3013   24.6176 C   0  0  0  0  0  0
  -27.6026  -32.4330   25.7467 C   0  0  0  0  0  0
  -27.5560  -37.1778   24.8460 C   0  0  0  0  0  0
  -21.4189  -29.3018   22.3666 N   0  0  0  0  0  0
  -26.4263  -37.3764   23.9417 N   0  0  0  0  0  0
  -24.6864  -31.0569   22.0922 N   0  0  0  0  0  0
  -23.4200  -28.8151   23.3028 O   0  0  0  0  0  0
  -28.2932  -26.4321   20.3270 O   0  0  0  0  0  0
  -26.5641  -34.8912   22.4680 O   0  0  0  0  0  0
  -23.5410  -32.1364   23.7294 O   0  0  0  0  0  0
  -27.2602  -18.8957   16.2810 C   0  0  0  0  0  0
  -27.6402  -20.1935   16.6600 C   0  0  0  0  0  0
  -27.6431  -17.8031   17.0769 C   0  0  0  0  0  0
  -28.3896  -20.3969   17.8335 C   0  0  0  0  0  0
  -28.8160  -16.8862   18.9769 C   0  0  0  0  0  0
  -28.3932  -18.0074   18.2521 C   0  0  0  0  0  0
  -28.7584  -19.3083   18.6647 C   0  0  0  0  0  0
  -29.5366  -19.4305   19.8421 C   0  0  0  0  0  0
  -29.6070  -17.0120   20.1259 C   0  0  0  0  0  0
  -29.2484  -24.3210   19.3209 C   0  0  0  0  0  0
  -28.8949  -25.6612   19.3376 C   0  0  0  0  0  0
  -30.3165  -20.7042   20.1577 C   0  0  0  0  0  0
  -28.7070  -23.3686   21.6443 C   0  0  0  0  0  0
  -30.3413  -23.8785   18.3802 C   0  0  0  0  0  0
  -31.0754  -22.7683   19.1441 C   0  0  0  0  0  0
  -28.8942  -23.0328   20.1580 C   0  0  2  0  0  0
  -27.3361  -23.8927   22.0682 C   0  0  0  0  0  0
  -29.9471  -18.2885   20.5420 N   0  0  0  0  0  0
  -30.0541  -22.0650   19.9425 N   0  0  0  0  0  0
  -29.8542  -15.7584   20.8457 N   0  0  0  0  0  0
  -31.5538  -20.4088   20.5901 N   0  3  0  0  0  0
  -29.5909  -23.2388   22.4958 O   0  0  0  0  0  0
  -31.4851  -12.5102   19.1907 H   0  0  0  0  0  0
  -30.3485  -11.4184   19.9258 H   0  0  0  0  0  0
  -29.7969  -11.7873   17.4840 H   0  0  0  0  0  0
  -29.6628  -13.4964   17.7623 H   0  0  0  0  0  0
  -27.8982  -11.2903   18.8842 H   0  0  0  0  0  0
  -27.3902  -12.5627   17.7995 H   0  0  0  0  0  0
  -27.6468  -14.2423   19.5271 H   0  0  0  0  0  0
  -28.7113  -12.0870   21.4032 H   0  0  0  0  0  0
  -28.4324  -13.7475   21.8415 H   0  0  0  0  0  0
  -25.2742   -9.5669   22.4792 H   0  0  0  0  0  0
  -23.9993   -7.4606   22.7460 H   0  0  0  0  0  0
  -21.0817   -8.8771   19.8971 H   0  0  0  0  0  0
  -22.3691  -10.9665   19.6171 H   0  0  0  0  0  0
  -21.2032   -7.6146   23.9751 H   0  0  0  0  0  0
  -21.1485   -6.0522   25.9109 H   0  0  0  0  0  0
  -22.0584   -2.7607   23.2859 H   0  0  0  0  0  0
  -22.3959  -11.9932   22.4854 H   0  0  0  0  0  0
  -21.1037  -13.1371   22.2591 H   0  0  0  0  0  0
  -24.6545  -15.8349   20.5703 H   0  0  0  0  0  0
  -26.2610  -15.6450   20.0870 H   0  0  0  0  0  0
  -26.7155  -32.5440   23.1092 H   0  0  0  0  0  0
  -24.9976  -33.9689   25.0360 H   0  0  0  0  0  0
  -22.7156  -31.2925   21.3889 H   0  0  0  0  0  0
  -23.3733  -35.9599   23.3295 H   0  0  0  0  0  0
  -24.3561  -36.8910   22.2054 H   0  0  0  0  0  0
  -23.7221  -37.6467   23.6687 H   0  0  0  0  0  0
  -26.0883  -31.5505   20.5998 H   0  0  0  0  0  0
  -26.8385  -30.8407   21.9979 H   0  0  0  0  0  0
  -28.0976  -28.9676   21.2477 H   0  0  0  0  0  0
  -26.0466  -25.9014   19.0248 H   0  0  0  0  0  0
  -24.0006  -27.2798   19.0010 H   0  0  0  0  0  0
  -23.7452  -30.5700   19.3906 H   0  0  0  0  0  0
  -22.7615  -29.2177   19.8594 H   0  0  0  0  0  0
  -25.1269  -36.1900   25.0827 H   0  0  0  0  0  0
  -20.9986  -28.3260   24.1396 H   0  0  0  0  0  0
  -20.5638  -26.2287   23.3629 H   0  0  0  0  0  0
  -21.6640  -26.7400   22.1233 H   0  0  0  0  0  0
  -19.6893  -25.6287   21.1243 H   0  0  0  0  0  0
  -19.6672  -27.3185   20.6750 H   0  0  0  0  0  0
  -17.4188  -26.6668   21.4041 H   0  0  0  0  0  0
  -18.0324  -26.0081   22.9030 H   0  0  0  0  0  0
  -19.7941  -30.7274   24.2274 H   0  0  0  0  0  0
  -17.5017  -31.6251   24.5160 H   0  0  0  0  0  0
  -15.5362  -30.2978   23.7646 H   0  0  0  0  0  0
  -15.8679  -28.0815   22.7068 H   0  0  0  0  0  0
  -24.5822  -30.7168   25.7772 H   0  0  0  0  0  0
  -24.8956  -32.2944   26.4906 H   0  0  0  0  0  0
  -25.8007  -30.8884   27.0200 H   0  0  0  0  0  0
  -26.2876  -29.6773   24.1203 H   0  0  0  0  0  0
  -27.3991  -29.7271   25.4681 H   0  0  0  0  0  0
  -27.8746  -30.4290   23.9401 H   0  0  0  0  0  0
  -27.2637  -33.3622   26.2053 H   0  0  0  0  0  0
  -28.3820  -32.6907   25.0287 H   0  0  0  0  0  0
  -28.0715  -31.8465   26.5375 H   0  0  0  0  0  0
  -28.2580  -38.0073   24.7520 H   0  0  0  0  0  0
  -28.1060  -36.2616   24.6263 H   0  0  0  0  0  0
  -27.2302  -37.1398   25.8869 H   0  0  0  0  0  0
  -20.9375  -29.8712   21.6847 H   0  0  0  0  0  0
  -26.0141  -38.2829   24.1452 H   0  0  0  0  0  0
  -26.7002  -18.7384   15.3696 H   0  0  0  0  0  0
  -27.3672  -21.0369   16.0383 H   0  0  0  0  0  0
  -27.3794  -16.8050   16.7602 H   0  0  0  0  0  0
  -28.6679  -21.4120   18.0359 H   0  0  0  0  0  0
  -28.5446  -15.9150   18.5985 H   0  0  0  0  0  0
  -29.3407  -26.3326   18.6144 H   0  0  0  0  0  0
  -31.0123  -24.6960   18.1167 H   0  0  0  0  0  0
  -29.9046  -23.4985   17.4561 H   0  0  0  0  0  0
  -31.8305  -23.1838   19.8111 H   0  0  0  0  0  0
  -31.5719  -22.0830   18.4573 H   0  0  0  0  0  0
  -27.9806  -22.5875   19.7695 H   0  0  0  0  0  0
  -26.8725  -24.4618   21.2636 H   0  0  0  0  0  0
  -27.4236  -24.5458   22.9358 H   0  0  0  0  0  0
  -26.6709  -23.0681   22.3213 H   0  0  0  0  0  0
  -29.0359  -15.4391   21.3395 H   0  0  0  0  0  0
  -31.6894  -19.4191   20.7661 H   0  0  0  0  0  0
  -32.2028  -21.0830   20.9602 H   0  0  0  0  0  0
  1 25  1  0  0  0
  1 30  2  0  0  0
  1 90  1  0  0  0
  2  3  1  0  0  0
  2 25  1  0  0  0
  2 93  1  0  0  0
  2 94  1  0  0  0
  3  4  1  0  0  0
  3 95  1  0  0  0
  3 96  1  0  0  0
  4  5  1  0  0  0
  4 97  1  0  0  0
  4 98  1  0  0  0
  5  6  1  0  0  0
  5 26  1  0  0  0
  5 99  1  0  0  0
  6 25  1  0  0  0
  6100  1  0  0  0
  6101  1  0  0  0
  7  8  2  0  0  0
  7 26  1  0  0  0
  7 29  1  0  0  0
  8  9  1  0  0  0
  8 22  1  0  0  0
  9 10  1  0  0  0
  9 27  2  0  0  0
 10 11  2  0  0  0
 10 15  1  0  0  0
 11 12  1  0  0  0
 11102  1  0  0  0
 12 13  2  0  0  0
 12103  1  0  0  0
 13 14  1  0  0  0
 13 31  1  0  0  0
 14 15  2  0  0  0
 14104  1  0  0  0
 15105  1  0  0  0
 16 17  2  0  0  0
 16 21  1  0  0  0
 16 31  1  0  0  0
 17 18  1  0  0  0
 17106  1  0  0  0
 18 19  2  0  0  0
 18107  1  0  0  0
 19 20  1  0  0  0
 19 24  1  0  0  0
 20 21  2  0  0  0
 20108  1  0  0  0
 21 23  1  0  0  0
 22 28  1  0  0  0
 22 32  2  0  0  0
 26 27  1  0  0  0
 28109  1  0  0  0
 28110  1  0  0  0
 29111  1  0  0  0
 29112  1  0  0  0
 33 34  1  0  0  0
 33 66  1  0  0  0
 33 70  2  0  0  0
 34 36  1  0  0  0
 34 59  1  0  0  0
 34113  1  0  0  0
 35 44  2  0  0  0
 35 45  1  0  0  0
 35 68  1  0  0  0
 36 56  1  0  0  0
 36114  1  0  0  0
 37 39  1  0  0  0
 37 47  1  0  0  0
 37 66  1  0  0  0
 37115  1  0  0  0
 38 43  2  0  0  0
 38 46  1  0  0  0
 38 47  1  0  0  0
 39 64  1  0  0  0
 39 67  2  0  0  0
 40 52  1  0  0  0
 40 53  2  0  0  0
 40 58  1  0  0  0
 41116  1  0  0  0
 41117  1  0  0  0
 41118  1  0  0  0
 41 48  1  0  0  0
 42 43  1  0  0  0
 42 66  1  0  0  0
 42119  1  0  0  0
 42120  1  0  0  0
 43 44  1  0  0  0
 44121  1  0  0  0
 45 46  2  0  0  0
 45122  1  0  0  0
 46123  1  0  0  0
 47124  1  0  0  0
 47125  1  0  0  0
 48 56  1  0  0  0
 48 65  1  0  0  0
 48126  1  0  0  0
 49 50  1  0  0  0
 49 53  1  0  0  0
 49 64  1  0  0  0
 49127  1  0  0  0
 50 51  1  0  0  0
 50128  1  0  0  0
 50129  1  0  0  0
 51 52  1  0  0  0
 51130  1  0  0  0
 51131  1  0  0  0
 52132  1  0  0  0
 52133  1  0  0  0
 53 54  1  0  0  0
 54 55  2  0  0  0
 54134  1  0  0  0
 55 57  1  0  0  0
 55135  1  0  0  0
 56 69  2  0  0  0
 57 58  2  0  0  0
 57136  1  0  0  0
 58137  1  0  0  0
 59 60  1  0  0  0
 59 61  1  0  0  0
 59 62  1  0  0  0
 60138  1  0  0  0
 60139  1  0  0  0
 60140  1  0  0  0
 61141  1  0  0  0
 61142  1  0  0  0
 61143  1  0  0  0
 62144  1  0  0  0
 62145  1  0  0  0
 62146  1  0  0  0
 63 65  1  0  0  0
 63147  1  0  0  0
 63148  1  0  0  0
 63149  1  0  0  0
 64150  1  0  0  0
 65151  1  0  0  0
 68 81  1  0  0  0
 71 72  2  0  0  0
 71 73  1  0  0  0
 71152  1  0  0  0
 72 74  1  0  0  0
 72153  1  0  0  0
 73 76  2  0  0  0
 73154  1  0  0  0
 74 77  2  0  0  0
 74155  1  0  0  0
 75 76  1  0  0  0
 75 79  2  0  0  0
 75156  1  0  0  0
 76 77  1  0  0  0
 77 78  1  0  0  0
 78 82  1  0  0  0
 78 88  2  0  0  0
 79 88  1  0  0  0
 79 90  1  0  0  0
 80 81  2  0  0  0
 80 84  1  0  0  0
 80 86  1  0  0  0
 81157  1  0  0  0
 82 89  1  0  0  0
 82 91  2  0  0  0
 83 87  1  0  0  0
 83 92  2  0  0  0
 83 86  1  0  0  0
 84 85  1  0  0  0
 84158  1  0  0  0
 84159  1  0  0  0
 85 89  1  0  0  0
 85160  1  0  0  0
 85161  1  0  0  0
 86 89  1  0  0  0
 86162  1  0  0  0
 87163  1  0  0  0
 87164  1  0  0  0
 87165  1  0  0  0
 90166  1  0  0  0
 91167  1  0  0  0
 91168  1  0  0  0
M  CHG  1  91   1
M  ISO  4   1 100  68 101  81 101  90 100
M  END
> <chiral flag>
0

> <version>
0

> <s_m_source_file>
/data/baiqing/PycharmProjects/Reinvent-master-3.2/result/LINK_invent/BTK/process_docking_weight1_custom_product_contain_oxygen_bond_distance_aromatic_linkinvent_7_9_3/rearranged_h_0113.sdf

> <i_m_source_file_index>
28

> <r_mmod_Potential_Energy-OPLS-2005>
-125.33967590332

> <r_mmod_Stretch_Energy-OPLS-2005>
95.281379699707

> <r_mmod_Bend_Energy-OPLS-2005>
234.617416381836

> <r_mmod_Torsional_Energy-OPLS-2005>
380.622375488281

> <r_mmod_Improper_Torsional_Energy-OPLS-2005>
14.8649501800537

> <r_mmod_Van_der_Waal_Energy-OPLS-2005>
153.068954467773

> <r_mmod_Electrostatic_Energy-OPLS-2005>
-633.372802734375

> <r_mmod_Solvation_Energy-OPLS-2005>
-436.166656494141

> <b_mmod_Minimization_Converged-OPLS-2005>
0

> <r_mmod_RMS_Derivative-OPLS-2005>
3.74662566184998

$$$$
28
                    3D
 Structure written by MMmdl.
153161  0  0  1  0            999 V2000
  -30.6207  -14.7654   20.4623 C   0  0  0  0  0  0
  -30.4370  -12.4699   19.4920 C   0  0  0  0  0  0
  -29.5237  -12.5263   18.2484 C   0  0  0  0  0  0
  -28.0497  -12.3399   18.6566 C   0  0  0  0  0  0
  -27.6471  -13.2389   19.8558 C   0  0  2  0  0  0
  -28.6865  -13.1832   20.9980 C   0  0  0  0  0  0
  -25.2520  -13.8209   20.5692 C   0  0  0  0  0  0
  -24.1802  -13.0449   20.9190 C   0  0  0  0  0  0
  -24.6402  -11.6923   20.8736 C   0  0  0  0  0  0
  -23.9073  -10.4303   21.0417 C   0  0  0  0  0  0
  -24.3628   -9.4219   21.9188 C   0  0  0  0  0  0
  -23.6295   -8.2251   22.0760 C   0  0  0  0  0  0
  -22.4280   -8.0296   21.3559 C   0  0  0  0  0  0
  -21.9916   -9.0271   20.4657 C   0  0  0  0  0  0
  -22.7247  -10.2148   20.3057 C   0  0  0  0  0  0
  -21.6846   -6.0738   22.5282 C   0  0  0  0  0  0
  -21.4010   -6.5639   23.8227 C   0  0  0  0  0  0
  -21.3659   -5.6785   24.9187 C   0  0  0  0  0  0
  -21.6050   -4.3048   24.7230 C   0  0  0  0  0  0
  -21.8810   -3.8146   23.4354 C   0  0  0  0  0  0
  -21.9185   -4.6961   22.3416 C   0  0  0  0  0  0
  -22.7827  -13.5242   21.1867 C   0  0  0  0  0  0
  -22.1654   -4.2155   21.0990 F   0  0  0  0  0  0
  -21.5633   -3.4533   25.7744 F   0  0  0  0  0  0
  -29.9965  -13.5330   20.4314 N   0  0  0  0  0  0
  -26.2967  -12.9426   20.3295 N   0  0  0  0  0  0
  -25.9338  -11.6562   20.5716 N   0  0  0  0  0  0
  -22.0444  -12.8248   22.0416 N   0  0  0  0  0  0
  -25.4189  -15.1944   20.4151 N   0  0  0  0  0  0
  -31.7835  -14.8440   20.0592 O   0  0  0  0  0  0
  -21.6642   -6.8898   21.4251 O   0  0  0  0  0  0
  -22.3520  -14.5553   20.6711 O   0  0  0  0  0  0
  -24.6330  -31.8553   23.1992 C   0  0  0  0  0  0
  -25.9142  -32.4768   23.8344 C   0  0  1  0  0  0
  -27.2186  -27.2478   20.1432 C   0  0  0  0  0  0
  -25.5934  -33.8568   24.2260 N   0  0  0  0  0  0
  -23.4307  -30.4784   21.5439 C   0  0  2  0  0  0
  -24.8799  -28.9288   20.1102 C   0  0  0  0  0  0
  -22.7514  -29.4596   22.4909 C   0  0  0  0  0  0
  -18.0300  -28.1382   22.8493 C   0  0  0  0  0  0
  -24.1482  -36.7288   23.2639 C   0  0  0  0  0  0
  -25.9778  -30.7668   21.3799 C   0  0  0  0  0  0
  -26.0525  -29.3876   20.7229 C   0  0  0  0  0  0
  -27.2260  -28.5628   20.7235 C   0  0  0  0  0  0
  -26.0216  -26.8689   19.4881 C   0  0  0  0  0  0
  -24.8715  -27.6786   19.4793 C   0  0  0  0  0  0
  -23.6517  -29.8160   20.1581 C   0  0  0  0  0  0
  -25.4105  -36.3078   24.0330 C   0  0  1  0  0  0
  -20.5905  -28.3706   23.1264 C   0  0  2  0  0  0
  -20.6773  -26.9419   22.5398 C   0  0  0  0  0  0
  -19.5748  -26.6385   21.5210 C   0  0  0  0  0  0
  -18.1933  -26.7925   22.1633 C   0  0  0  0  0  0
  -19.1549  -28.8863   23.2879 C   0  0  0  0  0  0
  -18.9468  -30.1456   23.8912 C   0  0  0  0  0  0
  -17.6469  -30.6589   24.0554 C   0  0  0  0  0  0
  -25.9053  -34.9450   23.5104 C   0  0  0  0  0  0
  -16.5362  -29.9076   23.6323 C   0  0  0  0  0  0
  -16.7285  -28.6484   23.0371 C   0  0  0  0  0  0
  -26.4496  -31.6601   25.0739 C   0  0  0  0  0  0
  -25.3709  -31.3756   26.1452 C   0  0  0  0  0  0
  -27.0340  -30.3013   24.6218 C   0  0  0  0  0  0
  -27.6044  -32.4345   25.7526 C   0  0  0  0  0  0
  -27.5569  -37.1805   24.8460 C   0  0  0  0  0  0
  -21.4218  -29.3057   22.3655 N   0  0  0  0  0  0
  -26.4275  -37.3768   23.9415 N   0  0  0  0  0  0
  -24.6999  -31.0505   22.0985 N   0  0  0  0  0  0
  -23.4201  -28.8125   23.3006 O   0  0  0  0  0  0
  -28.2879  -26.3172   20.2340 O   0  0  0  0  0  0
  -26.5608  -34.8927   22.4666 O   0  0  0  0  0  0
  -23.5479  -32.1370   23.7270 O   0  0  0  0  0  0
  -28.7130  -20.1255   22.8821 C   0  0  0  0  0  0
  -29.1963  -19.7654   21.5744 C   0  0  0  0  0  0
  -29.4897  -18.3532   21.5157 C   0  0  0  0  0  0
  -28.6358  -19.1056   23.7870 C   0  0  0  0  0  0
  -30.1421  -17.2511   20.6272 C   0  0  0  0  0  0
  -28.9544  -23.6845   20.5275 C   0  0  0  0  0  0
  -28.2405  -19.1674   25.2259 C   0  0  0  0  0  0
  -28.4252  -22.1661   20.6460 C   0  0  0  0  0  0
  -27.9172  -24.8528   20.1504 C   0  0  0  0  0  0
  -29.3285  -20.9217   20.6710 N   0  0  0  0  0  0
  -29.8866  -15.8893   20.8327 N   0  0  0  0  0  0
  -30.9028  -17.6336   19.7317 O   0  0  0  0  0  0
  -30.1477  -23.9367   20.7268 O   0  0  0  0  0  0
  -29.1213  -17.6168   23.0702 S   0  0  0  0  0  0
  -31.4784  -12.5843   19.1897 H   0  0  0  0  0  0
  -30.3761  -11.4935   19.9746 H   0  0  0  0  0  0
  -29.8172  -11.7634   17.5271 H   0  0  0  0  0  0
  -29.6526  -13.4868   17.7431 H   0  0  0  0  0  0
  -27.9116  -11.2897   18.9155 H   0  0  0  0  0  0
  -27.3972  -12.5331   17.8056 H   0  0  0  0  0  0
  -27.6421  -14.2624   19.4776 H   0  0  0  0  0  0
  -28.7164  -12.1886   21.4440 H   0  0  0  0  0  0
  -28.4092  -13.8691   21.7999 H   0  0  0  0  0  0
  -25.2778   -9.5679   22.4767 H   0  0  0  0  0  0
  -23.9995   -7.4631   22.7473 H   0  0  0  0  0  0
  -21.0836   -8.8793   19.8969 H   0  0  0  0  0  0
  -22.3705  -10.9688   19.6161 H   0  0  0  0  0  0
  -21.1998   -7.6145   23.9726 H   0  0  0  0  0  0
  -21.1491   -6.0526   25.9093 H   0  0  0  0  0  0
  -22.0585   -2.7606   23.2855 H   0  0  0  0  0  0
  -22.4020  -11.9927   22.4869 H   0  0  0  0  0  0
  -21.1062  -13.1301   22.2593 H   0  0  0  0  0  0
  -24.6416  -15.8399   20.5070 H   0  0  0  0  0  0
  -26.2644  -15.6415   20.0862 H   0  0  0  0  0  0
  -26.7210  -32.5414   23.1089 H   0  0  0  0  0  0
  -25.0093  -33.9709   25.0415 H   0  0  0  0  0  0
  -22.7274  -31.3007   21.3970 H   0  0  0  0  0  0
  -23.3749  -35.9615   23.3296 H   0  0  0  0  0  0
  -24.3562  -36.8910   22.2051 H   0  0  0  0  0  0
  -23.7239  -37.6493   23.6662 H   0  0  0  0  0  0
  -26.1136  -31.5257   20.6072 H   0  0  0  0  0  0
  -26.8555  -30.8186   22.0120 H   0  0  0  0  0  0
  -28.1227  -28.9103   21.2171 H   0  0  0  0  0  0
  -25.9351  -25.9182   18.9837 H   0  0  0  0  0  0
  -23.9773  -27.3209   18.9861 H   0  0  0  0  0  0
  -23.7806  -30.5934   19.4044 H   0  0  0  0  0  0
  -22.7682  -29.2518   19.8496 H   0  0  0  0  0  0
  -25.1293  -36.1924   25.0818 H   0  0  0  0  0  0
  -21.0010  -28.3282   24.1385 H   0  0  0  0  0  0
  -20.5659  -26.2322   23.3611 H   0  0  0  0  0  0
  -21.6643  -26.7419   22.1211 H   0  0  0  0  0  0
  -19.6895  -25.6290   21.1255 H   0  0  0  0  0  0
  -19.6680  -27.3174   20.6724 H   0  0  0  0  0  0
  -17.4196  -26.6687   21.4036 H   0  0  0  0  0  0
  -18.0332  -26.0061   22.9024 H   0  0  0  0  0  0
  -19.7942  -30.7252   24.2310 H   0  0  0  0  0  0
  -17.5020  -31.6276   24.5136 H   0  0  0  0  0  0
  -15.5359  -30.2982   23.7634 H   0  0  0  0  0  0
  -15.8688  -28.0783   22.7121 H   0  0  0  0  0  0
  -24.5895  -30.7086   25.7781 H   0  0  0  0  0  0
  -24.8885  -32.2929   26.4837 H   0  0  0  0  0  0
  -25.8019  -30.8973   27.0254 H   0  0  0  0  0  0
  -26.2921  -29.6794   24.1188 H   0  0  0  0  0  0
  -27.3958  -29.7249   25.4742 H   0  0  0  0  0  0
  -27.8826  -30.4288   23.9494 H   0  0  0  0  0  0
  -27.2640  -33.3651   26.2084 H   0  0  0  0  0  0
  -28.3879  -32.6904   25.0379 H   0  0  0  0  0  0
  -28.0680  -31.8482   26.5472 H   0  0  0  0  0  0
  -28.2592  -38.0096   24.7507 H   0  0  0  0  0  0
  -28.1074  -36.2641   24.6297 H   0  0  0  0  0  0
  -27.2297  -37.1449   25.8862 H   0  0  0  0  0  0
  -20.9403  -29.8808   21.6887 H   0  0  0  0  0  0
  -26.0170  -38.2844   24.1421 H   0  0  0  0  0  0
  -28.4710  -21.1398   23.1636 H   0  0  0  0  0  0
  -27.9608  -18.1830   25.6057 H   0  0  0  0  0  0
  -27.3935  -19.8364   25.3744 H   0  0  0  0  0  0
  -29.0678  -19.5335   25.8347 H   0  0  0  0  0  0
  -27.7577  -22.0310   19.7939 H   0  0  0  0  0  0
  -27.7549  -22.1590   21.5041 H   0  0  0  0  0  0
  -27.0346  -24.6929   20.7700 H   0  0  0  0  0  0
  -27.6183  -24.6412   19.1251 H   0  0  0  0  0  0
  -29.8243  -20.7537   19.7997 H   0  0  0  0  0  0
  -29.0613  -15.6934   21.3727 H   0  0  0  0  0  0
  1 25  1  0  0  0
  1 30  2  0  0  0
  1 81  1  0  0  0
  2  3  1  0  0  0
  2 25  1  0  0  0
  2 85  1  0  0  0
  2 86  1  0  0  0
  3  4  1  0  0  0
  3 87  1  0  0  0
  3 88  1  0  0  0
  4  5  1  0  0  0
  4 89  1  0  0  0
  4 90  1  0  0  0
  5  6  1  0  0  0
  5 26  1  0  0  0
  5 91  1  0  0  0
  6 25  1  0  0  0
  6 92  1  0  0  0
  6 93  1  0  0  0
  7  8  2  0  0  0
  7 26  1  0  0  0
  7 29  1  0  0  0
  8  9  1  0  0  0
  8 22  1  0  0  0
  9 10  1  0  0  0
  9 27  2  0  0  0
 10 11  2  0  0  0
 10 15  1  0  0  0
 11 12  1  0  0  0
 11 94  1  0  0  0
 12 13  2  0  0  0
 12 95  1  0  0  0
 13 14  1  0  0  0
 13 31  1  0  0  0
 14 15  2  0  0  0
 14 96  1  0  0  0
 15 97  1  0  0  0
 16 17  2  0  0  0
 16 21  1  0  0  0
 16 31  1  0  0  0
 17 18  1  0  0  0
 17 98  1  0  0  0
 18 19  2  0  0  0
 18 99  1  0  0  0
 19 20  1  0  0  0
 19 24  1  0  0  0
 20 21  2  0  0  0
 20100  1  0  0  0
 21 23  1  0  0  0
 22 28  1  0  0  0
 22 32  2  0  0  0
 26 27  1  0  0  0
 28101  1  0  0  0
 28102  1  0  0  0
 29103  1  0  0  0
 29104  1  0  0  0
 33 34  1  0  0  0
 33 66  1  0  0  0
 33 70  2  0  0  0
 34 36  1  0  0  0
 34 59  1  0  0  0
 34105  1  0  0  0
 35 44  2  0  0  0
 35 45  1  0  0  0
 35 68  1  0  0  0
 36 56  1  0  0  0
 36106  1  0  0  0
 37 39  1  0  0  0
 37 47  1  0  0  0
 37 66  1  0  0  0
 37107  1  0  0  0
 38 43  2  0  0  0
 38 46  1  0  0  0
 38 47  1  0  0  0
 39 64  1  0  0  0
 39 67  2  0  0  0
 40 52  1  0  0  0
 40 53  2  0  0  0
 40 58  1  0  0  0
 41108  1  0  0  0
 41109  1  0  0  0
 41110  1  0  0  0
 41 48  1  0  0  0
 42 43  1  0  0  0
 42 66  1  0  0  0
 42111  1  0  0  0
 42112  1  0  0  0
 43 44  1  0  0  0
 44113  1  0  0  0
 45 46  2  0  0  0
 45114  1  0  0  0
 46115  1  0  0  0
 47116  1  0  0  0
 47117  1  0  0  0
 48 56  1  0  0  0
 48 65  1  0  0  0
 48118  1  0  0  0
 49 50  1  0  0  0
 49 53  1  0  0  0
 49 64  1  0  0  0
 49119  1  0  0  0
 50 51  1  0  0  0
 50120  1  0  0  0
 50121  1  0  0  0
 51 52  1  0  0  0
 51122  1  0  0  0
 51123  1  0  0  0
 52124  1  0  0  0
 52125  1  0  0  0
 53 54  1  0  0  0
 54 55  2  0  0  0
 54126  1  0  0  0
 55 57  1  0  0  0
 55127  1  0  0  0
 56 69  2  0  0  0
 57 58  2  0  0  0
 57128  1  0  0  0
 58129  1  0  0  0
 59 60  1  0  0  0
 59 61  1  0  0  0
 59 62  1  0  0  0
 60130  1  0  0  0
 60131  1  0  0  0
 60132  1  0  0  0
 61133  1  0  0  0
 61134  1  0  0  0
 61135  1  0  0  0
 62136  1  0  0  0
 62137  1  0  0  0
 62138  1  0  0  0
 63 65  1  0  0  0
 63139  1  0  0  0
 63140  1  0  0  0
 63141  1  0  0  0
 64142  1  0  0  0
 65143  1  0  0  0
 68 79  1  0  0  0
 71 72  1  0  0  0
 71 74  2  0  0  0
 71144  1  0  0  0
 72 73  2  0  0  0
 72 80  1  0  0  0
 73 75  1  0  0  0
 73 84  1  0  0  0
 74 77  1  0  0  0
 74 84  1  0  0  0
 75 81  1  0  0  0
 75 82  2  0  0  0
 76 78  1  0  0  0
 76 79  1  0  0  0
 76 83  2  0  0  0
 77145  1  0  0  0
 77146  1  0  0  0
 77147  1  0  0  0
 78 80  1  0  0  0
 78148  1  0  0  0
 78149  1  0  0  0
 79150  1  0  0  0
 79151  1  0  0  0
 80152  1  0  0  0
 81153  1  0  0  0
M  ISO  4   1 100  68 101  79 101  81 100
M  END
> <chiral flag>
0

> <version>
0

> <s_m_source_file>
/data/baiqing/PycharmProjects/Reinvent-master-3.2/result/LINK_invent/BTK/process_docking_weight1_custom_product_contain_oxygen_bond_distance_aromatic_linkinvent_7_9_3/rearranged_h_0113.sdf

> <i_m_source_file_index>
29

> <r_mmod_Potential_Energy-OPLS-2005>
251.438888549805

> <r_mmod_Stretch_Energy-OPLS-2005>
143.136856079102

> <r_mmod_Bend_Energy-OPLS-2005>
199.861022949219

> <r_mmod_Torsional_Energy-OPLS-2005>
240.72785949707

> <r_mmod_Improper_Torsional_Energy-OPLS-2005>
4.67287874221802

> <r_mmod_Van_der_Waal_Energy-OPLS-2005>
127.728210449219

> <r_mmod_Electrostatic_Energy-OPLS-2005>
-296.2890625

> <r_mmod_Solvation_Energy-OPLS-2005>
-264.817321777344

> <b_mmod_Minimization_Converged-OPLS-2005>
0

> <r_mmod_RMS_Derivative-OPLS-2005>
2.9643988609314

$$$$
29
                    3D
 Structure written by MMmdl.
151159  0  0  1  0            999 V2000
  -30.5287  -15.0292   20.4045 C   0  0  0  0  0  0
  -30.4371  -12.6420   19.5037 C   0  0  0  0  0  0
  -29.5222  -12.5370   18.2615 C   0  0  0  0  0  0
  -28.0592  -12.3091   18.6835 C   0  0  0  0  0  0
  -27.6230  -13.2558   19.8316 C   0  0  2  0  0  0
  -28.6654  -13.3293   20.9675 C   0  0  0  0  0  0
  -25.2433  -13.8225   20.5720 C   0  0  0  0  0  0
  -24.1765  -13.0437   20.9245 C   0  0  0  0  0  0
  -24.6394  -11.6927   20.8762 C   0  0  0  0  0  0
  -23.9083  -10.4292   21.0410 C   0  0  0  0  0  0
  -24.3630   -9.4205   21.9186 C   0  0  0  0  0  0
  -23.6300   -8.2242   22.0755 C   0  0  0  0  0  0
  -22.4282   -8.0282   21.3545 C   0  0  0  0  0  0
  -21.9921   -9.0257   20.4647 C   0  0  0  0  0  0
  -22.7255  -10.2134   20.3057 C   0  0  0  0  0  0
  -21.6855   -6.0736   22.5278 C   0  0  0  0  0  0
  -21.4016   -6.5640   23.8212 C   0  0  0  0  0  0
  -21.3660   -5.6793   24.9174 C   0  0  0  0  0  0
  -21.6044   -4.3055   24.7225 C   0  0  0  0  0  0
  -21.8819   -3.8147   23.4346 C   0  0  0  0  0  0
  -21.9193   -4.6964   22.3402 C   0  0  0  0  0  0
  -22.7784  -13.5201   21.1893 C   0  0  0  0  0  0
  -22.1661   -4.2149   21.0980 F   0  0  0  0  0  0
  -21.5628   -3.4539   25.7737 F   0  0  0  0  0  0
  -29.9289  -13.7619   20.3558 N   0  0  0  0  0  0
  -26.2858  -12.9470   20.3232 N   0  0  0  0  0  0
  -25.9327  -11.6593   20.5739 N   0  0  0  0  0  0
  -22.0437  -12.8185   22.0447 N   0  0  0  0  0  0
  -25.4073  -15.1957   20.4130 N   0  0  0  0  0  0
  -31.7452  -15.0379   20.1728 O   0  0  0  0  0  0
  -21.6643   -6.8880   21.4241 O   0  0  0  0  0  0
  -22.3466  -14.5504   20.6734 O   0  0  0  0  0  0
  -24.6493  -31.8388   23.1840 C   0  0  0  0  0  0
  -25.9240  -32.4667   23.8248 C   0  0  1  0  0  0
  -27.2137  -27.0769   20.1585 C   0  0  0  0  0  0
  -25.5964  -33.8475   24.2160 N   0  0  0  0  0  0
  -23.4559  -30.4573   21.5308 C   0  0  2  0  0  0
  -24.9061  -28.8758   20.1101 C   0  0  0  0  0  0
  -22.7597  -29.4523   22.4836 C   0  0  0  0  0  0
  -18.0310  -28.1400   22.8474 C   0  0  0  0  0  0
  -24.1493  -36.7242   23.2643 C   0  0  0  0  0  0
  -26.0168  -30.6936   21.3924 C   0  0  0  0  0  0
  -26.0867  -29.2996   20.7333 C   0  0  0  0  0  0
  -27.2407  -28.4181   20.7381 C   0  0  0  0  0  0
  -26.0054  -26.7727   19.4915 C   0  0  0  0  0  0
  -24.8821  -27.6279   19.4720 C   0  0  0  0  0  0
  -23.6861  -29.7854   20.1513 C   0  0  0  0  0  0
  -25.4127  -36.3015   24.0311 C   0  0  1  0  0  0
  -20.5927  -28.3733   23.1219 C   0  0  2  0  0  0
  -20.6793  -26.9430   22.5402 C   0  0  0  0  0  0
  -19.5766  -26.6381   21.5212 C   0  0  0  0  0  0
  -18.1947  -26.7936   22.1624 C   0  0  0  0  0  0
  -19.1569  -28.8885   23.2837 C   0  0  0  0  0  0
  -18.9483  -30.1478   23.8867 C   0  0  0  0  0  0
  -17.6479  -30.6594   24.0558 C   0  0  0  0  0  0
  -25.9082  -34.9392   23.5047 C   0  0  0  0  0  0
  -16.5370  -29.9085   23.6338 C   0  0  0  0  0  0
  -16.7294  -28.6504   23.0359 C   0  0  0  0  0  0
  -26.4539  -31.6557   25.0714 C   0  0  0  0  0  0
  -25.3705  -31.3764   26.1396 C   0  0  0  0  0  0
  -27.0416  -30.2944   24.6343 C   0  0  0  0  0  0
  -27.6055  -32.4337   25.7507 C   0  0  0  0  0  0
  -27.5574  -37.1778   24.8466 C   0  0  0  0  0  0
  -21.4283  -29.3050   22.3584 N   0  0  0  0  0  0
  -26.4285  -37.3735   23.9408 N   0  0  0  0  0  0
  -24.7276  -31.0191   22.0903 N   0  0  0  0  0  0
  -23.4212  -28.8073   23.3011 O   0  0  0  0  0  0
  -28.2388  -26.0426   20.2341 O   0  0  0  0  0  0
  -26.5675  -34.8900   22.4631 O   0  0  0  0  0  0
  -23.5598  -32.1291   23.7023 O   0  0  0  0  0  0
  -29.1564  -18.9427   20.3726 C   0  0  0  0  0  0
  -29.5411  -20.3987   20.3919 C   0  0  0  0  0  0
  -30.9385  -20.5427   20.5448 C   0  0  0  0  0  0
  -30.0873  -17.7666   20.4808 C   0  0  0  0  0  0
  -31.7880  -19.4143   20.6481 C   0  0  0  0  0  0
  -28.6523  -21.7641   20.2580 C   0  0  0  0  0  0
  -28.8943  -23.1844   20.2795 C   0  0  0  0  0  0
  -34.0231  -18.5394   20.9047 C   0  0  0  0  0  0
  -27.8940  -24.5069   20.0684 C   0  0  0  0  0  0
  -31.3840  -18.1152   20.6154 N   0  0  0  0  0  0
  -29.7553  -16.2474   20.4812 N   0  0  0  0  0  0
  -33.1411  -19.6533   20.7938 O   0  0  0  0  0  0
  -31.4969  -21.7772   20.5899 F   0  0  0  0  0  0
  -31.4682  -12.8037   19.1858 H   0  0  0  0  0  0
  -30.4442  -11.7042   20.0615 H   0  0  0  0  0  0
  -29.8557  -11.7276   17.6106 H   0  0  0  0  0  0
  -29.5960  -13.4536   17.6741 H   0  0  0  0  0  0
  -27.9709  -11.2722   19.0100 H   0  0  0  0  0  0
  -27.3936  -12.4161   17.8261 H   0  0  0  0  0  0
  -27.5709  -14.2473   19.3811 H   0  0  0  0  0  0
  -28.7740  -12.3666   21.4692 H   0  0  0  0  0  0
  -28.3512  -14.0435   21.7303 H   0  0  0  0  0  0
  -25.2772   -9.5680   22.4765 H   0  0  0  0  0  0
  -24.0005   -7.4633   22.7476 H   0  0  0  0  0  0
  -21.0852   -8.8780   19.8952 H   0  0  0  0  0  0
  -22.3713  -10.9675   19.6169 H   0  0  0  0  0  0
  -21.2010   -7.6148   23.9715 H   0  0  0  0  0  0
  -21.1481   -6.0523   25.9076 H   0  0  0  0  0  0
  -22.0598   -2.7609   23.2846 H   0  0  0  0  0  0
  -22.4065  -11.9853   22.4837 H   0  0  0  0  0  0
  -21.1050  -13.1197   22.2651 H   0  0  0  0  0  0
  -24.6313  -15.8406   20.5182 H   0  0  0  0  0  0
  -26.2360  -15.6364   20.0373 H   0  0  0  0  0  0
  -26.7305  -32.5254   23.0970 H   0  0  0  0  0  0
  -25.0082  -33.9581   25.0288 H   0  0  0  0  0  0
  -22.7616  -31.2853   21.3728 H   0  0  0  0  0  0
  -23.3762  -35.9565   23.3289 H   0  0  0  0  0  0
  -24.3575  -36.8897   22.2061 H   0  0  0  0  0  0
  -23.7241  -37.6428   23.6698 H   0  0  0  0  0  0
  -26.1807  -31.4451   20.6189 H   0  0  0  0  0  0
  -26.8838  -30.7441   22.0393 H   0  0  0  0  0  0
  -28.1370  -28.7374   21.2513 H   0  0  0  0  0  0
  -25.8867  -25.8216   18.9961 H   0  0  0  0  0  0
  -23.9826  -27.2987   18.9700 H   0  0  0  0  0  0
  -23.8290  -30.5595   19.3965 H   0  0  0  0  0  0
  -22.7991  -29.2323   19.8375 H   0  0  0  0  0  0
  -25.1318  -36.1834   25.0803 H   0  0  0  0  0  0
  -21.0017  -28.3330   24.1341 H   0  0  0  0  0  0
  -20.5685  -26.2349   23.3628 H   0  0  0  0  0  0
  -21.6658  -26.7428   22.1200 H   0  0  0  0  0  0
  -19.6928  -25.6283   21.1261 H   0  0  0  0  0  0
  -19.6702  -27.3174   20.6729 H   0  0  0  0  0  0
  -17.4216  -26.6678   21.4028 H   0  0  0  0  0  0
  -18.0347  -26.0086   22.9029 H   0  0  0  0  0  0
  -19.7960  -30.7301   24.2223 H   0  0  0  0  0  0
  -17.5033  -31.6271   24.5165 H   0  0  0  0  0  0
  -15.5369  -30.2977   23.7680 H   0  0  0  0  0  0
  -15.8695  -28.0812   22.7093 H   0  0  0  0  0  0
  -24.5896  -30.7101   25.7712 H   0  0  0  0  0  0
  -24.8882  -32.2951   26.4743 H   0  0  0  0  0  0
  -25.7971  -30.8987   27.0225 H   0  0  0  0  0  0
  -26.3052  -29.6650   24.1334 H   0  0  0  0  0  0
  -27.3988  -29.7264   25.4944 H   0  0  0  0  0  0
  -27.8976  -30.4163   23.9703 H   0  0  0  0  0  0
  -27.2640  -33.3666   26.2003 H   0  0  0  0  0  0
  -28.3909  -32.6851   25.0366 H   0  0  0  0  0  0
  -28.0675  -31.8516   26.5491 H   0  0  0  0  0  0
  -28.2580  -38.0085   24.7513 H   0  0  0  0  0  0
  -28.1081  -36.2613   24.6294 H   0  0  0  0  0  0
  -27.2289  -37.1424   25.8868 H   0  0  0  0  0  0
  -20.9506  -29.8759   21.6751 H   0  0  0  0  0  0
  -26.0146  -38.2800   24.1413 H   0  0  0  0  0  0
  -28.1036  -18.7249   20.2637 H   0  0  0  0  0  0
  -27.6115  -21.5240   20.0965 H   0  0  0  0  0  0
  -29.9176  -23.4888   20.4365 H   0  0  0  0  0  0
  -35.0464  -18.8975   21.0147 H   0  0  0  0  0  0
  -33.9878  -17.9106   20.0139 H   0  0  0  0  0  0
  -33.7915  -17.9308   21.7801 H   0  0  0  0  0  0
  -27.0157  -24.3133   20.6851 H   0  0  0  0  0  0
  -27.5503  -24.3968   19.0401 H   0  0  0  0  0  0
  -28.7681  -16.0603   20.5465 H   0  0  0  0  0  0
  1 25  1  0  0  0
  1 30  2  0  0  0
  1 81  1  0  0  0
  2  3  1  0  0  0
  2 25  1  0  0  0
  2 84  1  0  0  0
  2 85  1  0  0  0
  3  4  1  0  0  0
  3 86  1  0  0  0
  3 87  1  0  0  0
  4  5  1  0  0  0
  4 88  1  0  0  0
  4 89  1  0  0  0
  5  6  1  0  0  0
  5 26  1  0  0  0
  5 90  1  0  0  0
  6 25  1  0  0  0
  6 91  1  0  0  0
  6 92  1  0  0  0
  7  8  2  0  0  0
  7 26  1  0  0  0
  7 29  1  0  0  0
  8  9  1  0  0  0
  8 22  1  0  0  0
  9 10  1  0  0  0
  9 27  2  0  0  0
 10 11  2  0  0  0
 10 15  1  0  0  0
 11 12  1  0  0  0
 11 93  1  0  0  0
 12 13  2  0  0  0
 12 94  1  0  0  0
 13 14  1  0  0  0
 13 31  1  0  0  0
 14 15  2  0  0  0
 14 95  1  0  0  0
 15 96  1  0  0  0
 16 17  2  0  0  0
 16 21  1  0  0  0
 16 31  1  0  0  0
 17 18  1  0  0  0
 17 97  1  0  0  0
 18 19  2  0  0  0
 18 98  1  0  0  0
 19 20  1  0  0  0
 19 24  1  0  0  0
 20 21  2  0  0  0
 20 99  1  0  0  0
 21 23  1  0  0  0
 22 28  1  0  0  0
 22 32  2  0  0  0
 26 27  1  0  0  0
 28100  1  0  0  0
 28101  1  0  0  0
 29102  1  0  0  0
 29103  1  0  0  0
 33 34  1  0  0  0
 33 66  1  0  0  0
 33 70  2  0  0  0
 34 36  1  0  0  0
 34 59  1  0  0  0
 34104  1  0  0  0
 35 44  2  0  0  0
 35 45  1  0  0  0
 35 68  1  0  0  0
 36 56  1  0  0  0
 36105  1  0  0  0
 37 39  1  0  0  0
 37 47  1  0  0  0
 37 66  1  0  0  0
 37106  1  0  0  0
 38 43  2  0  0  0
 38 46  1  0  0  0
 38 47  1  0  0  0
 39 64  1  0  0  0
 39 67  2  0  0  0
 40 52  1  0  0  0
 40 53  2  0  0  0
 40 58  1  0  0  0
 41107  1  0  0  0
 41108  1  0  0  0
 41109  1  0  0  0
 41 48  1  0  0  0
 42 43  1  0  0  0
 42 66  1  0  0  0
 42110  1  0  0  0
 42111  1  0  0  0
 43 44  1  0  0  0
 44112  1  0  0  0
 45 46  2  0  0  0
 45113  1  0  0  0
 46114  1  0  0  0
 47115  1  0  0  0
 47116  1  0  0  0
 48 56  1  0  0  0
 48 65  1  0  0  0
 48117  1  0  0  0
 49 50  1  0  0  0
 49 53  1  0  0  0
 49 64  1  0  0  0
 49118  1  0  0  0
 50 51  1  0  0  0
 50119  1  0  0  0
 50120  1  0  0  0
 51 52  1  0  0  0
 51121  1  0  0  0
 51122  1  0  0  0
 52123  1  0  0  0
 52124  1  0  0  0
 53 54  1  0  0  0
 54 55  2  0  0  0
 54125  1  0  0  0
 55 57  1  0  0  0
 55126  1  0  0  0
 56 69  2  0  0  0
 57 58  2  0  0  0
 57127  1  0  0  0
 58128  1  0  0  0
 59 60  1  0  0  0
 59 61  1  0  0  0
 59 62  1  0  0  0
 60129  1  0  0  0
 60130  1  0  0  0
 60131  1  0  0  0
 61132  1  0  0  0
 61133  1  0  0  0
 61134  1  0  0  0
 62135  1  0  0  0
 62136  1  0  0  0
 62137  1  0  0  0
 63 65  1  0  0  0
 63138  1  0  0  0
 63139  1  0  0  0
 63140  1  0  0  0
 64141  1  0  0  0
 65142  1  0  0  0
 68 79  1  0  0  0
 71 72  2  0  0  0
 71 74  1  0  0  0
 71143  1  0  0  0
 72 73  1  0  0  0
 72 76  1  0  0  0
 73 75  2  0  0  0
 73 83  1  0  0  0
 74 80  2  0  0  0
 74 81  1  0  0  0
 75 80  1  0  0  0
 75 82  1  0  0  0
 76 77  2  0  0  0
 76144  1  0  0  0
 77 79  1  0  0  0
 77145  1  0  0  0
 78 82  1  0  0  0
 78146  1  0  0  0
 78147  1  0  0  0
 78148  1  0  0  0
 79149  1  0  0  0
 79150  1  0  0  0
 81151  1  0  0  0
M  ISO  4   1 100  68 101  79 101  81 100
M  END
> <chiral flag>
0

> <version>
0

> <s_m_source_file>
/data/baiqing/PycharmProjects/Reinvent-master-3.2/result/LINK_invent/BTK/process_docking_weight1_custom_product_contain_oxygen_bond_distance_aromatic_linkinvent_7_9_3/rearranged_h_0113.sdf

> <i_m_source_file_index>
30

> <r_mmod_Potential_Energy-OPLS-2005>
505.683685302734

> <r_mmod_Stretch_Energy-OPLS-2005>
317.897033691406

> <r_mmod_Bend_Energy-OPLS-2005>
265.229888916016

> <r_mmod_Torsional_Energy-OPLS-2005>
197.053527832031

> <r_mmod_Improper_Torsional_Energy-OPLS-2005>
5.15009117126465

> <r_mmod_Van_der_Waal_Energy-OPLS-2005>
145.517242431641

> <r_mmod_Electrostatic_Energy-OPLS-2005>
-445.849060058594

> <r_mmod_Solvation_Energy-OPLS-2005>
-231.403167724609

> <b_mmod_Minimization_Converged-OPLS-2005>
0

> <r_mmod_RMS_Derivative-OPLS-2005>
0.11516048759222

$$$$
30
                    3D
 Structure written by MMmdl.
162170  0  0  1  0            999 V2000
  -30.8235  -14.4655   20.6164 C   0  0  0  0  0  0
  -30.4031  -12.3301   19.4404 C   0  0  0  0  0  0
  -29.4999  -12.5145   18.2101 C   0  0  0  0  0  0
  -28.0238  -12.3690   18.6199 C   0  0  0  0  0  0
  -27.6592  -13.2290   19.8619 C   0  0  2  0  0  0
  -28.7063  -13.0883   20.9956 C   0  0  0  0  0  0
  -25.2573  -13.8220   20.5680 C   0  0  0  0  0  0
  -24.1855  -13.0464   20.9160 C   0  0  0  0  0  0
  -24.6444  -11.6933   20.8737 C   0  0  0  0  0  0
  -23.9115  -10.4304   21.0388 C   0  0  0  0  0  0
  -24.3658   -9.4200   21.9152 C   0  0  0  0  0  0
  -23.6306   -8.2252   22.0744 C   0  0  0  0  0  0
  -22.4287   -8.0284   21.3554 C   0  0  0  0  0  0
  -21.9925   -9.0263   20.4657 C   0  0  0  0  0  0
  -22.7279  -10.2123   20.3045 C   0  0  0  0  0  0
  -21.6853   -6.0726   22.5266 C   0  0  0  0  0  0
  -21.4012   -6.5625   23.8206 C   0  0  0  0  0  0
  -21.3672   -5.6779   24.9169 C   0  0  0  0  0  0
  -21.6047   -4.3036   24.7212 C   0  0  0  0  0  0
  -21.8821   -3.8133   23.4335 C   0  0  0  0  0  0
  -21.9188   -4.6955   22.3393 C   0  0  0  0  0  0
  -22.7850  -13.5206   21.1790 C   0  0  0  0  0  0
  -22.1656   -4.2140   21.0960 F   0  0  0  0  0  0
  -21.5648   -3.4520   25.7729 F   0  0  0  0  0  0
  -30.0387  -13.3594   20.4347 N   0  0  0  0  0  0
  -26.3041  -12.9445   20.3328 N   0  0  0  0  0  0
  -25.9373  -11.6592   20.5763 N   0  0  0  0  0  0
  -22.0477  -12.8265   22.0378 N   0  0  0  0  0  0
  -25.4226  -15.1957   20.4116 N   0  0  0  0  0  0
  -31.8896  -14.5553   20.0027 O   0  0  0  0  0  0
  -21.6650   -6.8873   21.4237 O   0  0  0  0  0  0
  -22.3524  -14.5468   20.6543 O   0  0  0  0  0  0
  -24.6185  -31.8648   23.2052 C   0  0  0  0  0  0
  -25.9049  -32.4815   23.8375 C   0  0  1  0  0  0
  -27.2481  -27.4132   20.0922 C   0  0  0  0  0  0
  -25.5908  -33.8620   24.2303 N   0  0  0  0  0  0
  -23.4104  -30.4821   21.5475 C   0  0  2  0  0  0
  -24.8597  -28.9392   20.1192 C   0  0  0  0  0  0
  -22.7421  -29.4614   22.4991 C   0  0  0  0  0  0
  -18.0274  -28.1375   22.8504 C   0  0  0  0  0  0
  -24.1491  -36.7310   23.2635 C   0  0  0  0  0  0
  -25.9414  -30.8188   21.3614 C   0  0  0  0  0  0
  -26.0222  -29.4516   20.7084 C   0  0  0  0  0  0
  -27.2204  -28.6977   20.6887 C   0  0  0  0  0  0
  -26.0654  -26.9114   19.5103 C   0  0  0  0  0  0
  -24.8768  -27.6675   19.5167 C   0  0  0  0  0  0
  -23.6215  -29.8079   20.1651 C   0  0  0  0  0  0
  -25.4117  -36.3121   24.0338 C   0  0  1  0  0  0
  -20.5862  -28.3655   23.1319 C   0  0  2  0  0  0
  -20.6764  -26.9394   22.5415 C   0  0  0  0  0  0
  -19.5736  -26.6380   21.5211 C   0  0  0  0  0  0
  -18.1916  -26.7929   22.1626 C   0  0  0  0  0  0
  -19.1524  -28.8838   23.2909 C   0  0  0  0  0  0
  -18.9448  -30.1445   23.8913 C   0  0  0  0  0  0
  -17.6442  -30.6579   24.0568 C   0  0  0  0  0  0
  -25.9045  -34.9483   23.5116 C   0  0  0  0  0  0
  -16.5335  -29.9079   23.6326 C   0  0  0  0  0  0
  -16.7259  -28.6499   23.0346 C   0  0  0  0  0  0
  -26.4458  -31.6602   25.0713 C   0  0  0  0  0  0
  -25.3728  -31.3738   26.1461 C   0  0  0  0  0  0
  -27.0289  -30.3044   24.6110 C   0  0  0  0  0  0
  -27.6057  -32.4312   25.7456 C   0  0  0  0  0  0
  -27.5588  -37.1806   24.8469 C   0  0  0  0  0  0
  -21.4141  -29.3018   22.3736 N   0  0  0  0  0  0
  -26.4307  -37.3793   23.9408 N   0  0  0  0  0  0
  -24.6768  -31.0697   22.0972 N   0  0  0  0  0  0
  -23.4182  -28.8160   23.3050 O   0  0  0  0  0  0
  -28.4118  -26.6674   20.0498 O   0  0  0  0  0  0
  -26.5603  -34.8920   22.4667 O   0  0  0  0  0  0
  -23.5360  -32.1416   23.7379 O   0  0  0  0  0  0
  -28.6795  -18.9488   21.2281 C   0  0  0  0  0  0
  -30.1400  -16.9446   20.9840 C   0  0  0  0  0  0
  -29.3883  -19.6786   20.2584 C   0  0  0  0  0  0
  -30.8156  -17.6733   19.9440 C   0  0  0  0  0  0
  -30.4099  -18.9818   19.5568 C   0  0  0  0  0  0
  -29.0294  -17.6224   21.5605 C   0  0  0  0  0  0
  -29.9193  -21.9479   19.9532 C   0  0  0  0  0  0
  -29.7467  -23.4562   19.7532 C   0  0  0  0  0  0
  -30.2629  -19.5147   17.2993 C   0  0  0  0  0  0
  -28.3777  -24.0967   20.0665 C   0  0  0  0  0  0
  -28.4145  -25.4559   20.8349 C   0  0  0  0  0  0
  -30.5603  -15.6125   21.6402 C   0  0  1  0  0  0
  -29.0226  -21.0309   20.0382 N   0  0  0  0  0  0
  -31.9478  -17.1751   19.2867 N   0  0  0  0  0  0
  -31.8189  -15.8177   22.3781 N   0  3  0  0  0  0
  -30.6779  -24.1620   19.3454 O   0  0  0  0  0  0
  -31.0414  -19.5708   18.4906 O   0  0  0  0  0  0
  -28.3075  -17.0135   22.5280 F   0  0  0  0  0  0
  -31.4512  -12.3747   19.1370 H   0  0  0  0  0  0
  -30.2749  -11.3343   19.8704 H   0  0  0  0  0  0
  -29.7542  -11.7841   17.4425 H   0  0  0  0  0  0
  -29.6734  -13.4951   17.7659 H   0  0  0  0  0  0
  -27.8450  -11.3141   18.8344 H   0  0  0  0  0  0
  -27.3789  -12.6204   17.7758 H   0  0  0  0  0  0
  -27.6762  -14.2652   19.5261 H   0  0  0  0  0  0
  -28.6852  -12.0813   21.4147 H   0  0  0  0  0  0
  -28.4506  -13.7548   21.8164 H   0  0  0  0  0  0
  -25.2816   -9.5660   22.4706 H   0  0  0  0  0  0
  -24.0008   -7.4649   22.7455 H   0  0  0  0  0  0
  -21.0854   -8.8804   19.8976 H   0  0  0  0  0  0
  -22.3753  -10.9660   19.6146 H   0  0  0  0  0  0
  -21.1997   -7.6129   23.9713 H   0  0  0  0  0  0
  -21.1506   -6.0498   25.9075 H   0  0  0  0  0  0
  -22.0592   -2.7591   23.2831 H   0  0  0  0  0  0
  -22.4101  -12.0011   22.4924 H   0  0  0  0  0  0
  -21.1066  -13.1301   22.2443 H   0  0  0  0  0  0
  -24.6514  -15.8440   20.5266 H   0  0  0  0  0  0
  -26.2785  -15.6525   20.1274 H   0  0  0  0  0  0
  -26.7132  -32.5490   23.1147 H   0  0  0  0  0  0
  -25.0116  -33.9791   25.0490 H   0  0  0  0  0  0
  -22.7028  -31.2991   21.4016 H   0  0  0  0  0  0
  -23.3755  -35.9637   23.3332 H   0  0  0  0  0  0
  -24.3587  -36.8875   22.2044 H   0  0  0  0  0  0
  -23.7238  -37.6525   23.6618 H   0  0  0  0  0  0
  -26.0582  -31.5798   20.5891 H   0  0  0  0  0  0
  -26.8296  -30.8719   21.9805 H   0  0  0  0  0  0
  -28.1186  -29.0984   21.1394 H   0  0  0  0  0  0
  -26.0653  -25.9376   19.0414 H   0  0  0  0  0  0
  -23.9838  -27.2637   19.0566 H   0  0  0  0  0  0
  -23.7366  -30.5796   19.4042 H   0  0  0  0  0  0
  -22.7469  -29.2261   19.8682 H   0  0  0  0  0  0
  -25.1287  -36.2004   25.0836 H   0  0  0  0  0  0
  -20.9955  -28.3223   24.1432 H   0  0  0  0  0  0
  -20.5656  -26.2263   23.3601 H   0  0  0  0  0  0
  -21.6639  -26.7427   22.1207 H   0  0  0  0  0  0
  -19.6892  -25.6290   21.1236 H   0  0  0  0  0  0
  -19.6689  -27.3203   20.6760 H   0  0  0  0  0  0
  -17.4191  -26.6686   21.4017 H   0  0  0  0  0  0
  -18.0310  -26.0052   22.9012 H   0  0  0  0  0  0
  -19.7915  -30.7264   24.2280 H   0  0  0  0  0  0
  -17.4992  -31.6253   24.5174 H   0  0  0  0  0  0
  -15.5335  -30.2986   23.7628 H   0  0  0  0  0  0
  -15.8664  -28.0819   22.7049 H   0  0  0  0  0  0
  -24.5877  -30.7111   25.7801 H   0  0  0  0  0  0
  -24.8937  -32.2901   26.4914 H   0  0  0  0  0  0
  -25.8043  -30.8900   27.0221 H   0  0  0  0  0  0
  -26.2836  -29.6814   24.1156 H   0  0  0  0  0  0
  -27.4053  -29.7274   25.4558 H   0  0  0  0  0  0
  -27.8661  -30.4370   23.9262 H   0  0  0  0  0  0
  -27.2714  -33.3601   26.2069 H   0  0  0  0  0  0
  -28.3821  -32.6882   25.0252 H   0  0  0  0  0  0
  -28.0776  -31.8431   26.5324 H   0  0  0  0  0  0
  -28.2633  -38.0078   24.7504 H   0  0  0  0  0  0
  -28.1057  -36.2617   24.6316 H   0  0  0  0  0  0
  -27.2310  -37.1476   25.8870 H   0  0  0  0  0  0
  -20.9313  -29.8777   21.6979 H   0  0  0  0  0  0
  -26.0212  -38.2875   24.1387 H   0  0  0  0  0  0
  -27.8720  -19.4202   21.7652 H   0  0  0  0  0  0
  -30.9702  -21.6520   20.0357 H   0  0  0  0  0  0
  -30.8830  -19.8003   16.4522 H   0  0  0  0  0  0
  -29.4111  -20.1970   17.3384 H   0  0  0  0  0  0
  -29.8903  -18.5051   17.1092 H   0  0  0  0  0  0
  -27.8497  -23.3879   20.7047 H   0  0  0  0  0  0
  -27.7953  -24.1714   19.1485 H   0  0  0  0  0  0
  -27.5772  -25.4677   21.5351 H   0  0  0  0  0  0
  -29.3016  -25.4847   21.4716 H   0  0  0  0  0  0
  -29.8305  -15.2840   22.3758 H   0  0  0  0  0  0
  -32.0951  -16.1646   19.2339 H   0  0  0  0  0  0
  -32.2539  -17.6618   18.4490 H   0  0  0  0  0  0
  -32.1000  -14.9433   22.7826 H   0  0  0  0  0  0
  -31.7482  -16.5147   23.0959 H   0  0  0  0  0  0
  -32.5183  -16.0780   21.7055 H   0  0  0  0  0  0
  1 25  1  0  0  0
  1 30  2  0  0  0
  1 82  1  0  0  0
  2  3  1  0  0  0
  2 25  1  0  0  0
  2 89  1  0  0  0
  2 90  1  0  0  0
  3  4  1  0  0  0
  3 91  1  0  0  0
  3 92  1  0  0  0
  4  5  1  0  0  0
  4 93  1  0  0  0
  4 94  1  0  0  0
  5  6  1  0  0  0
  5 26  1  0  0  0
  5 95  1  0  0  0
  6 25  1  0  0  0
  6 96  1  0  0  0
  6 97  1  0  0  0
  7  8  2  0  0  0
  7 26  1  0  0  0
  7 29  1  0  0  0
  8  9  1  0  0  0
  8 22  1  0  0  0
  9 10  1  0  0  0
  9 27  2  0  0  0
 10 11  2  0  0  0
 10 15  1  0  0  0
 11 12  1  0  0  0
 11 98  1  0  0  0
 12 13  2  0  0  0
 12 99  1  0  0  0
 13 14  1  0  0  0
 13 31  1  0  0  0
 14 15  2  0  0  0
 14100  1  0  0  0
 15101  1  0  0  0
 16 17  2  0  0  0
 16 21  1  0  0  0
 16 31  1  0  0  0
 17 18  1  0  0  0
 17102  1  0  0  0
 18 19  2  0  0  0
 18103  1  0  0  0
 19 20  1  0  0  0
 19 24  1  0  0  0
 20 21  2  0  0  0
 20104  1  0  0  0
 21 23  1  0  0  0
 22 28  1  0  0  0
 22 32  2  0  0  0
 26 27  1  0  0  0
 28105  1  0  0  0
 28106  1  0  0  0
 29107  1  0  0  0
 29108  1  0  0  0
 33 34  1  0  0  0
 33 66  1  0  0  0
 33 70  2  0  0  0
 34 36  1  0  0  0
 34 59  1  0  0  0
 34109  1  0  0  0
 35 44  2  0  0  0
 35 45  1  0  0  0
 35 68  1  0  0  0
 36 56  1  0  0  0
 36110  1  0  0  0
 37 39  1  0  0  0
 37 47  1  0  0  0
 37 66  1  0  0  0
 37111  1  0  0  0
 38 43  2  0  0  0
 38 46  1  0  0  0
 38 47  1  0  0  0
 39 64  1  0  0  0
 39 67  2  0  0  0
 40 52  1  0  0  0
 40 53  2  0  0  0
 40 58  1  0  0  0
 41112  1  0  0  0
 41113  1  0  0  0
 41114  1  0  0  0
 41 48  1  0  0  0
 42 43  1  0  0  0
 42 66  1  0  0  0
 42115  1  0  0  0
 42116  1  0  0  0
 43 44  1  0  0  0
 44117  1  0  0  0
 45 46  2  0  0  0
 45118  1  0  0  0
 46119  1  0  0  0
 47120  1  0  0  0
 47121  1  0  0  0
 48 56  1  0  0  0
 48 65  1  0  0  0
 48122  1  0  0  0
 49 50  1  0  0  0
 49 53  1  0  0  0
 49 64  1  0  0  0
 49123  1  0  0  0
 50 51  1  0  0  0
 50124  1  0  0  0
 50125  1  0  0  0
 51 52  1  0  0  0
 51126  1  0  0  0
 51127  1  0  0  0
 52128  1  0  0  0
 52129  1  0  0  0
 53 54  1  0  0  0
 54 55  2  0  0  0
 54130  1  0  0  0
 55 57  1  0  0  0
 55131  1  0  0  0
 56 69  2  0  0  0
 57 58  2  0  0  0
 57132  1  0  0  0
 58133  1  0  0  0
 59 60  1  0  0  0
 59 61  1  0  0  0
 59 62  1  0  0  0
 60134  1  0  0  0
 60135  1  0  0  0
 60136  1  0  0  0
 61137  1  0  0  0
 61138  1  0  0  0
 61139  1  0  0  0
 62140  1  0  0  0
 62141  1  0  0  0
 62142  1  0  0  0
 63 65  1  0  0  0
 63143  1  0  0  0
 63144  1  0  0  0
 63145  1  0  0  0
 64146  1  0  0  0
 65147  1  0  0  0
 68 81  1  0  0  0
 71 73  2  0  0  0
 71 76  1  0  0  0
 71148  1  0  0  0
 72 74  1  0  0  0
 72 76  2  0  0  0
 72 82  1  0  0  0
 73 75  1  0  0  0
 73 83  1  0  0  0
 74 75  2  0  0  0
 74 84  1  0  0  0
 75 87  1  0  0  0
 76 88  1  0  0  0
 77 78  1  0  0  0
 77 83  2  0  0  0
 77149  1  0  0  0
 78 80  1  0  0  0
 78 86  2  0  0  0
 79 87  1  0  0  0
 79150  1  0  0  0
 79151  1  0  0  0
 79152  1  0  0  0
 80 81  1  0  0  0
 80153  1  0  0  0
 80154  1  0  0  0
 81155  1  0  0  0
 81156  1  0  0  0
 82 85  1  0  0  0
 82157  1  0  0  0
 84158  1  0  0  0
 84159  1  0  0  0
 85160  1  0  0  0
 85161  1  0  0  0
 85162  1  0  0  0
M  CHG  1  85   1
M  ISO  4   1 100  68 101  81 101  82 100
M  END
> <chiral flag>
0

> <version>
0

> <s_m_source_file>
/data/baiqing/PycharmProjects/Reinvent-master-3.2/result/LINK_invent/BTK/process_docking_weight1_custom_product_contain_oxygen_bond_distance_aromatic_linkinvent_7_9_3/rearranged_h_0113.sdf

> <i_m_source_file_index>
31

> <r_mmod_Potential_Energy-OPLS-2005>
-265.461700439453

> <r_mmod_Stretch_Energy-OPLS-2005>
55.1130409240723

> <r_mmod_Bend_Energy-OPLS-2005>
143.487121582031

> <r_mmod_Torsional_Energy-OPLS-2005>
238.620361328125

> <r_mmod_Improper_Torsional_Energy-OPLS-2005>
5.96531534194946

> <r_mmod_Van_der_Waal_Energy-OPLS-2005>
164.330764770508

> <r_mmod_Electrostatic_Energy-OPLS-2005>
-412.633483886719

> <r_mmod_Solvation_Energy-OPLS-2005>
-479.506591796875

> <b_mmod_Minimization_Converged-OPLS-2005>
0

> <r_mmod_RMS_Derivative-OPLS-2005>
4.89909839630127

$$$$
31
                    3D
 Structure written by MMmdl.
152160  0  0  1  0            999 V2000
  -30.6225  -14.7334   20.4797 C   0  0  0  0  0  0
  -30.4216  -12.4483   19.4917 C   0  0  0  0  0  0
  -29.5086  -12.5114   18.2476 C   0  0  0  0  0  0
  -28.0349  -12.3305   18.6574 C   0  0  0  0  0  0
  -27.6380  -13.2335   19.8549 C   0  0  2  0  0  0
  -28.6775  -13.1746   20.9962 C   0  0  0  0  0  0
  -25.2484  -13.8201   20.5703 C   0  0  0  0  0  0
  -24.1780  -13.0442   20.9203 C   0  0  0  0  0  0
  -24.6372  -11.6925   20.8733 C   0  0  0  0  0  0
  -23.9060  -10.4296   21.0395 C   0  0  0  0  0  0
  -24.3610   -9.4215   21.9182 C   0  0  0  0  0  0
  -23.6288   -8.2244   22.0765 C   0  0  0  0  0  0
  -22.4275   -8.0269   21.3541 C   0  0  0  0  0  0
  -21.9900   -9.0246   20.4650 C   0  0  0  0  0  0
  -22.7224  -10.2130   20.3059 C   0  0  0  0  0  0
  -21.6845   -6.0730   22.5271 C   0  0  0  0  0  0
  -21.4013   -6.5642   23.8203 C   0  0  0  0  0  0
  -21.3666   -5.6798   24.9164 C   0  0  0  0  0  0
  -21.6046   -4.3058   24.7213 C   0  0  0  0  0  0
  -21.8820   -3.8148   23.4337 C   0  0  0  0  0  0
  -21.9192   -4.6961   22.3390 C   0  0  0  0  0  0
  -22.7808  -13.5221   21.1857 C   0  0  0  0  0  0
  -22.1662   -4.2149   21.0967 F   0  0  0  0  0  0
  -21.5627   -3.4547   25.7731 F   0  0  0  0  0  0
  -29.9829  -13.5155   20.4209 N   0  0  0  0  0  0
  -26.2904  -12.9414   20.3297 N   0  0  0  0  0  0
  -25.9303  -11.6556   20.5764 N   0  0  0  0  0  0
  -22.0462  -12.8217   22.0421 N   0  0  0  0  0  0
  -25.4172  -15.1923   20.4112 N   0  0  0  0  0  0
  -31.8044  -14.8173   20.1349 O   0  0  0  0  0  0
  -21.6634   -6.8869   21.4237 O   0  0  0  0  0  0
  -22.3492  -14.5528   20.6696 O   0  0  0  0  0  0
  -24.6318  -31.8539   23.2000 C   0  0  0  0  0  0
  -25.9136  -32.4746   23.8352 C   0  0  1  0  0  0
  -27.2151  -27.2659   20.1368 C   0  0  0  0  0  0
  -25.5933  -33.8550   24.2260 N   0  0  0  0  0  0
  -23.4300  -30.4759   21.5427 C   0  0  2  0  0  0
  -24.8780  -28.9269   20.1098 C   0  0  0  0  0  0
  -22.7520  -29.4574   22.4922 C   0  0  0  0  0  0
  -18.0279  -28.1384   22.8477 C   0  0  0  0  0  0
  -24.1481  -36.7280   23.2647 C   0  0  0  0  0  0
  -25.9765  -30.7683   21.3816 C   0  0  0  0  0  0
  -26.0501  -29.3925   20.7216 C   0  0  0  0  0  0
  -27.2258  -28.5758   20.7205 C   0  0  0  0  0  0
  -26.0279  -26.8703   19.4849 C   0  0  0  0  0  0
  -24.8718  -27.6734   19.4792 C   0  0  0  0  0  0
  -23.6497  -29.8139   20.1580 C   0  0  0  0  0  0
  -25.4108  -36.3057   24.0323 C   0  0  1  0  0  0
  -20.5887  -28.3692   23.1265 C   0  0  2  0  0  0
  -20.6771  -26.9407   22.5402 C   0  0  0  0  0  0
  -19.5744  -26.6374   21.5205 C   0  0  0  0  0  0
  -18.1913  -26.7929   22.1612 C   0  0  0  0  0  0
  -19.1533  -28.8855   23.2852 C   0  0  0  0  0  0
  -18.9457  -30.1457   23.8873 C   0  0  0  0  0  0
  -17.6464  -30.6593   24.0555 C   0  0  0  0  0  0
  -25.9053  -34.9431   23.5092 C   0  0  0  0  0  0
  -16.5347  -29.9080   23.6348 C   0  0  0  0  0  0
  -16.7268  -28.6499   23.0369 C   0  0  0  0  0  0
  -26.4513  -31.6593   25.0758 C   0  0  0  0  0  0
  -25.3732  -31.3728   26.1477 C   0  0  0  0  0  0
  -27.0400  -30.3014   24.6269 C   0  0  0  0  0  0
  -27.6062  -32.4368   25.7513 C   0  0  0  0  0  0
  -27.5571  -37.1778   24.8457 C   0  0  0  0  0  0
  -21.4218  -29.3026   22.3666 N   0  0  0  0  0  0
  -26.4282  -37.3762   23.9413 N   0  0  0  0  0  0
  -24.6984  -31.0509   22.0972 N   0  0  0  0  0  0
  -23.4207  -28.8105   23.3024 O   0  0  0  0  0  0
  -28.2780  -26.3397   20.1852 O   0  0  0  0  0  0
  -26.5623  -34.8895   22.4656 O   0  0  0  0  0  0
  -23.5463  -32.1361   23.7280 O   0  0  0  0  0  0
  -28.4582  -18.7849   21.6161 C   0  0  0  0  0  0
  -27.9820  -20.1519   21.7415 C   0  0  0  0  0  0
  -29.5177  -18.6099   20.7597 C   0  0  0  0  0  0
  -28.6341  -21.1261   20.9937 C   0  0  0  0  0  0
  -26.2663  -19.6778   23.5315 C   0  0  0  0  0  0
  -26.8650  -20.4992   22.6508 C   0  0  0  0  0  0
  -28.6691  -23.6581   20.3641 C   0  0  0  0  0  0
  -30.3598  -17.3134   20.4335 C   0  0  0  0  0  0
  -27.9664  -25.0237   20.8424 C   0  0  0  0  0  0
  -28.3235  -22.4999   21.0368 N   0  0  0  0  0  0
  -29.8847  -15.8864   20.7088 N   0  0  0  0  0  0
  -29.4735  -23.6626   19.4293 O   0  0  0  0  0  0
  -29.8933  -20.2396   20.0798 S   0  0  0  0  0  0
  -31.4680  -12.5533   19.2014 H   0  0  0  0  0  0
  -30.3455  -11.4740   19.9773 H   0  0  0  0  0  0
  -29.7944  -11.7461   17.5249 H   0  0  0  0  0  0
  -29.6337  -13.4719   17.7453 H   0  0  0  0  0  0
  -27.8973  -11.2820   18.9272 H   0  0  0  0  0  0
  -27.3770  -12.5161   17.8068 H   0  0  0  0  0  0
  -27.6326  -14.2533   19.4710 H   0  0  0  0  0  0
  -28.7050  -12.1817   21.4469 H   0  0  0  0  0  0
  -28.4128  -13.8663   21.7972 H   0  0  0  0  0  0
  -25.2749   -9.5692   22.4770 H   0  0  0  0  0  0
  -23.9986   -7.4648   22.7499 H   0  0  0  0  0  0
  -21.0825   -8.8766   19.8957 H   0  0  0  0  0  0
  -22.3675  -10.9670   19.6178 H   0  0  0  0  0  0
  -21.2015   -7.6146   23.9700 H   0  0  0  0  0  0
  -21.1491   -6.0528   25.9065 H   0  0  0  0  0  0
  -22.0593   -2.7612   23.2834 H   0  0  0  0  0  0
  -22.4091  -11.9878   22.4792 H   0  0  0  0  0  0
  -21.1097  -13.1269   22.2664 H   0  0  0  0  0  0
  -24.6433  -15.8409   20.5075 H   0  0  0  0  0  0
  -26.2616  -15.6326   20.0706 H   0  0  0  0  0  0
  -26.7216  -32.5383   23.1110 H   0  0  0  0  0  0
  -25.0097  -33.9686   25.0422 H   0  0  0  0  0  0
  -22.7232  -31.2952   21.3962 H   0  0  0  0  0  0
  -23.3740  -35.9610   23.3292 H   0  0  0  0  0  0
  -24.3579  -36.8930   22.2065 H   0  0  0  0  0  0
  -23.7237  -37.6470   23.6704 H   0  0  0  0  0  0
  -26.1157  -31.5299   20.6132 H   0  0  0  0  0  0
  -26.8538  -30.8112   22.0164 H   0  0  0  0  0  0
  -28.1246  -28.9241   21.2116 H   0  0  0  0  0  0
  -25.9805  -25.9073   18.9960 H   0  0  0  0  0  0
  -23.9758  -27.3127   18.9913 H   0  0  0  0  0  0
  -23.7717  -30.5921   19.4023 H   0  0  0  0  0  0
  -22.7677  -29.2469   19.8560 H   0  0  0  0  0  0
  -25.1280  -36.1903   25.0814 H   0  0  0  0  0  0
  -20.9950  -28.3264   24.1401 H   0  0  0  0  0  0
  -20.5668  -26.2293   23.3597 H   0  0  0  0  0  0
  -21.6635  -26.7420   22.1195 H   0  0  0  0  0  0
  -19.6901  -25.6277   21.1252 H   0  0  0  0  0  0
  -19.6704  -27.3158   20.6721 H   0  0  0  0  0  0
  -17.4188  -26.6674   21.3997 H   0  0  0  0  0  0
  -18.0301  -26.0061   22.9006 H   0  0  0  0  0  0
  -19.7936  -30.7264   24.2242 H   0  0  0  0  0  0
  -17.5019  -31.6275   24.5148 H   0  0  0  0  0  0
  -15.5349  -30.2972   23.7696 H   0  0  0  0  0  0
  -15.8667  -28.0819   22.7105 H   0  0  0  0  0  0
  -24.5920  -30.7064   25.7810 H   0  0  0  0  0  0
  -24.8910  -32.2880   26.4919 H   0  0  0  0  0  0
  -25.8051  -30.8909   27.0259 H   0  0  0  0  0  0
  -26.3018  -29.6708   24.1310 H   0  0  0  0  0  0
  -27.4102  -29.7329   25.4820 H   0  0  0  0  0  0
  -27.8864  -30.4303   23.9521 H   0  0  0  0  0  0
  -27.2696  -33.3711   26.2022 H   0  0  0  0  0  0
  -28.3893  -32.6875   25.0342 H   0  0  0  0  0  0
  -28.0709  -31.8548   26.5482 H   0  0  0  0  0  0
  -28.2558  -38.0102   24.7551 H   0  0  0  0  0  0
  -28.1109  -36.2644   24.6246 H   0  0  0  0  0  0
  -27.2301  -37.1369   25.8860 H   0  0  0  0  0  0
  -20.9413  -29.8784   21.6891 H   0  0  0  0  0  0
  -26.0150  -38.2822   24.1452 H   0  0  0  0  0  0
  -28.0183  -17.9721   22.1753 H   0  0  0  0  0  0
  -25.4451  -20.0341   24.1397 H   0  0  0  0  0  0
  -26.5657  -18.6496   23.6731 H   0  0  0  0  0  0
  -26.4820  -21.5085   22.5927 H   0  0  0  0  0  0
  -31.3146  -17.4166   20.9513 H   0  0  0  0  0  0
  -30.6206  -17.3485   19.3739 H   0  0  0  0  0  0
  -28.2207  -25.1456   21.8952 H   0  0  0  0  0  0
  -26.8941  -24.8315   20.8400 H   0  0  0  0  0  0
  -27.6473  -22.7120   21.7568 H   0  0  0  0  0  0
  -28.9167  -15.7653   20.9651 H   0  0  0  0  0  0
  1 25  1  0  0  0
  1 30  2  0  0  0
  1 81  1  0  0  0
  2  3  1  0  0  0
  2 25  1  0  0  0
  2 84  1  0  0  0
  2 85  1  0  0  0
  3  4  1  0  0  0
  3 86  1  0  0  0
  3 87  1  0  0  0
  4  5  1  0  0  0
  4 88  1  0  0  0
  4 89  1  0  0  0
  5  6  1  0  0  0
  5 26  1  0  0  0
  5 90  1  0  0  0
  6 25  1  0  0  0
  6 91  1  0  0  0
  6 92  1  0  0  0
  7  8  2  0  0  0
  7 26  1  0  0  0
  7 29  1  0  0  0
  8  9  1  0  0  0
  8 22  1  0  0  0
  9 10  1  0  0  0
  9 27  2  0  0  0
 10 11  2  0  0  0
 10 15  1  0  0  0
 11 12  1  0  0  0
 11 93  1  0  0  0
 12 13  2  0  0  0
 12 94  1  0  0  0
 13 14  1  0  0  0
 13 31  1  0  0  0
 14 15  2  0  0  0
 14 95  1  0  0  0
 15 96  1  0  0  0
 16 17  2  0  0  0
 16 21  1  0  0  0
 16 31  1  0  0  0
 17 18  1  0  0  0
 17 97  1  0  0  0
 18 19  2  0  0  0
 18 98  1  0  0  0
 19 20  1  0  0  0
 19 24  1  0  0  0
 20 21  2  0  0  0
 20 99  1  0  0  0
 21 23  1  0  0  0
 22 28  1  0  0  0
 22 32  2  0  0  0
 26 27  1  0  0  0
 28100  1  0  0  0
 28101  1  0  0  0
 29102  1  0  0  0
 29103  1  0  0  0
 33 34  1  0  0  0
 33 66  1  0  0  0
 33 70  2  0  0  0
 34 36  1  0  0  0
 34 59  1  0  0  0
 34104  1  0  0  0
 35 44  2  0  0  0
 35 45  1  0  0  0
 35 68  1  0  0  0
 36 56  1  0  0  0
 36105  1  0  0  0
 37 39  1  0  0  0
 37 47  1  0  0  0
 37 66  1  0  0  0
 37106  1  0  0  0
 38 43  2  0  0  0
 38 46  1  0  0  0
 38 47  1  0  0  0
 39 64  1  0  0  0
 39 67  2  0  0  0
 40 52  1  0  0  0
 40 53  2  0  0  0
 40 58  1  0  0  0
 41107  1  0  0  0
 41108  1  0  0  0
 41109  1  0  0  0
 41 48  1  0  0  0
 42 43  1  0  0  0
 42 66  1  0  0  0
 42110  1  0  0  0
 42111  1  0  0  0
 43 44  1  0  0  0
 44112  1  0  0  0
 45 46  2  0  0  0
 45113  1  0  0  0
 46114  1  0  0  0
 47115  1  0  0  0
 47116  1  0  0  0
 48 56  1  0  0  0
 48 65  1  0  0  0
 48117  1  0  0  0
 49 50  1  0  0  0
 49 53  1  0  0  0
 49 64  1  0  0  0
 49118  1  0  0  0
 50 51  1  0  0  0
 50119  1  0  0  0
 50120  1  0  0  0
 51 52  1  0  0  0
 51121  1  0  0  0
 51122  1  0  0  0
 52123  1  0  0  0
 52124  1  0  0  0
 53 54  1  0  0  0
 54 55  2  0  0  0
 54125  1  0  0  0
 55 57  1  0  0  0
 55126  1  0  0  0
 56 69  2  0  0  0
 57 58  2  0  0  0
 57127  1  0  0  0
 58128  1  0  0  0
 59 60  1  0  0  0
 59 61  1  0  0  0
 59 62  1  0  0  0
 60129  1  0  0  0
 60130  1  0  0  0
 60131  1  0  0  0
 61132  1  0  0  0
 61133  1  0  0  0
 61134  1  0  0  0
 62135  1  0  0  0
 62136  1  0  0  0
 62137  1  0  0  0
 63 65  1  0  0  0
 63138  1  0  0  0
 63139  1  0  0  0
 63140  1  0  0  0
 64141  1  0  0  0
 65142  1  0  0  0
 68 79  1  0  0  0
 71 72  1  0  0  0
 71 73  2  0  0  0
 71143  1  0  0  0
 72 74  2  0  0  0
 72 76  1  0  0  0
 73 78  1  0  0  0
 73 83  1  0  0  0
 74 80  1  0  0  0
 74 83  1  0  0  0
 75 76  2  0  0  0
 75144  1  0  0  0
 75145  1  0  0  0
 76146  1  0  0  0
 77 79  1  0  0  0
 77 80  1  0  0  0
 77 82  2  0  0  0
 78 81  1  0  0  0
 78147  1  0  0  0
 78148  1  0  0  0
 79149  1  0  0  0
 79150  1  0  0  0
 80151  1  0  0  0
 81152  1  0  0  0
M  ISO  4   1 100  68 101  79 101  81 100
M  END
> <chiral flag>
0

> <version>
0

> <s_m_source_file>
/data/baiqing/PycharmProjects/Reinvent-master-3.2/result/LINK_invent/BTK/process_docking_weight1_custom_product_contain_oxygen_bond_distance_aromatic_linkinvent_7_9_3/rearranged_h_0113.sdf

> <i_m_source_file_index>
32

> <r_mmod_Potential_Energy-OPLS-2005>
67.4416656494141

> <r_mmod_Stretch_Energy-OPLS-2005>
110.136611938477

> <r_mmod_Bend_Energy-OPLS-2005>
186.245986938477

> <r_mmod_Torsional_Energy-OPLS-2005>
220.241653442383

> <r_mmod_Improper_Torsional_Energy-OPLS-2005>
5.18724155426025

> <r_mmod_Van_der_Waal_Energy-OPLS-2005>
118.306327819824

> <r_mmod_Electrostatic_Energy-OPLS-2005>
-409.812805175781

> <r_mmod_Solvation_Energy-OPLS-2005>
-248.375671386719

> <b_mmod_Minimization_Converged-OPLS-2005>
0

> <r_mmod_RMS_Derivative-OPLS-2005>
2.3446478843689

$$$$
32
                    3D
 Structure written by MMmdl.
165173  0  0  1  0            999 V2000
  -30.5622  -14.7431   20.4699 C   0  0  0  0  0  0
  -30.4429  -12.4539   19.4516 C   0  0  0  0  0  0
  -29.5025  -12.4956   18.2256 C   0  0  0  0  0  0
  -28.0308  -12.3114   18.6508 C   0  0  0  0  0  0
  -27.6403  -13.2122   19.8498 C   0  0  2  0  0  0
  -28.6896  -13.1264   20.9768 C   0  0  0  0  0  0
  -25.2525  -13.8161   20.5701 C   0  0  0  0  0  0
  -24.1797  -13.0424   20.9218 C   0  0  0  0  0  0
  -24.6371  -11.6900   20.8774 C   0  0  0  0  0  0
  -23.9038  -10.4284   21.0421 C   0  0  0  0  0  0
  -24.3593   -9.4195   21.9195 C   0  0  0  0  0  0
  -23.6271   -8.2227   22.0754 C   0  0  0  0  0  0
  -22.4258   -8.0266   21.3535 C   0  0  0  0  0  0
  -21.9898   -9.0242   20.4646 C   0  0  0  0  0  0
  -22.7220  -10.2123   20.3062 C   0  0  0  0  0  0
  -21.6848   -6.0716   22.5265 C   0  0  0  0  0  0
  -21.4022   -6.5629   23.8193 C   0  0  0  0  0  0
  -21.3663   -5.6788   24.9166 C   0  0  0  0  0  0
  -21.6038   -4.3050   24.7227 C   0  0  0  0  0  0
  -21.8825   -3.8132   23.4349 C   0  0  0  0  0  0
  -21.9200   -4.6945   22.3400 C   0  0  0  0  0  0
  -22.7829  -13.5216   21.1876 C   0  0  0  0  0  0
  -22.1662   -4.2132   21.0979 F   0  0  0  0  0  0
  -21.5634   -3.4534   25.7738 F   0  0  0  0  0  0
  -29.9827  -13.4974   20.3900 N   0  0  0  0  0  0
  -26.2924  -12.9318   20.3310 N   0  0  0  0  0  0
  -25.9286  -11.6488   20.5780 N   0  0  0  0  0  0
  -22.0487  -12.8188   22.0433 N   0  0  0  0  0  0
  -25.4252  -15.1875   20.4076 N   0  0  0  0  0  0
  -31.7629  -14.8929   20.2226 O   0  0  0  0  0  0
  -21.6633   -6.8852   21.4221 O   0  0  0  0  0  0
  -22.3522  -14.5533   20.6740 O   0  0  0  0  0  0
  -24.6354  -31.8555   23.1956 C   0  0  0  0  0  0
  -25.9176  -32.4753   23.8333 C   0  0  1  0  0  0
  -27.2181  -27.2424   20.1185 C   0  0  0  0  0  0
  -25.5980  -33.8553   24.2259 N   0  0  0  0  0  0
  -23.4338  -30.4763   21.5417 C   0  0  2  0  0  0
  -24.8786  -28.9228   20.1103 C   0  0  0  0  0  0
  -22.7533  -29.4605   22.4912 C   0  0  0  0  0  0
  -18.0321  -28.1366   22.8452 C   0  0  0  0  0  0
  -24.1508  -36.7276   23.2635 C   0  0  0  0  0  0
  -25.9811  -30.7580   21.3818 C   0  0  0  0  0  0
  -26.0539  -29.3808   20.7186 C   0  0  0  0  0  0
  -27.2271  -28.5556   20.7088 C   0  0  0  0  0  0
  -26.0119  -26.8595   19.4864 C   0  0  0  0  0  0
  -24.8623  -27.6699   19.4856 C   0  0  0  0  0  0
  -23.6505  -29.8085   20.1586 C   0  0  0  0  0  0
  -25.4133  -36.3056   24.0319 C   0  0  1  0  0  0
  -20.5916  -28.3707   23.1233 C   0  0  2  0  0  0
  -20.6811  -26.9426   22.5376 C   0  0  0  0  0  0
  -19.5790  -26.6370   21.5171 C   0  0  0  0  0  0
  -18.1976  -26.7916   22.1581 C   0  0  0  0  0  0
  -19.1574  -28.8850   23.2832 C   0  0  0  0  0  0
  -18.9485  -30.1452   23.8853 C   0  0  0  0  0  0
  -17.6480  -30.6563   24.0540 C   0  0  0  0  0  0
  -25.9065  -34.9425   23.5074 C   0  0  0  0  0  0
  -16.5377  -29.9051   23.6318 C   0  0  0  0  0  0
  -16.7306  -28.6474   23.0324 C   0  0  0  0  0  0
  -26.4531  -31.6560   25.0717 C   0  0  0  0  0  0
  -25.3729  -31.3680   26.1410 C   0  0  0  0  0  0
  -27.0404  -30.2978   24.6228 C   0  0  0  0  0  0
  -27.6095  -32.4305   25.7466 C   0  0  0  0  0  0
  -27.5596  -37.1792   24.8466 C   0  0  0  0  0  0
  -21.4242  -29.3040   22.3617 N   0  0  0  0  0  0
  -26.4312  -37.3752   23.9401 N   0  0  0  0  0  0
  -24.7027  -31.0488   22.0952 N   0  0  0  0  0  0
  -23.4199  -28.8148   23.3046 O   0  0  0  0  0  0
  -28.3042  -26.3276   20.1649 O   0  0  0  0  0  0
  -26.5622  -34.8892   22.4636 O   0  0  0  0  0  0
  -23.5503  -32.1414   23.7218 O   0  0  0  0  0  0
  -29.4282  -18.6298   23.0258 C   0  0  0  0  0  0
  -29.6667  -18.4131   20.2814 C   0  0  0  0  0  0
  -29.5564  -17.3360   22.4665 C   0  0  0  0  0  0
  -29.7295  -17.1842   21.0644 C   0  0  0  0  0  0
  -29.4211  -19.8231   22.2591 C   0  0  0  0  0  0
  -29.4878  -19.7480   20.8453 C   0  0  0  0  0  0
  -29.3969  -16.1642   23.3592 C   0  0  0  0  0  0
  -28.6506  -16.1417   24.4833 C   0  0  0  0  0  0
  -28.5781  -13.5842   24.7753 C   0  0  0  0  0  0
  -29.3675  -21.1805   24.2604 C   0  0  0  0  0  0
  -28.4777  -14.9686   25.4316 C   0  0  0  0  0  0
  -29.0916  -23.6502   20.2324 C   0  0  0  0  0  0
  -28.0050  -24.8459   20.0859 C   0  0  0  0  0  0
  -28.5638  -22.1145   20.2996 C   0  0  0  0  0  0
  -29.6777  -15.8120   20.5008 N   0  0  0  0  0  0
  -29.3839  -21.0746   22.8411 O   0  0  0  0  0  0
  -29.4712  -20.9423   20.0595 O   0  0  0  0  0  0
  -31.4767  -12.6093   19.1403 H   0  0  0  0  0  0
  -30.4132  -11.4727   19.9289 H   0  0  0  0  0  0
  -29.7793  -11.7181   17.5114 H   0  0  0  0  0  0
  -29.6165  -13.4474   17.7048 H   0  0  0  0  0  0
  -27.8974  -11.2635   18.9225 H   0  0  0  0  0  0
  -27.3630  -12.4937   17.8079 H   0  0  0  0  0  0
  -27.6364  -14.2329   19.4688 H   0  0  0  0  0  0
  -28.7311  -12.1220   21.4025 H   0  0  0  0  0  0
  -28.4246  -13.7961   21.7948 H   0  0  0  0  0  0
  -25.2732   -9.5679   22.4773 H   0  0  0  0  0  0
  -23.9988   -7.4618   22.7463 H   0  0  0  0  0  0
  -21.0834   -8.8748   19.8939 H   0  0  0  0  0  0
  -22.3668  -10.9665   19.6172 H   0  0  0  0  0  0
  -21.2012   -7.6135   23.9698 H   0  0  0  0  0  0
  -21.1482   -6.0517   25.9068 H   0  0  0  0  0  0
  -22.0606   -2.7593   23.2853 H   0  0  0  0  0  0
  -22.4102  -11.9823   22.4769 H   0  0  0  0  0  0
  -21.1109  -13.1212   22.2674 H   0  0  0  0  0  0
  -24.6595  -15.8422   20.5176 H   0  0  0  0  0  0
  -26.2650  -15.6280   20.0583 H   0  0  0  0  0  0
  -26.7230  -32.5351   23.1065 H   0  0  0  0  0  0
  -25.0166  -33.9708   25.0431 H   0  0  0  0  0  0
  -22.7309  -31.2986   21.3922 H   0  0  0  0  0  0
  -23.3765  -35.9605   23.3292 H   0  0  0  0  0  0
  -24.3623  -36.8915   22.2056 H   0  0  0  0  0  0
  -23.7269  -37.6471   23.6672 H   0  0  0  0  0  0
  -26.1329  -31.5243   20.6217 H   0  0  0  0  0  0
  -26.8538  -30.7986   22.0202 H   0  0  0  0  0  0
  -28.1263  -28.8997   21.1982 H   0  0  0  0  0  0
  -25.9146  -25.9088   18.9869 H   0  0  0  0  0  0
  -23.9611  -27.3146   19.0026 H   0  0  0  0  0  0
  -23.7735  -30.5849   19.4040 H   0  0  0  0  0  0
  -22.7688  -29.2409   19.8525 H   0  0  0  0  0  0
  -25.1317  -36.1919   25.0814 H   0  0  0  0  0  0
  -21.0001  -28.3295   24.1353 H   0  0  0  0  0  0
  -20.5730  -26.2317   23.3591 H   0  0  0  0  0  0
  -21.6681  -26.7465   22.1161 H   0  0  0  0  0  0
  -19.6977  -25.6271   21.1235 H   0  0  0  0  0  0
  -19.6721  -27.3133   20.6659 H   0  0  0  0  0  0
  -17.4244  -26.6634   21.3987 H   0  0  0  0  0  0
  -18.0401  -26.0053   22.8972 H   0  0  0  0  0  0
  -19.7961  -30.7264   24.2201 H   0  0  0  0  0  0
  -17.5039  -31.6245   24.5143 H   0  0  0  0  0  0
  -15.5373  -30.2922   23.7677 H   0  0  0  0  0  0
  -15.8712  -28.0783   22.7026 H   0  0  0  0  0  0
  -24.5950  -30.6995   25.7718 H   0  0  0  0  0  0
  -24.8857  -32.2818   26.4801 H   0  0  0  0  0  0
  -25.8034  -30.8877   27.0208 H   0  0  0  0  0  0
  -26.2996  -29.6672   24.1298 H   0  0  0  0  0  0
  -27.4132  -29.7307   25.4765 H   0  0  0  0  0  0
  -27.8851  -30.4256   23.9459 H   0  0  0  0  0  0
  -27.2758  -33.3651   26.1971 H   0  0  0  0  0  0
  -28.3920  -32.6783   25.0292 H   0  0  0  0  0  0
  -28.0743  -31.8472   26.5429 H   0  0  0  0  0  0
  -28.2585  -38.0112   24.7535 H   0  0  0  0  0  0
  -28.1123  -36.2640   24.6273 H   0  0  0  0  0  0
  -27.2319  -37.1425   25.8869 H   0  0  0  0  0  0
  -20.9454  -29.8713   21.6757 H   0  0  0  0  0  0
  -26.0185  -38.2826   24.1365 H   0  0  0  0  0  0
  -29.3361  -18.6937   24.0967 H   0  0  0  0  0  0
  -29.7209  -18.3275   19.2065 H   0  0  0  0  0  0
  -29.9478  -15.2767   23.0942 H   0  0  0  0  0  0
  -28.1036  -17.0242   24.7794 H   0  0  0  0  0  0
  -28.4415  -12.7996   25.5207 H   0  0  0  0  0  0
  -29.5472  -13.4152   24.3082 H   0  0  0  0  0  0
  -27.8030  -13.4529   24.0208 H   0  0  0  0  0  0
  -29.4020  -22.2323   24.5419 H   0  0  0  0  0  0
  -30.2351  -20.6955   24.7099 H   0  0  0  0  0  0
  -28.4554  -20.7601   24.6863 H   0  0  0  0  0  0
  -27.4967  -15.0623   25.9017 H   0  0  0  0  0  0
  -29.2085  -15.0647   26.2362 H   0  0  0  0  0  0
  -29.6976  -23.8341   21.1193 H   0  0  0  0  0  0
  -29.7766  -23.7232   19.3857 H   0  0  0  0  0  0
  -27.2271  -24.6456   20.8247 H   0  0  0  0  0  0
  -27.5543  -24.6557   19.1134 H   0  0  0  0  0  0
  -27.8151  -22.0259   19.5115 H   0  0  0  0  0  0
  -27.9714  -21.9881   21.2042 H   0  0  0  0  0  0
  -28.7318  -15.4739   20.4227 H   0  0  0  0  0  0
  1 25  1  0  0  0
  1 30  2  0  0  0
  1 85  1  0  0  0
  2  3  1  0  0  0
  2 25  1  0  0  0
  2 88  1  0  0  0
  2 89  1  0  0  0
  3  4  1  0  0  0
  3 90  1  0  0  0
  3 91  1  0  0  0
  4  5  1  0  0  0
  4 92  1  0  0  0
  4 93  1  0  0  0
  5  6  1  0  0  0
  5 26  1  0  0  0
  5 94  1  0  0  0
  6 25  1  0  0  0
  6 95  1  0  0  0
  6 96  1  0  0  0
  7  8  2  0  0  0
  7 26  1  0  0  0
  7 29  1  0  0  0
  8  9  1  0  0  0
  8 22  1  0  0  0
  9 10  1  0  0  0
  9 27  2  0  0  0
 10 11  2  0  0  0
 10 15  1  0  0  0
 11 12  1  0  0  0
 11 97  1  0  0  0
 12 13  2  0  0  0
 12 98  1  0  0  0
 13 14  1  0  0  0
 13 31  1  0  0  0
 14 15  2  0  0  0
 14 99  1  0  0  0
 15100  1  0  0  0
 16 17  2  0  0  0
 16 21  1  0  0  0
 16 31  1  0  0  0
 17 18  1  0  0  0
 17101  1  0  0  0
 18 19  2  0  0  0
 18102  1  0  0  0
 19 20  1  0  0  0
 19 24  1  0  0  0
 20 21  2  0  0  0
 20103  1  0  0  0
 21 23  1  0  0  0
 22 28  1  0  0  0
 22 32  2  0  0  0
 26 27  1  0  0  0
 28104  1  0  0  0
 28105  1  0  0  0
 29106  1  0  0  0
 29107  1  0  0  0
 33 34  1  0  0  0
 33 66  1  0  0  0
 33 70  2  0  0  0
 34 36  1  0  0  0
 34 59  1  0  0  0
 34108  1  0  0  0
 35 44  2  0  0  0
 35 45  1  0  0  0
 35 68  1  0  0  0
 36 56  1  0  0  0
 36109  1  0  0  0
 37 39  1  0  0  0
 37 47  1  0  0  0
 37 66  1  0  0  0
 37110  1  0  0  0
 38 43  2  0  0  0
 38 46  1  0  0  0
 38 47  1  0  0  0
 39 64  1  0  0  0
 39 67  2  0  0  0
 40 52  1  0  0  0
 40 53  2  0  0  0
 40 58  1  0  0  0
 41111  1  0  0  0
 41112  1  0  0  0
 41113  1  0  0  0
 41 48  1  0  0  0
 42 43  1  0  0  0
 42 66  1  0  0  0
 42114  1  0  0  0
 42115  1  0  0  0
 43 44  1  0  0  0
 44116  1  0  0  0
 45 46  2  0  0  0
 45117  1  0  0  0
 46118  1  0  0  0
 47119  1  0  0  0
 47120  1  0  0  0
 48 56  1  0  0  0
 48 65  1  0  0  0
 48121  1  0  0  0
 49 50  1  0  0  0
 49 53  1  0  0  0
 49 64  1  0  0  0
 49122  1  0  0  0
 50 51  1  0  0  0
 50123  1  0  0  0
 50124  1  0  0  0
 51 52  1  0  0  0
 51125  1  0  0  0
 51126  1  0  0  0
 52127  1  0  0  0
 52128  1  0  0  0
 53 54  1  0  0  0
 54 55  2  0  0  0
 54129  1  0  0  0
 55 57  1  0  0  0
 55130  1  0  0  0
 56 69  2  0  0  0
 57 58  2  0  0  0
 57131  1  0  0  0
 58132  1  0  0  0
 59 60  1  0  0  0
 59 61  1  0  0  0
 59 62  1  0  0  0
 60133  1  0  0  0
 60134  1  0  0  0
 60135  1  0  0  0
 61136  1  0  0  0
 61137  1  0  0  0
 61138  1  0  0  0
 62139  1  0  0  0
 62140  1  0  0  0
 62141  1  0  0  0
 63 65  1  0  0  0
 63142  1  0  0  0
 63143  1  0  0  0
 63144  1  0  0  0
 64145  1  0  0  0
 65146  1  0  0  0
 68 83  1  0  0  0
 71 73  2  0  0  0
 71 75  1  0  0  0
 71147  1  0  0  0
 72 74  2  0  0  0
 72 76  1  0  0  0
 72148  1  0  0  0
 73 74  1  0  0  0
 73 77  1  0  0  0
 74 85  1  0  0  0
 75 76  2  0  0  0
 75 86  1  0  0  0
 76 87  1  0  0  0
 77 78  2  0  0  0
 77149  1  0  0  0
 78 81  1  0  0  0
 78150  1  0  0  0
 79 81  1  0  0  0
 79151  1  0  0  0
 79152  1  0  0  0
 79153  1  0  0  0
 80 86  1  0  0  0
 80154  1  0  0  0
 80155  1  0  0  0
 80156  1  0  0  0
 81157  1  0  0  0
 81158  1  0  0  0
 82 83  1  0  0  0
 82 84  1  0  0  0
 82159  1  0  0  0
 82160  1  0  0  0
 83161  1  0  0  0
 83162  1  0  0  0
 84 87  1  0  0  0
 84163  1  0  0  0
 84164  1  0  0  0
 85165  1  0  0  0
M  ISO  4   1 100  68 101  83 101  85 100
M  END
> <chiral flag>
0

> <version>
0

> <s_m_source_file>
/data/baiqing/PycharmProjects/Reinvent-master-3.2/result/LINK_invent/BTK/process_docking_weight1_custom_product_contain_oxygen_bond_distance_aromatic_linkinvent_7_9_3/rearranged_h_0113.sdf

> <i_m_source_file_index>
33

> <r_mmod_Potential_Energy-OPLS-2005>
252.34294128418

> <r_mmod_Stretch_Energy-OPLS-2005>
131.532958984375

> <r_mmod_Bend_Energy-OPLS-2005>
189.011016845703

> <r_mmod_Torsional_Energy-OPLS-2005>
277.032531738281

> <r_mmod_Improper_Torsional_Energy-OPLS-2005>
12.3977098464966

> <r_mmod_Van_der_Waal_Energy-OPLS-2005>
150.183883666992

> <r_mmod_Electrostatic_Energy-OPLS-2005>
-387.720489501953

> <r_mmod_Solvation_Energy-OPLS-2005>
-213.872970581055

> <b_mmod_Minimization_Converged-OPLS-2005>
0

> <r_mmod_RMS_Derivative-OPLS-2005>
2.8244206905365

$$$$
33
                    3D
 Structure written by MMmdl.
150158  0  0  1  0            999 V2000
  -30.5007  -15.0708   20.4050 C   0  0  0  0  0  0
  -30.4425  -12.6722   19.5083 C   0  0  0  0  0  0
  -29.5236  -12.5405   18.2703 C   0  0  0  0  0  0
  -28.0656  -12.3001   18.6978 C   0  0  0  0  0  0
  -27.6228  -13.2562   19.8337 C   0  0  2  0  0  0
  -28.6642  -13.3428   20.9696 C   0  0  0  0  0  0
  -25.2431  -13.8229   20.5719 C   0  0  0  0  0  0
  -24.1763  -13.0444   20.9251 C   0  0  0  0  0  0
  -24.6392  -11.6929   20.8762 C   0  0  0  0  0  0
  -23.9078  -10.4297   21.0411 C   0  0  0  0  0  0
  -24.3632   -9.4208   21.9182 C   0  0  0  0  0  0
  -23.6294   -8.2249   22.0747 C   0  0  0  0  0  0
  -22.4273   -8.0286   21.3535 C   0  0  0  0  0  0
  -21.9923   -9.0269   20.4637 C   0  0  0  0  0  0
  -22.7255  -10.2147   20.3051 C   0  0  0  0  0  0
  -21.6853   -6.0737   22.5272 C   0  0  0  0  0  0
  -21.4014   -6.5635   23.8209 C   0  0  0  0  0  0
  -21.3664   -5.6784   24.9168 C   0  0  0  0  0  0
  -21.6049   -4.3048   24.7214 C   0  0  0  0  0  0
  -21.8819   -3.8143   23.4331 C   0  0  0  0  0  0
  -21.9191   -4.6964   22.3390 C   0  0  0  0  0  0
  -22.7785  -13.5214   21.1898 C   0  0  0  0  0  0
  -22.1661   -4.2149   21.0967 F   0  0  0  0  0  0
  -21.5635   -3.4530   25.7728 F   0  0  0  0  0  0
  -29.9218  -13.7917   20.3567 N   0  0  0  0  0  0
  -26.2857  -12.9471   20.3249 N   0  0  0  0  0  0
  -25.9323  -11.6596   20.5762 N   0  0  0  0  0  0
  -22.0429  -12.8194   22.0444 N   0  0  0  0  0  0
  -25.4058  -15.1967   20.4118 N   0  0  0  0  0  0
  -31.7115  -15.0990   20.1518 O   0  0  0  0  0  0
  -21.6637   -6.8884   21.4231 O   0  0  0  0  0  0
  -22.3482  -14.5528   20.6751 O   0  0  0  0  0  0
  -24.6508  -31.8396   23.1817 C   0  0  0  0  0  0
  -25.9254  -32.4679   23.8246 C   0  0  1  0  0  0
  -27.2138  -27.0550   20.1623 C   0  0  0  0  0  0
  -25.5981  -33.8484   24.2170 N   0  0  0  0  0  0
  -23.4594  -30.4556   21.5287 C   0  0  2  0  0  0
  -24.9098  -28.8691   20.1109 C   0  0  0  0  0  0
  -22.7604  -29.4541   22.4824 C   0  0  0  0  0  0
  -18.0321  -28.1431   22.8473 C   0  0  0  0  0  0
  -24.1488  -36.7235   23.2638 C   0  0  0  0  0  0
  -26.0218  -30.6848   21.3940 C   0  0  0  0  0  0
  -26.0915  -29.2886   20.7357 C   0  0  0  0  0  0
  -27.2438  -28.3992   20.7414 C   0  0  0  0  0  0
  -26.0061  -26.7620   19.4910 C   0  0  0  0  0  0
  -24.8847  -27.6214   19.4710 C   0  0  0  0  0  0
  -23.6905  -29.7813   20.1515 C   0  0  0  0  0  0
  -25.4128  -36.3025   24.0310 C   0  0  1  0  0  0
  -20.5932  -28.3777   23.1204 C   0  0  2  0  0  0
  -20.6801  -26.9471   22.5396 C   0  0  0  0  0  0
  -19.5777  -26.6405   21.5208 C   0  0  0  0  0  0
  -18.1956  -26.7973   22.1614 C   0  0  0  0  0  0
  -19.1573  -28.8920   23.2836 C   0  0  0  0  0  0
  -18.9486  -30.1498   23.8886 C   0  0  0  0  0  0
  -17.6486  -30.6615   24.0562 C   0  0  0  0  0  0
  -25.9085  -34.9406   23.5051 C   0  0  0  0  0  0
  -16.5377  -29.9108   23.6342 C   0  0  0  0  0  0
  -16.7298  -28.6521   23.0368 C   0  0  0  0  0  0
  -26.4545  -31.6570   25.0715 C   0  0  0  0  0  0
  -25.3711  -31.3790   26.1399 C   0  0  0  0  0  0
  -27.0403  -30.2949   24.6352 C   0  0  0  0  0  0
  -27.6077  -32.4339   25.7500 C   0  0  0  0  0  0
  -27.5578  -37.1778   24.8469 C   0  0  0  0  0  0
  -21.4288  -29.3079   22.3558 N   0  0  0  0  0  0
  -26.4295  -37.3739   23.9404 N   0  0  0  0  0  0
  -24.7312  -31.0168   22.0899 N   0  0  0  0  0  0
  -23.4205  -28.8113   23.3027 O   0  0  0  0  0  0
  -28.2284  -26.0028   20.2417 O   0  0  0  0  0  0
  -26.5662  -34.8915   22.4624 O   0  0  0  0  0  0
  -23.5607  -32.1324   23.6976 O   0  0  0  0  0  0
  -29.1243  -18.9076   20.2891 C   0  0  0  0  0  0
  -29.9754  -17.7923   20.6078 C   0  0  0  0  0  0
  -29.5058  -20.4209   20.5058 C   0  0  0  0  0  0
  -31.2469  -18.1933   21.2509 C   0  0  0  0  0  0
  -28.5864  -21.6838   20.2092 C   0  0  0  0  0  0
  -28.8288  -23.1015   20.3572 C   0  0  0  0  0  0
  -32.8151  -19.9807   21.8492 C   0  0  0  0  0  0
  -27.8784  -24.4602   20.0591 C   0  0  0  0  0  0
  -30.6922  -20.6049   20.9740 N   0  0  0  0  0  0
  -31.5329  -19.5398   21.2902 N   0  0  0  0  0  0
  -29.7002  -16.2789   20.4999 N   0  0  0  0  0  0
  -32.0097  -17.3916   21.7921 O   0  0  0  0  0  0
  -31.4673  -12.8518   19.1824 H   0  0  0  0  0  0
  -30.4725  -11.7400   20.0747 H   0  0  0  0  0  0
  -29.8649  -11.7275   17.6284 H   0  0  0  0  0  0
  -29.5839  -13.4509   17.6724 H   0  0  0  0  0  0
  -27.9957  -11.2668   19.0407 H   0  0  0  0  0  0
  -27.3962  -12.3853   17.8410 H   0  0  0  0  0  0
  -27.5665  -14.2420   19.3719 H   0  0  0  0  0  0
  -28.7841  -12.3828   21.4743 H   0  0  0  0  0  0
  -28.3414  -14.0557   21.7290 H   0  0  0  0  0  0
  -25.2769   -9.5693   22.4770 H   0  0  0  0  0  0
  -23.9989   -7.4649   22.7478 H   0  0  0  0  0  0
  -21.0852   -8.8809   19.8947 H   0  0  0  0  0  0
  -22.3708  -10.9702   19.6180 H   0  0  0  0  0  0
  -21.2000   -7.6143   23.9719 H   0  0  0  0  0  0
  -21.1491   -6.0507   25.9077 H   0  0  0  0  0  0
  -22.0591   -2.7601   23.2830 H   0  0  0  0  0  0
  -22.4030  -11.9842   22.4814 H   0  0  0  0  0  0
  -21.1058  -13.1247   22.2677 H   0  0  0  0  0  0
  -24.6277  -15.8392   20.5113 H   0  0  0  0  0  0
  -26.2367  -15.6402   20.0432 H   0  0  0  0  0  0
  -26.7325  -32.5263   23.0973 H   0  0  0  0  0  0
  -25.0139  -33.9599   25.0328 H   0  0  0  0  0  0
  -22.7663  -31.2841   21.3675 H   0  0  0  0  0  0
  -23.3772  -35.9546   23.3306 H   0  0  0  0  0  0
  -24.3556  -36.8856   22.2047 H   0  0  0  0  0  0
  -23.7223  -37.6425   23.6673 H   0  0  0  0  0  0
  -26.1850  -31.4352   20.6193 H   0  0  0  0  0  0
  -26.8893  -30.7398   22.0408 H   0  0  0  0  0  0
  -28.1409  -28.7139   21.2572 H   0  0  0  0  0  0
  -25.8859  -25.8115   18.9949 H   0  0  0  0  0  0
  -23.9858  -27.2936   18.9685 H   0  0  0  0  0  0
  -23.8344  -30.5559   19.3971 H   0  0  0  0  0  0
  -22.8024  -29.2293   19.8375 H   0  0  0  0  0  0
  -25.1306  -36.1858   25.0800 H   0  0  0  0  0  0
  -21.0018  -28.3406   24.1327 H   0  0  0  0  0  0
  -20.5699  -26.2401   23.3632 H   0  0  0  0  0  0
  -21.6668  -26.7478   22.1189 H   0  0  0  0  0  0
  -19.6943  -25.6304   21.1265 H   0  0  0  0  0  0
  -19.6716  -27.3190   20.6718 H   0  0  0  0  0  0
  -17.4215  -26.6723   21.4024 H   0  0  0  0  0  0
  -18.0362  -26.0124   22.9019 H   0  0  0  0  0  0
  -19.7960  -30.7311   24.2272 H   0  0  0  0  0  0
  -17.5034  -31.6294   24.5170 H   0  0  0  0  0  0
  -15.5375  -30.3000   23.7675 H   0  0  0  0  0  0
  -15.8703  -28.0821   22.7115 H   0  0  0  0  0  0
  -24.5922  -30.7096   25.7731 H   0  0  0  0  0  0
  -24.8860  -32.2970   26.4724 H   0  0  0  0  0  0
  -25.7976  -30.9049   27.0248 H   0  0  0  0  0  0
  -26.3030  -29.6671   24.1335 H   0  0  0  0  0  0
  -27.3949  -29.7263   25.4960 H   0  0  0  0  0  0
  -27.8973  -30.4156   23.9725 H   0  0  0  0  0  0
  -27.2701  -33.3691   26.1991 H   0  0  0  0  0  0
  -28.3943  -32.6818   25.0358 H   0  0  0  0  0  0
  -28.0698  -31.8517   26.5487 H   0  0  0  0  0  0
  -28.2601  -38.0071   24.7483 H   0  0  0  0  0  0
  -28.1069  -36.2586   24.6335 H   0  0  0  0  0  0
  -27.2282  -37.1464   25.8873 H   0  0  0  0  0  0
  -20.9531  -29.8749   21.6677 H   0  0  0  0  0  0
  -26.0165  -38.2809   24.1410 H   0  0  0  0  0  0
  -28.1515  -18.7140   19.8648 H   0  0  0  0  0  0
  -27.6096  -21.4161   19.8327 H   0  0  0  0  0  0
  -29.8076  -23.3681   20.7341 H   0  0  0  0  0  0
  -32.7967  -19.8987   22.9372 H   0  0  0  0  0  0
  -33.0337  -21.0198   21.5987 H   0  0  0  0  0  0
  -33.6470  -19.3802   21.4737 H   0  0  0  0  0  0
  -26.9727  -24.2952   20.6445 H   0  0  0  0  0  0
  -27.5661  -24.3421   19.0210 H   0  0  0  0  0  0
  -28.7158  -16.0635   20.5126 H   0  0  0  0  0  0
  1 25  1  0  0  0
  1 30  2  0  0  0
  1 81  1  0  0  0
  2  3  1  0  0  0
  2 25  1  0  0  0
  2 83  1  0  0  0
  2 84  1  0  0  0
  3  4  1  0  0  0
  3 85  1  0  0  0
  3 86  1  0  0  0
  4  5  1  0  0  0
  4 87  1  0  0  0
  4 88  1  0  0  0
  5  6  1  0  0  0
  5 26  1  0  0  0
  5 89  1  0  0  0
  6 25  1  0  0  0
  6 90  1  0  0  0
  6 91  1  0  0  0
  7  8  2  0  0  0
  7 26  1  0  0  0
  7 29  1  0  0  0
  8  9  1  0  0  0
  8 22  1  0  0  0
  9 10  1  0  0  0
  9 27  2  0  0  0
 10 11  2  0  0  0
 10 15  1  0  0  0
 11 12  1  0  0  0
 11 92  1  0  0  0
 12 13  2  0  0  0
 12 93  1  0  0  0
 13 14  1  0  0  0
 13 31  1  0  0  0
 14 15  2  0  0  0
 14 94  1  0  0  0
 15 95  1  0  0  0
 16 17  2  0  0  0
 16 21  1  0  0  0
 16 31  1  0  0  0
 17 18  1  0  0  0
 17 96  1  0  0  0
 18 19  2  0  0  0
 18 97  1  0  0  0
 19 20  1  0  0  0
 19 24  1  0  0  0
 20 21  2  0  0  0
 20 98  1  0  0  0
 21 23  1  0  0  0
 22 28  1  0  0  0
 22 32  2  0  0  0
 26 27  1  0  0  0
 28 99  1  0  0  0
 28100  1  0  0  0
 29101  1  0  0  0
 29102  1  0  0  0
 33 34  1  0  0  0
 33 66  1  0  0  0
 33 70  2  0  0  0
 34 36  1  0  0  0
 34 59  1  0  0  0
 34103  1  0  0  0
 35 44  2  0  0  0
 35 45  1  0  0  0
 35 68  1  0  0  0
 36 56  1  0  0  0
 36104  1  0  0  0
 37 39  1  0  0  0
 37 47  1  0  0  0
 37 66  1  0  0  0
 37105  1  0  0  0
 38 43  2  0  0  0
 38 46  1  0  0  0
 38 47  1  0  0  0
 39 64  1  0  0  0
 39 67  2  0  0  0
 40 52  1  0  0  0
 40 53  2  0  0  0
 40 58  1  0  0  0
 41106  1  0  0  0
 41107  1  0  0  0
 41108  1  0  0  0
 41 48  1  0  0  0
 42 43  1  0  0  0
 42 66  1  0  0  0
 42109  1  0  0  0
 42110  1  0  0  0
 43 44  1  0  0  0
 44111  1  0  0  0
 45 46  2  0  0  0
 45112  1  0  0  0
 46113  1  0  0  0
 47114  1  0  0  0
 47115  1  0  0  0
 48 56  1  0  0  0
 48 65  1  0  0  0
 48116  1  0  0  0
 49 50  1  0  0  0
 49 53  1  0  0  0
 49 64  1  0  0  0
 49117  1  0  0  0
 50 51  1  0  0  0
 50118  1  0  0  0
 50119  1  0  0  0
 51 52  1  0  0  0
 51120  1  0  0  0
 51121  1  0  0  0
 52122  1  0  0  0
 52123  1  0  0  0
 53 54  1  0  0  0
 54 55  2  0  0  0
 54124  1  0  0  0
 55 57  1  0  0  0
 55125  1  0  0  0
 56 69  2  0  0  0
 57 58  2  0  0  0
 57126  1  0  0  0
 58127  1  0  0  0
 59 60  1  0  0  0
 59 61  1  0  0  0
 59 62  1  0  0  0
 60128  1  0  0  0
 60129  1  0  0  0
 60130  1  0  0  0
 61131  1  0  0  0
 61132  1  0  0  0
 61133  1  0  0  0
 62134  1  0  0  0
 62135  1  0  0  0
 62136  1  0  0  0
 63 65  1  0  0  0
 63137  1  0  0  0
 63138  1  0  0  0
 63139  1  0  0  0
 64140  1  0  0  0
 65141  1  0  0  0
 68 78  1  0  0  0
 71 72  2  0  0  0
 71 73  1  0  0  0
 71142  1  0  0  0
 72 74  1  0  0  0
 72 81  1  0  0  0
 73 75  1  0  0  0
 73 79  2  0  0  0
 74 80  1  0  0  0
 74 82  2  0  0  0
 75 76  2  0  0  0
 75143  1  0  0  0
 76 78  1  0  0  0
 76144  1  0  0  0
 77 80  1  0  0  0
 77145  1  0  0  0
 77146  1  0  0  0
 77147  1  0  0  0
 78148  1  0  0  0
 78149  1  0  0  0
 79 80  1  0  0  0
 81150  1  0  0  0
M  ISO  4   1 100  68 101  78 101  81 100
M  END
> <chiral flag>
0

> <version>
0

> <s_m_source_file>
/data/baiqing/PycharmProjects/Reinvent-master-3.2/result/LINK_invent/BTK/process_docking_weight1_custom_product_contain_oxygen_bond_distance_aromatic_linkinvent_7_9_3/rearranged_h_0113.sdf

> <i_m_source_file_index>
34

> <r_mmod_Potential_Energy-OPLS-2005>
719.669982910156

> <r_mmod_Stretch_Energy-OPLS-2005>
355.856018066406

> <r_mmod_Bend_Energy-OPLS-2005>
289.341339111328

> <r_mmod_Torsional_Energy-OPLS-2005>
238.546203613281

> <r_mmod_Improper_Torsional_Energy-OPLS-2005>
5.75150918960571

> <r_mmod_Van_der_Waal_Energy-OPLS-2005>
151.375228881836

> <r_mmod_Electrostatic_Energy-OPLS-2005>
-365.7705078125

> <r_mmod_Solvation_Energy-OPLS-2005>
-239.065200805664

> <b_mmod_Minimization_Converged-OPLS-2005>
0

> <r_mmod_RMS_Derivative-OPLS-2005>
2.15748739242554

$$$$
34
                    3D
 Structure written by MMmdl.
163171  0  0  1  0            999 V2000
  -29.6983  -14.6466   19.9196 C   0  0  0  0  0  0
  -30.4564  -12.4019   19.3210 C   0  0  0  0  0  0
  -29.4145  -12.0175   18.2418 C   0  0  0  0  0  0
  -28.0468  -11.5745   18.9326 C   0  0  0  0  0  0
  -27.6679  -12.5297   20.0940 C   0  0  2  0  0  0
  -28.8284  -12.7556   21.0660 C   0  0  0  0  0  0
  -24.8586  -14.5238   20.6683 C   0  0  0  0  0  0
  -24.2386  -14.0786   20.9507 C   0  0  0  0  0  0
  -25.4307  -12.1740   20.8393 C   0  0  0  0  0  0
  -24.6830  -10.4823   20.8823 C   0  0  0  0  0  0
  -24.6770   -9.5749   22.0204 C   0  0  0  0  0  0
  -23.7864   -8.4469   22.2482 C   0  0  0  0  0  0
  -22.6997   -8.1174   21.3927 C   0  0  0  0  0  0
  -22.6306   -8.9248   20.2647 C   0  0  0  0  0  0
  -23.6536   -9.8916   20.0040 C   0  0  0  0  0  0
  -21.7684   -6.1563   22.5382 C   0  0  0  0  0  0
  -21.4570   -6.6060   23.8360 C   0  0  0  0  0  0
  -21.3765   -5.6969   24.9100 C   0  0  0  0  0  0
  -21.5971   -4.3230   24.6938 C   0  0  0  0  0  0
  -21.8757   -3.8591   23.3956 C   0  0  0  0  0  0
  -21.9459   -4.7663   22.3196 C   0  0  0  0  0  0
  -22.6167  -14.4608   21.0810 C   0  0  0  0  0  0
  -22.1807   -4.2873   21.0741 F   0  0  0  0  0  0
  -21.5463   -3.4530   25.7319 F   0  0  0  0  0  0
  -29.8075  -13.3482   20.2402 N   0  0  0  0  0  0
  -26.1799  -12.9150   20.7452 N   0  0  0  0  0  0
  -26.3753  -11.8839   21.4618 N   0  0  0  0  0  0
  -21.6993  -13.7890   21.8318 N   0  0  0  0  0  0
  -24.7229  -15.8955   20.2298 N   0  0  0  0  0  0
  -30.8292  -15.2053   19.8781 O   0  0  0  0  0  0
  -21.8029   -7.0495   21.4852 O   0  0  0  0  0  0
  -22.1049  -15.2451   20.3246 O   0  0  0  0  0  0
  -24.6824  -31.8051   23.1539 C   0  0  0  0  0  0
  -25.9426  -32.4494   23.8108 C   0  0  1  0  0  0
  -26.9573  -26.5990   20.3439 C   0  0  0  0  0  0
  -25.6016  -33.8329   24.1968 N   0  0  0  0  0  0
  -23.5050  -30.4128   21.5045 C   0  0  2  0  0  0
  -24.9298  -28.7708   20.1088 C   0  0  0  0  0  0
  -22.7731  -29.4301   22.4620 C   0  0  0  0  0  0
  -18.0300  -28.1439   22.8417 C   0  0  0  0  0  0
  -24.1479  -36.7206   23.2629 C   0  0  0  0  0  0
  -26.0804  -30.5162   21.4305 C   0  0  0  0  0  0
  -26.1079  -29.0729   20.7980 C   0  0  0  0  0  0
  -27.1427  -28.0073   20.8853 C   0  0  0  0  0  0
  -25.8340  -26.5558   19.5138 C   0  0  0  0  0  0
  -24.8401  -27.5532   19.4271 C   0  0  0  0  0  0
  -23.7608  -29.7448   20.1260 C   0  0  0  0  0  0
  -25.4115  -36.2917   24.0280 C   0  0  1  0  0  0
  -20.5939  -28.3809   23.1091 C   0  0  2  0  0  0
  -20.6791  -26.9468   22.5372 C   0  0  0  0  0  0
  -19.5775  -26.6367   21.5191 C   0  0  0  0  0  0
  -18.1938  -26.7945   22.1591 C   0  0  0  0  0  0
  -19.1570  -28.8946   23.2736 C   0  0  0  0  0  0
  -18.9469  -30.1502   23.8830 C   0  0  0  0  0  0
  -17.6461  -30.6621   24.0541 C   0  0  0  0  0  0
  -25.9112  -34.9314   23.4956 C   0  0  0  0  0  0
  -16.5350  -29.9112   23.6345 C   0  0  0  0  0  0
  -16.7269  -28.6531   23.0367 C   0  0  0  0  0  0
  -26.4604  -31.6503   25.0714 C   0  0  0  0  0  0
  -25.3652  -31.3886   26.1325 C   0  0  0  0  0  0
  -27.0556  -30.2835   24.6619 C   0  0  0  0  0  0
  -27.6031  -32.4374   25.7558 C   0  0  0  0  0  0
  -27.5561  -37.1716   24.8421 C   0  0  0  0  0  0
  -21.4364  -29.3062   22.3422 N   0  0  0  0  0  0
  -26.4212  -37.3694   23.9451 N   0  0  0  0  0  0
  -24.7812  -30.9469   22.0823 N   0  0  0  0  0  0
  -23.4160  -28.7824   23.2911 O   0  0  0  0  0  0
  -27.6323  -25.2249   20.5000 O   0  0  0  0  0  0
  -26.5717  -34.8882   22.4554 O   0  0  0  0  0  0
  -23.5832  -32.1195   23.6417 O   0  0  0  0  0  0
  -25.2461  -13.5016   18.7105 C   0  0  0  0  0  0
  -25.4241  -13.7588   22.8731 C   0  0  0  0  0  0
  -23.5746  -12.4445   19.7172 C   0  0  0  0  0  0
  -26.8494  -14.7860   19.6763 C   0  0  0  0  0  0
  -23.7627  -12.4142   22.2165 C   0  0  0  0  0  0
  -26.7609  -15.0097   21.7032 C   0  0  0  0  0  0
  -25.6402  -13.9780   24.3306 C   0  0  0  0  0  0
  -26.7862  -19.9935   21.2884 C   0  0  0  0  0  0
  -27.3736  -21.8086   20.6537 C   0  0  0  0  0  0
  -22.2782  -12.1379   18.9677 C   0  0  0  0  0  0
  -27.1059  -14.0484   24.7821 C   0  0  0  0  0  0
  -27.2248  -18.1577   21.0817 C   0  0  0  0  0  0
  -26.9035  -23.6343   20.8651 C   0  0  0  0  0  0
  -22.8959  -11.7551   23.1107 N   0  0  0  0  0  0
  -28.3906  -15.1296   19.4105 N   0  0  0  0  0  0
  -26.9926  -16.6260   21.9251 N   0  0  0  0  0  0
  -24.7406  -14.0802   25.1701 O   0  0  0  0  0  0
  -25.7913  -20.0906   22.0112 O   0  0  0  0  0  0
  -28.3007  -21.6932   19.8450 O   0  0  0  0  0  0
  -31.3314  -12.8501   18.8443 H   0  0  0  0  0  0
  -30.8199  -11.5257   19.8607 H   0  0  0  0  0  0
  -29.7928  -11.1923   17.6398 H   0  0  0  0  0  0
  -29.2636  -12.8404   17.5390 H   0  0  0  0  0  0
  -28.2092  -10.6040   19.4029 H   0  0  0  0  0  0
  -27.2476  -11.3733   18.2085 H   0  0  0  0  0  0
  -27.7078  -12.9659   19.1245 H   0  0  0  0  0  0
  -29.1729  -11.8041   21.4747 H   0  0  0  0  0  0
  -28.6202  -13.3929   21.9218 H   0  0  0  0  0  0
  -25.3671   -9.8078   22.8211 H   0  0  0  0  0  0
  -23.9194   -7.8706   23.1491 H   0  0  0  0  0  0
  -21.9369   -8.6594   19.4822 H   0  0  0  0  0  0
  -23.6896  -10.1857   18.9682 H   0  0  0  0  0  0
  -21.2901   -7.6589   24.0100 H   0  0  0  0  0  0
  -21.1536   -6.0564   25.9037 H   0  0  0  0  0  0
  -22.0341   -2.8072   23.2154 H   0  0  0  0  0  0
  -22.0329  -13.0163   22.4316 H   0  0  0  0  0  0
  -20.7090  -13.9106   21.6976 H   0  0  0  0  0  0
  -23.8437  -16.3872   20.3223 H   0  0  0  0  0  0
  -25.5308  -16.5011   20.1162 H   0  0  0  0  0  0
  -26.7504  -32.4965   23.0834 H   0  0  0  0  0  0
  -25.0125  -33.9403   25.0085 H   0  0  0  0  0  0
  -22.8293  -31.2500   21.3244 H   0  0  0  0  0  0
  -23.3771  -35.9483   23.3111 H   0  0  0  0  0  0
  -24.3597  -36.9058   22.2070 H   0  0  0  0  0  0
  -23.7159  -37.6303   23.6842 H   0  0  0  0  0  0
  -26.2836  -31.2299   20.6291 H   0  0  0  0  0  0
  -26.9323  -30.5875   22.0926 H   0  0  0  0  0  0
  -28.0181  -28.2127   21.4905 H   0  0  0  0  0  0
  -25.6503  -25.6211   19.0018 H   0  0  0  0  0  0
  -23.9505  -27.3189   18.8598 H   0  0  0  0  0  0
  -23.9849  -30.5124   19.3845 H   0  0  0  0  0  0
  -22.8646  -29.2286   19.7774 H   0  0  0  0  0  0
  -25.1289  -36.1678   25.0755 H   0  0  0  0  0  0
  -20.9985  -28.3444   24.1222 H   0  0  0  0  0  0
  -20.5668  -26.2417   23.3627 H   0  0  0  0  0  0
  -21.6644  -26.7430   22.1169 H   0  0  0  0  0  0
  -19.6974  -25.6245   21.1299 H   0  0  0  0  0  0
  -19.6759  -27.3094   20.6655 H   0  0  0  0  0  0
  -17.4198  -26.6583   21.4006 H   0  0  0  0  0  0
  -18.0398  -26.0130   22.9047 H   0  0  0  0  0  0
  -19.7952  -30.7310   24.2182 H   0  0  0  0  0  0
  -17.5045  -31.6300   24.5155 H   0  0  0  0  0  0
  -15.5367  -30.3024   23.7764 H   0  0  0  0  0  0
  -15.8627  -28.0871   22.7171 H   0  0  0  0  0  0
  -24.5756  -30.7353   25.7618 H   0  0  0  0  0  0
  -24.8955  -32.3157   26.4613 H   0  0  0  0  0  0
  -25.7764  -30.9084   27.0207 H   0  0  0  0  0  0
  -26.3289  -29.6399   24.1633 H   0  0  0  0  0  0
  -27.4006  -29.7373   25.5412 H   0  0  0  0  0  0
  -27.9264  -30.3980   24.0154 H   0  0  0  0  0  0
  -27.2550  -33.3751   26.1935 H   0  0  0  0  0  0
  -28.3956  -32.6794   25.0461 H   0  0  0  0  0  0
  -28.0576  -31.8637   26.5652 H   0  0  0  0  0  0
  -28.2389  -38.0186   24.7671 H   0  0  0  0  0  0
  -28.1246  -36.2727   24.5987 H   0  0  0  0  0  0
  -27.2346  -37.1027   25.8824 H   0  0  0  0  0  0
  -20.9647  -29.8813   21.6601 H   0  0  0  0  0  0
  -26.0037  -38.2709   24.1597 H   0  0  0  0  0  0
  -25.2749  -13.4426   17.6334 H   0  0  0  0  0  0
  -21.7074  -13.0530   18.8286 H   0  0  0  0  0  0
  -21.6536  -11.4720   19.5609 H   0  0  0  0  0  0
  -22.4756  -11.7102   17.9865 H   0  0  0  0  0  0
  -27.7877  -14.0403   23.9310 H   0  0  0  0  0  0
  -27.3544  -13.1858   25.4012 H   0  0  0  0  0  0
  -27.3180  -14.9422   25.3716 H   0  0  0  0  0  0
  -28.3093  -18.2090   20.9670 H   0  0  0  0  0  0
  -26.9097  -17.9062   20.0615 H   0  0  0  0  0  0
  -26.7452  -23.7171   21.9427 H   0  0  0  0  0  0
  -25.8725  -23.7261   20.4931 H   0  0  0  0  0  0
  -23.0141  -12.0094   24.0879 H   0  0  0  0  0  0
  -22.9550  -10.7439   23.0360 H   0  0  0  0  0  0
  -28.5071  -16.0664   19.0589 H   0  0  0  0  0  0
  -27.1236  -16.8349   22.9136 H   0  0  0  0  0  0
  1 25  1  0  0  0
  1 30  2  0  0  0
  1 85  1  0  0  0
  2  3  1  0  0  0
  2 25  1  0  0  0
  2 90  1  0  0  0
  2 91  1  0  0  0
  3  4  1  0  0  0
  3 92  1  0  0  0
  3 93  1  0  0  0
  4  5  1  0  0  0
  4 94  1  0  0  0
  4 95  1  0  0  0
  5  6  1  0  0  0
  5 26  1  0  0  0
  5 96  1  0  0  0
  6 25  1  0  0  0
  6 97  1  0  0  0
  6 98  1  0  0  0
  7  8  2  0  0  0
  7 26  1  0  0  0
  7 29  1  0  0  0
  8  9  1  0  0  0
  8 22  1  0  0  0
  9 10  1  0  0  0
  9 27  2  0  0  0
 10 11  2  0  0  0
 10 15  1  0  0  0
 11 12  1  0  0  0
 11 99  1  0  0  0
 12 13  2  0  0  0
 12100  1  0  0  0
 13 14  1  0  0  0
 13 31  1  0  0  0
 14 15  2  0  0  0
 14101  1  0  0  0
 15102  1  0  0  0
 16 17  2  0  0  0
 16 21  1  0  0  0
 16 31  1  0  0  0
 17 18  1  0  0  0
 17103  1  0  0  0
 18 19  2  0  0  0
 18104  1  0  0  0
 19 20  1  0  0  0
 19 24  1  0  0  0
 20 21  2  0  0  0
 20105  1  0  0  0
 21 23  1  0  0  0
 22 28  1  0  0  0
 22 32  2  0  0  0
 26 27  1  0  0  0
 28106  1  0  0  0
 28107  1  0  0  0
 29108  1  0  0  0
 29109  1  0  0  0
 33 34  1  0  0  0
 33 66  1  0  0  0
 33 70  2  0  0  0
 34 36  1  0  0  0
 34 59  1  0  0  0
 34110  1  0  0  0
 35 44  2  0  0  0
 35 45  1  0  0  0
 35 68  1  0  0  0
 36 56  1  0  0  0
 36111  1  0  0  0
 37 39  1  0  0  0
 37 47  1  0  0  0
 37 66  1  0  0  0
 37112  1  0  0  0
 38 43  2  0  0  0
 38 46  1  0  0  0
 38 47  1  0  0  0
 39 64  1  0  0  0
 39 67  2  0  0  0
 40 52  1  0  0  0
 40 53  2  0  0  0
 40 58  1  0  0  0
 41113  1  0  0  0
 41114  1  0  0  0
 41115  1  0  0  0
 41 48  1  0  0  0
 42 43  1  0  0  0
 42 66  1  0  0  0
 42116  1  0  0  0
 42117  1  0  0  0
 43 44  1  0  0  0
 44118  1  0  0  0
 45 46  2  0  0  0
 45119  1  0  0  0
 46120  1  0  0  0
 47121  1  0  0  0
 47122  1  0  0  0
 48 56  1  0  0  0
 48 65  1  0  0  0
 48123  1  0  0  0
 49 50  1  0  0  0
 49 53  1  0  0  0
 49 64  1  0  0  0
 49124  1  0  0  0
 50 51  1  0  0  0
 50125  1  0  0  0
 50126  1  0  0  0
 51 52  1  0  0  0
 51127  1  0  0  0
 51128  1  0  0  0
 52129  1  0  0  0
 52130  1  0  0  0
 53 54  1  0  0  0
 54 55  2  0  0  0
 54131  1  0  0  0
 55 57  1  0  0  0
 55132  1  0  0  0
 56 69  2  0  0  0
 57 58  2  0  0  0
 57133  1  0  0  0
 58134  1  0  0  0
 59 60  1  0  0  0
 59 61  1  0  0  0
 59 62  1  0  0  0
 60135  1  0  0  0
 60136  1  0  0  0
 60137  1  0  0  0
 61138  1  0  0  0
 61139  1  0  0  0
 61140  1  0  0  0
 62141  1  0  0  0
 62142  1  0  0  0
 62143  1  0  0  0
 63 65  1  0  0  0
 63144  1  0  0  0
 63145  1  0  0  0
 63146  1  0  0  0
 64147  1  0  0  0
 65148  1  0  0  0
 68 83  1  0  0  0
 71 73  2  0  0  0
 71 74  1  0  0  0
 71149  1  0  0  0
 72 75  2  0  0  0
 72 76  1  0  0  0
 72 77  1  0  0  0
 73 75  1  0  0  0
 73 80  1  0  0  0
 74 76  2  0  0  0
 74 85  1  0  0  0
 75 84  1  0  0  0
 76 86  1  0  0  0
 77 81  1  0  0  0
 77 87  2  0  0  0
 78 79  1  0  0  0
 78 82  1  0  0  0
 78 88  2  0  0  0
 79 83  1  0  0  0
 79 89  2  0  0  0
 80150  1  0  0  0
 80151  1  0  0  0
 80152  1  0  0  0
 81153  1  0  0  0
 81154  1  0  0  0
 81155  1  0  0  0
 82 86  1  0  0  0
 82156  1  0  0  0
 82157  1  0  0  0
 83158  1  0  0  0
 83159  1  0  0  0
 84160  1  0  0  0
 84161  1  0  0  0
 85162  1  0  0  0
 86163  1  0  0  0
M  ISO  4   1 100  68 101  83 101  85 100
M  END
> <chiral flag>
0

> <version>
0

> <s_m_source_file>
/data/baiqing/PycharmProjects/Reinvent-master-3.2/result/LINK_invent/BTK/process_docking_weight1_custom_product_contain_oxygen_bond_distance_aromatic_linkinvent_7_9_3/rearranged_h_0113.sdf

> <i_m_source_file_index>
35

> <r_mmod_Potential_Energy-OPLS-2005>
21823.3125

> <r_mmod_Stretch_Energy-OPLS-2005>
13272.48046875

> <r_mmod_Bend_Energy-OPLS-2005>
1600.31945800781

> <r_mmod_Torsional_Energy-OPLS-2005>
665.71728515625

> <r_mmod_Improper_Torsional_Energy-OPLS-2005>
68.846435546875

> <r_mmod_Van_der_Waal_Energy-OPLS-2005>
4749.46875

> <r_mmod_Electrostatic_Energy-OPLS-2005>
-336.599517822266

> <r_mmod_Solvation_Energy-OPLS-2005>
-236.703536987305

> <b_mmod_Minimization_Converged-OPLS-2005>
0

> <r_mmod_RMS_Derivative-OPLS-2005>
17.3770809173584

$$$$
35
                    3D
 Structure written by MMmdl.
156164  0  0  1  0            999 V2000
  -30.4977  -15.0473   20.3944 C   0  0  0  0  0  0
  -30.4553  -12.6566   19.4773 C   0  0  0  0  0  0
  -29.5369  -12.5418   18.2425 C   0  0  0  0  0  0
  -28.0708  -12.3085   18.6699 C   0  0  0  0  0  0
  -27.6282  -13.2507   19.8231 C   0  0  2  0  0  0
  -28.6792  -13.3197   20.9470 C   0  0  0  0  0  0
  -25.2505  -13.8193   20.5743 C   0  0  0  0  0  0
  -24.1806  -13.0439   20.9214 C   0  0  0  0  0  0
  -24.6395  -11.6910   20.8733 C   0  0  0  0  0  0
  -23.9045  -10.4298   21.0392 C   0  0  0  0  0  0
  -24.3595   -9.4235   21.9192 C   0  0  0  0  0  0
  -23.6264   -8.2268   22.0779 C   0  0  0  0  0  0
  -22.4262   -8.0270   21.3542 C   0  0  0  0  0  0
  -21.9864   -9.0246   20.4667 C   0  0  0  0  0  0
  -22.7200  -10.2126   20.3056 C   0  0  0  0  0  0
  -21.6839   -6.0716   22.5279 C   0  0  0  0  0  0
  -21.4032   -6.5631   23.8214 C   0  0  0  0  0  0
  -21.3671   -5.6777   24.9175 C   0  0  0  0  0  0
  -21.6035   -4.3027   24.7216 C   0  0  0  0  0  0
  -21.8826   -3.8127   23.4331 C   0  0  0  0  0  0
  -21.9205   -4.6952   22.3404 C   0  0  0  0  0  0
  -22.7826  -13.5256   21.1822 C   0  0  0  0  0  0
  -22.1659   -4.2140   21.0976 F   0  0  0  0  0  0
  -21.5631   -3.4514   25.7726 F   0  0  0  0  0  0
  -29.9255  -13.7719   20.3139 N   0  0  0  0  0  0
  -26.2919  -12.9427   20.3203 N   0  0  0  0  0  0
  -25.9344  -11.6551   20.5696 N   0  0  0  0  0  0
  -22.0371  -12.8354   22.0364 N   0  0  0  0  0  0
  -25.4145  -15.1937   20.4248 N   0  0  0  0  0  0
  -31.7285  -15.0913   20.2711 O   0  0  0  0  0  0
  -21.6635   -6.8859   21.4229 O   0  0  0  0  0  0
  -22.3564  -14.5536   20.6576 O   0  0  0  0  0  0
  -24.6530  -31.8385   23.1885 C   0  0  0  0  0  0
  -25.9275  -32.4667   23.8300 C   0  0  1  0  0  0
  -27.2231  -27.0684   20.1540 C   0  0  0  0  0  0
  -25.6010  -33.8479   24.2194 N   0  0  0  0  0  0
  -23.4617  -30.4576   21.5312 C   0  0  2  0  0  0
  -24.9131  -28.8741   20.1099 C   0  0  0  0  0  0
  -22.7634  -29.4521   22.4834 C   0  0  0  0  0  0
  -18.0331  -28.1427   22.8460 C   0  0  0  0  0  0
  -24.1504  -36.7254   23.2638 C   0  0  0  0  0  0
  -26.0238  -30.6860   21.4037 C   0  0  0  0  0  0
  -26.0907  -29.2919   20.7413 C   0  0  0  0  0  0
  -27.2393  -28.4037   20.7507 C   0  0  0  0  0  0
  -26.0181  -26.7709   19.4793 C   0  0  0  0  0  0
  -24.8921  -27.6277   19.4653 C   0  0  0  0  0  0
  -23.6977  -29.7902   20.1495 C   0  0  0  0  0  0
  -25.4141  -36.3006   24.0302 C   0  0  1  0  0  0
  -20.5958  -28.3756   23.1223 C   0  0  2  0  0  0
  -20.6834  -26.9456   22.5401 C   0  0  0  0  0  0
  -19.5795  -26.6395   21.5234 C   0  0  0  0  0  0
  -18.1968  -26.7971   22.1616 C   0  0  0  0  0  0
  -19.1585  -28.8917   23.2829 C   0  0  0  0  0  0
  -18.9488  -30.1518   23.8854 C   0  0  0  0  0  0
  -17.6468  -30.6595   24.0585 C   0  0  0  0  0  0
  -25.9091  -34.9389   23.5030 C   0  0  0  0  0  0
  -16.5370  -29.9080   23.6348 C   0  0  0  0  0  0
  -16.7306  -28.6526   23.0327 C   0  0  0  0  0  0
  -26.4558  -31.6551   25.0778 C   0  0  0  0  0  0
  -25.3716  -31.3767   26.1455 C   0  0  0  0  0  0
  -27.0447  -30.2924   24.6445 C   0  0  0  0  0  0
  -27.6063  -32.4334   25.7582 C   0  0  0  0  0  0
  -27.5585  -37.1789   24.8449 C   0  0  0  0  0  0
  -21.4328  -29.3048   22.3554 N   0  0  0  0  0  0
  -26.4286  -37.3735   23.9390 N   0  0  0  0  0  0
  -24.7327  -31.0187   22.0948 N   0  0  0  0  0  0
  -23.4232  -28.8072   23.3027 O   0  0  0  0  0  0
  -28.2602  -26.0449   20.2522 O   0  0  0  0  0  0
  -26.5637  -34.8888   22.4593 O   0  0  0  0  0  0
  -23.5628  -32.1288   23.7068 O   0  0  0  0  0  0
  -29.2767  -18.9959   20.0685 C   0  0  0  0  0  0
  -29.8599  -19.1895   22.7232 C   0  0  0  0  0  0
  -29.1374  -20.3848   20.6605 C   0  0  0  0  0  0
  -29.4088  -20.3676   22.0644 C   0  0  0  0  0  0
  -29.7218  -17.7204   20.7446 C   0  0  0  0  0  0
  -30.0289  -17.9242   22.1098 C   0  0  0  0  0  0
  -28.7357  -23.3958   20.4027 C   0  0  0  0  0  0
  -28.1454  -24.6030   19.8835 C   0  0  0  0  0  0
  -28.2144  -21.5908   23.5912 C   0  0  0  0  0  0
  -28.7022  -21.8209   19.9331 C   0  0  0  0  0  0
  -27.9632  -22.7576   24.5139 C   0  0  0  0  0  0
  -28.2631  -21.7089   18.7494 N   0  0  0  0  0  0
  -29.2551  -21.5096   22.8595 N   0  0  0  0  0  0
  -30.4433  -16.8575   22.9100 N   0  0  0  0  0  0
  -29.6969  -16.2374   20.2492 N   0  0  0  0  0  0
  -31.4861  -12.8392   19.1679 H   0  0  0  0  0  0
  -30.4721  -11.7167   20.0299 H   0  0  0  0  0  0
  -29.8740  -11.7306   17.5942 H   0  0  0  0  0  0
  -29.6099  -13.4568   17.6517 H   0  0  0  0  0  0
  -27.9930  -11.2693   18.9909 H   0  0  0  0  0  0
  -27.4051  -12.4180   17.8131 H   0  0  0  0  0  0
  -27.5693  -14.2462   19.3810 H   0  0  0  0  0  0
  -28.8109  -12.3506   21.4316 H   0  0  0  0  0  0
  -28.3775  -14.0217   21.7253 H   0  0  0  0  0  0
  -25.2724   -9.5737   22.4783 H   0  0  0  0  0  0
  -23.9973   -7.4680   22.7517 H   0  0  0  0  0  0
  -21.0793   -8.8743   19.8986 H   0  0  0  0  0  0
  -22.3629  -10.9653   19.6176 H   0  0  0  0  0  0
  -21.2014   -7.6134   23.9714 H   0  0  0  0  0  0
  -21.1493   -6.0505   25.9085 H   0  0  0  0  0  0
  -22.0591   -2.7582   23.2834 H   0  0  0  0  0  0
  -22.3848  -12.0060   22.4925 H   0  0  0  0  0  0
  -21.0992  -13.1509   22.2402 H   0  0  0  0  0  0
  -24.6401  -15.8356   20.5587 H   0  0  0  0  0  0
  -26.2647  -15.6540   20.1297 H   0  0  0  0  0  0
  -26.7351  -32.5241   23.1041 H   0  0  0  0  0  0
  -25.0261  -33.9583   25.0409 H   0  0  0  0  0  0
  -22.7670  -31.2867   21.3758 H   0  0  0  0  0  0
  -23.3759  -35.9586   23.3262 H   0  0  0  0  0  0
  -24.3593  -36.8933   22.2058 H   0  0  0  0  0  0
  -23.7263  -37.6444   23.6702 H   0  0  0  0  0  0
  -26.2010  -31.4382   20.6345 H   0  0  0  0  0  0
  -26.8859  -30.7311   22.0583 H   0  0  0  0  0  0
  -28.1301  -28.7159   21.2801 H   0  0  0  0  0  0
  -25.8981  -25.8190   18.9890 H   0  0  0  0  0  0
  -23.9964  -27.2979   18.9598 H   0  0  0  0  0  0
  -23.8595  -30.5721   19.4073 H   0  0  0  0  0  0
  -22.8087  -29.2509   19.8205 H   0  0  0  0  0  0
  -25.1331  -36.1838   25.0791 H   0  0  0  0  0  0
  -21.0052  -28.3379   24.1354 H   0  0  0  0  0  0
  -20.5834  -26.2363   23.3629 H   0  0  0  0  0  0
  -21.6685  -26.7523   22.1146 H   0  0  0  0  0  0
  -19.6970  -25.6305   21.1283 H   0  0  0  0  0  0
  -19.6755  -27.3207   20.6768 H   0  0  0  0  0  0
  -17.4273  -26.6766   21.3975 H   0  0  0  0  0  0
  -18.0314  -26.0117   22.9005 H   0  0  0  0  0  0
  -19.7950  -30.7369   24.2191 H   0  0  0  0  0  0
  -17.5001  -31.6264   24.5202 H   0  0  0  0  0  0
  -15.5361  -30.2949   23.7706 H   0  0  0  0  0  0
  -15.8724  -28.0847   22.7007 H   0  0  0  0  0  0
  -24.5897  -30.7110   25.7779 H   0  0  0  0  0  0
  -24.8918  -32.2961   26.4808 H   0  0  0  0  0  0
  -25.7991  -30.8992   27.0278 H   0  0  0  0  0  0
  -26.3094  -29.6602   24.1458 H   0  0  0  0  0  0
  -27.3999  -29.7284   25.5077 H   0  0  0  0  0  0
  -27.9032  -30.4111   23.9839 H   0  0  0  0  0  0
  -27.2612  -33.3624   26.2126 H   0  0  0  0  0  0
  -28.3914  -32.6905   25.0462 H   0  0  0  0  0  0
  -28.0690  -31.8497   26.5549 H   0  0  0  0  0  0
  -28.2562  -38.0121   24.7504 H   0  0  0  0  0  0
  -28.1108  -36.2642   24.6247 H   0  0  0  0  0  0
  -27.2290  -37.1410   25.8844 H   0  0  0  0  0  0
  -20.9577  -29.8664   21.6643 H   0  0  0  0  0  0
  -26.0146  -38.2799   24.1372 H   0  0  0  0  0  0
  -29.0305  -18.8986   19.0217 H   0  0  0  0  0  0
  -30.0721  -19.2622   23.7813 H   0  0  0  0  0  0
  -29.3634  -23.5301   21.2693 H   0  0  0  0  0  0
  -27.5216  -24.4997   19.0100 H   0  0  0  0  0  0
  -27.4349  -20.8222   23.6117 H   0  0  0  0  0  0
  -28.3072  -22.5186   25.5197 H   0  0  0  0  0  0
  -26.8987  -22.9900   24.5578 H   0  0  0  0  0  0
  -28.4997  -23.6420   24.1718 H   0  0  0  0  0  0
  -28.2361  -20.7520   18.4135 H   0  0  0  0  0  0
  -30.6503  -17.0674   23.8791 H   0  0  0  0  0  0
  -31.1588  -16.2639   22.5041 H   0  0  0  0  0  0
  -28.7933  -15.9950   19.8749 H   0  0  0  0  0  0
  1 25  1  0  0  0
  1 30  2  0  0  0
  1 85  1  0  0  0
  2  3  1  0  0  0
  2 25  1  0  0  0
  2 86  1  0  0  0
  2 87  1  0  0  0
  3  4  1  0  0  0
  3 88  1  0  0  0
  3 89  1  0  0  0
  4  5  1  0  0  0
  4 90  1  0  0  0
  4 91  1  0  0  0
  5  6  1  0  0  0
  5 26  1  0  0  0
  5 92  1  0  0  0
  6 25  1  0  0  0
  6 93  1  0  0  0
  6 94  1  0  0  0
  7  8  2  0  0  0
  7 26  1  0  0  0
  7 29  1  0  0  0
  8  9  1  0  0  0
  8 22  1  0  0  0
  9 10  1  0  0  0
  9 27  2  0  0  0
 10 11  2  0  0  0
 10 15  1  0  0  0
 11 12  1  0  0  0
 11 95  1  0  0  0
 12 13  2  0  0  0
 12 96  1  0  0  0
 13 14  1  0  0  0
 13 31  1  0  0  0
 14 15  2  0  0  0
 14 97  1  0  0  0
 15 98  1  0  0  0
 16 17  2  0  0  0
 16 21  1  0  0  0
 16 31  1  0  0  0
 17 18  1  0  0  0
 17 99  1  0  0  0
 18 19  2  0  0  0
 18100  1  0  0  0
 19 20  1  0  0  0
 19 24  1  0  0  0
 20 21  2  0  0  0
 20101  1  0  0  0
 21 23  1  0  0  0
 22 28  1  0  0  0
 22 32  2  0  0  0
 26 27  1  0  0  0
 28102  1  0  0  0
 28103  1  0  0  0
 29104  1  0  0  0
 29105  1  0  0  0
 33 34  1  0  0  0
 33 66  1  0  0  0
 33 70  2  0  0  0
 34 36  1  0  0  0
 34 59  1  0  0  0
 34106  1  0  0  0
 35 44  2  0  0  0
 35 45  1  0  0  0
 35 68  1  0  0  0
 36 56  1  0  0  0
 36107  1  0  0  0
 37 39  1  0  0  0
 37 47  1  0  0  0
 37 66  1  0  0  0
 37108  1  0  0  0
 38 43  2  0  0  0
 38 46  1  0  0  0
 38 47  1  0  0  0
 39 64  1  0  0  0
 39 67  2  0  0  0
 40 52  1  0  0  0
 40 53  2  0  0  0
 40 58  1  0  0  0
 41109  1  0  0  0
 41110  1  0  0  0
 41111  1  0  0  0
 41 48  1  0  0  0
 42 43  1  0  0  0
 42 66  1  0  0  0
 42112  1  0  0  0
 42113  1  0  0  0
 43 44  1  0  0  0
 44114  1  0  0  0
 45 46  2  0  0  0
 45115  1  0  0  0
 46116  1  0  0  0
 47117  1  0  0  0
 47118  1  0  0  0
 48 56  1  0  0  0
 48 65  1  0  0  0
 48119  1  0  0  0
 49 50  1  0  0  0
 49 53  1  0  0  0
 49 64  1  0  0  0
 49120  1  0  0  0
 50 51  1  0  0  0
 50121  1  0  0  0
 50122  1  0  0  0
 51 52  1  0  0  0
 51123  1  0  0  0
 51124  1  0  0  0
 52125  1  0  0  0
 52126  1  0  0  0
 53 54  1  0  0  0
 54 55  2  0  0  0
 54127  1  0  0  0
 55 57  1  0  0  0
 55128  1  0  0  0
 56 69  2  0  0  0
 57 58  2  0  0  0
 57129  1  0  0  0
 58130  1  0  0  0
 59 60  1  0  0  0
 59 61  1  0  0  0
 59 62  1  0  0  0
 60131  1  0  0  0
 60132  1  0  0  0
 60133  1  0  0  0
 61134  1  0  0  0
 61135  1  0  0  0
 61136  1  0  0  0
 62137  1  0  0  0
 62138  1  0  0  0
 62139  1  0  0  0
 63 65  1  0  0  0
 63140  1  0  0  0
 63141  1  0  0  0
 63142  1  0  0  0
 64143  1  0  0  0
 65144  1  0  0  0
 68 78  1  0  0  0
 71 73  2  0  0  0
 71 75  1  0  0  0
 71145  1  0  0  0
 72 74  2  0  0  0
 72 76  1  0  0  0
 72146  1  0  0  0
 73 74  1  0  0  0
 73 80  1  0  0  0
 74 83  1  0  0  0
 75 76  2  0  0  0
 75 85  1  0  0  0
 76 84  1  0  0  0
 77 78  2  0  0  0
 77 80  1  0  0  0
 77147  1  0  0  0
 78148  1  0  0  0
 79 81  1  0  0  0
 79 83  2  0  0  0
 79149  1  0  0  0
 80 82  2  0  0  0
 81150  1  0  0  0
 81151  1  0  0  0
 81152  1  0  0  0
 82153  1  0  0  0
 84154  1  0  0  0
 84155  1  0  0  0
 85156  1  0  0  0
M  ISO  4   1 100  68 101  78 101  85 100
M  END
> <chiral flag>
0

> <version>
0

> <s_m_source_file>
/data/baiqing/PycharmProjects/Reinvent-master-3.2/result/LINK_invent/BTK/process_docking_weight1_custom_product_contain_oxygen_bond_distance_aromatic_linkinvent_7_9_3/rearranged_h_0113.sdf

> <i_m_source_file_index>
36

> <r_mmod_Potential_Energy-OPLS-2005>
633.476928710938

> <r_mmod_Stretch_Energy-OPLS-2005>
342.680694580078

> <r_mmod_Bend_Energy-OPLS-2005>
268.047607421875

> <r_mmod_Torsional_Energy-OPLS-2005>
284.378051757812

> <r_mmod_Improper_Torsional_Energy-OPLS-2005>
16.065315246582

> <r_mmod_Van_der_Waal_Energy-OPLS-2005>
142.274154663086

> <r_mmod_Electrostatic_Energy-OPLS-2005>
-464.119018554688

> <r_mmod_Solvation_Energy-OPLS-2005>
-225.8203125

> <b_mmod_Minimization_Converged-OPLS-2005>
0

> <r_mmod_RMS_Derivative-OPLS-2005>
4.09492921829224

$$$$
36
                    3D
 Structure written by MMmdl.
157165  0  0  1  0            999 V2000
  -30.4939  -15.0398   20.3696 C   0  0  0  0  0  0
  -30.4419  -12.6469   19.5059 C   0  0  0  0  0  0
  -29.5291  -12.5670   18.2577 C   0  0  0  0  0  0
  -28.0613  -12.3396   18.6661 C   0  0  0  0  0  0
  -27.6172  -13.2677   19.8244 C   0  0  2  0  0  0
  -28.6551  -13.3339   20.9578 C   0  0  0  0  0  0
  -25.2402  -13.8223   20.5673 C   0  0  0  0  0  0
  -24.1768  -13.0441   20.9306 C   0  0  0  0  0  0
  -24.6429  -11.6937   20.8792 C   0  0  0  0  0  0
  -23.9079  -10.4328   21.0442 C   0  0  0  0  0  0
  -24.3643   -9.4236   21.9210 C   0  0  0  0  0  0
  -23.6335   -8.2268   22.0769 C   0  0  0  0  0  0
  -22.4307   -8.0322   21.3580 C   0  0  0  0  0  0
  -21.9932   -9.0285   20.4666 C   0  0  0  0  0  0
  -22.7253  -10.2166   20.3077 C   0  0  0  0  0  0
  -21.6877   -6.0752   22.5305 C   0  0  0  0  0  0
  -21.4013   -6.5634   23.8240 C   0  0  0  0  0  0
  -21.3656   -5.6786   24.9203 C   0  0  0  0  0  0
  -21.6051   -4.3043   24.7244 C   0  0  0  0  0  0
  -21.8814   -3.8153   23.4349 C   0  0  0  0  0  0
  -21.9206   -4.6979   22.3413 C   0  0  0  0  0  0
  -22.7781  -13.5205   21.1970 C   0  0  0  0  0  0
  -22.1707   -4.2180   21.0993 F   0  0  0  0  0  0
  -21.5632   -3.4510   25.7745 F   0  0  0  0  0  0
  -29.9308  -13.7550   20.3679 N   0  0  0  0  0  0
  -26.2846  -12.9490   20.3209 N   0  0  0  0  0  0
  -25.9368  -11.6602   20.5771 N   0  0  0  0  0  0
  -22.0415  -12.8188   22.0473 N   0  0  0  0  0  0
  -25.3938  -15.1930   20.3912 N   0  0  0  0  0  0
  -31.7217  -15.0577   20.2118 O   0  0  0  0  0  0
  -21.6675   -6.8916   21.4282 O   0  0  0  0  0  0
  -22.3469  -14.5516   20.6811 O   0  0  0  0  0  0
  -24.6499  -31.8351   23.1794 C   0  0  0  0  0  0
  -25.9223  -32.4656   23.8207 C   0  0  1  0  0  0
  -27.2072  -27.0481   20.1541 C   0  0  0  0  0  0
  -25.5950  -33.8463   24.2142 N   0  0  0  0  0  0
  -23.4590  -30.4492   21.5311 C   0  0  2  0  0  0
  -24.9038  -28.8621   20.1154 C   0  0  0  0  0  0
  -22.7586  -29.4469   22.4848 C   0  0  0  0  0  0
  -18.0293  -28.1380   22.8481 C   0  0  0  0  0  0
  -24.1487  -36.7217   23.2649 C   0  0  0  0  0  0
  -26.0202  -30.6801   21.3898 C   0  0  0  0  0  0
  -26.0871  -29.2830   20.7350 C   0  0  0  0  0  0
  -27.2373  -28.3933   20.7370 C   0  0  0  0  0  0
  -25.9974  -26.7502   19.4937 C   0  0  0  0  0  0
  -24.8743  -27.6093   19.4821 C   0  0  0  0  0  0
  -23.6853  -29.7734   20.1552 C   0  0  0  0  0  0
  -25.4127  -36.3024   24.0319 C   0  0  1  0  0  0
  -20.5924  -28.3668   23.1248 C   0  0  2  0  0  0
  -20.6785  -26.9357   22.5427 C   0  0  0  0  0  0
  -19.5752  -26.6362   21.5236 C   0  0  0  0  0  0
  -18.1924  -26.7917   22.1634 C   0  0  0  0  0  0
  -19.1574  -28.8846   23.2842 C   0  0  0  0  0  0
  -18.9480  -30.1444   23.8852 C   0  0  0  0  0  0
  -17.6488  -30.6578   24.0539 C   0  0  0  0  0  0
  -25.9090  -34.9403   23.5063 C   0  0  0  0  0  0
  -16.5363  -29.9060   23.6355 C   0  0  0  0  0  0
  -16.7285  -28.6483   23.0377 C   0  0  0  0  0  0
  -26.4513  -31.6549   25.0664 C   0  0  0  0  0  0
  -25.3667  -31.3783   26.1337 C   0  0  0  0  0  0
  -27.0406  -30.2934   24.6313 C   0  0  0  0  0  0
  -27.6055  -32.4296   25.7459 C   0  0  0  0  0  0
  -27.5566  -37.1756   24.8467 C   0  0  0  0  0  0
  -21.4279  -29.2983   22.3596 N   0  0  0  0  0  0
  -26.4284  -37.3734   23.9419 N   0  0  0  0  0  0
  -24.7316  -31.0114   22.0873 N   0  0  0  0  0  0
  -23.4198  -28.8031   23.3047 O   0  0  0  0  0  0
  -28.2413  -26.0186   20.1406 O   0  0  0  0  0  0
  -26.5699  -34.8907   22.4654 O   0  0  0  0  0  0
  -23.5597  -32.1266   23.6944 O   0  0  0  0  0  0
  -28.8819  -19.6545   22.5580 C   0  0  0  0  0  0
  -29.4410  -17.8204   21.2191 C   0  0  0  0  0  0
  -29.1409  -19.3594   21.2472 C   0  0  0  0  0  0
  -29.3526  -17.4641   22.5608 C   0  0  0  0  0  0
  -28.0131  -24.5677   20.4183 C   0  0  0  0  0  0
  -28.7238  -23.3504   20.0981 C   0  0  0  0  0  0
  -28.3532  -21.9007   20.6144 C   0  0  0  0  0  0
  -29.5415  -16.1479   23.2802 C   0  0  0  0  0  0
  -29.9508  -23.4221   19.2097 C   0  0  0  0  0  0
  -28.6359  -18.5132   24.7568 C   0  0  0  0  0  0
  -29.6796  -16.5228   20.1761 C   0  0  0  0  0  0
  -28.9522  -18.5365   23.3343 N   0  0  0  0  0  0
  -29.0886  -20.6643   20.3784 N   0  0  0  0  0  0
  -27.3058  -21.7912   21.2610 O   0  0  0  0  0  0
  -31.4802  -12.8125   19.2078 H   0  0  0  0  0  0
  -30.4419  -11.6982   20.0418 H   0  0  0  0  0  0
  -29.8586  -11.7792   17.5800 H   0  0  0  0  0  0
  -29.6033  -13.5018   17.6997 H   0  0  0  0  0  0
  -27.9604  -11.2993   18.9751 H   0  0  0  0  0  0
  -27.4089  -12.4773   17.8023 H   0  0  0  0  0  0
  -27.5535  -14.2633   19.3860 H   0  0  0  0  0  0
  -28.7510  -12.3743   21.4663 H   0  0  0  0  0  0
  -28.3229  -14.0568   21.7027 H   0  0  0  0  0  0
  -25.2819   -9.5690   22.4716 H   0  0  0  0  0  0
  -24.0066   -7.4630   22.7417 H   0  0  0  0  0  0
  -21.0891   -8.8769   19.8934 H   0  0  0  0  0  0
  -22.3758  -10.9679   19.6115 H   0  0  0  0  0  0
  -21.1999   -7.6152   23.9761 H   0  0  0  0  0  0
  -21.1478   -6.0519   25.9106 H   0  0  0  0  0  0
  -22.0582   -2.7622   23.2842 H   0  0  0  0  0  0
  -22.4079  -11.9887   22.4892 H   0  0  0  0  0  0
  -21.0998  -13.1108   22.2663 H   0  0  0  0  0  0
  -24.5802  -15.7978   20.4051 H   0  0  0  0  0  0
  -26.1877  -15.6101   19.9231 H   0  0  0  0  0  0
  -26.7265  -32.5217   23.0902 H   0  0  0  0  0  0
  -25.0018  -33.9567   25.0240 H   0  0  0  0  0  0
  -22.7649  -31.2770   21.3704 H   0  0  0  0  0  0
  -23.3785  -35.9501   23.3288 H   0  0  0  0  0  0
  -24.3608  -36.8876   22.2075 H   0  0  0  0  0  0
  -23.7191  -37.6382   23.6703 H   0  0  0  0  0  0
  -26.1885  -31.4282   20.6135 H   0  0  0  0  0  0
  -26.8851  -30.7318   22.0387 H   0  0  0  0  0  0
  -28.1400  -28.7111   21.2371 H   0  0  0  0  0  0
  -25.9005  -25.7932   18.9959 H   0  0  0  0  0  0
  -23.9667  -27.2837   18.9927 H   0  0  0  0  0  0
  -23.8182  -30.5415   19.3938 H   0  0  0  0  0  0
  -22.7961  -29.2156   19.8562 H   0  0  0  0  0  0
  -25.1319  -36.1855   25.0808 H   0  0  0  0  0  0
  -20.9993  -28.3229   24.1381 H   0  0  0  0  0  0
  -20.5713  -26.2222   23.3624 H   0  0  0  0  0  0
  -21.6626  -26.7370   22.1183 H   0  0  0  0  0  0
  -19.6900  -25.6291   21.1221 H   0  0  0  0  0  0
  -19.6722  -27.3179   20.6790 H   0  0  0  0  0  0
  -17.4197  -26.6660   21.4020 H   0  0  0  0  0  0
  -18.0287  -26.0081   22.9060 H   0  0  0  0  0  0
  -19.7965  -30.7268   24.2172 H   0  0  0  0  0  0
  -17.5046  -31.6274   24.5103 H   0  0  0  0  0  0
  -15.5360  -30.2939   23.7745 H   0  0  0  0  0  0
  -15.8686  -28.0798   22.7122 H   0  0  0  0  0  0
  -24.5855  -30.7124   25.7640 H   0  0  0  0  0  0
  -24.8828  -32.2985   26.4623 H   0  0  0  0  0  0
  -25.7886  -30.9038   27.0207 H   0  0  0  0  0  0
  -26.3058  -29.6613   24.1291 H   0  0  0  0  0  0
  -27.3988  -29.7278   25.4936 H   0  0  0  0  0  0
  -27.8971  -30.4180   23.9674 H   0  0  0  0  0  0
  -27.2690  -33.3661   26.1911 H   0  0  0  0  0  0
  -28.3920  -32.6723   25.0301 H   0  0  0  0  0  0
  -28.0627  -31.8470   26.5469 H   0  0  0  0  0  0
  -28.2563  -38.0067   24.7564 H   0  0  0  0  0  0
  -28.1096  -36.2621   24.6263 H   0  0  0  0  0  0
  -27.2302  -37.1334   25.8866 H   0  0  0  0  0  0
  -20.9468  -29.8667   21.6763 H   0  0  0  0  0  0
  -26.0162  -38.2792   24.1456 H   0  0  0  0  0  0
  -28.6271  -20.5922   23.0401 H   0  0  0  0  0  0
  -27.1236  -24.4740   21.0282 H   0  0  0  0  0  0
  -28.6150  -15.5719   23.2948 H   0  0  0  0  0  0
  -29.8467  -16.2826   24.3190 H   0  0  0  0  0  0
  -30.3404  -15.5442   22.8660 H   0  0  0  0  0  0
  -30.0149  -24.3907   18.7137 H   0  0  0  0  0  0
  -29.9115  -22.6524   18.4386 H   0  0  0  0  0  0
  -30.8573  -23.2731   19.7940 H   0  0  0  0  0  0
  -28.1948  -19.4578   25.0730 H   0  0  0  0  0  0
  -29.5368  -18.3381   25.3463 H   0  0  0  0  0  0
  -27.9162  -17.7163   24.9564 H   0  0  0  0  0  0
  -30.1181  -16.9524   19.2760 H   0  0  0  0  0  0
  -28.6729  -16.2392   19.8734 H   0  0  0  0  0  0
  -29.7874  -20.7235   19.6487 H   0  0  0  0  0  0
  1 25  1  0  0  0
  1 30  2  0  0  0
  1 81  1  0  0  0
  2  3  1  0  0  0
  2 25  1  0  0  0
  2 85  1  0  0  0
  2 86  1  0  0  0
  3  4  1  0  0  0
  3 87  1  0  0  0
  3 88  1  0  0  0
  4  5  1  0  0  0
  4 89  1  0  0  0
  4 90  1  0  0  0
  5  6  1  0  0  0
  5 26  1  0  0  0
  5 91  1  0  0  0
  6 25  1  0  0  0
  6 92  1  0  0  0
  6 93  1  0  0  0
  7  8  2  0  0  0
  7 26  1  0  0  0
  7 29  1  0  0  0
  8  9  1  0  0  0
  8 22  1  0  0  0
  9 10  1  0  0  0
  9 27  2  0  0  0
 10 11  2  0  0  0
 10 15  1  0  0  0
 11 12  1  0  0  0
 11 94  1  0  0  0
 12 13  2  0  0  0
 12 95  1  0  0  0
 13 14  1  0  0  0
 13 31  1  0  0  0
 14 15  2  0  0  0
 14 96  1  0  0  0
 15 97  1  0  0  0
 16 17  2  0  0  0
 16 21  1  0  0  0
 16 31  1  0  0  0
 17 18  1  0  0  0
 17 98  1  0  0  0
 18 19  2  0  0  0
 18 99  1  0  0  0
 19 20  1  0  0  0
 19 24  1  0  0  0
 20 21  2  0  0  0
 20100  1  0  0  0
 21 23  1  0  0  0
 22 28  1  0  0  0
 22 32  2  0  0  0
 26 27  1  0  0  0
 28101  1  0  0  0
 28102  1  0  0  0
 29103  1  0  0  0
 29104  1  0  0  0
 33 34  1  0  0  0
 33 66  1  0  0  0
 33 70  2  0  0  0
 34 36  1  0  0  0
 34 59  1  0  0  0
 34105  1  0  0  0
 35 44  2  0  0  0
 35 45  1  0  0  0
 35 68  1  0  0  0
 36 56  1  0  0  0
 36106  1  0  0  0
 37 39  1  0  0  0
 37 47  1  0  0  0
 37 66  1  0  0  0
 37107  1  0  0  0
 38 43  2  0  0  0
 38 46  1  0  0  0
 38 47  1  0  0  0
 39 64  1  0  0  0
 39 67  2  0  0  0
 40 52  1  0  0  0
 40 53  2  0  0  0
 40 58  1  0  0  0
 41108  1  0  0  0
 41109  1  0  0  0
 41110  1  0  0  0
 41 48  1  0  0  0
 42 43  1  0  0  0
 42 66  1  0  0  0
 42111  1  0  0  0
 42112  1  0  0  0
 43 44  1  0  0  0
 44113  1  0  0  0
 45 46  2  0  0  0
 45114  1  0  0  0
 46115  1  0  0  0
 47116  1  0  0  0
 47117  1  0  0  0
 48 56  1  0  0  0
 48 65  1  0  0  0
 48118  1  0  0  0
 49 50  1  0  0  0
 49 53  1  0  0  0
 49 64  1  0  0  0
 49119  1  0  0  0
 50 51  1  0  0  0
 50120  1  0  0  0
 50121  1  0  0  0
 51 52  1  0  0  0
 51122  1  0  0  0
 51123  1  0  0  0
 52124  1  0  0  0
 52125  1  0  0  0
 53 54  1  0  0  0
 54 55  2  0  0  0
 54126  1  0  0  0
 55 57  1  0  0  0
 55127  1  0  0  0
 56 69  2  0  0  0
 57 58  2  0  0  0
 57128  1  0  0  0
 58129  1  0  0  0
 59 60  1  0  0  0
 59 61  1  0  0  0
 59 62  1  0  0  0
 60130  1  0  0  0
 60131  1  0  0  0
 60132  1  0  0  0
 61133  1  0  0  0
 61134  1  0  0  0
 61135  1  0  0  0
 62136  1  0  0  0
 62137  1  0  0  0
 62138  1  0  0  0
 63 65  1  0  0  0
 63139  1  0  0  0
 63140  1  0  0  0
 63141  1  0  0  0
 64142  1  0  0  0
 65143  1  0  0  0
 68 75  1  0  0  0
 71 73  2  0  0  0
 71 82  1  0  0  0
 71144  1  0  0  0
 72 73  1  0  0  0
 72 74  2  0  0  0
 72 81  1  0  0  0
 73 83  1  0  0  0
 74 78  1  0  0  0
 74 82  1  0  0  0
 75 76  2  0  0  0
 75145  1  0  0  0
 76 77  1  0  0  0
 76 79  1  0  0  0
 77 83  1  0  0  0
 77 84  2  0  0  0
 78146  1  0  0  0
 78147  1  0  0  0
 78148  1  0  0  0
 79149  1  0  0  0
 79150  1  0  0  0
 79151  1  0  0  0
 80 82  1  0  0  0
 80152  1  0  0  0
 80153  1  0  0  0
 80154  1  0  0  0
 81155  1  0  0  0
 81156  1  0  0  0
 83157  1  0  0  0
M  ISO  4   1 100  68 101  75 101  81 100
M  END
> <chiral flag>
0

> <version>
0

> <s_m_source_file>
/data/baiqing/PycharmProjects/Reinvent-master-3.2/result/LINK_invent/BTK/process_docking_weight1_custom_product_contain_oxygen_bond_distance_aromatic_linkinvent_7_9_3/rearranged_h_0113.sdf

> <i_m_source_file_index>
37

> <r_mmod_Potential_Energy-OPLS-2005>
793.257019042969

> <r_mmod_Stretch_Energy-OPLS-2005>
365.130096435547

> <r_mmod_Bend_Energy-OPLS-2005>
361.168731689453

> <r_mmod_Torsional_Energy-OPLS-2005>
236.111175537109

> <r_mmod_Improper_Torsional_Energy-OPLS-2005>
11.7931537628174

> <r_mmod_Van_der_Waal_Energy-OPLS-2005>
124.565788269043

> <r_mmod_Electrostatic_Energy-OPLS-2005>
-358.030303955078

> <r_mmod_Solvation_Energy-OPLS-2005>
-214.998062133789

> <b_mmod_Minimization_Converged-OPLS-2005>
0

> <r_mmod_RMS_Derivative-OPLS-2005>
5.58510208129883

$$$$
37
                    3D
 Structure written by MMmdl.
160168  0  0  1  0            999 V2000
  -30.6299  -14.7242   20.3458 C   0  0  0  0  0  0
  -30.4431  -12.4095   19.4550 C   0  0  0  0  0  0
  -29.4899  -12.3486   18.2379 C   0  0  0  0  0  0
  -28.0127  -12.2648   18.6649 C   0  0  0  0  0  0
  -27.6356  -13.2028   19.8430 C   0  0  2  0  0  0
  -28.7024  -13.1781   20.9573 C   0  0  0  0  0  0
  -25.2551  -13.8151   20.5786 C   0  0  0  0  0  0
  -24.1798  -13.0432   20.9243 C   0  0  0  0  0  0
  -24.6349  -11.6900   20.8825 C   0  0  0  0  0  0
  -23.9024  -10.4289   21.0466 C   0  0  0  0  0  0
  -24.3592   -9.4190   21.9215 C   0  0  0  0  0  0
  -23.6270   -8.2221   22.0759 C   0  0  0  0  0  0
  -22.4253   -8.0280   21.3549 C   0  0  0  0  0  0
  -21.9891   -9.0255   20.4652 C   0  0  0  0  0  0
  -22.7218  -10.2140   20.3088 C   0  0  0  0  0  0
  -21.6841   -6.0736   22.5281 C   0  0  0  0  0  0
  -21.4008   -6.5643   23.8218 C   0  0  0  0  0  0
  -21.3652   -5.6791   24.9181 C   0  0  0  0  0  0
  -21.6039   -4.3055   24.7226 C   0  0  0  0  0  0
  -21.8819   -3.8145   23.4345 C   0  0  0  0  0  0
  -21.9189   -4.6966   22.3402 C   0  0  0  0  0  0
  -22.7824  -13.5237   21.1862 C   0  0  0  0  0  0
  -22.1661   -4.2153   21.0980 F   0  0  0  0  0  0
  -21.5620   -3.4533   25.7734 F   0  0  0  0  0  0
  -29.9917  -13.5049   20.3344 N   0  0  0  0  0  0
  -26.2937  -12.9285   20.3407 N   0  0  0  0  0  0
  -25.9275  -11.6467   20.5905 N   0  0  0  0  0  0
  -22.0446  -12.8256   22.0423 N   0  0  0  0  0  0
  -25.4307  -15.1871   20.4203 N   0  0  0  0  0  0
  -31.8596  -14.7808   20.2938 O   0  0  0  0  0  0
  -21.6617   -6.8880   21.4243 O   0  0  0  0  0  0
  -22.3533  -14.5541   20.6685 O   0  0  0  0  0  0
  -24.6244  -31.8598   23.2029 C   0  0  0  0  0  0
  -25.9091  -32.4787   23.8355 C   0  0  1  0  0  0
  -27.2230  -27.3201   20.1324 C   0  0  0  0  0  0
  -25.5900  -33.8583   24.2281 N   0  0  0  0  0  0
  -23.4182  -30.4834   21.5441 C   0  0  2  0  0  0
  -24.8657  -28.9384   20.1092 C   0  0  0  0  0  0
  -22.7462  -29.4625   22.4926 C   0  0  0  0  0  0
  -18.0280  -28.1379   22.8477 C   0  0  0  0  0  0
  -24.1480  -36.7307   23.2640 C   0  0  0  0  0  0
  -25.9571  -30.7936   21.3714 C   0  0  0  0  0  0
  -26.0316  -29.4192   20.7184 C   0  0  0  0  0  0
  -27.2123  -28.6208   20.7202 C   0  0  0  0  0  0
  -26.0399  -26.8976   19.4815 C   0  0  0  0  0  0
  -24.8719  -27.6839   19.4799 C   0  0  0  0  0  0
  -23.6330  -29.8175   20.1588 C   0  0  0  0  0  0
  -25.4102  -36.3091   24.0333 C   0  0  1  0  0  0
  -20.5878  -28.3687   23.1272 C   0  0  2  0  0  0
  -20.6765  -26.9410   22.5401 C   0  0  0  0  0  0
  -19.5749  -26.6380   21.5195 C   0  0  0  0  0  0
  -18.1931  -26.7921   22.1615 C   0  0  0  0  0  0
  -19.1531  -28.8847   23.2872 C   0  0  0  0  0  0
  -18.9462  -30.1442   23.8907 C   0  0  0  0  0  0
  -17.6466  -30.6589   24.0555 C   0  0  0  0  0  0
  -25.9042  -34.9459   23.5113 C   0  0  0  0  0  0
  -16.5355  -29.9094   23.6318 C   0  0  0  0  0  0
  -16.7268  -28.6502   23.0355 C   0  0  0  0  0  0
  -26.4479  -31.6597   25.0727 C   0  0  0  0  0  0
  -25.3719  -31.3738   26.1467 C   0  0  0  0  0  0
  -27.0312  -30.3024   24.6162 C   0  0  0  0  0  0
  -27.6038  -32.4329   25.7499 C   0  0  0  0  0  0
  -27.5573  -37.1809   24.8462 C   0  0  0  0  0  0
  -21.4176  -29.3048   22.3672 N   0  0  0  0  0  0
  -26.4281  -37.3783   23.9415 N   0  0  0  0  0  0
  -24.6856  -31.0613   22.0974 N   0  0  0  0  0  0
  -23.4182  -28.8159   23.3002 O   0  0  0  0  0  0
  -28.3399  -26.4747   20.2227 O   0  0  0  0  0  0
  -26.5615  -34.8921   22.4686 O   0  0  0  0  0  0
  -23.5411  -32.1382   23.7366 O   0  0  0  0  0  0
  -29.4994  -19.1115   21.8822 C   0  0  0  0  0  0
  -30.0778  -18.2814   19.3217 C   0  0  0  0  0  0
  -29.6394  -17.7067   21.6075 C   0  0  0  0  0  0
  -29.6082  -20.1341   20.8919 C   0  0  0  0  0  0
  -29.9172  -17.2339   20.2898 C   0  0  0  0  0  0
  -29.9308  -19.6649   19.5940 C   0  0  0  0  0  0
  -30.3908  -15.5562   17.4660 C   0  0  0  0  0  0
  -29.5366  -15.7196   18.4966 C   0  0  0  0  0  0
  -29.1026  -22.4926   20.4698 C   0  0  0  0  0  0
  -29.4374  -16.7248   22.7485 C   0  0  0  0  0  0
  -29.9642  -15.5000   16.0162 C   0  0  0  0  0  0
  -29.1645  -24.0337   20.8051 C   0  0  0  0  0  0
  -28.1516  -25.0119   20.0680 C   0  0  0  0  0  0
  -29.4943  -21.5276   21.2535 N   0  0  0  0  0  0
  -29.9008  -15.8078   19.8553 N   0  0  0  0  0  0
  -30.1260  -20.5410   18.5784 F   0  0  0  0  0  0
  -31.4702  -12.5562   19.1153 H   0  0  0  0  0  0
  -30.4360  -11.4644   19.9987 H   0  0  0  0  0  0
  -29.7367  -11.4776   17.6291 H   0  0  0  0  0  0
  -29.6285  -13.1875   17.5719 H   0  0  0  0  0  0
  -27.8397  -11.2298   18.9581 H   0  0  0  0  0  0
  -27.3582  -12.4433   17.8109 H   0  0  0  0  0  0
  -27.6008  -14.2065   19.4355 H   0  0  0  0  0  0
  -28.7454  -12.1974   21.4327 H   0  0  0  0  0  0
  -28.4604  -13.8953   21.7420 H   0  0  0  0  0  0
  -25.2746   -9.5641   22.4782 H   0  0  0  0  0  0
  -23.9985   -7.4598   22.7455 H   0  0  0  0  0  0
  -21.0834   -8.8766   19.8953 H   0  0  0  0  0  0
  -22.3684  -10.9681   19.6192 H   0  0  0  0  0  0
  -21.2009   -7.6150   23.9726 H   0  0  0  0  0  0
  -21.1470   -6.0522   25.9085 H   0  0  0  0  0  0
  -22.0605   -2.7609   23.2840 H   0  0  0  0  0  0
  -22.4038  -11.9930   22.4850 H   0  0  0  0  0  0
  -21.1056  -13.1299   22.2588 H   0  0  0  0  0  0
  -24.6722  -15.8488   20.5441 H   0  0  0  0  0  0
  -26.3021  -15.6290   20.1579 H   0  0  0  0  0  0
  -26.7160  -32.5463   23.1106 H   0  0  0  0  0  0
  -25.0021  -33.9719   25.0407 H   0  0  0  0  0  0
  -22.7123  -31.3043   21.4018 H   0  0  0  0  0  0
  -23.3733  -35.9651   23.3304 H   0  0  0  0  0  0
  -24.3567  -36.8925   22.2056 H   0  0  0  0  0  0
  -23.7242  -37.6515   23.6656 H   0  0  0  0  0  0
  -26.0802  -31.5531   20.5976 H   0  0  0  0  0  0
  -26.8413  -30.8497   21.9945 H   0  0  0  0  0  0
  -28.1052  -28.9807   21.2121 H   0  0  0  0  0  0
  -25.9908  -25.9431   18.9782 H   0  0  0  0  0  0
  -23.9801  -27.3146   18.9917 H   0  0  0  0  0  0
  -23.7525  -30.5945   19.4028 H   0  0  0  0  0  0
  -22.7528  -29.2471   19.8568 H   0  0  0  0  0  0
  -25.1278  -36.1945   25.0822 H   0  0  0  0  0  0
  -20.9964  -28.3268   24.1394 H   0  0  0  0  0  0
  -20.5629  -26.2310   23.3605 H   0  0  0  0  0  0
  -21.6645  -26.7425   22.1222 H   0  0  0  0  0  0
  -19.6917  -25.6285   21.1243 H   0  0  0  0  0  0
  -19.6689  -27.3170   20.6706 H   0  0  0  0  0  0
  -17.4189  -26.6636   21.4035 H   0  0  0  0  0  0
  -18.0363  -26.0066   22.9017 H   0  0  0  0  0  0
  -19.7943  -30.7240   24.2299 H   0  0  0  0  0  0
  -17.5032  -31.6271   24.5154 H   0  0  0  0  0  0
  -15.5361  -30.3015   23.7630 H   0  0  0  0  0  0
  -15.8662  -28.0820   22.7096 H   0  0  0  0  0  0
  -24.5885  -30.7089   25.7813 H   0  0  0  0  0  0
  -24.8921  -32.2911   26.4894 H   0  0  0  0  0  0
  -25.8054  -30.8924   27.0243 H   0  0  0  0  0  0
  -26.2883  -29.6798   24.1166 H   0  0  0  0  0  0
  -27.3998  -29.7252   25.4651 H   0  0  0  0  0  0
  -27.8753  -30.4319   23.9385 H   0  0  0  0  0  0
  -27.2643  -33.3623   26.2079 H   0  0  0  0  0  0
  -28.3850  -32.6898   25.0336 H   0  0  0  0  0  0
  -28.0701  -31.8456   26.5419 H   0  0  0  0  0  0
  -28.2597  -38.0102   24.7499 H   0  0  0  0  0  0
  -28.1062  -36.2631   24.6291 H   0  0  0  0  0  0
  -27.2293  -37.1468   25.8867 H   0  0  0  0  0  0
  -20.9345  -29.8799   21.6913 H   0  0  0  0  0  0
  -26.0165  -38.2860   24.1414 H   0  0  0  0  0  0
  -29.2896  -19.4173   22.8971 H   0  0  0  0  0  0
  -30.3127  -18.0588   18.2935 H   0  0  0  0  0  0
  -31.4538  -15.4617   17.6437 H   0  0  0  0  0  0
  -28.4747  -15.8396   18.3381 H   0  0  0  0  0  0
  -28.7140  -22.2889   19.4686 H   0  0  0  0  0  0
  -29.2829  -17.2411   23.6962 H   0  0  0  0  0  0
  -30.3077  -16.0796   22.8716 H   0  0  0  0  0  0
  -28.5616  -16.1036   22.5646 H   0  0  0  0  0  0
  -28.8790  -15.5435   15.9186 H   0  0  0  0  0  0
  -30.3071  -14.5726   15.5565 H   0  0  0  0  0  0
  -30.3948  -16.3376   15.4661 H   0  0  0  0  0  0
  -30.1781  -24.3672   20.5839 H   0  0  0  0  0  0
  -29.0438  -24.1526   21.8824 H   0  0  0  0  0  0
  -27.1588  -24.7278   20.4194 H   0  0  0  0  0  0
  -28.1694  -24.7968   18.9993 H   0  0  0  0  0  0
  1 25  1  0  0  0
  1 30  2  0  0  0
  1 85  1  0  0  0
  2  3  1  0  0  0
  2 25  1  0  0  0
  2 87  1  0  0  0
  2 88  1  0  0  0
  3  4  1  0  0  0
  3 89  1  0  0  0
  3 90  1  0  0  0
  4  5  1  0  0  0
  4 91  1  0  0  0
  4 92  1  0  0  0
  5  6  1  0  0  0
  5 26  1  0  0  0
  5 93  1  0  0  0
  6 25  1  0  0  0
  6 94  1  0  0  0
  6 95  1  0  0  0
  7  8  2  0  0  0
  7 26  1  0  0  0
  7 29  1  0  0  0
  8  9  1  0  0  0
  8 22  1  0  0  0
  9 10  1  0  0  0
  9 27  2  0  0  0
 10 11  2  0  0  0
 10 15  1  0  0  0
 11 12  1  0  0  0
 11 96  1  0  0  0
 12 13  2  0  0  0
 12 97  1  0  0  0
 13 14  1  0  0  0
 13 31  1  0  0  0
 14 15  2  0  0  0
 14 98  1  0  0  0
 15 99  1  0  0  0
 16 17  2  0  0  0
 16 21  1  0  0  0
 16 31  1  0  0  0
 17 18  1  0  0  0
 17100  1  0  0  0
 18 19  2  0  0  0
 18101  1  0  0  0
 19 20  1  0  0  0
 19 24  1  0  0  0
 20 21  2  0  0  0
 20102  1  0  0  0
 21 23  1  0  0  0
 22 28  1  0  0  0
 22 32  2  0  0  0
 26 27  1  0  0  0
 28103  1  0  0  0
 28104  1  0  0  0
 29105  1  0  0  0
 29106  1  0  0  0
 33 34  1  0  0  0
 33 66  1  0  0  0
 33 70  2  0  0  0
 34 36  1  0  0  0
 34 59  1  0  0  0
 34107  1  0  0  0
 35 44  2  0  0  0
 35 45  1  0  0  0
 35 68  1  0  0  0
 36 56  1  0  0  0
 36108  1  0  0  0
 37 39  1  0  0  0
 37 47  1  0  0  0
 37 66  1  0  0  0
 37109  1  0  0  0
 38 43  2  0  0  0
 38 46  1  0  0  0
 38 47  1  0  0  0
 39 64  1  0  0  0
 39 67  2  0  0  0
 40 52  1  0  0  0
 40 53  2  0  0  0
 40 58  1  0  0  0
 41110  1  0  0  0
 41111  1  0  0  0
 41112  1  0  0  0
 41 48  1  0  0  0
 42 43  1  0  0  0
 42 66  1  0  0  0
 42113  1  0  0  0
 42114  1  0  0  0
 43 44  1  0  0  0
 44115  1  0  0  0
 45 46  2  0  0  0
 45116  1  0  0  0
 46117  1  0  0  0
 47118  1  0  0  0
 47119  1  0  0  0
 48 56  1  0  0  0
 48 65  1  0  0  0
 48120  1  0  0  0
 49 50  1  0  0  0
 49 53  1  0  0  0
 49 64  1  0  0  0
 49121  1  0  0  0
 50 51  1  0  0  0
 50122  1  0  0  0
 50123  1  0  0  0
 51 52  1  0  0  0
 51124  1  0  0  0
 51125  1  0  0  0
 52126  1  0  0  0
 52127  1  0  0  0
 53 54  1  0  0  0
 54 55  2  0  0  0
 54128  1  0  0  0
 55 57  1  0  0  0
 55129  1  0  0  0
 56 69  2  0  0  0
 57 58  2  0  0  0
 57130  1  0  0  0
 58131  1  0  0  0
 59 60  1  0  0  0
 59 61  1  0  0  0
 59 62  1  0  0  0
 60132  1  0  0  0
 60133  1  0  0  0
 60134  1  0  0  0
 61135  1  0  0  0
 61136  1  0  0  0
 61137  1  0  0  0
 62138  1  0  0  0
 62139  1  0  0  0
 62140  1  0  0  0
 63 65  1  0  0  0
 63141  1  0  0  0
 63142  1  0  0  0
 63143  1  0  0  0
 64144  1  0  0  0
 65145  1  0  0  0
 68 83  1  0  0  0
 71 73  2  0  0  0
 71 74  1  0  0  0
 71146  1  0  0  0
 72 75  2  0  0  0
 72 76  1  0  0  0
 72147  1  0  0  0
 73 75  1  0  0  0
 73 80  1  0  0  0
 74 76  2  0  0  0
 74 84  1  0  0  0
 75 85  1  0  0  0
 76 86  1  0  0  0
 77 78  2  0  0  0
 77 81  1  0  0  0
 77148  1  0  0  0
 78 85  1  0  0  0
 78149  1  0  0  0
 79 82  1  0  0  0
 79 84  2  0  0  0
 79150  1  0  0  0
 80151  1  0  0  0
 80152  1  0  0  0
 80153  1  0  0  0
 81154  1  0  0  0
 81155  1  0  0  0
 81156  1  0  0  0
 82 83  1  0  0  0
 82157  1  0  0  0
 82158  1  0  0  0
 83159  1  0  0  0
 83160  1  0  0  0
M  ISO  4   1 100  68 101  83 101  85 100
M  END
> <chiral flag>
0

> <version>
0

> <s_m_source_file>
/data/baiqing/PycharmProjects/Reinvent-master-3.2/result/LINK_invent/BTK/process_docking_weight1_custom_product_contain_oxygen_bond_distance_aromatic_linkinvent_7_9_3/rearranged_h_0113.sdf

> <i_m_source_file_index>
38

> <r_mmod_Potential_Energy-OPLS-2005>
355.22509765625

> <r_mmod_Stretch_Energy-OPLS-2005>
93.4368515014648

> <r_mmod_Bend_Energy-OPLS-2005>
152.117828369141

> <r_mmod_Torsional_Energy-OPLS-2005>
351.014923095703

> <r_mmod_Improper_Torsional_Energy-OPLS-2005>
21.2555522918701

> <r_mmod_Van_der_Waal_Energy-OPLS-2005>
163.755844116211

> <r_mmod_Electrostatic_Energy-OPLS-2005>
-317.878021240234

> <r_mmod_Solvation_Energy-OPLS-2005>
-192.6337890625

> <b_mmod_Minimization_Converged-OPLS-2005>
0

> <r_mmod_RMS_Derivative-OPLS-2005>
1.79733097553253

$$$$
38
                    3D
 Structure written by MMmdl.
149157  0  0  1  0            999 V2000
  -30.4290  -15.4297   20.3955 C   0  0  0  0  0  0
  -30.4148  -12.9519   19.5212 C   0  0  0  0  0  0
  -29.5300  -12.6219   18.2924 C   0  0  0  0  0  0
  -28.0920  -12.3082   18.7341 C   0  0  0  0  0  0
  -27.5936  -13.3006   19.8129 C   0  0  2  0  0  0
  -28.6192  -13.5757   20.9336 C   0  0  0  0  0  0
  -25.2307  -13.8283   20.5811 C   0  0  0  0  0  0
  -24.1672  -13.0432   20.9252 C   0  0  0  0  0  0
  -24.6372  -11.6952   20.8721 C   0  0  0  0  0  0
  -23.9099  -10.4306   21.0368 C   0  0  0  0  0  0
  -24.3655   -9.4221   21.9145 C   0  0  0  0  0  0
  -23.6319   -8.2250   22.0735 C   0  0  0  0  0  0
  -22.4314   -8.0277   21.3498 C   0  0  0  0  0  0
  -21.9981   -9.0218   20.4540 C   0  0  0  0  0  0
  -22.7287  -10.2126   20.2982 C   0  0  0  0  0  0
  -21.6860   -6.0744   22.5262 C   0  0  0  0  0  0
  -21.4014   -6.5655   23.8195 C   0  0  0  0  0  0
  -21.3628   -5.6811   24.9159 C   0  0  0  0  0  0
  -21.6048   -4.3080   24.7224 C   0  0  0  0  0  0
  -21.8821   -3.8161   23.4340 C   0  0  0  0  0  0
  -21.9198   -4.6977   22.3392 C   0  0  0  0  0  0
  -22.7675  -13.5154   21.1946 C   0  0  0  0  0  0
  -22.1663   -4.2152   21.0974 F   0  0  0  0  0  0
  -21.5651   -3.4552   25.7723 F   0  0  0  0  0  0
  -29.8172  -14.1312   20.2780 N   0  0  0  0  0  0
  -26.2743  -12.9596   20.3229 N   0  0  0  0  0  0
  -25.9321  -11.6681   20.5679 N   0  0  0  0  0  0
  -22.0359  -12.8108   22.0508 N   0  0  0  0  0  0
  -25.3960  -15.2023   20.4376 N   0  0  0  0  0  0
  -31.6531  -15.3178   20.2194 O   0  0  0  0  0  0
  -21.6681   -6.8871   21.4212 O   0  0  0  0  0  0
  -22.3359  -14.5451   20.6786 O   0  0  0  0  0  0
  -24.6727  -31.8145   23.1637 C   0  0  0  0  0  0
  -25.9381  -32.4541   23.8122 C   0  0  1  0  0  0
  -27.2082  -26.8237   20.2176 C   0  0  0  0  0  0
  -25.6014  -33.8361   24.2012 N   0  0  0  0  0  0
  -23.4893  -30.4243   21.5165 C   0  0  2  0  0  0
  -24.9403  -28.7862   20.1225 C   0  0  0  0  0  0
  -22.7704  -29.4405   22.4772 C   0  0  0  0  0  0
  -18.0326  -28.1420   22.8449 C   0  0  0  0  0  0
  -24.1492  -36.7197   23.2645 C   0  0  0  0  0  0
  -26.0637  -30.5879   21.4076 C   0  0  0  0  0  0
  -26.1268  -29.1631   20.7647 C   0  0  0  0  0  0
  -27.2550  -28.2090   20.7789 C   0  0  0  0  0  0
  -25.9906  -26.6219   19.5275 C   0  0  0  0  0  0
  -24.9038  -27.5372   19.4811 C   0  0  0  0  0  0
  -23.7337  -29.7300   20.1474 C   0  0  0  0  0  0
  -25.4137  -36.2932   24.0277 C   0  0  1  0  0  0
  -20.5956  -28.3776   23.1171 C   0  0  2  0  0  0
  -20.6804  -26.9449   22.5401 C   0  0  0  0  0  0
  -19.5778  -26.6378   21.5214 C   0  0  0  0  0  0
  -18.1960  -26.7950   22.1613 C   0  0  0  0  0  0
  -19.1588  -28.8920   23.2793 C   0  0  0  0  0  0
  -18.9500  -30.1512   23.8830 C   0  0  0  0  0  0
  -17.6491  -30.6608   24.0557 C   0  0  0  0  0  0
  -25.9115  -34.9323   23.4961 C   0  0  0  0  0  0
  -16.5383  -29.9092   23.6349 C   0  0  0  0  0  0
  -16.7308  -28.6515   23.0360 C   0  0  0  0  0  0
  -26.4587  -31.6534   25.0704 C   0  0  0  0  0  0
  -25.3676  -31.3848   26.1342 C   0  0  0  0  0  0
  -27.0492  -30.2882   24.6506 C   0  0  0  0  0  0
  -27.6034  -32.4379   25.7545 C   0  0  0  0  0  0
  -27.5558  -37.1756   24.8455 C   0  0  0  0  0  0
  -21.4367  -29.3051   22.3515 N   0  0  0  0  0  0
  -26.4262  -37.3685   23.9403 N   0  0  0  0  0  0
  -24.7646  -30.9721   22.0822 N   0  0  0  0  0  0
  -23.4211  -28.7989   23.3055 O   0  0  0  0  0  0
  -28.2157  -25.6921   20.1638 O   0  0  0  0  0  0
  -26.5728  -34.8872   22.4559 O   0  0  0  0  0  0
  -23.5781  -32.1165   23.6685 O   0  0  0  0  0  0
  -27.2817  -19.0169   17.7190 C   0  0  0  0  0  0
  -28.5459  -17.2560   18.7119 C   0  0  0  0  0  0
  -28.6538  -19.6290   19.7641 C   0  0  0  0  0  0
  -27.6939  -19.9217   18.7056 C   0  0  0  0  0  0
  -29.0614  -18.0302   19.7877 C   0  0  0  0  0  0
  -27.7119  -17.7079   17.7030 C   0  0  0  0  0  0
  -28.6679  -22.8598   20.0605 C   0  0  0  0  0  0
  -28.1617  -24.1784   20.5775 C   0  0  0  0  0  0
  -28.8662  -21.1855   20.5760 C   0  0  0  0  0  0
  -26.9730  -21.1170   18.5448 N   0  0  0  0  0  0
  -29.8509  -16.8332   20.5992 N   0  0  0  0  0  0
  -29.2544  -21.0730   21.7425 O   0  0  0  0  0  0
  -27.1544  -16.6250   16.4782 Cl  0  0  0  0  0  0
  -31.4258  -13.1651   19.1733 H   0  0  0  0  0  0
  -30.5212  -12.0814   20.1686 H   0  0  0  0  0  0
  -29.9425  -11.7840   17.7274 H   0  0  0  0  0  0
  -29.5259  -13.4801   17.6175 H   0  0  0  0  0  0
  -28.0788  -11.2952   19.1368 H   0  0  0  0  0  0
  -27.4178  -12.3125   17.8758 H   0  0  0  0  0  0
  -27.4722  -14.2422   19.2757 H   0  0  0  0  0  0
  -28.8354  -12.6804   21.5190 H   0  0  0  0  0  0
  -28.2221  -14.3157   21.6313 H   0  0  0  0  0  0
  -25.2766   -9.5743   22.4758 H   0  0  0  0  0  0
  -24.0010   -7.4681   22.7498 H   0  0  0  0  0  0
  -21.0988   -8.8643   19.8763 H   0  0  0  0  0  0
  -22.3754  -10.9652   19.6069 H   0  0  0  0  0  0
  -21.2003   -7.6169   23.9694 H   0  0  0  0  0  0
  -21.1443   -6.0552   25.9067 H   0  0  0  0  0  0
  -22.0619   -2.7624   23.2829 H   0  0  0  0  0  0
  -22.3957  -11.9740   22.4889 H   0  0  0  0  0  0
  -21.0957  -13.1123   22.2688 H   0  0  0  0  0  0
  -24.6337  -15.8566   20.5779 H   0  0  0  0  0  0
  -26.2608  -15.6507   20.1693 H   0  0  0  0  0  0
  -26.7456  -32.5035   23.0831 H   0  0  0  0  0  0
  -25.0111  -33.9422   25.0130 H   0  0  0  0  0  0
  -22.8062  -31.2585   21.3395 H   0  0  0  0  0  0
  -23.3752  -35.9527   23.3261 H   0  0  0  0  0  0
  -24.3558  -36.8905   22.2066 H   0  0  0  0  0  0
  -23.7256  -37.6368   23.6751 H   0  0  0  0  0  0
  -26.2467  -31.3145   20.6153 H   0  0  0  0  0  0
  -26.9238  -30.6581   22.0611 H   0  0  0  0  0  0
  -28.1628  -28.5102   21.2817 H   0  0  0  0  0  0
  -25.8551  -25.6732   19.0274 H   0  0  0  0  0  0
  -24.0069  -27.2441   18.9528 H   0  0  0  0  0  0
  -23.9004  -30.4939   19.3875 H   0  0  0  0  0  0
  -22.8378  -29.1939   19.8283 H   0  0  0  0  0  0
  -25.1340  -36.1694   25.0764 H   0  0  0  0  0  0
  -21.0028  -28.3395   24.1303 H   0  0  0  0  0  0
  -20.5685  -26.2402   23.3656 H   0  0  0  0  0  0
  -21.6672  -26.7420   22.1219 H   0  0  0  0  0  0
  -19.6950  -25.6269   21.1301 H   0  0  0  0  0  0
  -19.6736  -27.3141   20.6706 H   0  0  0  0  0  0
  -17.4240  -26.6691   21.4015 H   0  0  0  0  0  0
  -18.0355  -26.0112   22.9021 H   0  0  0  0  0  0
  -19.7982  -30.7343   24.2169 H   0  0  0  0  0  0
  -17.5052  -31.6280   24.5176 H   0  0  0  0  0  0
  -15.5385  -30.2979   23.7721 H   0  0  0  0  0  0
  -15.8706  -28.0824   22.7107 H   0  0  0  0  0  0
  -24.5868  -30.7178   25.7673 H   0  0  0  0  0  0
  -24.8863  -32.3080   26.4574 H   0  0  0  0  0  0
  -25.7881  -30.9156   27.0243 H   0  0  0  0  0  0
  -26.3179  -29.6541   24.1480 H   0  0  0  0  0  0
  -27.3944  -29.7277   25.5204 H   0  0  0  0  0  0
  -27.9147  -30.4036   23.9979 H   0  0  0  0  0  0
  -27.2547  -33.3719   26.1959 H   0  0  0  0  0  0
  -28.3948  -32.6878   25.0473 H   0  0  0  0  0  0
  -28.0577  -31.8622   26.5615 H   0  0  0  0  0  0
  -28.2540  -38.0084   24.7497 H   0  0  0  0  0  0
  -28.1087  -36.2605   24.6278 H   0  0  0  0  0  0
  -27.2276  -37.1391   25.8858 H   0  0  0  0  0  0
  -20.9649  -29.8718   21.6607 H   0  0  0  0  0  0
  -26.0090  -38.2728   24.1428 H   0  0  0  0  0  0
  -26.5843  -19.3126   16.9481 H   0  0  0  0  0  0
  -28.7593  -16.2049   18.6134 H   0  0  0  0  0  0
  -29.0836  -22.9672   19.0711 H   0  0  0  0  0  0
  -27.6892  -24.1410   21.5479 H   0  0  0  0  0  0
  -26.7963  -21.7149   19.3464 H   0  0  0  0  0  0
  -26.1773  -21.1069   17.9135 H   0  0  0  0  0  0
  -30.4691  -17.2726   21.2672 H   0  0  0  0  0  0
  1 25  1  0  0  0
  1 30  2  0  0  0
  1 81  1  0  0  0
  2  3  1  0  0  0
  2 25  1  0  0  0
  2 84  1  0  0  0
  2 85  1  0  0  0
  3  4  1  0  0  0
  3 86  1  0  0  0
  3 87  1  0  0  0
  4  5  1  0  0  0
  4 88  1  0  0  0
  4 89  1  0  0  0
  5  6  1  0  0  0
  5 26  1  0  0  0
  5 90  1  0  0  0
  6 25  1  0  0  0
  6 91  1  0  0  0
  6 92  1  0  0  0
  7  8  2  0  0  0
  7 26  1  0  0  0
  7 29  1  0  0  0
  8  9  1  0  0  0
  8 22  1  0  0  0
  9 10  1  0  0  0
  9 27  2  0  0  0
 10 11  2  0  0  0
 10 15  1  0  0  0
 11 12  1  0  0  0
 11 93  1  0  0  0
 12 13  2  0  0  0
 12 94  1  0  0  0
 13 14  1  0  0  0
 13 31  1  0  0  0
 14 15  2  0  0  0
 14 95  1  0  0  0
 15 96  1  0  0  0
 16 17  2  0  0  0
 16 21  1  0  0  0
 16 31  1  0  0  0
 17 18  1  0  0  0
 17 97  1  0  0  0
 18 19  2  0  0  0
 18 98  1  0  0  0
 19 20  1  0  0  0
 19 24  1  0  0  0
 20 21  2  0  0  0
 20 99  1  0  0  0
 21 23  1  0  0  0
 22 28  1  0  0  0
 22 32  2  0  0  0
 26 27  1  0  0  0
 28100  1  0  0  0
 28101  1  0  0  0
 29102  1  0  0  0
 29103  1  0  0  0
 33 34  1  0  0  0
 33 66  1  0  0  0
 33 70  2  0  0  0
 34 36  1  0  0  0
 34 59  1  0  0  0
 34104  1  0  0  0
 35 44  2  0  0  0
 35 45  1  0  0  0
 35 68  1  0  0  0
 36 56  1  0  0  0
 36105  1  0  0  0
 37 39  1  0  0  0
 37 47  1  0  0  0
 37 66  1  0  0  0
 37106  1  0  0  0
 38 43  2  0  0  0
 38 46  1  0  0  0
 38 47  1  0  0  0
 39 64  1  0  0  0
 39 67  2  0  0  0
 40 52  1  0  0  0
 40 53  2  0  0  0
 40 58  1  0  0  0
 41107  1  0  0  0
 41108  1  0  0  0
 41109  1  0  0  0
 41 48  1  0  0  0
 42 43  1  0  0  0
 42 66  1  0  0  0
 42110  1  0  0  0
 42111  1  0  0  0
 43 44  1  0  0  0
 44112  1  0  0  0
 45 46  2  0  0  0
 45113  1  0  0  0
 46114  1  0  0  0
 47115  1  0  0  0
 47116  1  0  0  0
 48 56  1  0  0  0
 48 65  1  0  0  0
 48117  1  0  0  0
 49 50  1  0  0  0
 49 53  1  0  0  0
 49 64  1  0  0  0
 49118  1  0  0  0
 50 51  1  0  0  0
 50119  1  0  0  0
 50120  1  0  0  0
 51 52  1  0  0  0
 51121  1  0  0  0
 51122  1  0  0  0
 52123  1  0  0  0
 52124  1  0  0  0
 53 54  1  0  0  0
 54 55  2  0  0  0
 54125  1  0  0  0
 55 57  1  0  0  0
 55126  1  0  0  0
 56 69  2  0  0  0
 57 58  2  0  0  0
 57127  1  0  0  0
 58128  1  0  0  0
 59 60  1  0  0  0
 59 61  1  0  0  0
 59 62  1  0  0  0
 60129  1  0  0  0
 60130  1  0  0  0
 60131  1  0  0  0
 61132  1  0  0  0
 61133  1  0  0  0
 61134  1  0  0  0
 62135  1  0  0  0
 62136  1  0  0  0
 62137  1  0  0  0
 63 65  1  0  0  0
 63138  1  0  0  0
 63139  1  0  0  0
 63140  1  0  0  0
 64141  1  0  0  0
 65142  1  0  0  0
 68 78  1  0  0  0
 71 74  2  0  0  0
 71 76  1  0  0  0
 71143  1  0  0  0
 72 75  1  0  0  0
 72 76  2  0  0  0
 72144  1  0  0  0
 73 74  1  0  0  0
 73 75  2  0  0  0
 73 79  1  0  0  0
 74 80  1  0  0  0
 75 81  1  0  0  0
 76 83  1  0  0  0
 77 78  2  0  0  0
 77 79  1  0  0  0
 77145  1  0  0  0
 78146  1  0  0  0
 79 82  2  0  0  0
 80147  1  0  0  0
 80148  1  0  0  0
 81149  1  0  0  0
M  ISO  4   1 100  68 101  78 101  81 100
M  END
> <chiral flag>
0

> <version>
0

> <s_m_source_file>
/data/baiqing/PycharmProjects/Reinvent-master-3.2/result/LINK_invent/BTK/process_docking_weight1_custom_product_contain_oxygen_bond_distance_aromatic_linkinvent_7_9_3/rearranged_h_0113.sdf

> <i_m_source_file_index>
39

> <r_mmod_Potential_Energy-OPLS-2005>
2082.66186523438

> <r_mmod_Stretch_Energy-OPLS-2005>
824.094360351562

> <r_mmod_Bend_Energy-OPLS-2005>
620.856689453125

> <r_mmod_Torsional_Energy-OPLS-2005>
282.366851806641

> <r_mmod_Improper_Torsional_Energy-OPLS-2005>
9.49011421203613

> <r_mmod_Van_der_Waal_Energy-OPLS-2005>
145.9677734375

> <r_mmod_Electrostatic_Energy-OPLS-2005>
-209.779846191406

> <r_mmod_Solvation_Energy-OPLS-2005>
-216.981964111328

> <b_mmod_Minimization_Converged-OPLS-2005>
0

> <r_mmod_RMS_Derivative-OPLS-2005>
3.19403600692749

$$$$
39
                    3D
 Structure written by MMmdl.
160168  0  0  1  0            999 V2000
  -30.7287  -14.3962   20.6652 C   0  0  0  0  0  0
  -30.4241  -12.2966   19.3996 C   0  0  0  0  0  0
  -29.4885  -12.5257   18.1956 C   0  0  0  0  0  0
  -28.0114  -12.3819   18.6102 C   0  0  0  0  0  0
  -27.6669  -13.2005   19.8819 C   0  0  2  0  0  0
  -28.7032  -12.9300   20.9947 C   0  0  0  0  0  0
  -25.2596  -13.8152   20.5685 C   0  0  0  0  0  0
  -24.1833  -13.0437   20.9174 C   0  0  0  0  0  0
  -24.6379  -11.6901   20.8720 C   0  0  0  0  0  0
  -23.9042  -10.4292   21.0401 C   0  0  0  0  0  0
  -24.3602   -9.4207   21.9177 C   0  0  0  0  0  0
  -23.6287   -8.2239   22.0745 C   0  0  0  0  0  0
  -22.4265   -8.0278   21.3539 C   0  0  0  0  0  0
  -21.9891   -9.0250   20.4643 C   0  0  0  0  0  0
  -22.7214  -10.2134   20.3053 C   0  0  0  0  0  0
  -21.6850   -6.0736   22.5280 C   0  0  0  0  0  0
  -21.4016   -6.5636   23.8216 C   0  0  0  0  0  0
  -21.3658   -5.6785   24.9174 C   0  0  0  0  0  0
  -21.6046   -4.3053   24.7223 C   0  0  0  0  0  0
  -21.8810   -3.8145   23.4346 C   0  0  0  0  0  0
  -21.9189   -4.6962   22.3404 C   0  0  0  0  0  0
  -22.7856  -13.5242   21.1851 C   0  0  0  0  0  0
  -22.1655   -4.2150   21.0980 F   0  0  0  0  0  0
  -21.5630   -3.4534   25.7737 F   0  0  0  0  0  0
  -30.0471  -13.2374   20.4642 N   0  0  0  0  0  0
  -26.3041  -12.9315   20.3382 N   0  0  0  0  0  0
  -25.9305  -11.6476   20.5748 N   0  0  0  0  0  0
  -22.0486  -12.8252   22.0411 N   0  0  0  0  0  0
  -25.4318  -15.1872   20.4122 N   0  0  0  0  0  0
  -31.7624  -14.6908   20.0537 O   0  0  0  0  0  0
  -21.6630   -6.8878   21.4242 O   0  0  0  0  0  0
  -22.3543  -14.5547   20.6700 O   0  0  0  0  0  0
  -24.6087  -31.8701   23.2119 C   0  0  0  0  0  0
  -25.8992  -32.4836   23.8415 C   0  0  1  0  0  0
  -27.2652  -27.4736   20.0958 C   0  0  0  0  0  0
  -25.5850  -33.8634   24.2332 N   0  0  0  0  0  0
  -23.3979  -30.4919   21.5496 C   0  0  2  0  0  0
  -24.8527  -28.9609   20.1189 C   0  0  0  0  0  0
  -22.7390  -29.4667   22.4991 C   0  0  0  0  0  0
  -18.0270  -28.1380   22.8496 C   0  0  0  0  0  0
  -24.1476  -36.7340   23.2651 C   0  0  0  0  0  0
  -25.9227  -30.8495   21.3608 C   0  0  0  0  0  0
  -26.0078  -29.4858   20.7104 C   0  0  0  0  0  0
  -27.2155  -28.7558   20.6981 C   0  0  0  0  0  0
  -26.0873  -26.9570   19.5165 C   0  0  0  0  0  0
  -24.8858  -27.6913   19.5181 C   0  0  0  0  0  0
  -23.6091  -29.8203   20.1658 C   0  0  0  0  0  0
  -25.4094  -36.3123   24.0349 C   0  0  1  0  0  0
  -20.5859  -28.3657   23.1328 C   0  0  2  0  0  0
  -20.6755  -26.9393   22.5430 C   0  0  0  0  0  0
  -19.5733  -26.6385   21.5220 C   0  0  0  0  0  0
  -18.1914  -26.7931   22.1629 C   0  0  0  0  0  0
  -19.1520  -28.8835   23.2914 C   0  0  0  0  0  0
  -18.9452  -30.1445   23.8921 C   0  0  0  0  0  0
  -17.6456  -30.6586   24.0574 C   0  0  0  0  0  0
  -25.9015  -34.9486   23.5140 C   0  0  0  0  0  0
  -16.5345  -29.9093   23.6327 C   0  0  0  0  0  0
  -16.7265  -28.6513   23.0343 C   0  0  0  0  0  0
  -26.4451  -31.6615   25.0728 C   0  0  0  0  0  0
  -25.3741  -31.3728   26.1497 C   0  0  0  0  0  0
  -27.0297  -30.3064   24.6101 C   0  0  0  0  0  0
  -27.6033  -32.4355   25.7461 C   0  0  0  0  0  0
  -27.5577  -37.1823   24.8466 C   0  0  0  0  0  0
  -21.4124  -29.3026   22.3736 N   0  0  0  0  0  0
  -26.4287  -37.3797   23.9409 N   0  0  0  0  0  0
  -24.6609  -31.0837   22.0998 N   0  0  0  0  0  0
  -23.4182  -28.8209   23.3024 O   0  0  0  0  0  0
  -28.3731  -26.6504   20.0384 O   0  0  0  0  0  0
  -26.5594  -34.8929   22.4715 O   0  0  0  0  0  0
  -23.5284  -32.1428   23.7525 O   0  0  0  0  0  0
  -31.0387  -19.2414   22.5369 C   0  0  0  0  0  0
  -30.9598  -18.2765   23.5579 C   0  0  0  0  0  0
  -30.5871  -17.5162   20.8793 C   0  0  0  0  0  0
  -30.8268  -18.8785   21.1840 C   0  0  0  0  0  0
  -30.6863  -16.9290   23.2510 C   0  0  0  0  0  0
  -30.5229  -16.5396   21.9018 C   0  0  0  0  0  0
  -30.5248  -23.4793   20.5967 C   0  0  0  0  0  0
  -30.6393  -24.7378   20.1211 C   0  0  0  0  0  0
  -30.8854  -19.9055   20.0768 C   0  0  0  0  0  0
  -30.7072  -22.3125   19.7421 C   0  0  0  0  0  0
  -30.5833  -15.9113   24.3747 C   0  0  0  0  0  0
  -30.5041  -25.9832   20.9860 C   0  0  0  0  0  0
  -29.6761  -27.1263   20.3688 C   0  0  0  0  0  0
  -30.2059  -15.1870   21.6138 N   0  0  0  0  0  0
  -30.6860  -21.1785   20.4669 N   0  0  0  0  0  0
  -31.0663  -19.5368   18.9103 O   0  0  0  0  0  0
  -30.8758  -22.3653   18.5178 O   0  0  0  0  0  0
  -31.4667  -12.4098   19.0970 H   0  0  0  0  0  0
  -30.3340  -11.2722   19.7641 H   0  0  0  0  0  0
  -29.7224  -11.8183   17.3999 H   0  0  0  0  0  0
  -29.6581  -13.5196   17.7789 H   0  0  0  0  0  0
  -27.8167  -11.3242   18.7902 H   0  0  0  0  0  0
  -27.3595  -12.6758   17.7870 H   0  0  0  0  0  0
  -27.7278  -14.2559   19.6151 H   0  0  0  0  0  0
  -28.6679  -11.8814   21.2928 H   0  0  0  0  0  0
  -28.4426  -13.4845   21.8961 H   0  0  0  0  0  0
  -25.2749   -9.5696   22.4745 H   0  0  0  0  0  0
  -24.0006   -7.4629   22.7461 H   0  0  0  0  0  0
  -21.0820   -8.8772   19.8954 H   0  0  0  0  0  0
  -22.3669  -10.9677   19.6167 H   0  0  0  0  0  0
  -21.2010   -7.6141   23.9726 H   0  0  0  0  0  0
  -21.1489   -6.0510   25.9079 H   0  0  0  0  0  0
  -22.0593   -2.7610   23.2838 H   0  0  0  0  0  0
  -22.4093  -11.9931   22.4838 H   0  0  0  0  0  0
  -21.1105  -13.1308   22.2607 H   0  0  0  0  0  0
  -24.6691  -15.8460   20.5277 H   0  0  0  0  0  0
  -26.2942  -15.6281   20.1171 H   0  0  0  0  0  0
  -26.7077  -32.5573   23.1203 H   0  0  0  0  0  0
  -24.9950  -33.9802   25.0438 H   0  0  0  0  0  0
  -22.6836  -31.3063   21.4082 H   0  0  0  0  0  0
  -23.3713  -35.9702   23.3333 H   0  0  0  0  0  0
  -24.3568  -36.8924   22.2062 H   0  0  0  0  0  0
  -23.7258  -37.6569   23.6647 H   0  0  0  0  0  0
  -26.0311  -31.6169   20.5931 H   0  0  0  0  0  0
  -26.8101  -30.9058   21.9797 H   0  0  0  0  0  0
  -28.0790  -29.2027   21.1646 H   0  0  0  0  0  0
  -26.1056  -25.9786   19.0584 H   0  0  0  0  0  0
  -23.9991  -27.2741   19.0607 H   0  0  0  0  0  0
  -23.7125  -30.5925   19.4023 H   0  0  0  0  0  0
  -22.7367  -29.2330   19.8722 H   0  0  0  0  0  0
  -25.1268  -36.1997   25.0844 H   0  0  0  0  0  0
  -20.9967  -28.3231   24.1442 H   0  0  0  0  0  0
  -20.5650  -26.2268   23.3620 H   0  0  0  0  0  0
  -21.6629  -26.7431   22.1227 H   0  0  0  0  0  0
  -19.6889  -25.6302   21.1240 H   0  0  0  0  0  0
  -19.6676  -27.3212   20.6761 H   0  0  0  0  0  0
  -17.4186  -26.6699   21.4022 H   0  0  0  0  0  0
  -18.0298  -26.0058   22.9011 H   0  0  0  0  0  0
  -19.7929  -30.7257   24.2295 H   0  0  0  0  0  0
  -17.5013  -31.6266   24.5186 H   0  0  0  0  0  0
  -15.5347  -30.3009   23.7635 H   0  0  0  0  0  0
  -15.8666  -28.0852   22.7026 H   0  0  0  0  0  0
  -24.5857  -30.7143   25.7830 H   0  0  0  0  0  0
  -24.8999  -32.2896   26.5016 H   0  0  0  0  0  0
  -25.8097  -30.8830   27.0213 H   0  0  0  0  0  0
  -26.2842  -29.6796   24.1188 H   0  0  0  0  0  0
  -27.4113  -29.7326   25.4557 H   0  0  0  0  0  0
  -27.8649  -30.4391   23.9222 H   0  0  0  0  0  0
  -27.2633  -33.3619   26.2106 H   0  0  0  0  0  0
  -28.3773  -32.6984   25.0239 H   0  0  0  0  0  0
  -28.0796  -31.8470   26.5312 H   0  0  0  0  0  0
  -28.2615  -38.0099   24.7470 H   0  0  0  0  0  0
  -28.1048  -36.2630   24.6322 H   0  0  0  0  0  0
  -27.2305  -37.1515   25.8875 H   0  0  0  0  0  0
  -20.9283  -29.8753   21.6963 H   0  0  0  0  0  0
  -26.0183  -38.2886   24.1376 H   0  0  0  0  0  0
  -31.2596  -20.2622   22.8157 H   0  0  0  0  0  0
  -31.1065  -18.5795   24.5855 H   0  0  0  0  0  0
  -30.4320  -17.2244   19.8491 H   0  0  0  0  0  0
  -30.3035  -23.3437   21.6455 H   0  0  0  0  0  0
  -30.8636  -24.9066   19.0766 H   0  0  0  0  0  0
  -30.8029  -16.3580   25.3446 H   0  0  0  0  0  0
  -31.2895  -15.0956   24.2163 H   0  0  0  0  0  0
  -29.5779  -15.4912   24.4207 H   0  0  0  0  0  0
  -31.5105  -26.3543   21.1858 H   0  0  0  0  0  0
  -30.0839  -25.7120   21.9548 H   0  0  0  0  0  0
  -30.1563  -27.5038   19.4653 H   0  0  0  0  0  0
  -29.6806  -27.9365   21.0927 H   0  0  0  0  0  0
  -29.4870  -14.7627   22.1802 H   0  0  0  0  0  0
  -30.5265  -21.2877   21.4535 H   0  0  0  0  0  0
  1 25  1  0  0  0
  1 30  2  0  0  0
  1 84  1  0  0  0
  2  3  1  0  0  0
  2 25  1  0  0  0
  2 88  1  0  0  0
  2 89  1  0  0  0
  3  4  1  0  0  0
  3 90  1  0  0  0
  3 91  1  0  0  0
  4  5  1  0  0  0
  4 92  1  0  0  0
  4 93  1  0  0  0
  5  6  1  0  0  0
  5 26  1  0  0  0
  5 94  1  0  0  0
  6 25  1  0  0  0
  6 95  1  0  0  0
  6 96  1  0  0  0
  7  8  2  0  0  0
  7 26  1  0  0  0
  7 29  1  0  0  0
  8  9  1  0  0  0
  8 22  1  0  0  0
  9 10  1  0  0  0
  9 27  2  0  0  0
 10 11  2  0  0  0
 10 15  1  0  0  0
 11 12  1  0  0  0
 11 97  1  0  0  0
 12 13  2  0  0  0
 12 98  1  0  0  0
 13 14  1  0  0  0
 13 31  1  0  0  0
 14 15  2  0  0  0
 14 99  1  0  0  0
 15100  1  0  0  0
 16 17  2  0  0  0
 16 21  1  0  0  0
 16 31  1  0  0  0
 17 18  1  0  0  0
 17101  1  0  0  0
 18 19  2  0  0  0
 18102  1  0  0  0
 19 20  1  0  0  0
 19 24  1  0  0  0
 20 21  2  0  0  0
 20103  1  0  0  0
 21 23  1  0  0  0
 22 28  1  0  0  0
 22 32  2  0  0  0
 26 27  1  0  0  0
 28104  1  0  0  0
 28105  1  0  0  0
 29106  1  0  0  0
 29107  1  0  0  0
 33 34  1  0  0  0
 33 66  1  0  0  0
 33 70  2  0  0  0
 34 36  1  0  0  0
 34 59  1  0  0  0
 34108  1  0  0  0
 35 44  2  0  0  0
 35 45  1  0  0  0
 35 68  1  0  0  0
 36 56  1  0  0  0
 36109  1  0  0  0
 37 39  1  0  0  0
 37 47  1  0  0  0
 37 66  1  0  0  0
 37110  1  0  0  0
 38 43  2  0  0  0
 38 46  1  0  0  0
 38 47  1  0  0  0
 39 64  1  0  0  0
 39 67  2  0  0  0
 40 52  1  0  0  0
 40 53  2  0  0  0
 40 58  1  0  0  0
 41111  1  0  0  0
 41112  1  0  0  0
 41113  1  0  0  0
 41 48  1  0  0  0
 42 43  1  0  0  0
 42 66  1  0  0  0
 42114  1  0  0  0
 42115  1  0  0  0
 43 44  1  0  0  0
 44116  1  0  0  0
 45 46  2  0  0  0
 45117  1  0  0  0
 46118  1  0  0  0
 47119  1  0  0  0
 47120  1  0  0  0
 48 56  1  0  0  0
 48 65  1  0  0  0
 48121  1  0  0  0
 49 50  1  0  0  0
 49 53  1  0  0  0
 49 64  1  0  0  0
 49122  1  0  0  0
 50 51  1  0  0  0
 50123  1  0  0  0
 50124  1  0  0  0
 51 52  1  0  0  0
 51125  1  0  0  0
 51126  1  0  0  0
 52127  1  0  0  0
 52128  1  0  0  0
 53 54  1  0  0  0
 54 55  2  0  0  0
 54129  1  0  0  0
 55 57  1  0  0  0
 55130  1  0  0  0
 56 69  2  0  0  0
 57 58  2  0  0  0
 57131  1  0  0  0
 58132  1  0  0  0
 59 60  1  0  0  0
 59 61  1  0  0  0
 59 62  1  0  0  0
 60133  1  0  0  0
 60134  1  0  0  0
 60135  1  0  0  0
 61136  1  0  0  0
 61137  1  0  0  0
 61138  1  0  0  0
 62139  1  0  0  0
 62140  1  0  0  0
 62141  1  0  0  0
 63 65  1  0  0  0
 63142  1  0  0  0
 63143  1  0  0  0
 63144  1  0  0  0
 64145  1  0  0  0
 65146  1  0  0  0
 68 83  1  0  0  0
 71 72  2  0  0  0
 71 74  1  0  0  0
 71147  1  0  0  0
 72 75  1  0  0  0
 72148  1  0  0  0
 73 74  2  0  0  0
 73 76  1  0  0  0
 73149  1  0  0  0
 74 79  1  0  0  0
 75 76  2  0  0  0
 75 81  1  0  0  0
 76 84  1  0  0  0
 77 78  2  0  0  0
 77 80  1  0  0  0
 77150  1  0  0  0
 78 82  1  0  0  0
 78151  1  0  0  0
 79 85  1  0  0  0
 79 86  2  0  0  0
 80 85  1  0  0  0
 80 87  2  0  0  0
 81152  1  0  0  0
 81153  1  0  0  0
 81154  1  0  0  0
 82 83  1  0  0  0
 82155  1  0  0  0
 82156  1  0  0  0
 83157  1  0  0  0
 83158  1  0  0  0
 84159  1  0  0  0
 85160  1  0  0  0
M  ISO  4   1 100  68 101  83 101  84 100
M  END
> <chiral flag>
0

> <version>
0

> <s_m_source_file>
/data/baiqing/PycharmProjects/Reinvent-master-3.2/result/LINK_invent/BTK/process_docking_weight1_custom_product_contain_oxygen_bond_distance_aromatic_linkinvent_7_9_3/rearranged_h_0113.sdf

> <i_m_source_file_index>
40

> <r_mmod_Potential_Energy-OPLS-2005>
-221.205520629883

> <r_mmod_Stretch_Energy-OPLS-2005>
35.1268081665039

> <r_mmod_Bend_Energy-OPLS-2005>
110.82405090332

> <r_mmod_Torsional_Energy-OPLS-2005>
222.046112060547

> <r_mmod_Improper_Torsional_Energy-OPLS-2005>
2.38677787780762

> <r_mmod_Van_der_Waal_Energy-OPLS-2005>
168.494506835938

> <r_mmod_Electrostatic_Energy-OPLS-2005>
-491.628692626953

> <r_mmod_Solvation_Energy-OPLS-2005>
-275.585144042969

> <b_mmod_Minimization_Converged-OPLS-2005>
0

> <r_mmod_RMS_Derivative-OPLS-2005>
1.48451590538025

$$$$
40
                    3D
 Structure written by MMmdl.
157165  0  0  1  0            999 V2000
  -30.7004  -14.4559   20.5996 C   0  0  0  0  0  0
  -30.4339  -12.3053   19.4113 C   0  0  0  0  0  0
  -29.5013  -12.5205   18.2005 C   0  0  0  0  0  0
  -28.0184  -12.3854   18.6058 C   0  0  0  0  0  0
  -27.6682  -13.1966   19.8815 C   0  0  2  0  0  0
  -28.7117  -12.9489   20.9944 C   0  0  0  0  0  0
  -25.2625  -13.8108   20.5671 C   0  0  0  0  0  0
  -24.1853  -13.0401   20.9119 C   0  0  0  0  0  0
  -24.6401  -11.6868   20.8704 C   0  0  0  0  0  0
  -23.9058  -10.4271   21.0392 C   0  0  0  0  0  0
  -24.3614   -9.4192   21.9166 C   0  0  0  0  0  0
  -23.6281   -8.2238   22.0754 C   0  0  0  0  0  0
  -22.4262   -8.0277   21.3548 C   0  0  0  0  0  0
  -21.9886   -9.0248   20.4650 C   0  0  0  0  0  0
  -22.7220  -10.2130   20.3053 C   0  0  0  0  0  0
  -21.6837   -6.0727   22.5275 C   0  0  0  0  0  0
  -21.4006   -6.5637   23.8206 C   0  0  0  0  0  0
  -21.3665   -5.6793   24.9172 C   0  0  0  0  0  0
  -21.6049   -4.3053   24.7221 C   0  0  0  0  0  0
  -21.8814   -3.8142   23.4342 C   0  0  0  0  0  0
  -21.9180   -4.6956   22.3401 C   0  0  0  0  0  0
  -22.7885  -13.5240   21.1785 C   0  0  0  0  0  0
  -22.1647   -4.2137   21.0978 F   0  0  0  0  0  0
  -21.5645   -3.4545   25.7740 F   0  0  0  0  0  0
  -30.0469  -13.2695   20.4521 N   0  0  0  0  0  0
  -26.3063  -12.9257   20.3383 N   0  0  0  0  0  0
  -25.9338  -11.6427   20.5754 N   0  0  0  0  0  0
  -22.0526  -12.8270   22.0376 N   0  0  0  0  0  0
  -25.4358  -15.1820   20.4167 N   0  0  0  0  0  0
  -31.7983  -14.6908   20.0846 O   0  0  0  0  0  0
  -21.6635   -6.8871   21.4236 O   0  0  0  0  0  0
  -22.3584  -14.5556   20.6643 O   0  0  0  0  0  0
  -24.6147  -31.8687   23.2084 C   0  0  0  0  0  0
  -25.9047  -32.4819   23.8374 C   0  0  1  0  0  0
  -27.2385  -27.4457   20.1013 C   0  0  0  0  0  0
  -25.5915  -33.8617   24.2314 N   0  0  0  0  0  0
  -23.4012  -30.4888   21.5501 C   0  0  2  0  0  0
  -24.8497  -28.9533   20.1162 C   0  0  0  0  0  0
  -22.7410  -29.4647   22.5001 C   0  0  0  0  0  0
  -18.0288  -28.1344   22.8476 C   0  0  0  0  0  0
  -24.1490  -36.7307   23.2632 C   0  0  0  0  0  0
  -25.9277  -30.8377   21.3579 C   0  0  0  0  0  0
  -26.0094  -29.4719   20.7084 C   0  0  0  0  0  0
  -27.2107  -28.7262   20.6963 C   0  0  0  0  0  0
  -26.0672  -26.9365   19.5042 C   0  0  0  0  0  0
  -24.8733  -27.6833   19.5102 C   0  0  0  0  0  0
  -23.6098  -29.8183   20.1655 C   0  0  0  0  0  0
  -25.4105  -36.3088   24.0330 C   0  0  1  0  0  0
  -20.5867  -28.3640   23.1304 C   0  0  2  0  0  0
  -20.6793  -26.9393   22.5386 C   0  0  0  0  0  0
  -19.5772  -26.6391   21.5188 C   0  0  0  0  0  0
  -18.1939  -26.7907   22.1579 C   0  0  0  0  0  0
  -19.1530  -28.8808   23.2892 C   0  0  0  0  0  0
  -18.9459  -30.1416   23.8903 C   0  0  0  0  0  0
  -17.6458  -30.6549   24.0565 C   0  0  0  0  0  0
  -25.9042  -34.9466   23.5111 C   0  0  0  0  0  0
  -16.5359  -29.9046   23.6305 C   0  0  0  0  0  0
  -16.7283  -28.6466   23.0320 C   0  0  0  0  0  0
  -26.4485  -31.6582   25.0684 C   0  0  0  0  0  0
  -25.3765  -31.3696   26.1441 C   0  0  0  0  0  0
  -27.0304  -30.3017   24.6044 C   0  0  0  0  0  0
  -27.6056  -32.4288   25.7464 C   0  0  0  0  0  0
  -27.5574  -37.1802   24.8464 C   0  0  0  0  0  0
  -21.4141  -29.3023   22.3736 N   0  0  0  0  0  0
  -26.4290  -37.3768   23.9405 N   0  0  0  0  0  0
  -24.6658  -31.0787   22.0987 N   0  0  0  0  0  0
  -23.4196  -28.8205   23.3043 O   0  0  0  0  0  0
  -28.3843  -26.6843   20.1027 O   0  0  0  0  0  0
  -26.5591  -34.8925   22.4662 O   0  0  0  0  0  0
  -23.5340  -32.1457   23.7480 O   0  0  0  0  0  0
  -30.7488  -18.7753   22.3249 C   0  0  0  0  0  0
  -29.4809  -17.5674   20.2756 C   0  0  0  0  0  0
  -29.9890  -19.5403   21.4009 C   0  0  0  0  0  0
  -30.1772  -16.7944   21.2497 C   0  0  0  0  0  0
  -29.0993  -21.6979   20.9422 C   0  0  0  0  0  0
  -31.4722  -19.4297   23.4888 C   0  0  0  0  0  0
  -28.7353  -16.9371   19.1122 C   0  0  0  0  0  0
  -28.7101  -23.0898   21.4348 C   0  0  0  0  0  0
  -28.8074  -24.2423   20.4062 C   0  0  0  0  0  0
  -28.3465  -25.5842   21.0243 C   0  0  0  0  0  0
  -29.3861  -18.9207   20.3530 N   0  0  0  0  0  0
  -30.8342  -17.4221   22.2561 N   0  0  0  0  0  0
  -29.7938  -20.9103   21.6679 N   0  0  0  0  0  0
  -30.0082  -15.3859   21.2768 N   0  0  0  0  0  0
  -31.4786  -12.4127   19.1136 H   0  0  0  0  0  0
  -30.3410  -11.2865   19.7918 H   0  0  0  0  0  0
  -29.7402  -11.8079   17.4098 H   0  0  0  0  0  0
  -29.6728  -13.5121   17.7787 H   0  0  0  0  0  0
  -27.8037  -11.3284   18.7614 H   0  0  0  0  0  0
  -27.3820  -12.7025   17.7793 H   0  0  0  0  0  0
  -27.7168  -14.2476   19.6056 H   0  0  0  0  0  0
  -28.6877  -11.9023   21.2992 H   0  0  0  0  0  0
  -28.4677  -13.5076   21.8985 H   0  0  0  0  0  0
  -25.2762   -9.5667   22.4729 H   0  0  0  0  0  0
  -23.9978   -7.4636   22.7494 H   0  0  0  0  0  0
  -21.0794   -8.8771   19.8977 H   0  0  0  0  0  0
  -22.3655  -10.9674   19.6175 H   0  0  0  0  0  0
  -21.2005   -7.6145   23.9710 H   0  0  0  0  0  0
  -21.1494   -6.0521   25.9077 H   0  0  0  0  0  0
  -22.0593   -2.7604   23.2846 H   0  0  0  0  0  0
  -22.4118  -11.9906   22.4724 H   0  0  0  0  0  0
  -21.1194  -13.1376   22.2676 H   0  0  0  0  0  0
  -24.6741  -15.8404   20.5413 H   0  0  0  0  0  0
  -26.3008  -15.6252   20.1384 H   0  0  0  0  0  0
  -26.7099  -32.5525   23.1127 H   0  0  0  0  0  0
  -25.0103  -33.9773   25.0483 H   0  0  0  0  0  0
  -22.6872  -31.3021   21.4089 H   0  0  0  0  0  0
  -23.3730  -35.9660   23.3307 H   0  0  0  0  0  0
  -24.3598  -36.8915   22.2048 H   0  0  0  0  0  0
  -23.7283  -37.6530   23.6647 H   0  0  0  0  0  0
  -26.0338  -31.5995   20.5839 H   0  0  0  0  0  0
  -26.8186  -30.8983   21.9706 H   0  0  0  0  0  0
  -28.1070  -29.1221   21.1546 H   0  0  0  0  0  0
  -26.0816  -25.9593   19.0420 H   0  0  0  0  0  0
  -23.9835  -27.2764   19.0498 H   0  0  0  0  0  0
  -23.7140  -30.5925   19.4037 H   0  0  0  0  0  0
  -22.7347  -29.2342   19.8734 H   0  0  0  0  0  0
  -25.1278  -36.1945   25.0822 H   0  0  0  0  0  0
  -20.9950  -28.3202   24.1420 H   0  0  0  0  0  0
  -20.5741  -26.2231   23.3552 H   0  0  0  0  0  0
  -21.6654  -26.7481   22.1138 H   0  0  0  0  0  0
  -19.6950  -25.6322   21.1166 H   0  0  0  0  0  0
  -19.6720  -27.3237   20.6745 H   0  0  0  0  0  0
  -17.4231  -26.6667   21.3952 H   0  0  0  0  0  0
  -18.0339  -26.0009   22.8923 H   0  0  0  0  0  0
  -19.7927  -30.7239   24.2277 H   0  0  0  0  0  0
  -17.5014  -31.6227   24.5158 H   0  0  0  0  0  0
  -15.5359  -30.2956   23.7617 H   0  0  0  0  0  0
  -15.8690  -28.0808   22.6993 H   0  0  0  0  0  0
  -24.5932  -30.7045   25.7798 H   0  0  0  0  0  0
  -24.8958  -32.2857   26.4884 H   0  0  0  0  0  0
  -25.8137  -30.8882   27.0203 H   0  0  0  0  0  0
  -26.2842  -29.6774   24.1110 H   0  0  0  0  0  0
  -27.4104  -29.7249   25.4490 H   0  0  0  0  0  0
  -27.8665  -30.4317   23.9165 H   0  0  0  0  0  0
  -27.2670  -33.3572   26.2080 H   0  0  0  0  0  0
  -28.3873  -32.6886   25.0308 H   0  0  0  0  0  0
  -28.0721  -31.8386   26.5365 H   0  0  0  0  0  0
  -28.2588  -38.0094   24.7484 H   0  0  0  0  0  0
  -28.1072  -36.2630   24.6309 H   0  0  0  0  0  0
  -27.2299  -37.1478   25.8867 H   0  0  0  0  0  0
  -20.9302  -29.8770   21.6978 H   0  0  0  0  0  0
  -26.0173  -38.2845   24.1392 H   0  0  0  0  0  0
  -28.6976  -21.4182   19.9640 H   0  0  0  0  0  0
  -32.1517  -18.7345   23.9823 H   0  0  0  0  0  0
  -30.7593  -19.7971   24.2271 H   0  0  0  0  0  0
  -32.0621  -20.2771   23.1386 H   0  0  0  0  0  0
  -29.2887  -16.0987   18.6876 H   0  0  0  0  0  0
  -28.5762  -17.6560   18.3077 H   0  0  0  0  0  0
  -27.7596  -16.5849   19.4405 H   0  0  0  0  0  0
  -29.3212  -23.3331   22.3047 H   0  0  0  0  0  0
  -27.6860  -23.0234   21.8019 H   0  0  0  0  0  0
  -28.1944  -24.0157   19.5340 H   0  0  0  0  0  0
  -29.8355  -24.3331   20.0527 H   0  0  0  0  0  0
  -28.9949  -25.8365   21.8646 H   0  0  0  0  0  0
  -27.3499  -25.4504   21.4532 H   0  0  0  0  0  0
  -29.1435  -15.0590   21.6775 H   0  0  0  0  0  0
  1 25  1  0  0  0
  1 30  2  0  0  0
  1 84  1  0  0  0
  2  3  1  0  0  0
  2 25  1  0  0  0
  2 85  1  0  0  0
  2 86  1  0  0  0
  3  4  1  0  0  0
  3 87  1  0  0  0
  3 88  1  0  0  0
  4  5  1  0  0  0
  4 89  1  0  0  0
  4 90  1  0  0  0
  5  6  1  0  0  0
  5 26  1  0  0  0
  5 91  1  0  0  0
  6 25  1  0  0  0
  6 92  1  0  0  0
  6 93  1  0  0  0
  7  8  2  0  0  0
  7 26  1  0  0  0
  7 29  1  0  0  0
  8  9  1  0  0  0
  8 22  1  0  0  0
  9 10  1  0  0  0
  9 27  2  0  0  0
 10 11  2  0  0  0
 10 15  1  0  0  0
 11 12  1  0  0  0
 11 94  1  0  0  0
 12 13  2  0  0  0
 12 95  1  0  0  0
 13 14  1  0  0  0
 13 31  1  0  0  0
 14 15  2  0  0  0
 14 96  1  0  0  0
 15 97  1  0  0  0
 16 17  2  0  0  0
 16 21  1  0  0  0
 16 31  1  0  0  0
 17 18  1  0  0  0
 17 98  1  0  0  0
 18 19  2  0  0  0
 18 99  1  0  0  0
 19 20  1  0  0  0
 19 24  1  0  0  0
 20 21  2  0  0  0
 20100  1  0  0  0
 21 23  1  0  0  0
 22 28  1  0  0  0
 22 32  2  0  0  0
 26 27  1  0  0  0
 28101  1  0  0  0
 28102  1  0  0  0
 29103  1  0  0  0
 29104  1  0  0  0
 33 34  1  0  0  0
 33 66  1  0  0  0
 33 70  2  0  0  0
 34 36  1  0  0  0
 34 59  1  0  0  0
 34105  1  0  0  0
 35 44  2  0  0  0
 35 45  1  0  0  0
 35 68  1  0  0  0
 36 56  1  0  0  0
 36106  1  0  0  0
 37 39  1  0  0  0
 37 47  1  0  0  0
 37 66  1  0  0  0
 37107  1  0  0  0
 38 43  2  0  0  0
 38 46  1  0  0  0
 38 47  1  0  0  0
 39 64  1  0  0  0
 39 67  2  0  0  0
 40 52  1  0  0  0
 40 53  2  0  0  0
 40 58  1  0  0  0
 41108  1  0  0  0
 41109  1  0  0  0
 41110  1  0  0  0
 41 48  1  0  0  0
 42 43  1  0  0  0
 42 66  1  0  0  0
 42111  1  0  0  0
 42112  1  0  0  0
 43 44  1  0  0  0
 44113  1  0  0  0
 45 46  2  0  0  0
 45114  1  0  0  0
 46115  1  0  0  0
 47116  1  0  0  0
 47117  1  0  0  0
 48 56  1  0  0  0
 48 65  1  0  0  0
 48118  1  0  0  0
 49 50  1  0  0  0
 49 53  1  0  0  0
 49 64  1  0  0  0
 49119  1  0  0  0
 50 51  1  0  0  0
 50120  1  0  0  0
 50121  1  0  0  0
 51 52  1  0  0  0
 51122  1  0  0  0
 51123  1  0  0  0
 52124  1  0  0  0
 52125  1  0  0  0
 53 54  1  0  0  0
 54 55  2  0  0  0
 54126  1  0  0  0
 55 57  1  0  0  0
 55127  1  0  0  0
 56 69  2  0  0  0
 57 58  2  0  0  0
 57128  1  0  0  0
 58129  1  0  0  0
 59 60  1  0  0  0
 59 61  1  0  0  0
 59 62  1  0  0  0
 60130  1  0  0  0
 60131  1  0  0  0
 60132  1  0  0  0
 61133  1  0  0  0
 61134  1  0  0  0
 61135  1  0  0  0
 62136  1  0  0  0
 62137  1  0  0  0
 62138  1  0  0  0
 63 65  1  0  0  0
 63139  1  0  0  0
 63140  1  0  0  0
 63141  1  0  0  0
 64142  1  0  0  0
 65143  1  0  0  0
 68 80  1  0  0  0
 71 73  2  0  0  0
 71 76  1  0  0  0
 71 82  1  0  0  0
 72 74  1  0  0  0
 72 77  1  0  0  0
 72 81  2  0  0  0
 73 81  1  0  0  0
 73 83  1  0  0  0
 74 82  2  0  0  0
 74 84  1  0  0  0
 75 78  1  0  0  0
 75 83  2  0  0  0
 75144  1  0  0  0
 76145  1  0  0  0
 76146  1  0  0  0
 76147  1  0  0  0
 77148  1  0  0  0
 77149  1  0  0  0
 77150  1  0  0  0
 78 79  1  0  0  0
 78151  1  0  0  0
 78152  1  0  0  0
 79 80  1  0  0  0
 79153  1  0  0  0
 79154  1  0  0  0
 80155  1  0  0  0
 80156  1  0  0  0
 84157  1  0  0  0
M  ISO  4   1 100  68 101  80 101  84 100
M  END
> <chiral flag>
0

> <version>
0

> <s_m_source_file>
/data/baiqing/PycharmProjects/Reinvent-master-3.2/result/LINK_invent/BTK/process_docking_weight1_custom_product_contain_oxygen_bond_distance_aromatic_linkinvent_7_9_3/rearranged_h_0113.sdf

> <i_m_source_file_index>
41

> <r_mmod_Potential_Energy-OPLS-2005>
-96.475944519043

> <r_mmod_Stretch_Energy-OPLS-2005>
38.6029319763184

> <r_mmod_Bend_Energy-OPLS-2005>
104.687171936035

> <r_mmod_Torsional_Energy-OPLS-2005>
262.347686767578

> <r_mmod_Improper_Torsional_Energy-OPLS-2005>
4.59669542312622

> <r_mmod_Van_der_Waal_Energy-OPLS-2005>
157.796493530273

> <r_mmod_Electrostatic_Energy-OPLS-2005>
-448.925384521484

> <r_mmod_Solvation_Energy-OPLS-2005>
-226.034606933594

> <b_mmod_Minimization_Converged-OPLS-2005>
0

> <r_mmod_RMS_Derivative-OPLS-2005>
2.29972338676453

$$$$
41
                    3D
 Structure written by MMmdl.
159168  0  0  1  0            999 V2000
  -30.6583  -14.8373   20.5220 C   0  0  0  0  0  0
  -30.4090  -12.5318   19.5342 C   0  0  0  0  0  0
  -29.5184  -12.5491   18.2737 C   0  0  0  0  0  0
  -28.0490  -12.3420   18.6722 C   0  0  0  0  0  0
  -27.6376  -13.2504   19.8606 C   0  0  2  0  0  0
  -28.6666  -13.2501   21.0167 C   0  0  0  0  0  0
  -25.2408  -13.8136   20.5384 C   0  0  0  0  0  0
  -24.1784  -13.0419   20.9139 C   0  0  0  0  0  0
  -24.6422  -11.6905   20.8793 C   0  0  0  0  0  0
  -23.9090  -10.4292   21.0454 C   0  0  0  0  0  0
  -24.3616   -9.4197   21.9229 C   0  0  0  0  0  0
  -23.6282   -8.2242   22.0782 C   0  0  0  0  0  0
  -22.4278   -8.0294   21.3550 C   0  0  0  0  0  0
  -21.9927   -9.0275   20.4653 C   0  0  0  0  0  0
  -22.7272  -10.2147   20.3080 C   0  0  0  0  0  0
  -21.6854   -6.0738   22.5277 C   0  0  0  0  0  0
  -21.4024   -6.5637   23.8216 C   0  0  0  0  0  0
  -21.3659   -5.6789   24.9178 C   0  0  0  0  0  0
  -21.6035   -4.3053   24.7228 C   0  0  0  0  0  0
  -21.8820   -3.8144   23.4351 C   0  0  0  0  0  0
  -21.9198   -4.6965   22.3405 C   0  0  0  0  0  0
  -22.7817  -13.5228   21.1809 C   0  0  0  0  0  0
  -22.1654   -4.2149   21.0983 F   0  0  0  0  0  0
  -21.5623   -3.4536   25.7737 F   0  0  0  0  0  0
  -29.9656  -13.6286   20.4563 N   0  0  0  0  0  0
  -26.2918  -12.9426   20.3268 N   0  0  0  0  0  0
  -25.9381  -11.6565   20.5869 N   0  0  0  0  0  0
  -22.0478  -12.8317   22.0446 N   0  0  0  0  0  0
  -25.3977  -15.1770   20.3238 N   0  0  0  0  0  0
  -31.7480  -14.8736   19.9388 O   0  0  0  0  0  0
  -21.6637   -6.8897   21.4246 O   0  0  0  0  0  0
  -22.3503  -14.5512   20.6616 O   0  0  0  0  0  0
  -24.6388  -31.8477   23.1921 C   0  0  0  0  0  0
  -25.9181  -32.4712   23.8301 C   0  0  1  0  0  0
  -27.2097  -27.1765   20.1547 C   0  0  0  0  0  0
  -25.5951  -33.8519   24.2219 N   0  0  0  0  0  0
  -23.4407  -30.4691   21.5381 C   0  0  2  0  0  0
  -24.8915  -28.9056   20.1093 C   0  0  0  0  0  0
  -22.7554  -29.4562   22.4880 C   0  0  0  0  0  0
  -18.0294  -28.1387   22.8494 C   0  0  0  0  0  0
  -24.1492  -36.7255   23.2639 C   0  0  0  0  0  0
  -25.9951  -30.7325   21.3887 C   0  0  0  0  0  0
  -26.0676  -29.3491   20.7302 C   0  0  0  0  0  0
  -27.2323  -28.4981   20.7438 C   0  0  0  0  0  0
  -26.0180  -26.8324   19.4828 C   0  0  0  0  0  0
  -24.8766  -27.6576   19.4697 C   0  0  0  0  0  0
  -23.6658  -29.8021   20.1563 C   0  0  0  0  0  0
  -25.4124  -36.3035   24.0312 C   0  0  1  0  0  0
  -20.5916  -28.3691   23.1246 C   0  0  2  0  0  0
  -20.6784  -26.9402   22.5404 C   0  0  0  0  0  0
  -19.5751  -26.6386   21.5204 C   0  0  0  0  0  0
  -18.1933  -26.7932   22.1627 C   0  0  0  0  0  0
  -19.1558  -28.8855   23.2869 C   0  0  0  0  0  0
  -18.9491  -30.1460   23.8881 C   0  0  0  0  0  0
  -17.6495  -30.6584   24.0571 C   0  0  0  0  0  0
  -25.9070  -34.9412   23.5070 C   0  0  0  0  0  0
  -16.5377  -29.9081   23.6350 C   0  0  0  0  0  0
  -16.7288  -28.6501   23.0364 C   0  0  0  0  0  0
  -26.4523  -31.6559   25.0723 C   0  0  0  0  0  0
  -25.3726  -31.3742   26.1426 C   0  0  0  0  0  0
  -27.0376  -30.2953   24.6282 C   0  0  0  0  0  0
  -27.6056  -32.4321   25.7507 C   0  0  0  0  0  0
  -27.5578  -37.1789   24.8467 C   0  0  0  0  0  0
  -21.4253  -29.3031   22.3629 N   0  0  0  0  0  0
  -26.4287  -37.3752   23.9404 N   0  0  0  0  0  0
  -24.7109  -31.0370   22.0941 N   0  0  0  0  0  0
  -23.4216  -28.8109   23.3009 O   0  0  0  0  0  0
  -28.2116  -26.1534   20.2285 O   0  0  0  0  0  0
  -26.5651  -34.8898   22.4648 O   0  0  0  0  0  0
  -23.5515  -32.1337   23.7164 O   0  0  0  0  0  0
  -29.8263  -18.6923   20.6711 C   0  0  0  0  0  0
  -27.8296  -19.8522   21.2574 C   0  0  0  0  0  0
  -29.3701  -17.4143   21.2514 C   0  0  0  0  0  0
  -29.1021  -19.9786   20.6935 C   0  0  0  0  0  0
  -28.0901  -17.5552   21.9167 C   0  0  0  0  0  0
  -27.9444  -15.7871   23.7527 C   0  0  0  0  0  0
  -28.1712  -23.5015   20.7370 C   0  0  0  0  0  0
  -27.7915  -24.8670   20.7496 C   0  0  0  0  0  0
  -29.2706  -22.5760   20.1436 C   0  0  0  0  0  0
  -30.3578  -16.1673   21.4303 C   0  0  0  0  0  0
  -26.8686  -14.9976   24.4859 C   0  0  0  0  0  0
  -25.5746  -15.4784   23.8538 C   0  0  0  0  0  0
  -26.0022  -16.7114   23.0608 C   0  0  0  0  0  0
  -27.3712  -18.7146   21.8107 N   0  0  0  0  0  0
  -31.2307  -16.3431   22.3368 N   0  0  0  0  0  0
  -29.6032  -21.2640   20.1612 N   0  0  0  0  0  0
  -27.4401  -16.5735   22.7725 N   0  0  0  0  0  0
  -29.1150  -15.6706   24.1045 O   0  0  0  0  0  0
  -31.4576  -12.6101   19.2449 H   0  0  0  0  0  0
  -30.3348  -11.5651   20.0353 H   0  0  0  0  0  0
  -29.8338  -11.7755   17.5726 H   0  0  0  0  0  0
  -29.6359  -13.5028   17.7571 H   0  0  0  0  0  0
  -27.9271  -11.2939   18.9480 H   0  0  0  0  0  0
  -27.3921  -12.5114   17.8178 H   0  0  0  0  0  0
  -27.6187  -14.2637   19.4599 H   0  0  0  0  0  0
  -28.7216  -12.2724   21.4963 H   0  0  0  0  0  0
  -28.3630  -13.9532   21.7873 H   0  0  0  0  0  0
  -25.2745   -9.5669   22.4828 H   0  0  0  0  0  0
  -23.9961   -7.4650   22.7537 H   0  0  0  0  0  0
  -21.0850   -8.8809   19.8962 H   0  0  0  0  0  0
  -22.3745  -10.9687   19.6183 H   0  0  0  0  0  0
  -21.2016   -7.6144   23.9722 H   0  0  0  0  0  0
  -21.1467   -6.0511   25.9079 H   0  0  0  0  0  0
  -22.0596   -2.7606   23.2848 H   0  0  0  0  0  0
  -22.4080  -12.0026   22.4937 H   0  0  0  0  0  0
  -21.1116  -13.1411   22.2648 H   0  0  0  0  0  0
  -24.6106  -15.8133   20.3758 H   0  0  0  0  0  0
  -26.2238  -15.6049   19.9293 H   0  0  0  0  0  0
  -26.7244  -32.5337   23.1033 H   0  0  0  0  0  0
  -25.0095  -33.9648   25.0356 H   0  0  0  0  0  0
  -22.7398  -31.2932   21.3890 H   0  0  0  0  0  0
  -23.3755  -35.9587   23.3296 H   0  0  0  0  0  0
  -24.3579  -36.8892   22.2058 H   0  0  0  0  0  0
  -23.7249  -37.6453   23.6673 H   0  0  0  0  0  0
  -26.1494  -31.4889   20.6181 H   0  0  0  0  0  0
  -26.8650  -30.7806   22.0323 H   0  0  0  0  0  0
  -28.1234  -28.8257   21.2618 H   0  0  0  0  0  0
  -25.9485  -25.8682   18.9990 H   0  0  0  0  0  0
  -23.9799  -27.3126   18.9737 H   0  0  0  0  0  0
  -23.7936  -30.5785   19.4009 H   0  0  0  0  0  0
  -22.7821  -29.2416   19.8478 H   0  0  0  0  0  0
  -25.1316  -36.1872   25.0807 H   0  0  0  0  0  0
  -21.0006  -28.3259   24.1365 H   0  0  0  0  0  0
  -20.5663  -26.2303   23.3619 H   0  0  0  0  0  0
  -21.6653  -26.7400   22.1214 H   0  0  0  0  0  0
  -19.6897  -25.6298   21.1224 H   0  0  0  0  0  0
  -19.6679  -27.3200   20.6739 H   0  0  0  0  0  0
  -17.4207  -26.6680   21.4035 H   0  0  0  0  0  0
  -18.0333  -26.0069   22.9020 H   0  0  0  0  0  0
  -19.7972  -30.7283   24.2230 H   0  0  0  0  0  0
  -17.5046  -31.6256   24.5196 H   0  0  0  0  0  0
  -15.5371  -30.2978   23.7702 H   0  0  0  0  0  0
  -15.8688  -28.0822   22.7085 H   0  0  0  0  0  0
  -24.5919  -30.7059   25.7775 H   0  0  0  0  0  0
  -24.8891  -32.2922   26.4787 H   0  0  0  0  0  0
  -25.8033  -30.8988   27.0246 H   0  0  0  0  0  0
  -26.2987  -29.6693   24.1266 H   0  0  0  0  0  0
  -27.3973  -29.7234   25.4849 H   0  0  0  0  0  0
  -27.8907  -30.4192   23.9601 H   0  0  0  0  0  0
  -27.2643  -33.3642   26.2023 H   0  0  0  0  0  0
  -28.3899  -32.6849   25.0357 H   0  0  0  0  0  0
  -28.0673  -31.8483   26.5479 H   0  0  0  0  0  0
  -28.2594  -38.0089   24.7515 H   0  0  0  0  0  0
  -28.1077  -36.2622   24.6293 H   0  0  0  0  0  0
  -27.2290  -37.1435   25.8868 H   0  0  0  0  0  0
  -20.9433  -29.8772   21.6862 H   0  0  0  0  0  0
  -26.0151  -38.2818   24.1411 H   0  0  0  0  0  0
  -30.8178  -18.6987   20.2418 H   0  0  0  0  0  0
  -27.1525  -20.6910   21.2992 H   0  0  0  0  0  0
  -27.4986  -22.8948   21.3225 H   0  0  0  0  0  0
  -26.9047  -25.0486   21.3427 H   0  0  0  0  0  0
  -29.9421  -23.2119   19.5615 H   0  0  0  0  0  0
  -26.9043  -15.2358   25.5492 H   0  0  0  0  0  0
  -27.0098  -13.9228   24.3648 H   0  0  0  0  0  0
  -24.8119  -15.7158   24.5970 H   0  0  0  0  0  0
  -25.1689  -14.7128   23.1935 H   0  0  0  0  0  0
  -25.8644  -17.5941   23.6893 H   0  0  0  0  0  0
  -25.3938  -16.8758   22.1744 H   0  0  0  0  0  0
  -31.0878  -17.1995   22.8568 H   0  0  0  0  0  0
  1 25  1  0  0  0
  1 30  2  0  0  0
  1 80  1  0  0  0
  2  3  1  0  0  0
  2 25  1  0  0  0
  2 89  1  0  0  0
  2 90  1  0  0  0
  3  4  1  0  0  0
  3 91  1  0  0  0
  3 92  1  0  0  0
  4  5  1  0  0  0
  4 93  1  0  0  0
  4 94  1  0  0  0
  5  6  1  0  0  0
  5 26  1  0  0  0
  5 95  1  0  0  0
  6 25  1  0  0  0
  6 96  1  0  0  0
  6 97  1  0  0  0
  7  8  2  0  0  0
  7 26  1  0  0  0
  7 29  1  0  0  0
  8  9  1  0  0  0
  8 22  1  0  0  0
  9 10  1  0  0  0
  9 27  2  0  0  0
 10 11  2  0  0  0
 10 15  1  0  0  0
 11 12  1  0  0  0
 11 98  1  0  0  0
 12 13  2  0  0  0
 12 99  1  0  0  0
 13 14  1  0  0  0
 13 31  1  0  0  0
 14 15  2  0  0  0
 14100  1  0  0  0
 15101  1  0  0  0
 16 17  2  0  0  0
 16 21  1  0  0  0
 16 31  1  0  0  0
 17 18  1  0  0  0
 17102  1  0  0  0
 18 19  2  0  0  0
 18103  1  0  0  0
 19 20  1  0  0  0
 19 24  1  0  0  0
 20 21  2  0  0  0
 20104  1  0  0  0
 21 23  1  0  0  0
 22 28  1  0  0  0
 22 32  2  0  0  0
 26 27  1  0  0  0
 28105  1  0  0  0
 28106  1  0  0  0
 29107  1  0  0  0
 29108  1  0  0  0
 33 34  1  0  0  0
 33 66  1  0  0  0
 33 70  2  0  0  0
 34 36  1  0  0  0
 34 59  1  0  0  0
 34109  1  0  0  0
 35 44  2  0  0  0
 35 45  1  0  0  0
 35 68  1  0  0  0
 36 56  1  0  0  0
 36110  1  0  0  0
 37 39  1  0  0  0
 37 47  1  0  0  0
 37 66  1  0  0  0
 37111  1  0  0  0
 38 43  2  0  0  0
 38 46  1  0  0  0
 38 47  1  0  0  0
 39 64  1  0  0  0
 39 67  2  0  0  0
 40 52  1  0  0  0
 40 53  2  0  0  0
 40 58  1  0  0  0
 41112  1  0  0  0
 41113  1  0  0  0
 41114  1  0  0  0
 41 48  1  0  0  0
 42 43  1  0  0  0
 42 66  1  0  0  0
 42115  1  0  0  0
 42116  1  0  0  0
 43 44  1  0  0  0
 44117  1  0  0  0
 45 46  2  0  0  0
 45118  1  0  0  0
 46119  1  0  0  0
 47120  1  0  0  0
 47121  1  0  0  0
 48 56  1  0  0  0
 48 65  1  0  0  0
 48122  1  0  0  0
 49 50  1  0  0  0
 49 53  1  0  0  0
 49 64  1  0  0  0
 49123  1  0  0  0
 50 51  1  0  0  0
 50124  1  0  0  0
 50125  1  0  0  0
 51 52  1  0  0  0
 51126  1  0  0  0
 51127  1  0  0  0
 52128  1  0  0  0
 52129  1  0  0  0
 53 54  1  0  0  0
 54 55  2  0  0  0
 54130  1  0  0  0
 55 57  1  0  0  0
 55131  1  0  0  0
 56 69  2  0  0  0
 57 58  2  0  0  0
 57132  1  0  0  0
 58133  1  0  0  0
 59 60  1  0  0  0
 59 61  1  0  0  0
 59 62  1  0  0  0
 60134  1  0  0  0
 60135  1  0  0  0
 60136  1  0  0  0
 61137  1  0  0  0
 61138  1  0  0  0
 61139  1  0  0  0
 62140  1  0  0  0
 62141  1  0  0  0
 62142  1  0  0  0
 63 65  1  0  0  0
 63143  1  0  0  0
 63144  1  0  0  0
 63145  1  0  0  0
 64146  1  0  0  0
 65147  1  0  0  0
 68 78  1  0  0  0
 71 73  2  0  0  0
 71 74  1  0  0  0
 71148  1  0  0  0
 72 74  2  0  0  0
 72 84  1  0  0  0
 72149  1  0  0  0
 73 75  1  0  0  0
 73 80  1  0  0  0
 74 86  1  0  0  0
 75 84  2  0  0  0
 75 87  1  0  0  0
 76 81  1  0  0  0
 76 87  1  0  0  0
 76 88  2  0  0  0
 77 78  2  0  0  0
 77 79  1  0  0  0
 77150  1  0  0  0
 78151  1  0  0  0
 79 86  2  0  0  0
 79152  1  0  0  0
 80 85  2  0  0  0
 81 82  1  0  0  0
 81153  1  0  0  0
 81154  1  0  0  0
 82 83  1  0  0  0
 82155  1  0  0  0
 82156  1  0  0  0
 83 87  1  0  0  0
 83157  1  0  0  0
 83158  1  0  0  0
 85159  1  0  0  0
M  ISO  4   1 100  68 101  78 101  80 100
M  END
> <chiral flag>
0

> <version>
0

> <s_m_source_file>
/data/baiqing/PycharmProjects/Reinvent-master-3.2/result/LINK_invent/BTK/process_docking_weight1_custom_product_contain_oxygen_bond_distance_aromatic_linkinvent_7_9_3/rearranged_h_0113.sdf

> <i_m_source_file_index>
42

> <r_mmod_Potential_Energy-OPLS-2005>
675.211669921875

> <r_mmod_Stretch_Energy-OPLS-2005>
214.066024780273

> <r_mmod_Bend_Energy-OPLS-2005>
447.419158935547

> <r_mmod_Torsional_Energy-OPLS-2005>
287.16064453125

> <r_mmod_Improper_Torsional_Energy-OPLS-2005>
13.3780384063721

> <r_mmod_Van_der_Waal_Energy-OPLS-2005>
135.550064086914

> <r_mmod_Electrostatic_Energy-OPLS-2005>
-342.669891357422

> <r_mmod_Solvation_Energy-OPLS-2005>
-229.62712097168

> <b_mmod_Minimization_Converged-OPLS-2005>
0

> <r_mmod_RMS_Derivative-OPLS-2005>
2.09807705879211

$$$$
42
                    3D
 Structure written by MMmdl.
152160  0  0  1  0            999 V2000
  -30.6048  -14.7735   20.5263 C   0  0  0  0  0  0
  -30.4373  -12.4952   19.4691 C   0  0  0  0  0  0
  -29.5181  -12.5455   18.2270 C   0  0  0  0  0  0
  -28.0408  -12.3614   18.6336 C   0  0  0  0  0  0
  -27.6399  -13.2409   19.8491 C   0  0  2  0  0  0
  -28.6817  -13.1679   20.9838 C   0  0  0  0  0  0
  -25.2501  -13.8226   20.5732 C   0  0  0  0  0  0
  -24.1805  -13.0451   20.9186 C   0  0  0  0  0  0
  -24.6389  -11.6941   20.8692 C   0  0  0  0  0  0
  -23.9095  -10.4308   21.0388 C   0  0  0  0  0  0
  -24.3635   -9.4225   21.9180 C   0  0  0  0  0  0
  -23.6285   -8.2261   22.0776 C   0  0  0  0  0  0
  -22.4245   -8.0329   21.3564 C   0  0  0  0  0  0
  -21.9888   -9.0310   20.4676 C   0  0  0  0  0  0
  -22.7253  -10.2171   20.3060 C   0  0  0  0  0  0
  -21.6861   -6.0746   22.5282 C   0  0  0  0  0  0
  -21.4040   -6.5636   23.8214 C   0  0  0  0  0  0
  -21.3667   -5.6777   24.9169 C   0  0  0  0  0  0
  -21.6032   -4.3026   24.7193 C   0  0  0  0  0  0
  -21.8829   -3.8151   23.4313 C   0  0  0  0  0  0
  -21.9202   -4.6969   22.3388 C   0  0  0  0  0  0
  -22.7817  -13.5261   21.1834 C   0  0  0  0  0  0
  -22.1657   -4.2182   21.0962 F   0  0  0  0  0  0
  -21.5629   -3.4506   25.7705 F   0  0  0  0  0  0
  -29.9768  -13.5477   20.4058 N   0  0  0  0  0  0
  -26.2917  -12.9452   20.3224 N   0  0  0  0  0  0
  -25.9317  -11.6566   20.5610 N   0  0  0  0  0  0
  -22.0416  -12.8307   22.0373 N   0  0  0  0  0  0
  -25.4177  -15.1951   20.4313 N   0  0  0  0  0  0
  -31.7979  -14.8692   20.2300 O   0  0  0  0  0  0
  -21.6634   -6.8898   21.4258 O   0  0  0  0  0  0
  -22.3549  -14.5581   20.6674 O   0  0  0  0  0  0
  -24.6305  -31.8530   23.1967 C   0  0  0  0  0  0
  -25.9115  -32.4768   23.8330 C   0  0  1  0  0  0
  -27.2329  -27.2656   20.1628 C   0  0  0  0  0  0
  -25.5893  -33.8565   24.2251 N   0  0  0  0  0  0
  -23.4288  -30.4734   21.5360 C   0  0  2  0  0  0
  -24.8876  -28.9206   20.1132 C   0  0  0  0  0  0
  -22.7485  -29.4587   22.4867 C   0  0  0  0  0  0
  -18.0283  -28.1402   22.8450 C   0  0  0  0  0  0
  -24.1498  -36.7313   23.2634 C   0  0  0  0  0  0
  -25.9736  -30.7768   21.3730 C   0  0  0  0  0  0
  -26.0549  -29.3950   20.7255 C   0  0  0  0  0  0
  -27.2330  -28.5811   20.7368 C   0  0  0  0  0  0
  -26.0518  -26.8620   19.5050 C   0  0  0  0  0  0
  -24.8924  -27.6638   19.4875 C   0  0  0  0  0  0
  -23.6525  -29.8007   20.1546 C   0  0  0  0  0  0
  -25.4117  -36.3074   24.0317 C   0  0  1  0  0  0
  -20.5884  -28.3709   23.1254 C   0  0  2  0  0  0
  -20.6786  -26.9415   22.5404 C   0  0  0  0  0  0
  -19.5766  -26.6384   21.5200 C   0  0  0  0  0  0
  -18.1934  -26.7933   22.1611 C   0  0  0  0  0  0
  -19.1535  -28.8870   23.2863 C   0  0  0  0  0  0
  -18.9459  -30.1462   23.8897 C   0  0  0  0  0  0
  -17.6463  -30.6602   24.0546 C   0  0  0  0  0  0
  -25.9039  -34.9443   23.5095 C   0  0  0  0  0  0
  -16.5350  -29.9081   23.6342 C   0  0  0  0  0  0
  -16.7274  -28.6517   23.0327 C   0  0  0  0  0  0
  -26.4480  -31.6579   25.0714 C   0  0  0  0  0  0
  -25.3710  -31.3737   26.1439 C   0  0  0  0  0  0
  -27.0305  -30.2983   24.6208 C   0  0  0  0  0  0
  -27.6064  -32.4287   25.7489 C   0  0  0  0  0  0
  -27.5581  -37.1812   24.8453 C   0  0  0  0  0  0
  -21.4187  -29.3062   22.3633 N   0  0  0  0  0  0
  -26.4299  -37.3764   23.9387 N   0  0  0  0  0  0
  -24.6955  -31.0505   22.0930 N   0  0  0  0  0  0
  -23.4183  -28.8130   23.2971 O   0  0  0  0  0  0
  -28.3169  -26.3594   20.2189 O   0  0  0  0  0  0
  -26.5611  -34.8907   22.4663 O   0  0  0  0  0  0
  -23.5454  -32.1331   23.7278 O   0  0  0  0  0  0
  -31.1089  -17.4466   22.1910 C   0  0  0  0  0  0
  -31.4414  -18.7090   22.7203 C   0  0  0  0  0  0
  -29.5774  -18.5493   20.6613 C   0  0  0  0  0  0
  -30.1752  -17.3027   21.1427 C   0  0  0  0  0  0
  -30.8699  -19.9010   22.2329 C   0  0  0  0  0  0
  -29.9120  -19.8810   21.1774 C   0  0  0  0  0  0
  -29.0011  -23.7526   20.3522 C   0  0  0  0  0  0
  -28.9610  -22.3337   21.1852 C   0  0  0  0  0  0
  -28.0320  -24.9729   20.7470 C   0  0  0  0  0  0
  -31.3195  -21.0946   22.7999 N   0  0  0  0  0  0
  -29.4588  -21.1790   20.5878 N   0  0  0  0  0  0
  -29.8228  -15.9154   20.7156 N   0  0  0  0  0  0
  -29.8134  -23.8948   19.4292 O   0  0  0  0  0  0
  -28.4973  -22.3117   22.3302 O   0  0  0  0  0  0
  -31.4820  -12.6291   19.1832 H   0  0  0  0  0  0
  -30.3775  -11.5139   19.9447 H   0  0  0  0  0  0
  -29.8060  -11.7835   17.5007 H   0  0  0  0  0  0
  -29.6426  -13.5037   17.7182 H   0  0  0  0  0  0
  -27.8866  -11.3072   18.8713 H   0  0  0  0  0  0
  -27.3945  -12.5774   17.7815 H   0  0  0  0  0  0
  -27.6312  -14.2644   19.4764 H   0  0  0  0  0  0
  -28.7230  -12.1582   21.3988 H   0  0  0  0  0  0
  -28.4086  -13.8325   21.8075 H   0  0  0  0  0  0
  -25.2792   -9.5696   22.4740 H   0  0  0  0  0  0
  -24.0014   -7.4643   22.7489 H   0  0  0  0  0  0
  -21.0834   -8.8854   19.8948 H   0  0  0  0  0  0
  -22.3760  -10.9711   19.6154 H   0  0  0  0  0  0
  -21.2036   -7.6131   23.9750 H   0  0  0  0  0  0
  -21.1471   -6.0472   25.9089 H   0  0  0  0  0  0
  -22.0584   -2.7605   23.2792 H   0  0  0  0  0  0
  -22.3970  -12.0010   22.4867 H   0  0  0  0  0  0
  -21.1048  -13.1451   22.2531 H   0  0  0  0  0  0
  -24.6514  -15.8413   20.5909 H   0  0  0  0  0  0
  -26.2659  -15.6536   20.1281 H   0  0  0  0  0  0
  -26.7191  -32.5432   23.1084 H   0  0  0  0  0  0
  -25.0009  -33.9687   25.0376 H   0  0  0  0  0  0
  -22.7289  -31.2974   21.3824 H   0  0  0  0  0  0
  -23.3729  -35.9677   23.3302 H   0  0  0  0  0  0
  -24.3594  -36.8935   22.2050 H   0  0  0  0  0  0
  -23.7312  -37.6538   23.6664 H   0  0  0  0  0  0
  -26.0931  -31.5343   20.5962 H   0  0  0  0  0  0
  -26.8571  -30.8416   21.9973 H   0  0  0  0  0  0
  -28.1248  -28.9366   21.2352 H   0  0  0  0  0  0
  -26.0155  -25.9008   19.0139 H   0  0  0  0  0  0
  -24.0025  -27.2943   18.9985 H   0  0  0  0  0  0
  -23.7703  -30.5715   19.3914 H   0  0  0  0  0  0
  -22.7771  -29.2223   19.8563 H   0  0  0  0  0  0
  -25.1304  -36.1908   25.0814 H   0  0  0  0  0  0
  -20.9981  -28.3294   24.1369 H   0  0  0  0  0  0
  -20.5677  -26.2301   23.3601 H   0  0  0  0  0  0
  -21.6657  -26.7439   22.1205 H   0  0  0  0  0  0
  -19.6924  -25.6279   21.1260 H   0  0  0  0  0  0
  -19.6722  -27.3178   20.6709 H   0  0  0  0  0  0
  -17.4185  -26.6634   21.4024 H   0  0  0  0  0  0
  -18.0362  -26.0111   22.9063 H   0  0  0  0  0  0
  -19.7930  -30.7288   24.2268 H   0  0  0  0  0  0
  -17.5009  -31.6290   24.5132 H   0  0  0  0  0  0
  -15.5343  -30.2983   23.7710 H   0  0  0  0  0  0
  -15.8664  -28.0873   22.7016 H   0  0  0  0  0  0
  -24.5841  -30.7136   25.7748 H   0  0  0  0  0  0
  -24.8947  -32.2918   26.4894 H   0  0  0  0  0  0
  -25.8010  -30.8862   27.0196 H   0  0  0  0  0  0
  -26.2872  -29.6733   24.1237 H   0  0  0  0  0  0
  -27.3951  -29.7256   25.4745 H   0  0  0  0  0  0
  -27.8772  -30.4220   23.9455 H   0  0  0  0  0  0
  -27.2688  -33.3582   26.2086 H   0  0  0  0  0  0
  -28.3872  -32.6832   25.0308 H   0  0  0  0  0  0
  -28.0718  -31.8372   26.5386 H   0  0  0  0  0  0
  -28.2588  -38.0109   24.7463 H   0  0  0  0  0  0
  -28.1070  -36.2634   24.6303 H   0  0  0  0  0  0
  -27.2285  -37.1509   25.8850 H   0  0  0  0  0  0
  -20.9339  -29.8785   21.6861 H   0  0  0  0  0  0
  -26.0163  -38.2834   24.1360 H   0  0  0  0  0  0
  -31.5733  -16.5745   22.6303 H   0  0  0  0  0  0
  -32.1648  -18.7491   23.5250 H   0  0  0  0  0  0
  -28.8472  -18.4884   19.8666 H   0  0  0  0  0  0
  -28.0165  -25.0420   21.8345 H   0  0  0  0  0  0
  -27.0281  -24.6647   20.4653 H   0  0  0  0  0  0
  -31.8758  -21.0343   23.6464 H   0  0  0  0  0  0
  -30.6405  -21.8475   22.8491 H   0  0  0  0  0  0
  -29.6930  -21.3167   19.6148 H   0  0  0  0  0  0
  -28.8316  -15.7400   20.6421 H   0  0  0  0  0  0
  1 25  1  0  0  0
  1 30  2  0  0  0
  1 82  1  0  0  0
  2  3  1  0  0  0
  2 25  1  0  0  0
  2 85  1  0  0  0
  2 86  1  0  0  0
  3  4  1  0  0  0
  3 87  1  0  0  0
  3 88  1  0  0  0
  4  5  1  0  0  0
  4 89  1  0  0  0
  4 90  1  0  0  0
  5  6  1  0  0  0
  5 26  1  0  0  0
  5 91  1  0  0  0
  6 25  1  0  0  0
  6 92  1  0  0  0
  6 93  1  0  0  0
  7  8  2  0  0  0
  7 26  1  0  0  0
  7 29  1  0  0  0
  8  9  1  0  0  0
  8 22  1  0  0  0
  9 10  1  0  0  0
  9 27  2  0  0  0
 10 11  2  0  0  0
 10 15  1  0  0  0
 11 12  1  0  0  0
 11 94  1  0  0  0
 12 13  2  0  0  0
 12 95  1  0  0  0
 13 14  1  0  0  0
 13 31  1  0  0  0
 14 15  2  0  0  0
 14 96  1  0  0  0
 15 97  1  0  0  0
 16 17  2  0  0  0
 16 21  1  0  0  0
 16 31  1  0  0  0
 17 18  1  0  0  0
 17 98  1  0  0  0
 18 19  2  0  0  0
 18 99  1  0  0  0
 19 20  1  0  0  0
 19 24  1  0  0  0
 20 21  2  0  0  0
 20100  1  0  0  0
 21 23  1  0  0  0
 22 28  1  0  0  0
 22 32  2  0  0  0
 26 27  1  0  0  0
 28101  1  0  0  0
 28102  1  0  0  0
 29103  1  0  0  0
 29104  1  0  0  0
 33 34  1  0  0  0
 33 66  1  0  0  0
 33 70  2  0  0  0
 34 36  1  0  0  0
 34 59  1  0  0  0
 34105  1  0  0  0
 35 44  2  0  0  0
 35 45  1  0  0  0
 35 68  1  0  0  0
 36 56  1  0  0  0
 36106  1  0  0  0
 37 39  1  0  0  0
 37 47  1  0  0  0
 37 66  1  0  0  0
 37107  1  0  0  0
 38 43  2  0  0  0
 38 46  1  0  0  0
 38 47  1  0  0  0
 39 64  1  0  0  0
 39 67  2  0  0  0
 40 52  1  0  0  0
 40 53  2  0  0  0
 40 58  1  0  0  0
 41108  1  0  0  0
 41109  1  0  0  0
 41110  1  0  0  0
 41 48  1  0  0  0
 42 43  1  0  0  0
 42 66  1  0  0  0
 42111  1  0  0  0
 42112  1  0  0  0
 43 44  1  0  0  0
 44113  1  0  0  0
 45 46  2  0  0  0
 45114  1  0  0  0
 46115  1  0  0  0
 47116  1  0  0  0
 47117  1  0  0  0
 48 56  1  0  0  0
 48 65  1  0  0  0
 48118  1  0  0  0
 49 50  1  0  0  0
 49 53  1  0  0  0
 49 64  1  0  0  0
 49119  1  0  0  0
 50 51  1  0  0  0
 50120  1  0  0  0
 50121  1  0  0  0
 51 52  1  0  0  0
 51122  1  0  0  0
 51123  1  0  0  0
 52124  1  0  0  0
 52125  1  0  0  0
 53 54  1  0  0  0
 54 55  2  0  0  0
 54126  1  0  0  0
 55 57  1  0  0  0
 55127  1  0  0  0
 56 69  2  0  0  0
 57 58  2  0  0  0
 57128  1  0  0  0
 58129  1  0  0  0
 59 60  1  0  0  0
 59 61  1  0  0  0
 59 62  1  0  0  0
 60130  1  0  0  0
 60131  1  0  0  0
 60132  1  0  0  0
 61133  1  0  0  0
 61134  1  0  0  0
 61135  1  0  0  0
 62136  1  0  0  0
 62137  1  0  0  0
 62138  1  0  0  0
 63 65  1  0  0  0
 63139  1  0  0  0
 63140  1  0  0  0
 63141  1  0  0  0
 64142  1  0  0  0
 65143  1  0  0  0
 68 79  1  0  0  0
 71 72  2  0  0  0
 71 74  1  0  0  0
 71144  1  0  0  0
 72 75  1  0  0  0
 72145  1  0  0  0
 73 74  2  0  0  0
 73 76  1  0  0  0
 73146  1  0  0  0
 74 82  1  0  0  0
 75 76  2  0  0  0
 75 80  1  0  0  0
 76 81  1  0  0  0
 77 78  1  0  0  0
 77 79  1  0  0  0
 77 83  2  0  0  0
 78 81  1  0  0  0
 78 84  2  0  0  0
 79147  1  0  0  0
 79148  1  0  0  0
 80149  1  0  0  0
 80150  1  0  0  0
 81151  1  0  0  0
 82152  1  0  0  0
M  ISO  4   1 100  68 101  79 101  82 100
M  END
> <chiral flag>
0

> <version>
0

> <s_m_source_file>
/data/baiqing/PycharmProjects/Reinvent-master-3.2/result/LINK_invent/BTK/process_docking_weight1_custom_product_contain_oxygen_bond_distance_aromatic_linkinvent_7_9_3/rearranged_h_0113.sdf

> <i_m_source_file_index>
43

> <r_mmod_Potential_Energy-OPLS-2005>
157.246810913086

> <r_mmod_Stretch_Energy-OPLS-2005>
141.410934448242

> <r_mmod_Bend_Energy-OPLS-2005>
158.779800415039

> <r_mmod_Torsional_Energy-OPLS-2005>
282.693328857422

> <r_mmod_Improper_Torsional_Energy-OPLS-2005>
11.4232616424561

> <r_mmod_Van_der_Waal_Energy-OPLS-2005>
138.454742431641

> <r_mmod_Electrostatic_Energy-OPLS-2005>
-417.152435302734

> <r_mmod_Solvation_Energy-OPLS-2005>
-251.938110351562

> <b_mmod_Minimization_Converged-OPLS-2005>
0

> <r_mmod_RMS_Derivative-OPLS-2005>
5.46175050735474

$$$$
43
                    3D
 Structure written by MMmdl.
153161  0  0  1  0            999 V2000
  -30.3006  -14.4713   20.3428 C   0  0  0  0  0  0
  -30.4705  -12.2354   19.3931 C   0  0  0  0  0  0
  -29.4802  -12.1338   18.2016 C   0  0  0  0  0  0
  -28.0312  -11.7742   18.6983 C   0  0  0  0  0  0
  -27.6726  -12.7041   19.8503 C   0  0  2  0  0  0
  -28.7075  -12.7339   20.9921 C   0  0  0  0  0  0
  -25.5551  -14.3334   20.6009 C   0  0  0  0  0  0
  -24.3785  -13.4518   20.9501 C   0  0  0  0  0  0
  -24.6312  -11.9825   20.9286 C   0  0  0  0  0  0
  -23.8755  -10.6498   21.0886 C   0  0  0  0  0  0
  -24.3445   -9.5937   21.9298 C   0  0  0  0  0  0
  -23.6523   -8.3562   22.0776 C   0  0  0  0  0  0
  -22.4551   -8.1135   21.3639 C   0  0  0  0  0  0
  -22.0151   -9.1198   20.4800 C   0  0  0  0  0  0
  -22.7090  -10.3473   20.3371 C   0  0  0  0  0  0
  -21.7220   -6.1112   22.5157 C   0  0  0  0  0  0
  -21.4327   -6.5920   23.8125 C   0  0  0  0  0  0
  -21.3756   -5.7011   24.9036 C   0  0  0  0  0  0
  -21.6004   -4.3246   24.7057 C   0  0  0  0  0  0
  -21.8803   -3.8382   23.4172 C   0  0  0  0  0  0
  -21.9315   -4.7256   22.3257 C   0  0  0  0  0  0
  -22.9137  -13.7788   21.1893 C   0  0  0  0  0  0
  -22.1692   -4.2385   21.0840 F   0  0  0  0  0  0
  -21.5499   -3.4688   25.7554 F   0  0  0  0  0  0
  -29.9407  -13.1828   20.3887 N   0  0  0  0  0  0
  -26.3171  -13.0205   20.3488 N   0  0  0  0  0  0
  -25.8486  -11.8051   20.6404 N   0  0  0  0  0  0
  -22.2154  -13.0150   22.0392 N   0  0  0  0  0  0
  -26.4683  -17.0782   19.9720 N   0  0  0  0  0  0
  -31.4998  -14.7916   20.1867 O   0  0  0  0  0  0
  -21.7223   -6.9413   21.4167 O   0  0  0  0  0  0
  -22.3360  -14.6869   20.6118 O   0  0  0  0  0  0
  -24.6594  -31.8346   23.1856 C   0  0  0  0  0  0
  -25.9347  -32.4606   23.8240 C   0  0  1  0  0  0
  -26.8504  -26.8186   20.2556 C   0  0  0  0  0  0
  -25.6068  -33.8436   24.2120 N   0  0  0  0  0  0
  -23.4586  -30.4752   21.5375 C   0  0  2  0  0  0
  -24.8602  -28.9065   20.0681 C   0  0  0  0  0  0
  -22.7633  -29.4504   22.4735 C   0  0  0  0  0  0
  -18.0316  -28.1426   22.8467 C   0  0  0  0  0  0
  -24.1492  -36.7228   23.2635 C   0  0  0  0  0  0
  -26.0326  -30.5998   21.4375 C   0  0  0  0  0  0
  -26.0356  -29.1982   20.7684 C   0  0  0  0  0  0
  -27.0562  -28.1545   20.8617 C   0  0  0  0  0  0
  -25.7820  -26.7703   19.3618 C   0  0  0  0  0  0
  -24.7769  -27.7375   19.3173 C   0  0  0  0  0  0
  -23.6840  -29.8592   20.1344 C   0  0  0  0  0  0
  -25.4137  -36.2982   24.0287 C   0  0  1  0  0  0
  -20.5934  -28.3762   23.1179 C   0  0  2  0  0  0
  -20.6811  -26.9453   22.5386 C   0  0  0  0  0  0
  -19.5791  -26.6385   21.5212 C   0  0  0  0  0  0
  -18.1958  -26.7955   22.1618 C   0  0  0  0  0  0
  -19.1577  -28.8924   23.2799 C   0  0  0  0  0  0
  -18.9490  -30.1502   23.8851 C   0  0  0  0  0  0
  -17.6486  -30.6609   24.0569 C   0  0  0  0  0  0
  -25.9126  -34.9367   23.5003 C   0  0  0  0  0  0
  -16.5370  -29.9101   23.6350 C   0  0  0  0  0  0
  -16.7293  -28.6525   23.0349 C   0  0  0  0  0  0
  -26.4568  -31.6569   25.0794 C   0  0  0  0  0  0
  -25.3689  -31.3879   26.1451 C   0  0  0  0  0  0
  -27.0466  -30.2915   24.6620 C   0  0  0  0  0  0
  -27.6065  -32.4378   25.7603 C   0  0  0  0  0  0
  -27.5574  -37.1772   24.8461 C   0  0  0  0  0  0
  -21.4316  -29.3055   22.3526 N   0  0  0  0  0  0
  -26.4284  -37.3720   23.9395 N   0  0  0  0  0  0
  -24.7396  -30.9995   22.1035 N   0  0  0  0  0  0
  -23.4215  -28.7986   23.2879 O   0  0  0  0  0  0
  -27.4103  -25.4764   20.5079 O   0  0  0  0  0  0
  -26.5690  -34.8899   22.4565 O   0  0  0  0  0  0
  -23.5691  -32.1355   23.6971 O   0  0  0  0  0  0
  -26.4169  -15.2291   18.6836 C   0  0  0  0  0  0
  -24.7016  -15.9101   19.1853 C   0  0  0  0  0  0
  -27.5943  -15.2154   20.0487 C   0  0  0  0  0  0
  -24.5892  -16.4392   20.8737 C   0  0  0  0  0  0
  -29.1126  -15.5091   20.0673 C   0  0  0  0  0  0
  -26.5340  -22.4381   20.9422 C   0  0  0  0  0  0
  -25.4651  -21.0329   20.6764 C   0  0  0  0  0  0
  -26.4509  -24.0995   20.3317 C   0  0  0  0  0  0
  -25.3724  -19.3079   21.2995 C   0  0  0  0  0  0
  -29.4822  -16.6652   19.6981 N   0  0  0  0  0  0
  -23.6703  -16.0985   18.2624 N   0  0  0  0  0  0
  -27.5125  -22.2112   21.6640 O   0  0  0  0  0  0
  -26.4396  -15.8985   21.6636 O   0  0  0  0  0  0
  -24.3671  -17.9469   21.1001 O   0  0  0  0  0  0
  -31.4562  -12.5270   19.0263 H   0  0  0  0  0  0
  -30.6030  -11.2577   19.8561 H   0  0  0  0  0  0
  -29.8226  -11.3643   17.5093 H   0  0  0  0  0  0
  -29.4869  -13.0603   17.6252 H   0  0  0  0  0  0
  -28.0192  -10.7458   19.0625 H   0  0  0  0  0  0
  -27.3097  -11.8068   17.8753 H   0  0  0  0  0  0
  -27.8282  -13.3569   19.0226 H   0  0  0  0  0  0
  -28.8205  -11.7462   21.4451 H   0  0  0  0  0  0
  -28.4092  -13.3938   21.8108 H   0  0  0  0  0  0
  -25.2583   -9.7439   22.4877 H   0  0  0  0  0  0
  -24.0594   -7.6038   22.7372 H   0  0  0  0  0  0
  -21.1244   -8.9444   19.8914 H   0  0  0  0  0  0
  -22.3247  -11.0818   19.6407 H   0  0  0  0  0  0
  -21.2478   -7.6449   23.9706 H   0  0  0  0  0  0
  -21.1520   -6.0707   25.8952 H   0  0  0  0  0  0
  -22.0440   -2.7827   23.2581 H   0  0  0  0  0  0
  -22.6426  -12.2590   22.5555 H   0  0  0  0  0  0
  -21.2339  -13.2116   22.1658 H   0  0  0  0  0  0
  -25.8129  -17.8422   20.0948 H   0  0  0  0  0  0
  -27.4212  -17.3927   19.8804 H   0  0  0  0  0  0
  -26.7396  -32.5030   23.0915 H   0  0  0  0  0  0
  -25.0238  -33.9522   25.0293 H   0  0  0  0  0  0
  -22.7672  -31.3109   21.4032 H   0  0  0  0  0  0
  -23.3776  -35.9539   23.3268 H   0  0  0  0  0  0
  -24.3574  -36.8921   22.2060 H   0  0  0  0  0  0
  -23.7229  -37.6407   23.6705 H   0  0  0  0  0  0
  -26.2450  -31.3353   20.6589 H   0  0  0  0  0  0
  -26.8920  -30.6229   22.0979 H   0  0  0  0  0  0
  -27.8993  -28.3132   21.5178 H   0  0  0  0  0  0
  -25.5980  -25.8866   18.7732 H   0  0  0  0  0  0
  -23.9071  -27.5556   18.7020 H   0  0  0  0  0  0
  -23.8689  -30.6574   19.4139 H   0  0  0  0  0  0
  -22.7766  -29.3584   19.7919 H   0  0  0  0  0  0
  -25.1310  -36.1806   25.0781 H   0  0  0  0  0  0
  -20.9998  -28.3369   24.1312 H   0  0  0  0  0  0
  -20.5738  -26.2368   23.3606 H   0  0  0  0  0  0
  -21.6659  -26.7469   22.1149 H   0  0  0  0  0  0
  -19.6936  -25.6274   21.1285 H   0  0  0  0  0  0
  -19.6732  -27.3166   20.6717 H   0  0  0  0  0  0
  -17.4208  -26.6678   21.4020 H   0  0  0  0  0  0
  -18.0364  -26.0114   22.9048 H   0  0  0  0  0  0
  -19.7955  -30.7331   24.2195 H   0  0  0  0  0  0
  -17.5030  -31.6288   24.5189 H   0  0  0  0  0  0
  -15.5360  -30.2990   23.7719 H   0  0  0  0  0  0
  -15.8679  -28.0841   22.7077 H   0  0  0  0  0  0
  -24.5862  -30.7217   25.7795 H   0  0  0  0  0  0
  -24.8890  -32.3119   26.4696 H   0  0  0  0  0  0
  -25.7899  -30.9179   27.0353 H   0  0  0  0  0  0
  -26.3134  -29.6560   24.1639 H   0  0  0  0  0  0
  -27.3958  -29.7323   25.5317 H   0  0  0  0  0  0
  -27.9116  -30.4069   24.0087 H   0  0  0  0  0  0
  -27.2633  -33.3724   26.2069 H   0  0  0  0  0  0
  -28.3953  -32.6874   25.0489 H   0  0  0  0  0  0
  -28.0661  -31.8597   26.5639 H   0  0  0  0  0  0
  -28.2543  -38.0114   24.7519 H   0  0  0  0  0  0
  -28.1115  -36.2629   24.6251 H   0  0  0  0  0  0
  -27.2298  -37.1395   25.8872 H   0  0  0  0  0  0
  -20.9526  -29.8830   21.6767 H   0  0  0  0  0  0
  -26.0138  -38.2782   24.1413 H   0  0  0  0  0  0
  -26.7039  -15.0083   17.6647 H   0  0  0  0  0  0
  -25.5241  -20.9122   19.5953 H   0  0  0  0  0  0
  -24.4618  -21.4358   20.8191 H   0  0  0  0  0  0
  -25.4489  -24.4143   20.6280 H   0  0  0  0  0  0
  -26.3942  -23.9467   19.2542 H   0  0  0  0  0  0
  -25.1866  -19.4905   22.3578 H   0  0  0  0  0  0
  -26.4147  -18.9942   21.3555 H   0  0  0  0  0  0
  -28.7133  -17.2275   19.3684 H   0  0  0  0  0  0
  -22.7995  -15.7938   18.6965 H   0  0  0  0  0  0
  -23.5022  -17.0827   18.0910 H   0  0  0  0  0  0
  1 25  1  0  0  0
  1 30  2  0  0  0
  1 75  1  0  0  0
  2  3  1  0  0  0
  2 25  1  0  0  0
  2 85  1  0  0  0
  2 86  1  0  0  0
  3  4  1  0  0  0
  3 87  1  0  0  0
  3 88  1  0  0  0
  4  5  1  0  0  0
  4 89  1  0  0  0
  4 90  1  0  0  0
  5  6  1  0  0  0
  5 26  1  0  0  0
  5 91  1  0  0  0
  6 25  1  0  0  0
  6 92  1  0  0  0
  6 93  1  0  0  0
  7  8  2  0  0  0
  7 26  1  0  0  0
  7 29  1  0  0  0
  8  9  1  0  0  0
  8 22  1  0  0  0
  9 10  1  0  0  0
  9 27  2  0  0  0
 10 11  2  0  0  0
 10 15  1  0  0  0
 11 12  1  0  0  0
 11 94  1  0  0  0
 12 13  2  0  0  0
 12 95  1  0  0  0
 13 14  1  0  0  0
 13 31  1  0  0  0
 14 15  2  0  0  0
 14 96  1  0  0  0
 15 97  1  0  0  0
 16 17  2  0  0  0
 16 21  1  0  0  0
 16 31  1  0  0  0
 17 18  1  0  0  0
 17 98  1  0  0  0
 18 19  2  0  0  0
 18 99  1  0  0  0
 19 20  1  0  0  0
 19 24  1  0  0  0
 20 21  2  0  0  0
 20100  1  0  0  0
 21 23  1  0  0  0
 22 28  1  0  0  0
 22 32  2  0  0  0
 26 27  1  0  0  0
 28101  1  0  0  0
 28102  1  0  0  0
 29103  1  0  0  0
 29104  1  0  0  0
 33 34  1  0  0  0
 33 66  1  0  0  0
 33 70  2  0  0  0
 34 36  1  0  0  0
 34 59  1  0  0  0
 34105  1  0  0  0
 35 44  2  0  0  0
 35 45  1  0  0  0
 35 68  1  0  0  0
 36 56  1  0  0  0
 36106  1  0  0  0
 37 39  1  0  0  0
 37 47  1  0  0  0
 37 66  1  0  0  0
 37107  1  0  0  0
 38 43  2  0  0  0
 38 46  1  0  0  0
 38 47  1  0  0  0
 39 64  1  0  0  0
 39 67  2  0  0  0
 40 52  1  0  0  0
 40 53  2  0  0  0
 40 58  1  0  0  0
 41108  1  0  0  0
 41109  1  0  0  0
 41110  1  0  0  0
 41 48  1  0  0  0
 42 43  1  0  0  0
 42 66  1  0  0  0
 42111  1  0  0  0
 42112  1  0  0  0
 43 44  1  0  0  0
 44113  1  0  0  0
 45 46  2  0  0  0
 45114  1  0  0  0
 46115  1  0  0  0
 47116  1  0  0  0
 47117  1  0  0  0
 48 56  1  0  0  0
 48 65  1  0  0  0
 48118  1  0  0  0
 49 50  1  0  0  0
 49 53  1  0  0  0
 49 64  1  0  0  0
 49119  1  0  0  0
 50 51  1  0  0  0
 50120  1  0  0  0
 50121  1  0  0  0
 51 52  1  0  0  0
 51122  1  0  0  0
 51123  1  0  0  0
 52124  1  0  0  0
 52125  1  0  0  0
 53 54  1  0  0  0
 54 55  2  0  0  0
 54126  1  0  0  0
 55 57  1  0  0  0
 55127  1  0  0  0
 56 69  2  0  0  0
 57 58  2  0  0  0
 57128  1  0  0  0
 58129  1  0  0  0
 59 60  1  0  0  0
 59 61  1  0  0  0
 59 62  1  0  0  0
 60130  1  0  0  0
 60131  1  0  0  0
 60132  1  0  0  0
 61133  1  0  0  0
 61134  1  0  0  0
 61135  1  0  0  0
 62136  1  0  0  0
 62137  1  0  0  0
 62138  1  0  0  0
 63 65  1  0  0  0
 63139  1  0  0  0
 63140  1  0  0  0
 63141  1  0  0  0
 64142  1  0  0  0
 65143  1  0  0  0
 68 78  1  0  0  0
 71 72  1  0  0  0
 71 73  2  0  0  0
 71144  1  0  0  0
 72 74  2  0  0  0
 72 81  1  0  0  0
 73 75  1  0  0  0
 73 83  1  0  0  0
 74 83  1  0  0  0
 74 84  1  0  0  0
 75 80  2  0  0  0
 76 77  1  0  0  0
 76 78  1  0  0  0
 76 82  2  0  0  0
 77 79  1  0  0  0
 77145  1  0  0  0
 77146  1  0  0  0
 78147  1  0  0  0
 78148  1  0  0  0
 79 84  1  0  0  0
 79149  1  0  0  0
 79150  1  0  0  0
 80151  1  0  0  0
 81152  1  0  0  0
 81153  1  0  0  0
M  ISO  4   1 100  68 101  75 100  78 101
M  END
> <chiral flag>
0

> <version>
0

> <s_m_source_file>
/data/baiqing/PycharmProjects/Reinvent-master-3.2/result/LINK_invent/BTK/process_docking_weight1_custom_product_contain_oxygen_bond_distance_aromatic_linkinvent_7_9_3/rearranged_h_0113.sdf

> <i_m_source_file_index>
44

> <r_mmod_Potential_Energy-OPLS-2005>
12830.373046875

> <r_mmod_Stretch_Energy-OPLS-2005>
7917.091796875

> <r_mmod_Bend_Energy-OPLS-2005>
738.732299804688

> <r_mmod_Torsional_Energy-OPLS-2005>
410.483856201172

> <r_mmod_Improper_Torsional_Energy-OPLS-2005>
60.079345703125

> <r_mmod_Van_der_Waal_Energy-OPLS-2005>
3044.9638671875

> <r_mmod_Electrostatic_Energy-OPLS-2005>
-260.130950927734

> <r_mmod_Solvation_Energy-OPLS-2005>
-246.045120239258

> <b_mmod_Minimization_Converged-OPLS-2005>
0

> <r_mmod_RMS_Derivative-OPLS-2005>
11.6223783493042

$$$$
44
                    3D
 Structure written by MMmdl.
145153  0  0  1  0            999 V2000
  -30.4797  -15.1097   20.3926 C   0  0  0  0  0  0
  -30.4439  -12.6966   19.5146 C   0  0  0  0  0  0
  -29.5312  -12.5551   18.2722 C   0  0  0  0  0  0
  -28.0705  -12.3086   18.6925 C   0  0  0  0  0  0
  -27.6216  -13.2605   19.8307 C   0  0  2  0  0  0
  -28.6604  -13.3577   20.9680 C   0  0  0  0  0  0
  -25.2423  -13.8225   20.5715 C   0  0  0  0  0  0
  -24.1762  -13.0431   20.9240 C   0  0  0  0  0  0
  -24.6396  -11.6924   20.8754 C   0  0  0  0  0  0
  -23.9085  -10.4290   21.0406 C   0  0  0  0  0  0
  -24.3630   -9.4203   21.9184 C   0  0  0  0  0  0
  -23.6300   -8.2240   22.0754 C   0  0  0  0  0  0
  -22.4282   -8.0279   21.3544 C   0  0  0  0  0  0
  -21.9922   -9.0255   20.4647 C   0  0  0  0  0  0
  -22.7255  -10.2132   20.3056 C   0  0  0  0  0  0
  -21.6853   -6.0735   22.5282 C   0  0  0  0  0  0
  -21.4015   -6.5640   23.8216 C   0  0  0  0  0  0
  -21.3661   -5.6792   24.9178 C   0  0  0  0  0  0
  -21.6045   -4.3054   24.7227 C   0  0  0  0  0  0
  -21.8819   -3.8145   23.4347 C   0  0  0  0  0  0
  -21.9191   -4.6962   22.3403 C   0  0  0  0  0  0
  -22.7781  -13.5194   21.1895 C   0  0  0  0  0  0
  -22.1660   -4.2149   21.0980 F   0  0  0  0  0  0
  -21.5627   -3.4537   25.7739 F   0  0  0  0  0  0
  -29.9157  -13.8187   20.3575 N   0  0  0  0  0  0
  -26.2853  -12.9478   20.3219 N   0  0  0  0  0  0
  -25.9331  -11.6597   20.5721 N   0  0  0  0  0  0
  -22.0434  -12.8183   22.0451 N   0  0  0  0  0  0
  -25.4047  -15.1959   20.4130 N   0  0  0  0  0  0
  -31.6947  -15.1505   20.1550 O   0  0  0  0  0  0
  -21.6639   -6.8880   21.4244 O   0  0  0  0  0  0
  -22.3467  -14.5499   20.6738 O   0  0  0  0  0  0
  -24.6541  -31.8336   23.1796 C   0  0  0  0  0  0
  -25.9264  -32.4641   23.8225 C   0  0  1  0  0  0
  -27.2180  -27.0270   20.1676 C   0  0  0  0  0  0
  -25.5969  -33.8452   24.2134 N   0  0  0  0  0  0
  -23.4640  -30.4495   21.5271 C   0  0  2  0  0  0
  -24.9159  -28.8573   20.1118 C   0  0  0  0  0  0
  -22.7625  -29.4493   22.4818 C   0  0  0  0  0  0
  -18.0315  -28.1404   22.8470 C   0  0  0  0  0  0
  -24.1494  -36.7232   23.2643 C   0  0  0  0  0  0
  -26.0279  -30.6730   21.3947 C   0  0  0  0  0  0
  -26.0981  -29.2732   20.7375 C   0  0  0  0  0  0
  -27.2479  -28.3774   20.7433 C   0  0  0  0  0  0
  -26.0068  -26.7422   19.4973 C   0  0  0  0  0  0
  -24.8899  -27.6092   19.4731 C   0  0  0  0  0  0
  -23.6980  -29.7732   20.1498 C   0  0  0  0  0  0
  -25.4129  -36.2999   24.0307 C   0  0  1  0  0  0
  -20.5935  -28.3741   23.1210 C   0  0  2  0  0  0
  -20.6796  -26.9434   22.5400 C   0  0  0  0  0  0
  -19.5768  -26.6381   21.5213 C   0  0  0  0  0  0
  -18.1951  -26.7938   22.1626 C   0  0  0  0  0  0
  -19.1575  -28.8893   23.2827 C   0  0  0  0  0  0
  -18.9486  -30.1484   23.8860 C   0  0  0  0  0  0
  -17.6480  -30.6595   24.0557 C   0  0  0  0  0  0
  -25.9087  -34.9379   23.5035 C   0  0  0  0  0  0
  -16.5372  -29.9084   23.6339 C   0  0  0  0  0  0
  -16.7298  -28.6505   23.0358 C   0  0  0  0  0  0
  -26.4545  -31.6548   25.0713 C   0  0  0  0  0  0
  -25.3700  -31.3773   26.1389 C   0  0  0  0  0  0
  -27.0422  -30.2927   24.6374 C   0  0  0  0  0  0
  -27.6054  -32.4336   25.7508 C   0  0  0  0  0  0
  -27.5575  -37.1771   24.8462 C   0  0  0  0  0  0
  -21.4305  -29.3047   22.3571 N   0  0  0  0  0  0
  -26.4280  -37.3725   23.9411 N   0  0  0  0  0  0
  -24.7360  -31.0093   22.0882 N   0  0  0  0  0  0
  -23.4217  -28.8051   23.3017 O   0  0  0  0  0  0
  -28.2344  -25.9668   20.2401 O   0  0  0  0  0  0
  -26.5686  -34.8895   22.4622 O   0  0  0  0  0  0
  -23.5631  -32.1261   23.6946 O   0  0  0  0  0  0
  -30.7860  -19.9105   20.3036 C   0  0  0  0  0  0
  -31.0381  -18.4699   20.3427 C   0  0  0  0  0  0
  -29.4394  -20.2281   20.3307 C   0  0  0  0  0  0
  -29.8535  -17.7752   20.4112 C   0  0  0  0  0  0
  -28.6556  -21.6098   20.2786 C   0  0  0  0  0  0
  -28.8963  -23.0420   20.2372 C   0  0  0  0  0  0
  -27.8932  -24.4049   20.0976 C   0  0  0  0  0  0
  -29.6686  -16.3151   20.4880 N   0  0  0  0  0  0
  -28.8603  -18.8691   20.4072 O   0  0  0  0  0  0
  -31.4709  -12.8804   19.1960 H   0  0  0  0  0  0
  -30.4734  -11.7655   20.0829 H   0  0  0  0  0  0
  -29.8818  -11.7445   17.6319 H   0  0  0  0  0  0
  -29.5899  -13.4656   17.6737 H   0  0  0  0  0  0
  -27.9959  -11.2739   19.0298 H   0  0  0  0  0  0
  -27.4055  -12.3993   17.8326 H   0  0  0  0  0  0
  -27.5615  -14.2468   19.3694 H   0  0  0  0  0  0
  -28.7873  -12.3997   21.4741 H   0  0  0  0  0  0
  -28.3295  -14.0685   21.7269 H   0  0  0  0  0  0
  -25.2772   -9.5679   22.4764 H   0  0  0  0  0  0
  -24.0005   -7.4631   22.7476 H   0  0  0  0  0  0
  -21.0850   -8.8778   19.8956 H   0  0  0  0  0  0
  -22.3711  -10.9672   19.6167 H   0  0  0  0  0  0
  -21.2011   -7.6149   23.9720 H   0  0  0  0  0  0
  -21.1484   -6.0521   25.9081 H   0  0  0  0  0  0
  -22.0596   -2.7608   23.2845 H   0  0  0  0  0  0
  -22.4055  -11.9845   22.4838 H   0  0  0  0  0  0
  -21.1052  -13.1209   22.2662 H   0  0  0  0  0  0
  -24.6269  -15.8387   20.5168 H   0  0  0  0  0  0
  -26.2333  -15.6401   20.0403 H   0  0  0  0  0  0
  -26.7334  -32.5212   23.0947 H   0  0  0  0  0  0
  -25.0080  -33.9547   25.0259 H   0  0  0  0  0  0
  -22.7720  -31.2783   21.3644 H   0  0  0  0  0  0
  -23.3764  -35.9554   23.3278 H   0  0  0  0  0  0
  -24.3578  -36.8897   22.2063 H   0  0  0  0  0  0
  -23.7244  -37.6415   23.6705 H   0  0  0  0  0  0
  -26.1962  -31.4208   20.6184 H   0  0  0  0  0  0
  -26.8930  -30.7269   22.0439 H   0  0  0  0  0  0
  -28.1448  -28.6927   21.2576 H   0  0  0  0  0  0
  -25.8829  -25.7909   19.0032 H   0  0  0  0  0  0
  -23.9904  -27.2855   18.9676 H   0  0  0  0  0  0
  -23.8463  -30.5453   19.3940 H   0  0  0  0  0  0
  -22.8100  -29.2226   19.8340 H   0  0  0  0  0  0
  -25.1321  -36.1808   25.0799 H   0  0  0  0  0  0
  -21.0023  -28.3338   24.1334 H   0  0  0  0  0  0
  -20.5688  -26.2357   23.3630 H   0  0  0  0  0  0
  -21.6660  -26.7424   22.1202 H   0  0  0  0  0  0
  -19.6929  -25.6281   21.1268 H   0  0  0  0  0  0
  -19.6705  -27.3169   20.6726 H   0  0  0  0  0  0
  -17.4218  -26.6675   21.4032 H   0  0  0  0  0  0
  -18.0353  -26.0092   22.9036 H   0  0  0  0  0  0
  -19.7963  -30.7311   24.2213 H   0  0  0  0  0  0
  -17.5033  -31.6272   24.5165 H   0  0  0  0  0  0
  -15.5369  -30.2974   23.7685 H   0  0  0  0  0  0
  -15.8699  -28.0812   22.7089 H   0  0  0  0  0  0
  -24.5886  -30.7113   25.7709 H   0  0  0  0  0  0
  -24.8881  -32.2965   26.4729 H   0  0  0  0  0  0
  -25.7955  -30.9002   27.0225 H   0  0  0  0  0  0
  -26.3064  -29.6628   24.1361 H   0  0  0  0  0  0
  -27.3969  -29.7258   25.4992 H   0  0  0  0  0  0
  -27.9001  -30.4130   23.9757 H   0  0  0  0  0  0
  -27.2633  -33.3666   26.1996 H   0  0  0  0  0  0
  -28.3912  -32.6847   25.0372 H   0  0  0  0  0  0
  -28.0668  -31.8522   26.5499 H   0  0  0  0  0  0
  -28.2566  -38.0093   24.7523 H   0  0  0  0  0  0
  -28.1098  -36.2620   24.6267 H   0  0  0  0  0  0
  -27.2295  -37.1389   25.8864 H   0  0  0  0  0  0
  -20.9541  -29.8749   21.6724 H   0  0  0  0  0  0
  -26.0136  -38.2785   24.1424 H   0  0  0  0  0  0
  -31.5575  -20.6654   20.2478 H   0  0  0  0  0  0
  -32.0129  -18.0024   20.3249 H   0  0  0  0  0  0
  -27.5947  -21.4051   20.2442 H   0  0  0  0  0  0
  -29.9387  -23.3241   20.2645 H   0  0  0  0  0  0
  -27.0431  -24.2147   20.7531 H   0  0  0  0  0  0
  -27.4956  -24.3024   19.0883 H   0  0  0  0  0  0
  -28.7006  -16.0666   20.6200 H   0  0  0  0  0  0
  1 25  1  0  0  0
  1 30  2  0  0  0
  1 78  1  0  0  0
  2  3  1  0  0  0
  2 25  1  0  0  0
  2 80  1  0  0  0
  2 81  1  0  0  0
  3  4  1  0  0  0
  3 82  1  0  0  0
  3 83  1  0  0  0
  4  5  1  0  0  0
  4 84  1  0  0  0
  4 85  1  0  0  0
  5  6  1  0  0  0
  5 26  1  0  0  0
  5 86  1  0  0  0
  6 25  1  0  0  0
  6 87  1  0  0  0
  6 88  1  0  0  0
  7  8  2  0  0  0
  7 26  1  0  0  0
  7 29  1  0  0  0
  8  9  1  0  0  0
  8 22  1  0  0  0
  9 10  1  0  0  0
  9 27  2  0  0  0
 10 11  2  0  0  0
 10 15  1  0  0  0
 11 12  1  0  0  0
 11 89  1  0  0  0
 12 13  2  0  0  0
 12 90  1  0  0  0
 13 14  1  0  0  0
 13 31  1  0  0  0
 14 15  2  0  0  0
 14 91  1  0  0  0
 15 92  1  0  0  0
 16 17  2  0  0  0
 16 21  1  0  0  0
 16 31  1  0  0  0
 17 18  1  0  0  0
 17 93  1  0  0  0
 18 19  2  0  0  0
 18 94  1  0  0  0
 19 20  1  0  0  0
 19 24  1  0  0  0
 20 21  2  0  0  0
 20 95  1  0  0  0
 21 23  1  0  0  0
 22 28  1  0  0  0
 22 32  2  0  0  0
 26 27  1  0  0  0
 28 96  1  0  0  0
 28 97  1  0  0  0
 29 98  1  0  0  0
 29 99  1  0  0  0
 33 34  1  0  0  0
 33 66  1  0  0  0
 33 70  2  0  0  0
 34 36  1  0  0  0
 34 59  1  0  0  0
 34100  1  0  0  0
 35 44  2  0  0  0
 35 45  1  0  0  0
 35 68  1  0  0  0
 36 56  1  0  0  0
 36101  1  0  0  0
 37 39  1  0  0  0
 37 47  1  0  0  0
 37 66  1  0  0  0
 37102  1  0  0  0
 38 43  2  0  0  0
 38 46  1  0  0  0
 38 47  1  0  0  0
 39 64  1  0  0  0
 39 67  2  0  0  0
 40 52  1  0  0  0
 40 53  2  0  0  0
 40 58  1  0  0  0
 41103  1  0  0  0
 41104  1  0  0  0
 41105  1  0  0  0
 41 48  1  0  0  0
 42 43  1  0  0  0
 42 66  1  0  0  0
 42106  1  0  0  0
 42107  1  0  0  0
 43 44  1  0  0  0
 44108  1  0  0  0
 45 46  2  0  0  0
 45109  1  0  0  0
 46110  1  0  0  0
 47111  1  0  0  0
 47112  1  0  0  0
 48 56  1  0  0  0
 48 65  1  0  0  0
 48113  1  0  0  0
 49 50  1  0  0  0
 49 53  1  0  0  0
 49 64  1  0  0  0
 49114  1  0  0  0
 50 51  1  0  0  0
 50115  1  0  0  0
 50116  1  0  0  0
 51 52  1  0  0  0
 51117  1  0  0  0
 51118  1  0  0  0
 52119  1  0  0  0
 52120  1  0  0  0
 53 54  1  0  0  0
 54 55  2  0  0  0
 54121  1  0  0  0
 55 57  1  0  0  0
 55122  1  0  0  0
 56 69  2  0  0  0
 57 58  2  0  0  0
 57123  1  0  0  0
 58124  1  0  0  0
 59 60  1  0  0  0
 59 61  1  0  0  0
 59 62  1  0  0  0
 60125  1  0  0  0
 60126  1  0  0  0
 60127  1  0  0  0
 61128  1  0  0  0
 61129  1  0  0  0
 61130  1  0  0  0
 62131  1  0  0  0
 62132  1  0  0  0
 62133  1  0  0  0
 63 65  1  0  0  0
 63134  1  0  0  0
 63135  1  0  0  0
 63136  1  0  0  0
 64137  1  0  0  0
 65138  1  0  0  0
 68 77  1  0  0  0
 71 72  1  0  0  0
 71 73  2  0  0  0
 71139  1  0  0  0
 72 74  2  0  0  0
 72140  1  0  0  0
 73 75  1  0  0  0
 73 79  1  0  0  0
 74 78  1  0  0  0
 74 79  1  0  0  0
 75 76  2  0  0  0
 75141  1  0  0  0
 76 77  1  0  0  0
 76142  1  0  0  0
 77143  1  0  0  0
 77144  1  0  0  0
 78145  1  0  0  0
M  ISO  4   1 100  68 101  77 101  78 100
M  END
> <chiral flag>
0

> <version>
0

> <s_m_source_file>
/data/baiqing/PycharmProjects/Reinvent-master-3.2/result/LINK_invent/BTK/process_docking_weight1_custom_product_contain_oxygen_bond_distance_aromatic_linkinvent_7_9_3/rearranged_h_0113.sdf

> <i_m_source_file_index>
45

> <r_mmod_Potential_Energy-OPLS-2005>
724.86572265625

> <r_mmod_Stretch_Energy-OPLS-2005>
362.864593505859

> <r_mmod_Bend_Energy-OPLS-2005>
303.401489257812

> <r_mmod_Torsional_Energy-OPLS-2005>
216.327178955078

> <r_mmod_Improper_Torsional_Energy-OPLS-2005>
4.57000541687012

> <r_mmod_Van_der_Waal_Energy-OPLS-2005>
110.78101348877

> <r_mmod_Electrostatic_Energy-OPLS-2005>
-378.463256835938

> <r_mmod_Solvation_Energy-OPLS-2005>
-210.653717041016

> <b_mmod_Minimization_Converged-OPLS-2005>
0

> <r_mmod_RMS_Derivative-OPLS-2005>
0.469120442867279

$$$$
45
                    3D
 Structure written by MMmdl.
160168  0  0  1  0            999 V2000
  -30.7174  -14.7724   20.4631 C   0  0  0  0  0  0
  -30.3965  -12.4990   19.4859 C   0  0  0  0  0  0
  -29.4903  -12.5036   18.2405 C   0  0  0  0  0  0
  -28.0226  -12.3266   18.6627 C   0  0  0  0  0  0
  -27.6237  -13.2502   19.8462 C   0  0  2  0  0  0
  -28.6749  -13.2783   20.9770 C   0  0  0  0  0  0
  -25.2408  -13.8236   20.5767 C   0  0  0  0  0  0
  -24.1720  -13.0449   20.9198 C   0  0  0  0  0  0
  -24.6365  -11.6942   20.8790 C   0  0  0  0  0  0
  -23.9072  -10.4296   21.0437 C   0  0  0  0  0  0
  -24.3621   -9.4203   21.9209 C   0  0  0  0  0  0
  -23.6303   -8.2231   22.0752 C   0  0  0  0  0  0
  -22.4290   -8.0272   21.3536 C   0  0  0  0  0  0
  -21.9931   -9.0254   20.4650 C   0  0  0  0  0  0
  -22.7254  -10.2133   20.3076 C   0  0  0  0  0  0
  -21.6858   -6.0748   22.5282 C   0  0  0  0  0  0
  -21.4006   -6.5652   23.8218 C   0  0  0  0  0  0
  -21.3661   -5.6795   24.9178 C   0  0  0  0  0  0
  -21.6042   -4.3055   24.7219 C   0  0  0  0  0  0
  -21.8823   -3.8157   23.4344 C   0  0  0  0  0  0
  -21.9184   -4.6976   22.3401 C   0  0  0  0  0  0
  -22.7739  -13.5199   21.1847 C   0  0  0  0  0  0
  -22.1658   -4.2170   21.0974 F   0  0  0  0  0  0
  -21.5624   -3.4540   25.7728 F   0  0  0  0  0  0
  -29.9512  -13.6268   20.3523 N   0  0  0  0  0  0
  -26.2859  -12.9488   20.3397 N   0  0  0  0  0  0
  -25.9307  -11.6613   20.5858 N   0  0  0  0  0  0
  -22.0412  -12.8195   22.0425 N   0  0  0  0  0  0
  -25.4106  -15.1974   20.4266 N   0  0  0  0  0  0
  -31.9201  -14.6695   20.2315 O   0  0  0  0  0  0
  -21.6627   -6.8887   21.4242 O   0  0  0  0  0  0
  -22.3425  -14.5529   20.6717 O   0  0  0  0  0  0
  -24.6320  -31.8560   23.1985 C   0  0  0  0  0  0
  -25.9145  -32.4744   23.8345 C   0  0  1  0  0  0
  -27.1930  -27.2340   20.1506 C   0  0  0  0  0  0
  -25.5942  -33.8549   24.2266 N   0  0  0  0  0  0
  -23.4298  -30.4781   21.5424 C   0  0  2  0  0  0
  -24.8755  -28.9275   20.1062 C   0  0  0  0  0  0
  -22.7512  -29.4591   22.4903 C   0  0  0  0  0  0
  -18.0298  -28.1375   22.8482 C   0  0  0  0  0  0
  -24.1499  -36.7282   23.2638 C   0  0  0  0  0  0
  -25.9778  -30.7583   21.3858 C   0  0  0  0  0  0
  -26.0462  -29.3804   20.7286 C   0  0  0  0  0  0
  -27.2135  -28.5461   20.7394 C   0  0  0  0  0  0
  -26.0136  -26.8695   19.4693 C   0  0  0  0  0  0
  -24.8668  -27.6833   19.4600 C   0  0  0  0  0  0
  -23.6490  -29.8173   20.1561 C   0  0  0  0  0  0
  -25.4127  -36.3071   24.0325 C   0  0  1  0  0  0
  -20.5897  -28.3691   23.1262 C   0  0  2  0  0  0
  -20.6786  -26.9406   22.5407 C   0  0  0  0  0  0
  -19.5755  -26.6368   21.5209 C   0  0  0  0  0  0
  -18.1936  -26.7916   22.1624 C   0  0  0  0  0  0
  -19.1554  -28.8851   23.2862 C   0  0  0  0  0  0
  -18.9475  -30.1451   23.8877 C   0  0  0  0  0  0
  -17.6473  -30.6572   24.0553 C   0  0  0  0  0  0
  -25.9067  -34.9433   23.5099 C   0  0  0  0  0  0
  -16.5360  -29.9061   23.6330 C   0  0  0  0  0  0
  -16.7286  -28.6482   23.0345 C   0  0  0  0  0  0
  -26.4502  -31.6566   25.0736 C   0  0  0  0  0  0
  -25.3716  -31.3712   26.1450 C   0  0  0  0  0  0
  -27.0344  -30.2980   24.6228 C   0  0  0  0  0  0
  -27.6077  -32.4288   25.7490 C   0  0  0  0  0  0
  -27.5589  -37.1798   24.8464 C   0  0  0  0  0  0
  -21.4216  -29.3041   22.3656 N   0  0  0  0  0  0
  -26.4303  -37.3767   23.9405 N   0  0  0  0  0  0
  -24.6989  -31.0495   22.0983 N   0  0  0  0  0  0
  -23.4216  -28.8132   23.3003 O   0  0  0  0  0  0
  -28.2456  -26.2884   20.2171 O   0  0  0  0  0  0
  -26.5633  -34.8905   22.4664 O   0  0  0  0  0  0
  -23.5467  -32.1398   23.7263 O   0  0  0  0  0  0
  -29.4741  -18.4805   20.3147 C   0  0  0  0  0  0
  -30.5051  -18.9674   19.5187 C   0  0  0  0  0  0
  -29.0749  -20.8662   20.3389 C   0  0  0  0  0  0
  -31.4843  -18.2200   18.7797 C   0  0  0  0  0  0
  -29.2077  -16.9272   20.5667 C   0  0  0  0  0  0
  -32.8001  -18.4179   18.5538 C   0  0  0  0  0  0
  -33.5740  -17.4966   17.6304 C   0  0  0  0  0  0
  -33.6233  -19.5451   19.1565 C   0  0  0  0  0  0
  -27.8342  -24.9113   22.1751 C   0  0  0  0  0  0
  -28.8502  -23.6080   20.1823 C   0  0  0  0  0  0
  -27.9212  -24.8663   20.6407 C   0  0  2  0  0  0
  -28.6631  -19.6169   20.7446 N   0  0  0  0  0  0
  -28.4897  -22.1735   20.5685 N   0  0  0  0  0  0
  -30.3106  -16.1019   20.5496 N   0  0  0  0  0  0
  -28.0696  -16.5021   20.7775 O   0  0  0  0  0  0
  -30.5334  -20.7285   19.3803 S   0  0  0  0  0  0
  -31.4383  -12.5774   19.1709 H   0  0  0  0  0  0
  -30.3221  -11.5524   20.0241 H   0  0  0  0  0  0
  -29.7808  -11.7101   17.5496 H   0  0  0  0  0  0
  -29.6088  -13.4433   17.7009 H   0  0  0  0  0  0
  -27.8908  -11.2819   18.9475 H   0  0  0  0  0  0
  -27.3600  -12.4941   17.8132 H   0  0  0  0  0  0
  -27.5895  -14.2539   19.4246 H   0  0  0  0  0  0
  -28.7392  -12.3148   21.4829 H   0  0  0  0  0  0
  -28.4123  -14.0137   21.7389 H   0  0  0  0  0  0
  -25.2772   -9.5652   22.4795 H   0  0  0  0  0  0
  -24.0019   -7.4589   22.7450 H   0  0  0  0  0  0
  -21.0872   -8.8787   19.8923 H   0  0  0  0  0  0
  -22.3749  -10.9683   19.6185 H   0  0  0  0  0  0
  -21.2003   -7.6165   23.9727 H   0  0  0  0  0  0
  -21.1486   -6.0529   25.9084 H   0  0  0  0  0  0
  -22.0604   -2.7623   23.2831 H   0  0  0  0  0  0
  -22.4056  -11.9884   22.4832 H   0  0  0  0  0  0
  -21.1023  -13.1202   22.2643 H   0  0  0  0  0  0
  -24.6552  -15.8573   20.5727 H   0  0  0  0  0  0
  -26.3251  -15.6450   20.3826 H   0  0  0  0  0  0
  -26.7204  -32.5379   23.1082 H   0  0  0  0  0  0
  -25.0104  -33.9700   25.0421 H   0  0  0  0  0  0
  -22.7265  -31.3007   21.3976 H   0  0  0  0  0  0
  -23.3763  -35.9613   23.3298 H   0  0  0  0  0  0
  -24.3597  -36.8906   22.2057 H   0  0  0  0  0  0
  -23.7253  -37.6478   23.6667 H   0  0  0  0  0  0
  -26.1251  -31.5152   20.6149 H   0  0  0  0  0  0
  -26.8531  -30.8042   22.0224 H   0  0  0  0  0  0
  -28.1030  -28.8798   21.2554 H   0  0  0  0  0  0
  -25.9584  -25.9258   18.9462 H   0  0  0  0  0  0
  -23.9787  -27.3417   18.9468 H   0  0  0  0  0  0
  -23.7737  -30.5961   19.4029 H   0  0  0  0  0  0
  -22.7674  -29.2513   19.8486 H   0  0  0  0  0  0
  -25.1306  -36.1925   25.0816 H   0  0  0  0  0  0
  -20.9987  -28.3262   24.1377 H   0  0  0  0  0  0
  -20.5678  -26.2295   23.3613 H   0  0  0  0  0  0
  -21.6653  -26.7418   22.1196 H   0  0  0  0  0  0
  -19.6921  -25.6275   21.1237 H   0  0  0  0  0  0
  -19.6689  -27.3177   20.6734 H   0  0  0  0  0  0
  -17.4207  -26.6655   21.4023 H   0  0  0  0  0  0
  -18.0346  -26.0053   22.9021 H   0  0  0  0  0  0
  -19.7941  -30.7277   24.2226 H   0  0  0  0  0  0
  -17.5014  -31.6249   24.5163 H   0  0  0  0  0  0
  -15.5353  -30.2954   23.7661 H   0  0  0  0  0  0
  -15.8682  -28.0792   22.7062 H   0  0  0  0  0  0
  -24.5894  -30.7064   25.7763 H   0  0  0  0  0  0
  -24.8902  -32.2870   26.4886 H   0  0  0  0  0  0
  -25.8022  -30.8870   27.0225 H   0  0  0  0  0  0
  -26.2927  -29.6721   24.1252 H   0  0  0  0  0  0
  -27.4022  -29.7249   25.4752 H   0  0  0  0  0  0
  -27.8814  -30.4254   23.9483 H   0  0  0  0  0  0
  -27.2735  -33.3620   26.2033 H   0  0  0  0  0  0
  -28.3898  -32.6780   25.0306 H   0  0  0  0  0  0
  -28.0728  -31.8418   26.5423 H   0  0  0  0  0  0
  -28.2588  -38.0109   24.7518 H   0  0  0  0  0  0
  -28.1095  -36.2637   24.6275 H   0  0  0  0  0  0
  -27.2302  -37.1430   25.8863 H   0  0  0  0  0  0
  -20.9415  -29.8776   21.6863 H   0  0  0  0  0  0
  -26.0178  -38.2839   24.1388 H   0  0  0  0  0  0
  -31.0587  -17.3656   18.2728 H   0  0  0  0  0  0
  -32.9606  -16.6625   17.2849 H   0  0  0  0  0  0
  -34.4443  -17.0767   18.1371 H   0  0  0  0  0  0
  -33.9211  -18.0452   16.7531 H   0  0  0  0  0  0
  -33.1290  -20.0234   19.9992 H   0  0  0  0  0  0
  -33.8359  -20.3034   18.4035 H   0  0  0  0  0  0
  -34.5739  -19.1641   19.5307 H   0  0  0  0  0  0
  -27.5076  -23.9561   22.5865 H   0  0  0  0  0  0
  -27.1221  -25.6635   22.5136 H   0  0  0  0  0  0
  -28.8018  -25.1514   22.6145 H   0  0  0  0  0  0
  -29.8651  -23.7873   20.5374 H   0  0  0  0  0  0
  -28.9235  -23.6294   19.0941 H   0  0  0  0  0  0
  -26.9244  -24.6059   20.2903 H   0  0  0  0  0  0
  -27.6260  -22.1210   21.0995 H   0  0  0  0  0  0
  -31.1290  -16.6835   20.4659 H   0  0  0  0  0  0
  1 25  1  0  0  0
  1 30  2  0  0  0
  1 84  1  0  0  0
  2  3  1  0  0  0
  2 25  1  0  0  0
  2 87  1  0  0  0
  2 88  1  0  0  0
  3  4  1  0  0  0
  3 89  1  0  0  0
  3 90  1  0  0  0
  4  5  1  0  0  0
  4 91  1  0  0  0
  4 92  1  0  0  0
  5  6  1  0  0  0
  5 26  1  0  0  0
  5 93  1  0  0  0
  6 25  1  0  0  0
  6 94  1  0  0  0
  6 95  1  0  0  0
  7  8  2  0  0  0
  7 26  1  0  0  0
  7 29  1  0  0  0
  8  9  1  0  0  0
  8 22  1  0  0  0
  9 10  1  0  0  0
  9 27  2  0  0  0
 10 11  2  0  0  0
 10 15  1  0  0  0
 11 12  1  0  0  0
 11 96  1  0  0  0
 12 13  2  0  0  0
 12 97  1  0  0  0
 13 14  1  0  0  0
 13 31  1  0  0  0
 14 15  2  0  0  0
 14 98  1  0  0  0
 15 99  1  0  0  0
 16 17  2  0  0  0
 16 21  1  0  0  0
 16 31  1  0  0  0
 17 18  1  0  0  0
 17100  1  0  0  0
 18 19  2  0  0  0
 18101  1  0  0  0
 19 20  1  0  0  0
 19 24  1  0  0  0
 20 21  2  0  0  0
 20102  1  0  0  0
 21 23  1  0  0  0
 22 28  1  0  0  0
 22 32  2  0  0  0
 26 27  1  0  0  0
 28103  1  0  0  0
 28104  1  0  0  0
 29105  1  0  0  0
 29106  1  0  0  0
 33 34  1  0  0  0
 33 66  1  0  0  0
 33 70  2  0  0  0
 34 36  1  0  0  0
 34 59  1  0  0  0
 34107  1  0  0  0
 35 44  2  0  0  0
 35 45  1  0  0  0
 35 68  1  0  0  0
 36 56  1  0  0  0
 36108  1  0  0  0
 37 39  1  0  0  0
 37 47  1  0  0  0
 37 66  1  0  0  0
 37109  1  0  0  0
 38 43  2  0  0  0
 38 46  1  0  0  0
 38 47  1  0  0  0
 39 64  1  0  0  0
 39 67  2  0  0  0
 40 52  1  0  0  0
 40 53  2  0  0  0
 40 58  1  0  0  0
 41110  1  0  0  0
 41111  1  0  0  0
 41112  1  0  0  0
 41 48  1  0  0  0
 42 43  1  0  0  0
 42 66  1  0  0  0
 42113  1  0  0  0
 42114  1  0  0  0
 43 44  1  0  0  0
 44115  1  0  0  0
 45 46  2  0  0  0
 45116  1  0  0  0
 46117  1  0  0  0
 47118  1  0  0  0
 47119  1  0  0  0
 48 56  1  0  0  0
 48 65  1  0  0  0
 48120  1  0  0  0
 49 50  1  0  0  0
 49 53  1  0  0  0
 49 64  1  0  0  0
 49121  1  0  0  0
 50 51  1  0  0  0
 50122  1  0  0  0
 50123  1  0  0  0
 51 52  1  0  0  0
 51124  1  0  0  0
 51125  1  0  0  0
 52126  1  0  0  0
 52127  1  0  0  0
 53 54  1  0  0  0
 54 55  2  0  0  0
 54128  1  0  0  0
 55 57  1  0  0  0
 55129  1  0  0  0
 56 69  2  0  0  0
 57 58  2  0  0  0
 57130  1  0  0  0
 58131  1  0  0  0
 59 60  1  0  0  0
 59 61  1  0  0  0
 59 62  1  0  0  0
 60132  1  0  0  0
 60133  1  0  0  0
 60134  1  0  0  0
 61135  1  0  0  0
 61136  1  0  0  0
 61137  1  0  0  0
 62138  1  0  0  0
 62139  1  0  0  0
 62140  1  0  0  0
 63 65  1  0  0  0
 63141  1  0  0  0
 63142  1  0  0  0
 63143  1  0  0  0
 64144  1  0  0  0
 65145  1  0  0  0
 68 81  1  0  0  0
 71 72  2  0  0  0
 71 75  1  0  0  0
 71 82  1  0  0  0
 72 74  1  0  0  0
 72 86  1  0  0  0
 73 82  2  0  0  0
 73 83  1  0  0  0
 73 86  1  0  0  0
 74 76  2  0  0  0
 74146  1  0  0  0
 75 84  1  0  0  0
 75 85  2  0  0  0
 76 77  1  0  0  0
 76 78  1  0  0  0
 77147  1  0  0  0
 77148  1  0  0  0
 77149  1  0  0  0
 78150  1  0  0  0
 78151  1  0  0  0
 78152  1  0  0  0
 79153  1  0  0  0
 79154  1  0  0  0
 79155  1  0  0  0
 79 81  1  0  0  0
 80 81  1  0  0  0
 80 83  1  0  0  0
 80156  1  0  0  0
 80157  1  0  0  0
 81158  1  0  0  0
 83159  1  0  0  0
 84160  1  0  0  0
M  ISO  4   1 100  68 101  81 101  84 100
M  END
> <chiral flag>
0

> <version>
0

> <s_m_source_file>
/data/baiqing/PycharmProjects/Reinvent-master-3.2/result/LINK_invent/BTK/process_docking_weight1_custom_product_contain_oxygen_bond_distance_aromatic_linkinvent_7_9_3/rearranged_h_0113.sdf

> <i_m_source_file_index>
46

> <r_mmod_Potential_Energy-OPLS-2005>
125.800918579102

> <r_mmod_Stretch_Energy-OPLS-2005>
132.955108642578

> <r_mmod_Bend_Energy-OPLS-2005>
249.863754272461

> <r_mmod_Torsional_Energy-OPLS-2005>
244.346832275391

> <r_mmod_Improper_Torsional_Energy-OPLS-2005>
7.2898006439209

> <r_mmod_Van_der_Waal_Energy-OPLS-2005>
117.885986328125

> <r_mmod_Electrostatic_Energy-OPLS-2005>
-544.722778320312

> <r_mmod_Solvation_Energy-OPLS-2005>
-199.928192138672

> <b_mmod_Minimization_Converged-OPLS-2005>
0

> <r_mmod_RMS_Derivative-OPLS-2005>
3.0150306224823

$$$$
46
                    3D
 Structure written by MMmdl.
156164  0  0  1  0            999 V2000
  -30.6067  -14.7132   20.4925 C   0  0  0  0  0  0
  -30.4492  -12.4421   19.4744 C   0  0  0  0  0  0
  -29.5207  -12.5111   18.2428 C   0  0  0  0  0  0
  -28.0485  -12.3324   18.6529 C   0  0  0  0  0  0
  -27.6537  -13.2273   19.8589 C   0  0  2  0  0  0
  -28.6930  -13.1190   20.9998 C   0  0  0  0  0  0
  -25.2552  -13.8198   20.5687 C   0  0  0  0  0  0
  -24.1815  -13.0456   20.9171 C   0  0  0  0  0  0
  -24.6384  -11.6919   20.8722 C   0  0  0  0  0  0
  -23.9049  -10.4302   21.0406 C   0  0  0  0  0  0
  -24.3614   -9.4212   21.9196 C   0  0  0  0  0  0
  -23.6269   -8.2256   22.0771 C   0  0  0  0  0  0
  -22.4250   -8.0297   21.3568 C   0  0  0  0  0  0
  -21.9883   -9.0260   20.4673 C   0  0  0  0  0  0
  -22.7215  -10.2135   20.3065 C   0  0  0  0  0  0
  -21.6833   -6.0719   22.5267 C   0  0  0  0  0  0
  -21.4011   -6.5628   23.8208 C   0  0  0  0  0  0
  -21.3659   -5.6789   24.9179 C   0  0  0  0  0  0
  -21.6042   -4.3048   24.7214 C   0  0  0  0  0  0
  -21.8824   -3.8132   23.4344 C   0  0  0  0  0  0
  -21.9179   -4.6950   22.3399 C   0  0  0  0  0  0
  -22.7849  -13.5250   21.1823 C   0  0  0  0  0  0
  -22.1656   -4.2144   21.0976 F   0  0  0  0  0  0
  -21.5630   -3.4529   25.7720 F   0  0  0  0  0  0
  -30.0062  -13.4748   20.4400 N   0  0  0  0  0  0
  -26.2984  -12.9394   20.3278 N   0  0  0  0  0  0
  -25.9309  -11.6540   20.5713 N   0  0  0  0  0  0
  -22.0453  -12.8256   22.0379 N   0  0  0  0  0  0
  -25.4263  -15.1922   20.4135 N   0  0  0  0  0  0
  -31.7617  -14.8610   20.0822 O   0  0  0  0  0  0
  -21.6655   -6.8860   21.4230 O   0  0  0  0  0  0
  -22.3515  -14.5538   20.6644 O   0  0  0  0  0  0
  -24.6339  -31.8534   23.1938 C   0  0  0  0  0  0
  -25.9177  -32.4737   23.8258 C   0  0  1  0  0  0
  -27.2351  -27.2709   20.1077 C   0  0  0  0  0  0
  -25.5938  -33.8526   24.2190 N   0  0  0  0  0  0
  -23.4305  -30.4763   21.5370 C   0  0  2  0  0  0
  -24.8757  -28.9197   20.1061 C   0  0  0  0  0  0
  -22.7496  -29.4640   22.4878 C   0  0  0  0  0  0
  -18.0300  -28.1464   22.8515 C   0  0  0  0  0  0
  -24.1464  -36.7248   23.2653 C   0  0  0  0  0  0
  -25.9747  -30.7708   21.3704 C   0  0  0  0  0  0
  -26.0451  -29.3917   20.7152 C   0  0  0  0  0  0
  -27.2214  -28.5777   20.7074 C   0  0  0  0  0  0
  -26.0350  -26.8606   19.4820 C   0  0  0  0  0  0
  -24.8770  -27.6645   19.4799 C   0  0  0  0  0  0
  -23.6470  -29.8050   20.1539 C   0  0  0  0  0  0
  -25.4111  -36.3052   24.0326 C   0  0  1  0  0  0
  -20.5909  -28.3781   23.1252 C   0  0  2  0  0  0
  -20.6780  -26.9484   22.5402 C   0  0  0  0  0  0
  -19.5742  -26.6460   21.5224 C   0  0  0  0  0  0
  -18.1936  -26.8003   22.1656 C   0  0  0  0  0  0
  -19.1562  -28.8928   23.2890 C   0  0  0  0  0  0
  -18.9486  -30.1519   23.8934 C   0  0  0  0  0  0
  -17.6483  -30.6653   24.0605 C   0  0  0  0  0  0
  -25.9074  -34.9434   23.5070 C   0  0  0  0  0  0
  -16.5369  -29.9164   23.6348 C   0  0  0  0  0  0
  -16.7279  -28.6573   23.0376 C   0  0  0  0  0  0
  -26.4533  -31.6597   25.0672 C   0  0  0  0  0  0
  -25.3722  -31.3787   26.1367 C   0  0  0  0  0  0
  -27.0396  -30.3009   24.6198 C   0  0  0  0  0  0
  -27.6106  -32.4340   25.7448 C   0  0  0  0  0  0
  -27.5572  -37.1775   24.8486 C   0  0  0  0  0  0
  -21.4202  -29.3084   22.3610 N   0  0  0  0  0  0
  -26.4281  -37.3765   23.9441 N   0  0  0  0  0  0
  -24.6990  -31.0511   22.0912 N   0  0  0  0  0  0
  -23.4176  -28.8210   23.3021 O   0  0  0  0  0  0
  -28.3672  -26.4256   20.1866 O   0  0  0  0  0  0
  -26.5650  -34.8926   22.4641 O   0  0  0  0  0  0
  -23.5486  -32.1313   23.7238 O   0  0  0  0  0  0
  -29.5669  -19.1635   19.0866 C   0  0  0  0  0  0
  -30.1974  -18.2167   21.6118 C   0  0  0  0  0  0
  -29.8962  -20.1536   20.0547 C   0  0  0  0  0  0
  -30.2199  -19.6299   21.3418 C   0  0  0  0  0  0
  -29.9299  -17.2294   20.6141 C   0  0  0  0  0  0
  -29.5760  -17.7437   19.3353 C   0  0  0  0  0  0
  -29.8799  -22.7372   19.6497 C   0  0  0  0  0  0
  -28.8570  -17.2609   17.0871 C   0  0  0  0  0  0
  -28.7547  -23.6726   20.2724 C   0  0  0  0  0  0
  -28.5027  -25.0923   19.5089 C   0  0  0  0  0  0
  -30.2623  -21.4757   19.5892 N   0  0  0  0  0  0
  -30.6637  -20.5038   22.3292 N   0  0  0  0  0  0
  -29.8485  -15.7821   20.9238 N   0  0  0  0  0  0
  -29.2582  -16.8065   18.3747 O   0  0  0  0  0  0
  -31.4879  -12.5792   19.1722 H   0  0  0  0  0  0
  -30.4104  -11.4560   19.9322 H   0  0  0  0  0  0
  -29.8017  -11.7534   17.5097 H   0  0  0  0  0  0
  -29.6494  -13.4750   17.7464 H   0  0  0  0  0  0
  -27.8951  -11.2813   18.9055 H   0  0  0  0  0  0
  -27.3949  -12.5371   17.8050 H   0  0  0  0  0  0
  -27.6607  -14.2549   19.4928 H   0  0  0  0  0  0
  -28.7158  -12.1071   21.4053 H   0  0  0  0  0  0
  -28.4188  -13.7646   21.8340 H   0  0  0  0  0  0
  -25.2763   -9.5678   22.4772 H   0  0  0  0  0  0
  -23.9960   -7.4655   22.7504 H   0  0  0  0  0  0
  -21.0804   -8.8768   19.8994 H   0  0  0  0  0  0
  -22.3664  -10.9668   19.6180 H   0  0  0  0  0  0
  -21.2015   -7.6147   23.9692 H   0  0  0  0  0  0
  -21.1487   -6.0540   25.9078 H   0  0  0  0  0  0
  -22.0598   -2.7590   23.2847 H   0  0  0  0  0  0
  -22.4019  -11.9939   22.4856 H   0  0  0  0  0  0
  -21.1107  -13.1366   22.2597 H   0  0  0  0  0  0
  -24.6643  -15.8481   20.5438 H   0  0  0  0  0  0
  -26.2684  -15.6311   20.0582 H   0  0  0  0  0  0
  -26.7266  -32.5400   23.1018 H   0  0  0  0  0  0
  -25.0030  -33.9600   25.0287 H   0  0  0  0  0  0
  -22.7317  -31.3019   21.3838 H   0  0  0  0  0  0
  -23.3725  -35.9585   23.3334 H   0  0  0  0  0  0
  -24.3502  -36.8822   22.2056 H   0  0  0  0  0  0
  -23.7179  -37.6454   23.6623 H   0  0  0  0  0  0
  -26.1110  -31.5272   20.5967 H   0  0  0  0  0  0
  -26.8564  -30.8171   21.9980 H   0  0  0  0  0  0
  -28.1236  -28.9304   21.1888 H   0  0  0  0  0  0
  -25.9422  -25.9004   19.0018 H   0  0  0  0  0  0
  -23.9842  -27.2982   18.9930 H   0  0  0  0  0  0
  -23.7703  -30.5724   19.3877 H   0  0  0  0  0  0
  -22.7660  -29.2341   19.8586 H   0  0  0  0  0  0
  -25.1282  -36.1912   25.0812 H   0  0  0  0  0  0
  -21.0008  -28.3386   24.1385 H   0  0  0  0  0  0
  -20.5695  -26.2380   23.3613 H   0  0  0  0  0  0
  -21.6645  -26.7524   22.1197 H   0  0  0  0  0  0
  -19.6861  -25.6374   21.1262 H   0  0  0  0  0  0
  -19.6680  -27.3275   20.6756 H   0  0  0  0  0  0
  -17.4176  -26.6771   21.4088 H   0  0  0  0  0  0
  -18.0354  -26.0171   22.9081 H   0  0  0  0  0  0
  -19.7959  -30.7345   24.2324 H   0  0  0  0  0  0
  -17.5041  -31.6340   24.5225 H   0  0  0  0  0  0
  -15.5368  -30.3087   23.7672 H   0  0  0  0  0  0
  -15.8679  -28.0903   22.7088 H   0  0  0  0  0  0
  -24.5904  -30.7143   25.7677 H   0  0  0  0  0  0
  -24.8931  -32.2998   26.4724 H   0  0  0  0  0  0
  -25.8011  -30.8997   27.0175 H   0  0  0  0  0  0
  -26.3002  -29.6728   24.1231 H   0  0  0  0  0  0
  -27.4064  -29.7336   25.4767 H   0  0  0  0  0  0
  -27.8873  -30.4268   23.9446 H   0  0  0  0  0  0
  -27.2734  -33.3651   26.2020 H   0  0  0  0  0  0
  -28.3933  -32.6875   25.0280 H   0  0  0  0  0  0
  -28.0751  -31.8443   26.5361 H   0  0  0  0  0  0
  -28.2649  -38.0022   24.7528 H   0  0  0  0  0  0
  -28.0993  -36.2557   24.6336 H   0  0  0  0  0  0
  -27.2267  -37.1487   25.8879 H   0  0  0  0  0  0
  -20.9393  -29.8742   21.6766 H   0  0  0  0  0  0
  -26.0142  -38.2832   24.1461 H   0  0  0  0  0  0
  -29.3613  -19.5272   18.0941 H   0  0  0  0  0  0
  -30.4431  -17.8770   22.6064 H   0  0  0  0  0  0
  -30.5565  -23.3908   19.0933 H   0  0  0  0  0  0
  -28.6742  -16.4061   16.4380 H   0  0  0  0  0  0
  -29.6277  -17.8641   16.6048 H   0  0  0  0  0  0
  -27.9285  -17.8284   17.1415 H   0  0  0  0  0  0
  -27.8144  -23.1158   20.3087 H   0  0  0  0  0  0
  -29.0392  -23.8658   21.3060 H   0  0  0  0  0  0
  -27.7259  -24.9270   18.7671 H   0  0  0  0  0  0
  -29.3777  -25.2663   18.8852 H   0  0  0  0  0  0
  -30.6712  -20.2313   23.3071 H   0  0  0  0  0  0
  -30.6453  -21.5057   22.1571 H   0  0  0  0  0  0
  -28.9848  -15.5020   21.3643 H   0  0  0  0  0  0
  1 25  1  0  0  0
  1 30  2  0  0  0
  1 83  1  0  0  0
  2  3  1  0  0  0
  2 25  1  0  0  0
  2 85  1  0  0  0
  2 86  1  0  0  0
  3  4  1  0  0  0
  3 87  1  0  0  0
  3 88  1  0  0  0
  4  5  1  0  0  0
  4 89  1  0  0  0
  4 90  1  0  0  0
  5  6  1  0  0  0
  5 26  1  0  0  0
  5 91  1  0  0  0
  6 25  1  0  0  0
  6 92  1  0  0  0
  6 93  1  0  0  0
  7  8  2  0  0  0
  7 26  1  0  0  0
  7 29  1  0  0  0
  8  9  1  0  0  0
  8 22  1  0  0  0
  9 10  1  0  0  0
  9 27  2  0  0  0
 10 11  2  0  0  0
 10 15  1  0  0  0
 11 12  1  0  0  0
 11 94  1  0  0  0
 12 13  2  0  0  0
 12 95  1  0  0  0
 13 14  1  0  0  0
 13 31  1  0  0  0
 14 15  2  0  0  0
 14 96  1  0  0  0
 15 97  1  0  0  0
 16 17  2  0  0  0
 16 21  1  0  0  0
 16 31  1  0  0  0
 17 18  1  0  0  0
 17 98  1  0  0  0
 18 19  2  0  0  0
 18 99  1  0  0  0
 19 20  1  0  0  0
 19 24  1  0  0  0
 20 21  2  0  0  0
 20100  1  0  0  0
 21 23  1  0  0  0
 22 28  1  0  0  0
 22 32  2  0  0  0
 26 27  1  0  0  0
 28101  1  0  0  0
 28102  1  0  0  0
 29103  1  0  0  0
 29104  1  0  0  0
 33 34  1  0  0  0
 33 66  1  0  0  0
 33 70  2  0  0  0
 34 36  1  0  0  0
 34 59  1  0  0  0
 34105  1  0  0  0
 35 44  2  0  0  0
 35 45  1  0  0  0
 35 68  1  0  0  0
 36 56  1  0  0  0
 36106  1  0  0  0
 37 39  1  0  0  0
 37 47  1  0  0  0
 37 66  1  0  0  0
 37107  1  0  0  0
 38 43  2  0  0  0
 38 46  1  0  0  0
 38 47  1  0  0  0
 39 64  1  0  0  0
 39 67  2  0  0  0
 40 52  1  0  0  0
 40 53  2  0  0  0
 40 58  1  0  0  0
 41108  1  0  0  0
 41109  1  0  0  0
 41110  1  0  0  0
 41 48  1  0  0  0
 42 43  1  0  0  0
 42 66  1  0  0  0
 42111  1  0  0  0
 42112  1  0  0  0
 43 44  1  0  0  0
 44113  1  0  0  0
 45 46  2  0  0  0
 45114  1  0  0  0
 46115  1  0  0  0
 47116  1  0  0  0
 47117  1  0  0  0
 48 56  1  0  0  0
 48 65  1  0  0  0
 48118  1  0  0  0
 49 50  1  0  0  0
 49 53  1  0  0  0
 49 64  1  0  0  0
 49119  1  0  0  0
 50 51  1  0  0  0
 50120  1  0  0  0
 50121  1  0  0  0
 51 52  1  0  0  0
 51122  1  0  0  0
 51123  1  0  0  0
 52124  1  0  0  0
 52125  1  0  0  0
 53 54  1  0  0  0
 54 55  2  0  0  0
 54126  1  0  0  0
 55 57  1  0  0  0
 55127  1  0  0  0
 56 69  2  0  0  0
 57 58  2  0  0  0
 57128  1  0  0  0
 58129  1  0  0  0
 59 60  1  0  0  0
 59 61  1  0  0  0
 59 62  1  0  0  0
 60130  1  0  0  0
 60131  1  0  0  0
 60132  1  0  0  0
 61133  1  0  0  0
 61134  1  0  0  0
 61135  1  0  0  0
 62136  1  0  0  0
 62137  1  0  0  0
 62138  1  0  0  0
 63 65  1  0  0  0
 63139  1  0  0  0
 63140  1  0  0  0
 63141  1  0  0  0
 64142  1  0  0  0
 65143  1  0  0  0
 68 80  1  0  0  0
 71 73  2  0  0  0
 71 76  1  0  0  0
 71144  1  0  0  0
 72 74  2  0  0  0
 72 75  1  0  0  0
 72145  1  0  0  0
 73 74  1  0  0  0
 73 81  1  0  0  0
 74 82  1  0  0  0
 75 76  2  0  0  0
 75 83  1  0  0  0
 76 84  1  0  0  0
 77 79  1  0  0  0
 77 81  2  0  0  0
 77146  1  0  0  0
 78 84  1  0  0  0
 78147  1  0  0  0
 78148  1  0  0  0
 78149  1  0  0  0
 79 80  1  0  0  0
 79150  1  0  0  0
 79151  1  0  0  0
 80152  1  0  0  0
 80153  1  0  0  0
 82154  1  0  0  0
 82155  1  0  0  0
 83156  1  0  0  0
M  ISO  4   1 100  68 101  80 101  83 100
M  END
> <chiral flag>
0

> <version>
0

> <s_m_source_file>
/data/baiqing/PycharmProjects/Reinvent-master-3.2/result/LINK_invent/BTK/process_docking_weight1_custom_product_contain_oxygen_bond_distance_aromatic_linkinvent_7_9_3/rearranged_h_0113.sdf

> <i_m_source_file_index>
47

> <r_mmod_Potential_Energy-OPLS-2005>
183.044036865234

> <r_mmod_Stretch_Energy-OPLS-2005>
113.650772094727

> <r_mmod_Bend_Energy-OPLS-2005>
272.951477050781

> <r_mmod_Torsional_Energy-OPLS-2005>
272.905120849609

> <r_mmod_Improper_Torsional_Energy-OPLS-2005>
9.42626857757568

> <r_mmod_Van_der_Waal_Energy-OPLS-2005>
141.03938293457

> <r_mmod_Electrostatic_Energy-OPLS-2005>
-462.005767822266

> <r_mmod_Solvation_Energy-OPLS-2005>
-237.010650634766

> <b_mmod_Minimization_Converged-OPLS-2005>
0

> <r_mmod_RMS_Derivative-OPLS-2005>
5.30999422073364

$$$$
47
                    3D
 Structure written by MMmdl.
161170  0  0  1  0            999 V2000
  -30.6133  -14.6218   20.5076 C   0  0  0  0  0  0
  -30.4341  -12.3979   19.4395 C   0  0  0  0  0  0
  -29.4964  -12.5334   18.2219 C   0  0  0  0  0  0
  -28.0197  -12.3666   18.6244 C   0  0  0  0  0  0
  -27.6443  -13.2187   19.8639 C   0  0  2  0  0  0
  -28.6863  -13.0575   20.9905 C   0  0  0  0  0  0
  -25.2502  -13.8189   20.5676 C   0  0  0  0  0  0
  -24.1780  -13.0447   20.9211 C   0  0  0  0  0  0
  -24.6360  -11.6919   20.8751 C   0  0  0  0  0  0
  -23.9043  -10.4305   21.0430 C   0  0  0  0  0  0
  -24.3598   -9.4228   21.9210 C   0  0  0  0  0  0
  -23.6285   -8.2269   22.0759 C   0  0  0  0  0  0
  -22.4281   -8.0296   21.3556 C   0  0  0  0  0  0
  -21.9919   -9.0266   20.4646 C   0  0  0  0  0  0
  -22.7230  -10.2148   20.3080 C   0  0  0  0  0  0
  -21.6878   -6.0730   22.5296 C   0  0  0  0  0  0
  -21.4006   -6.5639   23.8210 C   0  0  0  0  0  0
  -21.3676   -5.6799   24.9182 C   0  0  0  0  0  0
  -21.6047   -4.3067   24.7242 C   0  0  0  0  0  0
  -21.8831   -3.8151   23.4374 C   0  0  0  0  0  0
  -21.9202   -4.6961   22.3416 C   0  0  0  0  0  0
  -22.7798  -13.5223   21.1903 C   0  0  0  0  0  0
  -22.1666   -4.2140   21.0993 F   0  0  0  0  0  0
  -21.5636   -3.4556   25.7758 F   0  0  0  0  0  0
  -30.0052  -13.4005   20.4344 N   0  0  0  0  0  0
  -26.2919  -12.9355   20.3315 N   0  0  0  0  0  0
  -25.9278  -11.6513   20.5748 N   0  0  0  0  0  0
  -22.0453  -12.8173   22.0444 N   0  0  0  0  0  0
  -25.4231  -15.1916   20.4076 N   0  0  0  0  0  0
  -31.7928  -14.7602   20.1592 O   0  0  0  0  0  0
  -21.6680   -6.8880   21.4248 O   0  0  0  0  0  0
  -22.3489  -14.5562   20.6810 O   0  0  0  0  0  0
  -24.6226  -31.8636   23.2040 C   0  0  0  0  0  0
  -25.9117  -32.4770   23.8348 C   0  0  1  0  0  0
  -27.2195  -27.3698   20.0778 C   0  0  0  0  0  0
  -25.5959  -33.8587   24.2267 N   0  0  0  0  0  0
  -23.4121  -30.4861   21.5502 C   0  0  2  0  0  0
  -24.8538  -28.9545   20.0976 C   0  0  0  0  0  0
  -22.7468  -29.4628   22.4994 C   0  0  0  0  0  0
  -18.0270  -28.1383   22.8508 C   0  0  0  0  0  0
  -24.1500  -36.7312   23.2634 C   0  0  0  0  0  0
  -25.9438  -30.8106   21.3635 C   0  0  0  0  0  0
  -26.0183  -29.4405   20.7065 C   0  0  0  0  0  0
  -27.2017  -28.6521   20.6991 C   0  0  0  0  0  0
  -26.0342  -26.9231   19.4601 C   0  0  0  0  0  0
  -24.8628  -27.7018   19.4651 C   0  0  0  0  0  0
  -23.6164  -29.8258   20.1605 C   0  0  0  0  0  0
  -25.4118  -36.3082   24.0293 C   0  0  1  0  0  0
  -20.5864  -28.3683   23.1319 C   0  0  2  0  0  0
  -20.6777  -26.9425   22.5420 C   0  0  0  0  0  0
  -19.5740  -26.6397   21.5235 C   0  0  0  0  0  0
  -18.1919  -26.7937   22.1641 C   0  0  0  0  0  0
  -19.1526  -28.8842   23.2911 C   0  0  0  0  0  0
  -18.9448  -30.1439   23.8938 C   0  0  0  0  0  0
  -17.6448  -30.6602   24.0563 C   0  0  0  0  0  0
  -25.9054  -34.9453   23.5079 C   0  0  0  0  0  0
  -16.5337  -29.9100   23.6328 C   0  0  0  0  0  0
  -16.7265  -28.6502   23.0393 C   0  0  0  0  0  0
  -26.4508  -31.6552   25.0703 C   0  0  0  0  0  0
  -25.3751  -31.3657   26.1411 C   0  0  0  0  0  0
  -27.0324  -30.2979   24.6096 C   0  0  0  0  0  0
  -27.6063  -32.4267   25.7531 C   0  0  0  0  0  0
  -27.5570  -37.1817   24.8453 C   0  0  0  0  0  0
  -21.4175  -29.3030   22.3716 N   0  0  0  0  0  0
  -26.4293  -37.3771   23.9391 N   0  0  0  0  0  0
  -24.6793  -31.0672   22.0973 N   0  0  0  0  0  0
  -23.4197  -28.8171   23.3056 O   0  0  0  0  0  0
  -28.3511  -26.5606   20.1188 O   0  0  0  0  0  0
  -26.5640  -34.8912   22.4645 O   0  0  0  0  0  0
  -23.5414  -32.1404   23.7410 O   0  0  0  0  0  0
  -29.4785  -19.3989   20.5237 C   0  0  0  0  0  0
  -30.6463  -19.3883   19.7896 C   0  0  0  0  0  0
  -29.9733  -17.0934   20.5038 C   0  0  0  0  0  0
  -28.1817  -24.0292   19.4048 C   0  0  0  0  0  0
  -27.3328  -23.2530   18.7047 C   0  0  0  0  0  0
  -28.8925  -23.1273   20.3290 C   0  0  0  0  0  0
  -27.4099  -21.8057   19.1377 C   0  0  0  0  0  0
  -31.4457  -20.5526   19.3108 C   0  0  0  0  0  0
  -24.9564  -23.3048   17.7715 C   0  0  0  0  0  0
  -28.7029  -20.6462   21.0326 C   0  0  0  0  0  0
  -28.5739  -25.5209   19.1142 C   0  0  0  0  0  0
  -26.4421  -23.6292   17.5219 C   0  0  0  0  0  0
  -29.1218  -18.0683   20.9209 N   0  0  0  0  0  0
  -28.4678  -21.8375   20.1415 N   0  0  0  0  0  0
  -29.8097  -15.6845   20.8293 N   0  0  0  0  0  0
  -29.7268  -23.4656   21.1720 O   0  0  0  0  0  0
  -31.2557  -17.7666   19.5040 S   0  0  0  0  0  0
  -31.4640  -12.5498   19.1116 H   0  0  0  0  0  0
  -30.3950  -11.3956   19.8660 H   0  0  0  0  0  0
  -29.7617  -11.8139   17.4470 H   0  0  0  0  0  0
  -29.6302  -13.5205   17.7763 H   0  0  0  0  0  0
  -27.8303  -11.3094   18.8180 H   0  0  0  0  0  0
  -27.3820  -12.6446   17.7859 H   0  0  0  0  0  0
  -27.6656  -14.2586   19.5371 H   0  0  0  0  0  0
  -28.6896  -12.0297   21.3584 H   0  0  0  0  0  0
  -28.4282  -13.6820   21.8468 H   0  0  0  0  0  0
  -25.2727   -9.5737   22.4791 H   0  0  0  0  0  0
  -24.0025   -7.4673   22.7486 H   0  0  0  0  0  0
  -21.0867   -8.8757   19.8942 H   0  0  0  0  0  0
  -22.3673  -10.9687   19.6203 H   0  0  0  0  0  0
  -21.1969   -7.6141   23.9692 H   0  0  0  0  0  0
  -21.1478   -6.0543   25.9069 H   0  0  0  0  0  0
  -22.0586   -2.7620   23.2892 H   0  0  0  0  0  0
  -22.4052  -11.9780   22.4749 H   0  0  0  0  0  0
  -21.1093  -13.1214   22.2718 H   0  0  0  0  0  0
  -24.6621  -15.8545   20.5095 H   0  0  0  0  0  0
  -26.2726  -15.6276   20.0727 H   0  0  0  0  0  0
  -26.7201  -32.5441   23.1126 H   0  0  0  0  0  0
  -25.0070  -33.9735   25.0380 H   0  0  0  0  0  0
  -22.7026  -31.3030   21.4140 H   0  0  0  0  0  0
  -23.3754  -35.9663   23.3283 H   0  0  0  0  0  0
  -24.3603  -36.8963   22.2062 H   0  0  0  0  0  0
  -23.7263  -37.6503   23.6676 H   0  0  0  0  0  0
  -26.0578  -31.5784   20.5974 H   0  0  0  0  0  0
  -26.8316  -30.8671   21.9821 H   0  0  0  0  0  0
  -28.0988  -29.0271   21.1748 H   0  0  0  0  0  0
  -25.9867  -25.9578   18.9861 H   0  0  0  0  0  0
  -23.9737  -27.3293   18.9749 H   0  0  0  0  0  0
  -23.7094  -30.6018   19.3990 H   0  0  0  0  0  0
  -22.7393  -29.2413   19.8762 H   0  0  0  0  0  0
  -25.1311  -36.1937   25.0783 H   0  0  0  0  0  0
  -20.9955  -28.3267   24.1442 H   0  0  0  0  0  0
  -20.5749  -26.2305   23.3611 H   0  0  0  0  0  0
  -21.6641  -26.7517   22.1158 H   0  0  0  0  0  0
  -19.6926  -25.6319   21.1249 H   0  0  0  0  0  0
  -19.6668  -27.3237   20.6781 H   0  0  0  0  0  0
  -17.4201  -26.6709   21.4036 H   0  0  0  0  0  0
  -18.0303  -26.0070   22.9013 H   0  0  0  0  0  0
  -19.7904  -30.7249   24.2375 H   0  0  0  0  0  0
  -17.4984  -31.6299   24.5142 H   0  0  0  0  0  0
  -15.5337  -30.3016   23.7617 H   0  0  0  0  0  0
  -15.8656  -28.0805   22.7143 H   0  0  0  0  0  0
  -24.5964  -30.6974   25.7704 H   0  0  0  0  0  0
  -24.8899  -32.2804   26.4822 H   0  0  0  0  0  0
  -25.8070  -30.8830   27.0183 H   0  0  0  0  0  0
  -26.2847  -29.6769   24.1139 H   0  0  0  0  0  0
  -27.4051  -29.7185   25.4553 H   0  0  0  0  0  0
  -27.8710  -30.4255   23.9255 H   0  0  0  0  0  0
  -27.2665  -33.3568   26.2106 H   0  0  0  0  0  0
  -28.3929  -32.6821   25.0421 H   0  0  0  0  0  0
  -28.0673  -31.8384   26.5475 H   0  0  0  0  0  0
  -28.2561  -38.0141   24.7511 H   0  0  0  0  0  0
  -28.1087  -36.2662   24.6270 H   0  0  0  0  0  0
  -27.2279  -37.1444   25.8855 H   0  0  0  0  0  0
  -20.9377  -29.8754   21.6911 H   0  0  0  0  0  0
  -26.0167  -38.2839   24.1407 H   0  0  0  0  0  0
  -27.6786  -21.1569   18.3024 H   0  0  0  0  0  0
  -26.4601  -21.4750   19.5605 H   0  0  0  0  0  0
  -31.3132  -21.4159   19.9622 H   0  0  0  0  0  0
  -31.1734  -20.8367   18.2927 H   0  0  0  0  0  0
  -32.5072  -20.3040   19.3249 H   0  0  0  0  0  0
  -24.3309  -23.7203   16.9793 H   0  0  0  0  0  0
  -24.6013  -23.7290   18.7123 H   0  0  0  0  0  0
  -24.7821  -22.2263   17.7990 H   0  0  0  0  0  0
  -29.2027  -21.0140   21.9311 H   0  0  0  0  0  0
  -27.7225  -20.3276   21.3920 H   0  0  0  0  0  0
  -28.1906  -25.8533   18.1480 H   0  0  0  0  0  0
  -29.6525  -25.5037   18.9634 H   0  0  0  0  0  0
  -26.7913  -23.0862   16.6391 H   0  0  0  0  0  0
  -26.5440  -24.6827   17.2665 H   0  0  0  0  0  0
  -28.9138  -15.4301   21.2129 H   0  0  0  0  0  0
  1 25  1  0  0  0
  1 30  2  0  0  0
  1 85  1  0  0  0
  2  3  1  0  0  0
  2 25  1  0  0  0
  2 88  1  0  0  0
  2 89  1  0  0  0
  3  4  1  0  0  0
  3 90  1  0  0  0
  3 91  1  0  0  0
  4  5  1  0  0  0
  4 92  1  0  0  0
  4 93  1  0  0  0
  5  6  1  0  0  0
  5 26  1  0  0  0
  5 94  1  0  0  0
  6 25  1  0  0  0
  6 95  1  0  0  0
  6 96  1  0  0  0
  7  8  2  0  0  0
  7 26  1  0  0  0
  7 29  1  0  0  0
  8  9  1  0  0  0
  8 22  1  0  0  0
  9 10  1  0  0  0
  9 27  2  0  0  0
 10 11  2  0  0  0
 10 15  1  0  0  0
 11 12  1  0  0  0
 11 97  1  0  0  0
 12 13  2  0  0  0
 12 98  1  0  0  0
 13 14  1  0  0  0
 13 31  1  0  0  0
 14 15  2  0  0  0
 14 99  1  0  0  0
 15100  1  0  0  0
 16 17  2  0  0  0
 16 21  1  0  0  0
 16 31  1  0  0  0
 17 18  1  0  0  0
 17101  1  0  0  0
 18 19  2  0  0  0
 18102  1  0  0  0
 19 20  1  0  0  0
 19 24  1  0  0  0
 20 21  2  0  0  0
 20103  1  0  0  0
 21 23  1  0  0  0
 22 28  1  0  0  0
 22 32  2  0  0  0
 26 27  1  0  0  0
 28104  1  0  0  0
 28105  1  0  0  0
 29106  1  0  0  0
 29107  1  0  0  0
 33 34  1  0  0  0
 33 66  1  0  0  0
 33 70  2  0  0  0
 34 36  1  0  0  0
 34 59  1  0  0  0
 34108  1  0  0  0
 35 44  2  0  0  0
 35 45  1  0  0  0
 35 68  1  0  0  0
 36 56  1  0  0  0
 36109  1  0  0  0
 37 39  1  0  0  0
 37 47  1  0  0  0
 37 66  1  0  0  0
 37110  1  0  0  0
 38 43  2  0  0  0
 38 46  1  0  0  0
 38 47  1  0  0  0
 39 64  1  0  0  0
 39 67  2  0  0  0
 40 52  1  0  0  0
 40 53  2  0  0  0
 40 58  1  0  0  0
 41111  1  0  0  0
 41112  1  0  0  0
 41113  1  0  0  0
 41 48  1  0  0  0
 42 43  1  0  0  0
 42 66  1  0  0  0
 42114  1  0  0  0
 42115  1  0  0  0
 43 44  1  0  0  0
 44116  1  0  0  0
 45 46  2  0  0  0
 45117  1  0  0  0
 46118  1  0  0  0
 47119  1  0  0  0
 47120  1  0  0  0
 48 56  1  0  0  0
 48 65  1  0  0  0
 48121  1  0  0  0
 49 50  1  0  0  0
 49 53  1  0  0  0
 49 64  1  0  0  0
 49122  1  0  0  0
 50 51  1  0  0  0
 50123  1  0  0  0
 50124  1  0  0  0
 51 52  1  0  0  0
 51125  1  0  0  0
 51126  1  0  0  0
 52127  1  0  0  0
 52128  1  0  0  0
 53 54  1  0  0  0
 54 55  2  0  0  0
 54129  1  0  0  0
 55 57  1  0  0  0
 55130  1  0  0  0
 56 69  2  0  0  0
 57 58  2  0  0  0
 57131  1  0  0  0
 58132  1  0  0  0
 59 60  1  0  0  0
 59 61  1  0  0  0
 59 62  1  0  0  0
 60133  1  0  0  0
 60134  1  0  0  0
 60135  1  0  0  0
 61136  1  0  0  0
 61137  1  0  0  0
 61138  1  0  0  0
 62139  1  0  0  0
 62140  1  0  0  0
 62141  1  0  0  0
 63 65  1  0  0  0
 63142  1  0  0  0
 63143  1  0  0  0
 63144  1  0  0  0
 64145  1  0  0  0
 65146  1  0  0  0
 68 81  1  0  0  0
 71 72  2  0  0  0
 71 80  1  0  0  0
 71 83  1  0  0  0
 72 78  1  0  0  0
 72 87  1  0  0  0
 73 83  2  0  0  0
 73 85  1  0  0  0
 73 87  1  0  0  0
 74 75  2  0  0  0
 74 76  1  0  0  0
 74 81  1  0  0  0
 75 77  1  0  0  0
 75 82  1  0  0  0
 76 84  1  0  0  0
 76 86  2  0  0  0
 77 84  1  0  0  0
 77147  1  0  0  0
 77148  1  0  0  0
 78149  1  0  0  0
 78150  1  0  0  0
 78151  1  0  0  0
 79 82  1  0  0  0
 79152  1  0  0  0
 79153  1  0  0  0
 79154  1  0  0  0
 80 84  1  0  0  0
 80155  1  0  0  0
 80156  1  0  0  0
 81157  1  0  0  0
 81158  1  0  0  0
 82159  1  0  0  0
 82160  1  0  0  0
 85161  1  0  0  0
M  ISO  4   1 100  68 101  81 101  85 100
M  END
> <chiral flag>
0

> <version>
0

> <s_m_source_file>
/data/baiqing/PycharmProjects/Reinvent-master-3.2/result/LINK_invent/BTK/process_docking_weight1_custom_product_contain_oxygen_bond_distance_aromatic_linkinvent_7_9_3/rearranged_h_0113.sdf

> <i_m_source_file_index>
48

> <r_mmod_Potential_Energy-OPLS-2005>
-35.5340957641602

> <r_mmod_Stretch_Energy-OPLS-2005>
66.1358337402344

> <r_mmod_Bend_Energy-OPLS-2005>
181.369354248047

> <r_mmod_Torsional_Energy-OPLS-2005>
216.983551025391

> <r_mmod_Improper_Torsional_Energy-OPLS-2005>
5.9468560218811

> <r_mmod_Van_der_Waal_Energy-OPLS-2005>
109.959457397461

> <r_mmod_Electrostatic_Energy-OPLS-2005>
-427.023101806641

> <r_mmod_Solvation_Energy-OPLS-2005>
-226.194564819336

> <b_mmod_Minimization_Converged-OPLS-2005>
0

> <r_mmod_RMS_Derivative-OPLS-2005>
5.16053819656372

$$$$
48
                    3D
 Structure written by MMmdl.
155163  0  0  1  0            999 V2000
  -30.5149  -14.9117   20.4520 C   0  0  0  0  0  0
  -30.4533  -12.5589   19.4909 C   0  0  0  0  0  0
  -29.5275  -12.5427   18.2501 C   0  0  0  0  0  0
  -28.0574  -12.3264   18.6615 C   0  0  0  0  0  0
  -27.6405  -13.2370   19.8452 C   0  0  2  0  0  0
  -28.6843  -13.2134   20.9822 C   0  0  0  0  0  0
  -25.2521  -13.8189   20.5700 C   0  0  0  0  0  0
  -24.1813  -13.0426   20.9194 C   0  0  0  0  0  0
  -24.6408  -11.6909   20.8728 C   0  0  0  0  0  0
  -23.9084  -10.4287   21.0396 C   0  0  0  0  0  0
  -24.3634   -9.4205   21.9175 C   0  0  0  0  0  0
  -23.6306   -8.2243   22.0753 C   0  0  0  0  0  0
  -22.4284   -8.0283   21.3549 C   0  0  0  0  0  0
  -21.9925   -9.0254   20.4643 C   0  0  0  0  0  0
  -22.7257  -10.2127   20.3048 C   0  0  0  0  0  0
  -21.6857   -6.0737   22.5284 C   0  0  0  0  0  0
  -21.4018   -6.5642   23.8220 C   0  0  0  0  0  0
  -21.3661   -5.6793   24.9181 C   0  0  0  0  0  0
  -21.6046   -4.3058   24.7224 C   0  0  0  0  0  0
  -21.8823   -3.8146   23.4348 C   0  0  0  0  0  0
  -21.9199   -4.6965   22.3406 C   0  0  0  0  0  0
  -22.7839  -13.5212   21.1858 C   0  0  0  0  0  0
  -22.1670   -4.2151   21.0985 F   0  0  0  0  0  0
  -21.5625   -3.4542   25.7739 F   0  0  0  0  0  0
  -29.9711  -13.6294   20.4067 N   0  0  0  0  0  0
  -26.2943  -12.9402   20.3249 N   0  0  0  0  0  0
  -25.9339  -11.6538   20.5709 N   0  0  0  0  0  0
  -22.0502  -12.8186   22.0412 N   0  0  0  0  0  0
  -25.4205  -15.1921   20.4162 N   0  0  0  0  0  0
  -31.6924  -15.0273   20.0933 O   0  0  0  0  0  0
  -21.6650   -6.8880   21.4247 O   0  0  0  0  0  0
  -22.3523  -14.5522   20.6720 O   0  0  0  0  0  0
  -24.6419  -31.8464   23.1886 C   0  0  0  0  0  0
  -25.9197  -32.4705   23.8273 C   0  0  1  0  0  0
  -27.2200  -27.1539   20.1469 C   0  0  0  0  0  0
  -25.5962  -33.8510   24.2198 N   0  0  0  0  0  0
  -23.4444  -30.4653   21.5350 C   0  0  2  0  0  0
  -24.8938  -28.8934   20.1133 C   0  0  0  0  0  0
  -22.7556  -29.4558   22.4867 C   0  0  0  0  0  0
  -18.0305  -28.1399   22.8471 C   0  0  0  0  0  0
  -24.1497  -36.7262   23.2637 C   0  0  0  0  0  0
  -25.9993  -30.7254   21.3847 C   0  0  0  0  0  0
  -26.0716  -29.3372   20.7286 C   0  0  0  0  0  0
  -27.2378  -28.4851   20.7255 C   0  0  0  0  0  0
  -26.0178  -26.8110   19.4896 C   0  0  0  0  0  0
  -24.8785  -27.6432   19.4786 C   0  0  0  0  0  0
  -23.6699  -29.7943   20.1547 C   0  0  0  0  0  0
  -25.4128  -36.3038   24.0312 C   0  0  1  0  0  0
  -20.5915  -28.3728   23.1230 C   0  0  2  0  0  0
  -20.6787  -26.9429   22.5400 C   0  0  0  0  0  0
  -19.5764  -26.6383   21.5201 C   0  0  0  0  0  0
  -18.1946  -26.7938   22.1614 C   0  0  0  0  0  0
  -19.1560  -28.8878   23.2851 C   0  0  0  0  0  0
  -18.9478  -30.1471   23.8880 C   0  0  0  0  0  0
  -17.6474  -30.6595   24.0552 C   0  0  0  0  0  0
  -25.9080  -34.9412   23.5065 C   0  0  0  0  0  0
  -16.5364  -29.9087   23.6326 C   0  0  0  0  0  0
  -16.7289  -28.6503   23.0353 C   0  0  0  0  0  0
  -26.4522  -31.6562   25.0709 C   0  0  0  0  0  0
  -25.3703  -31.3746   26.1401 C   0  0  0  0  0  0
  -27.0374  -30.2954   24.6270 C   0  0  0  0  0  0
  -27.6057  -32.4311   25.7503 C   0  0  0  0  0  0
  -27.5581  -37.1787   24.8457 C   0  0  0  0  0  0
  -21.4252  -29.3058   22.3607 N   0  0  0  0  0  0
  -26.4286  -37.3754   23.9408 N   0  0  0  0  0  0
  -24.7151  -31.0324   22.0919 N   0  0  0  0  0  0
  -23.4197  -28.8102   23.3018 O   0  0  0  0  0  0
  -28.2849  -26.1834   20.1775 O   0  0  0  0  0  0
  -26.5659  -34.8905   22.4642 O   0  0  0  0  0  0
  -23.5542  -32.1338   23.7114 O   0  0  0  0  0  0
  -30.3447  -18.5844   19.4814 C   0  0  0  0  0  0
  -29.7300  -17.8402   20.4928 C   0  0  0  0  0  0
  -29.2435  -20.5181   20.3711 C   0  0  0  0  0  0
  -30.4340  -17.9066   17.0651 C   0  0  0  0  0  0
  -27.7659  -24.6277   21.9742 C   0  0  0  0  0  0
  -31.2081  -18.0407   18.3823 C   0  0  0  0  0  0
  -29.6475  -16.2496   20.9063 C   0  0  0  0  0  0
  -29.0326  -23.3896   20.0630 C   0  0  0  0  0  0
  -28.0232  -24.6753   20.4611 C   0  0  2  0  0  0
  -30.0905  -20.0124   19.4512 N   0  0  0  0  0  0
  -28.7829  -21.9234   20.5341 N   0  0  0  0  0  0
  -28.7573  -19.0873   21.3973 S   0  0  0  0  0  0
  -31.4887  -12.7192   19.1865 H   0  0  0  0  0  0
  -30.4404  -11.5910   19.9950 H   0  0  0  0  0  0
  -29.8391  -11.7682   17.5484 H   0  0  0  0  0  0
  -29.6203  -13.4909   17.7194 H   0  0  0  0  0  0
  -27.9437  -11.2798   18.9449 H   0  0  0  0  0  0
  -27.3957  -12.4842   17.8094 H   0  0  0  0  0  0
  -27.6167  -14.2485   19.4404 H   0  0  0  0  0  0
  -28.7584  -12.2184   21.4241 H   0  0  0  0  0  0
  -28.3852  -13.8804   21.7920 H   0  0  0  0  0  0
  -25.2784   -9.5678   22.4743 H   0  0  0  0  0  0
  -24.0019   -7.4634   22.7474 H   0  0  0  0  0  0
  -21.0860   -8.8773   19.8944 H   0  0  0  0  0  0
  -22.3725  -10.9664   19.6154 H   0  0  0  0  0  0
  -21.2014   -7.6151   23.9721 H   0  0  0  0  0  0
  -21.1479   -6.0526   25.9086 H   0  0  0  0  0  0
  -22.0598   -2.7607   23.2852 H   0  0  0  0  0  0
  -22.4153  -11.9856   22.4791 H   0  0  0  0  0  0
  -21.1113  -13.1184   22.2617 H   0  0  0  0  0  0
  -24.6514  -15.8429   20.5341 H   0  0  0  0  0  0
  -26.2688  -15.6384   20.0922 H   0  0  0  0  0  0
  -26.7262  -32.5320   23.1004 H   0  0  0  0  0  0
  -25.0079  -33.9631   25.0322 H   0  0  0  0  0  0
  -22.7472  -31.2914   21.3806 H   0  0  0  0  0  0
  -23.3771  -35.9582   23.3275 H   0  0  0  0  0  0
  -24.3578  -36.8923   22.2054 H   0  0  0  0  0  0
  -23.7239  -37.6446   23.6691 H   0  0  0  0  0  0
  -26.1498  -31.4791   20.6100 H   0  0  0  0  0  0
  -26.8719  -30.7772   22.0248 H   0  0  0  0  0  0
  -28.1379  -28.8249   21.2180 H   0  0  0  0  0  0
  -25.9326  -25.8664   18.9741 H   0  0  0  0  0  0
  -23.9819  -27.3030   18.9783 H   0  0  0  0  0  0
  -23.8050  -30.5689   19.3986 H   0  0  0  0  0  0
  -22.7857  -29.2348   19.8439 H   0  0  0  0  0  0
  -25.1312  -36.1868   25.0802 H   0  0  0  0  0  0
  -21.0001  -28.3320   24.1352 H   0  0  0  0  0  0
  -20.5663  -26.2343   23.3622 H   0  0  0  0  0  0
  -21.6656  -26.7430   22.1207 H   0  0  0  0  0  0
  -19.6926  -25.6284   21.1256 H   0  0  0  0  0  0
  -19.6704  -27.3169   20.6710 H   0  0  0  0  0  0
  -17.4209  -26.6672   21.4025 H   0  0  0  0  0  0
  -18.0361  -26.0088   22.9022 H   0  0  0  0  0  0
  -19.7954  -30.7288   24.2251 H   0  0  0  0  0  0
  -17.5029  -31.6271   24.5163 H   0  0  0  0  0  0
  -15.5364  -30.2984   23.7663 H   0  0  0  0  0  0
  -15.8690  -28.0812   22.7084 H   0  0  0  0  0  0
  -24.5900  -30.7074   25.7723 H   0  0  0  0  0  0
  -24.8866  -32.2922   26.4756 H   0  0  0  0  0  0
  -25.7979  -30.8970   27.0224 H   0  0  0  0  0  0
  -26.2976  -29.6691   24.1266 H   0  0  0  0  0  0
  -27.3984  -29.7239   25.4835 H   0  0  0  0  0  0
  -27.8893  -30.4198   23.9577 H   0  0  0  0  0  0
  -27.2657  -33.3631   26.2028 H   0  0  0  0  0  0
  -28.3899  -32.6832   25.0352 H   0  0  0  0  0  0
  -28.0685  -31.8461   26.5463 H   0  0  0  0  0  0
  -28.2575  -38.0112   24.7529 H   0  0  0  0  0  0
  -28.1107  -36.2637   24.6255 H   0  0  0  0  0  0
  -27.2297  -37.1391   25.8860 H   0  0  0  0  0  0
  -20.9462  -29.8782   21.6796 H   0  0  0  0  0  0
  -26.0158  -38.2821   24.1430 H   0  0  0  0  0  0
  -31.0717  -17.5099   16.2753 H   0  0  0  0  0  0
  -30.0561  -18.8735   16.7334 H   0  0  0  0  0  0
  -29.5836  -17.2332   17.1776 H   0  0  0  0  0  0
  -27.0091  -25.3526   22.2752 H   0  0  0  0  0  0
  -28.6772  -24.8480   22.5300 H   0  0  0  0  0  0
  -27.4142  -23.6463   22.2907 H   0  0  0  0  0  0
  -31.6243  -17.0744   18.6528 H   0  0  0  0  0  0
  -32.0708  -18.6902   18.2302 H   0  0  0  0  0  0
  -28.6115  -15.9717   20.7270 H   0  0  0  0  0  0
  -29.7307  -16.2261   21.9926 H   0  0  0  0  0  0
  -30.0340  -23.6489   20.4103 H   0  0  0  0  0  0
  -29.1134  -23.3603   18.9757 H   0  0  0  0  0  0
  -27.0827  -24.4166   19.9809 H   0  0  0  0  0  0
  -28.0861  -21.9402   21.2730 H   0  0  0  0  0  0
  1 25  1  0  0  0
  1 30  2  0  0  0
  1 77  1  0  0  0
  2  3  1  0  0  0
  2 25  1  0  0  0
  2 83  1  0  0  0
  2 84  1  0  0  0
  3  4  1  0  0  0
  3 85  1  0  0  0
  3 86  1  0  0  0
  4  5  1  0  0  0
  4 87  1  0  0  0
  4 88  1  0  0  0
  5  6  1  0  0  0
  5 26  1  0  0  0
  5 89  1  0  0  0
  6 25  1  0  0  0
  6 90  1  0  0  0
  6 91  1  0  0  0
  7  8  2  0  0  0
  7 26  1  0  0  0
  7 29  1  0  0  0
  8  9  1  0  0  0
  8 22  1  0  0  0
  9 10  1  0  0  0
  9 27  2  0  0  0
 10 11  2  0  0  0
 10 15  1  0  0  0
 11 12  1  0  0  0
 11 92  1  0  0  0
 12 13  2  0  0  0
 12 93  1  0  0  0
 13 14  1  0  0  0
 13 31  1  0  0  0
 14 15  2  0  0  0
 14 94  1  0  0  0
 15 95  1  0  0  0
 16 17  2  0  0  0
 16 21  1  0  0  0
 16 31  1  0  0  0
 17 18  1  0  0  0
 17 96  1  0  0  0
 18 19  2  0  0  0
 18 97  1  0  0  0
 19 20  1  0  0  0
 19 24  1  0  0  0
 20 21  2  0  0  0
 20 98  1  0  0  0
 21 23  1  0  0  0
 22 28  1  0  0  0
 22 32  2  0  0  0
 26 27  1  0  0  0
 28 99  1  0  0  0
 28100  1  0  0  0
 29101  1  0  0  0
 29102  1  0  0  0
 33 34  1  0  0  0
 33 66  1  0  0  0
 33 70  2  0  0  0
 34 36  1  0  0  0
 34 59  1  0  0  0
 34103  1  0  0  0
 35 44  2  0  0  0
 35 45  1  0  0  0
 35 68  1  0  0  0
 36 56  1  0  0  0
 36104  1  0  0  0
 37 39  1  0  0  0
 37 47  1  0  0  0
 37 66  1  0  0  0
 37105  1  0  0  0
 38 43  2  0  0  0
 38 46  1  0  0  0
 38 47  1  0  0  0
 39 64  1  0  0  0
 39 67  2  0  0  0
 40 52  1  0  0  0
 40 53  2  0  0  0
 40 58  1  0  0  0
 41106  1  0  0  0
 41107  1  0  0  0
 41108  1  0  0  0
 41 48  1  0  0  0
 42 43  1  0  0  0
 42 66  1  0  0  0
 42109  1  0  0  0
 42110  1  0  0  0
 43 44  1  0  0  0
 44111  1  0  0  0
 45 46  2  0  0  0
 45112  1  0  0  0
 46113  1  0  0  0
 47114  1  0  0  0
 47115  1  0  0  0
 48 56  1  0  0  0
 48 65  1  0  0  0
 48116  1  0  0  0
 49 50  1  0  0  0
 49 53  1  0  0  0
 49 64  1  0  0  0
 49117  1  0  0  0
 50 51  1  0  0  0
 50118  1  0  0  0
 50119  1  0  0  0
 51 52  1  0  0  0
 51120  1  0  0  0
 51121  1  0  0  0
 52122  1  0  0  0
 52123  1  0  0  0
 53 54  1  0  0  0
 54 55  2  0  0  0
 54124  1  0  0  0
 55 57  1  0  0  0
 55125  1  0  0  0
 56 69  2  0  0  0
 57 58  2  0  0  0
 57126  1  0  0  0
 58127  1  0  0  0
 59 60  1  0  0  0
 59 61  1  0  0  0
 59 62  1  0  0  0
 60128  1  0  0  0
 60129  1  0  0  0
 60130  1  0  0  0
 61131  1  0  0  0
 61132  1  0  0  0
 61133  1  0  0  0
 62134  1  0  0  0
 62135  1  0  0  0
 62136  1  0  0  0
 63 65  1  0  0  0
 63137  1  0  0  0
 63138  1  0  0  0
 63139  1  0  0  0
 64140  1  0  0  0
 65141  1  0  0  0
 68 79  1  0  0  0
 71 72  2  0  0  0
 71 76  1  0  0  0
 71 80  1  0  0  0
 72 77  1  0  0  0
 72 82  1  0  0  0
 73 80  2  0  0  0
 73 81  1  0  0  0
 73 82  1  0  0  0
 74 76  1  0  0  0
 74142  1  0  0  0
 74143  1  0  0  0
 74144  1  0  0  0
 75145  1  0  0  0
 75146  1  0  0  0
 75147  1  0  0  0
 75 79  1  0  0  0
 76148  1  0  0  0
 76149  1  0  0  0
 77150  1  0  0  0
 77151  1  0  0  0
 78 79  1  0  0  0
 78 81  1  0  0  0
 78152  1  0  0  0
 78153  1  0  0  0
 79154  1  0  0  0
 81155  1  0  0  0
M  ISO  4   1 100  68 101  77 100  79 101
M  END
> <chiral flag>
0

> <version>
0

> <s_m_source_file>
/data/baiqing/PycharmProjects/Reinvent-master-3.2/result/LINK_invent/BTK/process_docking_weight1_custom_product_contain_oxygen_bond_distance_aromatic_linkinvent_7_9_3/rearranged_h_0113.sdf

> <i_m_source_file_index>
49

> <r_mmod_Potential_Energy-OPLS-2005>
324.469390869141

> <r_mmod_Stretch_Energy-OPLS-2005>
226.86051940918

> <r_mmod_Bend_Energy-OPLS-2005>
260.210662841797

> <r_mmod_Torsional_Energy-OPLS-2005>
172.529388427734

> <r_mmod_Improper_Torsional_Energy-OPLS-2005>
2.18311357498169

> <r_mmod_Van_der_Waal_Energy-OPLS-2005>
106.479354858398

> <r_mmod_Electrostatic_Energy-OPLS-2005>
-399.782440185547

> <r_mmod_Solvation_Energy-OPLS-2005>
-211.443542480469

> <b_mmod_Minimization_Converged-OPLS-2005>
0

> <r_mmod_RMS_Derivative-OPLS-2005>
1.39018189907074

$$$$
49
                    3D
 Structure written by MMmdl.
160169  0  0  1  0            999 V2000
  -30.6686  -14.5490   20.5304 C   0  0  0  0  0  0
  -30.4331  -12.3449   19.4313 C   0  0  0  0  0  0
  -29.4999  -12.5026   18.2114 C   0  0  0  0  0  0
  -28.0218  -12.3524   18.6255 C   0  0  0  0  0  0
  -27.6574  -13.2099   19.8668 C   0  0  2  0  0  0
  -28.7036  -13.0311   20.9908 C   0  0  0  0  0  0
  -25.2578  -13.8163   20.5681 C   0  0  0  0  0  0
  -24.1838  -13.0435   20.9187 C   0  0  0  0  0  0
  -24.6398  -11.6904   20.8739 C   0  0  0  0  0  0
  -23.9065  -10.4290   21.0405 C   0  0  0  0  0  0
  -24.3616   -9.4206   21.9185 C   0  0  0  0  0  0
  -23.6290   -8.2243   22.0755 C   0  0  0  0  0  0
  -22.4274   -8.0281   21.3544 C   0  0  0  0  0  0
  -21.9908   -9.0256   20.4647 C   0  0  0  0  0  0
  -22.7237  -10.2135   20.3057 C   0  0  0  0  0  0
  -21.6853   -6.0735   22.5279 C   0  0  0  0  0  0
  -21.4013   -6.5639   23.8212 C   0  0  0  0  0  0
  -21.3660   -5.6791   24.9174 C   0  0  0  0  0  0
  -21.6043   -4.3054   24.7225 C   0  0  0  0  0  0
  -21.8819   -3.8147   23.4345 C   0  0  0  0  0  0
  -21.9193   -4.6963   22.3401 C   0  0  0  0  0  0
  -22.7860  -13.5233   21.1848 C   0  0  0  0  0  0
  -22.1661   -4.2150   21.0978 F   0  0  0  0  0  0
  -21.5630   -3.4537   25.7737 F   0  0  0  0  0  0
  -30.0270  -13.3487   20.4287 N   0  0  0  0  0  0
  -26.3008  -12.9334   20.3338 N   0  0  0  0  0  0
  -25.9325  -11.6494   20.5767 N   0  0  0  0  0  0
  -22.0499  -12.8229   22.0405 N   0  0  0  0  0  0
  -25.4286  -15.1884   20.4082 N   0  0  0  0  0  0
  -31.8310  -14.7122   20.1480 O   0  0  0  0  0  0
  -21.6638   -6.8877   21.4241 O   0  0  0  0  0  0
  -22.3549  -14.5542   20.6697 O   0  0  0  0  0  0
  -24.6213  -31.8657   23.2088 C   0  0  0  0  0  0
  -25.9083  -32.4813   23.8398 C   0  0  1  0  0  0
  -27.2230  -27.3835   20.0992 C   0  0  0  0  0  0
  -25.5918  -33.8611   24.2322 N   0  0  0  0  0  0
  -23.4119  -30.4925   21.5510 C   0  0  2  0  0  0
  -24.8588  -28.9636   20.1101 C   0  0  0  0  0  0
  -22.7449  -29.4656   22.4965 C   0  0  0  0  0  0
  -18.0280  -28.1386   22.8493 C   0  0  0  0  0  0
  -24.1487  -36.7310   23.2636 C   0  0  0  0  0  0
  -25.9495  -30.8171   21.3716 C   0  0  0  0  0  0
  -26.0275  -29.4516   20.7105 C   0  0  0  0  0  0
  -27.2175  -28.6722   20.6998 C   0  0  0  0  0  0
  -26.0332  -26.9370   19.4843 C   0  0  0  0  0  0
  -24.8601  -27.7072   19.4898 C   0  0  0  0  0  0
  -23.6228  -29.8335   20.1640 C   0  0  0  0  0  0
  -25.4109  -36.3106   24.0334 C   0  0  1  0  0  0
  -20.5877  -28.3683   23.1301 C   0  0  2  0  0  0
  -20.6772  -26.9413   22.5412 C   0  0  0  0  0  0
  -19.5746  -26.6390   21.5216 C   0  0  0  0  0  0
  -18.1926  -26.7931   22.1629 C   0  0  0  0  0  0
  -19.1531  -28.8851   23.2895 C   0  0  0  0  0  0
  -18.9456  -30.1455   23.8907 C   0  0  0  0  0  0
  -17.6456  -30.6590   24.0567 C   0  0  0  0  0  0
  -25.9043  -34.9471   23.5126 C   0  0  0  0  0  0
  -16.5347  -29.9088   23.6332 C   0  0  0  0  0  0
  -16.7268  -28.6506   23.0353 C   0  0  0  0  0  0
  -26.4484  -31.6596   25.0740 C   0  0  0  0  0  0
  -25.3736  -31.3710   26.1478 C   0  0  0  0  0  0
  -27.0314  -30.3028   24.6146 C   0  0  0  0  0  0
  -27.6053  -32.4319   25.7506 C   0  0  0  0  0  0
  -27.5586  -37.1806   24.8461 C   0  0  0  0  0  0
  -21.4169  -29.3048   22.3705 N   0  0  0  0  0  0
  -26.4292  -37.3795   23.9414 N   0  0  0  0  0  0
  -24.6796  -31.0723   22.1016 N   0  0  0  0  0  0
  -23.4199  -28.8184   23.3015 O   0  0  0  0  0  0
  -28.3102  -26.5150   20.1458 O   0  0  0  0  0  0
  -26.5605  -34.8924   22.4688 O   0  0  0  0  0  0
  -23.5390  -32.1425   23.7450 O   0  0  0  0  0  0
  -31.0799  -19.0932   21.0815 C   0  0  0  0  0  0
  -31.1487  -17.6820   21.3549 C   0  0  0  0  0  0
  -30.0285  -19.4575   20.2745 C   0  0  0  0  0  0
  -30.1388  -16.9381   20.7851 C   0  0  0  0  0  0
  -29.0893  -23.2210   19.8795 C   0  0  0  0  0  0
  -28.7733  -24.0292   20.9264 C   0  0  0  0  0  0
  -29.7058  -20.7556   19.6539 C   0  0  0  0  0  0
  -28.9206  -23.5776   18.4525 C   0  0  0  0  0  0
  -29.0740  -23.3354   22.2352 C   0  0  0  0  0  0
  -29.6285  -21.9679   21.8102 C   0  0  0  0  0  0
  -27.6703  -24.3030   17.9940 C   0  0  0  0  0  0
  -28.0602  -25.4097   21.0608 C   0  0  0  0  0  0
  -29.5396  -21.9491   20.3408 N   0  0  0  0  0  0
  -29.8808  -15.5937   20.8892 N   0  0  0  0  0  0
  -29.5825  -20.6859   18.3201 N   0  3  0  0  0  0
  -29.7416  -23.2630   17.5856 O   0  0  0  0  0  0
  -29.0731  -18.0240   19.8984 S   0  0  0  0  0  0
  -31.4751  -12.4597   19.1269 H   0  0  0  0  0  0
  -30.3530  -11.3416   19.8523 H   0  0  0  0  0  0
  -29.7497  -11.7647   17.4478 H   0  0  0  0  0  0
  -29.6543  -13.4809   17.7530 H   0  0  0  0  0  0
  -27.8450  -11.2979   18.8404 H   0  0  0  0  0  0
  -27.3686  -12.6042   17.7891 H   0  0  0  0  0  0
  -27.6859  -14.2502   19.5428 H   0  0  0  0  0  0
  -28.6957  -12.0042   21.3594 H   0  0  0  0  0  0
  -28.4638  -13.6550   21.8532 H   0  0  0  0  0  0
  -25.2764   -9.5679   22.4757 H   0  0  0  0  0  0
  -23.9999   -7.4633   22.7474 H   0  0  0  0  0  0
  -21.0841   -8.8773   19.8952 H   0  0  0  0  0  0
  -22.3698  -10.9673   19.6165 H   0  0  0  0  0  0
  -21.2004   -7.6146   23.9716 H   0  0  0  0  0  0
  -21.1483   -6.0521   25.9077 H   0  0  0  0  0  0
  -22.0599   -2.7610   23.2845 H   0  0  0  0  0  0
  -22.4110  -11.9885   22.4786 H   0  0  0  0  0  0
  -21.1118  -13.1259   22.2611 H   0  0  0  0  0  0
  -24.6580  -15.8393   20.5135 H   0  0  0  0  0  0
  -26.2720  -15.6294   20.0647 H   0  0  0  0  0  0
  -26.7158  -32.5507   23.1162 H   0  0  0  0  0  0
  -25.0066  -33.9768   25.0466 H   0  0  0  0  0  0
  -22.7033  -31.3118   21.4135 H   0  0  0  0  0  0
  -23.3752  -35.9638   23.3292 H   0  0  0  0  0  0
  -24.3585  -36.8934   22.2052 H   0  0  0  0  0  0
  -23.7229  -37.6508   23.6656 H   0  0  0  0  0  0
  -26.0728  -31.5855   20.6068 H   0  0  0  0  0  0
  -26.8329  -30.8646   21.9968 H   0  0  0  0  0  0
  -28.1132  -29.0379   21.1822 H   0  0  0  0  0  0
  -25.9801  -25.9684   19.0205 H   0  0  0  0  0  0
  -23.9632  -27.3233   19.0232 H   0  0  0  0  0  0
  -23.7340  -30.6123   19.4089 H   0  0  0  0  0  0
  -22.7449  -29.2582   19.8642 H   0  0  0  0  0  0
  -25.1284  -36.1970   25.0827 H   0  0  0  0  0  0
  -20.9970  -28.3252   24.1421 H   0  0  0  0  0  0
  -20.5683  -26.2291   23.3607 H   0  0  0  0  0  0
  -21.6641  -26.7455   22.1201 H   0  0  0  0  0  0
  -19.6907  -25.6303   21.1240 H   0  0  0  0  0  0
  -19.6682  -27.3206   20.6751 H   0  0  0  0  0  0
  -17.4195  -26.6683   21.4032 H   0  0  0  0  0  0
  -18.0324  -26.0072   22.9024 H   0  0  0  0  0  0
  -19.7929  -30.7273   24.2280 H   0  0  0  0  0  0
  -17.5007  -31.6270   24.5167 H   0  0  0  0  0  0
  -15.5348  -30.2992   23.7652 H   0  0  0  0  0  0
  -15.8669  -28.0828   22.7065 H   0  0  0  0  0  0
  -24.5910  -30.7060   25.7808 H   0  0  0  0  0  0
  -24.8929  -32.2868   26.4929 H   0  0  0  0  0  0
  -25.8078  -30.8872   27.0237 H   0  0  0  0  0  0
  -26.2871  -29.6797   24.1174 H   0  0  0  0  0  0
  -27.4036  -29.7261   25.4623 H   0  0  0  0  0  0
  -27.8732  -30.4330   23.9340 H   0  0  0  0  0  0
  -27.2667  -33.3611   26.2102 H   0  0  0  0  0  0
  -28.3853  -32.6895   25.0329 H   0  0  0  0  0  0
  -28.0733  -31.8435   26.5408 H   0  0  0  0  0  0
  -28.2588  -38.0119   24.7539 H   0  0  0  0  0  0
  -28.1099  -36.2653   24.6250 H   0  0  0  0  0  0
  -27.2311  -37.1410   25.8865 H   0  0  0  0  0  0
  -20.9331  -29.8786   21.6938 H   0  0  0  0  0  0
  -26.0180  -38.2870   24.1431 H   0  0  0  0  0  0
  -31.8313  -19.7756   21.4514 H   0  0  0  0  0  0
  -31.9385  -17.2687   21.9671 H   0  0  0  0  0  0
  -28.1654  -23.2287   22.8293 H   0  0  0  0  0  0
  -29.8018  -23.9036   22.8161 H   0  0  0  0  0  0
  -29.0419  -21.1566   22.2418 H   0  0  0  0  0  0
  -30.6656  -21.8480   22.1232 H   0  0  0  0  0  0
  -26.8469  -24.0913   18.6742 H   0  0  0  0  0  0
  -27.3811  -23.9619   17.0004 H   0  0  0  0  0  0
  -27.8529  -25.3751   17.9454 H   0  0  0  0  0  0
  -28.3312  -25.8011   22.0425 H   0  0  0  0  0  0
  -26.9971  -25.1780   21.1449 H   0  0  0  0  0  0
  -28.9170  -15.3406   21.0442 H   0  0  0  0  0  0
  -29.7131  -19.8097   17.8388 H   0  0  0  0  0  0
  -29.6029  -21.5415   17.7652 H   0  0  0  0  0  0
  1 25  1  0  0  0
  1 30  2  0  0  0
  1 84  1  0  0  0
  2  3  1  0  0  0
  2 25  1  0  0  0
  2 88  1  0  0  0
  2 89  1  0  0  0
  3  4  1  0  0  0
  3 90  1  0  0  0
  3 91  1  0  0  0
  4  5  1  0  0  0
  4 92  1  0  0  0
  4 93  1  0  0  0
  5  6  1  0  0  0
  5 26  1  0  0  0
  5 94  1  0  0  0
  6 25  1  0  0  0
  6 95  1  0  0  0
  6 96  1  0  0  0
  7  8  2  0  0  0
  7 26  1  0  0  0
  7 29  1  0  0  0
  8  9  1  0  0  0
  8 22  1  0  0  0
  9 10  1  0  0  0
  9 27  2  0  0  0
 10 11  2  0  0  0
 10 15  1  0  0  0
 11 12  1  0  0  0
 11 97  1  0  0  0
 12 13  2  0  0  0
 12 98  1  0  0  0
 13 14  1  0  0  0
 13 31  1  0  0  0
 14 15  2  0  0  0
 14 99  1  0  0  0
 15100  1  0  0  0
 16 17  2  0  0  0
 16 21  1  0  0  0
 16 31  1  0  0  0
 17 18  1  0  0  0
 17101  1  0  0  0
 18 19  2  0  0  0
 18102  1  0  0  0
 19 20  1  0  0  0
 19 24  1  0  0  0
 20 21  2  0  0  0
 20103  1  0  0  0
 21 23  1  0  0  0
 22 28  1  0  0  0
 22 32  2  0  0  0
 26 27  1  0  0  0
 28104  1  0  0  0
 28105  1  0  0  0
 29106  1  0  0  0
 29107  1  0  0  0
 33 34  1  0  0  0
 33 66  1  0  0  0
 33 70  2  0  0  0
 34 36  1  0  0  0
 34 59  1  0  0  0
 34108  1  0  0  0
 35 44  2  0  0  0
 35 45  1  0  0  0
 35 68  1  0  0  0
 36 56  1  0  0  0
 36109  1  0  0  0
 37 39  1  0  0  0
 37 47  1  0  0  0
 37 66  1  0  0  0
 37110  1  0  0  0
 38 43  2  0  0  0
 38 46  1  0  0  0
 38 47  1  0  0  0
 39 64  1  0  0  0
 39 67  2  0  0  0
 40 52  1  0  0  0
 40 53  2  0  0  0
 40 58  1  0  0  0
 41111  1  0  0  0
 41112  1  0  0  0
 41113  1  0  0  0
 41 48  1  0  0  0
 42 43  1  0  0  0
 42 66  1  0  0  0
 42114  1  0  0  0
 42115  1  0  0  0
 43 44  1  0  0  0
 44116  1  0  0  0
 45 46  2  0  0  0
 45117  1  0  0  0
 46118  1  0  0  0
 47119  1  0  0  0
 47120  1  0  0  0
 48 56  1  0  0  0
 48 65  1  0  0  0
 48121  1  0  0  0
 49 50  1  0  0  0
 49 53  1  0  0  0
 49 64  1  0  0  0
 49122  1  0  0  0
 50 51  1  0  0  0
 50123  1  0  0  0
 50124  1  0  0  0
 51 52  1  0  0  0
 51125  1  0  0  0
 51126  1  0  0  0
 52127  1  0  0  0
 52128  1  0  0  0
 53 54  1  0  0  0
 54 55  2  0  0  0
 54129  1  0  0  0
 55 57  1  0  0  0
 55130  1  0  0  0
 56 69  2  0  0  0
 57 58  2  0  0  0
 57131  1  0  0  0
 58132  1  0  0  0
 59 60  1  0  0  0
 59 61  1  0  0  0
 59 62  1  0  0  0
 60133  1  0  0  0
 60134  1  0  0  0
 60135  1  0  0  0
 61136  1  0  0  0
 61137  1  0  0  0
 61138  1  0  0  0
 62139  1  0  0  0
 62140  1  0  0  0
 62141  1  0  0  0
 63 65  1  0  0  0
 63142  1  0  0  0
 63143  1  0  0  0
 63144  1  0  0  0
 64145  1  0  0  0
 65146  1  0  0  0
 68 82  1  0  0  0
 71 72  1  0  0  0
 71 73  2  0  0  0
 71147  1  0  0  0
 72 74  2  0  0  0
 72148  1  0  0  0
 73 77  1  0  0  0
 73 87  1  0  0  0
 74 84  1  0  0  0
 74 87  1  0  0  0
 75 76  2  0  0  0
 75 78  1  0  0  0
 75 83  1  0  0  0
 76 79  1  0  0  0
 76 82  1  0  0  0
 77 83  1  0  0  0
 77 85  2  0  0  0
 78 81  1  0  0  0
 78 86  2  0  0  0
 79 80  1  0  0  0
 79149  1  0  0  0
 79150  1  0  0  0
 80 83  1  0  0  0
 80151  1  0  0  0
 80152  1  0  0  0
 81153  1  0  0  0
 81154  1  0  0  0
 81155  1  0  0  0
 82156  1  0  0  0
 82157  1  0  0  0
 84158  1  0  0  0
 85159  1  0  0  0
 85160  1  0  0  0
M  CHG  1  85   1
M  ISO  4   1 100  68 101  82 101  84 100
M  END
> <chiral flag>
0

> <version>
0

> <s_m_source_file>
/data/baiqing/PycharmProjects/Reinvent-master-3.2/result/LINK_invent/BTK/process_docking_weight1_custom_product_contain_oxygen_bond_distance_aromatic_linkinvent_7_9_3/rearranged_h_0113.sdf

> <i_m_source_file_index>
50

> <r_mmod_Potential_Energy-OPLS-2005>
-93.5916442871094

> <r_mmod_Stretch_Energy-OPLS-2005>
54.9838600158691

> <r_mmod_Bend_Energy-OPLS-2005>
189.520309448242

> <r_mmod_Torsional_Energy-OPLS-2005>
268.186889648438

> <r_mmod_Improper_Torsional_Energy-OPLS-2005>
6.75901079177856

> <r_mmod_Van_der_Waal_Energy-OPLS-2005>
141.139724731445

> <r_mmod_Electrostatic_Energy-OPLS-2005>
-360.427062988281

> <r_mmod_Solvation_Energy-OPLS-2005>
-423.038787841797

> <b_mmod_Minimization_Converged-OPLS-2005>
0

> <r_mmod_RMS_Derivative-OPLS-2005>
0.399801760911942

$$$$
50
                    3D
 Structure written by MMmdl.
163172  0  0  1  0            999 V2000
  -30.6059  -14.7825   20.4135 C   0  0  0  0  0  0
  -30.4343  -12.4754   19.4746 C   0  0  0  0  0  0
  -29.5136  -12.5111   18.2353 C   0  0  0  0  0  0
  -28.0376  -12.3409   18.6447 C   0  0  0  0  0  0
  -27.6385  -13.2417   19.8442 C   0  0  2  0  0  0
  -28.6853  -13.1971   20.9777 C   0  0  0  0  0  0
  -25.2493  -13.8218   20.5700 C   0  0  0  0  0  0
  -24.1804  -13.0447   20.9227 C   0  0  0  0  0  0
  -24.6421  -11.6934   20.8762 C   0  0  0  0  0  0
  -23.9103  -10.4302   21.0411 C   0  0  0  0  0  0
  -24.3651   -9.4208   21.9175 C   0  0  0  0  0  0
  -23.6315   -8.2246   22.0743 C   0  0  0  0  0  0
  -22.4284   -8.0299   21.3545 C   0  0  0  0  0  0
  -21.9945   -9.0275   20.4640 C   0  0  0  0  0  0
  -22.7289  -10.2144   20.3053 C   0  0  0  0  0  0
  -21.6856   -6.0755   22.5283 C   0  0  0  0  0  0
  -21.4010   -6.5645   23.8225 C   0  0  0  0  0  0
  -21.3657   -5.6788   24.9178 C   0  0  0  0  0  0
  -21.6049   -4.3055   24.7217 C   0  0  0  0  0  0
  -21.8817   -3.8157   23.4338 C   0  0  0  0  0  0
  -21.9190   -4.6981   22.3398 C   0  0  0  0  0  0
  -22.7822  -13.5214   21.1873 C   0  0  0  0  0  0
  -22.1660   -4.2170   21.0975 F   0  0  0  0  0  0
  -21.5627   -3.4533   25.7728 F   0  0  0  0  0  0
  -29.9824  -13.5517   20.3879 N   0  0  0  0  0  0
  -26.2932  -12.9450   20.3257 N   0  0  0  0  0  0
  -25.9343  -11.6579   20.5733 N   0  0  0  0  0  0
  -22.0474  -12.8195   22.0436 N   0  0  0  0  0  0
  -25.4151  -15.1954   20.4087 N   0  0  0  0  0  0
  -31.8188  -14.8339   20.1996 O   0  0  0  0  0  0
  -21.6642   -6.8902   21.4251 O   0  0  0  0  0  0
  -22.3496  -14.5513   20.6722 O   0  0  0  0  0  0
  -24.6322  -31.8578   23.1953 C   0  0  0  0  0  0
  -25.9134  -32.4779   23.8325 C   0  0  1  0  0  0
  -27.2131  -27.2399   20.1325 C   0  0  0  0  0  0
  -25.5924  -33.8579   24.2246 N   0  0  0  0  0  0
  -23.4315  -30.4791   21.5389 C   0  0  2  0  0  0
  -24.8837  -28.9243   20.1050 C   0  0  0  0  0  0
  -22.7531  -29.4614   22.4883 C   0  0  0  0  0  0
  -18.0315  -28.1407   22.8510 C   0  0  0  0  0  0
  -24.1478  -36.7271   23.2637 C   0  0  0  0  0  0
  -25.9817  -30.7595   21.3840 C   0  0  0  0  0  0
  -26.0569  -29.3811   20.7228 C   0  0  0  0  0  0
  -27.2284  -28.5485   20.7317 C   0  0  0  0  0  0
  -26.0242  -26.8640   19.4744 C   0  0  0  0  0  0
  -24.8720  -27.6738   19.4695 C   0  0  0  0  0  0
  -23.6542  -29.8134   20.1547 C   0  0  0  0  0  0
  -25.4106  -36.3080   24.0334 C   0  0  1  0  0  0
  -20.5926  -28.3731   23.1272 C   0  0  2  0  0  0
  -20.6785  -26.9448   22.5399 C   0  0  0  0  0  0
  -19.5748  -26.6413   21.5214 C   0  0  0  0  0  0
  -18.1944  -26.7950   22.1652 C   0  0  0  0  0  0
  -19.1574  -28.8890   23.2884 C   0  0  0  0  0  0
  -18.9476  -30.1489   23.8909 C   0  0  0  0  0  0
  -17.6472  -30.6609   24.0585 C   0  0  0  0  0  0
  -25.9052  -34.9457   23.5093 C   0  0  0  0  0  0
  -16.5368  -29.9100   23.6347 C   0  0  0  0  0  0
  -16.7300  -28.6518   23.0380 C   0  0  0  0  0  0
  -26.4476  -31.6606   25.0727 C   0  0  0  0  0  0
  -25.3683  -31.3780   26.1443 C   0  0  0  0  0  0
  -27.0315  -30.3018   24.6234 C   0  0  0  0  0  0
  -27.6038  -32.4328   25.7493 C   0  0  0  0  0  0
  -27.5589  -37.1779   24.8458 C   0  0  0  0  0  0
  -21.4232  -29.3057   22.3633 N   0  0  0  0  0  0
  -26.4274  -37.3793   23.9440 N   0  0  0  0  0  0
  -24.7005  -31.0515   22.0947 N   0  0  0  0  0  0
  -23.4221  -28.8159   23.3004 O   0  0  0  0  0  0
  -28.2146  -26.2355   20.2232 O   0  0  0  0  0  0
  -26.5642  -34.8935   22.4672 O   0  0  0  0  0  0
  -23.5465  -32.1395   23.7235 O   0  0  0  0  0  0
  -31.0100  -19.0347   18.4940 C   0  0  0  0  0  0
  -30.4047  -20.1179   19.1523 C   0  0  0  0  0  0
  -30.8111  -17.6854   18.8721 C   0  0  0  0  0  0
  -29.3454  -18.5199   20.6517 C   0  0  0  0  0  0
  -29.5392  -19.9324   20.2432 C   0  0  0  0  0  0
  -30.0268  -17.3702   20.0293 C   0  0  0  0  0  0
  -28.0300  -23.6820   21.0035 C   0  0  0  0  0  0
  -27.1596  -23.0222   22.0239 C   0  0  0  0  0  0
  -32.5296  -16.8030   17.2511 C   0  0  0  0  0  0
  -31.4139  -16.6630   17.9886 C   0  0  0  0  0  0
  -27.8105  -25.0770   20.9577 C   0  0  0  0  0  0
  -28.9031  -22.5742   20.2299 C   0  0  0  0  0  0
  -27.6869  -21.8251   22.8267 C   0  0  0  0  0  0
  -28.9949  -21.2326   22.2874 C   0  0  0  0  0  0
  -28.3347  -18.1745   21.7378 C   0  0  0  0  0  0
  -28.9709  -21.1543   20.8307 N   0  0  0  0  0  0
  -29.8203  -15.9394   20.4808 N   0  0  0  0  0  0
  -26.0000  -23.3877   22.2541 O   0  0  0  0  0  0
  -31.4742  -12.6035   19.1688 H   0  0  0  0  0  0
  -30.3851  -11.5046   19.9711 H   0  0  0  0  0  0
  -29.7994  -11.7316   17.5287 H   0  0  0  0  0  0
  -29.6407  -13.4590   17.7098 H   0  0  0  0  0  0
  -27.8860  -11.2927   18.9024 H   0  0  0  0  0  0
  -27.3859  -12.5397   17.7932 H   0  0  0  0  0  0
  -27.6238  -14.2600   19.4551 H   0  0  0  0  0  0
  -28.7262  -12.2046   21.4285 H   0  0  0  0  0  0
  -28.4187  -13.8890   21.7779 H   0  0  0  0  0  0
  -25.2803   -9.5661   22.4746 H   0  0  0  0  0  0
  -24.0026   -7.4624   22.7448 H   0  0  0  0  0  0
  -21.0885   -8.8808   19.8934 H   0  0  0  0  0  0
  -22.3772  -10.9683   19.6154 H   0  0  0  0  0  0
  -21.2004   -7.6149   23.9737 H   0  0  0  0  0  0
  -21.1479   -6.0508   25.9082 H   0  0  0  0  0  0
  -22.0596   -2.7621   23.2826 H   0  0  0  0  0  0
  -22.4104  -11.9872   22.4842 H   0  0  0  0  0  0
  -21.1077  -13.1181   22.2609 H   0  0  0  0  0  0
  -24.6381  -15.8406   20.5058 H   0  0  0  0  0  0
  -26.2437  -15.6314   20.0262 H   0  0  0  0  0  0
  -26.7215  -32.5437   23.1075 H   0  0  0  0  0  0
  -25.0039  -33.9701   25.0376 H   0  0  0  0  0  0
  -22.7249  -31.3001   21.3913 H   0  0  0  0  0  0
  -23.3767  -35.9576   23.3281 H   0  0  0  0  0  0
  -24.3559  -36.8907   22.2049 H   0  0  0  0  0  0
  -23.7183  -37.6447   23.6671 H   0  0  0  0  0  0
  -26.1290  -31.5197   20.6157 H   0  0  0  0  0  0
  -26.8531  -30.8067   22.0245 H   0  0  0  0  0  0
  -28.1167  -28.8813   21.2506 H   0  0  0  0  0  0
  -25.9675  -25.8943   19.0018 H   0  0  0  0  0  0
  -23.9732  -27.3155   18.9838 H   0  0  0  0  0  0
  -23.7766  -30.5885   19.3974 H   0  0  0  0  0  0
  -22.7722  -29.2465   19.8511 H   0  0  0  0  0  0
  -25.1270  -36.1918   25.0826 H   0  0  0  0  0  0
  -21.0047  -28.3320   24.1383 H   0  0  0  0  0  0
  -20.5693  -26.2353   23.3612 H   0  0  0  0  0  0
  -21.6651  -26.7459   22.1202 H   0  0  0  0  0  0
  -19.6880  -25.6320   21.1264 H   0  0  0  0  0  0
  -19.6666  -27.3221   20.6740 H   0  0  0  0  0  0
  -17.4200  -26.6756   21.4055 H   0  0  0  0  0  0
  -18.0334  -26.0069   22.9029 H   0  0  0  0  0  0
  -19.7946  -30.7328   24.2278 H   0  0  0  0  0  0
  -17.5016  -31.6291   24.5185 H   0  0  0  0  0  0
  -15.5367  -30.3008   23.7638 H   0  0  0  0  0  0
  -15.8708  -28.0824   22.7091 H   0  0  0  0  0  0
  -24.5838  -30.7148   25.7783 H   0  0  0  0  0  0
  -24.8886  -32.2965   26.4857 H   0  0  0  0  0  0
  -25.7983  -30.8968   27.0238 H   0  0  0  0  0  0
  -26.2905  -29.6786   24.1211 H   0  0  0  0  0  0
  -27.3926  -29.7267   25.4763 H   0  0  0  0  0  0
  -27.8827  -30.4284   23.9531 H   0  0  0  0  0  0
  -27.2669  -33.3643   26.2059 H   0  0  0  0  0  0
  -28.3862  -32.6871   25.0329 H   0  0  0  0  0  0
  -28.0698  -31.8450   26.5409 H   0  0  0  0  0  0
  -28.2570  -38.0119   24.7606 H   0  0  0  0  0  0
  -28.1129  -36.2664   24.6161 H   0  0  0  0  0  0
  -27.2336  -37.1269   25.8864 H   0  0  0  0  0  0
  -20.9405  -29.8775   21.6834 H   0  0  0  0  0  0
  -26.0150  -38.2858   24.1504 H   0  0  0  0  0  0
  -31.6147  -19.2666   17.6299 H   0  0  0  0  0  0
  -30.6106  -21.1121   18.7834 H   0  0  0  0  0  0
  -32.8730  -15.9970   16.6186 H   0  0  0  0  0  0
  -33.1242  -17.7048   17.2609 H   0  0  0  0  0  0
  -30.8820  -15.7274   17.9040 H   0  0  0  0  0  0
  -27.1113  -25.4521   21.6960 H   0  0  0  0  0  0
  -29.9162  -22.9678   20.1311 H   0  0  0  0  0  0
  -28.5063  -22.4950   19.2173 H   0  0  0  0  0  0
  -26.9126  -21.0578   22.8097 H   0  0  0  0  0  0
  -27.8103  -22.1169   23.8706 H   0  0  0  0  0  0
  -29.2016  -20.2799   22.7678 H   0  0  0  0  0  0
  -29.8251  -21.8745   22.5865 H   0  0  0  0  0  0
  -27.5962  -18.9625   21.8766 H   0  0  0  0  0  0
  -28.8407  -17.9845   22.6849 H   0  0  0  0  0  0
  -27.7686  -17.2824   21.4719 H   0  0  0  0  0  0
  -28.8947  -15.7507   20.8313 H   0  0  0  0  0  0
  1 25  1  0  0  0
  1 30  2  0  0  0
  1 87  1  0  0  0
  2  3  1  0  0  0
  2 25  1  0  0  0
  2 89  1  0  0  0
  2 90  1  0  0  0
  3  4  1  0  0  0
  3 91  1  0  0  0
  3 92  1  0  0  0
  4  5  1  0  0  0
  4 93  1  0  0  0
  4 94  1  0  0  0
  5  6  1  0  0  0
  5 26  1  0  0  0
  5 95  1  0  0  0
  6 25  1  0  0  0
  6 96  1  0  0  0
  6 97  1  0  0  0
  7  8  2  0  0  0
  7 26  1  0  0  0
  7 29  1  0  0  0
  8  9  1  0  0  0
  8 22  1  0  0  0
  9 10  1  0  0  0
  9 27  2  0  0  0
 10 11  2  0  0  0
 10 15  1  0  0  0
 11 12  1  0  0  0
 11 98  1  0  0  0
 12 13  2  0  0  0
 12 99  1  0  0  0
 13 14  1  0  0  0
 13 31  1  0  0  0
 14 15  2  0  0  0
 14100  1  0  0  0
 15101  1  0  0  0
 16 17  2  0  0  0
 16 21  1  0  0  0
 16 31  1  0  0  0
 17 18  1  0  0  0
 17102  1  0  0  0
 18 19  2  0  0  0
 18103  1  0  0  0
 19 20  1  0  0  0
 19 24  1  0  0  0
 20 21  2  0  0  0
 20104  1  0  0  0
 21 23  1  0  0  0
 22 28  1  0  0  0
 22 32  2  0  0  0
 26 27  1  0  0  0
 28105  1  0  0  0
 28106  1  0  0  0
 29107  1  0  0  0
 29108  1  0  0  0
 33 34  1  0  0  0
 33 66  1  0  0  0
 33 70  2  0  0  0
 34 36  1  0  0  0
 34 59  1  0  0  0
 34109  1  0  0  0
 35 44  2  0  0  0
 35 45  1  0  0  0
 35 68  1  0  0  0
 36 56  1  0  0  0
 36110  1  0  0  0
 37 39  1  0  0  0
 37 47  1  0  0  0
 37 66  1  0  0  0
 37111  1  0  0  0
 38 43  2  0  0  0
 38 46  1  0  0  0
 38 47  1  0  0  0
 39 64  1  0  0  0
 39 67  2  0  0  0
 40 52  1  0  0  0
 40 53  2  0  0  0
 40 58  1  0  0  0
 41112  1  0  0  0
 41113  1  0  0  0
 41114  1  0  0  0
 41 48  1  0  0  0
 42 43  1  0  0  0
 42 66  1  0  0  0
 42115  1  0  0  0
 42116  1  0  0  0
 43 44  1  0  0  0
 44117  1  0  0  0
 45 46  2  0  0  0
 45118  1  0  0  0
 46119  1  0  0  0
 47120  1  0  0  0
 47121  1  0  0  0
 48 56  1  0  0  0
 48 65  1  0  0  0
 48122  1  0  0  0
 49 50  1  0  0  0
 49 53  1  0  0  0
 49 64  1  0  0  0
 49123  1  0  0  0
 50 51  1  0  0  0
 50124  1  0  0  0
 50125  1  0  0  0
 51 52  1  0  0  0
 51126  1  0  0  0
 51127  1  0  0  0
 52128  1  0  0  0
 52129  1  0  0  0
 53 54  1  0  0  0
 54 55  2  0  0  0
 54130  1  0  0  0
 55 57  1  0  0  0
 55131  1  0  0  0
 56 69  2  0  0  0
 57 58  2  0  0  0
 57132  1  0  0  0
 58133  1  0  0  0
 59 60  1  0  0  0
 59 61  1  0  0  0
 59 62  1  0  0  0
 60134  1  0  0  0
 60135  1  0  0  0
 60136  1  0  0  0
 61137  1  0  0  0
 61138  1  0  0  0
 61139  1  0  0  0
 62140  1  0  0  0
 62141  1  0  0  0
 62142  1  0  0  0
 63 65  1  0  0  0
 63143  1  0  0  0
 63144  1  0  0  0
 63145  1  0  0  0
 64146  1  0  0  0
 65147  1  0  0  0
 68 81  1  0  0  0
 71 72  2  0  0  0
 71 73  1  0  0  0
 71148  1  0  0  0
 72 75  1  0  0  0
 72149  1  0  0  0
 73 76  2  0  0  0
 73 80  1  0  0  0
 74 75  2  0  0  0
 74 76  1  0  0  0
 74 85  1  0  0  0
 75 86  1  0  0  0
 76 87  1  0  0  0
 77 78  1  0  0  0
 77 81  2  0  0  0
 77 82  1  0  0  0
 78 83  1  0  0  0
 78 88  2  0  0  0
 79 80  2  0  0  0
 79150  1  0  0  0
 79151  1  0  0  0
 80152  1  0  0  0
 81153  1  0  0  0
 82 86  1  0  0  0
 82154  1  0  0  0
 82155  1  0  0  0
 83 84  1  0  0  0
 83156  1  0  0  0
 83157  1  0  0  0
 84 86  1  0  0  0
 84158  1  0  0  0
 84159  1  0  0  0
 85160  1  0  0  0
 85161  1  0  0  0
 85162  1  0  0  0
 87163  1  0  0  0
M  ISO  4   1 100  68 101  81 101  87 100
M  END
> <chiral flag>
0

> <version>
0

> <s_m_source_file>
/data/baiqing/PycharmProjects/Reinvent-master-3.2/result/LINK_invent/BTK/process_docking_weight1_custom_product_contain_oxygen_bond_distance_aromatic_linkinvent_7_9_3/rearranged_h_0113.sdf

> <i_m_source_file_index>
51

> <r_mmod_Potential_Energy-OPLS-2005>
319.801086425781

> <r_mmod_Stretch_Energy-OPLS-2005>
163.746032714844

> <r_mmod_Bend_Energy-OPLS-2005>
239.723922729492

> <r_mmod_Torsional_Energy-OPLS-2005>
251.583923339844

> <r_mmod_Improper_Torsional_Energy-OPLS-2005>
7.73932313919067

> <r_mmod_Van_der_Waal_Energy-OPLS-2005>
170.665985107422

> <r_mmod_Electrostatic_Energy-OPLS-2005>
-400.173126220703

> <r_mmod_Solvation_Energy-OPLS-2005>
-229.360015869141

> <b_mmod_Minimization_Converged-OPLS-2005>
0

> <r_mmod_RMS_Derivative-OPLS-2005>
2.57243537902832

$$$$
51
                    3D
 Structure written by MMmdl.
162170  0  0  1  0            999 V2000
  -30.7925  -14.5653   20.4021 C   0  0  0  0  0  0
  -30.3996  -12.3474   19.4241 C   0  0  0  0  0  0
  -29.4854  -12.4882   18.1893 C   0  0  0  0  0  0
  -28.0168  -12.2916   18.6146 C   0  0  0  0  0  0
  -27.6369  -13.1969   19.8139 C   0  0  2  0  0  0
  -28.6976  -13.1694   20.9369 C   0  0  0  0  0  0
  -25.2591  -13.8081   20.5575 C   0  0  0  0  0  0
  -24.1852  -13.0407   20.9215 C   0  0  0  0  0  0
  -24.6351  -11.6855   20.8669 C   0  0  0  0  0  0
  -23.9024  -10.4252   21.0359 C   0  0  0  0  0  0
  -24.3578   -9.4226   21.9126 C   0  0  0  0  0  0
  -23.6315   -8.2237   22.0698 C   0  0  0  0  0  0
  -22.4292   -8.0224   21.3549 C   0  0  0  0  0  0
  -21.9896   -9.0160   20.4605 C   0  0  0  0  0  0
  -22.7192  -10.2064   20.3029 C   0  0  0  0  0  0
  -21.6832   -6.0709   22.5264 C   0  0  0  0  0  0
  -21.3987   -6.5617   23.8186 C   0  0  0  0  0  0
  -21.3655   -5.6792   24.9149 C   0  0  0  0  0  0
  -21.6050   -4.3044   24.7223 C   0  0  0  0  0  0
  -21.8802   -3.8152   23.4330 C   0  0  0  0  0  0
  -21.9190   -4.6960   22.3384 C   0  0  0  0  0  0
  -22.7904  -13.5222   21.1937 C   0  0  0  0  0  0
  -22.1689   -4.2166   21.0962 F   0  0  0  0  0  0
  -21.5665   -3.4508   25.7721 F   0  0  0  0  0  0
  -30.0205  -13.4333   20.3478 N   0  0  0  0  0  0
  -26.2966  -12.9227   20.3153 N   0  0  0  0  0  0
  -25.9293  -11.6431   20.5701 N   0  0  0  0  0  0
  -22.0575  -12.8123   22.0449 N   0  0  0  0  0  0
  -25.4422  -15.1765   20.3850 N   0  0  0  0  0  0
  -32.0103  -14.4935   20.2583 O   0  0  0  0  0  0
  -21.6675   -6.8842   21.4229 O   0  0  0  0  0  0
  -22.3585  -14.5528   20.6781 O   0  0  0  0  0  0
  -24.6183  -31.8675   23.2078 C   0  0  0  0  0  0
  -25.9104  -32.4803   23.8368 C   0  0  1  0  0  0
  -27.2525  -27.4642   20.0719 C   0  0  0  0  0  0
  -25.6043  -33.8596   24.2369 N   0  0  0  0  0  0
  -23.4022  -30.4933   21.5389 C   0  0  2  0  0  0
  -24.8447  -28.9451   20.1082 C   0  0  0  0  0  0
  -22.7402  -29.4745   22.4897 C   0  0  0  0  0  0
  -18.0278  -28.1464   22.8485 C   0  0  0  0  0  0
  -24.1435  -36.7177   23.2612 C   0  0  0  0  0  0
  -25.9171  -30.8325   21.3529 C   0  0  0  0  0  0
  -25.9967  -29.4610   20.7194 C   0  0  0  0  0  0
  -27.1947  -28.7214   20.7055 C   0  0  0  0  0  0
  -26.0860  -26.9577   19.4500 C   0  0  0  0  0  0
  -24.8835  -27.6915   19.4755 C   0  0  0  0  0  0
  -23.6141  -29.8113   20.1532 C   0  0  0  0  0  0
  -25.4064  -36.3086   24.0383 C   0  0  1  0  0  0
  -20.5890  -28.3789   23.1251 C   0  0  2  0  0  0
  -20.6775  -26.9526   22.5381 C   0  0  0  0  0  0
  -19.5730  -26.6481   21.5222 C   0  0  0  0  0  0
  -18.1924  -26.7990   22.1652 C   0  0  0  0  0  0
  -19.1530  -28.8925   23.2866 C   0  0  0  0  0  0
  -18.9482  -30.1508   23.8892 C   0  0  0  0  0  0
  -17.6479  -30.6620   24.0679 C   0  0  0  0  0  0
  -25.9065  -34.9466   23.5191 C   0  0  0  0  0  0
  -16.5381  -29.9170   23.6343 C   0  0  0  0  0  0
  -16.7269  -28.6632   23.0295 C   0  0  0  0  0  0
  -26.4584  -31.6474   25.0610 C   0  0  0  0  0  0
  -25.3924  -31.3458   26.1373 C   0  0  0  0  0  0
  -27.0395  -30.2943   24.5878 C   0  0  0  0  0  0
  -27.6210  -32.4070   25.7371 C   0  0  0  0  0  0
  -27.5523  -37.1700   24.8514 C   0  0  0  0  0  0
  -21.4119  -29.3169   22.3600 N   0  0  0  0  0  0
  -26.4235  -37.3803   23.9534 N   0  0  0  0  0  0
  -24.6666  -31.0798   22.0946 N   0  0  0  0  0  0
  -23.4086  -28.8250   23.2995 O   0  0  0  0  0  0
  -28.4589  -26.8019   20.0206 O   0  0  0  0  0  0
  -26.5483  -34.8974   22.4624 O   0  0  0  0  0  0
  -23.5402  -32.1384   23.7574 O   0  0  0  0  0  0
  -30.4844  -18.3917   20.9846 C   0  0  0  0  0  0
  -32.3194  -17.3737   19.7669 C   0  0  0  0  0  0
  -32.4295  -19.7294   20.4042 C   0  0  0  0  0  0
  -31.0335  -17.2277   20.3713 C   0  0  0  0  0  0
  -31.1735  -19.6189   21.0175 C   0  0  0  0  0  0
  -32.9975  -18.6265   19.7427 C   0  0  0  0  0  0
  -30.1420  -15.9881   20.2682 C   0  0  0  0  0  0
  -30.6087  -23.1188   20.5040 C   0  0  0  0  0  0
  -34.5791  -20.0650   18.6012 C   0  0  0  0  0  0
  -30.5464  -20.8730   21.6028 C   0  0  0  0  0  0
  -30.3798  -23.8794   19.1935 C   0  0  0  0  0  0
  -29.0189  -24.6136   19.0248 C   0  0  0  0  0  0
  -28.4722  -25.3953   20.2412 C   0  0  0  0  0  0
  -28.9083  -16.1786   20.0165 N   0  0  0  0  0  0
  -30.2662  -21.8265   20.5300 N   0  0  0  0  0  0
  -31.1413  -23.6801   21.4591 O   0  0  0  0  0  0
  -34.1901  -18.7500   19.0536 O   0  0  0  0  0  0
  -31.4484  -12.3820   19.1213 H   0  0  0  0  0  0
  -30.2696  -11.3794   19.9061 H   0  0  0  0  0  0
  -29.7657  -11.7633   17.4275 H   0  0  0  0  0  0
  -29.6035  -13.4750   17.7316 H   0  0  0  0  0  0
  -27.8778  -11.2389   18.8735 H   0  0  0  0  0  0
  -27.3493  -12.4802   17.7719 H   0  0  0  0  0  0
  -27.6140  -14.1914   19.3875 H   0  0  0  0  0  0
  -28.7077  -12.1858   21.4094 H   0  0  0  0  0  0
  -28.4578  -13.8979   21.7135 H   0  0  0  0  0  0
  -25.2685   -9.5774   22.4701 H   0  0  0  0  0  0
  -24.0072   -7.4666   22.7342 H   0  0  0  0  0  0
  -21.0882   -8.8578   19.8861 H   0  0  0  0  0  0
  -22.3595  -10.9559   19.6122 H   0  0  0  0  0  0
  -21.1982   -7.6130   23.9643 H   0  0  0  0  0  0
  -21.1519   -6.0552   25.9031 H   0  0  0  0  0  0
  -22.0610   -2.7631   23.2807 H   0  0  0  0  0  0
  -22.4252  -11.9771   22.4777 H   0  0  0  0  0  0
  -21.1092  -13.0908   22.2503 H   0  0  0  0  0  0
  -24.6848  -15.8413   20.4703 H   0  0  0  0  0  0
  -26.3334  -15.5854   20.1075 H   0  0  0  0  0  0
  -26.7113  -32.5564   23.1071 H   0  0  0  0  0  0
  -25.0671  -33.9838   25.0845 H   0  0  0  0  0  0
  -22.7033  -31.3165   21.3853 H   0  0  0  0  0  0
  -23.3832  -35.9377   23.3327 H   0  0  0  0  0  0
  -24.3433  -36.8736   22.1990 H   0  0  0  0  0  0
  -23.7089  -37.6393   23.6491 H   0  0  0  0  0  0
  -26.0085  -31.5848   20.5678 H   0  0  0  0  0  0
  -26.8133  -30.8973   21.9562 H   0  0  0  0  0  0
  -28.0743  -29.1209   21.1894 H   0  0  0  0  0  0
  -26.1194  -26.0308   18.9009 H   0  0  0  0  0  0
  -24.0043  -27.3080   18.9696 H   0  0  0  0  0  0
  -23.7361  -30.5727   19.3809 H   0  0  0  0  0  0
  -22.7375  -29.2313   19.8549 H   0  0  0  0  0  0
  -25.1252  -36.1903   25.0892 H   0  0  0  0  0  0
  -21.0000  -28.3364   24.1370 H   0  0  0  0  0  0
  -20.5753  -26.2458   23.3621 H   0  0  0  0  0  0
  -21.6659  -26.7580   22.1218 H   0  0  0  0  0  0
  -19.6939  -25.6419   21.1211 H   0  0  0  0  0  0
  -19.6639  -27.3323   20.6769 H   0  0  0  0  0  0
  -17.4242  -26.6784   21.4009 H   0  0  0  0  0  0
  -18.0283  -26.0131   22.9023 H   0  0  0  0  0  0
  -19.7981  -30.7343   24.2195 H   0  0  0  0  0  0
  -17.5089  -31.6269   24.5347 H   0  0  0  0  0  0
  -15.5392  -30.3133   23.7645 H   0  0  0  0  0  0
  -15.8683  -28.1029   22.6856 H   0  0  0  0  0  0
  -24.6327  -30.6534   25.7712 H   0  0  0  0  0  0
  -24.8872  -32.2563   26.4597 H   0  0  0  0  0  0
  -25.8453  -30.8845   27.0200 H   0  0  0  0  0  0
  -26.2856  -29.6627   24.1141 H   0  0  0  0  0  0
  -27.4525  -29.7184   25.4195 H   0  0  0  0  0  0
  -27.8566  -30.4387   23.8795 H   0  0  0  0  0  0
  -27.2970  -33.3491   26.1816 H   0  0  0  0  0  0
  -28.4102  -32.6330   25.0159 H   0  0  0  0  0  0
  -28.0742  -31.8189   26.5400 H   0  0  0  0  0  0
  -28.2596  -37.9955   24.7619 H   0  0  0  0  0  0
  -28.0999  -36.2486   24.6288 H   0  0  0  0  0  0
  -27.2255  -37.1382   25.8940 H   0  0  0  0  0  0
  -20.9214  -29.8791   21.6805 H   0  0  0  0  0  0
  -26.0133  -38.2906   24.1605 H   0  0  0  0  0  0
  -29.4943  -18.3516   21.4116 H   0  0  0  0  0  0
  -32.7874  -16.5461   19.2513 H   0  0  0  0  0  0
  -32.9333  -20.6869   20.4226 H   0  0  0  0  0  0
  -35.4187  -19.9878   17.9104 H   0  0  0  0  0  0
  -34.9227  -20.7374   19.3957 H   0  0  0  0  0  0
  -33.7716  -20.5689   18.0616 H   0  0  0  0  0  0
  -31.2363  -21.2877   22.3429 H   0  0  0  0  0  0
  -29.6190  -20.6288   22.1289 H   0  0  0  0  0  0
  -30.5289  -23.1844   18.3635 H   0  0  0  0  0  0
  -31.1748  -24.6173   19.1052 H   0  0  0  0  0  0
  -28.2769  -23.8865   18.6895 H   0  0  0  0  0  0
  -29.1191  -25.3073   18.1875 H   0  0  0  0  0  0
  -29.0887  -25.2453   21.1241 H   0  0  0  0  0  0
  -27.4875  -25.0023   20.5007 H   0  0  0  0  0  0
  -28.7250  -17.1687   19.8829 H   0  0  0  0  0  0
  -29.8542  -21.4302   19.6966 H   0  0  0  0  0  0
  1 25  1  0  0  0
  1 30  2  0  0  0
  1 77  1  0  0  0
  2  3  1  0  0  0
  2 25  1  0  0  0
  2 88  1  0  0  0
  2 89  1  0  0  0
  3  4  1  0  0  0
  3 90  1  0  0  0
  3 91  1  0  0  0
  4  5  1  0  0  0
  4 92  1  0  0  0
  4 93  1  0  0  0
  5  6  1  0  0  0
  5 26  1  0  0  0
  5 94  1  0  0  0
  6 25  1  0  0  0
  6 95  1  0  0  0
  6 96  1  0  0  0
  7  8  2  0  0  0
  7 26  1  0  0  0
  7 29  1  0  0  0
  8  9  1  0  0  0
  8 22  1  0  0  0
  9 10  1  0  0  0
  9 27  2  0  0  0
 10 11  2  0  0  0
 10 15  1  0  0  0
 11 12  1  0  0  0
 11 97  1  0  0  0
 12 13  2  0  0  0
 12 98  1  0  0  0
 13 14  1  0  0  0
 13 31  1  0  0  0
 14 15  2  0  0  0
 14 99  1  0  0  0
 15100  1  0  0  0
 16 17  2  0  0  0
 16 21  1  0  0  0
 16 31  1  0  0  0
 17 18  1  0  0  0
 17101  1  0  0  0
 18 19  2  0  0  0
 18102  1  0  0  0
 19 20  1  0  0  0
 19 24  1  0  0  0
 20 21  2  0  0  0
 20103  1  0  0  0
 21 23  1  0  0  0
 22 28  1  0  0  0
 22 32  2  0  0  0
 26 27  1  0  0  0
 28104  1  0  0  0
 28105  1  0  0  0
 29106  1  0  0  0
 29107  1  0  0  0
 33 34  1  0  0  0
 33 66  1  0  0  0
 33 70  2  0  0  0
 34 36  1  0  0  0
 34 59  1  0  0  0
 34108  1  0  0  0
 35 44  2  0  0  0
 35 45  1  0  0  0
 35 68  1  0  0  0
 36 56  1  0  0  0
 36109  1  0  0  0
 37 39  1  0  0  0
 37 47  1  0  0  0
 37 66  1  0  0  0
 37110  1  0  0  0
 38 43  2  0  0  0
 38 46  1  0  0  0
 38 47  1  0  0  0
 39 64  1  0  0  0
 39 67  2  0  0  0
 40 52  1  0  0  0
 40 53  2  0  0  0
 40 58  1  0  0  0
 41111  1  0  0  0
 41112  1  0  0  0
 41113  1  0  0  0
 41 48  1  0  0  0
 42 43  1  0  0  0
 42 66  1  0  0  0
 42114  1  0  0  0
 42115  1  0  0  0
 43 44  1  0  0  0
 44116  1  0  0  0
 45 46  2  0  0  0
 45117  1  0  0  0
 46118  1  0  0  0
 47119  1  0  0  0
 47120  1  0  0  0
 48 56  1  0  0  0
 48 65  1  0  0  0
 48121  1  0  0  0
 49 50  1  0  0  0
 49 53  1  0  0  0
 49 64  1  0  0  0
 49122  1  0  0  0
 50 51  1  0  0  0
 50123  1  0  0  0
 50124  1  0  0  0
 51 52  1  0  0  0
 51125  1  0  0  0
 51126  1  0  0  0
 52127  1  0  0  0
 52128  1  0  0  0
 53 54  1  0  0  0
 54 55  2  0  0  0
 54129  1  0  0  0
 55 57  1  0  0  0
 55130  1  0  0  0
 56 69  2  0  0  0
 57 58  2  0  0  0
 57131  1  0  0  0
 58132  1  0  0  0
 59 60  1  0  0  0
 59 61  1  0  0  0
 59 62  1  0  0  0
 60133  1  0  0  0
 60134  1  0  0  0
 60135  1  0  0  0
 61136  1  0  0  0
 61137  1  0  0  0
 61138  1  0  0  0
 62139  1  0  0  0
 62140  1  0  0  0
 62141  1  0  0  0
 63 65  1  0  0  0
 63142  1  0  0  0
 63143  1  0  0  0
 63144  1  0  0  0
 64145  1  0  0  0
 65146  1  0  0  0
 68 83  1  0  0  0
 71 74  2  0  0  0
 71 75  1  0  0  0
 71147  1  0  0  0
 72 74  1  0  0  0
 72 76  2  0  0  0
 72148  1  0  0  0
 73 75  2  0  0  0
 73 76  1  0  0  0
 73149  1  0  0  0
 74 77  1  0  0  0
 75 80  1  0  0  0
 76 87  1  0  0  0
 77 84  2  0  0  0
 78 81  1  0  0  0
 78 85  1  0  0  0
 78 86  2  0  0  0
 79 87  1  0  0  0
 79150  1  0  0  0
 79151  1  0  0  0
 79152  1  0  0  0
 80 85  1  0  0  0
 80153  1  0  0  0
 80154  1  0  0  0
 81 82  1  0  0  0
 81155  1  0  0  0
 81156  1  0  0  0
 82 83  1  0  0  0
 82157  1  0  0  0
 82158  1  0  0  0
 83159  1  0  0  0
 83160  1  0  0  0
 84161  1  0  0  0
 85162  1  0  0  0
M  ISO  4   1 100  68 101  77 100  83 101
M  END
> <chiral flag>
0

> <version>
0

> <s_m_source_file>
/data/baiqing/PycharmProjects/Reinvent-master-3.2/result/LINK_invent/BTK/process_docking_weight1_custom_product_contain_oxygen_bond_distance_aromatic_linkinvent_7_9_3/rearranged_h_0113.sdf

> <i_m_source_file_index>
52

> <r_mmod_Potential_Energy-OPLS-2005>
64.3558654785156

> <r_mmod_Stretch_Energy-OPLS-2005>
52.5340232849121

> <r_mmod_Bend_Energy-OPLS-2005>
131.974090576172

> <r_mmod_Torsional_Energy-OPLS-2005>
237.974487304688

> <r_mmod_Improper_Torsional_Energy-OPLS-2005>
9.54963874816895

> <r_mmod_Van_der_Waal_Energy-OPLS-2005>
170.303894042969

> <r_mmod_Electrostatic_Energy-OPLS-2005>
-357.676727294922

> <r_mmod_Solvation_Energy-OPLS-2005>
-227.126113891602

> <b_mmod_Minimization_Converged-OPLS-2005>
0

> <r_mmod_RMS_Derivative-OPLS-2005>
11.614821434021

$$$$
52
                    3D
 Structure written by MMmdl.
162170  0  0  1  0            999 V2000
  -30.7064  -14.4700   20.5884 C   0  0  0  0  0  0
  -30.4114  -12.3177   19.4156 C   0  0  0  0  0  0
  -29.4882  -12.5188   18.1968 C   0  0  0  0  0  0
  -28.0069  -12.3807   18.6050 C   0  0  0  0  0  0
  -27.6516  -13.2130   19.8675 C   0  0  2  0  0  0
  -28.6935  -13.0028   20.9858 C   0  0  0  0  0  0
  -25.2526  -13.8166   20.5647 C   0  0  0  0  0  0
  -24.1815  -13.0432   20.9207 C   0  0  0  0  0  0
  -24.6378  -11.6901   20.8756 C   0  0  0  0  0  0
  -23.9046  -10.4282   21.0411 C   0  0  0  0  0  0
  -24.3611   -9.4204   21.9186 C   0  0  0  0  0  0
  -23.6292   -8.2233   22.0743 C   0  0  0  0  0  0
  -22.4278   -8.0261   21.3521 C   0  0  0  0  0  0
  -21.9904   -9.0243   20.4637 C   0  0  0  0  0  0
  -22.7219  -10.2125   20.3051 C   0  0  0  0  0  0
  -21.6854   -6.0720   22.5272 C   0  0  0  0  0  0
  -21.4023   -6.5631   23.8200 C   0  0  0  0  0  0
  -21.3660   -5.6784   24.9173 C   0  0  0  0  0  0
  -21.6043   -4.3045   24.7230 C   0  0  0  0  0  0
  -21.8813   -3.8133   23.4354 C   0  0  0  0  0  0
  -21.9191   -4.6951   22.3402 C   0  0  0  0  0  0
  -22.7838  -13.5221   21.1878 C   0  0  0  0  0  0
  -22.1652   -4.2130   21.0979 F   0  0  0  0  0  0
  -21.5644   -3.4534   25.7750 F   0  0  0  0  0  0
  -30.0145  -13.3085   20.4253 N   0  0  0  0  0  0
  -26.2961  -12.9346   20.3315 N   0  0  0  0  0  0
  -25.9307  -11.6509   20.5758 N   0  0  0  0  0  0
  -22.0491  -12.8198   22.0440 N   0  0  0  0  0  0
  -25.4195  -15.1883   20.3929 N   0  0  0  0  0  0
  -31.8597  -14.5945   20.1680 O   0  0  0  0  0  0
  -21.6630   -6.8870   21.4231 O   0  0  0  0  0  0
  -22.3512  -14.5516   20.6713 O   0  0  0  0  0  0
  -24.6168  -31.8685   23.2095 C   0  0  0  0  0  0
  -25.9068  -32.4840   23.8394 C   0  0  1  0  0  0
  -27.2290  -27.4374   20.0790 C   0  0  0  0  0  0
  -25.5917  -33.8621   24.2338 N   0  0  0  0  0  0
  -23.4049  -30.4988   21.5472 C   0  0  2  0  0  0
  -24.8480  -28.9672   20.1108 C   0  0  0  0  0  0
  -22.7428  -29.4697   22.4939 C   0  0  0  0  0  0
  -18.0257  -28.1425   22.8473 C   0  0  0  0  0  0
  -24.1473  -36.7295   23.2643 C   0  0  0  0  0  0
  -25.9383  -30.8323   21.3664 C   0  0  0  0  0  0
  -26.0108  -29.4714   20.7057 C   0  0  0  0  0  0
  -27.2045  -28.7140   20.6877 C   0  0  0  0  0  0
  -26.0379  -26.9346   19.5060 C   0  0  0  0  0  0
  -24.8549  -27.6975   19.5104 C   0  0  0  0  0  0
  -23.6175  -29.8433   20.1569 C   0  0  0  0  0  0
  -25.4092  -36.3109   24.0369 C   0  0  1  0  0  0
  -20.5869  -28.3700   23.1328 C   0  0  2  0  0  0
  -20.6782  -26.9432   22.5424 C   0  0  0  0  0  0
  -19.5754  -26.6397   21.5243 C   0  0  0  0  0  0
  -18.1921  -26.7963   22.1627 C   0  0  0  0  0  0
  -19.1517  -28.8876   23.2904 C   0  0  0  0  0  0
  -18.9467  -30.1477   23.8915 C   0  0  0  0  0  0
  -17.6471  -30.6624   24.0573 C   0  0  0  0  0  0
  -25.9041  -34.9473   23.5142 C   0  0  0  0  0  0
  -16.5365  -29.9112   23.6337 C   0  0  0  0  0  0
  -16.7239  -28.6545   23.0322 C   0  0  0  0  0  0
  -26.4471  -31.6657   25.0751 C   0  0  0  0  0  0
  -25.3754  -31.3877   26.1519 C   0  0  0  0  0  0
  -27.0268  -30.3061   24.6214 C   0  0  0  0  0  0
  -27.6033  -32.4376   25.7528 C   0  0  0  0  0  0
  -27.5595  -37.1803   24.8472 C   0  0  0  0  0  0
  -21.4146  -29.3065   22.3715 N   0  0  0  0  0  0
  -26.4281  -37.3799   23.9437 N   0  0  0  0  0  0
  -24.6713  -31.0809   22.0970 N   0  0  0  0  0  0
  -23.4203  -28.8223   23.2975 O   0  0  0  0  0  0
  -28.3809  -26.6794   20.0917 O   0  0  0  0  0  0
  -26.5562  -34.8932   22.4692 O   0  0  0  0  0  0
  -23.5372  -32.1432   23.7491 O   0  0  0  0  0  0
  -28.0101  -19.3746   22.0672 C   0  0  0  0  0  0
  -29.5811  -19.0036   20.4628 C   0  0  0  0  0  0
  -28.6847  -19.9698   21.0385 C   0  0  0  0  0  0
  -29.5623  -17.9141   21.3126 C   0  0  0  0  0  0
  -28.6424  -25.8946   18.9940 C   0  0  0  0  0  0
  -30.4424  -19.0209   19.2438 C   0  0  0  0  0  0
  -30.4727  -16.7311   21.3800 C   0  0  0  0  0  0
  -28.8402  -24.5510   18.9947 C   0  0  0  0  0  0
  -28.7762  -23.7261   20.2491 C   0  0  0  0  0  0
  -29.3368  -22.2601   20.2336 C   0  0  0  0  0  0
  -29.8417  -19.6454   17.9933 C   0  0  0  0  0  0
  -29.1234  -23.8322   17.6808 C   0  0  0  0  0  0
  -28.1383  -17.1912   23.3087 C   0  0  0  0  0  0
  -28.5529  -18.1113   22.2595 N   0  0  0  0  0  0
  -28.4509  -21.3413   20.6848 N   0  0  0  0  0  0
  -29.9829  -15.5201   21.0429 N   0  0  0  0  0  0
  -31.5480  -18.4804   19.1791 O   0  0  0  0  0  0
  -31.6404  -16.9297   21.7306 O   0  0  0  0  0  0
  -28.2994  -24.1551   21.3065 O   0  0  0  0  0  0
  -30.4895  -22.0103   19.8716 O   0  0  0  0  0  0
  -31.4568  -12.4067   19.1215 H   0  0  0  0  0  0
  -30.2963  -11.3137   19.8199 H   0  0  0  0  0  0
  -29.7307  -11.7991   17.4126 H   0  0  0  0  0  0
  -29.6559  -13.5056   17.7614 H   0  0  0  0  0  0
  -27.8101  -11.3247   18.7896 H   0  0  0  0  0  0
  -27.3622  -12.6666   17.7713 H   0  0  0  0  0  0
  -27.6887  -14.2601   19.5692 H   0  0  0  0  0  0
  -28.6754  -11.9660   21.3225 H   0  0  0  0  0  0
  -28.4616  -13.6015   21.8672 H   0  0  0  0  0  0
  -25.2780   -9.5690   22.4737 H   0  0  0  0  0  0
  -24.0004   -7.4624   22.7461 H   0  0  0  0  0  0
  -21.0822   -8.8767   19.8950 H   0  0  0  0  0  0
  -22.3687  -10.9664   19.6144 H   0  0  0  0  0  0
  -21.2009   -7.6135   23.9708 H   0  0  0  0  0  0
  -21.1496   -6.0515   25.9070 H   0  0  0  0  0  0
  -22.0595   -2.7596   23.2863 H   0  0  0  0  0  0
  -22.4085  -11.9871   22.4847 H   0  0  0  0  0  0
  -21.1094  -13.1216   22.2596 H   0  0  0  0  0  0
  -24.6198  -15.8121   20.4130 H   0  0  0  0  0  0
  -26.2211  -15.6030   19.9365 H   0  0  0  0  0  0
  -26.7133  -32.5513   23.1155 H   0  0  0  0  0  0
  -25.0172  -33.9762   25.0562 H   0  0  0  0  0  0
  -22.6930  -31.3169   21.4116 H   0  0  0  0  0  0
  -23.3749  -35.9620   23.3321 H   0  0  0  0  0  0
  -24.3613  -36.8877   22.2067 H   0  0  0  0  0  0
  -23.7193  -37.6506   23.6614 H   0  0  0  0  0  0
  -26.0791  -31.6066   20.6098 H   0  0  0  0  0  0
  -26.8158  -30.8677   22.0009 H   0  0  0  0  0  0
  -28.1059  -29.0975   21.1438 H   0  0  0  0  0  0
  -26.0158  -25.9502   19.0613 H   0  0  0  0  0  0
  -23.9574  -27.3032   19.0562 H   0  0  0  0  0  0
  -23.7433  -30.6258   19.4052 H   0  0  0  0  0  0
  -22.7370  -29.2804   19.8465 H   0  0  0  0  0  0
  -25.1266  -36.2012   25.0871 H   0  0  0  0  0  0
  -20.9971  -28.3282   24.1446 H   0  0  0  0  0  0
  -20.5779  -26.2274   23.3582 H   0  0  0  0  0  0
  -21.6646  -26.7494   22.1202 H   0  0  0  0  0  0
  -19.6897  -25.6312   21.1246 H   0  0  0  0  0  0
  -19.6731  -27.3234   20.6809 H   0  0  0  0  0  0
  -17.4198  -26.6693   21.4020 H   0  0  0  0  0  0
  -18.0298  -26.0142   22.9059 H   0  0  0  0  0  0
  -19.7969  -30.7272   24.2310 H   0  0  0  0  0  0
  -17.5041  -31.6312   24.5161 H   0  0  0  0  0  0
  -15.5375  -30.3027   23.7693 H   0  0  0  0  0  0
  -15.8626  -28.0891   22.7013 H   0  0  0  0  0  0
  -24.5790  -30.7367   25.7921 H   0  0  0  0  0  0
  -24.9127  -32.3088   26.5065 H   0  0  0  0  0  0
  -25.8112  -30.8954   27.0216 H   0  0  0  0  0  0
  -26.2851  -29.6867   24.1145 H   0  0  0  0  0  0
  -27.3849  -29.7293   25.4765 H   0  0  0  0  0  0
  -27.8762  -30.4331   23.9498 H   0  0  0  0  0  0
  -27.2637  -33.3643   26.2165 H   0  0  0  0  0  0
  -28.3843  -32.7021   25.0387 H   0  0  0  0  0  0
  -28.0656  -31.8454   26.5434 H   0  0  0  0  0  0
  -28.2622  -38.0092   24.7536 H   0  0  0  0  0  0
  -28.1058  -36.2626   24.6246 H   0  0  0  0  0  0
  -27.2330  -37.1469   25.8877 H   0  0  0  0  0  0
  -20.9262  -29.8720   21.6925 H   0  0  0  0  0  0
  -26.0179  -38.2892   24.1409 H   0  0  0  0  0  0
  -27.2263  -19.7447   22.7171 H   0  0  0  0  0  0
  -28.6812  -26.4913   18.0928 H   0  0  0  0  0  0
  -28.8141  -19.9578   18.1720 H   0  0  0  0  0  0
  -29.8417  -18.9179   17.1835 H   0  0  0  0  0  0
  -30.4264  -20.5098   17.6831 H   0  0  0  0  0  0
  -28.8772  -24.4660   16.8278 H   0  0  0  0  0  0
  -28.5251  -22.9255   17.5804 H   0  0  0  0  0  0
  -30.1782  -23.5718   17.5992 H   0  0  0  0  0  0
  -27.4541  -17.6840   24.0010 H   0  0  0  0  0  0
  -29.0039  -16.8487   23.8776 H   0  0  0  0  0  0
  -27.6257  -16.3314   22.8721 H   0  0  0  0  0  0
  -27.5926  -21.7564   21.0253 H   0  0  0  0  0  0
  -28.9843  -15.4176   21.0426 H   0  0  0  0  0  0
  1 25  1  0  0  0
  1 30  2  0  0  0
  1 86  1  0  0  0
  2  3  1  0  0  0
  2 25  1  0  0  0
  2 91  1  0  0  0
  2 92  1  0  0  0
  3  4  1  0  0  0
  3 93  1  0  0  0
  3 94  1  0  0  0
  4  5  1  0  0  0
  4 95  1  0  0  0
  4 96  1  0  0  0
  5  6  1  0  0  0
  5 26  1  0  0  0
  5 97  1  0  0  0
  6 25  1  0  0  0
  6 98  1  0  0  0
  6 99  1  0  0  0
  7  8  2  0  0  0
  7 26  1  0  0  0
  7 29  1  0  0  0
  8  9  1  0  0  0
  8 22  1  0  0  0
  9 10  1  0  0  0
  9 27  2  0  0  0
 10 11  2  0  0  0
 10 15  1  0  0  0
 11 12  1  0  0  0
 11100  1  0  0  0
 12 13  2  0  0  0
 12101  1  0  0  0
 13 14  1  0  0  0
 13 31  1  0  0  0
 14 15  2  0  0  0
 14102  1  0  0  0
 15103  1  0  0  0
 16 17  2  0  0  0
 16 21  1  0  0  0
 16 31  1  0  0  0
 17 18  1  0  0  0
 17104  1  0  0  0
 18 19  2  0  0  0
 18105  1  0  0  0
 19 20  1  0  0  0
 19 24  1  0  0  0
 20 21  2  0  0  0
 20106  1  0  0  0
 21 23  1  0  0  0
 22 28  1  0  0  0
 22 32  2  0  0  0
 26 27  1  0  0  0
 28107  1  0  0  0
 28108  1  0  0  0
 29109  1  0  0  0
 29110  1  0  0  0
 33 34  1  0  0  0
 33 66  1  0  0  0
 33 70  2  0  0  0
 34 36  1  0  0  0
 34 59  1  0  0  0
 34111  1  0  0  0
 35 44  2  0  0  0
 35 45  1  0  0  0
 35 68  1  0  0  0
 36 56  1  0  0  0
 36112  1  0  0  0
 37 39  1  0  0  0
 37 47  1  0  0  0
 37 66  1  0  0  0
 37113  1  0  0  0
 38 43  2  0  0  0
 38 46  1  0  0  0
 38 47  1  0  0  0
 39 64  1  0  0  0
 39 67  2  0  0  0
 40 52  1  0  0  0
 40 53  2  0  0  0
 40 58  1  0  0  0
 41114  1  0  0  0
 41115  1  0  0  0
 41116  1  0  0  0
 41 48  1  0  0  0
 42 43  1  0  0  0
 42 66  1  0  0  0
 42117  1  0  0  0
 42118  1  0  0  0
 43 44  1  0  0  0
 44119  1  0  0  0
 45 46  2  0  0  0
 45120  1  0  0  0
 46121  1  0  0  0
 47122  1  0  0  0
 47123  1  0  0  0
 48 56  1  0  0  0
 48 65  1  0  0  0
 48124  1  0  0  0
 49 50  1  0  0  0
 49 53  1  0  0  0
 49 64  1  0  0  0
 49125  1  0  0  0
 50 51  1  0  0  0
 50126  1  0  0  0
 50127  1  0  0  0
 51 52  1  0  0  0
 51128  1  0  0  0
 51129  1  0  0  0
 52130  1  0  0  0
 52131  1  0  0  0
 53 54  1  0  0  0
 54 55  2  0  0  0
 54132  1  0  0  0
 55 57  1  0  0  0
 55133  1  0  0  0
 56 69  2  0  0  0
 57 58  2  0  0  0
 57134  1  0  0  0
 58135  1  0  0  0
 59 60  1  0  0  0
 59 61  1  0  0  0
 59 62  1  0  0  0
 60136  1  0  0  0
 60137  1  0  0  0
 60138  1  0  0  0
 61139  1  0  0  0
 61140  1  0  0  0
 61141  1  0  0  0
 62142  1  0  0  0
 62143  1  0  0  0
 62144  1  0  0  0
 63 65  1  0  0  0
 63145  1  0  0  0
 63146  1  0  0  0
 63147  1  0  0  0
 64148  1  0  0  0
 65149  1  0  0  0
 68 75  1  0  0  0
 71 73  2  0  0  0
 71 84  1  0  0  0
 71150  1  0  0  0
 72 73  1  0  0  0
 72 74  2  0  0  0
 72 76  1  0  0  0
 73 85  1  0  0  0
 74 77  1  0  0  0
 74 84  1  0  0  0
 75 78  2  0  0  0
 75151  1  0  0  0
 76 81  1  0  0  0
 76 87  2  0  0  0
 77 86  1  0  0  0
 77 88  2  0  0  0
 78 79  1  0  0  0
 78 82  1  0  0  0
 79 80  1  0  0  0
 79 89  2  0  0  0
 80 85  1  0  0  0
 80 90  2  0  0  0
 81152  1  0  0  0
 81153  1  0  0  0
 81154  1  0  0  0
 82155  1  0  0  0
 82156  1  0  0  0
 82157  1  0  0  0
 83 84  1  0  0  0
 83158  1  0  0  0
 83159  1  0  0  0
 83160  1  0  0  0
 85161  1  0  0  0
 86162  1  0  0  0
M  ISO  4   1 100  68 101  75 101  86 100
M  END
> <chiral flag>
0

> <version>
0

> <s_m_source_file>
/data/baiqing/PycharmProjects/Reinvent-master-3.2/result/LINK_invent/BTK/process_docking_weight1_custom_product_contain_oxygen_bond_distance_aromatic_linkinvent_7_9_3/rearranged_h_0113.sdf

> <i_m_source_file_index>
53

> <r_mmod_Potential_Energy-OPLS-2005>
-10.4861145019531

> <r_mmod_Stretch_Energy-OPLS-2005>
42.780143737793

> <r_mmod_Bend_Energy-OPLS-2005>
113.508842468262

> <r_mmod_Torsional_Energy-OPLS-2005>
318.170471191406

> <r_mmod_Improper_Torsional_Energy-OPLS-2005>
7.32392930984497

> <r_mmod_Van_der_Waal_Energy-OPLS-2005>
141.208114624023

> <r_mmod_Electrostatic_Energy-OPLS-2005>
-369.745971679688

> <r_mmod_Solvation_Energy-OPLS-2005>
-279.704467773438

> <b_mmod_Minimization_Converged-OPLS-2005>
0

> <r_mmod_RMS_Derivative-OPLS-2005>
4.80728101730347

$$$$
53
                    3D
 Structure written by MMmdl.
153161  0  0  1  0            999 V2000
  -30.5532  -14.9541   20.4857 C   0  0  0  0  0  0
  -30.4427  -12.6113   19.4800 C   0  0  0  0  0  0
  -29.5149  -12.5659   18.2397 C   0  0  0  0  0  0
  -28.0471  -12.3395   18.6484 C   0  0  0  0  0  0
  -27.6327  -13.2428   19.8354 C   0  0  2  0  0  0
  -28.6755  -13.2089   20.9669 C   0  0  0  0  0  0
  -25.2492  -13.8208   20.5670 C   0  0  0  0  0  0
  -24.1788  -13.0442   20.9181 C   0  0  0  0  0  0
  -24.6399  -11.6924   20.8712 C   0  0  0  0  0  0
  -23.9076  -10.4302   21.0391 C   0  0  0  0  0  0
  -24.3615   -9.4226   21.9181 C   0  0  0  0  0  0
  -23.6292   -8.2256   22.0761 C   0  0  0  0  0  0
  -22.4283   -8.0278   21.3540 C   0  0  0  0  0  0
  -21.9916   -9.0254   20.4644 C   0  0  0  0  0  0
  -22.7243  -10.2134   20.3052 C   0  0  0  0  0  0
  -21.6867   -6.0717   22.5260 C   0  0  0  0  0  0
  -21.4025   -6.5621   23.8189 C   0  0  0  0  0  0
  -21.3668   -5.6778   24.9155 C   0  0  0  0  0  0
  -21.6045   -4.3041   24.7214 C   0  0  0  0  0  0
  -21.8824   -3.8128   23.4338 C   0  0  0  0  0  0
  -21.9198   -4.6940   22.3391 C   0  0  0  0  0  0
  -22.7820  -13.5229   21.1860 C   0  0  0  0  0  0
  -22.1664   -4.2128   21.0970 F   0  0  0  0  0  0
  -21.5637   -3.4530   25.7732 F   0  0  0  0  0  0
  -29.9575  -13.6813   20.4072 N   0  0  0  0  0  0
  -26.2896  -12.9417   20.3187 N   0  0  0  0  0  0
  -25.9328  -11.6553   20.5684 N   0  0  0  0  0  0
  -22.0470  -12.8210   22.0402 N   0  0  0  0  0  0
  -25.4215  -15.1934   20.4143 N   0  0  0  0  0  0
  -31.6966  -15.0541   20.0231 O   0  0  0  0  0  0
  -21.6653   -6.8870   21.4228 O   0  0  0  0  0  0
  -22.3507  -14.5533   20.6721 O   0  0  0  0  0  0
  -24.6454  -31.8441   23.1861 C   0  0  0  0  0  0
  -25.9222  -32.4704   23.8250 C   0  0  1  0  0  0
  -27.2209  -27.1269   20.1336 C   0  0  0  0  0  0
  -25.5974  -33.8507   24.2187 N   0  0  0  0  0  0
  -23.4483  -30.4643   21.5335 C   0  0  2  0  0  0
  -24.8990  -28.8931   20.1036 C   0  0  0  0  0  0
  -22.7569  -29.4548   22.4848 C   0  0  0  0  0  0
  -18.0309  -28.1378   22.8483 C   0  0  0  0  0  0
  -24.1498  -36.7245   23.2640 C   0  0  0  0  0  0
  -26.0044  -30.7131   21.3850 C   0  0  0  0  0  0
  -26.0762  -29.3220   20.7301 C   0  0  0  0  0  0
  -27.2333  -28.4519   20.7378 C   0  0  0  0  0  0
  -26.0220  -26.8194   19.4475 C   0  0  0  0  0  0
  -24.8861  -27.6549   19.4482 C   0  0  0  0  0  0
  -23.6738  -29.7954   20.1519 C   0  0  0  0  0  0
  -25.4127  -36.3034   24.0318 C   0  0  1  0  0  0
  -20.5928  -28.3718   23.1224 C   0  0  2  0  0  0
  -20.6805  -26.9427   22.5383 C   0  0  0  0  0  0
  -19.5769  -26.6384   21.5203 C   0  0  0  0  0  0
  -18.1948  -26.7925   22.1614 C   0  0  0  0  0  0
  -19.1569  -28.8860   23.2854 C   0  0  0  0  0  0
  -18.9492  -30.1453   23.8886 C   0  0  0  0  0  0
  -17.6495  -30.6592   24.0548 C   0  0  0  0  0  0
  -25.9086  -34.9413   23.5059 C   0  0  0  0  0  0
  -16.5380  -29.9087   23.6329 C   0  0  0  0  0  0
  -16.7298  -28.6493   23.0371 C   0  0  0  0  0  0
  -26.4556  -31.6559   25.0678 C   0  0  0  0  0  0
  -25.3720  -31.3668   26.1334 C   0  0  0  0  0  0
  -27.0478  -30.2996   24.6202 C   0  0  0  0  0  0
  -27.6071  -32.4313   25.7498 C   0  0  0  0  0  0
  -27.5578  -37.1784   24.8468 C   0  0  0  0  0  0
  -21.4258  -29.3062   22.3605 N   0  0  0  0  0  0
  -26.4277  -37.3755   23.9429 N   0  0  0  0  0  0
  -24.7196  -31.0277   22.0905 N   0  0  0  0  0  0
  -23.4221  -28.8068   23.2976 O   0  0  0  0  0  0
  -28.2591  -26.1191   20.2223 O   0  0  0  0  0  0
  -26.5667  -34.8914   22.4637 O   0  0  0  0  0  0
  -23.5571  -32.1323   23.7074 O   0  0  0  0  0  0
  -28.6744  -19.9077   21.1914 C   0  0  0  0  0  0
  -28.8897  -18.4924   21.4304 C   0  0  0  0  0  0
  -30.3251  -18.3437   19.5870 C   0  0  0  0  0  0
  -30.1037  -19.7737   19.3300 C   0  0  0  0  0  0
  -29.2568  -20.6495   20.1193 C   0  0  0  0  0  0
  -29.7228  -17.5942   20.6584 C   0  0  0  0  0  0
  -28.7605  -23.2387   20.3529 C   0  0  0  0  0  0
  -30.8155  -20.3892   18.1360 C   0  0  0  0  0  0
  -29.5471  -15.8672   22.4650 C   0  0  0  0  0  0
  -28.0123  -24.6327   19.7974 C   0  0  0  0  0  0
  -28.8734  -22.0493   19.7170 N   0  0  0  0  0  0
  -29.8822  -16.0930   21.0475 N   0  0  0  0  0  0
  -31.4711  -12.7796   19.1586 H   0  0  0  0  0  0
  -30.4557  -11.6435   19.9833 H   0  0  0  0  0  0
  -29.8361  -11.7856   17.5483 H   0  0  0  0  0  0
  -29.5952  -13.5057   17.6912 H   0  0  0  0  0  0
  -27.9329  -11.2900   18.9210 H   0  0  0  0  0  0
  -27.3850  -12.5058   17.7971 H   0  0  0  0  0  0
  -27.6115  -14.2601   19.4432 H   0  0  0  0  0  0
  -28.7772  -12.2010   21.3709 H   0  0  0  0  0  0
  -28.3163  -13.8072   21.7953 H   0  0  0  0  0  0
  -25.2756   -9.5705   22.4756 H   0  0  0  0  0  0
  -23.9996   -7.4660   22.7496 H   0  0  0  0  0  0
  -21.0849   -8.8774   19.8954 H   0  0  0  0  0  0
  -22.3703  -10.9663   19.6155 H   0  0  0  0  0  0
  -21.2024   -7.6132   23.9682 H   0  0  0  0  0  0
  -21.1486   -6.0512   25.9055 H   0  0  0  0  0  0
  -22.0599   -2.7592   23.2841 H   0  0  0  0  0  0
  -22.4079  -11.9835   22.4731 H   0  0  0  0  0  0
  -21.1109  -13.1248   22.2654 H   0  0  0  0  0  0
  -24.6594  -15.8543   20.5247 H   0  0  0  0  0  0
  -26.2897  -15.6328   20.1349 H   0  0  0  0  0  0
  -26.7285  -32.5318   23.0978 H   0  0  0  0  0  0
  -25.0136  -33.9622   25.0344 H   0  0  0  0  0  0
  -22.7512  -31.2909   21.3801 H   0  0  0  0  0  0
  -23.3793  -35.9540   23.3249 H   0  0  0  0  0  0
  -24.3595  -36.8935   22.2066 H   0  0  0  0  0  0
  -23.7223  -37.6407   23.6716 H   0  0  0  0  0  0
  -26.1474  -31.4618   20.6046 H   0  0  0  0  0  0
  -26.8803  -30.7753   22.0182 H   0  0  0  0  0  0
  -28.1223  -28.7699   21.2645 H   0  0  0  0  0  0
  -25.9165  -25.8886   18.9116 H   0  0  0  0  0  0
  -23.9936  -27.3257   18.9328 H   0  0  0  0  0  0
  -23.8019  -30.5714   19.3956 H   0  0  0  0  0  0
  -22.7878  -29.2356   19.8458 H   0  0  0  0  0  0
  -25.1314  -36.1846   25.0806 H   0  0  0  0  0  0
  -21.0021  -28.3309   24.1345 H   0  0  0  0  0  0
  -20.5720  -26.2325   23.3592 H   0  0  0  0  0  0
  -21.6662  -26.7447   22.1166 H   0  0  0  0  0  0
  -19.6936  -25.6292   21.1235 H   0  0  0  0  0  0
  -19.6704  -27.3180   20.6714 H   0  0  0  0  0  0
  -17.4221  -26.6670   21.4015 H   0  0  0  0  0  0
  -18.0345  -26.0056   22.8997 H   0  0  0  0  0  0
  -19.7979  -30.7251   24.2263 H   0  0  0  0  0  0
  -17.5067  -31.6280   24.5147 H   0  0  0  0  0  0
  -15.5387  -30.2996   23.7669 H   0  0  0  0  0  0
  -15.8685  -28.0807   22.7112 H   0  0  0  0  0  0
  -24.5980  -30.6949   25.7609 H   0  0  0  0  0  0
  -24.8799  -32.2798   26.4686 H   0  0  0  0  0  0
  -25.7988  -30.8893   27.0161 H   0  0  0  0  0  0
  -26.3114  -29.6670   24.1229 H   0  0  0  0  0  0
  -27.4218  -29.7317   25.4733 H   0  0  0  0  0  0
  -27.8943  -30.4336   23.9457 H   0  0  0  0  0  0
  -27.2718  -33.3704   26.1915 H   0  0  0  0  0  0
  -28.3994  -32.6707   25.0390 H   0  0  0  0  0  0
  -28.0599  -31.8502   26.5546 H   0  0  0  0  0  0
  -28.2531  -38.0144   24.7598 H   0  0  0  0  0  0
  -28.1148  -36.2672   24.6217 H   0  0  0  0  0  0
  -27.2285  -37.1322   25.8863 H   0  0  0  0  0  0
  -20.9439  -29.8857   21.6863 H   0  0  0  0  0  0
  -26.0136  -38.2812   24.1464 H   0  0  0  0  0  0
  -27.9840  -20.4247   21.8417 H   0  0  0  0  0  0
  -28.3422  -18.0944   22.2702 H   0  0  0  0  0  0
  -30.9924  -17.8068   18.9260 H   0  0  0  0  0  0
  -29.1260  -23.3428   21.3777 H   0  0  0  0  0  0
  -31.4624  -19.6729   17.6293 H   0  0  0  0  0  0
  -31.4365  -21.2239   18.4629 H   0  0  0  0  0  0
  -30.0974  -20.7669   17.4077 H   0  0  0  0  0  0
  -29.9331  -16.6722   23.0919 H   0  0  0  0  0  0
  -29.9700  -14.9526   22.8875 H   0  0  0  0  0  0
  -28.4658  -15.8310   22.6019 H   0  0  0  0  0  0
  -26.9641  -24.4247   20.0073 H   0  0  0  0  0  0
  -28.0961  -24.6182   18.7106 H   0  0  0  0  0  0
  1 25  1  0  0  0
  1 30  2  0  0  0
  1 82  1  0  0  0
  2  3  1  0  0  0
  2 25  1  0  0  0
  2 83  1  0  0  0
  2 84  1  0  0  0
  3  4  1  0  0  0
  3 85  1  0  0  0
  3 86  1  0  0  0
  4  5  1  0  0  0
  4 87  1  0  0  0
  4 88  1  0  0  0
  5  6  1  0  0  0
  5 26  1  0  0  0
  5 89  1  0  0  0
  6 25  1  0  0  0
  6 90  1  0  0  0
  6 91  1  0  0  0
  7  8  2  0  0  0
  7 26  1  0  0  0
  7 29  1  0  0  0
  8  9  1  0  0  0
  8 22  1  0  0  0
  9 10  1  0  0  0
  9 27  2  0  0  0
 10 11  2  0  0  0
 10 15  1  0  0  0
 11 12  1  0  0  0
 11 92  1  0  0  0
 12 13  2  0  0  0
 12 93  1  0  0  0
 13 14  1  0  0  0
 13 31  1  0  0  0
 14 15  2  0  0  0
 14 94  1  0  0  0
 15 95  1  0  0  0
 16 17  2  0  0  0
 16 21  1  0  0  0
 16 31  1  0  0  0
 17 18  1  0  0  0
 17 96  1  0  0  0
 18 19  2  0  0  0
 18 97  1  0  0  0
 19 20  1  0  0  0
 19 24  1  0  0  0
 20 21  2  0  0  0
 20 98  1  0  0  0
 21 23  1  0  0  0
 22 28  1  0  0  0
 22 32  2  0  0  0
 26 27  1  0  0  0
 28 99  1  0  0  0
 28100  1  0  0  0
 29101  1  0  0  0
 29102  1  0  0  0
 33 34  1  0  0  0
 33 66  1  0  0  0
 33 70  2  0  0  0
 34 36  1  0  0  0
 34 59  1  0  0  0
 34103  1  0  0  0
 35 44  2  0  0  0
 35 45  1  0  0  0
 35 68  1  0  0  0
 36 56  1  0  0  0
 36104  1  0  0  0
 37 39  1  0  0  0
 37 47  1  0  0  0
 37 66  1  0  0  0
 37105  1  0  0  0
 38 43  2  0  0  0
 38 46  1  0  0  0
 38 47  1  0  0  0
 39 64  1  0  0  0
 39 67  2  0  0  0
 40 52  1  0  0  0
 40 53  2  0  0  0
 40 58  1  0  0  0
 41106  1  0  0  0
 41107  1  0  0  0
 41108  1  0  0  0
 41 48  1  0  0  0
 42 43  1  0  0  0
 42 66  1  0  0  0
 42109  1  0  0  0
 42110  1  0  0  0
 43 44  1  0  0  0
 44111  1  0  0  0
 45 46  2  0  0  0
 45112  1  0  0  0
 46113  1  0  0  0
 47114  1  0  0  0
 47115  1  0  0  0
 48 56  1  0  0  0
 48 65  1  0  0  0
 48116  1  0  0  0
 49 50  1  0  0  0
 49 53  1  0  0  0
 49 64  1  0  0  0
 49117  1  0  0  0
 50 51  1  0  0  0
 50118  1  0  0  0
 50119  1  0  0  0
 51 52  1  0  0  0
 51120  1  0  0  0
 51121  1  0  0  0
 52122  1  0  0  0
 52123  1  0  0  0
 53 54  1  0  0  0
 54 55  2  0  0  0
 54124  1  0  0  0
 55 57  1  0  0  0
 55125  1  0  0  0
 56 69  2  0  0  0
 57 58  2  0  0  0
 57126  1  0  0  0
 58127  1  0  0  0
 59 60  1  0  0  0
 59 61  1  0  0  0
 59 62  1  0  0  0
 60128  1  0  0  0
 60129  1  0  0  0
 60130  1  0  0  0
 61131  1  0  0  0
 61132  1  0  0  0
 61133  1  0  0  0
 62134  1  0  0  0
 62135  1  0  0  0
 62136  1  0  0  0
 63 65  1  0  0  0
 63137  1  0  0  0
 63138  1  0  0  0
 63139  1  0  0  0
 64140  1  0  0  0
 65141  1  0  0  0
 68 80  1  0  0  0
 71 72  2  0  0  0
 71 75  1  0  0  0
 71142  1  0  0  0
 72 76  1  0  0  0
 72143  1  0  0  0
 73 74  1  0  0  0
 73 76  2  0  0  0
 73144  1  0  0  0
 74 75  2  0  0  0
 74 78  1  0  0  0
 75 81  1  0  0  0
 76 82  1  0  0  0
 77 80  1  0  0  0
 77 81  2  0  0  0
 77145  1  0  0  0
 78146  1  0  0  0
 78147  1  0  0  0
 78148  1  0  0  0
 79 82  1  0  0  0
 79149  1  0  0  0
 79150  1  0  0  0
 79151  1  0  0  0
 80152  1  0  0  0
 80153  1  0  0  0
M  ISO  4   1 100  68 101  80 101  82 100
M  END
> <chiral flag>
0

> <version>
0

> <s_m_source_file>
/data/baiqing/PycharmProjects/Reinvent-master-3.2/result/LINK_invent/BTK/process_docking_weight1_custom_product_contain_oxygen_bond_distance_aromatic_linkinvent_7_9_3/rearranged_h_0113.sdf

> <i_m_source_file_index>
54

> <r_mmod_Potential_Energy-OPLS-2005>
674.59130859375

> <r_mmod_Stretch_Energy-OPLS-2005>
263.984130859375

> <r_mmod_Bend_Energy-OPLS-2005>
292.075347900391

> <r_mmod_Torsional_Energy-OPLS-2005>
285.094635009766

> <r_mmod_Improper_Torsional_Energy-OPLS-2005>
4.12524175643921

> <r_mmod_Van_der_Waal_Energy-OPLS-2005>
152.185241699219

> <r_mmod_Electrostatic_Energy-OPLS-2005>
-318.432312011719

> <r_mmod_Solvation_Energy-OPLS-2005>
-198.750640869141

> <b_mmod_Minimization_Converged-OPLS-2005>
0

> <r_mmod_RMS_Derivative-OPLS-2005>
2.26056575775146

$$$$
54
                    3D
 Structure written by MMmdl.
168176  0  0  1  0            999 V2000
  -30.6489  -14.6334   20.4732 C   0  0  0  0  0  0
  -30.4222  -12.3709   19.4822 C   0  0  0  0  0  0
  -29.5116  -12.4845   18.2387 C   0  0  0  0  0  0
  -28.0298  -12.3403   18.6387 C   0  0  0  0  0  0
  -27.6464  -13.2238   19.8594 C   0  0  2  0  0  0
  -28.6845  -13.0944   20.9932 C   0  0  0  0  0  0
  -25.2532  -13.8200   20.5729 C   0  0  0  0  0  0
  -24.1809  -13.0446   20.9237 C   0  0  0  0  0  0
  -24.6378  -11.6906   20.8795 C   0  0  0  0  0  0
  -23.9076  -10.4279   21.0468 C   0  0  0  0  0  0
  -24.3646   -9.4186   21.9223 C   0  0  0  0  0  0
  -23.6299   -8.2236   22.0761 C   0  0  0  0  0  0
  -22.4283   -8.0277   21.3537 C   0  0  0  0  0  0
  -21.9926   -9.0272   20.4648 C   0  0  0  0  0  0
  -22.7274  -10.2139   20.3095 C   0  0  0  0  0  0
  -21.6852   -6.0725   22.5273 C   0  0  0  0  0  0
  -21.3992   -6.5622   23.8200 C   0  0  0  0  0  0
  -21.3667   -5.6778   24.9139 C   0  0  0  0  0  0
  -21.6058   -4.3047   24.7218 C   0  0  0  0  0  0
  -21.8830   -3.8136   23.4343 C   0  0  0  0  0  0
  -21.9205   -4.6944   22.3398 C   0  0  0  0  0  0
  -22.7836  -13.5251   21.1886 C   0  0  0  0  0  0
  -22.1696   -4.2121   21.0968 F   0  0  0  0  0  0
  -21.5670   -3.4547   25.7749 F   0  0  0  0  0  0
  -30.0032  -13.4216   20.4364 N   0  0  0  0  0  0
  -26.2945  -12.9391   20.3319 N   0  0  0  0  0  0
  -25.9288  -11.6531   20.5768 N   0  0  0  0  0  0
  -22.0452  -12.8270   22.0432 N   0  0  0  0  0  0
  -25.4265  -15.1938   20.4141 N   0  0  0  0  0  0
  -31.8303  -14.6913   20.1164 O   0  0  0  0  0  0
  -21.6638   -6.8881   21.4239 O   0  0  0  0  0  0
  -22.3565  -14.5543   20.6696 O   0  0  0  0  0  0
  -24.6255  -31.8590   23.2005 C   0  0  0  0  0  0
  -25.9113  -32.4769   23.8326 C   0  0  1  0  0  0
  -27.2384  -27.3299   20.1290 C   0  0  0  0  0  0
  -25.5913  -33.8568   24.2259 N   0  0  0  0  0  0
  -23.4214  -30.4760   21.5426 C   0  0  2  0  0  0
  -24.8737  -28.9252   20.1118 C   0  0  0  0  0  0
  -22.7483  -29.4606   22.4955 C   0  0  0  0  0  0
  -18.0300  -28.1359   22.8491 C   0  0  0  0  0  0
  -24.1473  -36.7293   23.2627 C   0  0  0  0  0  0
  -25.9587  -30.7940   21.3671 C   0  0  0  0  0  0
  -26.0393  -29.4183   20.7144 C   0  0  0  0  0  0
  -27.2299  -28.6357   20.7044 C   0  0  0  0  0  0
  -26.0522  -26.8746   19.5168 C   0  0  0  0  0  0
  -24.8799  -27.6587   19.5026 C   0  0  0  0  0  0
  -23.6356  -29.8000   20.1602 C   0  0  0  0  0  0
  -25.4097  -36.3086   24.0318 C   0  0  1  0  0  0
  -20.5891  -28.3671   23.1279 C   0  0  2  0  0  0
  -20.6771  -26.9391   22.5413 C   0  0  0  0  0  0
  -19.5758  -26.6370   21.5204 C   0  0  0  0  0  0
  -18.1933  -26.7901   22.1619 C   0  0  0  0  0  0
  -19.1542  -28.8832   23.2865 C   0  0  0  0  0  0
  -18.9467  -30.1439   23.8869 C   0  0  0  0  0  0
  -17.6467  -30.6565   24.0554 C   0  0  0  0  0  0
  -25.9045  -34.9452   23.5091 C   0  0  0  0  0  0
  -16.5359  -29.9066   23.6318 C   0  0  0  0  0  0
  -16.7286  -28.6483   23.0335 C   0  0  0  0  0  0
  -26.4486  -31.6580   25.0702 C   0  0  0  0  0  0
  -25.3727  -31.3757   26.1450 C   0  0  0  0  0  0
  -27.0301  -30.2984   24.6148 C   0  0  0  0  0  0
  -27.6036  -32.4304   25.7477 C   0  0  0  0  0  0
  -27.5592  -37.1770   24.8443 C   0  0  0  0  0  0
  -21.4196  -29.3024   22.3690 N   0  0  0  0  0  0
  -26.4283  -37.3781   23.9421 N   0  0  0  0  0  0
  -24.6870  -31.0599   22.0946 N   0  0  0  0  0  0
  -23.4215  -28.8178   23.3050 O   0  0  0  0  0  0
  -28.3565  -26.4916   20.1233 O   0  0  0  0  0  0
  -26.5631  -34.8935   22.4670 O   0  0  0  0  0  0
  -23.5415  -32.1385   23.7348 O   0  0  0  0  0  0
  -33.8657  -16.7163   23.2401 C   0  0  0  0  0  0
  -34.0280  -16.0452   24.2502 C   0  0  0  0  0  0
  -28.6101  -19.0072   20.5395 C   0  0  0  0  0  0
  -28.2539  -20.3878   20.6279 C   0  0  0  0  0  0
  -29.9616  -18.5695   20.6194 C   0  0  0  0  0  0
  -30.9359  -19.5963   20.8618 C   0  0  0  0  0  0
  -29.2165  -21.4097   20.8514 C   0  0  0  0  0  0
  -30.5625  -20.9765   21.0149 C   0  0  0  0  0  0
  -30.4048  -17.1122   20.4625 C   0  0  0  0  0  0
  -29.8701  -15.8814   20.7666 C   0  0  0  0  0  0
  -33.6203  -17.5149   22.0632 C   0  0  0  0  0  0
  -28.6851  -23.8883   20.3003 C   0  0  0  0  0  0
  -34.2295  -15.2594   25.4758 C   0  0  0  0  0  0
  -34.4989  -17.1707   20.8661 C   0  0  0  0  0  0
  -31.7977  -22.0096   22.7214 C   0  0  0  0  0  0
  -32.4250  -19.2277   20.9277 C   0  0  0  0  0  0
  -28.2918  -25.2755   20.9640 C   0  0  0  0  0  0
  -32.7188  -18.4196   22.1058 N   0  0  0  0  0  0
  -28.8254  -22.7951   21.1196 N   0  0  0  0  0  0
  -28.8354  -23.8143   19.0760 O   0  0  0  0  0  0
  -31.5080  -21.9243   21.3280 O   0  0  0  0  0  0
  -31.4716  -12.4557   19.1959 H   0  0  0  0  0  0
  -30.3270  -11.3821   19.9354 H   0  0  0  0  0  0
  -29.7768  -11.7239   17.5013 H   0  0  0  0  0  0
  -29.6713  -13.4471   17.7546 H   0  0  0  0  0  0
  -27.8624  -11.2872   18.8705 H   0  0  0  0  0  0
  -27.3836  -12.5676   17.7900 H   0  0  0  0  0  0
  -27.6631  -14.2585   19.5108 H   0  0  0  0  0  0
  -28.6899  -12.0805   21.3969 H   0  0  0  0  0  0
  -28.4263  -13.7434   21.8288 H   0  0  0  0  0  0
  -25.2794   -9.5669   22.4775 H   0  0  0  0  0  0
  -23.9984   -7.4623   22.7508 H   0  0  0  0  0  0
  -21.0850   -8.8869   19.8955 H   0  0  0  0  0  0
  -22.3793  -10.9708   19.6223 H   0  0  0  0  0  0
  -21.1968   -7.6121   23.9714 H   0  0  0  0  0  0
  -21.1485   -6.0480   25.9057 H   0  0  0  0  0  0
  -22.0593   -2.7596   23.2830 H   0  0  0  0  0  0
  -22.4054  -11.9891   22.4751 H   0  0  0  0  0  0
  -21.1076  -13.1322   22.2684 H   0  0  0  0  0  0
  -24.6744  -15.8626   20.5286 H   0  0  0  0  0  0
  -26.2889  -15.6247   20.1051 H   0  0  0  0  0  0
  -26.7200  -32.5419   23.1085 H   0  0  0  0  0  0
  -25.0049  -33.9694   25.0399 H   0  0  0  0  0  0
  -22.7131  -31.2938   21.3927 H   0  0  0  0  0  0
  -23.3752  -35.9606   23.3259 H   0  0  0  0  0  0
  -24.3599  -36.8950   22.2058 H   0  0  0  0  0  0
  -23.7201  -37.6470   23.6667 H   0  0  0  0  0  0
  -26.0879  -31.5587   20.5994 H   0  0  0  0  0  0
  -26.8416  -30.8443   21.9926 H   0  0  0  0  0  0
  -28.1337  -29.0199   21.1578 H   0  0  0  0  0  0
  -26.0353  -25.8970   19.0567 H   0  0  0  0  0  0
  -23.9874  -27.2750   19.0264 H   0  0  0  0  0  0
  -23.7436  -30.5713   19.3976 H   0  0  0  0  0  0
  -22.7577  -29.2204   19.8662 H   0  0  0  0  0  0
  -25.1267  -36.1932   25.0806 H   0  0  0  0  0  0
  -20.9961  -28.3245   24.1403 H   0  0  0  0  0  0
  -20.5649  -26.2278   23.3613 H   0  0  0  0  0  0
  -21.6629  -26.7384   22.1205 H   0  0  0  0  0  0
  -19.6907  -25.6285   21.1210 H   0  0  0  0  0  0
  -19.6693  -27.3190   20.6743 H   0  0  0  0  0  0
  -17.4187  -26.6653   21.4023 H   0  0  0  0  0  0
  -18.0351  -26.0031   22.9015 H   0  0  0  0  0  0
  -19.7934  -30.7264   24.2205 H   0  0  0  0  0  0
  -17.5014  -31.6233   24.5186 H   0  0  0  0  0  0
  -15.5352  -30.2954   23.7648 H   0  0  0  0  0  0
  -15.8693  -28.0808   22.7030 H   0  0  0  0  0  0
  -24.5852  -30.7150   25.7816 H   0  0  0  0  0  0
  -24.8984  -32.2951   26.4881 H   0  0  0  0  0  0
  -25.8072  -30.8934   27.0218 H   0  0  0  0  0  0
  -26.2873  -29.6762   24.1139 H   0  0  0  0  0  0
  -27.3958  -29.7204   25.4651 H   0  0  0  0  0  0
  -27.8760  -30.4251   23.9387 H   0  0  0  0  0  0
  -27.2610  -33.3558   26.2105 H   0  0  0  0  0  0
  -28.3818  -32.6945   25.0310 H   0  0  0  0  0  0
  -28.0723  -31.8403   26.5356 H   0  0  0  0  0  0
  -28.2535  -38.0141   24.7586 H   0  0  0  0  0  0
  -28.1155  -36.2676   24.6117 H   0  0  0  0  0  0
  -27.2334  -37.1228   25.8848 H   0  0  0  0  0  0
  -20.9404  -29.8765   21.6893 H   0  0  0  0  0  0
  -26.0163  -38.2834   24.1499 H   0  0  0  0  0  0
  -27.8258  -18.2811   20.3752 H   0  0  0  0  0  0
  -27.2096  -20.6629   20.5494 H   0  0  0  0  0  0
  -31.3634  -17.0524   19.9731 H   0  0  0  0  0  0
  -28.8954  -15.8321   21.2293 H   0  0  0  0  0  0
  -33.2919  -15.1874   26.0265 H   0  0  0  0  0  0
  -34.9727  -15.7402   26.1131 H   0  0  0  0  0  0
  -34.5712  -14.2544   25.2263 H   0  0  0  0  0  0
  -35.2893  -16.4687   21.1371 H   0  0  0  0  0  0
  -34.9791  -18.0650   20.4691 H   0  0  0  0  0  0
  -33.9073  -16.7100   20.0726 H   0  0  0  0  0  0
  -32.6379  -22.6830   22.8924 H   0  0  0  0  0  0
  -32.0623  -21.0444   23.1521 H   0  0  0  0  0  0
  -30.9428  -22.4008   23.2727 H   0  0  0  0  0  0
  -33.0531  -20.1190   20.9436 H   0  0  0  0  0  0
  -32.6778  -18.7392   19.9854 H   0  0  0  0  0  0
  -28.9928  -25.4347   21.7849 H   0  0  0  0  0  0
  -27.3085  -25.1693   21.4231 H   0  0  0  0  0  0
  -28.6879  -23.0031   22.1009 H   0  0  0  0  0  0
  1 25  1  0  0  0
  1 30  2  0  0  0
  1 80  1  0  0  0
  2  3  1  0  0  0
  2 25  1  0  0  0
  2 92  1  0  0  0
  2 93  1  0  0  0
  3  4  1  0  0  0
  3 94  1  0  0  0
  3 95  1  0  0  0
  4  5  1  0  0  0
  4 96  1  0  0  0
  4 97  1  0  0  0
  5  6  1  0  0  0
  5 26  1  0  0  0
  5 98  1  0  0  0
  6 25  1  0  0  0
  6 99  1  0  0  0
  6100  1  0  0  0
  7  8  2  0  0  0
  7 26  1  0  0  0
  7 29  1  0  0  0
  8  9  1  0  0  0
  8 22  1  0  0  0
  9 10  1  0  0  0
  9 27  2  0  0  0
 10 11  2  0  0  0
 10 15  1  0  0  0
 11 12  1  0  0  0
 11101  1  0  0  0
 12 13  2  0  0  0
 12102  1  0  0  0
 13 14  1  0  0  0
 13 31  1  0  0  0
 14 15  2  0  0  0
 14103  1  0  0  0
 15104  1  0  0  0
 16 17  2  0  0  0
 16 21  1  0  0  0
 16 31  1  0  0  0
 17 18  1  0  0  0
 17105  1  0  0  0
 18 19  2  0  0  0
 18106  1  0  0  0
 19 20  1  0  0  0
 19 24  1  0  0  0
 20 21  2  0  0  0
 20107  1  0  0  0
 21 23  1  0  0  0
 22 28  1  0  0  0
 22 32  2  0  0  0
 26 27  1  0  0  0
 28108  1  0  0  0
 28109  1  0  0  0
 29110  1  0  0  0
 29111  1  0  0  0
 33 34  1  0  0  0
 33 66  1  0  0  0
 33 70  2  0  0  0
 34 36  1  0  0  0
 34 59  1  0  0  0
 34112  1  0  0  0
 35 44  2  0  0  0
 35 45  1  0  0  0
 35 68  1  0  0  0
 36 56  1  0  0  0
 36113  1  0  0  0
 37 39  1  0  0  0
 37 47  1  0  0  0
 37 66  1  0  0  0
 37114  1  0  0  0
 38 43  2  0  0  0
 38 46  1  0  0  0
 38 47  1  0  0  0
 39 64  1  0  0  0
 39 67  2  0  0  0
 40 52  1  0  0  0
 40 53  2  0  0  0
 40 58  1  0  0  0
 41115  1  0  0  0
 41116  1  0  0  0
 41117  1  0  0  0
 41 48  1  0  0  0
 42 43  1  0  0  0
 42 66  1  0  0  0
 42118  1  0  0  0
 42119  1  0  0  0
 43 44  1  0  0  0
 44120  1  0  0  0
 45 46  2  0  0  0
 45121  1  0  0  0
 46122  1  0  0  0
 47123  1  0  0  0
 47124  1  0  0  0
 48 56  1  0  0  0
 48 65  1  0  0  0
 48125  1  0  0  0
 49 50  1  0  0  0
 49 53  1  0  0  0
 49 64  1  0  0  0
 49126  1  0  0  0
 50 51  1  0  0  0
 50127  1  0  0  0
 50128  1  0  0  0
 51 52  1  0  0  0
 51129  1  0  0  0
 51130  1  0  0  0
 52131  1  0  0  0
 52132  1  0  0  0
 53 54  1  0  0  0
 54 55  2  0  0  0
 54133  1  0  0  0
 55 57  1  0  0  0
 55134  1  0  0  0
 56 69  2  0  0  0
 57 58  2  0  0  0
 57135  1  0  0  0
 58136  1  0  0  0
 59 60  1  0  0  0
 59 61  1  0  0  0
 59 62  1  0  0  0
 60137  1  0  0  0
 60138  1  0  0  0
 60139  1  0  0  0
 61140  1  0  0  0
 61141  1  0  0  0
 61142  1  0  0  0
 62143  1  0  0  0
 62144  1  0  0  0
 62145  1  0  0  0
 63 65  1  0  0  0
 63146  1  0  0  0
 63147  1  0  0  0
 63148  1  0  0  0
 64149  1  0  0  0
 65150  1  0  0  0
 68 87  1  0  0  0
 71 72  3  0  0  0
 71 81  1  0  0  0
 72 83  1  0  0  0
 73 74  2  0  0  0
 73 75  1  0  0  0
 73151  1  0  0  0
 74 77  1  0  0  0
 74152  1  0  0  0
 75 76  2  0  0  0
 75 79  1  0  0  0
 76 78  1  0  0  0
 76 86  1  0  0  0
 77 78  2  0  0  0
 77 89  1  0  0  0
 78 91  1  0  0  0
 79 80  2  0  0  0
 79153  1  0  0  0
 80154  1  0  0  0
 81 84  1  0  0  0
 81 88  2  0  0  0
 82 87  1  0  0  0
 82 89  1  0  0  0
 82 90  2  0  0  0
 83155  1  0  0  0
 83156  1  0  0  0
 83157  1  0  0  0
 84158  1  0  0  0
 84159  1  0  0  0
 84160  1  0  0  0
 85 91  1  0  0  0
 85161  1  0  0  0
 85162  1  0  0  0
 85163  1  0  0  0
 86 88  1  0  0  0
 86164  1  0  0  0
 86165  1  0  0  0
 87166  1  0  0  0
 87167  1  0  0  0
 89168  1  0  0  0
M  ISO  4   1 100  68 101  80 100  87 101
M  END
> <chiral flag>
0

> <version>
0

> <s_m_source_file>
/data/baiqing/PycharmProjects/Reinvent-master-3.2/result/LINK_invent/BTK/process_docking_weight1_custom_product_contain_oxygen_bond_distance_aromatic_linkinvent_7_9_3/rearranged_h_0113.sdf

> <i_m_source_file_index>
55

> <r_mmod_Potential_Energy-OPLS-2005>
108.213432312012

> <r_mmod_Stretch_Energy-OPLS-2005>
85.9825668334961

> <r_mmod_Bend_Energy-OPLS-2005>
149.5048828125

> <r_mmod_Torsional_Energy-OPLS-2005>
283.297943115234

> <r_mmod_Improper_Torsional_Energy-OPLS-2005>
4.97024059295654

> <r_mmod_Van_der_Waal_Energy-OPLS-2005>
140.11408996582

> <r_mmod_Electrostatic_Energy-OPLS-2005>
-364.687835693359

> <r_mmod_Solvation_Energy-OPLS-2005>
-236.336273193359

> <b_mmod_Minimization_Converged-OPLS-2005>
0

> <r_mmod_RMS_Derivative-OPLS-2005>
5.16003370285034

$$$$
55
                    3D
 Structure written by MMmdl.
165173  0  0  1  0            999 V2000
  -30.7021  -14.5255   20.6140 C   0  0  0  0  0  0
  -30.4330  -12.3513   19.4302 C   0  0  0  0  0  0
  -29.4960  -12.5031   18.2129 C   0  0  0  0  0  0
  -28.0190  -12.3549   18.6239 C   0  0  0  0  0  0
  -27.6612  -13.2069   19.8689 C   0  0  2  0  0  0
  -28.7021  -13.0001   20.9900 C   0  0  0  0  0  0
  -25.2596  -13.8164   20.5662 C   0  0  0  0  0  0
  -24.1840  -13.0443   20.9148 C   0  0  0  0  0  0
  -24.6390  -11.6909   20.8717 C   0  0  0  0  0  0
  -23.9048  -10.4296   21.0395 C   0  0  0  0  0  0
  -24.3607   -9.4212   21.9173 C   0  0  0  0  0  0
  -23.6287   -8.2252   22.0758 C   0  0  0  0  0  0
  -22.4267   -8.0282   21.3552 C   0  0  0  0  0  0
  -21.9889   -9.0254   20.4653 C   0  0  0  0  0  0
  -22.7220  -10.2132   20.3052 C   0  0  0  0  0  0
  -21.6859   -6.0731   22.5273 C   0  0  0  0  0  0
  -21.4028   -6.5640   23.8208 C   0  0  0  0  0  0
  -21.3660   -5.6790   24.9166 C   0  0  0  0  0  0
  -21.6039   -4.3051   24.7219 C   0  0  0  0  0  0
  -21.8818   -3.8145   23.4339 C   0  0  0  0  0  0
  -21.9195   -4.6958   22.3396 C   0  0  0  0  0  0
  -22.7868  -13.5250   21.1823 C   0  0  0  0  0  0
  -22.1661   -4.2150   21.0971 F   0  0  0  0  0  0
  -21.5616   -3.4535   25.7729 F   0  0  0  0  0  0
  -30.0336  -13.3399   20.4487 N   0  0  0  0  0  0
  -26.3027  -12.9330   20.3329 N   0  0  0  0  0  0
  -25.9321  -11.6491   20.5752 N   0  0  0  0  0  0
  -22.0515  -12.8250   22.0391 N   0  0  0  0  0  0
  -25.4319  -15.1886   20.4109 N   0  0  0  0  0  0
  -31.7814  -14.7408   20.0549 O   0  0  0  0  0  0
  -21.6645   -6.8876   21.4237 O   0  0  0  0  0  0
  -22.3546  -14.5556   20.6675 O   0  0  0  0  0  0
  -24.6185  -31.8653   23.2063 C   0  0  0  0  0  0
  -25.9055  -32.4803   23.8372 C   0  0  1  0  0  0
  -27.2356  -27.3874   20.0978 C   0  0  0  0  0  0
  -25.5887  -33.8604   24.2290 N   0  0  0  0  0  0
  -23.4090  -30.4875   21.5493 C   0  0  2  0  0  0
  -24.8559  -28.9515   20.1137 C   0  0  0  0  0  0
  -22.7433  -29.4642   22.4982 C   0  0  0  0  0  0
  -18.0272  -28.1382   22.8491 C   0  0  0  0  0  0
  -24.1489  -36.7305   23.2640 C   0  0  0  0  0  0
  -25.9444  -30.8152   21.3698 C   0  0  0  0  0  0
  -26.0208  -29.4483   20.7108 C   0  0  0  0  0  0
  -27.2113  -28.6759   20.6970 C   0  0  0  0  0  0
  -26.0459  -26.9258   19.4840 C   0  0  0  0  0  0
  -24.8663  -27.6901   19.4977 C   0  0  0  0  0  0
  -23.6197  -29.8209   20.1648 C   0  0  0  0  0  0
  -25.4112  -36.3096   24.0331 C   0  0  1  0  0  0
  -20.5867  -28.3671   23.1311 C   0  0  2  0  0  0
  -20.6763  -26.9401   22.5423 C   0  0  0  0  0  0
  -19.5740  -26.6386   21.5220 C   0  0  0  0  0  0
  -18.1919  -26.7925   22.1632 C   0  0  0  0  0  0
  -19.1525  -28.8844   23.2897 C   0  0  0  0  0  0
  -18.9453  -30.1449   23.8908 C   0  0  0  0  0  0
  -17.6457  -30.6585   24.0568 C   0  0  0  0  0  0
  -25.9044  -34.9465   23.5114 C   0  0  0  0  0  0
  -16.5347  -29.9088   23.6331 C   0  0  0  0  0  0
  -16.7263  -28.6508   23.0346 C   0  0  0  0  0  0
  -26.4462  -31.6602   25.0724 C   0  0  0  0  0  0
  -25.3707  -31.3741   26.1460 C   0  0  0  0  0  0
  -27.0292  -30.3024   24.6160 C   0  0  0  0  0  0
  -27.6032  -32.4336   25.7477 C   0  0  0  0  0  0
  -27.5581  -37.1801   24.8459 C   0  0  0  0  0  0
  -21.4159  -29.3026   22.3709 N   0  0  0  0  0  0
  -26.4291  -37.3784   23.9407 N   0  0  0  0  0  0
  -24.6752  -31.0713   22.0986 N   0  0  0  0  0  0
  -23.4186  -28.8193   23.3046 O   0  0  0  0  0  0
  -28.3909  -26.6095   20.1375 O   0  0  0  0  0  0
  -26.5626  -34.8921   22.4687 O   0  0  0  0  0  0
  -23.5367  -32.1422   23.7434 O   0  0  0  0  0  0
  -29.9704  -20.2109   18.7341 C   0  0  0  0  0  0
  -30.0189  -18.9037   18.2385 C   0  0  0  0  0  0
  -29.9313  -17.9833   20.5073 C   0  0  0  0  0  0
  -29.9264  -19.3445   21.0180 C   0  0  0  0  0  0
  -29.9139  -20.4760   20.1186 C   0  0  0  0  0  0
  -30.0029  -17.7837   19.1005 C   0  0  0  0  0  0
  -29.8220  -16.8165   21.4765 C   0  0  0  0  0  0
  -30.0787  -15.4726   21.5487 C   0  0  0  0  0  0
  -29.3064  -22.7896   19.9618 C   0  0  0  0  0  0
  -30.2447  -20.8575   23.2252 C   0  0  0  0  0  0
  -30.8077  -24.8143   19.7491 C   0  0  0  0  0  0
  -30.4084  -16.3100   17.2439 C   0  0  0  0  0  0
  -29.9051  -19.5127   22.5589 C   0  0  0  0  0  0
  -28.2749  -25.1875   19.8404 C   0  0  0  0  0  0
  -29.4715  -24.2935   20.3103 C   0  0  1  0  0  0
  -29.9437  -21.8333   20.5466 N   0  0  0  0  0  0
  -30.0044  -16.5012   18.5981 O   0  0  0  0  0  0
  -31.4751  -12.4632   19.1274 H   0  0  0  0  0  0
  -30.3546  -11.3451   19.8440 H   0  0  0  0  0  0
  -29.7492  -11.7702   17.4451 H   0  0  0  0  0  0
  -29.6397  -13.4799   17.7588 H   0  0  0  0  0  0
  -27.8369  -11.2989   18.8290 H   0  0  0  0  0  0
  -27.3669  -12.6173   17.7899 H   0  0  0  0  0  0
  -27.7037  -14.2532   19.5642 H   0  0  0  0  0  0
  -28.6975  -11.9619   21.3238 H   0  0  0  0  0  0
  -28.4138  -13.5737   21.8682 H   0  0  0  0  0  0
  -25.2766   -9.5690   22.4732 H   0  0  0  0  0  0
  -24.0001   -7.4643   22.7481 H   0  0  0  0  0  0
  -21.0817   -8.8759   19.8972 H   0  0  0  0  0  0
  -22.3674  -10.9655   19.6147 H   0  0  0  0  0  0
  -21.2039   -7.6151   23.9706 H   0  0  0  0  0  0
  -21.1482   -6.0525   25.9067 H   0  0  0  0  0  0
  -22.0603   -2.7606   23.2835 H   0  0  0  0  0  0
  -22.4149  -11.9923   22.4782 H   0  0  0  0  0  0
  -21.1134  -13.1274   22.2612 H   0  0  0  0  0  0
  -24.6709  -15.8473   20.5358 H   0  0  0  0  0  0
  -26.2972  -15.6302   20.1260 H   0  0  0  0  0  0
  -26.7129  -32.5494   23.1137 H   0  0  0  0  0  0
  -24.9984  -33.9761   25.0397 H   0  0  0  0  0  0
  -22.6985  -31.3046   21.4081 H   0  0  0  0  0  0
  -23.3748  -35.9640   23.3307 H   0  0  0  0  0  0
  -24.3584  -36.8921   22.2054 H   0  0  0  0  0  0
  -23.7248  -37.6509   23.6663 H   0  0  0  0  0  0
  -26.0718  -31.5855   20.6081 H   0  0  0  0  0  0
  -26.8254  -30.8594   21.9985 H   0  0  0  0  0  0
  -28.1076  -29.0564   21.1666 H   0  0  0  0  0  0
  -26.0017  -25.9672   18.9890 H   0  0  0  0  0  0
  -23.9708  -27.3007   19.0329 H   0  0  0  0  0  0
  -23.7288  -30.5951   19.4048 H   0  0  0  0  0  0
  -22.7435  -29.2415   19.8684 H   0  0  0  0  0  0
  -25.1293  -36.1954   25.0824 H   0  0  0  0  0  0
  -20.9956  -28.3241   24.1433 H   0  0  0  0  0  0
  -20.5668  -26.2278   23.3614 H   0  0  0  0  0  0
  -21.6632  -26.7437   22.1214 H   0  0  0  0  0  0
  -19.6899  -25.6301   21.1236 H   0  0  0  0  0  0
  -19.6676  -27.3210   20.6761 H   0  0  0  0  0  0
  -17.4186  -26.6667   21.4037 H   0  0  0  0  0  0
  -18.0319  -26.0070   22.9033 H   0  0  0  0  0  0
  -19.7931  -30.7259   24.2283 H   0  0  0  0  0  0
  -17.5013  -31.6268   24.5169 H   0  0  0  0  0  0
  -15.5348  -30.2996   23.7652 H   0  0  0  0  0  0
  -15.8661  -28.0837   22.7052 H   0  0  0  0  0  0
  -24.5865  -30.7108   25.7788 H   0  0  0  0  0  0
  -24.8918  -32.2916   26.4896 H   0  0  0  0  0  0
  -25.8031  -30.8904   27.0226 H   0  0  0  0  0  0
  -26.2857  -29.6793   24.1174 H   0  0  0  0  0  0
  -27.3974  -29.7264   25.4661 H   0  0  0  0  0  0
  -27.8737  -30.4304   23.9381 H   0  0  0  0  0  0
  -27.2638  -33.3627   26.2072 H   0  0  0  0  0  0
  -28.3818  -32.6918   25.0284 H   0  0  0  0  0  0
  -28.0726  -31.8458   26.5376 H   0  0  0  0  0  0
  -28.2599  -38.0097   24.7509 H   0  0  0  0  0  0
  -28.1076  -36.2631   24.6278 H   0  0  0  0  0  0
  -27.2302  -37.1442   25.8862 H   0  0  0  0  0  0
  -20.9328  -29.8742   21.6917 H   0  0  0  0  0  0
  -26.0178  -38.2859   24.1413 H   0  0  0  0  0  0
  -30.0011  -21.0170   18.0146 H   0  0  0  0  0  0
  -30.0511  -18.7941   17.1650 H   0  0  0  0  0  0
  -29.3456  -17.1088   22.3971 H   0  0  0  0  0  0
  -29.7992  -15.0346   22.4950 H   0  0  0  0  0  0
  -28.6077  -22.5980   19.1424 H   0  0  0  0  0  0
  -29.4838  -21.6136   23.0336 H   0  0  0  0  0  0
  -31.2149  -21.2351   22.9022 H   0  0  0  0  0  0
  -30.2870  -20.7364   24.3081 H   0  0  0  0  0  0
  -31.6521  -24.2507   20.1495 H   0  0  0  0  0  0
  -30.9644  -25.8618   20.0051 H   0  0  0  0  0  0
  -30.8414  -24.7321   18.6622 H   0  0  0  0  0  0
  -30.6607  -15.2658   17.0720 H   0  0  0  0  0  0
  -31.3015  -16.8845   16.9929 H   0  0  0  0  0  0
  -29.6037  -16.5759   16.5580 H   0  0  0  0  0  0
  -30.6259  -18.8093   22.9758 H   0  0  0  0  0  0
  -28.9203  -19.2085   22.9144 H   0  0  0  0  0  0
  -27.3791  -24.7911   20.3230 H   0  0  0  0  0  0
  -28.1393  -25.0728   18.7638 H   0  0  0  0  0  0
  -29.5157  -24.3650   21.3975 H   0  0  0  0  0  0
  1 25  1  0  0  0
  1 30  2  0  0  0
  1 78  1  0  0  0
  2  3  1  0  0  0
  2 25  1  0  0  0
  2 88  1  0  0  0
  2 89  1  0  0  0
  3  4  1  0  0  0
  3 90  1  0  0  0
  3 91  1  0  0  0
  4  5  1  0  0  0
  4 92  1  0  0  0
  4 93  1  0  0  0
  5  6  1  0  0  0
  5 26  1  0  0  0
  5 94  1  0  0  0
  6 25  1  0  0  0
  6 95  1  0  0  0
  6 96  1  0  0  0
  7  8  2  0  0  0
  7 26  1  0  0  0
  7 29  1  0  0  0
  8  9  1  0  0  0
  8 22  1  0  0  0
  9 10  1  0  0  0
  9 27  2  0  0  0
 10 11  2  0  0  0
 10 15  1  0  0  0
 11 12  1  0  0  0
 11 97  1  0  0  0
 12 13  2  0  0  0
 12 98  1  0  0  0
 13 14  1  0  0  0
 13 31  1  0  0  0
 14 15  2  0  0  0
 14 99  1  0  0  0
 15100  1  0  0  0
 16 17  2  0  0  0
 16 21  1  0  0  0
 16 31  1  0  0  0
 17 18  1  0  0  0
 17101  1  0  0  0
 18 19  2  0  0  0
 18102  1  0  0  0
 19 20  1  0  0  0
 19 24  1  0  0  0
 20 21  2  0  0  0
 20103  1  0  0  0
 21 23  1  0  0  0
 22 28  1  0  0  0
 22 32  2  0  0  0
 26 27  1  0  0  0
 28104  1  0  0  0
 28105  1  0  0  0
 29106  1  0  0  0
 29107  1  0  0  0
 33 34  1  0  0  0
 33 66  1  0  0  0
 33 70  2  0  0  0
 34 36  1  0  0  0
 34 59  1  0  0  0
 34108  1  0  0  0
 35 44  2  0  0  0
 35 45  1  0  0  0
 35 68  1  0  0  0
 36 56  1  0  0  0
 36109  1  0  0  0
 37 39  1  0  0  0
 37 47  1  0  0  0
 37 66  1  0  0  0
 37110  1  0  0  0
 38 43  2  0  0  0
 38 46  1  0  0  0
 38 47  1  0  0  0
 39 64  1  0  0  0
 39 67  2  0  0  0
 40 52  1  0  0  0
 40 53  2  0  0  0
 40 58  1  0  0  0
 41111  1  0  0  0
 41112  1  0  0  0
 41113  1  0  0  0
 41 48  1  0  0  0
 42 43  1  0  0  0
 42 66  1  0  0  0
 42114  1  0  0  0
 42115  1  0  0  0
 43 44  1  0  0  0
 44116  1  0  0  0
 45 46  2  0  0  0
 45117  1  0  0  0
 46118  1  0  0  0
 47119  1  0  0  0
 47120  1  0  0  0
 48 56  1  0  0  0
 48 65  1  0  0  0
 48121  1  0  0  0
 49 50  1  0  0  0
 49 53  1  0  0  0
 49 64  1  0  0  0
 49122  1  0  0  0
 50 51  1  0  0  0
 50123  1  0  0  0
 50124  1  0  0  0
 51 52  1  0  0  0
 51125  1  0  0  0
 51126  1  0  0  0
 52127  1  0  0  0
 52128  1  0  0  0
 53 54  1  0  0  0
 54 55  2  0  0  0
 54129  1  0  0  0
 55 57  1  0  0  0
 55130  1  0  0  0
 56 69  2  0  0  0
 57 58  2  0  0  0
 57131  1  0  0  0
 58132  1  0  0  0
 59 60  1  0  0  0
 59 61  1  0  0  0
 59 62  1  0  0  0
 60133  1  0  0  0
 60134  1  0  0  0
 60135  1  0  0  0
 61136  1  0  0  0
 61137  1  0  0  0
 61138  1  0  0  0
 62139  1  0  0  0
 62140  1  0  0  0
 62141  1  0  0  0
 63 65  1  0  0  0
 63142  1  0  0  0
 63143  1  0  0  0
 63144  1  0  0  0
 64145  1  0  0  0
 65146  1  0  0  0
 68 84  1  0  0  0
 71 72  2  0  0  0
 71 75  1  0  0  0
 71147  1  0  0  0
 72 76  1  0  0  0
 72148  1  0  0  0
 73 74  1  0  0  0
 73 76  2  0  0  0
 73 77  1  0  0  0
 74 75  2  0  0  0
 74 83  1  0  0  0
 75 86  1  0  0  0
 76 87  1  0  0  0
 77 78  2  0  0  0
 77149  1  0  0  0
 78150  1  0  0  0
 79 85  1  0  0  0
 79 86  2  0  0  0
 79151  1  0  0  0
 80 83  1  0  0  0
 80152  1  0  0  0
 80153  1  0  0  0
 80154  1  0  0  0
 81155  1  0  0  0
 81156  1  0  0  0
 81157  1  0  0  0
 81 85  1  0  0  0
 82 87  1  0  0  0
 82158  1  0  0  0
 82159  1  0  0  0
 82160  1  0  0  0
 83161  1  0  0  0
 83162  1  0  0  0
 84 85  1  0  0  0
 84163  1  0  0  0
 84164  1  0  0  0
 85165  1  0  0  0
M  ISO  4   1 100  68 101  78 100  84 101
M  END
> <chiral flag>
0

> <version>
0

> <s_m_source_file>
/data/baiqing/PycharmProjects/Reinvent-master-3.2/result/LINK_invent/BTK/process_docking_weight1_custom_product_contain_oxygen_bond_distance_aromatic_linkinvent_7_9_3/rearranged_h_0113.sdf

> <i_m_source_file_index>
56

> <r_mmod_Potential_Energy-OPLS-2005>
92.3225173950195

> <r_mmod_Stretch_Energy-OPLS-2005>
67.2391510009766

> <r_mmod_Bend_Energy-OPLS-2005>
173.715774536133

> <r_mmod_Torsional_Energy-OPLS-2005>
196.715240478516

> <r_mmod_Improper_Torsional_Energy-OPLS-2005>
2.74534940719604

> <r_mmod_Van_der_Waal_Energy-OPLS-2005>
183.318725585938

> <r_mmod_Electrostatic_Energy-OPLS-2005>
-348.171966552734

> <r_mmod_Solvation_Energy-OPLS-2005>
-203.593322753906

> <b_mmod_Minimization_Converged-OPLS-2005>
0

> <r_mmod_RMS_Derivative-OPLS-2005>
1.59984147548676

$$$$
56
                    3D
 Structure written by MMmdl.
160168  0  0  1  0            999 V2000
  -30.6365  -14.6171   20.4474 C   0  0  0  0  0  0
  -30.4509  -12.3531   19.4872 C   0  0  0  0  0  0
  -29.5109  -12.4162   18.2649 C   0  0  0  0  0  0
  -28.0356  -12.2914   18.6891 C   0  0  0  0  0  0
  -27.6583  -13.1978   19.8872 C   0  0  2  0  0  0
  -28.7068  -13.0772   21.0162 C   0  0  0  0  0  0
  -25.2604  -13.8154   20.5763 C   0  0  0  0  0  0
  -24.1815  -13.0457   20.9262 C   0  0  0  0  0  0
  -24.6345  -11.6916   20.8843 C   0  0  0  0  0  0
  -23.9024  -10.4291   21.0470 C   0  0  0  0  0  0
  -24.3582   -9.4183   21.9234 C   0  0  0  0  0  0
  -23.6263   -8.2192   22.0770 C   0  0  0  0  0  0
  -22.4246   -8.0248   21.3542 C   0  0  0  0  0  0
  -21.9893   -9.0238   20.4649 C   0  0  0  0  0  0
  -22.7207  -10.2145   20.3105 C   0  0  0  0  0  0
  -21.6831   -6.0720   22.5268 C   0  0  0  0  0  0
  -21.3965   -6.5627   23.8207 C   0  0  0  0  0  0
  -21.3680   -5.6800   24.9188 C   0  0  0  0  0  0
  -21.6057   -4.3052   24.7252 C   0  0  0  0  0  0
  -21.8802   -3.8138   23.4366 C   0  0  0  0  0  0
  -21.9179   -4.6940   22.3423 C   0  0  0  0  0  0
  -22.7826  -13.5264   21.1881 C   0  0  0  0  0  0
  -22.1646   -4.2123   21.0994 F   0  0  0  0  0  0
  -21.5671   -3.4547   25.7770 F   0  0  0  0  0  0
  -30.0246  -13.3959   20.4355 N   0  0  0  0  0  0
  -26.3010  -12.9275   20.3508 N   0  0  0  0  0  0
  -25.9270  -11.6468   20.5926 N   0  0  0  0  0  0
  -22.0443  -12.8286   22.0450 N   0  0  0  0  0  0
  -25.4424  -15.1877   20.4129 N   0  0  0  0  0  0
  -31.8116  -14.7696   20.0998 O   0  0  0  0  0  0
  -21.6615   -6.8839   21.4214 O   0  0  0  0  0  0
  -22.3516  -14.5571   20.6708 O   0  0  0  0  0  0
  -24.6200  -31.8663   23.2029 C   0  0  0  0  0  0
  -25.9071  -32.4794   23.8383 C   0  0  1  0  0  0
  -27.2254  -27.3788   20.0897 C   0  0  0  0  0  0
  -25.5931  -33.8601   24.2306 N   0  0  0  0  0  0
  -23.4076  -30.4893   21.5466 C   0  0  2  0  0  0
  -24.8482  -28.9483   20.1100 C   0  0  0  0  0  0
  -22.7428  -29.4663   22.4966 C   0  0  0  0  0  0
  -18.0343  -28.1330   22.8523 C   0  0  0  0  0  0
  -24.1503  -36.7303   23.2637 C   0  0  0  0  0  0
  -25.9405  -30.8106   21.3632 C   0  0  0  0  0  0
  -26.0128  -29.4406   20.7126 C   0  0  0  0  0  0
  -27.1983  -28.6624   20.7008 C   0  0  0  0  0  0
  -26.0423  -26.9233   19.4598 C   0  0  0  0  0  0
  -24.8639  -27.6942   19.4794 C   0  0  0  0  0  0
  -23.6088  -29.8167   20.1625 C   0  0  0  0  0  0
  -25.4117  -36.3091   24.0331 C   0  0  1  0  0  0
  -20.5938  -28.3685   23.1348 C   0  0  2  0  0  0
  -20.6938  -26.9449   22.5415 C   0  0  0  0  0  0
  -19.5909  -26.6471   21.5223 C   0  0  0  0  0  0
  -18.2083  -26.7929   22.1611 C   0  0  0  0  0  0
  -19.1601  -28.8823   23.2917 C   0  0  0  0  0  0
  -18.9521  -30.1431   23.8862 C   0  0  0  0  0  0
  -17.6527  -30.6617   24.0417 C   0  0  0  0  0  0
  -25.9062  -34.9457   23.5116 C   0  0  0  0  0  0
  -16.5406  -29.9079   23.6234 C   0  0  0  0  0  0
  -16.7331  -28.6413   23.0440 C   0  0  0  0  0  0
  -26.4483  -31.6571   25.0718 C   0  0  0  0  0  0
  -25.3730  -31.3684   26.1458 C   0  0  0  0  0  0
  -27.0290  -30.3009   24.6087 C   0  0  0  0  0  0
  -27.6067  -32.4286   25.7463 C   0  0  0  0  0  0
  -27.5573  -37.1795   24.8452 C   0  0  0  0  0  0
  -21.4163  -29.3088   22.3765 N   0  0  0  0  0  0
  -26.4283  -37.3770   23.9402 N   0  0  0  0  0  0
  -24.6754  -31.0703   22.0977 N   0  0  0  0  0  0
  -23.4191  -28.8192   23.3001 O   0  0  0  0  0  0
  -28.3881  -26.6148   20.1302 O   0  0  0  0  0  0
  -26.5594  -34.8903   22.4661 O   0  0  0  0  0  0
  -23.5393  -32.1449   23.7407 O   0  0  0  0  0  0
  -29.3060  -19.6564   19.1874 C   0  0  0  0  0  0
  -29.9244  -18.1557   20.9975 C   0  0  0  0  0  0
  -29.4424  -17.2347   18.7833 C   0  0  0  0  0  0
  -29.1801  -18.5567   18.3221 C   0  0  0  0  0  0
  -29.7882  -17.0093   20.1524 C   0  0  0  0  0  0
  -29.6791  -19.4833   20.5310 C   0  0  0  0  0  0
  -30.1251  -15.8625   16.8448 C   0  0  0  0  0  0
  -29.2674  -16.1200   17.8459 C   0  0  0  0  0  0
  -29.3437  -24.3643   20.6739 C   0  0  0  0  0  0
  -28.7081  -18.8745   16.9065 C   0  0  0  0  0  0
  -29.6703  -22.8949   20.2827 C   0  0  0  0  0  0
  -28.3104  -25.1840   19.8484 C   0  0  0  0  0  0
  -29.0244  -21.7817   21.1698 C   0  0  0  0  0  0
  -29.8202  -15.6711   20.7276 N   0  0  0  0  0  0
  -29.9322  -24.8802   21.6315 O   0  0  0  0  0  0
  -29.8040  -20.5722   21.3861 O   0  0  0  0  0  0
  -31.4866  -12.4813   19.1690 H   0  0  0  0  0  0
  -30.4123  -11.3766   19.9741 H   0  0  0  0  0  0
  -29.7615  -11.6105   17.5748 H   0  0  0  0  0  0
  -29.6647  -13.3446   17.7243 H   0  0  0  0  0  0
  -27.8885  -11.2508   18.9830 H   0  0  0  0  0  0
  -27.3689  -12.4746   17.8457 H   0  0  0  0  0  0
  -27.6682  -14.2249   19.5335 H   0  0  0  0  0  0
  -28.7119  -12.0706   21.4362 H   0  0  0  0  0  0
  -28.4624  -13.7407   21.8475 H   0  0  0  0  0  0
  -25.2708   -9.5676   22.4844 H   0  0  0  0  0  0
  -23.9999   -7.4574   22.7479 H   0  0  0  0  0  0
  -21.0849   -8.8789   19.8904 H   0  0  0  0  0  0
  -22.3684  -10.9732   19.6260 H   0  0  0  0  0  0
  -21.1882   -7.6120   23.9725 H   0  0  0  0  0  0
  -21.1546   -6.0513   25.9121 H   0  0  0  0  0  0
  -22.0556   -2.7585   23.2882 H   0  0  0  0  0  0
  -22.3995  -11.9928   22.4851 H   0  0  0  0  0  0
  -21.1071  -13.1343   22.2664 H   0  0  0  0  0  0
  -24.6996  -15.8656   20.5499 H   0  0  0  0  0  0
  -26.3001  -15.6136   20.0856 H   0  0  0  0  0  0
  -26.7129  -32.5479   23.1146 H   0  0  0  0  0  0
  -25.0079  -33.9789   25.0451 H   0  0  0  0  0  0
  -22.6997  -31.3088   21.4096 H   0  0  0  0  0  0
  -23.3749  -35.9648   23.3295 H   0  0  0  0  0  0
  -24.3592  -36.8918   22.2045 H   0  0  0  0  0  0
  -23.7266  -37.6528   23.6644 H   0  0  0  0  0  0
  -26.0506  -31.5652   20.5819 H   0  0  0  0  0  0
  -26.8302  -30.8704   21.9792 H   0  0  0  0  0  0
  -28.0908  -29.0343   21.1820 H   0  0  0  0  0  0
  -25.9996  -25.9743   18.9429 H   0  0  0  0  0  0
  -23.9714  -27.3205   18.9959 H   0  0  0  0  0  0
  -23.6958  -30.5860   19.3949 H   0  0  0  0  0  0
  -22.7296  -29.2297   19.8848 H   0  0  0  0  0  0
  -25.1295  -36.1952   25.0815 H   0  0  0  0  0  0
  -21.0082  -28.3220   24.1461 H   0  0  0  0  0  0
  -20.5994  -26.2298   23.3594 H   0  0  0  0  0  0
  -21.6790  -26.7601   22.1114 H   0  0  0  0  0  0
  -19.6889  -27.3469   20.6915 H   0  0  0  0  0  0
  -19.7087  -25.6482   21.1114 H   0  0  0  0  0  0
  -17.4366  -26.6598   21.4012 H   0  0  0  0  0  0
  -18.0584  -26.0087   22.9042 H   0  0  0  0  0  0
  -19.8031  -30.7208   24.2213 H   0  0  0  0  0  0
  -17.5134  -31.6352   24.4937 H   0  0  0  0  0  0
  -15.5431  -30.3048   23.7523 H   0  0  0  0  0  0
  -15.8709  -28.0645   22.7384 H   0  0  0  0  0  0
  -24.5894  -30.7067   25.7782 H   0  0  0  0  0  0
  -24.8960  -32.2867   26.4903 H   0  0  0  0  0  0
  -25.8084  -30.8843   27.0209 H   0  0  0  0  0  0
  -26.2844  -29.6795   24.1109 H   0  0  0  0  0  0
  -27.4058  -29.7218   25.4523 H   0  0  0  0  0  0
  -27.8688  -30.4368   23.9248 H   0  0  0  0  0  0
  -27.2690  -33.3560   26.2099 H   0  0  0  0  0  0
  -28.3822  -32.6871   25.0238 H   0  0  0  0  0  0
  -28.0789  -31.8367   26.5320 H   0  0  0  0  0  0
  -28.2595  -38.0086   24.7482 H   0  0  0  0  0  0
  -28.1069  -36.2619   24.6296 H   0  0  0  0  0  0
  -27.2289  -37.1443   25.8855 H   0  0  0  0  0  0
  -20.9301  -29.8981   21.7150 H   0  0  0  0  0  0
  -26.0176  -38.2864   24.1363 H   0  0  0  0  0  0
  -29.1106  -20.6437   18.7948 H   0  0  0  0  0  0
  -30.1875  -18.0099   22.0345 H   0  0  0  0  0  0
  -29.9470  -15.0473   16.1574 H   0  0  0  0  0  0
  -31.0131  -16.4645   16.6995 H   0  0  0  0  0  0
  -28.3781  -15.5177   17.9562 H   0  0  0  0  0  0
  -27.7215  -19.3438   16.9373 H   0  0  0  0  0  0
  -28.6241  -18.0043   16.2623 H   0  0  0  0  0  0
  -29.3947  -19.5694   16.4229 H   0  0  0  0  0  0
  -30.7523  -22.7994   20.3661 H   0  0  0  0  0  0
  -29.4463  -22.7453   19.2258 H   0  0  0  0  0  0
  -27.3305  -24.7831   20.1023 H   0  0  0  0  0  0
  -28.4788  -25.0082   18.7842 H   0  0  0  0  0  0
  -28.0280  -21.5307   20.8041 H   0  0  0  0  0  0
  -28.8632  -22.1904   22.1684 H   0  0  0  0  0  0
  -28.9338  -15.3626   21.0943 H   0  0  0  0  0  0
  1 25  1  0  0  0
  1 30  2  0  0  0
  1 84  1  0  0  0
  2  3  1  0  0  0
  2 25  1  0  0  0
  2 87  1  0  0  0
  2 88  1  0  0  0
  3  4  1  0  0  0
  3 89  1  0  0  0
  3 90  1  0  0  0
  4  5  1  0  0  0
  4 91  1  0  0  0
  4 92  1  0  0  0
  5  6  1  0  0  0
  5 26  1  0  0  0
  5 93  1  0  0  0
  6 25  1  0  0  0
  6 94  1  0  0  0
  6 95  1  0  0  0
  7  8  2  0  0  0
  7 26  1  0  0  0
  7 29  1  0  0  0
  8  9  1  0  0  0
  8 22  1  0  0  0
  9 10  1  0  0  0
  9 27  2  0  0  0
 10 11  2  0  0  0
 10 15  1  0  0  0
 11 12  1  0  0  0
 11 96  1  0  0  0
 12 13  2  0  0  0
 12 97  1  0  0  0
 13 14  1  0  0  0
 13 31  1  0  0  0
 14 15  2  0  0  0
 14 98  1  0  0  0
 15 99  1  0  0  0
 16 17  2  0  0  0
 16 21  1  0  0  0
 16 31  1  0  0  0
 17 18  1  0  0  0
 17100  1  0  0  0
 18 19  2  0  0  0
 18101  1  0  0  0
 19 20  1  0  0  0
 19 24  1  0  0  0
 20 21  2  0  0  0
 20102  1  0  0  0
 21 23  1  0  0  0
 22 28  1  0  0  0
 22 32  2  0  0  0
 26 27  1  0  0  0
 28103  1  0  0  0
 28104  1  0  0  0
 29105  1  0  0  0
 29106  1  0  0  0
 33 34  1  0  0  0
 33 66  1  0  0  0
 33 70  2  0  0  0
 34 36  1  0  0  0
 34 59  1  0  0  0
 34107  1  0  0  0
 35 44  2  0  0  0
 35 45  1  0  0  0
 35 68  1  0  0  0
 36 56  1  0  0  0
 36108  1  0  0  0
 37 39  1  0  0  0
 37 47  1  0  0  0
 37 66  1  0  0  0
 37109  1  0  0  0
 38 43  2  0  0  0
 38 46  1  0  0  0
 38 47  1  0  0  0
 39 64  1  0  0  0
 39 67  2  0  0  0
 40 52  1  0  0  0
 40 53  2  0  0  0
 40 58  1  0  0  0
 41110  1  0  0  0
 41111  1  0  0  0
 41112  1  0  0  0
 41 48  1  0  0  0
 42 43  1  0  0  0
 42 66  1  0  0  0
 42113  1  0  0  0
 42114  1  0  0  0
 43 44  1  0  0  0
 44115  1  0  0  0
 45 46  2  0  0  0
 45116  1  0  0  0
 46117  1  0  0  0
 47118  1  0  0  0
 47119  1  0  0  0
 48 56  1  0  0  0
 48 65  1  0  0  0
 48120  1  0  0  0
 49 50  1  0  0  0
 49 53  1  0  0  0
 49 64  1  0  0  0
 49121  1  0  0  0
 50 51  1  0  0  0
 50122  1  0  0  0
 50123  1  0  0  0
 51 52  1  0  0  0
 51124  1  0  0  0
 51125  1  0  0  0
 52126  1  0  0  0
 52127  1  0  0  0
 53 54  1  0  0  0
 54 55  2  0  0  0
 54128  1  0  0  0
 55 57  1  0  0  0
 55129  1  0  0  0
 56 69  2  0  0  0
 57 58  2  0  0  0
 57130  1  0  0  0
 58131  1  0  0  0
 59 60  1  0  0  0
 59 61  1  0  0  0
 59 62  1  0  0  0
 60132  1  0  0  0
 60133  1  0  0  0
 60134  1  0  0  0
 61135  1  0  0  0
 61136  1  0  0  0
 61137  1  0  0  0
 62138  1  0  0  0
 62139  1  0  0  0
 62140  1  0  0  0
 63 65  1  0  0  0
 63141  1  0  0  0
 63142  1  0  0  0
 63143  1  0  0  0
 64144  1  0  0  0
 65145  1  0  0  0
 68 82  1  0  0  0
 71 74  2  0  0  0
 71 76  1  0  0  0
 71146  1  0  0  0
 72 75  1  0  0  0
 72 76  2  0  0  0
 72147  1  0  0  0
 73 74  1  0  0  0
 73 75  2  0  0  0
 73 78  1  0  0  0
 74 80  1  0  0  0
 75 84  1  0  0  0
 76 86  1  0  0  0
 77 78  2  0  0  0
 77148  1  0  0  0
 77149  1  0  0  0
 78150  1  0  0  0
 79 81  1  0  0  0
 79 82  1  0  0  0
 79 85  2  0  0  0
 80151  1  0  0  0
 80152  1  0  0  0
 80153  1  0  0  0
 81 83  1  0  0  0
 81154  1  0  0  0
 81155  1  0  0  0
 82156  1  0  0  0
 82157  1  0  0  0
 83 86  1  0  0  0
 83158  1  0  0  0
 83159  1  0  0  0
 84160  1  0  0  0
M  ISO  4   1 100  68 101  82 101  84 100
M  END
> <chiral flag>
0

> <version>
0

> <s_m_source_file>
/data/baiqing/PycharmProjects/Reinvent-master-3.2/result/LINK_invent/BTK/process_docking_weight1_custom_product_contain_oxygen_bond_distance_aromatic_linkinvent_7_9_3/rearranged_h_0113.sdf

> <i_m_source_file_index>
57

> <r_mmod_Potential_Energy-OPLS-2005>
54.164966583252

> <r_mmod_Stretch_Energy-OPLS-2005>
57.3157730102539

> <r_mmod_Bend_Energy-OPLS-2005>
122.337905883789

> <r_mmod_Torsional_Energy-OPLS-2005>
286.871368408203

> <r_mmod_Improper_Torsional_Energy-OPLS-2005>
6.17957305908203

> <r_mmod_Van_der_Waal_Energy-OPLS-2005>
148.8955078125

> <r_mmod_Electrostatic_Energy-OPLS-2005>
-365.354644775391

> <r_mmod_Solvation_Energy-OPLS-2005>
-241.399230957031

> <b_mmod_Minimization_Converged-OPLS-2005>
0

> <r_mmod_RMS_Derivative-OPLS-2005>
5.67252111434937

$$$$
57
                    3D
 Structure written by MMmdl.
150158  0  0  1  0            999 V2000
  -30.5137  -15.0355   20.4496 C   0  0  0  0  0  0
  -30.4445  -12.6458   19.5344 C   0  0  0  0  0  0
  -29.5351  -12.5643   18.2828 C   0  0  0  0  0  0
  -28.0687  -12.3293   18.6869 C   0  0  0  0  0  0
  -27.6331  -13.2551   19.8505 C   0  0  2  0  0  0
  -28.6667  -13.2852   20.9977 C   0  0  0  0  0  0
  -25.2412  -13.8161   20.5610 C   0  0  0  0  0  0
  -24.1763  -13.0397   20.9213 C   0  0  0  0  0  0
  -24.6411  -11.6896   20.8766 C   0  0  0  0  0  0
  -23.9094  -10.4270   21.0418 C   0  0  0  0  0  0
  -24.3635   -9.4184   21.9195 C   0  0  0  0  0  0
  -23.6299   -8.2227   22.0761 C   0  0  0  0  0  0
  -22.4282   -8.0273   21.3546 C   0  0  0  0  0  0
  -21.9925   -9.0250   20.4649 C   0  0  0  0  0  0
  -22.7266  -10.2123   20.3063 C   0  0  0  0  0  0
  -21.6850   -6.0733   22.5279 C   0  0  0  0  0  0
  -21.4010   -6.5638   23.8211 C   0  0  0  0  0  0
  -21.3658   -5.6792   24.9173 C   0  0  0  0  0  0
  -21.6046   -4.3054   24.7225 C   0  0  0  0  0  0
  -21.8819   -3.8146   23.4345 C   0  0  0  0  0  0
  -21.9192   -4.6962   22.3401 C   0  0  0  0  0  0
  -22.7785  -13.5175   21.1869 C   0  0  0  0  0  0
  -22.1662   -4.2146   21.0979 F   0  0  0  0  0  0
  -21.5629   -3.4538   25.7739 F   0  0  0  0  0  0
  -29.9474  -13.7430   20.4306 N   0  0  0  0  0  0
  -26.2895  -12.9443   20.3261 N   0  0  0  0  0  0
  -25.9358  -11.6569   20.5772 N   0  0  0  0  0  0
  -22.0448  -12.8172   22.0442 N   0  0  0  0  0  0
  -25.3960  -15.1843   20.3805 N   0  0  0  0  0  0
  -31.6505  -15.1306   19.9676 O   0  0  0  0  0  0
  -21.6638   -6.8878   21.4242 O   0  0  0  0  0  0
  -22.3463  -14.5479   20.6716 O   0  0  0  0  0  0
  -24.6487  -31.8375   23.1817 C   0  0  0  0  0  0
  -25.9232  -32.4664   23.8232 C   0  0  1  0  0  0
  -27.2253  -27.0718   20.1564 C   0  0  0  0  0  0
  -25.5959  -33.8473   24.2154 N   0  0  0  0  0  0
  -23.4563  -30.4534   21.5272 C   0  0  2  0  0  0
  -24.9089  -28.8682   20.1051 C   0  0  0  0  0  0
  -22.7596  -29.4512   22.4821 C   0  0  0  0  0  0
  -18.0311  -28.1398   22.8478 C   0  0  0  0  0  0
  -24.1487  -36.7230   23.2646 C   0  0  0  0  0  0
  -26.0162  -30.6889   21.3923 C   0  0  0  0  0  0
  -26.0852  -29.2943   20.7324 C   0  0  0  0  0  0
  -27.2361  -28.4103   20.7451 C   0  0  0  0  0  0
  -26.0207  -26.7633   19.4839 C   0  0  0  0  0  0
  -24.8933  -27.6188   19.4655 C   0  0  0  0  0  0
  -23.6868  -29.7766   20.1485 C   0  0  0  0  0  0
  -25.4123  -36.3016   24.0317 C   0  0  1  0  0  0
  -20.5926  -28.3733   23.1218 C   0  0  2  0  0  0
  -20.6791  -26.9428   22.5402 C   0  0  0  0  0  0
  -19.5764  -26.6382   21.5211 C   0  0  0  0  0  0
  -18.1948  -26.7936   22.1626 C   0  0  0  0  0  0
  -19.1570  -28.8883   23.2839 C   0  0  0  0  0  0
  -18.9485  -30.1475   23.8869 C   0  0  0  0  0  0
  -17.6482  -30.6596   24.0556 C   0  0  0  0  0  0
  -25.9079  -34.9393   23.5049 C   0  0  0  0  0  0
  -16.5370  -29.9088   23.6340 C   0  0  0  0  0  0
  -16.7296  -28.6502   23.0372 C   0  0  0  0  0  0
  -26.4526  -31.6561   25.0705 C   0  0  0  0  0  0
  -25.3692  -31.3779   26.1389 C   0  0  0  0  0  0
  -27.0403  -30.2948   24.6345 C   0  0  0  0  0  0
  -27.6045  -32.4341   25.7493 C   0  0  0  0  0  0
  -27.5569  -37.1774   24.8467 C   0  0  0  0  0  0
  -21.4279  -29.3045   22.3578 N   0  0  0  0  0  0
  -26.4279  -37.3739   23.9408 N   0  0  0  0  0  0
  -24.7270  -31.0167   22.0880 N   0  0  0  0  0  0
  -23.4209  -28.8078   23.3012 O   0  0  0  0  0  0
  -28.2696  -26.0612   20.2956 O   0  0  0  0  0  0
  -26.5670  -34.8906   22.4629 O   0  0  0  0  0  0
  -23.5594  -32.1278   23.7006 O   0  0  0  0  0  0
  -30.0117  -19.1995   20.3093 C   0  0  0  0  0  0
  -29.3775  -17.9157   20.7590 C   0  0  0  0  0  0
  -29.1414  -20.3477   20.3605 C   0  0  0  0  0  0
  -28.1193  -18.4196   21.0589 C   0  0  0  0  0  0
  -25.7660  -18.3795   21.8884 C   0  0  0  0  0  0
  -29.1042  -21.8843   20.0179 C   0  0  0  0  0  0
  -26.9464  -17.8065   21.6040 C   0  0  0  0  0  0
  -28.4084  -23.0981   20.3568 C   0  0  0  0  0  0
  -29.8114  -16.3714   21.2118 C   0  0  0  0  0  0
  -28.3485  -24.6191   19.6466 C   0  0  0  0  0  0
  -29.5647  -16.1473   22.4358 N   0  0  0  0  0  0
  -27.9900  -19.7972   20.8458 O   0  0  0  0  0  0
  -31.4786  -12.8058   19.2279 H   0  0  0  0  0  0
  -30.4491  -11.6931   20.0663 H   0  0  0  0  0  0
  -29.8737  -11.7674   17.6196 H   0  0  0  0  0  0
  -29.6149  -13.4921   17.7147 H   0  0  0  0  0  0
  -27.9732  -11.2862   18.9919 H   0  0  0  0  0  0
  -27.4096  -12.4586   17.8276 H   0  0  0  0  0  0
  -27.5972  -14.2602   19.4299 H   0  0  0  0  0  0
  -28.7687  -12.3013   21.4578 H   0  0  0  0  0  0
  -28.3230  -13.9484   21.7900 H   0  0  0  0  0  0
  -25.2777   -9.5653   22.4775 H   0  0  0  0  0  0
  -23.9997   -7.4616   22.7480 H   0  0  0  0  0  0
  -21.0856   -8.8779   19.8954 H   0  0  0  0  0  0
  -22.3732  -10.9666   19.6172 H   0  0  0  0  0  0
  -21.2003   -7.6146   23.9712 H   0  0  0  0  0  0
  -21.1481   -6.0522   25.9075 H   0  0  0  0  0  0
  -22.0599   -2.7608   23.2845 H   0  0  0  0  0  0
  -22.4077  -11.9835   22.4825 H   0  0  0  0  0  0
  -21.1067  -13.1193   22.2661 H   0  0  0  0  0  0
  -24.6185  -15.8275   20.4765 H   0  0  0  0  0  0
  -26.2240  -15.6210   19.9995 H   0  0  0  0  0  0
  -26.7295  -32.5247   23.0952 H   0  0  0  0  0  0
  -25.0097  -33.9567   25.0299 H   0  0  0  0  0  0
  -22.7623  -31.2811   21.3669 H   0  0  0  0  0  0
  -23.3761  -35.9548   23.3305 H   0  0  0  0  0  0
  -24.3573  -36.8864   22.2059 H   0  0  0  0  0  0
  -23.7228  -37.6422   23.6677 H   0  0  0  0  0  0
  -26.1830  -31.4407   20.6197 H   0  0  0  0  0  0
  -26.8821  -30.7389   22.0406 H   0  0  0  0  0  0
  -28.1249  -28.7283   21.2719 H   0  0  0  0  0  0
  -25.8935  -25.8049   19.0072 H   0  0  0  0  0  0
  -23.9943  -27.2839   18.9664 H   0  0  0  0  0  0
  -23.8260  -30.5478   19.3904 H   0  0  0  0  0  0
  -22.8003  -29.2206   19.8382 H   0  0  0  0  0  0
  -25.1317  -36.1837   25.0810 H   0  0  0  0  0  0
  -21.0021  -28.3330   24.1338 H   0  0  0  0  0  0
  -20.5679  -26.2349   23.3632 H   0  0  0  0  0  0
  -21.6659  -26.7427   22.1204 H   0  0  0  0  0  0
  -19.6927  -25.6286   21.1263 H   0  0  0  0  0  0
  -19.6702  -27.3170   20.6721 H   0  0  0  0  0  0
  -17.4217  -26.6680   21.4030 H   0  0  0  0  0  0
  -18.0348  -26.0086   22.9030 H   0  0  0  0  0  0
  -19.7963  -30.7297   24.2230 H   0  0  0  0  0  0
  -17.5039  -31.6278   24.5159 H   0  0  0  0  0  0
  -15.5371  -30.2985   23.7679 H   0  0  0  0  0  0
  -15.8695  -28.0805   22.7117 H   0  0  0  0  0  0
  -24.5874  -30.7122   25.7706 H   0  0  0  0  0  0
  -24.8876  -32.2973   26.4728 H   0  0  0  0  0  0
  -25.7963  -30.9009   27.0220 H   0  0  0  0  0  0
  -26.3043  -29.6656   24.1327 H   0  0  0  0  0  0
  -27.3957  -29.7269   25.4952 H   0  0  0  0  0  0
  -27.8975  -30.4162   23.9720 H   0  0  0  0  0  0
  -27.2625  -33.3667   26.1988 H   0  0  0  0  0  0
  -28.3895  -32.6860   25.0350 H   0  0  0  0  0  0
  -28.0662  -31.8524   26.5479 H   0  0  0  0  0  0
  -28.2586  -38.0073   24.7525 H   0  0  0  0  0  0
  -28.1074  -36.2608   24.6292 H   0  0  0  0  0  0
  -27.2293  -37.1418   25.8874 H   0  0  0  0  0  0
  -20.9503  -29.8741   21.6732 H   0  0  0  0  0  0
  -26.0147  -38.2806   24.1419 H   0  0  0  0  0  0
  -31.0461  -19.2807   20.0082 H   0  0  0  0  0  0
  -24.9538  -17.7971   22.2992 H   0  0  0  0  0  0
  -25.5897  -19.4316   21.7159 H   0  0  0  0  0  0
  -29.7830  -22.0628   19.1957 H   0  0  0  0  0  0
  -27.0282  -16.7495   21.8107 H   0  0  0  0  0  0
  -27.7085  -23.0105   21.1750 H   0  0  0  0  0  0
  -27.5427  -24.5383   18.9219 H   0  0  0  0  0  0
  -29.2397  -24.6599   19.0204 H   0  0  0  0  0  0
  -29.1601  -16.9611   22.8826 H   0  0  0  0  0  0
  1 25  1  0  0  0
  1 30  2  0  0  0
  1 79  1  0  0  0
  2  3  1  0  0  0
  2 25  1  0  0  0
  2 83  1  0  0  0
  2 84  1  0  0  0
  3  4  1  0  0  0
  3 85  1  0  0  0
  3 86  1  0  0  0
  4  5  1  0  0  0
  4 87  1  0  0  0
  4 88  1  0  0  0
  5  6  1  0  0  0
  5 26  1  0  0  0
  5 89  1  0  0  0
  6 25  1  0  0  0
  6 90  1  0  0  0
  6 91  1  0  0  0
  7  8  2  0  0  0
  7 26  1  0  0  0
  7 29  1  0  0  0
  8  9  1  0  0  0
  8 22  1  0  0  0
  9 10  1  0  0  0
  9 27  2  0  0  0
 10 11  2  0  0  0
 10 15  1  0  0  0
 11 12  1  0  0  0
 11 92  1  0  0  0
 12 13  2  0  0  0
 12 93  1  0  0  0
 13 14  1  0  0  0
 13 31  1  0  0  0
 14 15  2  0  0  0
 14 94  1  0  0  0
 15 95  1  0  0  0
 16 17  2  0  0  0
 16 21  1  0  0  0
 16 31  1  0  0  0
 17 18  1  0  0  0
 17 96  1  0  0  0
 18 19  2  0  0  0
 18 97  1  0  0  0
 19 20  1  0  0  0
 19 24  1  0  0  0
 20 21  2  0  0  0
 20 98  1  0  0  0
 21 23  1  0  0  0
 22 28  1  0  0  0
 22 32  2  0  0  0
 26 27  1  0  0  0
 28 99  1  0  0  0
 28100  1  0  0  0
 29101  1  0  0  0
 29102  1  0  0  0
 33 34  1  0  0  0
 33 66  1  0  0  0
 33 70  2  0  0  0
 34 36  1  0  0  0
 34 59  1  0  0  0
 34103  1  0  0  0
 35 44  2  0  0  0
 35 45  1  0  0  0
 35 68  1  0  0  0
 36 56  1  0  0  0
 36104  1  0  0  0
 37 39  1  0  0  0
 37 47  1  0  0  0
 37 66  1  0  0  0
 37105  1  0  0  0
 38 43  2  0  0  0
 38 46  1  0  0  0
 38 47  1  0  0  0
 39 64  1  0  0  0
 39 67  2  0  0  0
 40 52  1  0  0  0
 40 53  2  0  0  0
 40 58  1  0  0  0
 41106  1  0  0  0
 41107  1  0  0  0
 41108  1  0  0  0
 41 48  1  0  0  0
 42 43  1  0  0  0
 42 66  1  0  0  0
 42109  1  0  0  0
 42110  1  0  0  0
 43 44  1  0  0  0
 44111  1  0  0  0
 45 46  2  0  0  0
 45112  1  0  0  0
 46113  1  0  0  0
 47114  1  0  0  0
 47115  1  0  0  0
 48 56  1  0  0  0
 48 65  1  0  0  0
 48116  1  0  0  0
 49 50  1  0  0  0
 49 53  1  0  0  0
 49 64  1  0  0  0
 49117  1  0  0  0
 50 51  1  0  0  0
 50118  1  0  0  0
 50119  1  0  0  0
 51 52  1  0  0  0
 51120  1  0  0  0
 51121  1  0  0  0
 52122  1  0  0  0
 52123  1  0  0  0
 53 54  1  0  0  0
 54 55  2  0  0  0
 54124  1  0  0  0
 55 57  1  0  0  0
 55125  1  0  0  0
 56 69  2  0  0  0
 57 58  2  0  0  0
 57126  1  0  0  0
 58127  1  0  0  0
 59 60  1  0  0  0
 59 61  1  0  0  0
 59 62  1  0  0  0
 60128  1  0  0  0
 60129  1  0  0  0
 60130  1  0  0  0
 61131  1  0  0  0
 61132  1  0  0  0
 61133  1  0  0  0
 62134  1  0  0  0
 62135  1  0  0  0
 62136  1  0  0  0
 63 65  1  0  0  0
 63137  1  0  0  0
 63138  1  0  0  0
 63139  1  0  0  0
 64140  1  0  0  0
 65141  1  0  0  0
 68 80  1  0  0  0
 71 72  1  0  0  0
 71 73  2  0  0  0
 71142  1  0  0  0
 72 74  2  0  0  0
 72 79  1  0  0  0
 73 76  1  0  0  0
 73 82  1  0  0  0
 74 77  1  0  0  0
 74 82  1  0  0  0
 75 77  2  0  0  0
 75143  1  0  0  0
 75144  1  0  0  0
 76 78  2  0  0  0
 76145  1  0  0  0
 77146  1  0  0  0
 78 80  1  0  0  0
 78147  1  0  0  0
 79 81  2  0  0  0
 80148  1  0  0  0
 80149  1  0  0  0
 81150  1  0  0  0
M  ISO  4   1 100  68 101  79 100  80 101
M  END
> <chiral flag>
0

> <version>
0

> <s_m_source_file>
/data/baiqing/PycharmProjects/Reinvent-master-3.2/result/LINK_invent/BTK/process_docking_weight1_custom_product_contain_oxygen_bond_distance_aromatic_linkinvent_7_9_3/rearranged_h_0113.sdf

> <i_m_source_file_index>
58

> <r_mmod_Potential_Energy-OPLS-2005>
866.317993164062

> <r_mmod_Stretch_Energy-OPLS-2005>
342.511749267578

> <r_mmod_Bend_Energy-OPLS-2005>
354.868530273438

> <r_mmod_Torsional_Energy-OPLS-2005>
226.211517333984

> <r_mmod_Improper_Torsional_Energy-OPLS-2005>
8.23500442504883

> <r_mmod_Van_der_Waal_Energy-OPLS-2005>
114.156478881836

> <r_mmod_Electrostatic_Energy-OPLS-2005>
-237.279708862305

> <r_mmod_Solvation_Energy-OPLS-2005>
-199.034225463867

> <b_mmod_Minimization_Converged-OPLS-2005>
0

> <r_mmod_RMS_Derivative-OPLS-2005>
0.831704139709473

$$$$
58
                    3D
 Structure written by MMmdl.
161169  0  0  1  0            999 V2000
  -30.6604  -14.4956   20.5518 C   0  0  0  0  0  0
  -30.4351  -12.3083   19.4288 C   0  0  0  0  0  0
  -29.5023  -12.4862   18.2115 C   0  0  0  0  0  0
  -28.0195  -12.3609   18.6194 C   0  0  0  0  0  0
  -27.6644  -13.2006   19.8757 C   0  0  2  0  0  0
  -28.7044  -12.9697   20.9949 C   0  0  0  0  0  0
  -25.2610  -13.8150   20.5675 C   0  0  0  0  0  0
  -24.1849  -13.0437   20.9165 C   0  0  0  0  0  0
  -24.6391  -11.6900   20.8727 C   0  0  0  0  0  0
  -23.9054  -10.4290   21.0402 C   0  0  0  0  0  0
  -24.3609   -9.4207   21.9182 C   0  0  0  0  0  0
  -23.6286   -8.2242   22.0752 C   0  0  0  0  0  0
  -22.4270   -8.0279   21.3544 C   0  0  0  0  0  0
  -21.9902   -9.0251   20.4646 C   0  0  0  0  0  0
  -22.7226  -10.2132   20.3052 C   0  0  0  0  0  0
  -21.6851   -6.0733   22.5280 C   0  0  0  0  0  0
  -21.4013   -6.5638   23.8213 C   0  0  0  0  0  0
  -21.3659   -5.6791   24.9175 C   0  0  0  0  0  0
  -21.6044   -4.3053   24.7226 C   0  0  0  0  0  0
  -21.8819   -3.8145   23.4347 C   0  0  0  0  0  0
  -21.9192   -4.6961   22.3402 C   0  0  0  0  0  0
  -22.7874  -13.5242   21.1836 C   0  0  0  0  0  0
  -22.1661   -4.2147   21.0980 F   0  0  0  0  0  0
  -21.5629   -3.4537   25.7739 F   0  0  0  0  0  0
  -30.0353  -13.2901   20.4484 N   0  0  0  0  0  0
  -26.3038  -12.9305   20.3360 N   0  0  0  0  0  0
  -25.9317  -11.6472   20.5763 N   0  0  0  0  0  0
  -22.0510  -12.8236   22.0391 N   0  0  0  0  0  0
  -25.4354  -15.1867   20.4104 N   0  0  0  0  0  0
  -31.7979  -14.7002   20.1151 O   0  0  0  0  0  0
  -21.6637   -6.8875   21.4240 O   0  0  0  0  0  0
  -22.3562  -14.5551   20.6690 O   0  0  0  0  0  0
  -24.6135  -31.8681   23.2099 C   0  0  0  0  0  0
  -25.9029  -32.4825   23.8397 C   0  0  1  0  0  0
  -27.2394  -27.4337   20.1077 C   0  0  0  0  0  0
  -25.5888  -33.8622   24.2330 N   0  0  0  0  0  0
  -23.4032  -30.4895   21.5495 C   0  0  2  0  0  0
  -24.8540  -28.9513   20.1194 C   0  0  0  0  0  0
  -22.7408  -29.4655   22.4990 C   0  0  0  0  0  0
  -18.0271  -28.1379   22.8495 C   0  0  0  0  0  0
  -24.1486  -36.7318   23.2636 C   0  0  0  0  0  0
  -25.9309  -30.8319   21.3654 C   0  0  0  0  0  0
  -26.0109  -29.4622   20.7227 C   0  0  0  0  0  0
  -27.2074  -28.7082   20.7220 C   0  0  0  0  0  0
  -26.0730  -26.9399   19.4924 C   0  0  0  0  0  0
  -24.8785  -27.6868   19.5039 C   0  0  0  0  0  0
  -23.6147  -29.8178   20.1656 C   0  0  0  0  0  0
  -25.4105  -36.3115   24.0341 C   0  0  1  0  0  0
  -20.5862  -28.3662   23.1321 C   0  0  2  0  0  0
  -20.6762  -26.9398   22.5421 C   0  0  0  0  0  0
  -19.5744  -26.6387   21.5215 C   0  0  0  0  0  0
  -18.1921  -26.7926   22.1624 C   0  0  0  0  0  0
  -19.1521  -28.8836   23.2907 C   0  0  0  0  0  0
  -18.9449  -30.1443   23.8915 C   0  0  0  0  0  0
  -17.6453  -30.6586   24.0568 C   0  0  0  0  0  0
  -25.9030  -34.9479   23.5134 C   0  0  0  0  0  0
  -16.5344  -29.9090   23.6327 C   0  0  0  0  0  0
  -16.7261  -28.6507   23.0346 C   0  0  0  0  0  0
  -26.4462  -31.6597   25.0717 C   0  0  0  0  0  0
  -25.3734  -31.3709   26.1472 C   0  0  0  0  0  0
  -27.0285  -30.3040   24.6081 C   0  0  0  0  0  0
  -27.6047  -32.4309   25.7476 C   0  0  0  0  0  0
  -27.5585  -37.1810   24.8460 C   0  0  0  0  0  0
  -21.4137  -29.3029   22.3727 N   0  0  0  0  0  0
  -26.4292  -37.3798   23.9412 N   0  0  0  0  0  0
  -24.6672  -31.0779   22.1003 N   0  0  0  0  0  0
  -23.4177  -28.8203   23.3038 O   0  0  0  0  0  0
  -28.3833  -26.6690   20.0456 O   0  0  0  0  0  0
  -26.5593  -34.8930   22.4697 O   0  0  0  0  0  0
  -23.5327  -32.1433   23.7492 O   0  0  0  0  0  0
  -30.1281  -18.9551   19.5749 C   0  0  0  0  0  0
  -29.6045  -19.1216   21.9320 C   0  0  0  0  0  0
  -30.1458  -17.5434   19.6569 C   0  0  0  0  0  0
  -29.6633  -17.7108   22.0457 C   0  0  0  0  0  0
  -29.8272  -19.7625   20.6913 C   0  0  0  0  0  0
  -29.9499  -16.8994   20.9148 C   0  0  0  0  0  0
  -29.3781  -16.2012   17.7228 C   0  0  0  0  0  0
  -30.3581  -16.8245   18.3955 C   0  0  0  0  0  0
  -29.0740  -22.1237   21.1558 C   0  0  0  0  0  0
  -29.4036  -17.0769   23.4034 C   0  0  0  0  0  0
  -29.2647  -23.5902   20.6988 C   0  0  0  0  0  0
  -28.4399  -24.6403   21.4979 C   0  0  0  0  0  0
  -28.8444  -26.1237   21.2861 C   0  0  0  0  0  0
  -29.7971  -21.1851   20.5079 N   0  0  0  0  0  0
  -29.8935  -15.4729   21.0806 N   0  0  0  0  0  0
  -28.2826  -21.8593   22.0645 O   0  0  0  0  0  0
  -31.4777  -12.4245   19.1275 H   0  0  0  0  0  0
  -30.3524  -11.2975   19.8311 H   0  0  0  0  0  0
  -29.7405  -11.7466   17.4459 H   0  0  0  0  0  0
  -29.6784  -13.4585   17.7540 H   0  0  0  0  0  0
  -27.8208  -11.3064   18.8141 H   0  0  0  0  0  0
  -27.3749  -12.6406   17.7854 H   0  0  0  0  0  0
  -27.7114  -14.2491   19.5813 H   0  0  0  0  0  0
  -28.6847  -11.9283   21.3197 H   0  0  0  0  0  0
  -28.4609  -13.5510   21.8852 H   0  0  0  0  0  0
  -25.2755   -9.5686   22.4751 H   0  0  0  0  0  0
  -23.9998   -7.4635   22.7472 H   0  0  0  0  0  0
  -21.0833   -8.8768   19.8954 H   0  0  0  0  0  0
  -22.3685  -10.9669   19.6159 H   0  0  0  0  0  0
  -21.2005   -7.6146   23.9715 H   0  0  0  0  0  0
  -21.1482   -6.0522   25.9079 H   0  0  0  0  0  0
  -22.0598   -2.7608   23.2847 H   0  0  0  0  0  0
  -22.4115  -11.9889   22.4770 H   0  0  0  0  0  0
  -21.1132  -13.1271   22.2600 H   0  0  0  0  0  0
  -24.6721  -15.8448   20.5234 H   0  0  0  0  0  0
  -26.2949  -15.6263   20.1064 H   0  0  0  0  0  0
  -26.7100  -32.5548   23.1166 H   0  0  0  0  0  0
  -25.0039  -33.9783   25.0476 H   0  0  0  0  0  0
  -22.6922  -31.3060   21.4075 H   0  0  0  0  0  0
  -23.3747  -35.9652   23.3300 H   0  0  0  0  0  0
  -24.3585  -36.8928   22.2050 H   0  0  0  0  0  0
  -23.7236  -37.6525   23.6645 H   0  0  0  0  0  0
  -26.0389  -31.5924   20.5908 H   0  0  0  0  0  0
  -26.8204  -30.8927   21.9803 H   0  0  0  0  0  0
  -28.1028  -29.1033   21.1814 H   0  0  0  0  0  0
  -26.0912  -25.9724   19.0106 H   0  0  0  0  0  0
  -23.9906  -27.2878   19.0331 H   0  0  0  0  0  0
  -23.7231  -30.5906   19.4037 H   0  0  0  0  0  0
  -22.7397  -29.2357   19.8707 H   0  0  0  0  0  0
  -25.1280  -36.1983   25.0834 H   0  0  0  0  0  0
  -20.9955  -28.3226   24.1441 H   0  0  0  0  0  0
  -20.5665  -26.2268   23.3606 H   0  0  0  0  0  0
  -21.6633  -26.7443   22.1212 H   0  0  0  0  0  0
  -19.6907  -25.6303   21.1230 H   0  0  0  0  0  0
  -19.6689  -27.3210   20.6756 H   0  0  0  0  0  0
  -17.4195  -26.6678   21.4021 H   0  0  0  0  0  0
  -18.0321  -26.0064   22.9015 H   0  0  0  0  0  0
  -19.7926  -30.7254   24.2290 H   0  0  0  0  0  0
  -17.5010  -31.6268   24.5167 H   0  0  0  0  0  0
  -15.5345  -30.2999   23.7641 H   0  0  0  0  0  0
  -15.8661  -28.0837   22.7046 H   0  0  0  0  0  0
  -24.5894  -30.7070   25.7812 H   0  0  0  0  0  0
  -24.8940  -32.2868   26.4937 H   0  0  0  0  0  0
  -25.8088  -30.8862   27.0219 H   0  0  0  0  0  0
  -26.2824  -29.6812   24.1128 H   0  0  0  0  0  0
  -27.4053  -29.7261   25.4530 H   0  0  0  0  0  0
  -27.8662  -30.4361   23.9229 H   0  0  0  0  0  0
  -27.2675  -33.3602   26.2081 H   0  0  0  0  0  0
  -28.3842  -32.6877   25.0291 H   0  0  0  0  0  0
  -28.0728  -31.8411   26.5367 H   0  0  0  0  0  0
  -28.2598  -38.0112   24.7517 H   0  0  0  0  0  0
  -28.1085  -36.2645   24.6270 H   0  0  0  0  0  0
  -27.2308  -37.1442   25.8865 H   0  0  0  0  0  0
  -20.9295  -29.8748   21.6948 H   0  0  0  0  0  0
  -26.0186  -38.2878   24.1415 H   0  0  0  0  0  0
  -30.2975  -19.4219   18.6144 H   0  0  0  0  0  0
  -29.3906  -19.7108   22.8123 H   0  0  0  0  0  0
  -29.5824  -15.6844   16.7960 H   0  0  0  0  0  0
  -28.3597  -16.1987   18.0841 H   0  0  0  0  0  0
  -31.3682  -16.8072   18.0099 H   0  0  0  0  0  0
  -29.2912  -17.8292   24.1844 H   0  0  0  0  0  0
  -30.2307  -16.4261   23.6884 H   0  0  0  0  0  0
  -28.4896  -16.4829   23.3797 H   0  0  0  0  0  0
  -29.0219  -23.6663   19.6384 H   0  0  0  0  0  0
  -30.3259  -23.8240   20.7897 H   0  0  0  0  0  0
  -28.5612  -24.4280   22.5612 H   0  0  0  0  0  0
  -27.3760  -24.5155   21.2933 H   0  0  0  0  0  0
  -29.9301  -26.2177   21.3212 H   0  0  0  0  0  0
  -28.4739  -26.7145   22.1261 H   0  0  0  0  0  0
  -30.3352  -21.5348   19.7264 H   0  0  0  0  0  0
  -29.0780  -15.1335   21.5652 H   0  0  0  0  0  0
  1 25  1  0  0  0
  1 30  2  0  0  0
  1 85  1  0  0  0
  2  3  1  0  0  0
  2 25  1  0  0  0
  2 87  1  0  0  0
  2 88  1  0  0  0
  3  4  1  0  0  0
  3 89  1  0  0  0
  3 90  1  0  0  0
  4  5  1  0  0  0
  4 91  1  0  0  0
  4 92  1  0  0  0
  5  6  1  0  0  0
  5 26  1  0  0  0
  5 93  1  0  0  0
  6 25  1  0  0  0
  6 94  1  0  0  0
  6 95  1  0  0  0
  7  8  2  0  0  0
  7 26  1  0  0  0
  7 29  1  0  0  0
  8  9  1  0  0  0
  8 22  1  0  0  0
  9 10  1  0  0  0
  9 27  2  0  0  0
 10 11  2  0  0  0
 10 15  1  0  0  0
 11 12  1  0  0  0
 11 96  1  0  0  0
 12 13  2  0  0  0
 12 97  1  0  0  0
 13 14  1  0  0  0
 13 31  1  0  0  0
 14 15  2  0  0  0
 14 98  1  0  0  0
 15 99  1  0  0  0
 16 17  2  0  0  0
 16 21  1  0  0  0
 16 31  1  0  0  0
 17 18  1  0  0  0
 17100  1  0  0  0
 18 19  2  0  0  0
 18101  1  0  0  0
 19 20  1  0  0  0
 19 24  1  0  0  0
 20 21  2  0  0  0
 20102  1  0  0  0
 21 23  1  0  0  0
 22 28  1  0  0  0
 22 32  2  0  0  0
 26 27  1  0  0  0
 28103  1  0  0  0
 28104  1  0  0  0
 29105  1  0  0  0
 29106  1  0  0  0
 33 34  1  0  0  0
 33 66  1  0  0  0
 33 70  2  0  0  0
 34 36  1  0  0  0
 34 59  1  0  0  0
 34107  1  0  0  0
 35 44  2  0  0  0
 35 45  1  0  0  0
 35 68  1  0  0  0
 36 56  1  0  0  0
 36108  1  0  0  0
 37 39  1  0  0  0
 37 47  1  0  0  0
 37 66  1  0  0  0
 37109  1  0  0  0
 38 43  2  0  0  0
 38 46  1  0  0  0
 38 47  1  0  0  0
 39 64  1  0  0  0
 39 67  2  0  0  0
 40 52  1  0  0  0
 40 53  2  0  0  0
 40 58  1  0  0  0
 41110  1  0  0  0
 41111  1  0  0  0
 41112  1  0  0  0
 41 48  1  0  0  0
 42 43  1  0  0  0
 42 66  1  0  0  0
 42113  1  0  0  0
 42114  1  0  0  0
 43 44  1  0  0  0
 44115  1  0  0  0
 45 46  2  0  0  0
 45116  1  0  0  0
 46117  1  0  0  0
 47118  1  0  0  0
 47119  1  0  0  0
 48 56  1  0  0  0
 48 65  1  0  0  0
 48120  1  0  0  0
 49 50  1  0  0  0
 49 53  1  0  0  0
 49 64  1  0  0  0
 49121  1  0  0  0
 50 51  1  0  0  0
 50122  1  0  0  0
 50123  1  0  0  0
 51 52  1  0  0  0
 51124  1  0  0  0
 51125  1  0  0  0
 52126  1  0  0  0
 52127  1  0  0  0
 53 54  1  0  0  0
 54 55  2  0  0  0
 54128  1  0  0  0
 55 57  1  0  0  0
 55129  1  0  0  0
 56 69  2  0  0  0
 57 58  2  0  0  0
 57130  1  0  0  0
 58131  1  0  0  0
 59 60  1  0  0  0
 59 61  1  0  0  0
 59 62  1  0  0  0
 60132  1  0  0  0
 60133  1  0  0  0
 60134  1  0  0  0
 61135  1  0  0  0
 61136  1  0  0  0
 61137  1  0  0  0
 62138  1  0  0  0
 62139  1  0  0  0
 62140  1  0  0  0
 63 65  1  0  0  0
 63141  1  0  0  0
 63142  1  0  0  0
 63143  1  0  0  0
 64144  1  0  0  0
 65145  1  0  0  0
 68 83  1  0  0  0
 71 73  2  0  0  0
 71 75  1  0  0  0
 71146  1  0  0  0
 72 74  1  0  0  0
 72 75  2  0  0  0
 72147  1  0  0  0
 73 76  1  0  0  0
 73 78  1  0  0  0
 74 76  2  0  0  0
 74 80  1  0  0  0
 75 84  1  0  0  0
 76 85  1  0  0  0
 77 78  2  0  0  0
 77148  1  0  0  0
 77149  1  0  0  0
 78150  1  0  0  0
 79 81  1  0  0  0
 79 84  1  0  0  0
 79 86  2  0  0  0
 80151  1  0  0  0
 80152  1  0  0  0
 80153  1  0  0  0
 81 82  1  0  0  0
 81154  1  0  0  0
 81155  1  0  0  0
 82 83  1  0  0  0
 82156  1  0  0  0
 82157  1  0  0  0
 83158  1  0  0  0
 83159  1  0  0  0
 84160  1  0  0  0
 85161  1  0  0  0
M  ISO  4   1 100  68 101  83 101  85 100
M  END
> <chiral flag>
0

> <version>
0

> <s_m_source_file>
/data/baiqing/PycharmProjects/Reinvent-master-3.2/result/LINK_invent/BTK/process_docking_weight1_custom_product_contain_oxygen_bond_distance_aromatic_linkinvent_7_9_3/rearranged_h_0113.sdf

> <i_m_source_file_index>
59

> <r_mmod_Potential_Energy-OPLS-2005>
-85.9451293945312

> <r_mmod_Stretch_Energy-OPLS-2005>
40.7589492797852

> <r_mmod_Bend_Energy-OPLS-2005>
107.043060302734

> <r_mmod_Torsional_Energy-OPLS-2005>
293.925170898438

> <r_mmod_Improper_Torsional_Energy-OPLS-2005>
3.50070929527283

> <r_mmod_Van_der_Waal_Energy-OPLS-2005>
146.539215087891

> <r_mmod_Electrostatic_Energy-OPLS-2005>
-465.782440185547

> <r_mmod_Solvation_Energy-OPLS-2005>
-225.662750244141

> <b_mmod_Minimization_Converged-OPLS-2005>
0

> <r_mmod_RMS_Derivative-OPLS-2005>
0.33235827088356

$$$$
59
                    3D
 Structure written by MMmdl.
164173  0  0  1  0            999 V2000
  -30.5859  -14.8548   20.4450 C   0  0  0  0  0  0
  -30.4344  -12.5335   19.4764 C   0  0  0  0  0  0
  -29.5145  -12.5080   18.2382 C   0  0  0  0  0  0
  -28.0456  -12.3086   18.6602 C   0  0  0  0  0  0
  -27.6287  -13.2420   19.8289 C   0  0  2  0  0  0
  -28.6730  -13.2461   20.9631 C   0  0  0  0  0  0
  -25.2463  -13.8224   20.5689 C   0  0  0  0  0  0
  -24.1772  -13.0433   20.9228 C   0  0  0  0  0  0
  -24.6394  -11.6921   20.8747 C   0  0  0  0  0  0
  -23.9090  -10.4279   21.0410 C   0  0  0  0  0  0
  -24.3638   -9.4188   21.9187 C   0  0  0  0  0  0
  -23.6304   -8.2227   22.0748 C   0  0  0  0  0  0
  -22.4282   -8.0275   21.3543 C   0  0  0  0  0  0
  -21.9933   -9.0250   20.4637 C   0  0  0  0  0  0
  -22.7270  -10.2122   20.3049 C   0  0  0  0  0  0
  -21.6845   -6.0736   22.5287 C   0  0  0  0  0  0
  -21.4008   -6.5635   23.8226 C   0  0  0  0  0  0
  -21.3669   -5.6785   24.9187 C   0  0  0  0  0  0
  -21.6049   -4.3051   24.7228 C   0  0  0  0  0  0
  -21.8824   -3.8147   23.4349 C   0  0  0  0  0  0
  -21.9187   -4.6964   22.3408 C   0  0  0  0  0  0
  -22.7790  -13.5204   21.1880 C   0  0  0  0  0  0
  -22.1650   -4.2153   21.0985 F   0  0  0  0  0  0
  -21.5639   -3.4528   25.7737 F   0  0  0  0  0  0
  -29.9520  -13.6277   20.3572 N   0  0  0  0  0  0
  -26.2875  -12.9445   20.3202 N   0  0  0  0  0  0
  -25.9320  -11.6582   20.5725 N   0  0  0  0  0  0
  -22.0424  -12.8195   22.0438 N   0  0  0  0  0  0
  -25.4119  -15.1945   20.4088 N   0  0  0  0  0  0
  -31.7930  -14.8977   20.1844 O   0  0  0  0  0  0
  -21.6635   -6.8878   21.4246 O   0  0  0  0  0  0
  -22.3466  -14.5493   20.6701 O   0  0  0  0  0  0
  -24.6375  -31.8464   23.1912 C   0  0  0  0  0  0
  -25.9178  -32.4692   23.8279 C   0  0  1  0  0  0
  -27.2169  -27.1853   20.1315 C   0  0  0  0  0  0
  -25.5956  -33.8500   24.2204 N   0  0  0  0  0  0
  -23.4371  -30.4658   21.5355 C   0  0  2  0  0  0
  -24.8842  -28.8986   20.1040 C   0  0  0  0  0  0
  -22.7540  -29.4543   22.4890 C   0  0  0  0  0  0
  -18.0300  -28.1376   22.8482 C   0  0  0  0  0  0
  -24.1484  -36.7248   23.2647 C   0  0  0  0  0  0
  -25.9885  -30.7341   21.3812 C   0  0  0  0  0  0
  -26.0571  -29.3513   20.7199 C   0  0  0  0  0  0
  -27.2206  -28.5065   20.7207 C   0  0  0  0  0  0
  -26.0173  -26.8122   19.4904 C   0  0  0  0  0  0
  -24.8744  -27.6419   19.4777 C   0  0  0  0  0  0
  -23.6575  -29.7935   20.1533 C   0  0  0  0  0  0
  -25.4120  -36.3032   24.0320 C   0  0  1  0  0  0
  -20.5908  -28.3684   23.1261 C   0  0  2  0  0  0
  -20.6773  -26.9387   22.5415 C   0  0  0  0  0  0
  -19.5751  -26.6367   21.5215 C   0  0  0  0  0  0
  -18.1931  -26.7915   22.1621 C   0  0  0  0  0  0
  -19.1556  -28.8853   23.2855 C   0  0  0  0  0  0
  -18.9471  -30.1461   23.8865 C   0  0  0  0  0  0
  -17.6469  -30.6574   24.0546 C   0  0  0  0  0  0
  -25.9076  -34.9407   23.5070 C   0  0  0  0  0  0
  -16.5358  -29.9063   23.6337 C   0  0  0  0  0  0
  -16.7286  -28.6481   23.0353 C   0  0  0  0  0  0
  -26.4518  -31.6569   25.0715 C   0  0  0  0  0  0
  -25.3728  -31.3741   26.1428 C   0  0  0  0  0  0
  -27.0402  -30.2976   24.6294 C   0  0  0  0  0  0
  -27.6045  -32.4347   25.7489 C   0  0  0  0  0  0
  -27.5573  -37.1776   24.8470 C   0  0  0  0  0  0
  -21.4246  -29.3020   22.3646 N   0  0  0  0  0  0
  -26.4283  -37.3748   23.9421 N   0  0  0  0  0  0
  -24.7069  -31.0363   22.0914 N   0  0  0  0  0  0
  -23.4215  -28.8093   23.3010 O   0  0  0  0  0  0
  -28.3048  -26.2648   20.2357 O   0  0  0  0  0  0
  -26.5657  -34.8898   22.4641 O   0  0  0  0  0  0
  -23.5513  -32.1341   23.7167 O   0  0  0  0  0  0
  -27.2708  -23.3322   21.2972 C   0  0  0  0  0  0
  -28.9051  -22.1773   19.9230 C   0  0  0  0  0  0
  -31.0859  -16.9651   22.4300 C   0  0  0  0  0  0
  -30.7317  -19.6800   21.9915 C   0  0  0  0  0  0
  -28.2441  -23.4469   20.2911 C   0  0  0  0  0  0
  -27.5601  -20.8677   21.4702 C   0  0  0  0  0  0
  -26.9301  -22.0840   21.8671 C   0  0  0  0  0  0
  -31.7061  -17.8853   23.2799 C   0  0  0  0  0  0
  -30.2926  -17.3226   21.2996 C   0  0  0  0  0  0
  -31.5515  -19.2497   23.0438 C   0  0  0  0  0  0
  -28.6121  -20.8580   20.5145 C   0  0  0  0  0  0
  -30.0267  -18.8023   21.1164 C   0  0  0  0  0  0
  -27.0926  -19.5426   22.0630 C   0  0  0  0  0  0
  -28.4200  -24.8899   19.5655 C   0  0  0  0  0  0
  -25.9288  -22.0765   22.8402 N   0  0  0  0  0  0
  -32.4950  -17.4566   24.3489 N   0  0  0  0  0  0
  -32.1992  -20.1553   23.8849 N   0  0  0  0  0  0
  -29.8572  -16.0607   20.5946 N   0  0  0  0  0  0
  -29.2244  -19.5707   20.1929 O   0  0  0  0  0  0
  -31.4702  -12.6771   19.1658 H   0  0  0  0  0  0
  -30.4084  -11.5774   20.0016 H   0  0  0  0  0  0
  -29.8206  -11.7094   17.5609 H   0  0  0  0  0  0
  -29.6225  -13.4410   17.6818 H   0  0  0  0  0  0
  -27.9384  -11.2681   18.9700 H   0  0  0  0  0  0
  -27.3830  -12.4404   17.8041 H   0  0  0  0  0  0
  -27.5994  -14.2480   19.4089 H   0  0  0  0  0  0
  -28.7408  -12.2655   21.4360 H   0  0  0  0  0  0
  -28.3923  -13.9543   21.7441 H   0  0  0  0  0  0
  -25.2783   -9.5662   22.4763 H   0  0  0  0  0  0
  -24.0010   -7.4627   22.7472 H   0  0  0  0  0  0
  -21.0867   -8.8787   19.8943 H   0  0  0  0  0  0
  -22.3751  -10.9664   19.6155 H   0  0  0  0  0  0
  -21.1988   -7.6143   23.9737 H   0  0  0  0  0  0
  -21.1491   -6.0507   25.9095 H   0  0  0  0  0  0
  -22.0590   -2.7604   23.2851 H   0  0  0  0  0  0
  -22.4013  -11.9888   22.4912 H   0  0  0  0  0  0
  -21.1019  -13.1207   22.2557 H   0  0  0  0  0  0
  -24.6388  -15.8432   20.5112 H   0  0  0  0  0  0
  -26.2525  -15.6386   20.0647 H   0  0  0  0  0  0
  -26.7223  -32.5286   23.0992 H   0  0  0  0  0  0
  -25.0097  -33.9610   25.0345 H   0  0  0  0  0  0
  -22.7387  -31.2917   21.3848 H   0  0  0  0  0  0
  -23.3764  -35.9561   23.3300 H   0  0  0  0  0  0
  -24.3579  -36.8892   22.2068 H   0  0  0  0  0  0
  -23.7217  -37.6434   23.6683 H   0  0  0  0  0  0
  -26.1483  -31.4936   20.6151 H   0  0  0  0  0  0
  -26.8587  -30.7748   22.0253 H   0  0  0  0  0  0
  -28.1166  -28.8493   21.2204 H   0  0  0  0  0  0
  -25.9241  -25.8397   19.0324 H   0  0  0  0  0  0
  -23.9738  -27.2883   18.9950 H   0  0  0  0  0  0
  -23.7801  -30.5690   19.3966 H   0  0  0  0  0  0
  -22.7746  -29.2287   19.8479 H   0  0  0  0  0  0
  -25.1301  -36.1861   25.0809 H   0  0  0  0  0  0
  -20.9991  -28.3241   24.1385 H   0  0  0  0  0  0
  -20.5657  -26.2282   23.3621 H   0  0  0  0  0  0
  -21.6630  -26.7383   22.1204 H   0  0  0  0  0  0
  -19.6897  -25.6282   21.1237 H   0  0  0  0  0  0
  -19.6676  -27.3178   20.6748 H   0  0  0  0  0  0
  -17.4195  -26.6683   21.4020 H   0  0  0  0  0  0
  -18.0301  -26.0059   22.9016 H   0  0  0  0  0  0
  -19.7949  -30.7291   24.2195 H   0  0  0  0  0  0
  -17.5018  -31.6249   24.5156 H   0  0  0  0  0  0
  -15.5353  -30.2937   23.7699 H   0  0  0  0  0  0
  -15.8688  -28.0793   22.7077 H   0  0  0  0  0  0
  -24.5893  -30.7094   25.7771 H   0  0  0  0  0  0
  -24.8925  -32.2913   26.4845 H   0  0  0  0  0  0
  -25.8035  -30.8928   27.0220 H   0  0  0  0  0  0
  -26.3022  -29.6688   24.1310 H   0  0  0  0  0  0
  -27.4049  -29.7276   25.4856 H   0  0  0  0  0  0
  -27.8902  -30.4243   23.9588 H   0  0  0  0  0  0
  -27.2633  -33.3663   26.2017 H   0  0  0  0  0  0
  -28.3873  -32.6907   25.0335 H   0  0  0  0  0  0
  -28.0697  -31.8521   26.5456 H   0  0  0  0  0  0
  -28.2582  -38.0084   24.7536 H   0  0  0  0  0  0
  -28.1076  -36.2620   24.6263 H   0  0  0  0  0  0
  -27.2297  -37.1382   25.8873 H   0  0  0  0  0  0
  -20.9452  -29.8735   21.6835 H   0  0  0  0  0  0
  -26.0153  -38.2810   24.1448 H   0  0  0  0  0  0
  -26.7509  -24.2280   21.6080 H   0  0  0  0  0  0
  -29.6508  -22.2142   19.1409 H   0  0  0  0  0  0
  -31.2471  -15.9282   22.6808 H   0  0  0  0  0  0
  -30.6453  -20.7477   21.8657 H   0  0  0  0  0  0
  -26.0272  -19.5468   22.2835 H   0  0  0  0  0  0
  -27.6373  -19.3335   22.9836 H   0  0  0  0  0  0
  -27.2493  -18.7164   21.3694 H   0  0  0  0  0  0
  -27.8104  -24.8771   18.6636 H   0  0  0  0  0  0
  -29.4400  -24.8781   19.1825 H   0  0  0  0  0  0
  -25.3370  -22.8911   22.9703 H   0  0  0  0  0  0
  -25.4851  -21.2039   23.1036 H   0  0  0  0  0  0
  -32.8300  -16.5006   24.3071 H   0  0  0  0  0  0
  -33.2389  -18.0976   24.6019 H   0  0  0  0  0  0
  -31.7877  -21.0785   23.9704 H   0  0  0  0  0  0
  -32.4434  -19.7662   24.7902 H   0  0  0  0  0  0
  -28.8668  -15.9883   20.4232 H   0  0  0  0  0  0
  1 25  1  0  0  0
  1 30  2  0  0  0
  1 88  1  0  0  0
  2  3  1  0  0  0
  2 25  1  0  0  0
  2 90  1  0  0  0
  2 91  1  0  0  0
  3  4  1  0  0  0
  3 92  1  0  0  0
  3 93  1  0  0  0
  4  5  1  0  0  0
  4 94  1  0  0  0
  4 95  1  0  0  0
  5  6  1  0  0  0
  5 26  1  0  0  0
  5 96  1  0  0  0
  6 25  1  0  0  0
  6 97  1  0  0  0
  6 98  1  0  0  0
  7  8  2  0  0  0
  7 26  1  0  0  0
  7 29  1  0  0  0
  8  9  1  0  0  0
  8 22  1  0  0  0
  9 10  1  0  0  0
  9 27  2  0  0  0
 10 11  2  0  0  0
 10 15  1  0  0  0
 11 12  1  0  0  0
 11 99  1  0  0  0
 12 13  2  0  0  0
 12100  1  0  0  0
 13 14  1  0  0  0
 13 31  1  0  0  0
 14 15  2  0  0  0
 14101  1  0  0  0
 15102  1  0  0  0
 16 17  2  0  0  0
 16 21  1  0  0  0
 16 31  1  0  0  0
 17 18  1  0  0  0
 17103  1  0  0  0
 18 19  2  0  0  0
 18104  1  0  0  0
 19 20  1  0  0  0
 19 24  1  0  0  0
 20 21  2  0  0  0
 20105  1  0  0  0
 21 23  1  0  0  0
 22 28  1  0  0  0
 22 32  2  0  0  0
 26 27  1  0  0  0
 28106  1  0  0  0
 28107  1  0  0  0
 29108  1  0  0  0
 29109  1  0  0  0
 33 34  1  0  0  0
 33 66  1  0  0  0
 33 70  2  0  0  0
 34 36  1  0  0  0
 34 59  1  0  0  0
 34110  1  0  0  0
 35 44  2  0  0  0
 35 45  1  0  0  0
 35 68  1  0  0  0
 36 56  1  0  0  0
 36111  1  0  0  0
 37 39  1  0  0  0
 37 47  1  0  0  0
 37 66  1  0  0  0
 37112  1  0  0  0
 38 43  2  0  0  0
 38 46  1  0  0  0
 38 47  1  0  0  0
 39 64  1  0  0  0
 39 67  2  0  0  0
 40 52  1  0  0  0
 40 53  2  0  0  0
 40 58  1  0  0  0
 41113  1  0  0  0
 41114  1  0  0  0
 41115  1  0  0  0
 41 48  1  0  0  0
 42 43  1  0  0  0
 42 66  1  0  0  0
 42116  1  0  0  0
 42117  1  0  0  0
 43 44  1  0  0  0
 44118  1  0  0  0
 45 46  2  0  0  0
 45119  1  0  0  0
 46120  1  0  0  0
 47121  1  0  0  0
 47122  1  0  0  0
 48 56  1  0  0  0
 48 65  1  0  0  0
 48123  1  0  0  0
 49 50  1  0  0  0
 49 53  1  0  0  0
 49 64  1  0  0  0
 49124  1  0  0  0
 50 51  1  0  0  0
 50125  1  0  0  0
 50126  1  0  0  0
 51 52  1  0  0  0
 51127  1  0  0  0
 51128  1  0  0  0
 52129  1  0  0  0
 52130  1  0  0  0
 53 54  1  0  0  0
 54 55  2  0  0  0
 54131  1  0  0  0
 55 57  1  0  0  0
 55132  1  0  0  0
 56 69  2  0  0  0
 57 58  2  0  0  0
 57133  1  0  0  0
 58134  1  0  0  0
 59 60  1  0  0  0
 59 61  1  0  0  0
 59 62  1  0  0  0
 60135  1  0  0  0
 60136  1  0  0  0
 60137  1  0  0  0
 61138  1  0  0  0
 61139  1  0  0  0
 61140  1  0  0  0
 62141  1  0  0  0
 62142  1  0  0  0
 62143  1  0  0  0
 63 65  1  0  0  0
 63144  1  0  0  0
 63145  1  0  0  0
 63146  1  0  0  0
 64147  1  0  0  0
 65148  1  0  0  0
 68 84  1  0  0  0
 71 75  2  0  0  0
 71 77  1  0  0  0
 71149  1  0  0  0
 72 75  1  0  0  0
 72 81  2  0  0  0
 72150  1  0  0  0
 73 78  2  0  0  0
 73 79  1  0  0  0
 73151  1  0  0  0
 74 80  2  0  0  0
 74 82  1  0  0  0
 74152  1  0  0  0
 75 84  1  0  0  0
 76 77  2  0  0  0
 76 81  1  0  0  0
 76 83  1  0  0  0
 77 85  1  0  0  0
 78 80  1  0  0  0
 78 86  1  0  0  0
 79 82  2  0  0  0
 79 88  1  0  0  0
 80 87  1  0  0  0
 81 89  1  0  0  0
 82 89  1  0  0  0
 83153  1  0  0  0
 83154  1  0  0  0
 83155  1  0  0  0
 84156  1  0  0  0
 84157  1  0  0  0
 85158  1  0  0  0
 85159  1  0  0  0
 86160  1  0  0  0
 86161  1  0  0  0
 87162  1  0  0  0
 87163  1  0  0  0
 88164  1  0  0  0
M  ISO  4   1 100  68 101  84 101  88 100
M  END
> <chiral flag>
0

> <version>
0

> <s_m_source_file>
/data/baiqing/PycharmProjects/Reinvent-master-3.2/result/LINK_invent/BTK/process_docking_weight1_custom_product_contain_oxygen_bond_distance_aromatic_linkinvent_7_9_3/rearranged_h_0113.sdf

> <i_m_source_file_index>
60

> <r_mmod_Potential_Energy-OPLS-2005>
267.671417236328

> <r_mmod_Stretch_Energy-OPLS-2005>
204.572601318359

> <r_mmod_Bend_Energy-OPLS-2005>
258.719207763672

> <r_mmod_Torsional_Energy-OPLS-2005>
260.76611328125

> <r_mmod_Improper_Torsional_Energy-OPLS-2005>
17.5352745056152

> <r_mmod_Van_der_Waal_Energy-OPLS-2005>
173.488464355469

> <r_mmod_Electrostatic_Energy-OPLS-2005>
-552.3017578125

> <r_mmod_Solvation_Energy-OPLS-2005>
-236.677597045898

> <b_mmod_Minimization_Converged-OPLS-2005>
0

> <r_mmod_RMS_Derivative-OPLS-2005>
2.47991156578064

$$$$
60
                    3D
 Structure written by MMmdl.
156164  0  0  1  0            999 V2000
  -30.6067  -14.7132   20.4925 C   0  0  0  0  0  0
  -30.4492  -12.4421   19.4744 C   0  0  0  0  0  0
  -29.5207  -12.5111   18.2428 C   0  0  0  0  0  0
  -28.0485  -12.3324   18.6529 C   0  0  0  0  0  0
  -27.6537  -13.2273   19.8589 C   0  0  2  0  0  0
  -28.6930  -13.1190   20.9998 C   0  0  0  0  0  0
  -25.2552  -13.8198   20.5687 C   0  0  0  0  0  0
  -24.1815  -13.0456   20.9171 C   0  0  0  0  0  0
  -24.6384  -11.6919   20.8722 C   0  0  0  0  0  0
  -23.9049  -10.4302   21.0406 C   0  0  0  0  0  0
  -24.3614   -9.4212   21.9196 C   0  0  0  0  0  0
  -23.6269   -8.2256   22.0771 C   0  0  0  0  0  0
  -22.4250   -8.0297   21.3568 C   0  0  0  0  0  0
  -21.9883   -9.0260   20.4673 C   0  0  0  0  0  0
  -22.7215  -10.2135   20.3065 C   0  0  0  0  0  0
  -21.6833   -6.0719   22.5267 C   0  0  0  0  0  0
  -21.4011   -6.5628   23.8208 C   0  0  0  0  0  0
  -21.3659   -5.6789   24.9179 C   0  0  0  0  0  0
  -21.6042   -4.3048   24.7214 C   0  0  0  0  0  0
  -21.8824   -3.8132   23.4344 C   0  0  0  0  0  0
  -21.9179   -4.6950   22.3399 C   0  0  0  0  0  0
  -22.7849  -13.5250   21.1823 C   0  0  0  0  0  0
  -22.1656   -4.2144   21.0976 F   0  0  0  0  0  0
  -21.5630   -3.4529   25.7720 F   0  0  0  0  0  0
  -30.0062  -13.4748   20.4400 N   0  0  0  0  0  0
  -26.2984  -12.9394   20.3278 N   0  0  0  0  0  0
  -25.9309  -11.6540   20.5713 N   0  0  0  0  0  0
  -22.0453  -12.8256   22.0379 N   0  0  0  0  0  0
  -25.4263  -15.1922   20.4135 N   0  0  0  0  0  0
  -31.7617  -14.8610   20.0822 O   0  0  0  0  0  0
  -21.6655   -6.8860   21.4230 O   0  0  0  0  0  0
  -22.3515  -14.5538   20.6644 O   0  0  0  0  0  0
  -24.6339  -31.8534   23.1938 C   0  0  0  0  0  0
  -25.9177  -32.4737   23.8258 C   0  0  1  0  0  0
  -27.2351  -27.2709   20.1077 C   0  0  0  0  0  0
  -25.5938  -33.8526   24.2190 N   0  0  0  0  0  0
  -23.4305  -30.4763   21.5370 C   0  0  2  0  0  0
  -24.8757  -28.9197   20.1061 C   0  0  0  0  0  0
  -22.7496  -29.4640   22.4878 C   0  0  0  0  0  0
  -18.0300  -28.1464   22.8515 C   0  0  0  0  0  0
  -24.1464  -36.7248   23.2653 C   0  0  0  0  0  0
  -25.9747  -30.7708   21.3704 C   0  0  0  0  0  0
  -26.0451  -29.3917   20.7152 C   0  0  0  0  0  0
  -27.2214  -28.5777   20.7074 C   0  0  0  0  0  0
  -26.0350  -26.8606   19.4820 C   0  0  0  0  0  0
  -24.8770  -27.6645   19.4799 C   0  0  0  0  0  0
  -23.6470  -29.8050   20.1539 C   0  0  0  0  0  0
  -25.4111  -36.3052   24.0326 C   0  0  1  0  0  0
  -20.5909  -28.3781   23.1252 C   0  0  2  0  0  0
  -20.6780  -26.9484   22.5402 C   0  0  0  0  0  0
  -19.5742  -26.6460   21.5224 C   0  0  0  0  0  0
  -18.1936  -26.8003   22.1656 C   0  0  0  0  0  0
  -19.1562  -28.8928   23.2890 C   0  0  0  0  0  0
  -18.9486  -30.1519   23.8934 C   0  0  0  0  0  0
  -17.6483  -30.6653   24.0605 C   0  0  0  0  0  0
  -25.9074  -34.9434   23.5070 C   0  0  0  0  0  0
  -16.5369  -29.9164   23.6348 C   0  0  0  0  0  0
  -16.7279  -28.6573   23.0376 C   0  0  0  0  0  0
  -26.4533  -31.6597   25.0672 C   0  0  0  0  0  0
  -25.3722  -31.3787   26.1367 C   0  0  0  0  0  0
  -27.0396  -30.3009   24.6198 C   0  0  0  0  0  0
  -27.6106  -32.4340   25.7448 C   0  0  0  0  0  0
  -27.5572  -37.1775   24.8486 C   0  0  0  0  0  0
  -21.4202  -29.3084   22.3610 N   0  0  0  0  0  0
  -26.4281  -37.3765   23.9441 N   0  0  0  0  0  0
  -24.6990  -31.0511   22.0912 N   0  0  0  0  0  0
  -23.4176  -28.8210   23.3021 O   0  0  0  0  0  0
  -28.3672  -26.4256   20.1866 O   0  0  0  0  0  0
  -26.5650  -34.8926   22.4641 O   0  0  0  0  0  0
  -23.5486  -32.1313   23.7238 O   0  0  0  0  0  0
  -29.5669  -19.1635   19.0866 C   0  0  0  0  0  0
  -30.1974  -18.2167   21.6118 C   0  0  0  0  0  0
  -29.8962  -20.1536   20.0547 C   0  0  0  0  0  0
  -30.2199  -19.6299   21.3418 C   0  0  0  0  0  0
  -29.9299  -17.2294   20.6141 C   0  0  0  0  0  0
  -29.5760  -17.7437   19.3353 C   0  0  0  0  0  0
  -29.8799  -22.7372   19.6497 C   0  0  0  0  0  0
  -28.8570  -17.2609   17.0871 C   0  0  0  0  0  0
  -28.7547  -23.6726   20.2724 C   0  0  0  0  0  0
  -28.5027  -25.0923   19.5089 C   0  0  0  0  0  0
  -30.2623  -21.4757   19.5892 N   0  0  0  0  0  0
  -30.6637  -20.5038   22.3292 N   0  0  0  0  0  0
  -29.8485  -15.7821   20.9238 N   0  0  0  0  0  0
  -29.2582  -16.8065   18.3747 O   0  0  0  0  0  0
  -31.4879  -12.5792   19.1722 H   0  0  0  0  0  0
  -30.4104  -11.4560   19.9322 H   0  0  0  0  0  0
  -29.8017  -11.7534   17.5097 H   0  0  0  0  0  0
  -29.6494  -13.4750   17.7464 H   0  0  0  0  0  0
  -27.8951  -11.2813   18.9055 H   0  0  0  0  0  0
  -27.3949  -12.5371   17.8050 H   0  0  0  0  0  0
  -27.6607  -14.2549   19.4928 H   0  0  0  0  0  0
  -28.7158  -12.1071   21.4053 H   0  0  0  0  0  0
  -28.4188  -13.7646   21.8340 H   0  0  0  0  0  0
  -25.2763   -9.5678   22.4772 H   0  0  0  0  0  0
  -23.9960   -7.4655   22.7504 H   0  0  0  0  0  0
  -21.0804   -8.8768   19.8994 H   0  0  0  0  0  0
  -22.3664  -10.9668   19.6180 H   0  0  0  0  0  0
  -21.2015   -7.6147   23.9692 H   0  0  0  0  0  0
  -21.1487   -6.0540   25.9078 H   0  0  0  0  0  0
  -22.0598   -2.7590   23.2847 H   0  0  0  0  0  0
  -22.4019  -11.9939   22.4856 H   0  0  0  0  0  0
  -21.1107  -13.1366   22.2597 H   0  0  0  0  0  0
  -24.6643  -15.8481   20.5438 H   0  0  0  0  0  0
  -26.2684  -15.6311   20.0582 H   0  0  0  0  0  0
  -26.7266  -32.5400   23.1018 H   0  0  0  0  0  0
  -25.0030  -33.9600   25.0287 H   0  0  0  0  0  0
  -22.7317  -31.3019   21.3838 H   0  0  0  0  0  0
  -23.3725  -35.9585   23.3334 H   0  0  0  0  0  0
  -24.3502  -36.8822   22.2056 H   0  0  0  0  0  0
  -23.7179  -37.6454   23.6623 H   0  0  0  0  0  0
  -26.1110  -31.5272   20.5967 H   0  0  0  0  0  0
  -26.8564  -30.8171   21.9980 H   0  0  0  0  0  0
  -28.1236  -28.9304   21.1888 H   0  0  0  0  0  0
  -25.9422  -25.9004   19.0018 H   0  0  0  0  0  0
  -23.9842  -27.2982   18.9930 H   0  0  0  0  0  0
  -23.7703  -30.5724   19.3877 H   0  0  0  0  0  0
  -22.7660  -29.2341   19.8586 H   0  0  0  0  0  0
  -25.1282  -36.1912   25.0812 H   0  0  0  0  0  0
  -21.0008  -28.3386   24.1385 H   0  0  0  0  0  0
  -20.5695  -26.2380   23.3613 H   0  0  0  0  0  0
  -21.6645  -26.7524   22.1197 H   0  0  0  0  0  0
  -19.6861  -25.6374   21.1262 H   0  0  0  0  0  0
  -19.6680  -27.3275   20.6756 H   0  0  0  0  0  0
  -17.4176  -26.6771   21.4088 H   0  0  0  0  0  0
  -18.0354  -26.0171   22.9081 H   0  0  0  0  0  0
  -19.7959  -30.7345   24.2324 H   0  0  0  0  0  0
  -17.5041  -31.6340   24.5225 H   0  0  0  0  0  0
  -15.5368  -30.3087   23.7672 H   0  0  0  0  0  0
  -15.8679  -28.0903   22.7088 H   0  0  0  0  0  0
  -24.5904  -30.7143   25.7677 H   0  0  0  0  0  0
  -24.8931  -32.2998   26.4724 H   0  0  0  0  0  0
  -25.8011  -30.8997   27.0175 H   0  0  0  0  0  0
  -26.3002  -29.6728   24.1231 H   0  0  0  0  0  0
  -27.4064  -29.7336   25.4767 H   0  0  0  0  0  0
  -27.8873  -30.4268   23.9446 H   0  0  0  0  0  0
  -27.2734  -33.3651   26.2020 H   0  0  0  0  0  0
  -28.3933  -32.6875   25.0280 H   0  0  0  0  0  0
  -28.0751  -31.8443   26.5361 H   0  0  0  0  0  0
  -28.2649  -38.0022   24.7528 H   0  0  0  0  0  0
  -28.0993  -36.2557   24.6336 H   0  0  0  0  0  0
  -27.2267  -37.1487   25.8879 H   0  0  0  0  0  0
  -20.9393  -29.8742   21.6766 H   0  0  0  0  0  0
  -26.0142  -38.2832   24.1461 H   0  0  0  0  0  0
  -29.3613  -19.5272   18.0941 H   0  0  0  0  0  0
  -30.4431  -17.8770   22.6064 H   0  0  0  0  0  0
  -30.5565  -23.3908   19.0933 H   0  0  0  0  0  0
  -28.6742  -16.4061   16.4380 H   0  0  0  0  0  0
  -29.6277  -17.8641   16.6048 H   0  0  0  0  0  0
  -27.9285  -17.8284   17.1415 H   0  0  0  0  0  0
  -27.8144  -23.1158   20.3087 H   0  0  0  0  0  0
  -29.0392  -23.8658   21.3060 H   0  0  0  0  0  0
  -27.7259  -24.9270   18.7671 H   0  0  0  0  0  0
  -29.3777  -25.2663   18.8852 H   0  0  0  0  0  0
  -30.6712  -20.2313   23.3071 H   0  0  0  0  0  0
  -30.6453  -21.5057   22.1571 H   0  0  0  0  0  0
  -28.9848  -15.5020   21.3643 H   0  0  0  0  0  0
  1 25  1  0  0  0
  1 30  2  0  0  0
  1 83  1  0  0  0
  2  3  1  0  0  0
  2 25  1  0  0  0
  2 85  1  0  0  0
  2 86  1  0  0  0
  3  4  1  0  0  0
  3 87  1  0  0  0
  3 88  1  0  0  0
  4  5  1  0  0  0
  4 89  1  0  0  0
  4 90  1  0  0  0
  5  6  1  0  0  0
  5 26  1  0  0  0
  5 91  1  0  0  0
  6 25  1  0  0  0
  6 92  1  0  0  0
  6 93  1  0  0  0
  7  8  2  0  0  0
  7 26  1  0  0  0
  7 29  1  0  0  0
  8  9  1  0  0  0
  8 22  1  0  0  0
  9 10  1  0  0  0
  9 27  2  0  0  0
 10 11  2  0  0  0
 10 15  1  0  0  0
 11 12  1  0  0  0
 11 94  1  0  0  0
 12 13  2  0  0  0
 12 95  1  0  0  0
 13 14  1  0  0  0
 13 31  1  0  0  0
 14 15  2  0  0  0
 14 96  1  0  0  0
 15 97  1  0  0  0
 16 17  2  0  0  0
 16 21  1  0  0  0
 16 31  1  0  0  0
 17 18  1  0  0  0
 17 98  1  0  0  0
 18 19  2  0  0  0
 18 99  1  0  0  0
 19 20  1  0  0  0
 19 24  1  0  0  0
 20 21  2  0  0  0
 20100  1  0  0  0
 21 23  1  0  0  0
 22 28  1  0  0  0
 22 32  2  0  0  0
 26 27  1  0  0  0
 28101  1  0  0  0
 28102  1  0  0  0
 29103  1  0  0  0
 29104  1  0  0  0
 33 34  1  0  0  0
 33 66  1  0  0  0
 33 70  2  0  0  0
 34 36  1  0  0  0
 34 59  1  0  0  0
 34105  1  0  0  0
 35 44  2  0  0  0
 35 45  1  0  0  0
 35 68  1  0  0  0
 36 56  1  0  0  0
 36106  1  0  0  0
 37 39  1  0  0  0
 37 47  1  0  0  0
 37 66  1  0  0  0
 37107  1  0  0  0
 38 43  2  0  0  0
 38 46  1  0  0  0
 38 47  1  0  0  0
 39 64  1  0  0  0
 39 67  2  0  0  0
 40 52  1  0  0  0
 40 53  2  0  0  0
 40 58  1  0  0  0
 41108  1  0  0  0
 41109  1  0  0  0
 41110  1  0  0  0
 41 48  1  0  0  0
 42 43  1  0  0  0
 42 66  1  0  0  0
 42111  1  0  0  0
 42112  1  0  0  0
 43 44  1  0  0  0
 44113  1  0  0  0
 45 46  2  0  0  0
 45114  1  0  0  0
 46115  1  0  0  0
 47116  1  0  0  0
 47117  1  0  0  0
 48 56  1  0  0  0
 48 65  1  0  0  0
 48118  1  0  0  0
 49 50  1  0  0  0
 49 53  1  0  0  0
 49 64  1  0  0  0
 49119  1  0  0  0
 50 51  1  0  0  0
 50120  1  0  0  0
 50121  1  0  0  0
 51 52  1  0  0  0
 51122  1  0  0  0
 51123  1  0  0  0
 52124  1  0  0  0
 52125  1  0  0  0
 53 54  1  0  0  0
 54 55  2  0  0  0
 54126  1  0  0  0
 55 57  1  0  0  0
 55127  1  0  0  0
 56 69  2  0  0  0
 57 58  2  0  0  0
 57128  1  0  0  0
 58129  1  0  0  0
 59 60  1  0  0  0
 59 61  1  0  0  0
 59 62  1  0  0  0
 60130  1  0  0  0
 60131  1  0  0  0
 60132  1  0  0  0
 61133  1  0  0  0
 61134  1  0  0  0
 61135  1  0  0  0
 62136  1  0  0  0
 62137  1  0  0  0
 62138  1  0  0  0
 63 65  1  0  0  0
 63139  1  0  0  0
 63140  1  0  0  0
 63141  1  0  0  0
 64142  1  0  0  0
 65143  1  0  0  0
 68 80  1  0  0  0
 71 73  2  0  0  0
 71 76  1  0  0  0
 71144  1  0  0  0
 72 74  2  0  0  0
 72 75  1  0  0  0
 72145  1  0  0  0
 73 74  1  0  0  0
 73 81  1  0  0  0
 74 82  1  0  0  0
 75 76  2  0  0  0
 75 83  1  0  0  0
 76 84  1  0  0  0
 77 79  1  0  0  0
 77 81  2  0  0  0
 77146  1  0  0  0
 78 84  1  0  0  0
 78147  1  0  0  0
 78148  1  0  0  0
 78149  1  0  0  0
 79 80  1  0  0  0
 79150  1  0  0  0
 79151  1  0  0  0
 80152  1  0  0  0
 80153  1  0  0  0
 82154  1  0  0  0
 82155  1  0  0  0
 83156  1  0  0  0
M  ISO  4   1 100  68 101  80 101  83 100
M  END
> <chiral flag>
0

> <version>
0

> <s_m_source_file>
/data/baiqing/PycharmProjects/Reinvent-master-3.2/result/LINK_invent/BTK/process_docking_weight1_custom_product_contain_oxygen_bond_distance_aromatic_linkinvent_7_9_3/rearranged_h_0113.sdf

> <i_m_source_file_index>
61

> <r_mmod_Potential_Energy-OPLS-2005>
183.044036865234

> <r_mmod_Stretch_Energy-OPLS-2005>
113.650772094727

> <r_mmod_Bend_Energy-OPLS-2005>
272.951477050781

> <r_mmod_Torsional_Energy-OPLS-2005>
272.905120849609

> <r_mmod_Improper_Torsional_Energy-OPLS-2005>
9.42626857757568

> <r_mmod_Van_der_Waal_Energy-OPLS-2005>
141.03938293457

> <r_mmod_Electrostatic_Energy-OPLS-2005>
-462.005767822266

> <r_mmod_Solvation_Energy-OPLS-2005>
-237.010650634766

> <b_mmod_Minimization_Converged-OPLS-2005>
0

> <r_mmod_RMS_Derivative-OPLS-2005>
5.30999422073364

$$$$
61
                    3D
 Structure written by MMmdl.
164172  0  0  1  0            999 V2000
  -30.6452  -14.7311   20.5587 C   0  0  0  0  0  0
  -30.4398  -12.4676   19.4788 C   0  0  0  0  0  0
  -29.5197  -12.5253   18.2378 C   0  0  0  0  0  0
  -28.0428  -12.3475   18.6390 C   0  0  0  0  0  0
  -27.6468  -13.2309   19.8486 C   0  0  2  0  0  0
  -28.6799  -13.1206   20.9812 C   0  0  0  0  0  0
  -25.2552  -13.8217   20.5683 C   0  0  0  0  0  0
  -24.1828  -13.0470   20.9185 C   0  0  0  0  0  0
  -24.6396  -11.6939   20.8716 C   0  0  0  0  0  0
  -23.9062  -10.4319   21.0380 C   0  0  0  0  0  0
  -24.3615   -9.4229   21.9162 C   0  0  0  0  0  0
  -23.6305   -8.2249   22.0737 C   0  0  0  0  0  0
  -22.4284   -8.0275   21.3531 C   0  0  0  0  0  0
  -21.9902   -9.0245   20.4630 C   0  0  0  0  0  0
  -22.7226  -10.2142   20.3037 C   0  0  0  0  0  0
  -21.6862   -6.0728   22.5280 C   0  0  0  0  0  0
  -21.4023   -6.5639   23.8216 C   0  0  0  0  0  0
  -21.3652   -5.6786   24.9179 C   0  0  0  0  0  0
  -21.6036   -4.3051   24.7230 C   0  0  0  0  0  0
  -21.8818   -3.8146   23.4358 C   0  0  0  0  0  0
  -21.9212   -4.6955   22.3413 C   0  0  0  0  0  0
  -22.7851  -13.5237   21.1858 C   0  0  0  0  0  0
  -22.1675   -4.2124   21.0993 F   0  0  0  0  0  0
  -21.5615   -3.4544   25.7755 F   0  0  0  0  0  0
  -29.9944  -13.5105   20.4395 N   0  0  0  0  0  0
  -26.2953  -12.9409   20.3212 N   0  0  0  0  0  0
  -25.9310  -11.6550   20.5660 N   0  0  0  0  0  0
  -22.0506  -12.8211   22.0409 N   0  0  0  0  0  0
  -25.4316  -15.1946   20.4163 N   0  0  0  0  0  0
  -31.7579  -14.8701   20.0383 O   0  0  0  0  0  0
  -21.6648   -6.8868   21.4238 O   0  0  0  0  0  0
  -22.3509  -14.5531   20.6707 O   0  0  0  0  0  0
  -24.6318  -31.8554   23.1974 C   0  0  0  0  0  0
  -25.9133  -32.4753   23.8330 C   0  0  1  0  0  0
  -27.2337  -27.2758   20.1082 C   0  0  0  0  0  0
  -25.5934  -33.8555   24.2255 N   0  0  0  0  0  0
  -23.4281  -30.4769   21.5425 C   0  0  2  0  0  0
  -24.8774  -28.9238   20.1070 C   0  0  0  0  0  0
  -22.7508  -29.4608   22.4932 C   0  0  0  0  0  0
  -18.0296  -28.1364   22.8507 C   0  0  0  0  0  0
  -24.1488  -36.7279   23.2645 C   0  0  0  0  0  0
  -25.9738  -30.7676   21.3778 C   0  0  0  0  0  0
  -26.0493  -29.3927   20.7148 C   0  0  0  0  0  0
  -27.2278  -28.5788   20.7118 C   0  0  0  0  0  0
  -26.0319  -26.8655   19.4865 C   0  0  0  0  0  0
  -24.8729  -27.6660   19.4849 C   0  0  0  0  0  0
  -23.6458  -29.8077   20.1595 C   0  0  0  0  0  0
  -25.4115  -36.3069   24.0334 C   0  0  1  0  0  0
  -20.5892  -28.3708   23.1265 C   0  0  2  0  0  0
  -20.6772  -26.9429   22.5396 C   0  0  0  0  0  0
  -19.5752  -26.6394   21.5194 C   0  0  0  0  0  0
  -18.1948  -26.7915   22.1633 C   0  0  0  0  0  0
  -19.1546  -28.8852   23.2866 C   0  0  0  0  0  0
  -18.9462  -30.1458   23.8864 C   0  0  0  0  0  0
  -17.6470  -30.6578   24.0545 C   0  0  0  0  0  0
  -25.9063  -34.9440   23.5095 C   0  0  0  0  0  0
  -16.5352  -29.9071   23.6346 C   0  0  0  0  0  0
  -16.7280  -28.6471   23.0384 C   0  0  0  0  0  0
  -26.4491  -31.6575   25.0723 C   0  0  0  0  0  0
  -25.3708  -31.3724   26.1442 C   0  0  0  0  0  0
  -27.0351  -30.2992   24.6218 C   0  0  0  0  0  0
  -27.6043  -32.4322   25.7491 C   0  0  0  0  0  0
  -27.5580  -37.1802   24.8472 C   0  0  0  0  0  0
  -21.4217  -29.3060   22.3673 N   0  0  0  0  0  0
  -26.4292  -37.3769   23.9413 N   0  0  0  0  0  0
  -24.6970  -31.0517   22.0954 N   0  0  0  0  0  0
  -23.4203  -28.8142   23.3025 O   0  0  0  0  0  0
  -28.3083  -26.3599   20.1996 O   0  0  0  0  0  0
  -26.5644  -34.8917   22.4672 O   0  0  0  0  0  0
  -23.5471  -32.1394   23.7264 O   0  0  0  0  0  0
  -30.1526  -19.7300   21.1486 C   0  0  0  0  0  0
  -29.1566  -17.6025   19.6238 C   0  0  0  0  0  0
  -30.4688  -18.3632   21.4792 C   0  0  0  0  0  0
  -29.3358  -20.0842   20.0467 C   0  0  0  0  0  0
  -29.9333  -17.2302   20.7571 C   0  0  0  0  0  0
  -28.8866  -18.9731   19.2718 C   0  0  0  0  0  0
  -30.1737  -14.7136   23.4526 C   0  0  0  0  0  0
  -28.7831  -23.9898   19.2285 C   0  0  0  0  0  0
  -29.7571  -15.6783   22.6068 C   0  0  0  0  0  0
  -28.4765  -25.3496   19.2259 C   0  0  0  0  0  0
  -31.4535  -18.1620   22.6211 C   0  0  0  0  0  0
  -25.9126  -19.8039   17.7925 C   0  0  0  0  0  0
  -29.0670  -22.8039   20.2400 C   0  0  0  0  0  0
  -26.9289  -18.6712   17.9546 C   0  0  0  0  0  0
  -28.9429  -21.4200   19.6311 N   0  0  0  0  0  0
  -30.0460  -15.8064   21.2280 N   0  0  0  0  0  0
  -28.1956  -19.2833   18.1262 O   0  0  0  0  0  0
  -31.4823  -12.5969   19.1826 H   0  0  0  0  0  0
  -30.3977  -11.4824   19.9438 H   0  0  0  0  0  0
  -29.8073  -11.7551   17.5211 H   0  0  0  0  0  0
  -29.6549  -13.4813   17.7288 H   0  0  0  0  0  0
  -27.8941  -11.2975   18.8909 H   0  0  0  0  0  0
  -27.3901  -12.5504   17.7901 H   0  0  0  0  0  0
  -27.6607  -14.2631   19.4977 H   0  0  0  0  0  0
  -28.7151  -12.1030   21.3719 H   0  0  0  0  0  0
  -28.3501  -13.7367   21.8109 H   0  0  0  0  0  0
  -25.2746   -9.5736   22.4750 H   0  0  0  0  0  0
  -24.0026   -7.4635   22.7447 H   0  0  0  0  0  0
  -21.0838   -8.8758   19.8929 H   0  0  0  0  0  0
  -22.3653  -10.9680   19.6160 H   0  0  0  0  0  0
  -21.2011   -7.6147   23.9733 H   0  0  0  0  0  0
  -21.1473   -6.0511   25.9083 H   0  0  0  0  0  0
  -22.0603   -2.7604   23.2875 H   0  0  0  0  0  0
  -22.4138  -11.9854   22.4733 H   0  0  0  0  0  0
  -21.1129  -13.1226   22.2616 H   0  0  0  0  0  0
  -24.6760  -15.8574   20.5501 H   0  0  0  0  0  0
  -26.3073  -15.6373   20.1711 H   0  0  0  0  0  0
  -26.7208  -32.5404   23.1086 H   0  0  0  0  0  0
  -25.0037  -33.9680   25.0367 H   0  0  0  0  0  0
  -22.7249  -31.2987   21.3955 H   0  0  0  0  0  0
  -23.3755  -35.9610   23.3307 H   0  0  0  0  0  0
  -24.3571  -36.8897   22.2060 H   0  0  0  0  0  0
  -23.7237  -37.6481   23.6657 H   0  0  0  0  0  0
  -26.1184  -31.5301   20.6113 H   0  0  0  0  0  0
  -26.8486  -30.8134   22.0143 H   0  0  0  0  0  0
  -28.1191  -28.9283   21.2124 H   0  0  0  0  0  0
  -25.9613  -25.8886   19.0296 H   0  0  0  0  0  0
  -23.9720  -27.2936   19.0159 H   0  0  0  0  0  0
  -23.7634  -30.5813   19.4002 H   0  0  0  0  0  0
  -22.7639  -29.2368   19.8609 H   0  0  0  0  0  0
  -25.1296  -36.1923   25.0831 H   0  0  0  0  0  0
  -20.9981  -28.3268   24.1391 H   0  0  0  0  0  0
  -20.5677  -26.2328   23.3603 H   0  0  0  0  0  0
  -21.6636  -26.7442   22.1202 H   0  0  0  0  0  0
  -19.6902  -25.6305   21.1212 H   0  0  0  0  0  0
  -19.6687  -27.3207   20.6731 H   0  0  0  0  0  0
  -17.4204  -26.6634   21.4057 H   0  0  0  0  0  0
  -18.0395  -26.0099   22.9076 H   0  0  0  0  0  0
  -19.7943  -30.7279   24.2198 H   0  0  0  0  0  0
  -17.5047  -31.6265   24.5150 H   0  0  0  0  0  0
  -15.5355  -30.2968   23.7663 H   0  0  0  0  0  0
  -15.8696  -28.0774   22.7106 H   0  0  0  0  0  0
  -24.5885  -30.7072   25.7765 H   0  0  0  0  0  0
  -24.8901  -32.2894   26.4864 H   0  0  0  0  0  0
  -25.8032  -30.8903   27.0220 H   0  0  0  0  0  0
  -26.2948  -29.6734   24.1221 H   0  0  0  0  0  0
  -27.4007  -29.7260   25.4749 H   0  0  0  0  0  0
  -27.8828  -30.4268   23.9482 H   0  0  0  0  0  0
  -27.2642  -33.3623   26.2054 H   0  0  0  0  0  0
  -28.3848  -32.6887   25.0313 H   0  0  0  0  0  0
  -28.0708  -31.8461   26.5420 H   0  0  0  0  0  0
  -28.2612  -38.0087   24.7507 H   0  0  0  0  0  0
  -28.1063  -36.2622   24.6308 H   0  0  0  0  0  0
  -27.2295  -37.1454   25.8875 H   0  0  0  0  0  0
  -20.9413  -29.8806   21.6891 H   0  0  0  0  0  0
  -26.0176  -38.2852   24.1393 H   0  0  0  0  0  0
  -30.5695  -20.5265   21.7506 H   0  0  0  0  0  0
  -28.7418  -16.8163   19.0077 H   0  0  0  0  0  0
  -30.8112  -13.8946   23.1529 H   0  0  0  0  0  0
  -29.8719  -14.7323   24.4896 H   0  0  0  0  0  0
  -28.8637  -23.6194   18.2153 H   0  0  0  0  0  0
  -29.1212  -16.4727   22.9752 H   0  0  0  0  0  0
  -28.3492  -25.8079   18.2531 H   0  0  0  0  0  0
  -32.0642  -17.2737   22.4549 H   0  0  0  0  0  0
  -32.1386  -19.0065   22.6983 H   0  0  0  0  0  0
  -30.9363  -18.0600   23.5754 H   0  0  0  0  0  0
  -24.9192  -19.4110   17.5789 H   0  0  0  0  0  0
  -26.1913  -20.4726   16.9758 H   0  0  0  0  0  0
  -25.8495  -20.4008   18.7034 H   0  0  0  0  0  0
  -28.3931  -22.8985   21.0928 H   0  0  0  0  0  0
  -30.0814  -22.9233   20.6218 H   0  0  0  0  0  0
  -26.9528  -18.0462   17.0608 H   0  0  0  0  0  0
  -26.6394  -18.0362   18.7946 H   0  0  0  0  0  0
  -28.3227  -21.3771   18.8252 H   0  0  0  0  0  0
  1 25  1  0  0  0
  1 30  2  0  0  0
  1 86  1  0  0  0
  2  3  1  0  0  0
  2 25  1  0  0  0
  2 88  1  0  0  0
  2 89  1  0  0  0
  3  4  1  0  0  0
  3 90  1  0  0  0
  3 91  1  0  0  0
  4  5  1  0  0  0
  4 92  1  0  0  0
  4 93  1  0  0  0
  5  6  1  0  0  0
  5 26  1  0  0  0
  5 94  1  0  0  0
  6 25  1  0  0  0
  6 95  1  0  0  0
  6 96  1  0  0  0
  7  8  2  0  0  0
  7 26  1  0  0  0
  7 29  1  0  0  0
  8  9  1  0  0  0
  8 22  1  0  0  0
  9 10  1  0  0  0
  9 27  2  0  0  0
 10 11  2  0  0  0
 10 15  1  0  0  0
 11 12  1  0  0  0
 11 97  1  0  0  0
 12 13  2  0  0  0
 12 98  1  0  0  0
 13 14  1  0  0  0
 13 31  1  0  0  0
 14 15  2  0  0  0
 14 99  1  0  0  0
 15100  1  0  0  0
 16 17  2  0  0  0
 16 21  1  0  0  0
 16 31  1  0  0  0
 17 18  1  0  0  0
 17101  1  0  0  0
 18 19  2  0  0  0
 18102  1  0  0  0
 19 20  1  0  0  0
 19 24  1  0  0  0
 20 21  2  0  0  0
 20103  1  0  0  0
 21 23  1  0  0  0
 22 28  1  0  0  0
 22 32  2  0  0  0
 26 27  1  0  0  0
 28104  1  0  0  0
 28105  1  0  0  0
 29106  1  0  0  0
 29107  1  0  0  0
 33 34  1  0  0  0
 33 66  1  0  0  0
 33 70  2  0  0  0
 34 36  1  0  0  0
 34 59  1  0  0  0
 34108  1  0  0  0
 35 44  2  0  0  0
 35 45  1  0  0  0
 35 68  1  0  0  0
 36 56  1  0  0  0
 36109  1  0  0  0
 37 39  1  0  0  0
 37 47  1  0  0  0
 37 66  1  0  0  0
 37110  1  0  0  0
 38 43  2  0  0  0
 38 46  1  0  0  0
 38 47  1  0  0  0
 39 64  1  0  0  0
 39 67  2  0  0  0
 40 52  1  0  0  0
 40 53  2  0  0  0
 40 58  1  0  0  0
 41111  1  0  0  0
 41112  1  0  0  0
 41113  1  0  0  0
 41 48  1  0  0  0
 42 43  1  0  0  0
 42 66  1  0  0  0
 42114  1  0  0  0
 42115  1  0  0  0
 43 44  1  0  0  0
 44116  1  0  0  0
 45 46  2  0  0  0
 45117  1  0  0  0
 46118  1  0  0  0
 47119  1  0  0  0
 47120  1  0  0  0
 48 56  1  0  0  0
 48 65  1  0  0  0
 48121  1  0  0  0
 49 50  1  0  0  0
 49 53  1  0  0  0
 49 64  1  0  0  0
 49122  1  0  0  0
 50 51  1  0  0  0
 50123  1  0  0  0
 50124  1  0  0  0
 51 52  1  0  0  0
 51125  1  0  0  0
 51126  1  0  0  0
 52127  1  0  0  0
 52128  1  0  0  0
 53 54  1  0  0  0
 54 55  2  0  0  0
 54129  1  0  0  0
 55 57  1  0  0  0
 55130  1  0  0  0
 56 69  2  0  0  0
 57 58  2  0  0  0
 57131  1  0  0  0
 58132  1  0  0  0
 59 60  1  0  0  0
 59 61  1  0  0  0
 59 62  1  0  0  0
 60133  1  0  0  0
 60134  1  0  0  0
 60135  1  0  0  0
 61136  1  0  0  0
 61137  1  0  0  0
 61138  1  0  0  0
 62139  1  0  0  0
 62140  1  0  0  0
 62141  1  0  0  0
 63 65  1  0  0  0
 63142  1  0  0  0
 63143  1  0  0  0
 63144  1  0  0  0
 64145  1  0  0  0
 65146  1  0  0  0
 68 80  1  0  0  0
 71 73  2  0  0  0
 71 74  1  0  0  0
 71147  1  0  0  0
 72 75  2  0  0  0
 72 76  1  0  0  0
 72148  1  0  0  0
 73 75  1  0  0  0
 73 81  1  0  0  0
 74 76  2  0  0  0
 74 85  1  0  0  0
 75 86  1  0  0  0
 76 87  1  0  0  0
 77 79  2  0  0  0
 77149  1  0  0  0
 77150  1  0  0  0
 78 80  2  0  0  0
 78 83  1  0  0  0
 78151  1  0  0  0
 79 86  1  0  0  0
 79152  1  0  0  0
 80153  1  0  0  0
 81154  1  0  0  0
 81155  1  0  0  0
 81156  1  0  0  0
 82 84  1  0  0  0
 82157  1  0  0  0
 82158  1  0  0  0
 82159  1  0  0  0
 83 85  1  0  0  0
 83160  1  0  0  0
 83161  1  0  0  0
 84 87  1  0  0  0
 84162  1  0  0  0
 84163  1  0  0  0
 85164  1  0  0  0
M  ISO  4   1 100  68 101  80 101  86 100
M  END
> <chiral flag>
0

> <version>
0

> <s_m_source_file>
/data/baiqing/PycharmProjects/Reinvent-master-3.2/result/LINK_invent/BTK/process_docking_weight1_custom_product_contain_oxygen_bond_distance_aromatic_linkinvent_7_9_3/rearranged_h_0113.sdf

> <i_m_source_file_index>
62

> <r_mmod_Potential_Energy-OPLS-2005>
399.449127197266

> <r_mmod_Stretch_Energy-OPLS-2005>
119.922645568848

> <r_mmod_Bend_Energy-OPLS-2005>
237.581497192383

> <r_mmod_Torsional_Energy-OPLS-2005>
318.094024658203

> <r_mmod_Improper_Torsional_Energy-OPLS-2005>
3.54005265235901

> <r_mmod_Van_der_Waal_Energy-OPLS-2005>
153.594680786133

> <r_mmod_Electrostatic_Energy-OPLS-2005>
-312.339752197266

> <r_mmod_Solvation_Energy-OPLS-2005>
-199.911193847656

> <b_mmod_Minimization_Converged-OPLS-2005>
0

> <r_mmod_RMS_Derivative-OPLS-2005>
2.74470114707947

$$$$
62
                    3D
 Structure written by MMmdl.
160168  0  0  1  0            999 V2000
  -30.8476  -14.3667   20.6858 C   0  0  0  0  0  0
  -30.3893  -12.2860   19.4551 C   0  0  0  0  0  0
  -29.4846  -12.5236   18.2335 C   0  0  0  0  0  0
  -28.0080  -12.3819   18.6370 C   0  0  0  0  0  0
  -27.6556  -13.2304   19.8888 C   0  0  2  0  0  0
  -28.6992  -13.0421   21.0255 C   0  0  0  0  0  0
  -25.2528  -13.8254   20.5780 C   0  0  0  0  0  0
  -24.1796  -13.0463   20.9237 C   0  0  0  0  0  0
  -24.6379  -11.6949   20.8766 C   0  0  0  0  0  0
  -23.9044  -10.4293   21.0387 C   0  0  0  0  0  0
  -24.3584   -9.4220   21.9167 C   0  0  0  0  0  0
  -23.6272   -8.2238   22.0757 C   0  0  0  0  0  0
  -22.4267   -8.0250   21.3538 C   0  0  0  0  0  0
  -21.9863   -9.0240   20.4670 C   0  0  0  0  0  0
  -22.7191  -10.2125   20.3067 C   0  0  0  0  0  0
  -21.6852   -6.0707   22.5287 C   0  0  0  0  0  0
  -21.3994   -6.5623   23.8208 C   0  0  0  0  0  0
  -21.3672   -5.6789   24.9188 C   0  0  0  0  0  0
  -21.6076   -4.3050   24.7251 C   0  0  0  0  0  0
  -21.8806   -3.8130   23.4358 C   0  0  0  0  0  0
  -21.9180   -4.6931   22.3411 C   0  0  0  0  0  0
  -22.7814  -13.5268   21.1870 C   0  0  0  0  0  0
  -22.1648   -4.2122   21.0982 F   0  0  0  0  0  0
  -21.5662   -3.4531   25.7759 F   0  0  0  0  0  0
  -30.0388  -13.2918   20.4787 N   0  0  0  0  0  0
  -26.2966  -12.9440   20.3496 N   0  0  0  0  0  0
  -25.9309  -11.6555   20.5845 N   0  0  0  0  0  0
  -22.0444  -12.8216   22.0398 N   0  0  0  0  0  0
  -25.4278  -15.1945   20.4314 N   0  0  0  0  0  0
  -31.9074  -14.4884   20.0719 O   0  0  0  0  0  0
  -21.6649   -6.8840   21.4229 O   0  0  0  0  0  0
  -22.3425  -14.5529   20.6716 O   0  0  0  0  0  0
  -24.6155  -31.8668   23.2123 C   0  0  0  0  0  0
  -25.9065  -32.4814   23.8420 C   0  0  1  0  0  0
  -27.2289  -27.4149   20.0933 C   0  0  0  0  0  0
  -25.5931  -33.8615   24.2338 N   0  0  0  0  0  0
  -23.4049  -30.4939   21.5525 C   0  0  2  0  0  0
  -24.8520  -28.9652   20.1114 C   0  0  0  0  0  0
  -22.7421  -29.4673   22.4988 C   0  0  0  0  0  0
  -18.0284  -28.1360   22.8497 C   0  0  0  0  0  0
  -24.1499  -36.7305   23.2642 C   0  0  0  0  0  0
  -25.9401  -30.8235   21.3769 C   0  0  0  0  0  0
  -26.0141  -29.4604   20.7161 C   0  0  0  0  0  0
  -27.2031  -28.6929   20.7024 C   0  0  0  0  0  0
  -26.0458  -26.9475   19.4705 C   0  0  0  0  0  0
  -24.8649  -27.7072   19.4889 C   0  0  0  0  0  0
  -23.6157  -29.8341   20.1652 C   0  0  0  0  0  0
  -25.4118  -36.3097   24.0338 C   0  0  1  0  0  0
  -20.5866  -28.3680   23.1293 C   0  0  2  0  0  0
  -20.6801  -26.9422   22.5399 C   0  0  0  0  0  0
  -19.5770  -26.6393   21.5207 C   0  0  0  0  0  0
  -18.1957  -26.7886   22.1659 C   0  0  0  0  0  0
  -19.1521  -28.8839   23.2880 C   0  0  0  0  0  0
  -18.9433  -30.1455   23.8867 C   0  0  0  0  0  0
  -17.6426  -30.6584   24.0520 C   0  0  0  0  0  0
  -25.9050  -34.9465   23.5133 C   0  0  0  0  0  0
  -16.5327  -29.9066   23.6313 C   0  0  0  0  0  0
  -16.7267  -28.6478   23.0359 C   0  0  0  0  0  0
  -26.4461  -31.6610   25.0770 C   0  0  0  0  0  0
  -25.3731  -31.3751   26.1530 C   0  0  0  0  0  0
  -27.0305  -30.3039   24.6230 C   0  0  0  0  0  0
  -27.6030  -32.4342   25.7528 C   0  0  0  0  0  0
  -27.5580  -37.1814   24.8453 C   0  0  0  0  0  0
  -21.4143  -29.3037   22.3693 N   0  0  0  0  0  0
  -26.4295  -37.3793   23.9396 N   0  0  0  0  0  0
  -24.6716  -31.0748   22.1041 N   0  0  0  0  0  0
  -23.4193  -28.8191   23.3017 O   0  0  0  0  0  0
  -28.3895  -26.6609   20.1410 O   0  0  0  0  0  0
  -26.5586  -34.8905   22.4685 O   0  0  0  0  0  0
  -23.5346  -32.1441   23.7507 O   0  0  0  0  0  0
  -29.9776  -19.9026   20.3313 C   0  0  0  0  0  0
  -28.7028  -19.8972   22.3937 C   0  0  0  0  0  0
  -30.0574  -18.5010   20.3820 C   0  0  0  0  0  0
  -29.4349  -17.7668   21.4302 C   0  0  0  0  0  0
  -28.7485  -18.4789   22.4500 C   0  0  0  0  0  0
  -29.2866  -20.6229   21.3245 C   0  0  0  0  0  0
  -30.5319  -17.9982   17.9980 C   0  0  0  0  0  0
  -30.7522  -17.7866   19.3008 C   0  0  0  0  0  0
  -29.4314  -16.3013   21.2031 C   0  0  0  0  0  0
  -30.4623  -15.4946   21.5248 C   0  0  0  0  0  0
  -29.3712  -22.9266   20.2927 C   0  0  0  0  0  0
  -28.0539  -17.7738   23.6059 C   0  0  0  0  0  0
  -29.3753  -24.4317   20.6293 C   0  0  0  0  0  0
  -28.2993  -25.2455   19.8665 C   0  0  0  0  0  0
  -29.2049  -22.0576   21.3154 N   0  0  0  0  0  0
  -29.5216  -22.5841   19.1172 O   0  0  0  0  0  0
  -31.4380  -12.3053   19.1370 H   0  0  0  0  0  0
  -30.2346  -11.2896   19.8665 H   0  0  0  0  0  0
  -29.7323  -11.8169   17.4331 H   0  0  0  0  0  0
  -29.6573  -13.5242   17.8374 H   0  0  0  0  0  0
  -27.8227  -11.3229   18.8350 H   0  0  0  0  0  0
  -27.3601  -12.6558   17.8098 H   0  0  0  0  0  0
  -27.6771  -14.2761   19.5777 H   0  0  0  0  0  0
  -28.6556  -12.0237   21.4100 H   0  0  0  0  0  0
  -28.4902  -13.7025   21.8685 H   0  0  0  0  0  0
  -25.2732   -9.5693   22.4728 H   0  0  0  0  0  0
  -24.0040   -7.4607   22.7421 H   0  0  0  0  0  0
  -21.0818   -8.8737   19.8932 H   0  0  0  0  0  0
  -22.3646  -10.9659   19.6172 H   0  0  0  0  0  0
  -21.1945   -7.6124   23.9688 H   0  0  0  0  0  0
  -21.1541   -6.0537   25.9094 H   0  0  0  0  0  0
  -22.0564   -2.7585   23.2890 H   0  0  0  0  0  0
  -22.4100  -11.9938   22.4836 H   0  0  0  0  0  0
  -21.1047  -13.1201   22.2649 H   0  0  0  0  0  0
  -24.6809  -15.8653   20.5791 H   0  0  0  0  0  0
  -26.3130  -15.6278   20.1949 H   0  0  0  0  0  0
  -26.7145  -32.5501   23.1176 H   0  0  0  0  0  0
  -25.0110  -33.9796   25.0508 H   0  0  0  0  0  0
  -22.6977  -31.3129   21.4161 H   0  0  0  0  0  0
  -23.3745  -35.9643   23.3309 H   0  0  0  0  0  0
  -24.3588  -36.8922   22.2051 H   0  0  0  0  0  0
  -23.7251  -37.6525   23.6649 H   0  0  0  0  0  0
  -26.0780  -31.6001   20.6243 H   0  0  0  0  0  0
  -26.8174  -30.8553   22.0120 H   0  0  0  0  0  0
  -28.0968  -29.0747   21.1770 H   0  0  0  0  0  0
  -26.0159  -25.9992   18.9561 H   0  0  0  0  0  0
  -23.9748  -27.3232   19.0115 H   0  0  0  0  0  0
  -23.7331  -30.6144   19.4116 H   0  0  0  0  0  0
  -22.7384  -29.2595   19.8604 H   0  0  0  0  0  0
  -25.1293  -36.1971   25.0824 H   0  0  0  0  0  0
  -20.9940  -28.3237   24.1425 H   0  0  0  0  0  0
  -20.5761  -26.2287   23.3571 H   0  0  0  0  0  0
  -21.6674  -26.7526   22.1131 H   0  0  0  0  0  0
  -19.6939  -25.6313   21.1217 H   0  0  0  0  0  0
  -19.6659  -27.3223   20.6728 H   0  0  0  0  0  0
  -17.4199  -26.6544   21.4108 H   0  0  0  0  0  0
  -18.0449  -26.0056   22.9101 H   0  0  0  0  0  0
  -19.7910  -30.7293   24.2216 H   0  0  0  0  0  0
  -17.4983  -31.6288   24.5083 H   0  0  0  0  0  0
  -15.5332  -30.2965   23.7637 H   0  0  0  0  0  0
  -15.8666  -28.0784   22.7097 H   0  0  0  0  0  0
  -24.5830  -30.7195   25.7860 H   0  0  0  0  0  0
  -24.9017  -32.2951   26.5034 H   0  0  0  0  0  0
  -25.8077  -30.8846   27.0266 H   0  0  0  0  0  0
  -26.2910  -29.6810   24.1208 H   0  0  0  0  0  0
  -27.3956  -29.7267   25.4738 H   0  0  0  0  0  0
  -27.8788  -30.4308   23.9494 H   0  0  0  0  0  0
  -27.2630  -33.3610   26.2166 H   0  0  0  0  0  0
  -28.3812  -32.6989   25.0349 H   0  0  0  0  0  0
  -28.0755  -31.8461   26.5412 H   0  0  0  0  0  0
  -28.2593  -38.0119   24.7500 H   0  0  0  0  0  0
  -28.1091  -36.2652   24.6277 H   0  0  0  0  0  0
  -27.2305  -37.1466   25.8862 H   0  0  0  0  0  0
  -20.9316  -29.8772   21.6914 H   0  0  0  0  0  0
  -26.0180  -38.2871   24.1401 H   0  0  0  0  0  0
  -30.4738  -20.4098   19.5253 H   0  0  0  0  0  0
  -28.1900  -20.4477   23.1660 H   0  0  0  0  0  0
  -31.0591  -17.4336   17.2464 H   0  0  0  0  0  0
  -29.8122  -18.7297   17.6693 H   0  0  0  0  0  0
  -31.4897  -17.0556   19.5965 H   0  0  0  0  0  0
  -28.6540  -15.9588   20.5527 H   0  0  0  0  0  0
  -31.1912  -15.8116   22.2582 H   0  0  0  0  0  0
  -28.7268  -17.0705   24.0985 H   0  0  0  0  0  0
  -27.1741  -17.2306   23.2570 H   0  0  0  0  0  0
  -27.7215  -18.4867   24.3631 H   0  0  0  0  0  0
  -30.3686  -24.8152   20.3865 H   0  0  0  0  0  0
  -29.2351  -24.5562   21.7036 H   0  0  0  0  0  0
  -27.3367  -24.8321   20.1709 H   0  0  0  0  0  0
  -28.3883  -25.0908   18.7881 H   0  0  0  0  0  0
  -28.9801  -22.4845   22.2054 H   0  0  0  0  0  0
  1 25  1  0  0  0
  1 30  2  0  0  0
  1 80  1  0  0  0
  2  3  1  0  0  0
  2 25  1  0  0  0
  2 87  1  0  0  0
  2 88  1  0  0  0
  3  4  1  0  0  0
  3 89  1  0  0  0
  3 90  1  0  0  0
  4  5  1  0  0  0
  4 91  1  0  0  0
  4 92  1  0  0  0
  5  6  1  0  0  0
  5 26  1  0  0  0
  5 93  1  0  0  0
  6 25  1  0  0  0
  6 94  1  0  0  0
  6 95  1  0  0  0
  7  8  2  0  0  0
  7 26  1  0  0  0
  7 29  1  0  0  0
  8  9  1  0  0  0
  8 22  1  0  0  0
  9 10  1  0  0  0
  9 27  2  0  0  0
 10 11  2  0  0  0
 10 15  1  0  0  0
 11 12  1  0  0  0
 11 96  1  0  0  0
 12 13  2  0  0  0
 12 97  1  0  0  0
 13 14  1  0  0  0
 13 31  1  0  0  0
 14 15  2  0  0  0
 14 98  1  0  0  0
 15 99  1  0  0  0
 16 17  2  0  0  0
 16 21  1  0  0  0
 16 31  1  0  0  0
 17 18  1  0  0  0
 17100  1  0  0  0
 18 19  2  0  0  0
 18101  1  0  0  0
 19 20  1  0  0  0
 19 24  1  0  0  0
 20 21  2  0  0  0
 20102  1  0  0  0
 21 23  1  0  0  0
 22 28  1  0  0  0
 22 32  2  0  0  0
 26 27  1  0  0  0
 28103  1  0  0  0
 28104  1  0  0  0
 29105  1  0  0  0
 29106  1  0  0  0
 33 34  1  0  0  0
 33 66  1  0  0  0
 33 70  2  0  0  0
 34 36  1  0  0  0
 34 59  1  0  0  0
 34107  1  0  0  0
 35 44  2  0  0  0
 35 45  1  0  0  0
 35 68  1  0  0  0
 36 56  1  0  0  0
 36108  1  0  0  0
 37 39  1  0  0  0
 37 47  1  0  0  0
 37 66  1  0  0  0
 37109  1  0  0  0
 38 43  2  0  0  0
 38 46  1  0  0  0
 38 47  1  0  0  0
 39 64  1  0  0  0
 39 67  2  0  0  0
 40 52  1  0  0  0
 40 53  2  0  0  0
 40 58  1  0  0  0
 41110  1  0  0  0
 41111  1  0  0  0
 41112  1  0  0  0
 41 48  1  0  0  0
 42 43  1  0  0  0
 42 66  1  0  0  0
 42113  1  0  0  0
 42114  1  0  0  0
 43 44  1  0  0  0
 44115  1  0  0  0
 45 46  2  0  0  0
 45116  1  0  0  0
 46117  1  0  0  0
 47118  1  0  0  0
 47119  1  0  0  0
 48 56  1  0  0  0
 48 65  1  0  0  0
 48120  1  0  0  0
 49 50  1  0  0  0
 49 53  1  0  0  0
 49 64  1  0  0  0
 49121  1  0  0  0
 50 51  1  0  0  0
 50122  1  0  0  0
 50123  1  0  0  0
 51 52  1  0  0  0
 51124  1  0  0  0
 51125  1  0  0  0
 52126  1  0  0  0
 52127  1  0  0  0
 53 54  1  0  0  0
 54 55  2  0  0  0
 54128  1  0  0  0
 55 57  1  0  0  0
 55129  1  0  0  0
 56 69  2  0  0  0
 57 58  2  0  0  0
 57130  1  0  0  0
 58131  1  0  0  0
 59 60  1  0  0  0
 59 61  1  0  0  0
 59 62  1  0  0  0
 60132  1  0  0  0
 60133  1  0  0  0
 60134  1  0  0  0
 61135  1  0  0  0
 61136  1  0  0  0
 61137  1  0  0  0
 62138  1  0  0  0
 62139  1  0  0  0
 62140  1  0  0  0
 63 65  1  0  0  0
 63141  1  0  0  0
 63142  1  0  0  0
 63143  1  0  0  0
 64144  1  0  0  0
 65145  1  0  0  0
 68 84  1  0  0  0
 71 73  2  0  0  0
 71 76  1  0  0  0
 71146  1  0  0  0
 72 75  1  0  0  0
 72 76  2  0  0  0
 72147  1  0  0  0
 73 74  1  0  0  0
 73 78  1  0  0  0
 74 75  2  0  0  0
 74 79  1  0  0  0
 75 82  1  0  0  0
 76 85  1  0  0  0
 77 78  2  0  0  0
 77148  1  0  0  0
 77149  1  0  0  0
 78150  1  0  0  0
 79 80  2  0  0  0
 79151  1  0  0  0
 80152  1  0  0  0
 81 83  1  0  0  0
 81 85  1  0  0  0
 81 86  2  0  0  0
 82153  1  0  0  0
 82154  1  0  0  0
 82155  1  0  0  0
 83 84  1  0  0  0
 83156  1  0  0  0
 83157  1  0  0  0
 84158  1  0  0  0
 84159  1  0  0  0
 85160  1  0  0  0
M  ISO  4   1 100  68 101  80 100  84 101
M  END
> <chiral flag>
0

> <version>
0

> <s_m_source_file>
/data/baiqing/PycharmProjects/Reinvent-master-3.2/result/LINK_invent/BTK/process_docking_weight1_custom_product_contain_oxygen_bond_distance_aromatic_linkinvent_7_9_3/rearranged_h_0113.sdf

> <i_m_source_file_index>
63

> <r_mmod_Potential_Energy-OPLS-2005>
76.1302337646484

> <r_mmod_Stretch_Energy-OPLS-2005>
41.2442512512207

> <r_mmod_Bend_Energy-OPLS-2005>
127.167388916016

> <r_mmod_Torsional_Energy-OPLS-2005>
290.049713134766

> <r_mmod_Improper_Torsional_Energy-OPLS-2005>
19.4307250976562

> <r_mmod_Van_der_Waal_Energy-OPLS-2005>
164.548446655273

> <r_mmod_Electrostatic_Energy-OPLS-2005>
-375.115966796875

> <r_mmod_Solvation_Energy-OPLS-2005>
-210.327728271484

> <b_mmod_Minimization_Converged-OPLS-2005>
0

> <r_mmod_RMS_Derivative-OPLS-2005>
8.29309463500977

$$$$
63
                    3D
 Structure written by MMmdl.
155163  0  0  1  0            999 V2000
  -30.7066  -14.5812   20.4825 C   0  0  0  0  0  0
  -30.4171  -12.3627   19.4186 C   0  0  0  0  0  0
  -29.4846  -12.4787   18.1965 C   0  0  0  0  0  0
  -28.0087  -12.3479   18.6276 C   0  0  0  0  0  0
  -27.6454  -13.2139   19.8650 C   0  0  2  0  0  0
  -28.7082  -13.0983   20.9771 C   0  0  0  0  0  0
  -25.2534  -13.8137   20.5751 C   0  0  0  0  0  0
  -24.1806  -13.0435   20.9213 C   0  0  0  0  0  0
  -24.6369  -11.6890   20.8768 C   0  0  0  0  0  0
  -23.9017  -10.4279   21.0423 C   0  0  0  0  0  0
  -24.3591   -9.4183   21.9190 C   0  0  0  0  0  0
  -23.6279   -8.2202   22.0752 C   0  0  0  0  0  0
  -22.4256   -8.0258   21.3565 C   0  0  0  0  0  0
  -21.9874   -9.0216   20.4657 C   0  0  0  0  0  0
  -22.7200  -10.2098   20.3079 C   0  0  0  0  0  0
  -21.6828   -6.0720   22.5273 C   0  0  0  0  0  0
  -21.4011   -6.5623   23.8203 C   0  0  0  0  0  0
  -21.3666   -5.6778   24.9164 C   0  0  0  0  0  0
  -21.6030   -4.3043   24.7226 C   0  0  0  0  0  0
  -21.8814   -3.8139   23.4350 C   0  0  0  0  0  0
  -21.9188   -4.6953   22.3395 C   0  0  0  0  0  0
  -22.7800  -13.5207   21.1839 C   0  0  0  0  0  0
  -22.1664   -4.2141   21.0978 F   0  0  0  0  0  0
  -21.5626   -3.4525   25.7746 F   0  0  0  0  0  0
  -30.0115  -13.4069   20.3761 N   0  0  0  0  0  0
  -26.2975  -12.9323   20.3420 N   0  0  0  0  0  0
  -25.9298  -11.6477   20.5795 N   0  0  0  0  0  0
  -22.0405  -12.8265   22.0397 N   0  0  0  0  0  0
  -25.4266  -15.1884   20.4223 N   0  0  0  0  0  0
  -31.8817  -14.6684   20.1308 O   0  0  0  0  0  0
  -21.6610   -6.8856   21.4246 O   0  0  0  0  0  0
  -22.3521  -14.5529   20.6656 O   0  0  0  0  0  0
  -24.6269  -31.8576   23.1995 C   0  0  0  0  0  0
  -25.9126  -32.4757   23.8323 C   0  0  1  0  0  0
  -27.2242  -27.3446   20.0645 C   0  0  0  0  0  0
  -25.5940  -33.8554   24.2260 N   0  0  0  0  0  0
  -23.4156  -30.4826   21.5445 C   0  0  2  0  0  0
  -24.8502  -28.9291   20.1088 C   0  0  0  0  0  0
  -22.7479  -29.4610   22.4949 C   0  0  0  0  0  0
  -18.0295  -28.1355   22.8452 C   0  0  0  0  0  0
  -24.1499  -36.7324   23.2624 C   0  0  0  0  0  0
  -25.9538  -30.7841   21.3686 C   0  0  0  0  0  0
  -26.0199  -29.4130   20.7107 C   0  0  0  0  0  0
  -27.2017  -28.6243   20.6918 C   0  0  0  0  0  0
  -26.0281  -26.8887   19.4670 C   0  0  0  0  0  0
  -24.8535  -27.6661   19.4908 C   0  0  0  0  0  0
  -23.6242  -29.8147   20.1598 C   0  0  0  0  0  0
  -25.4121  -36.3085   24.0311 C   0  0  1  0  0  0
  -20.5877  -28.3675   23.1275 C   0  0  2  0  0  0
  -20.6769  -26.9397   22.5391 C   0  0  0  0  0  0
  -19.5748  -26.6377   21.5182 C   0  0  0  0  0  0
  -18.1936  -26.7906   22.1588 C   0  0  0  0  0  0
  -19.1535  -28.8829   23.2858 C   0  0  0  0  0  0
  -18.9474  -30.1440   23.8886 C   0  0  0  0  0  0
  -17.6459  -30.6548   24.0575 C   0  0  0  0  0  0
  -25.9057  -34.9450   23.5084 C   0  0  0  0  0  0
  -16.5355  -29.9044   23.6307 C   0  0  0  0  0  0
  -16.7290  -28.6458   23.0331 C   0  0  0  0  0  0
  -26.4489  -31.6563   25.0717 C   0  0  0  0  0  0
  -25.3720  -31.3737   26.1456 C   0  0  0  0  0  0
  -27.0309  -30.2975   24.6155 C   0  0  0  0  0  0
  -27.6044  -32.4306   25.7504 C   0  0  0  0  0  0
  -27.5588  -37.1839   24.8450 C   0  0  0  0  0  0
  -21.4186  -29.3040   22.3692 N   0  0  0  0  0  0
  -26.4311  -37.3777   23.9387 N   0  0  0  0  0  0
  -24.6854  -31.0590   22.0950 N   0  0  0  0  0  0
  -23.4211  -28.8123   23.3007 O   0  0  0  0  0  0
  -28.3701  -26.5496   20.0992 O   0  0  0  0  0  0
  -26.5628  -34.8919   22.4665 O   0  0  0  0  0  0
  -23.5450  -32.1406   23.7324 O   0  0  0  0  0  0
  -29.7984  -18.1665   20.2525 C   0  0  0  0  0  0
  -28.7888  -18.8168   18.1319 C   0  0  0  0  0  0
  -29.0352  -16.4594   18.6994 C   0  0  0  0  0  0
  -29.3913  -19.2078   19.3545 C   0  0  0  0  0  0
  -29.6344  -16.7745   19.9391 C   0  0  0  0  0  0
  -28.6121  -17.4507   17.7978 C   0  0  0  0  0  0
  -29.6487  -20.6854   19.5943 C   0  0  0  0  0  0
  -28.2135  -24.0055   19.4649 C   0  0  0  0  0  0
  -29.0759  -22.9864   19.7714 C   0  0  0  0  0  0
  -28.0294  -17.8169   15.4851 C   0  0  0  0  0  0
  -28.6003  -25.4790   19.1296 C   0  0  0  0  0  0
  -28.7411  -21.6067   19.7741 N   0  0  0  0  0  0
  -30.0410  -15.7130   20.8423 N   0  0  0  0  0  0
  -28.0389  -16.9824   16.6359 O   0  0  0  0  0  0
  -31.4571  -12.4563   19.1031 H   0  0  0  0  0  0
  -30.3342  -11.3768   19.8774 H   0  0  0  0  0  0
  -29.7290  -11.7100   17.4607 H   0  0  0  0  0  0
  -29.6440  -13.4327   17.6898 H   0  0  0  0  0  0
  -27.8336  -11.2952   18.8560 H   0  0  0  0  0  0
  -27.3489  -12.5961   17.7951 H   0  0  0  0  0  0
  -27.6352  -14.2458   19.5356 H   0  0  0  0  0  0
  -28.7140  -12.0937   21.3991 H   0  0  0  0  0  0
  -28.4825  -13.7764   21.8006 H   0  0  0  0  0  0
  -25.2744   -9.5637   22.4752 H   0  0  0  0  0  0
  -23.9982   -7.4585   22.7465 H   0  0  0  0  0  0
  -21.0795   -8.8757   19.8972 H   0  0  0  0  0  0
  -22.3676  -10.9648   19.6184 H   0  0  0  0  0  0
  -21.2007   -7.6135   23.9713 H   0  0  0  0  0  0
  -21.1496   -6.0510   25.9067 H   0  0  0  0  0  0
  -22.0597   -2.7603   23.2838 H   0  0  0  0  0  0
  -22.4027  -11.9959   22.4891 H   0  0  0  0  0  0
  -21.1015  -13.1302   22.2536 H   0  0  0  0  0  0
  -24.6658  -15.8450   20.5454 H   0  0  0  0  0  0
  -26.2895  -15.6313   20.1450 H   0  0  0  0  0  0
  -26.7189  -32.5389   23.1062 H   0  0  0  0  0  0
  -25.0118  -33.9684   25.0426 H   0  0  0  0  0  0
  -22.7099  -31.3056   21.4051 H   0  0  0  0  0  0
  -23.3720  -35.9697   23.3318 H   0  0  0  0  0  0
  -24.3595  -36.8920   22.2034 H   0  0  0  0  0  0
  -23.7322  -37.6561   23.6638 H   0  0  0  0  0  0
  -26.0892  -31.5392   20.5933 H   0  0  0  0  0  0
  -26.8358  -30.8288   21.9966 H   0  0  0  0  0  0
  -28.1030  -28.9903   21.1650 H   0  0  0  0  0  0
  -25.9810  -25.9172   19.0002 H   0  0  0  0  0  0
  -23.9522  -27.2780   19.0383 H   0  0  0  0  0  0
  -23.7532  -30.5921   19.4060 H   0  0  0  0  0  0
  -22.7375  -29.2564   19.8532 H   0  0  0  0  0  0
  -25.1305  -36.1937   25.0801 H   0  0  0  0  0  0
  -20.9977  -28.3255   24.1395 H   0  0  0  0  0  0
  -20.5623  -26.2315   23.3611 H   0  0  0  0  0  0
  -21.6664  -26.7387   22.1249 H   0  0  0  0  0  0
  -19.6931  -25.6295   21.1223 H   0  0  0  0  0  0
  -19.6679  -27.3189   20.6715 H   0  0  0  0  0  0
  -17.4216  -26.6662   21.3985 H   0  0  0  0  0  0
  -18.0316  -26.0039   22.8962 H   0  0  0  0  0  0
  -19.7952  -30.7244   24.2258 H   0  0  0  0  0  0
  -17.5018  -31.6220   24.5195 H   0  0  0  0  0  0
  -15.5352  -30.2937   23.7635 H   0  0  0  0  0  0
  -15.8703  -28.0780   22.7044 H   0  0  0  0  0  0
  -24.5872  -30.7080   25.7837 H   0  0  0  0  0  0
  -24.8919  -32.2910   26.4875 H   0  0  0  0  0  0
  -25.8047  -30.8947   27.0247 H   0  0  0  0  0  0
  -26.2859  -29.6769   24.1140 H   0  0  0  0  0  0
  -27.3966  -29.7195   25.4657 H   0  0  0  0  0  0
  -27.8764  -30.4267   23.9392 H   0  0  0  0  0  0
  -27.2621  -33.3589   26.2100 H   0  0  0  0  0  0
  -28.3845  -32.6889   25.0333 H   0  0  0  0  0  0
  -28.0708  -31.8415   26.5416 H   0  0  0  0  0  0
  -28.2617  -38.0110   24.7436 H   0  0  0  0  0  0
  -28.1058  -36.2651   24.6324 H   0  0  0  0  0  0
  -27.2312  -37.1569   25.8847 H   0  0  0  0  0  0
  -20.9387  -29.8826   21.6940 H   0  0  0  0  0  0
  -26.0182  -38.2862   24.1296 H   0  0  0  0  0  0
  -30.2674  -18.4464   21.1844 H   0  0  0  0  0  0
  -28.4771  -19.5899   17.4415 H   0  0  0  0  0  0
  -28.9100  -15.4325   18.3992 H   0  0  0  0  0  0
  -30.7217  -20.9610   19.5205 H   0  0  0  0  0  0
  -27.1588  -23.7913   19.3304 H   0  0  0  0  0  0
  -30.1153  -23.2197   19.9827 H   0  0  0  0  0  0
  -27.6361  -17.2423   14.6448 H   0  0  0  0  0  0
  -29.0355  -18.1341   15.2139 H   0  0  0  0  0  0
  -27.3927  -18.6907   15.6107 H   0  0  0  0  0  0
  -28.1405  -25.7280   18.1704 H   0  0  0  0  0  0
  -29.6707  -25.4798   18.9136 H   0  0  0  0  0  0
  -30.4535  -16.0874   21.6865 H   0  0  0  0  0  0
  1 25  1  0  0  0
  1 30  2  0  0  0
  1 83  1  0  0  0
  2  3  1  0  0  0
  2 25  1  0  0  0
  2 85  1  0  0  0
  2 86  1  0  0  0
  3  4  1  0  0  0
  3 87  1  0  0  0
  3 88  1  0  0  0
  4  5  1  0  0  0
  4 89  1  0  0  0
  4 90  1  0  0  0
  5  6  1  0  0  0
  5 26  1  0  0  0
  5 91  1  0  0  0
  6 25  1  0  0  0
  6 92  1  0  0  0
  6 93  1  0  0  0
  7  8  2  0  0  0
  7 26  1  0  0  0
  7 29  1  0  0  0
  8  9  1  0  0  0
  8 22  1  0  0  0
  9 10  1  0  0  0
  9 27  2  0  0  0
 10 11  2  0  0  0
 10 15  1  0  0  0
 11 12  1  0  0  0
 11 94  1  0  0  0
 12 13  2  0  0  0
 12 95  1  0  0  0
 13 14  1  0  0  0
 13 31  1  0  0  0
 14 15  2  0  0  0
 14 96  1  0  0  0
 15 97  1  0  0  0
 16 17  2  0  0  0
 16 21  1  0  0  0
 16 31  1  0  0  0
 17 18  1  0  0  0
 17 98  1  0  0  0
 18 19  2  0  0  0
 18 99  1  0  0  0
 19 20  1  0  0  0
 19 24  1  0  0  0
 20 21  2  0  0  0
 20100  1  0  0  0
 21 23  1  0  0  0
 22 28  1  0  0  0
 22 32  2  0  0  0
 26 27  1  0  0  0
 28101  1  0  0  0
 28102  1  0  0  0
 29103  1  0  0  0
 29104  1  0  0  0
 33 34  1  0  0  0
 33 66  1  0  0  0
 33 70  2  0  0  0
 34 36  1  0  0  0
 34 59  1  0  0  0
 34105  1  0  0  0
 35 44  2  0  0  0
 35 45  1  0  0  0
 35 68  1  0  0  0
 36 56  1  0  0  0
 36106  1  0  0  0
 37 39  1  0  0  0
 37 47  1  0  0  0
 37 66  1  0  0  0
 37107  1  0  0  0
 38 43  2  0  0  0
 38 46  1  0  0  0
 38 47  1  0  0  0
 39 64  1  0  0  0
 39 67  2  0  0  0
 40 52  1  0  0  0
 40 53  2  0  0  0
 40 58  1  0  0  0
 41108  1  0  0  0
 41109  1  0  0  0
 41110  1  0  0  0
 41 48  1  0  0  0
 42 43  1  0  0  0
 42 66  1  0  0  0
 42111  1  0  0  0
 42112  1  0  0  0
 43 44  1  0  0  0
 44113  1  0  0  0
 45 46  2  0  0  0
 45114  1  0  0  0
 46115  1  0  0  0
 47116  1  0  0  0
 47117  1  0  0  0
 48 56  1  0  0  0
 48 65  1  0  0  0
 48118  1  0  0  0
 49 50  1  0  0  0
 49 53  1  0  0  0
 49 64  1  0  0  0
 49119  1  0  0  0
 50 51  1  0  0  0
 50120  1  0  0  0
 50121  1  0  0  0
 51 52  1  0  0  0
 51122  1  0  0  0
 51123  1  0  0  0
 52124  1  0  0  0
 52125  1  0  0  0
 53 54  1  0  0  0
 54 55  2  0  0  0
 54126  1  0  0  0
 55 57  1  0  0  0
 55127  1  0  0  0
 56 69  2  0  0  0
 57 58  2  0  0  0
 57128  1  0  0  0
 58129  1  0  0  0
 59 60  1  0  0  0
 59 61  1  0  0  0
 59 62  1  0  0  0
 60130  1  0  0  0
 60131  1  0  0  0
 60132  1  0  0  0
 61133  1  0  0  0
 61134  1  0  0  0
 61135  1  0  0  0
 62136  1  0  0  0
 62137  1  0  0  0
 62138  1  0  0  0
 63 65  1  0  0  0
 63139  1  0  0  0
 63140  1  0  0  0
 63141  1  0  0  0
 64142  1  0  0  0
 65143  1  0  0  0
 68 81  1  0  0  0
 71 74  2  0  0  0
 71 75  1  0  0  0
 71144  1  0  0  0
 72 74  1  0  0  0
 72 76  2  0  0  0
 72145  1  0  0  0
 73 75  2  0  0  0
 73 76  1  0  0  0
 73146  1  0  0  0
 74 77  1  0  0  0
 75 83  1  0  0  0
 76 84  1  0  0  0
 77 82  2  0  0  0
 77147  1  0  0  0
 78 79  2  0  0  0
 78 81  1  0  0  0
 78148  1  0  0  0
 79 82  1  0  0  0
 79149  1  0  0  0
 80 84  1  0  0  0
 80150  1  0  0  0
 80151  1  0  0  0
 80152  1  0  0  0
 81153  1  0  0  0
 81154  1  0  0  0
 83155  1  0  0  0
M  ISO  4   1 100  68 101  81 101  83 100
M  END
> <chiral flag>
0

> <version>
0

> <s_m_source_file>
/data/baiqing/PycharmProjects/Reinvent-master-3.2/result/LINK_invent/BTK/process_docking_weight1_custom_product_contain_oxygen_bond_distance_aromatic_linkinvent_7_9_3/rearranged_h_0113.sdf

> <i_m_source_file_index>
64

> <r_mmod_Potential_Energy-OPLS-2005>
114.198402404785

> <r_mmod_Stretch_Energy-OPLS-2005>
66.270263671875

> <r_mmod_Bend_Energy-OPLS-2005>
141.076599121094

> <r_mmod_Torsional_Energy-OPLS-2005>
298.081207275391

> <r_mmod_Improper_Torsional_Energy-OPLS-2005>
9.56194591522217

> <r_mmod_Van_der_Waal_Energy-OPLS-2005>
139.423187255859

> <r_mmod_Electrostatic_Energy-OPLS-2005>
-356.388458251953

> <r_mmod_Solvation_Energy-OPLS-2005>
-222.153518676758

> <b_mmod_Minimization_Converged-OPLS-2005>
0

> <r_mmod_RMS_Derivative-OPLS-2005>
9.4077033996582

$$$$
64
                    3D
 Structure written by MMmdl.
153161  0  0  1  0            999 V2000
  -30.6890  -14.5643   20.5033 C   0  0  0  0  0  0
  -30.4097  -12.3423   19.4442 C   0  0  0  0  0  0
  -29.4950  -12.4959   18.2126 C   0  0  0  0  0  0
  -28.0172  -12.3509   18.6259 C   0  0  0  0  0  0
  -27.6486  -13.2201   19.8600 C   0  0  2  0  0  0
  -28.6958  -13.0818   20.9891 C   0  0  0  0  0  0
  -25.2548  -13.8177   20.5713 C   0  0  0  0  0  0
  -24.1818  -13.0433   20.9184 C   0  0  0  0  0  0
  -24.6384  -11.6906   20.8732 C   0  0  0  0  0  0
  -23.9064  -10.4285   21.0412 C   0  0  0  0  0  0
  -24.3620   -9.4199   21.9186 C   0  0  0  0  0  0
  -23.6295   -8.2238   22.0762 C   0  0  0  0  0  0
  -22.4276   -8.0273   21.3556 C   0  0  0  0  0  0
  -21.9907   -9.0239   20.4655 C   0  0  0  0  0  0
  -22.7235  -10.2121   20.3064 C   0  0  0  0  0  0
  -21.6846   -6.0730   22.5274 C   0  0  0  0  0  0
  -21.4003   -6.5633   23.8208 C   0  0  0  0  0  0
  -21.3677   -5.6793   24.9169 C   0  0  0  0  0  0
  -21.6049   -4.3054   24.7232 C   0  0  0  0  0  0
  -21.8814   -3.8144   23.4347 C   0  0  0  0  0  0
  -21.9186   -4.6958   22.3400 C   0  0  0  0  0  0
  -22.7844  -13.5225   21.1857 C   0  0  0  0  0  0
  -22.1652   -4.2146   21.0980 F   0  0  0  0  0  0
  -21.5650   -3.4539   25.7746 F   0  0  0  0  0  0
  -30.0101  -13.3822   20.4108 N   0  0  0  0  0  0
  -26.2972  -12.9361   20.3334 N   0  0  0  0  0  0
  -25.9319  -11.6510   20.5772 N   0  0  0  0  0  0
  -22.0491  -12.8211   22.0408 N   0  0  0  0  0  0
  -25.4234  -15.1909   20.4199 N   0  0  0  0  0  0
  -31.8750  -14.6227   20.1671 O   0  0  0  0  0  0
  -21.6640   -6.8872   21.4240 O   0  0  0  0  0  0
  -22.3529  -14.5537   20.6713 O   0  0  0  0  0  0
  -24.6193  -31.8639   23.2092 C   0  0  0  0  0  0
  -25.9048  -32.4818   23.8408 C   0  0  1  0  0  0
  -27.2039  -27.3590   20.1333 C   0  0  0  0  0  0
  -25.5895  -33.8629   24.2320 N   0  0  0  0  0  0
  -23.4106  -30.4880   21.5509 C   0  0  2  0  0  0
  -24.8544  -28.9484   20.1104 C   0  0  0  0  0  0
  -22.7437  -29.4636   22.4987 C   0  0  0  0  0  0
  -18.0281  -28.1383   22.8495 C   0  0  0  0  0  0
  -24.1484  -36.7322   23.2639 C   0  0  0  0  0  0
  -25.9458  -30.8097   21.3705 C   0  0  0  0  0  0
  -26.0202  -29.4405   20.7129 C   0  0  0  0  0  0
  -27.2058  -28.6577   20.7110 C   0  0  0  0  0  0
  -26.0278  -26.9030   19.5053 C   0  0  0  0  0  0
  -24.8590  -27.6870   19.4910 C   0  0  0  0  0  0
  -23.6207  -29.8235   20.1639 C   0  0  0  0  0  0
  -25.4105  -36.3124   24.0342 C   0  0  1  0  0  0
  -20.5870  -28.3679   23.1323 C   0  0  2  0  0  0
  -20.6789  -26.9430   22.5411 C   0  0  0  0  0  0
  -19.5758  -26.6383   21.5213 C   0  0  0  0  0  0
  -18.1939  -26.7929   22.1614 C   0  0  0  0  0  0
  -19.1524  -28.8846   23.2902 C   0  0  0  0  0  0
  -18.9449  -30.1462   23.8901 C   0  0  0  0  0  0
  -17.6454  -30.6596   24.0565 C   0  0  0  0  0  0
  -25.9030  -34.9485   23.5126 C   0  0  0  0  0  0
  -16.5348  -29.9093   23.6338 C   0  0  0  0  0  0
  -16.7270  -28.6507   23.0356 C   0  0  0  0  0  0
  -26.4455  -31.6618   25.0755 C   0  0  0  0  0  0
  -25.3690  -31.3731   26.1481 C   0  0  0  0  0  0
  -27.0295  -30.3061   24.6171 C   0  0  0  0  0  0
  -27.6037  -32.4351   25.7478 C   0  0  0  0  0  0
  -27.5596  -37.1807   24.8459 C   0  0  0  0  0  0
  -21.4156  -29.3044   22.3719 N   0  0  0  0  0  0
  -26.4298  -37.3813   23.9416 N   0  0  0  0  0  0
  -24.6781  -31.0674   22.1029 N   0  0  0  0  0  0
  -23.4174  -28.8168   23.3054 O   0  0  0  0  0  0
  -28.3044  -26.5181   20.1932 O   0  0  0  0  0  0
  -26.5584  -34.8929   22.4690 O   0  0  0  0  0  0
  -23.5365  -32.1425   23.7447 O   0  0  0  0  0  0
  -29.8149  -19.4497   20.4251 C   0  0  0  0  0  0
  -29.3766  -18.1040   20.6914 C   0  0  0  0  0  0
  -28.6712  -20.1844   20.2541 C   0  0  0  0  0  0
  -30.3957  -16.9694   20.8194 C   0  0  0  0  0  0
  -26.1871  -19.5707   20.3567 C   0  0  0  0  0  0
  -28.3950  -23.9365   19.9867 C   0  0  0  0  0  0
  -28.0706  -25.2185   20.8339 C   0  0  0  0  0  0
  -28.1195  -22.5295   20.6469 C   0  0  0  0  0  0
  -28.0432  -18.0499   20.7467 N   0  0  0  0  0  0
  -27.6107  -19.3153   20.4642 N   0  0  0  0  0  0
  -29.9467  -15.6848   20.7434 N   0  0  0  0  0  0
  -31.5878  -17.2778   20.9462 O   0  0  0  0  0  0
  -28.5258  -21.4595   19.7636 O   0  0  0  0  0  0
  -31.4588  -12.4112   19.1532 H   0  0  0  0  0  0
  -30.2890  -11.3509   19.8852 H   0  0  0  0  0  0
  -29.7481  -11.7514   17.4567 H   0  0  0  0  0  0
  -29.6544  -13.4717   17.7503 H   0  0  0  0  0  0
  -27.8410  -11.2975   18.8491 H   0  0  0  0  0  0
  -27.3651  -12.5951   17.7849 H   0  0  0  0  0  0
  -27.6646  -14.2556   19.5182 H   0  0  0  0  0  0
  -28.6923  -12.0684   21.3951 H   0  0  0  0  0  0
  -28.4659  -13.7431   21.8261 H   0  0  0  0  0  0
  -25.2765   -9.5673   22.4766 H   0  0  0  0  0  0
  -23.9997   -7.4629   22.7483 H   0  0  0  0  0  0
  -21.0840   -8.8750   19.8964 H   0  0  0  0  0  0
  -22.3680  -10.9660   19.6183 H   0  0  0  0  0  0
  -21.1971   -7.6138   23.9708 H   0  0  0  0  0  0
  -21.1522   -6.0528   25.9080 H   0  0  0  0  0  0
  -22.0578   -2.7609   23.2849 H   0  0  0  0  0  0
  -22.4094  -11.9858   22.4785 H   0  0  0  0  0  0
  -21.1123  -13.1262   22.2639 H   0  0  0  0  0  0
  -24.6589  -15.8416   20.5641 H   0  0  0  0  0  0
  -26.2849  -15.6539   20.1595 H   0  0  0  0  0  0
  -26.7108  -32.5481   23.1144 H   0  0  0  0  0  0
  -25.0066  -33.9815   25.0480 H   0  0  0  0  0  0
  -22.7025  -31.3070   21.4111 H   0  0  0  0  0  0
  -23.3768  -35.9636   23.3283 H   0  0  0  0  0  0
  -24.3579  -36.8952   22.2061 H   0  0  0  0  0  0
  -23.7197  -37.6505   23.6656 H   0  0  0  0  0  0
  -26.0614  -31.5737   20.6006 H   0  0  0  0  0  0
  -26.8348  -30.8654   21.9879 H   0  0  0  0  0  0
  -28.1035  -29.0235   21.1888 H   0  0  0  0  0  0
  -26.0036  -25.9233   19.0493 H   0  0  0  0  0  0
  -23.9652  -27.3059   19.0157 H   0  0  0  0  0  0
  -23.7344  -30.6003   19.4086 H   0  0  0  0  0  0
  -22.7424  -29.2497   19.8626 H   0  0  0  0  0  0
  -25.1273  -36.2010   25.0838 H   0  0  0  0  0  0
  -20.9951  -28.3245   24.1448 H   0  0  0  0  0  0
  -20.5715  -26.2288   23.3589 H   0  0  0  0  0  0
  -21.6649  -26.7495   22.1179 H   0  0  0  0  0  0
  -19.6939  -25.6281   21.1268 H   0  0  0  0  0  0
  -19.6713  -27.3167   20.6721 H   0  0  0  0  0  0
  -17.4208  -26.6695   21.4005 H   0  0  0  0  0  0
  -18.0349  -26.0060   22.9000 H   0  0  0  0  0  0
  -19.7922  -30.7299   24.2248 H   0  0  0  0  0  0
  -17.5008  -31.6274   24.5169 H   0  0  0  0  0  0
  -15.5350  -30.3002   23.7668 H   0  0  0  0  0  0
  -15.8660  -28.0834   22.7075 H   0  0  0  0  0  0
  -24.5845  -30.7110   25.7782 H   0  0  0  0  0  0
  -24.8889  -32.2890   26.4947 H   0  0  0  0  0  0
  -25.8009  -30.8849   27.0229 H   0  0  0  0  0  0
  -26.2866  -29.6820   24.1185 H   0  0  0  0  0  0
  -27.4001  -29.7306   25.4666 H   0  0  0  0  0  0
  -27.8728  -30.4373   23.9384 H   0  0  0  0  0  0
  -27.2674  -33.3656   26.2060 H   0  0  0  0  0  0
  -28.3807  -32.6913   25.0261 H   0  0  0  0  0  0
  -28.0743  -31.8470   26.5363 H   0  0  0  0  0  0
  -28.2588  -38.0131   24.7566 H   0  0  0  0  0  0
  -28.1122  -36.2673   24.6213 H   0  0  0  0  0  0
  -27.2329  -37.1373   25.8861 H   0  0  0  0  0  0
  -20.9342  -29.8747   21.6904 H   0  0  0  0  0  0
  -26.0202  -38.2893   24.1431 H   0  0  0  0  0  0
  -30.8299  -19.7988   20.3032 H   0  0  0  0  0  0
  -26.0027  -20.3052   19.5735 H   0  0  0  0  0  0
  -25.8095  -19.9583   21.3031 H   0  0  0  0  0  0
  -25.6498  -18.6538   20.1072 H   0  0  0  0  0  0
  -29.4503  -23.9746   19.7190 H   0  0  0  0  0  0
  -27.8444  -23.9949   19.0479 H   0  0  0  0  0  0
  -28.7010  -25.1958   21.7246 H   0  0  0  0  0  0
  -27.0510  -25.1438   21.2201 H   0  0  0  0  0  0
  -27.0541  -22.4240   20.8596 H   0  0  0  0  0  0
  -28.6465  -22.4439   21.5995 H   0  0  0  0  0  0
  -28.9478  -15.5865   20.7782 H   0  0  0  0  0  0
  1 25  1  0  0  0
  1 30  2  0  0  0
  1 81  1  0  0  0
  2  3  1  0  0  0
  2 25  1  0  0  0
  2 84  1  0  0  0
  2 85  1  0  0  0
  3  4  1  0  0  0
  3 86  1  0  0  0
  3 87  1  0  0  0
  4  5  1  0  0  0
  4 88  1  0  0  0
  4 89  1  0  0  0
  5  6  1  0  0  0
  5 26  1  0  0  0
  5 90  1  0  0  0
  6 25  1  0  0  0
  6 91  1  0  0  0
  6 92  1  0  0  0
  7  8  2  0  0  0
  7 26  1  0  0  0
  7 29  1  0  0  0
  8  9  1  0  0  0
  8 22  1  0  0  0
  9 10  1  0  0  0
  9 27  2  0  0  0
 10 11  2  0  0  0
 10 15  1  0  0  0
 11 12  1  0  0  0
 11 93  1  0  0  0
 12 13  2  0  0  0
 12 94  1  0  0  0
 13 14  1  0  0  0
 13 31  1  0  0  0
 14 15  2  0  0  0
 14 95  1  0  0  0
 15 96  1  0  0  0
 16 17  2  0  0  0
 16 21  1  0  0  0
 16 31  1  0  0  0
 17 18  1  0  0  0
 17 97  1  0  0  0
 18 19  2  0  0  0
 18 98  1  0  0  0
 19 20  1  0  0  0
 19 24  1  0  0  0
 20 21  2  0  0  0
 20 99  1  0  0  0
 21 23  1  0  0  0
 22 28  1  0  0  0
 22 32  2  0  0  0
 26 27  1  0  0  0
 28100  1  0  0  0
 28101  1  0  0  0
 29102  1  0  0  0
 29103  1  0  0  0
 33 34  1  0  0  0
 33 66  1  0  0  0
 33 70  2  0  0  0
 34 36  1  0  0  0
 34 59  1  0  0  0
 34104  1  0  0  0
 35 44  2  0  0  0
 35 45  1  0  0  0
 35 68  1  0  0  0
 36 56  1  0  0  0
 36105  1  0  0  0
 37 39  1  0  0  0
 37 47  1  0  0  0
 37 66  1  0  0  0
 37106  1  0  0  0
 38 43  2  0  0  0
 38 46  1  0  0  0
 38 47  1  0  0  0
 39 64  1  0  0  0
 39 67  2  0  0  0
 40 52  1  0  0  0
 40 53  2  0  0  0
 40 58  1  0  0  0
 41107  1  0  0  0
 41108  1  0  0  0
 41109  1  0  0  0
 41 48  1  0  0  0
 42 43  1  0  0  0
 42 66  1  0  0  0
 42110  1  0  0  0
 42111  1  0  0  0
 43 44  1  0  0  0
 44112  1  0  0  0
 45 46  2  0  0  0
 45113  1  0  0  0
 46114  1  0  0  0
 47115  1  0  0  0
 47116  1  0  0  0
 48 56  1  0  0  0
 48 65  1  0  0  0
 48117  1  0  0  0
 49 50  1  0  0  0
 49 53  1  0  0  0
 49 64  1  0  0  0
 49118  1  0  0  0
 50 51  1  0  0  0
 50119  1  0  0  0
 50120  1  0  0  0
 51 52  1  0  0  0
 51121  1  0  0  0
 51122  1  0  0  0
 52123  1  0  0  0
 52124  1  0  0  0
 53 54  1  0  0  0
 54 55  2  0  0  0
 54125  1  0  0  0
 55 57  1  0  0  0
 55126  1  0  0  0
 56 69  2  0  0  0
 57 58  2  0  0  0
 57127  1  0  0  0
 58128  1  0  0  0
 59 60  1  0  0  0
 59 61  1  0  0  0
 59 62  1  0  0  0
 60129  1  0  0  0
 60130  1  0  0  0
 60131  1  0  0  0
 61132  1  0  0  0
 61133  1  0  0  0
 61134  1  0  0  0
 62135  1  0  0  0
 62136  1  0  0  0
 62137  1  0  0  0
 63 65  1  0  0  0
 63138  1  0  0  0
 63139  1  0  0  0
 63140  1  0  0  0
 64141  1  0  0  0
 65142  1  0  0  0
 68 77  1  0  0  0
 71 72  1  0  0  0
 71 73  2  0  0  0
 71143  1  0  0  0
 72 74  1  0  0  0
 72 79  2  0  0  0
 73 80  1  0  0  0
 73 83  1  0  0  0
 74 81  1  0  0  0
 74 82  2  0  0  0
 75 80  1  0  0  0
 75144  1  0  0  0
 75145  1  0  0  0
 75146  1  0  0  0
 76 77  1  0  0  0
 76 78  1  0  0  0
 76147  1  0  0  0
 76148  1  0  0  0
 77149  1  0  0  0
 77150  1  0  0  0
 78 83  1  0  0  0
 78151  1  0  0  0
 78152  1  0  0  0
 79 80  1  0  0  0
 81153  1  0  0  0
M  ISO  4   1 100  68 101  77 101  81 100
M  END
> <chiral flag>
0

> <version>
0

> <s_m_source_file>
/data/baiqing/PycharmProjects/Reinvent-master-3.2/result/LINK_invent/BTK/process_docking_weight1_custom_product_contain_oxygen_bond_distance_aromatic_linkinvent_7_9_3/rearranged_h_0113.sdf

> <i_m_source_file_index>
65

> <r_mmod_Potential_Energy-OPLS-2005>
-104.747253417969

> <r_mmod_Stretch_Energy-OPLS-2005>
53.0138473510742

> <r_mmod_Bend_Energy-OPLS-2005>
112.541557312012

> <r_mmod_Torsional_Energy-OPLS-2005>
261.627563476562

> <r_mmod_Improper_Torsional_Energy-OPLS-2005>
6.93352174758911

> <r_mmod_Van_der_Waal_Energy-OPLS-2005>
124.904647827148

> <r_mmod_Electrostatic_Energy-OPLS-2005>
-485.569946289062

> <r_mmod_Solvation_Energy-OPLS-2005>
-215.14762878418

> <b_mmod_Minimization_Converged-OPLS-2005>
0

> <r_mmod_RMS_Derivative-OPLS-2005>
2.77545547485352

$$$$
65
                    3D
 Structure written by MMmdl.
152160  0  0  1  0            999 V2000
  -30.4974  -15.0333   20.3971 C   0  0  0  0  0  0
  -30.4472  -12.6416   19.5018 C   0  0  0  0  0  0
  -29.5262  -12.5367   18.2620 C   0  0  0  0  0  0
  -28.0620  -12.3093   18.6834 C   0  0  0  0  0  0
  -27.6274  -13.2515   19.8359 C   0  0  2  0  0  0
  -28.6712  -13.3085   20.9715 C   0  0  0  0  0  0
  -25.2451  -13.8208   20.5717 C   0  0  0  0  0  0
  -24.1781  -13.0427   20.9244 C   0  0  0  0  0  0
  -24.6408  -11.6917   20.8768 C   0  0  0  0  0  0
  -23.9093  -10.4289   21.0420 C   0  0  0  0  0  0
  -24.3640   -9.4201   21.9191 C   0  0  0  0  0  0
  -23.6305   -8.2242   22.0757 C   0  0  0  0  0  0
  -22.4285   -8.0290   21.3549 C   0  0  0  0  0  0
  -21.9927   -9.0269   20.4653 C   0  0  0  0  0  0
  -22.7263  -10.2144   20.3069 C   0  0  0  0  0  0
  -21.6855   -6.0746   22.5281 C   0  0  0  0  0  0
  -21.4019   -6.5649   23.8215 C   0  0  0  0  0  0
  -21.3653   -5.6796   24.9173 C   0  0  0  0  0  0
  -21.6042   -4.3059   24.7223 C   0  0  0  0  0  0
  -21.8816   -3.8154   23.4342 C   0  0  0  0  0  0
  -21.9194   -4.6974   22.3398 C   0  0  0  0  0  0
  -22.7800  -13.5199   21.1891 C   0  0  0  0  0  0
  -22.1661   -4.2159   21.0976 F   0  0  0  0  0  0
  -21.5620   -3.4539   25.7732 F   0  0  0  0  0  0
  -29.9356  -13.7494   20.3645 N   0  0  0  0  0  0
  -26.2883  -12.9453   20.3246 N   0  0  0  0  0  0
  -25.9342  -11.6579   20.5756 N   0  0  0  0  0  0
  -22.0449  -12.8193   22.0450 N   0  0  0  0  0  0
  -25.4072  -15.1936   20.4119 N   0  0  0  0  0  0
  -31.7069  -15.1050   20.1506 O   0  0  0  0  0  0
  -21.6641   -6.8894   21.4247 O   0  0  0  0  0  0
  -22.3488  -14.5500   20.6723 O   0  0  0  0  0  0
  -24.6495  -31.8382   23.1827 C   0  0  0  0  0  0
  -25.9236  -32.4663   23.8243 C   0  0  1  0  0  0
  -27.2202  -27.0721   20.1567 C   0  0  0  0  0  0
  -25.5959  -33.8469   24.2160 N   0  0  0  0  0  0
  -23.4581  -30.4552   21.5292 C   0  0  2  0  0  0
  -24.9099  -28.8712   20.1094 C   0  0  0  0  0  0
  -22.7605  -29.4510   22.4823 C   0  0  0  0  0  0
  -18.0317  -28.1403   22.8471 C   0  0  0  0  0  0
  -24.1487  -36.7239   23.2639 C   0  0  0  0  0  0
  -26.0185  -30.6907   21.3919 C   0  0  0  0  0  0
  -26.0896  -29.2951   20.7342 C   0  0  0  0  0  0
  -27.2435  -28.4126   20.7398 C   0  0  0  0  0  0
  -26.0131  -26.7678   19.4883 C   0  0  0  0  0  0
  -24.8882  -27.6232   19.4696 C   0  0  0  0  0  0
  -23.6897  -29.7822   20.1499 C   0  0  0  0  0  0
  -25.4119  -36.3011   24.0311 C   0  0  1  0  0  0
  -20.5934  -28.3734   23.1219 C   0  0  2  0  0  0
  -20.6797  -26.9427   22.5403 C   0  0  0  0  0  0
  -19.5770  -26.6382   21.5212 C   0  0  0  0  0  0
  -18.1956  -26.7939   22.1625 C   0  0  0  0  0  0
  -19.1576  -28.8887   23.2841 C   0  0  0  0  0  0
  -18.9485  -30.1477   23.8873 C   0  0  0  0  0  0
  -17.6481  -30.6591   24.0564 C   0  0  0  0  0  0
  -25.9081  -34.9389   23.5053 C   0  0  0  0  0  0
  -16.5374  -29.9083   23.6335 C   0  0  0  0  0  0
  -16.7301  -28.6506   23.0351 C   0  0  0  0  0  0
  -26.4533  -31.6547   25.0708 C   0  0  0  0  0  0
  -25.3701  -31.3767   26.1398 C   0  0  0  0  0  0
  -27.0396  -30.2929   24.6332 C   0  0  0  0  0  0
  -27.6058  -32.4318   25.7494 C   0  0  0  0  0  0
  -27.5579  -37.1764   24.8455 C   0  0  0  0  0  0
  -21.4289  -29.3046   22.3573 N   0  0  0  0  0  0
  -26.4272  -37.3739   23.9425 N   0  0  0  0  0  0
  -24.7291  -31.0173   22.0897 N   0  0  0  0  0  0
  -23.4216  -28.8068   23.3005 O   0  0  0  0  0  0
  -28.2467  -26.0379   20.2356 O   0  0  0  0  0  0
  -26.5678  -34.8903   22.4638 O   0  0  0  0  0  0
  -23.5595  -32.1283   23.7001 O   0  0  0  0  0  0
  -29.7755  -17.7557   20.4163 C   0  0  0  0  0  0
  -30.9230  -18.6169   20.4971 C   0  0  0  0  0  0
  -28.7718  -18.7602   20.2860 C   0  0  0  0  0  0
  -28.9200  -23.1924   20.3683 C   0  0  0  0  0  0
  -32.3571  -18.2142   20.6726 C   0  0  0  0  0  0
  -27.3070  -18.5254   20.1218 C   0  0  0  0  0  0
  -28.5549  -21.5733   20.0534 C   0  0  0  0  0  0
  -27.9249  -24.5026   19.9911 C   0  0  0  0  0  0
  -30.6278  -19.9496   20.4077 N   0  0  0  0  0  0
  -29.2730  -20.1359   20.2963 N   0  0  0  0  0  0
  -29.6575  -16.1977   20.4882 N   0  0  0  0  0  0
  -29.9974  -23.4417   20.9204 O   0  0  0  0  0  0
  -31.4758  -12.8205   19.1841 H   0  0  0  0  0  0
  -30.4658  -11.6996   20.0528 H   0  0  0  0  0  0
  -29.8566  -11.7267   17.6097 H   0  0  0  0  0  0
  -29.5996  -13.4530   17.6741 H   0  0  0  0  0  0
  -27.9714  -11.2713   19.0047 H   0  0  0  0  0  0
  -27.3972  -12.4233   17.8266 H   0  0  0  0  0  0
  -27.5791  -14.2458   19.3919 H   0  0  0  0  0  0
  -28.7808  -12.3380   21.4573 H   0  0  0  0  0  0
  -28.3584  -14.0098   21.7473 H   0  0  0  0  0  0
  -25.2790   -9.5659   22.4765 H   0  0  0  0  0  0
  -24.0001   -7.4631   22.7476 H   0  0  0  0  0  0
  -21.0853   -8.8810   19.8960 H   0  0  0  0  0  0
  -22.3733  -10.9696   19.6183 H   0  0  0  0  0  0
  -21.2022   -7.6156   23.9726 H   0  0  0  0  0  0
  -21.1470   -6.0521   25.9075 H   0  0  0  0  0  0
  -22.0598   -2.7615   23.2841 H   0  0  0  0  0  0
  -22.4082  -11.9868   22.4847 H   0  0  0  0  0  0
  -21.1070  -13.1224   22.2657 H   0  0  0  0  0  0
  -24.6258  -15.8324   20.5119 H   0  0  0  0  0  0
  -26.2283  -15.6306   20.0172 H   0  0  0  0  0  0
  -26.7307  -32.5251   23.0972 H   0  0  0  0  0  0
  -25.0054  -33.9573   25.0272 H   0  0  0  0  0  0
  -22.7642  -31.2832   21.3698 H   0  0  0  0  0  0
  -23.3765  -35.9551   23.3254 H   0  0  0  0  0  0
  -24.3579  -36.8922   22.2064 H   0  0  0  0  0  0
  -23.7217  -37.6408   23.6713 H   0  0  0  0  0  0
  -26.1801  -31.4402   20.6161 H   0  0  0  0  0  0
  -26.8867  -30.7457   22.0365 H   0  0  0  0  0  0
  -28.1383  -28.7301   21.2566 H   0  0  0  0  0  0
  -25.9006  -25.8157   18.9921 H   0  0  0  0  0  0
  -23.9899  -27.2947   18.9645 H   0  0  0  0  0  0
  -23.8344  -30.5568   19.3957 H   0  0  0  0  0  0
  -22.8025  -29.2307   19.8337 H   0  0  0  0  0  0
  -25.1301  -36.1828   25.0800 H   0  0  0  0  0  0
  -21.0034  -28.3337   24.1337 H   0  0  0  0  0  0
  -20.5680  -26.2349   23.3630 H   0  0  0  0  0  0
  -21.6664  -26.7418   22.1209 H   0  0  0  0  0  0
  -19.6932  -25.6288   21.1252 H   0  0  0  0  0  0
  -19.6708  -27.3182   20.6734 H   0  0  0  0  0  0
  -17.4219  -26.6676   21.4038 H   0  0  0  0  0  0
  -18.0364  -26.0093   22.9034 H   0  0  0  0  0  0
  -19.7959  -30.7304   24.2236 H   0  0  0  0  0  0
  -17.5028  -31.6265   24.5177 H   0  0  0  0  0  0
  -15.5372  -30.2974   23.7671 H   0  0  0  0  0  0
  -15.8704  -28.0814   22.7077 H   0  0  0  0  0  0
  -24.5870  -30.7133   25.7719 H   0  0  0  0  0  0
  -24.8906  -32.2960   26.4770 H   0  0  0  0  0  0
  -25.7960  -30.8964   27.0216 H   0  0  0  0  0  0
  -26.3023  -29.6646   24.1325 H   0  0  0  0  0  0
  -27.3967  -29.7247   25.4932 H   0  0  0  0  0  0
  -27.8953  -30.4146   23.9687 H   0  0  0  0  0  0
  -27.2653  -33.3640   26.2018 H   0  0  0  0  0  0
  -28.3896  -32.6846   25.0337 H   0  0  0  0  0  0
  -28.0702  -31.8479   26.5454 H   0  0  0  0  0  0
  -28.2549  -38.0108   24.7556 H   0  0  0  0  0  0
  -28.1124  -36.2641   24.6202 H   0  0  0  0  0  0
  -27.2314  -37.1310   25.8860 H   0  0  0  0  0  0
  -20.9514  -29.8738   21.6720 H   0  0  0  0  0  0
  -26.0129  -38.2791   24.1480 H   0  0  0  0  0  0
  -32.7749  -17.8409   19.7380 H   0  0  0  0  0  0
  -32.4525  -17.4233   21.4158 H   0  0  0  0  0  0
  -32.9746  -19.0479   21.0073 H   0  0  0  0  0  0
  -27.1184  -17.5547   19.6654 H   0  0  0  0  0  0
  -26.8557  -19.2787   19.4768 H   0  0  0  0  0  0
  -26.7988  -18.5519   21.0856 H   0  0  0  0  0  0
  -28.3449  -21.5842   18.9839 H   0  0  0  0  0  0
  -27.5693  -21.4616   20.5042 H   0  0  0  0  0  0
  -26.9810  -24.2992   20.4973 H   0  0  0  0  0  0
  -27.7085  -24.4015   18.9278 H   0  0  0  0  0  0
  -28.7011  -15.8991   20.5989 H   0  0  0  0  0  0
  1 25  1  0  0  0
  1 30  2  0  0  0
  1 81  1  0  0  0
  2  3  1  0  0  0
  2 25  1  0  0  0
  2 83  1  0  0  0
  2 84  1  0  0  0
  3  4  1  0  0  0
  3 85  1  0  0  0
  3 86  1  0  0  0
  4  5  1  0  0  0
  4 87  1  0  0  0
  4 88  1  0  0  0
  5  6  1  0  0  0
  5 26  1  0  0  0
  5 89  1  0  0  0
  6 25  1  0  0  0
  6 90  1  0  0  0
  6 91  1  0  0  0
  7  8  2  0  0  0
  7 26  1  0  0  0
  7 29  1  0  0  0
  8  9  1  0  0  0
  8 22  1  0  0  0
  9 10  1  0  0  0
  9 27  2  0  0  0
 10 11  2  0  0  0
 10 15  1  0  0  0
 11 12  1  0  0  0
 11 92  1  0  0  0
 12 13  2  0  0  0
 12 93  1  0  0  0
 13 14  1  0  0  0
 13 31  1  0  0  0
 14 15  2  0  0  0
 14 94  1  0  0  0
 15 95  1  0  0  0
 16 17  2  0  0  0
 16 21  1  0  0  0
 16 31  1  0  0  0
 17 18  1  0  0  0
 17 96  1  0  0  0
 18 19  2  0  0  0
 18 97  1  0  0  0
 19 20  1  0  0  0
 19 24  1  0  0  0
 20 21  2  0  0  0
 20 98  1  0  0  0
 21 23  1  0  0  0
 22 28  1  0  0  0
 22 32  2  0  0  0
 26 27  1  0  0  0
 28 99  1  0  0  0
 28100  1  0  0  0
 29101  1  0  0  0
 29102  1  0  0  0
 33 34  1  0  0  0
 33 66  1  0  0  0
 33 70  2  0  0  0
 34 36  1  0  0  0
 34 59  1  0  0  0
 34103  1  0  0  0
 35 44  2  0  0  0
 35 45  1  0  0  0
 35 68  1  0  0  0
 36 56  1  0  0  0
 36104  1  0  0  0
 37 39  1  0  0  0
 37 47  1  0  0  0
 37 66  1  0  0  0
 37105  1  0  0  0
 38 43  2  0  0  0
 38 46  1  0  0  0
 38 47  1  0  0  0
 39 64  1  0  0  0
 39 67  2  0  0  0
 40 52  1  0  0  0
 40 53  2  0  0  0
 40 58  1  0  0  0
 41106  1  0  0  0
 41107  1  0  0  0
 41108  1  0  0  0
 41 48  1  0  0  0
 42 43  1  0  0  0
 42 66  1  0  0  0
 42109  1  0  0  0
 42110  1  0  0  0
 43 44  1  0  0  0
 44111  1  0  0  0
 45 46  2  0  0  0
 45112  1  0  0  0
 46113  1  0  0  0
 47114  1  0  0  0
 47115  1  0  0  0
 48 56  1  0  0  0
 48 65  1  0  0  0
 48116  1  0  0  0
 49 50  1  0  0  0
 49 53  1  0  0  0
 49 64  1  0  0  0
 49117  1  0  0  0
 50 51  1  0  0  0
 50118  1  0  0  0
 50119  1  0  0  0
 51 52  1  0  0  0
 51120  1  0  0  0
 51121  1  0  0  0
 52122  1  0  0  0
 52123  1  0  0  0
 53 54  1  0  0  0
 54 55  2  0  0  0
 54124  1  0  0  0
 55 57  1  0  0  0
 55125  1  0  0  0
 56 69  2  0  0  0
 57 58  2  0  0  0
 57126  1  0  0  0
 58127  1  0  0  0
 59 60  1  0  0  0
 59 61  1  0  0  0
 59 62  1  0  0  0
 60128  1  0  0  0
 60129  1  0  0  0
 60130  1  0  0  0
 61131  1  0  0  0
 61132  1  0  0  0
 61133  1  0  0  0
 62134  1  0  0  0
 62135  1  0  0  0
 62136  1  0  0  0
 63 65  1  0  0  0
 63137  1  0  0  0
 63138  1  0  0  0
 63139  1  0  0  0
 64140  1  0  0  0
 65141  1  0  0  0
 68 78  1  0  0  0
 71 72  1  0  0  0
 71 73  2  0  0  0
 71 81  1  0  0  0
 72 75  1  0  0  0
 72 79  2  0  0  0
 73 76  1  0  0  0
 73 80  1  0  0  0
 74 77  1  0  0  0
 74 78  1  0  0  0
 74 82  2  0  0  0
 75142  1  0  0  0
 75143  1  0  0  0
 75144  1  0  0  0
 76145  1  0  0  0
 76146  1  0  0  0
 76147  1  0  0  0
 77 80  1  0  0  0
 77148  1  0  0  0
 77149  1  0  0  0
 78150  1  0  0  0
 78151  1  0  0  0
 79 80  1  0  0  0
 81152  1  0  0  0
M  ISO  4   1 100  68 101  78 101  81 100
M  END
> <chiral flag>
0

> <version>
0

> <s_m_source_file>
/data/baiqing/PycharmProjects/Reinvent-master-3.2/result/LINK_invent/BTK/process_docking_weight1_custom_product_contain_oxygen_bond_distance_aromatic_linkinvent_7_9_3/rearranged_h_0113.sdf

> <i_m_source_file_index>
66

> <r_mmod_Potential_Energy-OPLS-2005>
568.012878417969

> <r_mmod_Stretch_Energy-OPLS-2005>
320.903717041016

> <r_mmod_Bend_Energy-OPLS-2005>
303.341369628906

> <r_mmod_Torsional_Energy-OPLS-2005>
218.536209106445

> <r_mmod_Improper_Torsional_Energy-OPLS-2005>
5.4708833694458

> <r_mmod_Van_der_Waal_Energy-OPLS-2005>
101.210189819336

> <r_mmod_Electrostatic_Energy-OPLS-2005>
-376.262817382812

> <r_mmod_Solvation_Energy-OPLS-2005>
-263.952575683594

> <b_mmod_Minimization_Converged-OPLS-2005>
0

> <r_mmod_RMS_Derivative-OPLS-2005>
1.14872753620148

$$$$
66
                    3D
 Structure written by MMmdl.
160168  0  0  1  0            999 V2000
  -30.6837  -14.6093   20.5742 C   0  0  0  0  0  0
  -30.4272  -12.3916   19.4670 C   0  0  0  0  0  0
  -29.5096  -12.5310   18.2333 C   0  0  0  0  0  0
  -28.0320  -12.3604   18.6340 C   0  0  0  0  0  0
  -27.6552  -13.2206   19.8685 C   0  0  2  0  0  0
  -28.6886  -13.0539   21.0022 C   0  0  0  0  0  0
  -25.2557  -13.8183   20.5677 C   0  0  0  0  0  0
  -24.1824  -13.0440   20.9176 C   0  0  0  0  0  0
  -24.6397  -11.6913   20.8730 C   0  0  0  0  0  0
  -23.9074  -10.4292   21.0408 C   0  0  0  0  0  0
  -24.3621   -9.4206   21.9187 C   0  0  0  0  0  0
  -23.6299   -8.2240   22.0752 C   0  0  0  0  0  0
  -22.4280   -8.0277   21.3540 C   0  0  0  0  0  0
  -21.9915   -9.0253   20.4642 C   0  0  0  0  0  0
  -22.7251  -10.2135   20.3055 C   0  0  0  0  0  0
  -21.6851   -6.0734   22.5277 C   0  0  0  0  0  0
  -21.4012   -6.5640   23.8207 C   0  0  0  0  0  0
  -21.3658   -5.6793   24.9174 C   0  0  0  0  0  0
  -21.6047   -4.3057   24.7224 C   0  0  0  0  0  0
  -21.8823   -3.8149   23.4342 C   0  0  0  0  0  0
  -21.9191   -4.6962   22.3402 C   0  0  0  0  0  0
  -22.7849  -13.5224   21.1865 C   0  0  0  0  0  0
  -22.1664   -4.2148   21.0979 F   0  0  0  0  0  0
  -21.5629   -3.4541   25.7737 F   0  0  0  0  0  0
  -30.0179  -13.4049   20.4670 N   0  0  0  0  0  0
  -26.2988  -12.9372   20.3308 N   0  0  0  0  0  0
  -25.9324  -11.6519   20.5721 N   0  0  0  0  0  0
  -22.0502  -12.8194   22.0414 N   0  0  0  0  0  0
  -25.4297  -15.1905   20.4118 N   0  0  0  0  0  0
  -31.7605  -14.7888   19.9946 O   0  0  0  0  0  0
  -21.6641   -6.8878   21.4237 O   0  0  0  0  0  0
  -22.3525  -14.5532   20.6731 O   0  0  0  0  0  0
  -24.6276  -31.8594   23.2064 C   0  0  0  0  0  0
  -25.9128  -32.4768   23.8399 C   0  0  1  0  0  0
  -27.2244  -27.3200   20.1207 C   0  0  0  0  0  0
  -25.5926  -33.8569   24.2322 N   0  0  0  0  0  0
  -23.4209  -30.4849   21.5496 C   0  0  2  0  0  0
  -24.8696  -28.9429   20.1147 C   0  0  0  0  0  0
  -22.7480  -29.4621   22.4967 C   0  0  0  0  0  0
  -18.0280  -28.1351   22.8499 C   0  0  0  0  0  0
  -24.1482  -36.7278   23.2651 C   0  0  0  0  0  0
  -25.9643  -30.7920   21.3780 C   0  0  0  0  0  0
  -26.0403  -29.4210   20.7176 C   0  0  0  0  0  0
  -27.2228  -28.6212   20.7110 C   0  0  0  0  0  0
  -26.0351  -26.9027   19.4836 C   0  0  0  0  0  0
  -24.8675  -27.6881   19.4896 C   0  0  0  0  0  0
  -23.6365  -29.8222   20.1649 C   0  0  0  0  0  0
  -25.4100  -36.3063   24.0341 C   0  0  1  0  0  0
  -20.5885  -28.3667   23.1275 C   0  0  2  0  0  0
  -20.6761  -26.9391   22.5392 C   0  0  0  0  0  0
  -19.5743  -26.6368   21.5191 C   0  0  0  0  0  0
  -18.1920  -26.7909   22.1611 C   0  0  0  0  0  0
  -19.1534  -28.8829   23.2875 C   0  0  0  0  0  0
  -18.9466  -30.1444   23.8893 C   0  0  0  0  0  0
  -17.6466  -30.6580   24.0550 C   0  0  0  0  0  0
  -25.9039  -34.9430   23.5126 C   0  0  0  0  0  0
  -16.5347  -29.9068   23.6332 C   0  0  0  0  0  0
  -16.7259  -28.6467   23.0386 C   0  0  0  0  0  0
  -26.4513  -31.6572   25.0764 C   0  0  0  0  0  0
  -25.3748  -31.3639   26.1493 C   0  0  0  0  0  0
  -27.0421  -30.3020   24.6206 C   0  0  0  0  0  0
  -27.6085  -32.4322   25.7499 C   0  0  0  0  0  0
  -27.5570  -37.1784   24.8472 C   0  0  0  0  0  0
  -21.4204  -29.3029   22.3683 N   0  0  0  0  0  0
  -26.4286  -37.3753   23.9410 N   0  0  0  0  0  0
  -24.6893  -31.0608   22.1007 N   0  0  0  0  0  0
  -23.4206  -28.8153   23.3037 O   0  0  0  0  0  0
  -28.3278  -26.4526   20.1543 O   0  0  0  0  0  0
  -26.5617  -34.8908   22.4694 O   0  0  0  0  0  0
  -23.5441  -32.1404   23.7393 O   0  0  0  0  0  0
  -30.7303  -17.8184   20.0463 C   0  0  0  0  0  0
  -28.8806  -19.4930   21.2950 C   0  0  0  0  0  0
  -29.9039  -17.2057   21.0308 C   0  0  0  0  0  0
  -28.9344  -18.0980   21.6256 C   0  0  0  0  0  0
  -30.6503  -19.2036   19.7151 C   0  0  0  0  0  0
  -29.7408  -20.0933   20.3457 C   0  0  0  0  0  0
  -27.9739  -17.6308   22.6484 C   0  0  0  0  0  0
  -27.6069  -18.3285   23.7386 C   0  0  0  0  0  0
  -30.1225  -15.7371   21.5129 C   0  0  0  0  0  0
  -29.0969  -23.9431   20.1626 C   0  0  0  0  0  0
  -26.6144  -17.8437   24.7723 C   0  0  0  0  0  0
  -28.0300  -25.0440   20.5345 C   0  0  0  0  0  0
  -28.8333  -22.4384   20.5924 C   0  0  0  0  0  0
  -29.9188  -15.4419   22.7310 N   0  0  0  0  0  0
  -31.5069  -19.7186   18.7449 N   0  0  0  0  0  0
  -30.1261  -24.2517   19.5498 O   0  0  0  0  0  0
  -29.7521  -21.4640   19.9959 O   0  0  0  0  0  0
  -31.4724  -12.4911   19.1718 H   0  0  0  0  0  0
  -30.3431  -11.3891   19.8911 H   0  0  0  0  0  0
  -29.7807  -11.7956   17.4751 H   0  0  0  0  0  0
  -29.6565  -13.5114   17.7772 H   0  0  0  0  0  0
  -27.8702  -11.3051   18.8571 H   0  0  0  0  0  0
  -27.3812  -12.5996   17.7925 H   0  0  0  0  0  0
  -27.6836  -14.2624   19.5473 H   0  0  0  0  0  0
  -28.6919  -12.0241   21.3638 H   0  0  0  0  0  0
  -28.3876  -13.6531   21.8582 H   0  0  0  0  0  0
  -25.2765   -9.5680   22.4766 H   0  0  0  0  0  0
  -24.0003   -7.4628   22.7467 H   0  0  0  0  0  0
  -21.0841   -8.8778   19.8944 H   0  0  0  0  0  0
  -22.3711  -10.9677   19.6155 H   0  0  0  0  0  0
  -21.2005   -7.6149   23.9710 H   0  0  0  0  0  0
  -21.1479   -6.0529   25.9076 H   0  0  0  0  0  0
  -22.0605   -2.7608   23.2850 H   0  0  0  0  0  0
  -22.4122  -11.9825   22.4749 H   0  0  0  0  0  0
  -21.1136  -13.1219   22.2671 H   0  0  0  0  0  0
  -24.6672  -15.8504   20.5197 H   0  0  0  0  0  0
  -26.2860  -15.6247   20.0932 H   0  0  0  0  0  0
  -26.7192  -32.5434   23.1157 H   0  0  0  0  0  0
  -25.0087  -33.9711   25.0474 H   0  0  0  0  0  0
  -22.7149  -31.3049   21.4072 H   0  0  0  0  0  0
  -23.3752  -35.9605   23.3311 H   0  0  0  0  0  0
  -24.3593  -36.8912   22.2070 H   0  0  0  0  0  0
  -23.7263  -37.6479   23.6697 H   0  0  0  0  0  0
  -26.0985  -31.5572   20.6131 H   0  0  0  0  0  0
  -26.8418  -30.8390   22.0106 H   0  0  0  0  0  0
  -28.1214  -28.9819   21.1934 H   0  0  0  0  0  0
  -25.9843  -25.9547   18.9708 H   0  0  0  0  0  0
  -23.9729  -27.3220   19.0078 H   0  0  0  0  0  0
  -23.7534  -30.6011   19.4103 H   0  0  0  0  0  0
  -22.7552  -29.2507   19.8656 H   0  0  0  0  0  0
  -25.1279  -36.1907   25.0832 H   0  0  0  0  0  0
  -20.9963  -28.3243   24.1398 H   0  0  0  0  0  0
  -20.5652  -26.2274   23.3603 H   0  0  0  0  0  0
  -21.6628  -26.7420   22.1191 H   0  0  0  0  0  0
  -19.6905  -25.6280   21.1228 H   0  0  0  0  0  0
  -19.6681  -27.3176   20.6727 H   0  0  0  0  0  0
  -17.4186  -26.6673   21.4005 H   0  0  0  0  0  0
  -18.0314  -26.0036   22.8986 H   0  0  0  0  0  0
  -19.7949  -30.7240   24.2274 H   0  0  0  0  0  0
  -17.5025  -31.6272   24.5134 H   0  0  0  0  0  0
  -15.5350  -30.2961   23.7683 H   0  0  0  0  0  0
  -15.8659  -28.0770   22.7135 H   0  0  0  0  0  0
  -24.5957  -30.6954   25.7808 H   0  0  0  0  0  0
  -24.8881  -32.2753   26.4977 H   0  0  0  0  0  0
  -25.8086  -30.8796   27.0249 H   0  0  0  0  0  0
  -26.3017  -29.6665   24.1330 H   0  0  0  0  0  0
  -27.4287  -29.7362   25.4689 H   0  0  0  0  0  0
  -27.8786  -30.4369   23.9345 H   0  0  0  0  0  0
  -27.2760  -33.3675   26.2018 H   0  0  0  0  0  0
  -28.3908  -32.6791   25.0307 H   0  0  0  0  0  0
  -28.0740  -31.8472   26.5453 H   0  0  0  0  0  0
  -28.2565  -38.0093   24.7542 H   0  0  0  0  0  0
  -28.1093  -36.2630   24.6275 H   0  0  0  0  0  0
  -27.2293  -37.1399   25.8875 H   0  0  0  0  0  0
  -20.9395  -29.8767   21.6898 H   0  0  0  0  0  0
  -26.0161  -38.2819   24.1422 H   0  0  0  0  0  0
  -31.4830  -17.2221   19.5521 H   0  0  0  0  0  0
  -28.1452  -20.1154   21.7832 H   0  0  0  0  0  0
  -27.5224  -16.6617   22.4795 H   0  0  0  0  0  0
  -28.0410  -19.3004   23.9317 H   0  0  0  0  0  0
  -26.1625  -16.8941   24.4844 H   0  0  0  0  0  0
  -25.8167  -18.5763   24.9022 H   0  0  0  0  0  0
  -27.1118  -17.7091   25.7328 H   0  0  0  0  0  0
  -27.8766  -25.0141   21.6132 H   0  0  0  0  0  0
  -27.0956  -24.6984   20.0999 H   0  0  0  0  0  0
  -27.8114  -22.1722   20.3218 H   0  0  0  0  0  0
  -28.9015  -22.3754   21.6783 H   0  0  0  0  0  0
  -29.5944  -16.2506   23.2457 H   0  0  0  0  0  0
  -31.8688  -19.0862   18.0380 H   0  0  0  0  0  0
  -31.2435  -20.6221   18.3603 H   0  0  0  0  0  0
  1 25  1  0  0  0
  1 30  2  0  0  0
  1 79  1  0  0  0
  2  3  1  0  0  0
  2 25  1  0  0  0
  2 88  1  0  0  0
  2 89  1  0  0  0
  3  4  1  0  0  0
  3 90  1  0  0  0
  3 91  1  0  0  0
  4  5  1  0  0  0
  4 92  1  0  0  0
  4 93  1  0  0  0
  5  6  1  0  0  0
  5 26  1  0  0  0
  5 94  1  0  0  0
  6 25  1  0  0  0
  6 95  1  0  0  0
  6 96  1  0  0  0
  7  8  2  0  0  0
  7 26  1  0  0  0
  7 29  1  0  0  0
  8  9  1  0  0  0
  8 22  1  0  0  0
  9 10  1  0  0  0
  9 27  2  0  0  0
 10 11  2  0  0  0
 10 15  1  0  0  0
 11 12  1  0  0  0
 11 97  1  0  0  0
 12 13  2  0  0  0
 12 98  1  0  0  0
 13 14  1  0  0  0
 13 31  1  0  0  0
 14 15  2  0  0  0
 14 99  1  0  0  0
 15100  1  0  0  0
 16 17  2  0  0  0
 16 21  1  0  0  0
 16 31  1  0  0  0
 17 18  1  0  0  0
 17101  1  0  0  0
 18 19  2  0  0  0
 18102  1  0  0  0
 19 20  1  0  0  0
 19 24  1  0  0  0
 20 21  2  0  0  0
 20103  1  0  0  0
 21 23  1  0  0  0
 22 28  1  0  0  0
 22 32  2  0  0  0
 26 27  1  0  0  0
 28104  1  0  0  0
 28105  1  0  0  0
 29106  1  0  0  0
 29107  1  0  0  0
 33 34  1  0  0  0
 33 66  1  0  0  0
 33 70  2  0  0  0
 34 36  1  0  0  0
 34 59  1  0  0  0
 34108  1  0  0  0
 35 44  2  0  0  0
 35 45  1  0  0  0
 35 68  1  0  0  0
 36 56  1  0  0  0
 36109  1  0  0  0
 37 39  1  0  0  0
 37 47  1  0  0  0
 37 66  1  0  0  0
 37110  1  0  0  0
 38 43  2  0  0  0
 38 46  1  0  0  0
 38 47  1  0  0  0
 39 64  1  0  0  0
 39 67  2  0  0  0
 40 52  1  0  0  0
 40 53  2  0  0  0
 40 58  1  0  0  0
 41111  1  0  0  0
 41112  1  0  0  0
 41113  1  0  0  0
 41 48  1  0  0  0
 42 43  1  0  0  0
 42 66  1  0  0  0
 42114  1  0  0  0
 42115  1  0  0  0
 43 44  1  0  0  0
 44116  1  0  0  0
 45 46  2  0  0  0
 45117  1  0  0  0
 46118  1  0  0  0
 47119  1  0  0  0
 47120  1  0  0  0
 48 56  1  0  0  0
 48 65  1  0  0  0
 48121  1  0  0  0
 49 50  1  0  0  0
 49 53  1  0  0  0
 49 64  1  0  0  0
 49122  1  0  0  0
 50 51  1  0  0  0
 50123  1  0  0  0
 50124  1  0  0  0
 51 52  1  0  0  0
 51125  1  0  0  0
 51126  1  0  0  0
 52127  1  0  0  0
 52128  1  0  0  0
 53 54  1  0  0  0
 54 55  2  0  0  0
 54129  1  0  0  0
 55 57  1  0  0  0
 55130  1  0  0  0
 56 69  2  0  0  0
 57 58  2  0  0  0
 57131  1  0  0  0
 58132  1  0  0  0
 59 60  1  0  0  0
 59 61  1  0  0  0
 59 62  1  0  0  0
 60133  1  0  0  0
 60134  1  0  0  0
 60135  1  0  0  0
 61136  1  0  0  0
 61137  1  0  0  0
 61138  1  0  0  0
 62139  1  0  0  0
 62140  1  0  0  0
 62141  1  0  0  0
 63 65  1  0  0  0
 63142  1  0  0  0
 63143  1  0  0  0
 63144  1  0  0  0
 64145  1  0  0  0
 65146  1  0  0  0
 68 82  1  0  0  0
 71 73  2  0  0  0
 71 75  1  0  0  0
 71147  1  0  0  0
 72 74  2  0  0  0
 72 76  1  0  0  0
 72148  1  0  0  0
 73 74  1  0  0  0
 73 79  1  0  0  0
 74 77  1  0  0  0
 75 76  2  0  0  0
 75 85  1  0  0  0
 76 87  1  0  0  0
 77 78  2  0  0  0
 77149  1  0  0  0
 78 81  1  0  0  0
 78150  1  0  0  0
 79 84  2  0  0  0
 80 82  1  0  0  0
 80 83  1  0  0  0
 80 86  2  0  0  0
 81151  1  0  0  0
 81152  1  0  0  0
 81153  1  0  0  0
 82154  1  0  0  0
 82155  1  0  0  0
 83 87  1  0  0  0
 83156  1  0  0  0
 83157  1  0  0  0
 84158  1  0  0  0
 85159  1  0  0  0
 85160  1  0  0  0
M  ISO  4   1 100  68 101  79 100  82 101
M  END
> <chiral flag>
0

> <version>
0

> <s_m_source_file>
/data/baiqing/PycharmProjects/Reinvent-master-3.2/result/LINK_invent/BTK/process_docking_weight1_custom_product_contain_oxygen_bond_distance_aromatic_linkinvent_7_9_3/rearranged_h_0113.sdf

> <i_m_source_file_index>
67

> <r_mmod_Potential_Energy-OPLS-2005>
216.334671020508

> <r_mmod_Stretch_Energy-OPLS-2005>
97.7592926025391

> <r_mmod_Bend_Energy-OPLS-2005>
149.631774902344

> <r_mmod_Torsional_Energy-OPLS-2005>
230.735153198242

> <r_mmod_Improper_Torsional_Energy-OPLS-2005>
7.07009124755859

> <r_mmod_Van_der_Waal_Energy-OPLS-2005>
156.662475585938

> <r_mmod_Electrostatic_Energy-OPLS-2005>
-229.477813720703

> <r_mmod_Solvation_Energy-OPLS-2005>
-239.198699951172

> <b_mmod_Minimization_Converged-OPLS-2005>
0

> <r_mmod_RMS_Derivative-OPLS-2005>
2.4924750328064

$$$$
67
                    3D
 Structure written by MMmdl.
173181  0  0  1  0            999 V2000
  -30.7490  -14.4589   20.4353 C   0  0  0  0  0  0
  -30.3991  -12.2637   19.4486 C   0  0  0  0  0  0
  -29.4908  -12.4638   18.2180 C   0  0  0  0  0  0
  -28.0131  -12.3430   18.6300 C   0  0  0  0  0  0
  -27.6569  -13.2159   19.8646 C   0  0  2  0  0  0
  -28.7040  -13.0834   20.9973 C   0  0  0  0  0  0
  -25.2587  -13.8188   20.5695 C   0  0  0  0  0  0
  -24.1846  -13.0450   20.9176 C   0  0  0  0  0  0
  -24.6421  -11.6916   20.8766 C   0  0  0  0  0  0
  -23.9089  -10.4301   21.0435 C   0  0  0  0  0  0
  -24.3639   -9.4215   21.9210 C   0  0  0  0  0  0
  -23.6310   -8.2255   22.0764 C   0  0  0  0  0  0
  -22.4291   -8.0290   21.3558 C   0  0  0  0  0  0
  -21.9938   -9.0267   20.4657 C   0  0  0  0  0  0
  -22.7271  -10.2145   20.3084 C   0  0  0  0  0  0
  -21.6843   -6.0737   22.5273 C   0  0  0  0  0  0
  -21.4003   -6.5645   23.8210 C   0  0  0  0  0  0
  -21.3658   -5.6801   24.9169 C   0  0  0  0  0  0
  -21.6048   -4.3061   24.7219 C   0  0  0  0  0  0
  -21.8824   -3.8159   23.4341 C   0  0  0  0  0  0
  -21.9191   -4.6971   22.3396 C   0  0  0  0  0  0
  -22.7879  -13.5263   21.1843 C   0  0  0  0  0  0
  -22.1671   -4.2168   21.0969 F   0  0  0  0  0  0
  -21.5630   -3.4547   25.7731 F   0  0  0  0  0  0
  -30.0357  -13.3036   20.4225 N   0  0  0  0  0  0
  -26.3027  -12.9373   20.3379 N   0  0  0  0  0  0
  -25.9356  -11.6529   20.5819 N   0  0  0  0  0  0
  -22.0518  -12.8232   22.0380 N   0  0  0  0  0  0
  -25.4314  -15.1910   20.4084 N   0  0  0  0  0  0
  -31.9567  -14.4765   20.1931 O   0  0  0  0  0  0
  -21.6649   -6.8892   21.4244 O   0  0  0  0  0  0
  -22.3570  -14.5564   20.6684 O   0  0  0  0  0  0
  -24.6178  -31.8658   23.2115 C   0  0  0  0  0  0
  -25.9078  -32.4795   23.8415 C   0  0  1  0  0  0
  -27.2463  -27.4387   20.0943 C   0  0  0  0  0  0
  -25.5958  -33.8610   24.2355 N   0  0  0  0  0  0
  -23.4025  -30.4853   21.5539 C   0  0  2  0  0  0
  -24.8514  -28.9500   20.1176 C   0  0  0  0  0  0
  -22.7400  -29.4624   22.5037 C   0  0  0  0  0  0
  -18.0248  -28.1369   22.8477 C   0  0  0  0  0  0
  -24.1481  -36.7308   23.2631 C   0  0  0  0  0  0
  -25.9285  -30.8342   21.3592 C   0  0  0  0  0  0
  -26.0095  -29.4671   20.7104 C   0  0  0  0  0  0
  -27.2092  -28.7216   20.6900 C   0  0  0  0  0  0
  -26.0654  -26.9340   19.4973 C   0  0  0  0  0  0
  -24.8745  -27.6829   19.5110 C   0  0  0  0  0  0
  -23.6059  -29.8068   20.1736 C   0  0  0  0  0  0
  -25.4100  -36.3074   24.0310 C   0  0  1  0  0  0
  -20.5836  -28.3656   23.1334 C   0  0  2  0  0  0
  -20.6743  -26.9400   22.5416 C   0  0  0  0  0  0
  -19.5738  -26.6401   21.5185 C   0  0  0  0  0  0
  -18.1916  -26.7926   22.1590 C   0  0  0  0  0  0
  -19.1499  -28.8827   23.2900 C   0  0  0  0  0  0
  -18.9421  -30.1444   23.8895 C   0  0  0  0  0  0
  -17.6430  -30.6578   24.0558 C   0  0  0  0  0  0
  -25.9046  -34.9451   23.5105 C   0  0  0  0  0  0
  -16.5316  -29.9063   23.6377 C   0  0  0  0  0  0
  -16.7232  -28.6496   23.0363 C   0  0  0  0  0  0
  -26.4552  -31.6562   25.0731 C   0  0  0  0  0  0
  -25.3831  -31.3592   26.1466 C   0  0  0  0  0  0
  -27.0394  -30.2994   24.6120 C   0  0  0  0  0  0
  -27.6162  -32.4268   25.7496 C   0  0  0  0  0  0
  -27.5548  -37.1788   24.8466 C   0  0  0  0  0  0
  -21.4125  -29.3026   22.3773 N   0  0  0  0  0  0
  -26.4267  -37.3772   23.9413 N   0  0  0  0  0  0
  -24.6682  -31.0765   22.1005 N   0  0  0  0  0  0
  -23.4156  -28.8148   23.3080 O   0  0  0  0  0  0
  -28.4255  -26.7221   20.1032 O   0  0  0  0  0  0
  -26.5592  -34.8911   22.4649 O   0  0  0  0  0  0
  -23.5385  -32.1422   23.7522 O   0  0  0  0  0  0
  -30.2565  -20.1511   20.9803 C   0  0  0  0  0  0
  -28.8243  -20.0776   19.0233 C   0  0  0  0  0  0
  -30.4507  -18.7531   20.9080 C   0  0  0  0  0  0
  -29.8552  -18.0125   19.8483 C   0  0  0  0  0  0
  -29.4716  -20.8306   20.0223 C   0  0  0  0  0  0
  -28.9957  -18.6728   18.9281 C   0  0  0  0  0  0
  -31.3616  -18.1487   21.9038 C   0  0  0  0  0  0
  -30.3226  -16.6106   19.5431 C   0  0  0  0  0  0
  -30.9051  -17.7541   23.1214 C   0  0  0  0  0  0
  -29.6267  -23.1874   20.8794 C   0  0  0  0  0  0
  -32.8087  -18.0568   21.4307 C   0  0  0  0  0  0
  -31.7691  -17.1531   24.2259 C   0  0  0  0  0  0
  -29.2257  -18.9030   24.6548 C   0  0  0  0  0  0
  -27.6201  -18.5635   16.9422 C   0  0  0  0  0  0
  -29.4375  -17.8805   23.5302 C   0  0  0  0  0  0
  -29.7029  -24.6457   20.4024 C   0  0  0  0  0  0
  -28.3212  -25.2901   20.1730 C   0  0  0  0  0  0
  -29.3792  -22.2535   19.9413 N   0  0  0  0  0  0
  -30.0288  -15.5994   20.3944 N   0  0  0  0  0  0
  -30.9807  -16.4609   18.5035 O   0  0  0  0  0  0
  -29.7819  -22.9343   22.0774 O   0  0  0  0  0  0
  -28.3860  -17.9100   17.9482 O   0  0  0  0  0  0
  -31.4482  -12.3082   19.1449 H   0  0  0  0  0  0
  -30.2549  -11.2697   19.8781 H   0  0  0  0  0  0
  -29.7245  -11.7237   17.4515 H   0  0  0  0  0  0
  -29.6730  -13.4404   17.7653 H   0  0  0  0  0  0
  -27.8189  -11.2928   18.8501 H   0  0  0  0  0  0
  -27.3666  -12.6030   17.7918 H   0  0  0  0  0  0
  -27.6779  -14.2498   19.5197 H   0  0  0  0  0  0
  -28.6627  -12.0964   21.4599 H   0  0  0  0  0  0
  -28.4995  -13.8038   21.7914 H   0  0  0  0  0  0
  -25.2787   -9.5674   22.4776 H   0  0  0  0  0  0
  -24.0003   -7.4640   22.7493 H   0  0  0  0  0  0
  -21.0861   -8.8796   19.8954 H   0  0  0  0  0  0
  -22.3747  -10.9682   19.6188 H   0  0  0  0  0  0
  -21.1992   -7.6150   23.9713 H   0  0  0  0  0  0
  -21.1474   -6.0531   25.9073 H   0  0  0  0  0  0
  -22.0605   -2.7622   23.2834 H   0  0  0  0  0  0
  -22.4136  -11.9881   22.4730 H   0  0  0  0  0  0
  -21.1152  -13.1284   22.2603 H   0  0  0  0  0  0
  -24.6654  -15.8461   20.5231 H   0  0  0  0  0  0
  -26.2845  -15.6312   20.0899 H   0  0  0  0  0  0
  -26.7112  -32.5523   23.1156 H   0  0  0  0  0  0
  -25.0150  -33.9838   25.0513 H   0  0  0  0  0  0
  -22.6915  -31.3028   21.4100 H   0  0  0  0  0  0
  -23.3725  -35.9653   23.3287 H   0  0  0  0  0  0
  -24.3576  -36.8967   22.2051 H   0  0  0  0  0  0
  -23.7276  -37.6515   23.6678 H   0  0  0  0  0  0
  -26.0301  -31.5946   20.5837 H   0  0  0  0  0  0
  -26.8232  -30.8994   21.9682 H   0  0  0  0  0  0
  -28.1049  -29.1188   21.1461 H   0  0  0  0  0  0
  -26.0505  -25.9698   19.0121 H   0  0  0  0  0  0
  -23.9832  -27.2794   19.0518 H   0  0  0  0  0  0
  -23.6885  -30.5707   19.3999 H   0  0  0  0  0  0
  -22.7384  -29.2038   19.9005 H   0  0  0  0  0  0
  -25.1253  -36.1900   25.0785 H   0  0  0  0  0  0
  -20.9905  -28.3189   24.1474 H   0  0  0  0  0  0
  -20.5630  -26.2254   23.3592 H   0  0  0  0  0  0
  -21.6615  -26.7472   22.1195 H   0  0  0  0  0  0
  -19.6917  -25.6329   21.1206 H   0  0  0  0  0  0
  -19.6677  -27.3217   20.6720 H   0  0  0  0  0  0
  -17.4184  -26.6663   21.3995 H   0  0  0  0  0  0
  -18.0321  -26.0060   22.8983 H   0  0  0  0  0  0
  -19.7897  -30.7267   24.2265 H   0  0  0  0  0  0
  -17.4980  -31.6272   24.5131 H   0  0  0  0  0  0
  -15.5318  -30.2916   23.7786 H   0  0  0  0  0  0
  -15.8628  -28.0811   22.7089 H   0  0  0  0  0  0
  -24.6092  -30.6847   25.7773 H   0  0  0  0  0  0
  -24.8935  -32.2691   26.4932 H   0  0  0  0  0  0
  -25.8249  -30.8766   27.0196 H   0  0  0  0  0  0
  -26.2919  -29.6688   24.1294 H   0  0  0  0  0  0
  -27.4247  -29.7302   25.4601 H   0  0  0  0  0  0
  -27.8711  -30.4289   23.9192 H   0  0  0  0  0  0
  -27.2841  -33.3606   26.2038 H   0  0  0  0  0  0
  -28.4003  -32.6754   25.0327 H   0  0  0  0  0  0
  -28.0775  -31.8389   26.5444 H   0  0  0  0  0  0
  -28.2541  -38.0107   24.7508 H   0  0  0  0  0  0
  -28.1069  -36.2636   24.6259 H   0  0  0  0  0  0
  -27.2295  -37.1387   25.8884 H   0  0  0  0  0  0
  -20.9304  -29.8707   21.6954 H   0  0  0  0  0  0
  -26.0113  -38.2822   24.1459 H   0  0  0  0  0  0
  -30.7771  -20.6934   21.7567 H   0  0  0  0  0  0
  -28.2216  -20.6134   18.3046 H   0  0  0  0  0  0
  -33.1820  -19.0481   21.1682 H   0  0  0  0  0  0
  -32.8717  -17.4356   20.5372 H   0  0  0  0  0  0
  -33.5060  -17.6403   22.1522 H   0  0  0  0  0  0
  -32.7876  -16.9142   23.9382 H   0  0  0  0  0  0
  -31.3191  -16.2264   24.5834 H   0  0  0  0  0  0
  -31.8245  -17.8400   25.0699 H   0  0  0  0  0  0
  -28.1636  -19.0894   24.8140 H   0  0  0  0  0  0
  -29.6984  -19.8580   24.4177 H   0  0  0  0  0  0
  -29.6384  -18.5469   25.5993 H   0  0  0  0  0  0
  -27.2183  -17.8174   16.2563 H   0  0  0  0  0  0
  -28.2370  -19.2491   16.3594 H   0  0  0  0  0  0
  -26.7727  -19.1095   17.3600 H   0  0  0  0  0  0
  -29.0760  -16.9009   23.8457 H   0  0  0  0  0  0
  -28.8036  -18.1598   22.6881 H   0  0  0  0  0  0
  -30.3095  -24.7032   19.4964 H   0  0  0  0  0  0
  -30.2470  -25.2057   21.1635 H   0  0  0  0  0  0
  -27.6393  -25.0014   20.9754 H   0  0  0  0  0  0
  -27.9141  -24.8946   19.2426 H   0  0  0  0  0  0
  -29.1291  -22.6180   19.0319 H   0  0  0  0  0  0
  -29.2024  -15.6772   20.9611 H   0  0  0  0  0  0
  1 25  1  0  0  0
  1 30  2  0  0  0
  1 89  1  0  0  0
  2  3  1  0  0  0
  2 25  1  0  0  0
  2 93  1  0  0  0
  2 94  1  0  0  0
  3  4  1  0  0  0
  3 95  1  0  0  0
  3 96  1  0  0  0
  4  5  1  0  0  0
  4 97  1  0  0  0
  4 98  1  0  0  0
  5  6  1  0  0  0
  5 26  1  0  0  0
  5 99  1  0  0  0
  6 25  1  0  0  0
  6100  1  0  0  0
  6101  1  0  0  0
  7  8  2  0  0  0
  7 26  1  0  0  0
  7 29  1  0  0  0
  8  9  1  0  0  0
  8 22  1  0  0  0
  9 10  1  0  0  0
  9 27  2  0  0  0
 10 11  2  0  0  0
 10 15  1  0  0  0
 11 12  1  0  0  0
 11102  1  0  0  0
 12 13  2  0  0  0
 12103  1  0  0  0
 13 14  1  0  0  0
 13 31  1  0  0  0
 14 15  2  0  0  0
 14104  1  0  0  0
 15105  1  0  0  0
 16 17  2  0  0  0
 16 21  1  0  0  0
 16 31  1  0  0  0
 17 18  1  0  0  0
 17106  1  0  0  0
 18 19  2  0  0  0
 18107  1  0  0  0
 19 20  1  0  0  0
 19 24  1  0  0  0
 20 21  2  0  0  0
 20108  1  0  0  0
 21 23  1  0  0  0
 22 28  1  0  0  0
 22 32  2  0  0  0
 26 27  1  0  0  0
 28109  1  0  0  0
 28110  1  0  0  0
 29111  1  0  0  0
 29112  1  0  0  0
 33 34  1  0  0  0
 33 66  1  0  0  0
 33 70  2  0  0  0
 34 36  1  0  0  0
 34 59  1  0  0  0
 34113  1  0  0  0
 35 44  2  0  0  0
 35 45  1  0  0  0
 35 68  1  0  0  0
 36 56  1  0  0  0
 36114  1  0  0  0
 37 39  1  0  0  0
 37 47  1  0  0  0
 37 66  1  0  0  0
 37115  1  0  0  0
 38 43  2  0  0  0
 38 46  1  0  0  0
 38 47  1  0  0  0
 39 64  1  0  0  0
 39 67  2  0  0  0
 40 52  1  0  0  0
 40 53  2  0  0  0
 40 58  1  0  0  0
 41116  1  0  0  0
 41117  1  0  0  0
 41118  1  0  0  0
 41 48  1  0  0  0
 42 43  1  0  0  0
 42 66  1  0  0  0
 42119  1  0  0  0
 42120  1  0  0  0
 43 44  1  0  0  0
 44121  1  0  0  0
 45 46  2  0  0  0
 45122  1  0  0  0
 46123  1  0  0  0
 47124  1  0  0  0
 47125  1  0  0  0
 48 56  1  0  0  0
 48 65  1  0  0  0
 48126  1  0  0  0
 49 50  1  0  0  0
 49 53  1  0  0  0
 49 64  1  0  0  0
 49127  1  0  0  0
 50 51  1  0  0  0
 50128  1  0  0  0
 50129  1  0  0  0
 51 52  1  0  0  0
 51130  1  0  0  0
 51131  1  0  0  0
 52132  1  0  0  0
 52133  1  0  0  0
 53 54  1  0  0  0
 54 55  2  0  0  0
 54134  1  0  0  0
 55 57  1  0  0  0
 55135  1  0  0  0
 56 69  2  0  0  0
 57 58  2  0  0  0
 57136  1  0  0  0
 58137  1  0  0  0
 59 60  1  0  0  0
 59 61  1  0  0  0
 59 62  1  0  0  0
 60138  1  0  0  0
 60139  1  0  0  0
 60140  1  0  0  0
 61141  1  0  0  0
 61142  1  0  0  0
 61143  1  0  0  0
 62144  1  0  0  0
 62145  1  0  0  0
 62146  1  0  0  0
 63 65  1  0  0  0
 63147  1  0  0  0
 63148  1  0  0  0
 63149  1  0  0  0
 64150  1  0  0  0
 65151  1  0  0  0
 68 87  1  0  0  0
 71 73  2  0  0  0
 71 75  1  0  0  0
 71152  1  0  0  0
 72 75  2  0  0  0
 72 76  1  0  0  0
 72153  1  0  0  0
 73 74  1  0  0  0
 73 77  1  0  0  0
 74 76  2  0  0  0
 74 78  1  0  0  0
 75 88  1  0  0  0
 76 92  1  0  0  0
 77 79  2  0  0  0
 77 81  1  0  0  0
 78 89  1  0  0  0
 78 90  2  0  0  0
 79 82  1  0  0  0
 79 85  1  0  0  0
 80 86  1  0  0  0
 80 88  1  0  0  0
 80 91  2  0  0  0
 81154  1  0  0  0
 81155  1  0  0  0
 81156  1  0  0  0
 82157  1  0  0  0
 82158  1  0  0  0
 82159  1  0  0  0
 83 85  1  0  0  0
 83160  1  0  0  0
 83161  1  0  0  0
 83162  1  0  0  0
 84 92  1  0  0  0
 84163  1  0  0  0
 84164  1  0  0  0
 84165  1  0  0  0
 85166  1  0  0  0
 85167  1  0  0  0
 86 87  1  0  0  0
 86168  1  0  0  0
 86169  1  0  0  0
 87170  1  0  0  0
 87171  1  0  0  0
 88172  1  0  0  0
 89173  1  0  0  0
M  ISO  4   1 100  68 101  87 101  89 100
M  END
> <chiral flag>
0

> <version>
0

> <s_m_source_file>
/data/baiqing/PycharmProjects/Reinvent-master-3.2/result/LINK_invent/BTK/process_docking_weight1_custom_product_contain_oxygen_bond_distance_aromatic_linkinvent_7_9_3/rearranged_h_0113.sdf

> <i_m_source_file_index>
68

> <r_mmod_Potential_Energy-OPLS-2005>
31.6612186431885

> <r_mmod_Stretch_Energy-OPLS-2005>
41.1580390930176

> <r_mmod_Bend_Energy-OPLS-2005>
118.100074768066

> <r_mmod_Torsional_Energy-OPLS-2005>
338.144317626953

> <r_mmod_Improper_Torsional_Energy-OPLS-2005>
10.4176406860352

> <r_mmod_Van_der_Waal_Energy-OPLS-2005>
169.471496582031

> <r_mmod_Electrostatic_Energy-OPLS-2005>
-434.774993896484

> <r_mmod_Solvation_Energy-OPLS-2005>
-237.388641357422

> <b_mmod_Minimization_Converged-OPLS-2005>
0

> <r_mmod_RMS_Derivative-OPLS-2005>
3.81386375427246

$$$$
68
                    3D
 Structure written by MMmdl.
156164  0  0  1  0            999 V2000
  -30.5493  -15.1135   20.3959 C   0  0  0  0  0  0
  -30.4211  -12.7163   19.5109 C   0  0  0  0  0  0
  -29.5211  -12.5552   18.2647 C   0  0  0  0  0  0
  -28.0632  -12.3067   18.6877 C   0  0  0  0  0  0
  -27.6104  -13.2684   19.8142 C   0  0  2  0  0  0
  -28.6457  -13.3997   20.9459 C   0  0  0  0  0  0
  -25.2391  -13.8234   20.5719 C   0  0  0  0  0  0
  -24.1732  -13.0444   20.9233 C   0  0  0  0  0  0
  -24.6376  -11.6937   20.8745 C   0  0  0  0  0  0
  -23.9078  -10.4300   21.0416 C   0  0  0  0  0  0
  -24.3626   -9.4227   21.9215 C   0  0  0  0  0  0
  -23.6310   -8.2252   22.0756 C   0  0  0  0  0  0
  -22.4302   -8.0282   21.3537 C   0  0  0  0  0  0
  -21.9944   -9.0242   20.4631 C   0  0  0  0  0  0
  -22.7259  -10.2129   20.3063 C   0  0  0  0  0  0
  -21.6850   -6.0745   22.5262 C   0  0  0  0  0  0
  -21.4016   -6.5649   23.8197 C   0  0  0  0  0  0
  -21.3664   -5.6798   24.9153 C   0  0  0  0  0  0
  -21.6057   -4.3058   24.7208 C   0  0  0  0  0  0
  -21.8825   -3.8160   23.4321 C   0  0  0  0  0  0
  -21.9191   -4.6979   22.3383 C   0  0  0  0  0  0
  -22.7760  -13.5191   21.1923 C   0  0  0  0  0  0
  -22.1676   -4.2176   21.0961 F   0  0  0  0  0  0
  -21.5640   -3.4535   25.7720 F   0  0  0  0  0  0
  -29.8930  -13.8653   20.3263 N   0  0  0  0  0  0
  -26.2799  -12.9502   20.3167 N   0  0  0  0  0  0
  -25.9303  -11.6617   20.5688 N   0  0  0  0  0  0
  -22.0443  -12.8161   22.0498 N   0  0  0  0  0  0
  -25.4113  -15.1944   20.4197 N   0  0  0  0  0  0
  -31.7690  -15.0372   20.2110 O   0  0  0  0  0  0
  -21.6660   -6.8886   21.4228 O   0  0  0  0  0  0
  -22.3399  -14.5484   20.6771 O   0  0  0  0  0  0
  -24.6529  -31.8341   23.1795 C   0  0  0  0  0  0
  -25.9258  -32.4643   23.8218 C   0  0  1  0  0  0
  -27.2127  -27.0252   20.1698 C   0  0  0  0  0  0
  -25.5964  -33.8454   24.2125 N   0  0  0  0  0  0
  -23.4626  -30.4491   21.5280 C   0  0  2  0  0  0
  -24.9136  -28.8542   20.1135 C   0  0  0  0  0  0
  -22.7620  -29.4491   22.4833 C   0  0  0  0  0  0
  -18.0315  -28.1405   22.8476 C   0  0  0  0  0  0
  -24.1493  -36.7239   23.2644 C   0  0  0  0  0  0
  -26.0255  -30.6700   21.3976 C   0  0  0  0  0  0
  -26.0935  -29.2684   20.7445 C   0  0  0  0  0  0
  -27.2414  -28.3704   20.7556 C   0  0  0  0  0  0
  -26.0109  -26.7468   19.4834 C   0  0  0  0  0  0
  -24.8905  -27.6100   19.4656 C   0  0  0  0  0  0
  -23.6964  -29.7709   20.1511 C   0  0  0  0  0  0
  -25.4129  -36.3006   24.0305 C   0  0  1  0  0  0
  -20.5934  -28.3740   23.1215 C   0  0  2  0  0  0
  -20.6797  -26.9433   22.5405 C   0  0  0  0  0  0
  -19.5768  -26.6380   21.5219 C   0  0  0  0  0  0
  -18.1950  -26.7941   22.1627 C   0  0  0  0  0  0
  -19.1573  -28.8891   23.2836 C   0  0  0  0  0  0
  -18.9486  -30.1485   23.8861 C   0  0  0  0  0  0
  -17.6480  -30.6597   24.0558 C   0  0  0  0  0  0
  -25.9083  -34.9381   23.5031 C   0  0  0  0  0  0
  -16.5371  -29.9084   23.6342 C   0  0  0  0  0  0
  -16.7300  -28.6507   23.0359 C   0  0  0  0  0  0
  -26.4537  -31.6556   25.0708 C   0  0  0  0  0  0
  -25.3688  -31.3782   26.1382 C   0  0  0  0  0  0
  -27.0424  -30.2937   24.6377 C   0  0  0  0  0  0
  -27.6042  -32.4348   25.7508 C   0  0  0  0  0  0
  -27.5571  -37.1776   24.8462 C   0  0  0  0  0  0
  -21.4304  -29.3043   22.3576 N   0  0  0  0  0  0
  -26.4283  -37.3728   23.9399 N   0  0  0  0  0  0
  -24.7341  -31.0091   22.0889 N   0  0  0  0  0  0
  -23.4210  -28.8052   23.3038 O   0  0  0  0  0  0
  -28.2303  -25.9668   20.2046 O   0  0  0  0  0  0
  -26.5689  -34.8895   22.4622 O   0  0  0  0  0  0
  -23.5621  -32.1270   23.6939 O   0  0  0  0  0  0
  -27.2280  -17.2621   22.6027 C   0  0  0  0  0  0
  -27.2017  -19.0385   20.9806 C   0  0  0  0  0  0
  -28.5586  -16.9494   22.2597 C   0  0  0  0  0  0
  -26.5160  -18.2137   21.8769 C   0  0  0  0  0  0
  -29.1455  -17.5123   21.0744 C   0  0  0  0  0  0
  -28.5936  -18.9265   20.7212 C   0  0  0  0  0  0
  -28.7254  -23.2749   20.2420 C   0  0  0  0  0  0
  -27.9415  -24.4948   20.3118 C   0  0  0  0  0  0
  -29.3239  -16.1068   23.2383 C   0  0  0  0  0  0
  -28.5456  -15.2195   24.2099 C   0  0  0  0  0  0
  -28.2864  -21.6418   20.3934 C   0  0  0  0  0  0
  -25.1666  -18.4334   22.1437 N   0  0  0  0  0  0
  -29.9640  -16.4513   20.2683 N   0  0  0  0  0  0
  -30.5547  -16.0991   23.3083 O   0  0  0  0  0  0
  -29.1391  -20.2703   20.3232 O   0  0  0  0  0  0
  -31.4522  -12.8711   19.1885 H   0  0  0  0  0  0
  -30.4367  -11.7968   20.0978 H   0  0  0  0  0  0
  -29.8775  -11.7334   17.6421 H   0  0  0  0  0  0
  -29.5792  -13.4543   17.6474 H   0  0  0  0  0  0
  -27.9933  -11.2753   19.0345 H   0  0  0  0  0  0
  -27.3992  -12.3892   17.8271 H   0  0  0  0  0  0
  -27.5411  -14.2490   19.3394 H   0  0  0  0  0  0
  -28.7832  -12.4611   21.4854 H   0  0  0  0  0  0
  -28.2867  -14.1259   21.6658 H   0  0  0  0  0  0
  -25.2733   -9.5716   22.4848 H   0  0  0  0  0  0
  -24.0031   -7.4631   22.7454 H   0  0  0  0  0  0
  -21.0888   -8.8741   19.8916 H   0  0  0  0  0  0
  -22.3692  -10.9676   19.6193 H   0  0  0  0  0  0
  -21.2022   -7.6167   23.9697 H   0  0  0  0  0  0
  -21.1491   -6.0536   25.9046 H   0  0  0  0  0  0
  -22.0614   -2.7627   23.2803 H   0  0  0  0  0  0
  -22.4070  -11.9813   22.4869 H   0  0  0  0  0  0
  -21.1088  -13.1221   22.2772 H   0  0  0  0  0  0
  -26.2923  -15.6358   20.1913 H   0  0  0  0  0  0
  -24.6767  -15.8673   20.6104 H   0  0  0  0  0  0
  -26.7325  -32.5214   23.0936 H   0  0  0  0  0  0
  -25.0064  -33.9548   25.0245 H   0  0  0  0  0  0
  -22.7708  -31.2786   21.3648 H   0  0  0  0  0  0
  -23.3764  -35.9562   23.3288 H   0  0  0  0  0  0
  -24.3575  -36.8900   22.2062 H   0  0  0  0  0  0
  -23.7242  -37.6419   23.6710 H   0  0  0  0  0  0
  -26.1933  -31.4144   20.6183 H   0  0  0  0  0  0
  -26.8913  -30.7243   22.0459 H   0  0  0  0  0  0
  -28.1392  -28.6825   21.2701 H   0  0  0  0  0  0
  -25.9112  -25.7995   18.9747 H   0  0  0  0  0  0
  -23.9947  -27.2908   18.9507 H   0  0  0  0  0  0
  -23.8446  -30.5421   19.3942 H   0  0  0  0  0  0
  -22.8082  -29.2205   19.8354 H   0  0  0  0  0  0
  -25.1326  -36.1818   25.0798 H   0  0  0  0  0  0
  -21.0016  -28.3337   24.1338 H   0  0  0  0  0  0
  -20.5691  -26.2352   23.3636 H   0  0  0  0  0  0
  -21.6662  -26.7431   22.1199 H   0  0  0  0  0  0
  -19.6926  -25.6280   21.1271 H   0  0  0  0  0  0
  -19.6699  -27.3172   20.6736 H   0  0  0  0  0  0
  -17.4218  -26.6688   21.4031 H   0  0  0  0  0  0
  -18.0346  -26.0090   22.9031 H   0  0  0  0  0  0
  -19.7960  -30.7320   24.2205 H   0  0  0  0  0  0
  -17.5030  -31.6270   24.5171 H   0  0  0  0  0  0
  -15.5368  -30.2972   23.7688 H   0  0  0  0  0  0
  -15.8705  -28.0814   22.7089 H   0  0  0  0  0  0
  -24.5877  -30.7123   25.7693 H   0  0  0  0  0  0
  -24.8864  -32.2975   26.4714 H   0  0  0  0  0  0
  -25.7933  -30.9008   27.0226 H   0  0  0  0  0  0
  -26.3070  -29.6633   24.1363 H   0  0  0  0  0  0
  -27.3972  -29.7272   25.4998 H   0  0  0  0  0  0
  -27.9007  -30.4146   23.9765 H   0  0  0  0  0  0
  -27.2622  -33.3682   26.1997 H   0  0  0  0  0  0
  -28.3906  -32.6858   25.0376 H   0  0  0  0  0  0
  -28.0662  -31.8538   26.5503 H   0  0  0  0  0  0
  -28.2576  -38.0083   24.7512 H   0  0  0  0  0  0
  -28.1080  -36.2610   24.6296 H   0  0  0  0  0  0
  -27.2288  -37.1431   25.8865 H   0  0  0  0  0  0
  -20.9545  -29.8734   21.6718 H   0  0  0  0  0  0
  -26.0144  -38.2792   24.1409 H   0  0  0  0  0  0
  -26.7297  -16.7740   23.4278 H   0  0  0  0  0  0
  -26.6226  -19.8476   20.5700 H   0  0  0  0  0  0
  -29.7822  -23.4053   20.0623 H   0  0  0  0  0  0
  -26.8849  -24.3648   20.4999 H   0  0  0  0  0  0
  -27.6709  -14.7779   23.7315 H   0  0  0  0  0  0
  -28.2151  -15.8023   25.0693 H   0  0  0  0  0  0
  -29.1774  -14.4093   24.5716 H   0  0  0  0  0  0
  -27.5177  -21.5352   19.6278 H   0  0  0  0  0  0
  -27.7588  -21.6183   21.3463 H   0  0  0  0  0  0
  -24.7008  -17.9675   22.9162 H   0  0  0  0  0  0
  -24.6799  -19.2500   21.7856 H   0  0  0  0  0  0
  -30.5461  -16.9461   19.6079 H   0  0  0  0  0  0
  1 25  1  0  0  0
  1 30  2  0  0  0
  1 83  1  0  0  0
  2  3  1  0  0  0
  2 25  1  0  0  0
  2 86  1  0  0  0
  2 87  1  0  0  0
  3  4  1  0  0  0
  3 88  1  0  0  0
  3 89  1  0  0  0
  4  5  1  0  0  0
  4 90  1  0  0  0
  4 91  1  0  0  0
  5  6  1  0  0  0
  5 26  1  0  0  0
  5 92  1  0  0  0
  6 25  1  0  0  0
  6 93  1  0  0  0
  6 94  1  0  0  0
  7  8  2  0  0  0
  7 26  1  0  0  0
  7 29  1  0  0  0
  8  9  1  0  0  0
  8 22  1  0  0  0
  9 10  1  0  0  0
  9 27  2  0  0  0
 10 11  2  0  0  0
 10 15  1  0  0  0
 11 12  1  0  0  0
 11 95  1  0  0  0
 12 13  2  0  0  0
 12 96  1  0  0  0
 13 14  1  0  0  0
 13 31  1  0  0  0
 14 15  2  0  0  0
 14 97  1  0  0  0
 15 98  1  0  0  0
 16 17  2  0  0  0
 16 21  1  0  0  0
 16 31  1  0  0  0
 17 18  1  0  0  0
 17 99  1  0  0  0
 18 19  2  0  0  0
 18100  1  0  0  0
 19 20  1  0  0  0
 19 24  1  0  0  0
 20 21  2  0  0  0
 20101  1  0  0  0
 21 23  1  0  0  0
 22 28  1  0  0  0
 22 32  2  0  0  0
 26 27  1  0  0  0
 28102  1  0  0  0
 28103  1  0  0  0
 29104  1  0  0  0
 29105  1  0  0  0
 33 34  1  0  0  0
 33 66  1  0  0  0
 33 70  2  0  0  0
 34 36  1  0  0  0
 34 59  1  0  0  0
 34106  1  0  0  0
 35 44  2  0  0  0
 35 45  1  0  0  0
 35 68  1  0  0  0
 36 56  1  0  0  0
 36107  1  0  0  0
 37 39  1  0  0  0
 37 47  1  0  0  0
 37 66  1  0  0  0
 37108  1  0  0  0
 38 43  2  0  0  0
 38 46  1  0  0  0
 38 47  1  0  0  0
 39 64  1  0  0  0
 39 67  2  0  0  0
 40 52  1  0  0  0
 40 53  2  0  0  0
 40 58  1  0  0  0
 41109  1  0  0  0
 41110  1  0  0  0
 41111  1  0  0  0
 41 48  1  0  0  0
 42 43  1  0  0  0
 42 66  1  0  0  0
 42112  1  0  0  0
 42113  1  0  0  0
 43 44  1  0  0  0
 44114  1  0  0  0
 45 46  2  0  0  0
 45115  1  0  0  0
 46116  1  0  0  0
 47117  1  0  0  0
 47118  1  0  0  0
 48 56  1  0  0  0
 48 65  1  0  0  0
 48119  1  0  0  0
 49 50  1  0  0  0
 49 53  1  0  0  0
 49 64  1  0  0  0
 49120  1  0  0  0
 50 51  1  0  0  0
 50121  1  0  0  0
 50122  1  0  0  0
 51 52  1  0  0  0
 51123  1  0  0  0
 51124  1  0  0  0
 52125  1  0  0  0
 52126  1  0  0  0
 53 54  1  0  0  0
 54 55  2  0  0  0
 54127  1  0  0  0
 55 57  1  0  0  0
 55128  1  0  0  0
 56 69  2  0  0  0
 57 58  2  0  0  0
 57129  1  0  0  0
 58130  1  0  0  0
 59 60  1  0  0  0
 59 61  1  0  0  0
 59 62  1  0  0  0
 60131  1  0  0  0
 60132  1  0  0  0
 60133  1  0  0  0
 61134  1  0  0  0
 61135  1  0  0  0
 61136  1  0  0  0
 62137  1  0  0  0
 62138  1  0  0  0
 62139  1  0  0  0
 63 65  1  0  0  0
 63140  1  0  0  0
 63141  1  0  0  0
 63142  1  0  0  0
 64143  1  0  0  0
 65144  1  0  0  0
 68 78  1  0  0  0
 71 73  2  0  0  0
 71 74  1  0  0  0
 71145  1  0  0  0
 72 74  2  0  0  0
 72 76  1  0  0  0
 72146  1  0  0  0
 73 75  1  0  0  0
 73 79  1  0  0  0
 74 82  1  0  0  0
 75 76  2  0  0  0
 75 83  1  0  0  0
 76 85  1  0  0  0
 77 78  2  0  0  0
 77 81  1  0  0  0
 77147  1  0  0  0
 78148  1  0  0  0
 79 80  1  0  0  0
 79 84  2  0  0  0
 80149  1  0  0  0
 80150  1  0  0  0
 80151  1  0  0  0
 81 85  1  0  0  0
 81152  1  0  0  0
 81153  1  0  0  0
 82154  1  0  0  0
 82155  1  0  0  0
 83156  1  0  0  0
M  ISO  4   1 100  68 101  78 101  83 100
M  END
> <chiral flag>
0

> <version>
0

> <s_m_source_file>
/data/baiqing/PycharmProjects/Reinvent-master-3.2/result/LINK_invent/BTK/process_docking_weight1_custom_product_contain_oxygen_bond_distance_aromatic_linkinvent_7_9_3/rearranged_h_0113.sdf

> <i_m_source_file_index>
69

> <r_mmod_Potential_Energy-OPLS-2005>
1082.21752929688

> <r_mmod_Stretch_Energy-OPLS-2005>
420.604339599609

> <r_mmod_Bend_Energy-OPLS-2005>
396.839385986328

> <r_mmod_Torsional_Energy-OPLS-2005>
424.161651611328

> <r_mmod_Improper_Torsional_Energy-OPLS-2005>
17.9225482940674

> <r_mmod_Van_der_Waal_Energy-OPLS-2005>
145.387908935547

> <r_mmod_Electrostatic_Energy-OPLS-2005>
-418.930084228516

> <r_mmod_Solvation_Energy-OPLS-2005>
-220.350997924805

> <b_mmod_Minimization_Converged-OPLS-2005>
0

> <r_mmod_RMS_Derivative-OPLS-2005>
1.74594342708588

$$$$
69
                    3D
 Structure written by MMmdl.
156164  0  0  1  0            999 V2000
  -30.6195  -14.6481   20.4848 C   0  0  0  0  0  0
  -30.4344  -12.3940   19.4542 C   0  0  0  0  0  0
  -29.5059  -12.5086   18.2247 C   0  0  0  0  0  0
  -28.0282  -12.3458   18.6353 C   0  0  0  0  0  0
  -27.6506  -13.2187   19.8611 C   0  0  2  0  0  0
  -28.6950  -13.0838   20.9916 C   0  0  0  0  0  0
  -25.2553  -13.8170   20.5688 C   0  0  0  0  0  0
  -24.1814  -13.0439   20.9181 C   0  0  0  0  0  0
  -24.6386  -11.6912   20.8725 C   0  0  0  0  0  0
  -23.9055  -10.4294   21.0395 C   0  0  0  0  0  0
  -24.3607   -9.4212   21.9177 C   0  0  0  0  0  0
  -23.6287   -8.2242   22.0752 C   0  0  0  0  0  0
  -22.4271   -8.0281   21.3540 C   0  0  0  0  0  0
  -21.9899   -9.0254   20.4644 C   0  0  0  0  0  0
  -22.7225  -10.2136   20.3046 C   0  0  0  0  0  0
  -21.6857   -6.0736   22.5281 C   0  0  0  0  0  0
  -21.4016   -6.5637   23.8214 C   0  0  0  0  0  0
  -21.3659   -5.6790   24.9172 C   0  0  0  0  0  0
  -21.6042   -4.3054   24.7226 C   0  0  0  0  0  0
  -21.8817   -3.8147   23.4347 C   0  0  0  0  0  0
  -21.9194   -4.6961   22.3405 C   0  0  0  0  0  0
  -22.7839  -13.5238   21.1862 C   0  0  0  0  0  0
  -22.1664   -4.2143   21.0985 F   0  0  0  0  0  0
  -21.5630   -3.4542   25.7739 F   0  0  0  0  0  0
  -30.0097  -13.4217   20.4267 N   0  0  0  0  0  0
  -26.2975  -12.9355   20.3309 N   0  0  0  0  0  0
  -25.9316  -11.6510   20.5746 N   0  0  0  0  0  0
  -22.0474  -12.8233   22.0417 N   0  0  0  0  0  0
  -25.4275  -15.1895   20.4152 N   0  0  0  0  0  0
  -31.7960  -14.7799   20.1359 O   0  0  0  0  0  0
  -21.6637   -6.8880   21.4243 O   0  0  0  0  0  0
  -22.3526  -14.5549   20.6721 O   0  0  0  0  0  0
  -24.6263  -31.8604   23.2025 C   0  0  0  0  0  0
  -25.9109  -32.4780   23.8357 C   0  0  1  0  0  0
  -27.2213  -27.3186   20.1184 C   0  0  0  0  0  0
  -25.5925  -33.8581   24.2283 N   0  0  0  0  0  0
  -23.4201  -30.4846   21.5456 C   0  0  2  0  0  0
  -24.8655  -28.9415   20.1109 C   0  0  0  0  0  0
  -22.7484  -29.4626   22.4936 C   0  0  0  0  0  0
  -18.0291  -28.1388   22.8485 C   0  0  0  0  0  0
  -24.1488  -36.7295   23.2641 C   0  0  0  0  0  0
  -25.9619  -30.7912   21.3741 C   0  0  0  0  0  0
  -26.0355  -29.4196   20.7144 C   0  0  0  0  0  0
  -27.2172  -28.6213   20.7059 C   0  0  0  0  0  0
  -26.0267  -26.8933   19.4912 C   0  0  0  0  0  0
  -24.8635  -27.6842   19.4894 C   0  0  0  0  0  0
  -23.6347  -29.8225   20.1597 C   0  0  0  0  0  0
  -25.4111  -36.3087   24.0334 C   0  0  1  0  0  0
  -20.5889  -28.3690   23.1284 C   0  0  2  0  0  0
  -20.6778  -26.9414   22.5411 C   0  0  0  0  0  0
  -19.5747  -26.6389   21.5216 C   0  0  0  0  0  0
  -18.1929  -26.7931   22.1628 C   0  0  0  0  0  0
  -19.1542  -28.8857   23.2880 C   0  0  0  0  0  0
  -18.9466  -30.1458   23.8893 C   0  0  0  0  0  0
  -17.6466  -30.6590   24.0565 C   0  0  0  0  0  0
  -25.9051  -34.9454   23.5111 C   0  0  0  0  0  0
  -16.5355  -29.9090   23.6332 C   0  0  0  0  0  0
  -16.7277  -28.6511   23.0347 C   0  0  0  0  0  0
  -26.4493  -31.6587   25.0728 C   0  0  0  0  0  0
  -25.3727  -31.3730   26.1457 C   0  0  0  0  0  0
  -27.0343  -30.3011   24.6185 C   0  0  0  0  0  0
  -27.6054  -32.4325   25.7495 C   0  0  0  0  0  0
  -27.5578  -37.1804   24.8465 C   0  0  0  0  0  0
  -21.4198  -29.3041   22.3678 N   0  0  0  0  0  0
  -26.4288  -37.3781   23.9412 N   0  0  0  0  0  0
  -24.6883  -31.0617   22.0975 N   0  0  0  0  0  0
  -23.4211  -28.8163   23.3016 O   0  0  0  0  0  0
  -28.3377  -26.4682   20.1753 O   0  0  0  0  0  0
  -26.5625  -34.8921   22.4681 O   0  0  0  0  0  0
  -23.5426  -32.1401   23.7351 O   0  0  0  0  0  0
  -30.7060  -19.3200   19.7153 C   0  0  0  0  0  0
  -29.7843  -20.1145   20.4438 C   0  0  0  0  0  0
  -30.7499  -17.8988   19.7897 C   0  0  0  0  0  0
  -29.8717  -17.1740   20.6471 C   0  0  0  0  0  0
  -28.9104  -17.9487   21.3675 C   0  0  0  0  0  0
  -28.8747  -19.3935   21.2702 C   0  0  0  0  0  0
  -28.9891  -22.4556   20.4717 C   0  0  0  0  0  0
  -26.9580  -17.8075   22.8102 C   0  0  0  0  0  0
  -29.2729  -24.0100   20.4811 C   0  0  0  0  0  0
  -28.1064  -25.0058   20.0717 C   0  0  0  0  0  0
  -29.9161  -21.5511   20.3623 N   0  0  0  0  0  0
  -31.6643  -17.2397   18.9736 N   0  0  0  0  0  0
  -29.8064  -15.7078   20.7989 N   0  0  0  0  0  0
  -28.0525  -17.1893   22.1477 O   0  0  0  0  0  0
  -27.9885  -20.1180   21.9964 F   0  0  0  0  0  0
  -31.4766  -12.5142   19.1528 H   0  0  0  0  0  0
  -30.3664  -11.3998   19.8984 H   0  0  0  0  0  0
  -29.7705  -11.7583   17.4785 H   0  0  0  0  0  0
  -29.6477  -13.4796   17.7470 H   0  0  0  0  0  0
  -27.8628  -11.2925   18.8663 H   0  0  0  0  0  0
  -27.3739  -12.5769   17.7935 H   0  0  0  0  0  0
  -27.6652  -14.2522   19.5148 H   0  0  0  0  0  0
  -28.7062  -12.0662   21.3843 H   0  0  0  0  0  0
  -28.4411  -13.7258   21.8370 H   0  0  0  0  0  0
  -25.2747   -9.5690   22.4761 H   0  0  0  0  0  0
  -23.9996   -7.4633   22.7470 H   0  0  0  0  0  0
  -21.0825   -8.8774   19.8961 H   0  0  0  0  0  0
  -22.3674  -10.9676   19.6161 H   0  0  0  0  0  0
  -21.2010   -7.6144   23.9717 H   0  0  0  0  0  0
  -21.1483   -6.0518   25.9077 H   0  0  0  0  0  0
  -22.0598   -2.7605   23.2848 H   0  0  0  0  0  0
  -22.4079  -11.9894   22.4808 H   0  0  0  0  0  0
  -21.1095  -13.1277   22.2621 H   0  0  0  0  0  0
  -24.6614  -15.8428   20.5334 H   0  0  0  0  0  0
  -26.2830  -15.6349   20.1103 H   0  0  0  0  0  0
  -26.7180  -32.5452   23.1113 H   0  0  0  0  0  0
  -25.0061  -33.9724   25.0420 H   0  0  0  0  0  0
  -22.7137  -31.3053   21.4045 H   0  0  0  0  0  0
  -23.3749  -35.9629   23.3305 H   0  0  0  0  0  0
  -24.3580  -36.8913   22.2056 H   0  0  0  0  0  0
  -23.7239  -37.6497   23.6659 H   0  0  0  0  0  0
  -26.0950  -31.5554   20.6071 H   0  0  0  0  0  0
  -26.8414  -30.8382   22.0043 H   0  0  0  0  0  0
  -28.1153  -28.9826   21.1870 H   0  0  0  0  0  0
  -25.9600  -25.9322   19.0038 H   0  0  0  0  0  0
  -23.9674  -27.3122   19.0124 H   0  0  0  0  0  0
  -23.7570  -30.6010   19.4059 H   0  0  0  0  0  0
  -22.7539  -29.2549   19.8539 H   0  0  0  0  0  0
  -25.1289  -36.1946   25.0824 H   0  0  0  0  0  0
  -20.9979  -28.3267   24.1404 H   0  0  0  0  0  0
  -20.5683  -26.2303   23.3615 H   0  0  0  0  0  0
  -21.6644  -26.7450   22.1201 H   0  0  0  0  0  0
  -19.6910  -25.6300   21.1241 H   0  0  0  0  0  0
  -19.6679  -27.3204   20.6747 H   0  0  0  0  0  0
  -17.4201  -26.6681   21.4029 H   0  0  0  0  0  0
  -18.0324  -26.0075   22.9025 H   0  0  0  0  0  0
  -19.7940  -30.7274   24.2260 H   0  0  0  0  0  0
  -17.5021  -31.6264   24.5178 H   0  0  0  0  0  0
  -15.5355  -30.2992   23.7653 H   0  0  0  0  0  0
  -15.8679  -28.0832   22.7052 H   0  0  0  0  0  0
  -24.5885  -30.7101   25.7781 H   0  0  0  0  0  0
  -24.8940  -32.2903   26.4895 H   0  0  0  0  0  0
  -25.8047  -30.8889   27.0227 H   0  0  0  0  0  0
  -26.2922  -29.6756   24.1209 H   0  0  0  0  0  0
  -27.4043  -29.7269   25.4692 H   0  0  0  0  0  0
  -27.8789  -30.4297   23.9412 H   0  0  0  0  0  0
  -27.2658  -33.3617   26.2084 H   0  0  0  0  0  0
  -28.3853  -32.6902   25.0317 H   0  0  0  0  0  0
  -28.0738  -31.8449   26.5403 H   0  0  0  0  0  0
  -28.2602  -38.0097   24.7512 H   0  0  0  0  0  0
  -28.1071  -36.2632   24.6291 H   0  0  0  0  0  0
  -27.2304  -37.1452   25.8871 H   0  0  0  0  0  0
  -20.9381  -29.8772   21.6889 H   0  0  0  0  0  0
  -26.0176  -38.2860   24.1404 H   0  0  0  0  0  0
  -31.4105  -19.8294   19.0736 H   0  0  0  0  0  0
  -27.9339  -22.1918   20.5820 H   0  0  0  0  0  0
  -26.3064  -18.3298   22.1084 H   0  0  0  0  0  0
  -27.2929  -18.4923   23.5903 H   0  0  0  0  0  0
  -26.3550  -17.0415   23.2975 H   0  0  0  0  0  0
  -30.1303  -24.1983   19.8360 H   0  0  0  0  0  0
  -29.5987  -24.2689   21.4883 H   0  0  0  0  0  0
  -27.2386  -24.7546   20.6842 H   0  0  0  0  0  0
  -27.8368  -24.7775   19.0401 H   0  0  0  0  0  0
  -32.4836  -17.7551   18.6711 H   0  0  0  0  0  0
  -31.8966  -16.2873   19.2772 H   0  0  0  0  0  0
  -28.9249  -15.4085   21.1871 H   0  0  0  0  0  0
  1 25  1  0  0  0
  1 30  2  0  0  0
  1 83  1  0  0  0
  2  3  1  0  0  0
  2 25  1  0  0  0
  2 86  1  0  0  0
  2 87  1  0  0  0
  3  4  1  0  0  0
  3 88  1  0  0  0
  3 89  1  0  0  0
  4  5  1  0  0  0
  4 90  1  0  0  0
  4 91  1  0  0  0
  5  6  1  0  0  0
  5 26  1  0  0  0
  5 92  1  0  0  0
  6 25  1  0  0  0
  6 93  1  0  0  0
  6 94  1  0  0  0
  7  8  2  0  0  0
  7 26  1  0  0  0
  7 29  1  0  0  0
  8  9  1  0  0  0
  8 22  1  0  0  0
  9 10  1  0  0  0
  9 27  2  0  0  0
 10 11  2  0  0  0
 10 15  1  0  0  0
 11 12  1  0  0  0
 11 95  1  0  0  0
 12 13  2  0  0  0
 12 96  1  0  0  0
 13 14  1  0  0  0
 13 31  1  0  0  0
 14 15  2  0  0  0
 14 97  1  0  0  0
 15 98  1  0  0  0
 16 17  2  0  0  0
 16 21  1  0  0  0
 16 31  1  0  0  0
 17 18  1  0  0  0
 17 99  1  0  0  0
 18 19  2  0  0  0
 18100  1  0  0  0
 19 20  1  0  0  0
 19 24  1  0  0  0
 20 21  2  0  0  0
 20101  1  0  0  0
 21 23  1  0  0  0
 22 28  1  0  0  0
 22 32  2  0  0  0
 26 27  1  0  0  0
 28102  1  0  0  0
 28103  1  0  0  0
 29104  1  0  0  0
 29105  1  0  0  0
 33 34  1  0  0  0
 33 66  1  0  0  0
 33 70  2  0  0  0
 34 36  1  0  0  0
 34 59  1  0  0  0
 34106  1  0  0  0
 35 44  2  0  0  0
 35 45  1  0  0  0
 35 68  1  0  0  0
 36 56  1  0  0  0
 36107  1  0  0  0
 37 39  1  0  0  0
 37 47  1  0  0  0
 37 66  1  0  0  0
 37108  1  0  0  0
 38 43  2  0  0  0
 38 46  1  0  0  0
 38 47  1  0  0  0
 39 64  1  0  0  0
 39 67  2  0  0  0
 40 52  1  0  0  0
 40 53  2  0  0  0
 40 58  1  0  0  0
 41109  1  0  0  0
 41110  1  0  0  0
 41111  1  0  0  0
 41 48  1  0  0  0
 42 43  1  0  0  0
 42 66  1  0  0  0
 42112  1  0  0  0
 42113  1  0  0  0
 43 44  1  0  0  0
 44114  1  0  0  0
 45 46  2  0  0  0
 45115  1  0  0  0
 46116  1  0  0  0
 47117  1  0  0  0
 47118  1  0  0  0
 48 56  1  0  0  0
 48 65  1  0  0  0
 48119  1  0  0  0
 49 50  1  0  0  0
 49 53  1  0  0  0
 49 64  1  0  0  0
 49120  1  0  0  0
 50 51  1  0  0  0
 50121  1  0  0  0
 50122  1  0  0  0
 51 52  1  0  0  0
 51123  1  0  0  0
 51124  1  0  0  0
 52125  1  0  0  0
 52126  1  0  0  0
 53 54  1  0  0  0
 54 55  2  0  0  0
 54127  1  0  0  0
 55 57  1  0  0  0
 55128  1  0  0  0
 56 69  2  0  0  0
 57 58  2  0  0  0
 57129  1  0  0  0
 58130  1  0  0  0
 59 60  1  0  0  0
 59 61  1  0  0  0
 59 62  1  0  0  0
 60131  1  0  0  0
 60132  1  0  0  0
 60133  1  0  0  0
 61134  1  0  0  0
 61135  1  0  0  0
 61136  1  0  0  0
 62137  1  0  0  0
 62138  1  0  0  0
 62139  1  0  0  0
 63 65  1  0  0  0
 63140  1  0  0  0
 63141  1  0  0  0
 63142  1  0  0  0
 64143  1  0  0  0
 65144  1  0  0  0
 68 80  1  0  0  0
 71 72  2  0  0  0
 71 73  1  0  0  0
 71145  1  0  0  0
 72 76  1  0  0  0
 72 81  1  0  0  0
 73 74  2  0  0  0
 73 82  1  0  0  0
 74 75  1  0  0  0
 74 83  1  0  0  0
 75 76  2  0  0  0
 75 84  1  0  0  0
 76 85  1  0  0  0
 77 79  1  0  0  0
 77 81  2  0  0  0
 77146  1  0  0  0
 78 84  1  0  0  0
 78147  1  0  0  0
 78148  1  0  0  0
 78149  1  0  0  0
 79 80  1  0  0  0
 79150  1  0  0  0
 79151  1  0  0  0
 80152  1  0  0  0
 80153  1  0  0  0
 82154  1  0  0  0
 82155  1  0  0  0
 83156  1  0  0  0
M  ISO  4   1 100  68 101  80 101  83 100
M  END
> <chiral flag>
0

> <version>
0

> <s_m_source_file>
/data/baiqing/PycharmProjects/Reinvent-master-3.2/result/LINK_invent/BTK/process_docking_weight1_custom_product_contain_oxygen_bond_distance_aromatic_linkinvent_7_9_3/rearranged_h_0113.sdf

> <i_m_source_file_index>
70

> <r_mmod_Potential_Energy-OPLS-2005>
28.3161735534668

> <r_mmod_Stretch_Energy-OPLS-2005>
86.1858367919922

> <r_mmod_Bend_Energy-OPLS-2005>
168.102722167969

> <r_mmod_Torsional_Energy-OPLS-2005>
224.092529296875

> <r_mmod_Improper_Torsional_Energy-OPLS-2005>
8.09916114807129

> <r_mmod_Van_der_Waal_Energy-OPLS-2005>
165.095718383789

> <r_mmod_Electrostatic_Energy-OPLS-2005>
-468.587677001953

> <r_mmod_Solvation_Energy-OPLS-2005>
-205.451873779297

> <b_mmod_Minimization_Converged-OPLS-2005>
0

> <r_mmod_RMS_Derivative-OPLS-2005>
1.21993136405945

$$$$
70
                    3D
 Structure written by MMmdl.
150158  0  0  1  0            999 V2000
  -30.5534  -14.7488   20.4889 C   0  0  0  0  0  0
  -30.4561  -12.4601   19.4648 C   0  0  0  0  0  0
  -29.5190  -12.5170   18.2349 C   0  0  0  0  0  0
  -28.0432  -12.3348   18.6468 C   0  0  0  0  0  0
  -27.6518  -13.2171   19.8608 C   0  0  2  0  0  0
  -28.6974  -13.0957   20.9925 C   0  0  0  0  0  0
  -25.2559  -13.8164   20.5683 C   0  0  0  0  0  0
  -24.1833  -13.0431   20.9212 C   0  0  0  0  0  0
  -24.6398  -11.6904   20.8746 C   0  0  0  0  0  0
  -23.9065  -10.4290   21.0411 C   0  0  0  0  0  0
  -24.3618   -9.4201   21.9185 C   0  0  0  0  0  0
  -23.6295   -8.2239   22.0752 C   0  0  0  0  0  0
  -22.4276   -8.0286   21.3547 C   0  0  0  0  0  0
  -21.9910   -9.0256   20.4649 C   0  0  0  0  0  0
  -22.7241  -10.2133   20.3060 C   0  0  0  0  0  0
  -21.6850   -6.0740   22.5282 C   0  0  0  0  0  0
  -21.4014   -6.5643   23.8215 C   0  0  0  0  0  0
  -21.3656   -5.6795   24.9178 C   0  0  0  0  0  0
  -21.6045   -4.3057   24.7227 C   0  0  0  0  0  0
  -21.8813   -3.8150   23.4349 C   0  0  0  0  0  0
  -21.9190   -4.6967   22.3406 C   0  0  0  0  0  0
  -22.7854  -13.5225   21.1872 C   0  0  0  0  0  0
  -22.1659   -4.2151   21.0982 F   0  0  0  0  0  0
  -21.5628   -3.4543   25.7739 F   0  0  0  0  0  0
  -30.0026  -13.4856   20.4311 N   0  0  0  0  0  0
  -26.2982  -12.9338   20.3299 N   0  0  0  0  0  0
  -25.9324  -11.6495   20.5745 N   0  0  0  0  0  0
  -22.0493  -12.8220   22.0427 N   0  0  0  0  0  0
  -25.4265  -15.1885   20.4062 N   0  0  0  0  0  0
  -31.7128  -14.9484   20.1094 O   0  0  0  0  0  0
  -21.6640   -6.8884   21.4245 O   0  0  0  0  0  0
  -22.3541  -14.5536   20.6722 O   0  0  0  0  0  0
  -24.6324  -31.8545   23.1975 C   0  0  0  0  0  0
  -25.9146  -32.4743   23.8331 C   0  0  1  0  0  0
  -27.2296  -27.2611   20.1267 C   0  0  0  0  0  0
  -25.5936  -33.8546   24.2251 N   0  0  0  0  0  0
  -23.4294  -30.4762   21.5412 C   0  0  2  0  0  0
  -24.8778  -28.9212   20.1125 C   0  0  0  0  0  0
  -22.7507  -29.4601   22.4915 C   0  0  0  0  0  0
  -18.0289  -28.1388   22.8485 C   0  0  0  0  0  0
  -24.1492  -36.7278   23.2640 C   0  0  0  0  0  0
  -25.9755  -30.7679   21.3765 C   0  0  0  0  0  0
  -26.0506  -29.3904   20.7175 C   0  0  0  0  0  0
  -27.2288  -28.5747   20.7101 C   0  0  0  0  0  0
  -26.0284  -26.8586   19.4980 C   0  0  0  0  0  0
  -24.8719  -27.6632   19.4923 C   0  0  0  0  0  0
  -23.6480  -29.8078   20.1587 C   0  0  0  0  0  0
  -25.4119  -36.3061   24.0324 C   0  0  1  0  0  0
  -20.5894  -28.3700   23.1264 C   0  0  2  0  0  0
  -20.6776  -26.9419   22.5403 C   0  0  0  0  0  0
  -19.5751  -26.6385   21.5209 C   0  0  0  0  0  0
  -18.1933  -26.7929   22.1626 C   0  0  0  0  0  0
  -19.1544  -28.8865   23.2866 C   0  0  0  0  0  0
  -18.9467  -30.1464   23.8886 C   0  0  0  0  0  0
  -17.6465  -30.6588   24.0562 C   0  0  0  0  0  0
  -25.9060  -34.9431   23.5092 C   0  0  0  0  0  0
  -16.5356  -29.9084   23.6331 C   0  0  0  0  0  0
  -16.7275  -28.6500   23.0353 C   0  0  0  0  0  0
  -26.4514  -31.6569   25.0720 C   0  0  0  0  0  0
  -25.3734  -31.3722   26.1437 C   0  0  0  0  0  0
  -27.0358  -30.2980   24.6210 C   0  0  0  0  0  0
  -27.6063  -32.4315   25.7498 C   0  0  0  0  0  0
  -27.5574  -37.1798   24.8471 C   0  0  0  0  0  0
  -21.4213  -29.3047   22.3659 N   0  0  0  0  0  0
  -26.4292  -37.3760   23.9405 N   0  0  0  0  0  0
  -24.6982  -31.0510   22.0949 N   0  0  0  0  0  0
  -23.4205  -28.8147   23.3019 O   0  0  0  0  0  0
  -28.3351  -26.3745   20.1794 O   0  0  0  0  0  0
  -26.5629  -34.8913   22.4658 O   0  0  0  0  0  0
  -23.5470  -32.1370   23.7264 O   0  0  0  0  0  0
  -28.3112  -19.2257   20.9923 C   0  0  0  0  0  0
  -28.3577  -17.7870   21.1196 C   0  0  0  0  0  0
  -29.4618  -19.8281   20.5354 C   0  0  0  0  0  0
  -29.5325  -17.1495   20.7679 C   0  0  0  0  0  0
  -28.9403  -22.2321   20.4224 C   0  0  0  0  0  0
  -30.4407  -24.0460   19.3422 C   0  0  0  0  0  0
  -28.1087  -24.8859   20.0668 C   0  0  0  0  0  0
  -29.2924  -23.8080   20.3396 C   0  0  1  0  0  0
  -29.7758  -21.2105   20.3409 N   0  0  0  0  0  0
  -29.6737  -15.7510   20.8602 N   0  0  0  0  0  0
  -30.6326  -18.4716   20.2490 S   0  0  0  0  0  0
  -31.4908  -12.6221   19.1583 H   0  0  0  0  0  0
  -30.4317  -11.4704   19.9231 H   0  0  0  0  0  0
  -29.8007  -11.7507   17.5112 H   0  0  0  0  0  0
  -29.6400  -13.4751   17.7268 H   0  0  0  0  0  0
  -27.8995  -11.2832   18.8970 H   0  0  0  0  0  0
  -27.3848  -12.5381   17.8011 H   0  0  0  0  0  0
  -27.6595  -14.2468   19.5030 H   0  0  0  0  0  0
  -28.7356  -12.0731   21.3707 H   0  0  0  0  0  0
  -28.4209  -13.7145   21.8478 H   0  0  0  0  0  0
  -25.2757   -9.5677   22.4763 H   0  0  0  0  0  0
  -24.0003   -7.4624   22.7464 H   0  0  0  0  0  0
  -21.0844   -8.8779   19.8950 H   0  0  0  0  0  0
  -22.3703  -10.9677   19.6174 H   0  0  0  0  0  0
  -21.2008   -7.6149   23.9725 H   0  0  0  0  0  0
  -21.1484   -6.0524   25.9082 H   0  0  0  0  0  0
  -22.0594   -2.7613   23.2849 H   0  0  0  0  0  0
  -22.4106  -11.9881   22.4815 H   0  0  0  0  0  0
  -21.1111  -13.1245   22.2633 H   0  0  0  0  0  0
  -24.6472  -15.8325   20.4901 H   0  0  0  0  0  0
  -26.2507  -15.6156   20.0040 H   0  0  0  0  0  0
  -26.7209  -32.5395   23.1070 H   0  0  0  0  0  0
  -25.0083  -33.9685   25.0396 H   0  0  0  0  0  0
  -22.7257  -31.2977   21.3934 H   0  0  0  0  0  0
  -23.3746  -35.9618   23.3312 H   0  0  0  0  0  0
  -24.3576  -36.8895   22.2053 H   0  0  0  0  0  0
  -23.7259  -37.6486   23.6661 H   0  0  0  0  0  0
  -26.1137  -31.5296   20.6078 H   0  0  0  0  0  0
  -26.8525  -30.8174   22.0104 H   0  0  0  0  0  0
  -28.1275  -28.9319   21.1930 H   0  0  0  0  0  0
  -25.9497  -25.8980   19.0125 H   0  0  0  0  0  0
  -23.9735  -27.2972   19.0143 H   0  0  0  0  0  0
  -23.7718  -30.5824   19.4010 H   0  0  0  0  0  0
  -22.7669  -29.2402   19.8541 H   0  0  0  0  0  0
  -25.1303  -36.1907   25.0816 H   0  0  0  0  0  0
  -20.9983  -28.3279   24.1386 H   0  0  0  0  0  0
  -20.5678  -26.2315   23.3610 H   0  0  0  0  0  0
  -21.6646  -26.7441   22.1203 H   0  0  0  0  0  0
  -19.6916  -25.6295   21.1244 H   0  0  0  0  0  0
  -19.6684  -27.3190   20.6735 H   0  0  0  0  0  0
  -17.4202  -26.6668   21.4030 H   0  0  0  0  0  0
  -18.0341  -26.0073   22.9028 H   0  0  0  0  0  0
  -19.7946  -30.7280   24.2254 H   0  0  0  0  0  0
  -17.5020  -31.6267   24.5166 H   0  0  0  0  0  0
  -15.5359  -30.2982   23.7660 H   0  0  0  0  0  0
  -15.8675  -28.0813   22.7075 H   0  0  0  0  0  0
  -24.5914  -30.7064   25.7767 H   0  0  0  0  0  0
  -24.8921  -32.2892   26.4846 H   0  0  0  0  0  0
  -25.8054  -30.8913   27.0222 H   0  0  0  0  0  0
  -26.2944  -29.6721   24.1228 H   0  0  0  0  0  0
  -27.4028  -29.7249   25.4736 H   0  0  0  0  0  0
  -27.8831  -30.4245   23.9464 H   0  0  0  0  0  0
  -27.2661  -33.3616   26.2064 H   0  0  0  0  0  0
  -28.3881  -32.6872   25.0334 H   0  0  0  0  0  0
  -28.0720  -31.8447   26.5425 H   0  0  0  0  0  0
  -28.2606  -38.0079   24.7482 H   0  0  0  0  0  0
  -28.1054  -36.2605   24.6341 H   0  0  0  0  0  0
  -27.2284  -37.1507   25.8873 H   0  0  0  0  0  0
  -20.9405  -29.8764   21.6853 H   0  0  0  0  0  0
  -26.0167  -38.2838   24.1382 H   0  0  0  0  0  0
  -27.4147  -19.7644   21.2667 H   0  0  0  0  0  0
  -27.4860  -17.2621   21.4850 H   0  0  0  0  0  0
  -27.8749  -22.0582   20.5961 H   0  0  0  0  0  0
  -30.7168  -25.0999   19.3067 H   0  0  0  0  0  0
  -30.1589  -23.7443   18.3332 H   0  0  0  0  0  0
  -31.3343  -23.4858   19.6212 H   0  0  0  0  0  0
  -27.2863  -24.6399   20.7406 H   0  0  0  0  0  0
  -27.7410  -24.6839   19.0604 H   0  0  0  0  0  0
  -29.6819  -24.0573   21.3275 H   0  0  0  0  0  0
  -28.8285  -15.3147   21.1961 H   0  0  0  0  0  0
  1 25  1  0  0  0
  1 30  2  0  0  0
  1 80  1  0  0  0
  2  3  1  0  0  0
  2 25  1  0  0  0
  2 82  1  0  0  0
  2 83  1  0  0  0
  3  4  1  0  0  0
  3 84  1  0  0  0
  3 85  1  0  0  0
  4  5  1  0  0  0
  4 86  1  0  0  0
  4 87  1  0  0  0
  5  6  1  0  0  0
  5 26  1  0  0  0
  5 88  1  0  0  0
  6 25  1  0  0  0
  6 89  1  0  0  0
  6 90  1  0  0  0
  7  8  2  0  0  0
  7 26  1  0  0  0
  7 29  1  0  0  0
  8  9  1  0  0  0
  8 22  1  0  0  0
  9 10  1  0  0  0
  9 27  2  0  0  0
 10 11  2  0  0  0
 10 15  1  0  0  0
 11 12  1  0  0  0
 11 91  1  0  0  0
 12 13  2  0  0  0
 12 92  1  0  0  0
 13 14  1  0  0  0
 13 31  1  0  0  0
 14 15  2  0  0  0
 14 93  1  0  0  0
 15 94  1  0  0  0
 16 17  2  0  0  0
 16 21  1  0  0  0
 16 31  1  0  0  0
 17 18  1  0  0  0
 17 95  1  0  0  0
 18 19  2  0  0  0
 18 96  1  0  0  0
 19 20  1  0  0  0
 19 24  1  0  0  0
 20 21  2  0  0  0
 20 97  1  0  0  0
 21 23  1  0  0  0
 22 28  1  0  0  0
 22 32  2  0  0  0
 26 27  1  0  0  0
 28 98  1  0  0  0
 28 99  1  0  0  0
 29100  1  0  0  0
 29101  1  0  0  0
 33 34  1  0  0  0
 33 66  1  0  0  0
 33 70  2  0  0  0
 34 36  1  0  0  0
 34 59  1  0  0  0
 34102  1  0  0  0
 35 44  2  0  0  0
 35 45  1  0  0  0
 35 68  1  0  0  0
 36 56  1  0  0  0
 36103  1  0  0  0
 37 39  1  0  0  0
 37 47  1  0  0  0
 37 66  1  0  0  0
 37104  1  0  0  0
 38 43  2  0  0  0
 38 46  1  0  0  0
 38 47  1  0  0  0
 39 64  1  0  0  0
 39 67  2  0  0  0
 40 52  1  0  0  0
 40 53  2  0  0  0
 40 58  1  0  0  0
 41105  1  0  0  0
 41106  1  0  0  0
 41107  1  0  0  0
 41 48  1  0  0  0
 42 43  1  0  0  0
 42 66  1  0  0  0
 42108  1  0  0  0
 42109  1  0  0  0
 43 44  1  0  0  0
 44110  1  0  0  0
 45 46  2  0  0  0
 45111  1  0  0  0
 46112  1  0  0  0
 47113  1  0  0  0
 47114  1  0  0  0
 48 56  1  0  0  0
 48 65  1  0  0  0
 48115  1  0  0  0
 49 50  1  0  0  0
 49 53  1  0  0  0
 49 64  1  0  0  0
 49116  1  0  0  0
 50 51  1  0  0  0
 50117  1  0  0  0
 50118  1  0  0  0
 51 52  1  0  0  0
 51119  1  0  0  0
 51120  1  0  0  0
 52121  1  0  0  0
 52122  1  0  0  0
 53 54  1  0  0  0
 54 55  2  0  0  0
 54123  1  0  0  0
 55 57  1  0  0  0
 55124  1  0  0  0
 56 69  2  0  0  0
 57 58  2  0  0  0
 57125  1  0  0  0
 58126  1  0  0  0
 59 60  1  0  0  0
 59 61  1  0  0  0
 59 62  1  0  0  0
 60127  1  0  0  0
 60128  1  0  0  0
 60129  1  0  0  0
 61130  1  0  0  0
 61131  1  0  0  0
 61132  1  0  0  0
 62133  1  0  0  0
 62134  1  0  0  0
 62135  1  0  0  0
 63 65  1  0  0  0
 63136  1  0  0  0
 63137  1  0  0  0
 63138  1  0  0  0
 64139  1  0  0  0
 65140  1  0  0  0
 68 77  1  0  0  0
 71 72  1  0  0  0
 71 73  2  0  0  0
 71141  1  0  0  0
 72 74  2  0  0  0
 72142  1  0  0  0
 73 79  1  0  0  0
 73 81  1  0  0  0
 74 80  1  0  0  0
 74 81  1  0  0  0
 75 78  1  0  0  0
 75 79  2  0  0  0
 75143  1  0  0  0
 76144  1  0  0  0
 76145  1  0  0  0
 76146  1  0  0  0
 76 78  1  0  0  0
 77 78  1  0  0  0
 77147  1  0  0  0
 77148  1  0  0  0
 78149  1  0  0  0
 80150  1  0  0  0
M  ISO  4   1 100  68 101  77 101  80 100
M  END
> <chiral flag>
0

> <version>
0

> <s_m_source_file>
/data/baiqing/PycharmProjects/Reinvent-master-3.2/result/LINK_invent/BTK/process_docking_weight1_custom_product_contain_oxygen_bond_distance_aromatic_linkinvent_7_9_3/rearranged_h_0113.sdf

> <i_m_source_file_index>
71

> <r_mmod_Potential_Energy-OPLS-2005>
155.479202270508

> <r_mmod_Stretch_Energy-OPLS-2005>
120.306648254395

> <r_mmod_Bend_Energy-OPLS-2005>
198.975921630859

> <r_mmod_Torsional_Energy-OPLS-2005>
202.487915039062

> <r_mmod_Improper_Torsional_Energy-OPLS-2005>
4.04500246047974

> <r_mmod_Van_der_Waal_Energy-OPLS-2005>
118.565147399902

> <r_mmod_Electrostatic_Energy-OPLS-2005>
-349.792022705078

> <r_mmod_Solvation_Energy-OPLS-2005>
-224.922164916992

> <b_mmod_Minimization_Converged-OPLS-2005>
0

> <r_mmod_RMS_Derivative-OPLS-2005>
0.915762186050415

$$$$
71
                    3D
 Structure written by MMmdl.
164173  0  0  1  0            999 V2000
  -30.4822  -14.9605   20.5030 C   0  0  0  0  0  0
  -30.4528  -12.6088   19.5268 C   0  0  0  0  0  0
  -29.5315  -12.5477   18.2832 C   0  0  0  0  0  0
  -28.0641  -12.3129   18.6944 C   0  0  0  0  0  0
  -27.6348  -13.2410   19.8632 C   0  0  2  0  0  0
  -28.6710  -13.2289   21.0078 C   0  0  0  0  0  0
  -25.2424  -13.8154   20.5635 C   0  0  0  0  0  0
  -24.1759  -13.0387   20.9185 C   0  0  0  0  0  0
  -24.6388  -11.6882   20.8746 C   0  0  0  0  0  0
  -23.9084  -10.4270   21.0420 C   0  0  0  0  0  0
  -24.3625   -9.4187   21.9207 C   0  0  0  0  0  0
  -23.6288   -8.2238   22.0763 C   0  0  0  0  0  0
  -22.4271   -8.0266   21.3564 C   0  0  0  0  0  0
  -21.9912   -9.0249   20.4661 C   0  0  0  0  0  0
  -22.7253  -10.2131   20.3074 C   0  0  0  0  0  0
  -21.6858   -6.0737   22.5267 C   0  0  0  0  0  0
  -21.4017   -6.5651   23.8205 C   0  0  0  0  0  0
  -21.3655   -5.6802   24.9164 C   0  0  0  0  0  0
  -21.6031   -4.3061   24.7220 C   0  0  0  0  0  0
  -21.8822   -3.8150   23.4340 C   0  0  0  0  0  0
  -21.9185   -4.6960   22.3389 C   0  0  0  0  0  0
  -22.7787  -13.5176   21.1832 C   0  0  0  0  0  0
  -22.1642   -4.2146   21.0960 F   0  0  0  0  0  0
  -21.5628   -3.4532   25.7728 F   0  0  0  0  0  0
  -29.9468  -13.6721   20.4408 N   0  0  0  0  0  0
  -26.2917  -12.9410   20.3351 N   0  0  0  0  0  0
  -25.9356  -11.6546   20.5829 N   0  0  0  0  0  0
  -22.0443  -12.8237   22.0446 N   0  0  0  0  0  0
  -25.3997  -15.1864   20.3882 N   0  0  0  0  0  0
  -31.6575  -15.1106   20.1513 O   0  0  0  0  0  0
  -21.6650   -6.8867   21.4227 O   0  0  0  0  0  0
  -22.3485  -14.5477   20.6664 O   0  0  0  0  0  0
  -24.6428  -31.8456   23.1755 C   0  0  0  0  0  0
  -25.9218  -32.4692   23.8142 C   0  0  1  0  0  0
  -27.1936  -27.1084   20.2104 C   0  0  0  0  0  0
  -25.5970  -33.8473   24.2084 N   0  0  0  0  0  0
  -23.4446  -30.4701   21.5201 C   0  0  2  0  0  0
  -24.8909  -28.8753   20.1175 C   0  0  0  0  0  0
  -22.7538  -29.4653   22.4763 C   0  0  0  0  0  0
  -18.0334  -28.1494   22.8486 C   0  0  0  0  0  0
  -24.1513  -36.7218   23.2656 C   0  0  0  0  0  0
  -26.0011  -30.7151   21.3794 C   0  0  0  0  0  0
  -26.0663  -29.3136   20.7422 C   0  0  0  0  0  0
  -27.2208  -28.4485   20.7665 C   0  0  0  0  0  0
  -25.9978  -26.7614   19.5500 C   0  0  0  0  0  0
  -24.8675  -27.6082   19.5075 C   0  0  0  0  0  0
  -23.6734  -29.7879   20.1414 C   0  0  0  0  0  0
  -25.4137  -36.2955   24.0311 C   0  0  1  0  0  0
  -20.5946  -28.3825   23.1218 C   0  0  2  0  0  0
  -20.6865  -26.9525   22.5393 C   0  0  0  0  0  0
  -19.5836  -26.6411   21.5271 C   0  0  0  0  0  0
  -18.1993  -26.8052   22.1602 C   0  0  0  0  0  0
  -19.1593  -28.8977   23.2869 C   0  0  0  0  0  0
  -18.9525  -30.1569   23.8892 C   0  0  0  0  0  0
  -17.6520  -30.6696   24.0615 C   0  0  0  0  0  0
  -25.9069  -34.9391   23.4949 C   0  0  0  0  0  0
  -16.5414  -29.9194   23.6379 C   0  0  0  0  0  0
  -16.7300  -28.6634   23.0344 C   0  0  0  0  0  0
  -26.4557  -31.6567   25.0591 C   0  0  0  0  0  0
  -25.3724  -31.3803   26.1263 C   0  0  0  0  0  0
  -27.0471  -30.2947   24.6210 C   0  0  0  0  0  0
  -27.6079  -32.4387   25.7376 C   0  0  0  0  0  0
  -27.5578  -37.1696   24.8466 C   0  0  0  0  0  0
  -21.4262  -29.3119   22.3521 N   0  0  0  0  0  0
  -26.4254  -37.3702   23.9467 N   0  0  0  0  0  0
  -24.7162  -31.0371   22.0767 N   0  0  0  0  0  0
  -23.4202  -28.8209   23.2923 O   0  0  0  0  0  0
  -28.2715  -26.1583   20.1548 O   0  0  0  0  0  0
  -26.5686  -34.8940   22.4552 O   0  0  0  0  0  0
  -23.5558  -32.1369   23.6996 O   0  0  0  0  0  0
  -30.6873  -18.4891   20.4693 C   0  0  0  0  0  0
  -29.6140  -17.5910   20.7624 C   0  0  0  0  0  0
  -30.5221  -19.9364   20.4294 C   0  0  0  0  0  0
  -28.4243  -18.3578   21.0350 C   0  0  0  0  0  0
  -29.2621  -20.6002   20.6609 C   0  0  0  0  0  0
  -25.6789  -22.7066   21.5153 C   0  0  0  0  0  0
  -27.0043  -22.7791   21.7602 C   0  0  0  0  0  0
  -24.6130  -22.4095   22.5729 C   0  0  0  0  0  0
  -27.5488  -22.5317   23.1704 C   0  0  0  0  0  0
  -25.1636  -22.3600   24.0144 C   0  0  0  0  0  0
  -26.5703  -21.7535   24.0710 C   0  0  0  0  0  0
  -28.4154  -24.8206   20.9451 C   0  0  0  0  0  0
  -28.0327  -23.1826   20.6800 C   0  0  1  0  0  0
  -28.2395  -19.7385   20.9708 N   0  0  0  0  0  0
  -27.2902  -17.6656   21.4258 N   0  0  0  0  0  0
  -29.6225  -16.0486   20.8172 N   0  0  0  0  0  0
  -29.1526  -22.0906   20.5916 N   0  0  0  0  0  0
  -31.9188  -20.8995   20.0930 Cl  0  0  0  0  0  0
  -31.4841  -12.8005   19.2279 H   0  0  0  0  0  0
  -30.4703  -11.6479   20.0391 H   0  0  0  0  0  0
  -29.8624  -11.7549   17.6111 H   0  0  0  0  0  0
  -29.6084  -13.4826   17.7261 H   0  0  0  0  0  0
  -27.9847  -11.2671   18.9974 H   0  0  0  0  0  0
  -27.3935  -12.4278   17.8432 H   0  0  0  0  0  0
  -27.6071  -14.2515   19.4511 H   0  0  0  0  0  0
  -28.7625  -12.2336   21.4435 H   0  0  0  0  0  0
  -28.3554  -13.8832   21.8218 H   0  0  0  0  0  0
  -25.2780   -9.5655   22.4788 H   0  0  0  0  0  0
  -23.9955   -7.4637   22.7526 H   0  0  0  0  0  0
  -21.0825   -8.8798   19.8999 H   0  0  0  0  0  0
  -22.3723  -10.9668   19.6181 H   0  0  0  0  0  0
  -21.2012   -7.6164   23.9710 H   0  0  0  0  0  0
  -21.1458   -6.0534   25.9071 H   0  0  0  0  0  0
  -22.0595   -2.7597   23.2834 H   0  0  0  0  0  0
  -22.4047  -11.9873   22.4797 H   0  0  0  0  0  0
  -21.1106  -13.1365   22.2694 H   0  0  0  0  0  0
  -24.6091  -15.8145   20.4688 H   0  0  0  0  0  0
  -26.2343  -15.6611   20.0661 H   0  0  0  0  0  0
  -26.7256  -32.5301   23.0852 H   0  0  0  0  0  0
  -25.0216  -33.9599   25.0284 H   0  0  0  0  0  0
  -22.7480  -31.2951   21.3502 H   0  0  0  0  0  0
  -23.3811  -35.9496   23.3222 H   0  0  0  0  0  0
  -24.3634  -36.8938   22.2082 H   0  0  0  0  0  0
  -23.7216  -37.6355   23.6772 H   0  0  0  0  0  0
  -26.1631  -31.4587   20.5987 H   0  0  0  0  0  0
  -26.8705  -30.7638   22.0198 H   0  0  0  0  0  0
  -28.1211  -28.7840   21.2575 H   0  0  0  0  0  0
  -25.9376  -25.7916   19.0762 H   0  0  0  0  0  0
  -23.9657  -27.2626   19.0122 H   0  0  0  0  0  0
  -23.8056  -30.5553   19.3780 H   0  0  0  0  0  0
  -22.7902  -29.2225   19.8337 H   0  0  0  0  0  0
  -25.1310  -36.1706   25.0790 H   0  0  0  0  0  0
  -21.0050  -28.3457   24.1330 H   0  0  0  0  0  0
  -20.5906  -26.2433   23.3632 H   0  0  0  0  0  0
  -21.6713  -26.7650   22.1092 H   0  0  0  0  0  0
  -19.7044  -25.6320   21.1281 H   0  0  0  0  0  0
  -19.6824  -27.3216   20.6831 H   0  0  0  0  0  0
  -17.4293  -26.6902   21.3990 H   0  0  0  0  0  0
  -18.0310  -26.0258   22.9029 H   0  0  0  0  0  0
  -19.8028  -30.7392   24.2220 H   0  0  0  0  0  0
  -17.5122  -31.6375   24.5207 H   0  0  0  0  0  0
  -15.5430  -30.3095   23.7834 H   0  0  0  0  0  0
  -15.8703  -28.0985   22.6988 H   0  0  0  0  0  0
  -24.5906  -30.7205   25.7512 H   0  0  0  0  0  0
  -24.8990  -32.3036   26.4575 H   0  0  0  0  0  0
  -25.7947  -30.8978   27.0077 H   0  0  0  0  0  0
  -26.3096  -29.6589   24.1291 H   0  0  0  0  0  0
  -27.4229  -29.7304   25.4762 H   0  0  0  0  0  0
  -27.8917  -30.4251   23.9455 H   0  0  0  0  0  0
  -27.2619  -33.3767   26.1758 H   0  0  0  0  0  0
  -28.3956  -32.6792   25.0214 H   0  0  0  0  0  0
  -28.0664  -31.8635   26.5428 H   0  0  0  0  0  0
  -28.2397  -38.0167   24.7595 H   0  0  0  0  0  0
  -28.1200  -36.2649   24.6076 H   0  0  0  0  0  0
  -27.2324  -37.1065   25.8869 H   0  0  0  0  0  0
  -20.9440  -29.8709   21.6615 H   0  0  0  0  0  0
  -26.0063  -38.2699   24.1612 H   0  0  0  0  0  0
  -31.6662  -18.0719   20.2832 H   0  0  0  0  0  0
  -25.3150  -22.8872   20.5119 H   0  0  0  0  0  0
  -24.1292  -21.4617   22.3255 H   0  0  0  0  0  0
  -23.8281  -23.1668   22.5048 H   0  0  0  0  0  0
  -27.7488  -23.4985   23.6291 H   0  0  0  0  0  0
  -28.4975  -22.0003   23.1357 H   0  0  0  0  0  0
  -24.4775  -21.8150   24.6650 H   0  0  0  0  0  0
  -25.1963  -23.3640   24.4408 H   0  0  0  0  0  0
  -26.9296  -21.7619   25.1045 H   0  0  0  0  0  0
  -26.5326  -20.7044   23.7699 H   0  0  0  0  0  0
  -29.4913  -24.7785   21.1025 H   0  0  0  0  0  0
  -28.0460  -25.0789   21.9380 H   0  0  0  0  0  0
  -27.5110  -23.1611   19.7218 H   0  0  0  0  0  0
  -27.4474  -16.8745   22.0346 H   0  0  0  0  0  0
  -26.5458  -18.2525   21.7803 H   0  0  0  0  0  0
  -28.7155  -15.6931   21.0791 H   0  0  0  0  0  0
  -30.0347  -22.4760   20.2700 H   0  0  0  0  0  0
  1 25  1  0  0  0
  1 30  2  0  0  0
  1 86  1  0  0  0
  2  3  1  0  0  0
  2 25  1  0  0  0
  2 89  1  0  0  0
  2 90  1  0  0  0
  3  4  1  0  0  0
  3 91  1  0  0  0
  3 92  1  0  0  0
  4  5  1  0  0  0
  4 93  1  0  0  0
  4 94  1  0  0  0
  5  6  1  0  0  0
  5 26  1  0  0  0
  5 95  1  0  0  0
  6 25  1  0  0  0
  6 96  1  0  0  0
  6 97  1  0  0  0
  7  8  2  0  0  0
  7 26  1  0  0  0
  7 29  1  0  0  0
  8  9  1  0  0  0
  8 22  1  0  0  0
  9 10  1  0  0  0
  9 27  2  0  0  0
 10 11  2  0  0  0
 10 15  1  0  0  0
 11 12  1  0  0  0
 11 98  1  0  0  0
 12 13  2  0  0  0
 12 99  1  0  0  0
 13 14  1  0  0  0
 13 31  1  0  0  0
 14 15  2  0  0  0
 14100  1  0  0  0
 15101  1  0  0  0
 16 17  2  0  0  0
 16 21  1  0  0  0
 16 31  1  0  0  0
 17 18  1  0  0  0
 17102  1  0  0  0
 18 19  2  0  0  0
 18103  1  0  0  0
 19 20  1  0  0  0
 19 24  1  0  0  0
 20 21  2  0  0  0
 20104  1  0  0  0
 21 23  1  0  0  0
 22 28  1  0  0  0
 22 32  2  0  0  0
 26 27  1  0  0  0
 28105  1  0  0  0
 28106  1  0  0  0
 29107  1  0  0  0
 29108  1  0  0  0
 33 34  1  0  0  0
 33 66  1  0  0  0
 33 70  2  0  0  0
 34 36  1  0  0  0
 34 59  1  0  0  0
 34109  1  0  0  0
 35 44  2  0  0  0
 35 45  1  0  0  0
 35 68  1  0  0  0
 36 56  1  0  0  0
 36110  1  0  0  0
 37 39  1  0  0  0
 37 47  1  0  0  0
 37 66  1  0  0  0
 37111  1  0  0  0
 38 43  2  0  0  0
 38 46  1  0  0  0
 38 47  1  0  0  0
 39 64  1  0  0  0
 39 67  2  0  0  0
 40 52  1  0  0  0
 40 53  2  0  0  0
 40 58  1  0  0  0
 41112  1  0  0  0
 41113  1  0  0  0
 41114  1  0  0  0
 41 48  1  0  0  0
 42 43  1  0  0  0
 42 66  1  0  0  0
 42115  1  0  0  0
 42116  1  0  0  0
 43 44  1  0  0  0
 44117  1  0  0  0
 45 46  2  0  0  0
 45118  1  0  0  0
 46119  1  0  0  0
 47120  1  0  0  0
 47121  1  0  0  0
 48 56  1  0  0  0
 48 65  1  0  0  0
 48122  1  0  0  0
 49 50  1  0  0  0
 49 53  1  0  0  0
 49 64  1  0  0  0
 49123  1  0  0  0
 50 51  1  0  0  0
 50124  1  0  0  0
 50125  1  0  0  0
 51 52  1  0  0  0
 51126  1  0  0  0
 51127  1  0  0  0
 52128  1  0  0  0
 52129  1  0  0  0
 53 54  1  0  0  0
 54 55  2  0  0  0
 54130  1  0  0  0
 55 57  1  0  0  0
 55131  1  0  0  0
 56 69  2  0  0  0
 57 58  2  0  0  0
 57132  1  0  0  0
 58133  1  0  0  0
 59 60  1  0  0  0
 59 61  1  0  0  0
 59 62  1  0  0  0
 60134  1  0  0  0
 60135  1  0  0  0
 60136  1  0  0  0
 61137  1  0  0  0
 61138  1  0  0  0
 61139  1  0  0  0
 62140  1  0  0  0
 62141  1  0  0  0
 62142  1  0  0  0
 63 65  1  0  0  0
 63143  1  0  0  0
 63144  1  0  0  0
 63145  1  0  0  0
 64146  1  0  0  0
 65147  1  0  0  0
 68 82  1  0  0  0
 71 72  2  0  0  0
 71 73  1  0  0  0
 71148  1  0  0  0
 72 74  1  0  0  0
 72 86  1  0  0  0
 73 75  2  0  0  0
 73 88  1  0  0  0
 74 84  2  0  0  0
 74 85  1  0  0  0
 75 84  1  0  0  0
 75 87  1  0  0  0
 76 77  2  0  0  0
 76 78  1  0  0  0
 76149  1  0  0  0
 77 79  1  0  0  0
 77 83  1  0  0  0
 78 80  1  0  0  0
 78150  1  0  0  0
 78151  1  0  0  0
 79 81  1  0  0  0
 79152  1  0  0  0
 79153  1  0  0  0
 80 81  1  0  0  0
 80154  1  0  0  0
 80155  1  0  0  0
 81156  1  0  0  0
 81157  1  0  0  0
 82158  1  0  0  0
 82159  1  0  0  0
 82 83  1  0  0  0
 83 87  1  0  0  0
 83160  1  0  0  0
 85161  1  0  0  0
 85162  1  0  0  0
 86163  1  0  0  0
 87164  1  0  0  0
M  ISO  4   1 100  68 101  82 101  86 100
M  END
> <chiral flag>
0

> <version>
0

> <s_m_source_file>
/data/baiqing/PycharmProjects/Reinvent-master-3.2/result/LINK_invent/BTK/process_docking_weight1_custom_product_contain_oxygen_bond_distance_aromatic_linkinvent_7_9_3/rearranged_h_0113.sdf

> <i_m_source_file_index>
72

> <r_mmod_Potential_Energy-OPLS-2005>
222.496032714844

> <r_mmod_Stretch_Energy-OPLS-2005>
239.992965698242

> <r_mmod_Bend_Energy-OPLS-2005>
331.4052734375

> <r_mmod_Torsional_Energy-OPLS-2005>
252.981262207031

> <r_mmod_Improper_Torsional_Energy-OPLS-2005>
9.00169086456299

> <r_mmod_Van_der_Waal_Energy-OPLS-2005>
127.504257202148

> <r_mmod_Electrostatic_Energy-OPLS-2005>
-724.655456542969

> <r_mmod_Solvation_Energy-OPLS-2005>
-219.563461303711

> <b_mmod_Minimization_Converged-OPLS-2005>
0

> <r_mmod_RMS_Derivative-OPLS-2005>
7.48710918426514

$$$$
72
                    3D
 Structure written by MMmdl.
159167  0  0  1  0            999 V2000
  -30.5822  -14.7999   20.5313 C   0  0  0  0  0  0
  -30.4414  -12.5125   19.4755 C   0  0  0  0  0  0
  -29.5100  -12.5562   18.2422 C   0  0  0  0  0  0
  -28.0373  -12.3645   18.6539 C   0  0  0  0  0  0
  -27.6512  -13.2334   19.8813 C   0  0  2  0  0  0
  -28.7038  -13.0975   21.0056 C   0  0  0  0  0  0
  -25.2490  -13.8168   20.5623 C   0  0  0  0  0  0
  -24.1799  -13.0424   20.9192 C   0  0  0  0  0  0
  -24.6409  -11.6909   20.8774 C   0  0  0  0  0  0
  -23.9082  -10.4287   21.0420 C   0  0  0  0  0  0
  -24.3626   -9.4198   21.9196 C   0  0  0  0  0  0
  -23.6296   -8.2236   22.0759 C   0  0  0  0  0  0
  -22.4280   -8.0280   21.3546 C   0  0  0  0  0  0
  -21.9921   -9.0257   20.4649 C   0  0  0  0  0  0
  -22.7255  -10.2135   20.3065 C   0  0  0  0  0  0
  -21.6852   -6.0737   22.5279 C   0  0  0  0  0  0
  -21.4014   -6.5641   23.8212 C   0  0  0  0  0  0
  -21.3660   -5.6794   24.9174 C   0  0  0  0  0  0
  -21.6044   -4.3056   24.7225 C   0  0  0  0  0  0
  -21.8819   -3.8148   23.4346 C   0  0  0  0  0  0
  -21.9192   -4.6965   22.3402 C   0  0  0  0  0  0
  -22.7819  -13.5209   21.1844 C   0  0  0  0  0  0
  -22.1661   -4.2150   21.0980 F   0  0  0  0  0  0
  -21.5629   -3.4540   25.7737 F   0  0  0  0  0  0
  -29.9860  -13.5444   20.4502 N   0  0  0  0  0  0
  -26.2987  -12.9404   20.3435 N   0  0  0  0  0  0
  -25.9362  -11.6541   20.5857 N   0  0  0  0  0  0
  -22.0474  -12.8208   22.0415 N   0  0  0  0  0  0
  -25.4089  -15.1858   20.3800 N   0  0  0  0  0  0
  -31.6715  -14.9612   19.9659 O   0  0  0  0  0  0
  -21.6640   -6.8880   21.4241 O   0  0  0  0  0  0
  -22.3495  -14.5511   20.6690 O   0  0  0  0  0  0
  -24.6338  -31.8493   23.1916 C   0  0  0  0  0  0
  -25.9147  -32.4719   23.8285 C   0  0  1  0  0  0
  -27.2349  -27.2257   20.1323 C   0  0  0  0  0  0
  -25.5926  -33.8524   24.2210 N   0  0  0  0  0  0
  -23.4342  -30.4664   21.5340 C   0  0  2  0  0  0
  -24.8857  -28.9013   20.1028 C   0  0  0  0  0  0
  -22.7520  -29.4561   22.4883 C   0  0  0  0  0  0
  -18.0295  -28.1389   22.8480 C   0  0  0  0  0  0
  -24.1492  -36.7272   23.2643 C   0  0  0  0  0  0
  -25.9796  -30.7494   21.3766 C   0  0  0  0  0  0
  -26.0524  -29.3671   20.7197 C   0  0  0  0  0  0
  -27.2218  -28.5384   20.7268 C   0  0  0  0  0  0
  -26.0472  -26.8293   19.4824 C   0  0  0  0  0  0
  -24.8903  -27.6430   19.4735 C   0  0  0  0  0  0
  -23.6552  -29.7911   20.1519 C   0  0  0  0  0  0
  -25.4120  -36.3048   24.0320 C   0  0  1  0  0  0
  -20.5900  -28.3703   23.1260 C   0  0  2  0  0  0
  -20.6779  -26.9414   22.5412 C   0  0  0  0  0  0
  -19.5757  -26.6379   21.5213 C   0  0  0  0  0  0
  -18.1936  -26.7930   22.1619 C   0  0  0  0  0  0
  -19.1549  -28.8863   23.2864 C   0  0  0  0  0  0
  -18.9469  -30.1462   23.8886 C   0  0  0  0  0  0
  -17.6468  -30.6588   24.0560 C   0  0  0  0  0  0
  -25.9061  -34.9421   23.5075 C   0  0  0  0  0  0
  -16.5359  -29.9084   23.6330 C   0  0  0  0  0  0
  -16.7281  -28.6502   23.0351 C   0  0  0  0  0  0
  -26.4504  -31.6570   25.0700 C   0  0  0  0  0  0
  -25.3714  -31.3735   26.1413 C   0  0  0  0  0  0
  -27.0368  -30.2983   24.6225 C   0  0  0  0  0  0
  -27.6046  -32.4328   25.7478 C   0  0  0  0  0  0
  -27.5576  -37.1791   24.8466 C   0  0  0  0  0  0
  -21.4222  -29.3036   22.3636 N   0  0  0  0  0  0
  -26.4290  -37.3752   23.9404 N   0  0  0  0  0  0
  -24.7014  -31.0418   22.0903 N   0  0  0  0  0  0
  -23.4200  -28.8122   23.3015 O   0  0  0  0  0  0
  -28.3393  -26.3421   20.2637 O   0  0  0  0  0  0
  -26.5647  -34.8910   22.4653 O   0  0  0  0  0  0
  -23.5481  -32.1333   23.7189 O   0  0  0  0  0  0
  -29.6678  -18.5482   20.5605 C   0  0  0  0  0  0
  -27.7999  -19.8843   21.3727 C   0  0  0  0  0  0
  -29.2282  -17.3189   21.2473 C   0  0  0  0  0  0
  -27.9941  -17.4932   21.9837 C   0  0  0  0  0  0
  -27.3076  -18.7421   22.0158 C   0  0  0  0  0  0
  -28.9792  -19.8524   20.6242 C   0  0  0  0  0  0
  -30.0652  -15.9742   21.5234 C   0  0  0  0  0  0
  -28.2136  -23.5836   20.2326 C   0  0  0  0  0  0
  -27.6132  -16.4654   24.3262 C   0  0  0  0  0  0
  -27.3533  -16.3665   22.8112 C   0  0  0  0  0  0
  -28.5508  -25.0172   19.5518 C   0  0  0  0  0  0
  -29.3253  -22.4481   20.5652 C   0  0  0  0  0  0
  -30.4340  -15.8146   22.7251 N   0  0  0  0  0  0
  -26.1061  -18.8987   22.7120 N   0  0  0  0  0  0
  -27.0348  -23.3407   20.5118 O   0  0  0  0  0  0
  -29.3101  -21.0653   19.9344 O   0  0  0  0  0  0
  -31.4760  -12.6629   19.1644 H   0  0  0  0  0  0
  -30.4246  -11.5212   19.9312 H   0  0  0  0  0  0
  -29.8004  -11.7922   17.5200 H   0  0  0  0  0  0
  -29.6241  -13.5158   17.7355 H   0  0  0  0  0  0
  -27.8942  -11.3093   18.8906 H   0  0  0  0  0  0
  -27.3767  -12.5797   17.8132 H   0  0  0  0  0  0
  -27.6624  -14.2703   19.5450 H   0  0  0  0  0  0
  -28.7689  -12.0576   21.3297 H   0  0  0  0  0  0
  -28.4470  -13.6366   21.9065 H   0  0  0  0  0  0
  -25.2768   -9.5671   22.4776 H   0  0  0  0  0  0
  -24.0001   -7.4626   22.7478 H   0  0  0  0  0  0
  -21.0853   -8.8783   19.8952 H   0  0  0  0  0  0
  -22.3718  -10.9678   19.6176 H   0  0  0  0  0  0
  -21.2007   -7.6149   23.9715 H   0  0  0  0  0  0
  -21.1482   -6.0525   25.9077 H   0  0  0  0  0  0
  -22.0598   -2.7610   23.2846 H   0  0  0  0  0  0
  -22.4097  -11.9874   22.4806 H   0  0  0  0  0  0
  -21.1094  -13.1232   22.2627 H   0  0  0  0  0  0
  -24.6383  -15.8355   20.4888 H   0  0  0  0  0  0
  -26.2572  -15.6328   20.0589 H   0  0  0  0  0  0
  -26.7212  -32.5354   23.1021 H   0  0  0  0  0  0
  -25.0058  -33.9649   25.0347 H   0  0  0  0  0  0
  -22.7324  -31.2889   21.3817 H   0  0  0  0  0  0
  -23.3750  -35.9608   23.3303 H   0  0  0  0  0  0
  -24.3579  -36.8904   22.2058 H   0  0  0  0  0  0
  -23.7254  -37.6472   23.6679 H   0  0  0  0  0  0
  -26.1229  -31.5073   20.6051 H   0  0  0  0  0  0
  -26.8549  -30.8007   22.0128 H   0  0  0  0  0  0
  -28.1110  -28.8854   21.2344 H   0  0  0  0  0  0
  -25.9844  -25.8553   19.0196 H   0  0  0  0  0  0
  -23.9945  -27.2791   18.9892 H   0  0  0  0  0  0
  -23.7785  -30.5638   19.3923 H   0  0  0  0  0  0
  -22.7737  -29.2229   19.8496 H   0  0  0  0  0  0
  -25.1309  -36.1882   25.0813 H   0  0  0  0  0  0
  -20.9992  -28.3288   24.1380 H   0  0  0  0  0  0
  -20.5671  -26.2314   23.3622 H   0  0  0  0  0  0
  -21.6647  -26.7426   22.1211 H   0  0  0  0  0  0
  -19.6918  -25.6286   21.1252 H   0  0  0  0  0  0
  -19.6698  -27.3181   20.6736 H   0  0  0  0  0  0
  -17.4207  -26.6675   21.4021 H   0  0  0  0  0  0
  -18.0334  -26.0075   22.9018 H   0  0  0  0  0  0
  -19.7946  -30.7278   24.2251 H   0  0  0  0  0  0
  -17.5022  -31.6266   24.5164 H   0  0  0  0  0  0
  -15.5359  -30.2982   23.7662 H   0  0  0  0  0  0
  -15.8681  -28.0819   22.7071 H   0  0  0  0  0  0
  -24.5896  -30.7077   25.7737 H   0  0  0  0  0  0
  -24.8894  -32.2909   26.4804 H   0  0  0  0  0  0
  -25.8016  -30.8934   27.0211 H   0  0  0  0  0  0
  -26.2967  -29.6706   24.1249 H   0  0  0  0  0  0
  -27.4036  -29.7273   25.4765 H   0  0  0  0  0  0
  -27.8846  -30.4248   23.9488 H   0  0  0  0  0  0
  -27.2648  -33.3643   26.2018 H   0  0  0  0  0  0
  -28.3873  -32.6867   25.0315 H   0  0  0  0  0  0
  -28.0699  -31.8480   26.5422 H   0  0  0  0  0  0
  -28.2593  -38.0089   24.7501 H   0  0  0  0  0  0
  -28.1072  -36.2616   24.6306 H   0  0  0  0  0  0
  -27.2292  -37.1458   25.8870 H   0  0  0  0  0  0
  -20.9418  -29.8744   21.6821 H   0  0  0  0  0  0
  -26.0161  -38.2825   24.1395 H   0  0  0  0  0  0
  -30.5984  -18.5038   20.0130 H   0  0  0  0  0  0
  -27.2374  -20.8058   21.4235 H   0  0  0  0  0  0
  -27.1254  -15.6434   24.8506 H   0  0  0  0  0  0
  -27.2233  -17.3931   24.7440 H   0  0  0  0  0  0
  -28.6722  -16.4218   24.5715 H   0  0  0  0  0  0
  -27.6464  -15.3971   22.4480 H   0  0  0  0  0  0
  -26.2762  -16.3654   22.6471 H   0  0  0  0  0  0
  -28.0322  -25.0551   18.5943 H   0  0  0  0  0  0
  -29.6088  -24.9828   19.2916 H   0  0  0  0  0  0
  -29.3332  -22.3186   21.6476 H   0  0  0  0  0  0
  -30.2940  -22.8859   20.3248 H   0  0  0  0  0  0
  -30.1021  -16.5786   23.3006 H   0  0  0  0  0  0
  -25.7895  -19.8324   22.9517 H   0  0  0  0  0  0
  -25.8533  -18.2007   23.4020 H   0  0  0  0  0  0
  1 25  1  0  0  0
  1 30  2  0  0  0
  1 77  1  0  0  0
  2  3  1  0  0  0
  2 25  1  0  0  0
  2 87  1  0  0  0
  2 88  1  0  0  0
  3  4  1  0  0  0
  3 89  1  0  0  0
  3 90  1  0  0  0
  4  5  1  0  0  0
  4 91  1  0  0  0
  4 92  1  0  0  0
  5  6  1  0  0  0
  5 26  1  0  0  0
  5 93  1  0  0  0
  6 25  1  0  0  0
  6 94  1  0  0  0
  6 95  1  0  0  0
  7  8  2  0  0  0
  7 26  1  0  0  0
  7 29  1  0  0  0
  8  9  1  0  0  0
  8 22  1  0  0  0
  9 10  1  0  0  0
  9 27  2  0  0  0
 10 11  2  0  0  0
 10 15  1  0  0  0
 11 12  1  0  0  0
 11 96  1  0  0  0
 12 13  2  0  0  0
 12 97  1  0  0  0
 13 14  1  0  0  0
 13 31  1  0  0  0
 14 15  2  0  0  0
 14 98  1  0  0  0
 15 99  1  0  0  0
 16 17  2  0  0  0
 16 21  1  0  0  0
 16 31  1  0  0  0
 17 18  1  0  0  0
 17100  1  0  0  0
 18 19  2  0  0  0
 18101  1  0  0  0
 19 20  1  0  0  0
 19 24  1  0  0  0
 20 21  2  0  0  0
 20102  1  0  0  0
 21 23  1  0  0  0
 22 28  1  0  0  0
 22 32  2  0  0  0
 26 27  1  0  0  0
 28103  1  0  0  0
 28104  1  0  0  0
 29105  1  0  0  0
 29106  1  0  0  0
 33 34  1  0  0  0
 33 66  1  0  0  0
 33 70  2  0  0  0
 34 36  1  0  0  0
 34 59  1  0  0  0
 34107  1  0  0  0
 35 44  2  0  0  0
 35 45  1  0  0  0
 35 68  1  0  0  0
 36 56  1  0  0  0
 36108  1  0  0  0
 37 39  1  0  0  0
 37 47  1  0  0  0
 37 66  1  0  0  0
 37109  1  0  0  0
 38 43  2  0  0  0
 38 46  1  0  0  0
 38 47  1  0  0  0
 39 64  1  0  0  0
 39 67  2  0  0  0
 40 52  1  0  0  0
 40 53  2  0  0  0
 40 58  1  0  0  0
 41110  1  0  0  0
 41111  1  0  0  0
 41112  1  0  0  0
 41 48  1  0  0  0
 42 43  1  0  0  0
 42 66  1  0  0  0
 42113  1  0  0  0
 42114  1  0  0  0
 43 44  1  0  0  0
 44115  1  0  0  0
 45 46  2  0  0  0
 45116  1  0  0  0
 46117  1  0  0  0
 47118  1  0  0  0
 47119  1  0  0  0
 48 56  1  0  0  0
 48 65  1  0  0  0
 48120  1  0  0  0
 49 50  1  0  0  0
 49 53  1  0  0  0
 49 64  1  0  0  0
 49121  1  0  0  0
 50 51  1  0  0  0
 50122  1  0  0  0
 50123  1  0  0  0
 51 52  1  0  0  0
 51124  1  0  0  0
 51125  1  0  0  0
 52126  1  0  0  0
 52127  1  0  0  0
 53 54  1  0  0  0
 54 55  2  0  0  0
 54128  1  0  0  0
 55 57  1  0  0  0
 55129  1  0  0  0
 56 69  2  0  0  0
 57 58  2  0  0  0
 57130  1  0  0  0
 58131  1  0  0  0
 59 60  1  0  0  0
 59 61  1  0  0  0
 59 62  1  0  0  0
 60132  1  0  0  0
 60133  1  0  0  0
 60134  1  0  0  0
 61135  1  0  0  0
 61136  1  0  0  0
 61137  1  0  0  0
 62138  1  0  0  0
 62139  1  0  0  0
 62140  1  0  0  0
 63 65  1  0  0  0
 63141  1  0  0  0
 63142  1  0  0  0
 63143  1  0  0  0
 64144  1  0  0  0
 65145  1  0  0  0
 68 81  1  0  0  0
 71 73  2  0  0  0
 71 76  1  0  0  0
 71146  1  0  0  0
 72 75  1  0  0  0
 72 76  2  0  0  0
 72147  1  0  0  0
 73 74  1  0  0  0
 73 77  1  0  0  0
 74 75  2  0  0  0
 74 80  1  0  0  0
 75 84  1  0  0  0
 76 86  1  0  0  0
 77 83  2  0  0  0
 78 81  1  0  0  0
 78 82  1  0  0  0
 78 85  2  0  0  0
 79 80  1  0  0  0
 79148  1  0  0  0
 79149  1  0  0  0
 79150  1  0  0  0
 80151  1  0  0  0
 80152  1  0  0  0
 81153  1  0  0  0
 81154  1  0  0  0
 82 86  1  0  0  0
 82155  1  0  0  0
 82156  1  0  0  0
 83157  1  0  0  0
 84158  1  0  0  0
 84159  1  0  0  0
M  ISO  4   1 100  68 101  77 100  81 101
M  END
> <chiral flag>
0

> <version>
0

> <s_m_source_file>
/data/baiqing/PycharmProjects/Reinvent-master-3.2/result/LINK_invent/BTK/process_docking_weight1_custom_product_contain_oxygen_bond_distance_aromatic_linkinvent_7_9_3/rearranged_h_0113.sdf

> <i_m_source_file_index>
73

> <r_mmod_Potential_Energy-OPLS-2005>
557.493041992188

> <r_mmod_Stretch_Energy-OPLS-2005>
194.865600585938

> <r_mmod_Bend_Energy-OPLS-2005>
286.162841796875

> <r_mmod_Torsional_Energy-OPLS-2005>
264.806610107422

> <r_mmod_Improper_Torsional_Energy-OPLS-2005>
10.4986953735352

> <r_mmod_Van_der_Waal_Energy-OPLS-2005>
137.073257446289

> <r_mmod_Electrostatic_Energy-OPLS-2005>
-221.683166503906

> <r_mmod_Solvation_Energy-OPLS-2005>
-222.202026367188

> <b_mmod_Minimization_Converged-OPLS-2005>
0

> <r_mmod_RMS_Derivative-OPLS-2005>
0.261400043964386

$$$$
73
                    3D
 Structure written by MMmdl.
152160  0  0  1  0            999 V2000
  -30.5977  -14.7750   20.4725 C   0  0  0  0  0  0
  -30.4361  -12.4798   19.4670 C   0  0  0  0  0  0
  -29.5078  -12.5090   18.2330 C   0  0  0  0  0  0
  -28.0374  -12.3227   18.6531 C   0  0  0  0  0  0
  -27.6386  -13.2305   19.8467 C   0  0  2  0  0  0
  -28.6853  -13.1772   20.9803 C   0  0  0  0  0  0
  -25.2508  -13.8193   20.5701 C   0  0  0  0  0  0
  -24.1802  -13.0441   20.9218 C   0  0  0  0  0  0
  -24.6391  -11.6917   20.8757 C   0  0  0  0  0  0
  -23.9071  -10.4294   21.0415 C   0  0  0  0  0  0
  -24.3622   -9.4207   21.9189 C   0  0  0  0  0  0
  -23.6293   -8.2247   22.0752 C   0  0  0  0  0  0
  -22.4275   -8.0287   21.3542 C   0  0  0  0  0  0
  -21.9911   -9.0267   20.4650 C   0  0  0  0  0  0
  -22.7242  -10.2144   20.3064 C   0  0  0  0  0  0
  -21.6851   -6.0741   22.5279 C   0  0  0  0  0  0
  -21.4016   -6.5645   23.8214 C   0  0  0  0  0  0
  -21.3657   -5.6793   24.9173 C   0  0  0  0  0  0
  -21.6045   -4.3055   24.7223 C   0  0  0  0  0  0
  -21.8819   -3.8147   23.4344 C   0  0  0  0  0  0
  -21.9192   -4.6967   22.3401 C   0  0  0  0  0  0
  -22.7827  -13.5231   21.1877 C   0  0  0  0  0  0
  -22.1661   -4.2153   21.0978 F   0  0  0  0  0  0
  -21.5621   -3.4538   25.7735 F   0  0  0  0  0  0
  -29.9796  -13.5445   20.3910 N   0  0  0  0  0  0
  -26.2925  -12.9392   20.3268 N   0  0  0  0  0  0
  -25.9319  -11.6539   20.5759 N   0  0  0  0  0  0
  -22.0463  -12.8228   22.0431 N   0  0  0  0  0  0
  -25.4194  -15.1920   20.4120 N   0  0  0  0  0  0
  -31.7886  -14.8719   20.1616 O   0  0  0  0  0  0
  -21.6636   -6.8885   21.4241 O   0  0  0  0  0  0
  -22.3517  -14.5538   20.6720 O   0  0  0  0  0  0
  -24.6323  -31.8533   23.1960 C   0  0  0  0  0  0
  -25.9142  -32.4741   23.8314 C   0  0  1  0  0  0
  -27.2191  -27.2435   20.1423 C   0  0  0  0  0  0
  -25.5931  -33.8542   24.2236 N   0  0  0  0  0  0
  -23.4306  -30.4736   21.5398 C   0  0  2  0  0  0
  -24.8796  -28.9147   20.1136 C   0  0  0  0  0  0
  -22.7514  -29.4582   22.4907 C   0  0  0  0  0  0
  -18.0300  -28.1387   22.8486 C   0  0  0  0  0  0
  -24.1488  -36.7280   23.2636 C   0  0  0  0  0  0
  -25.9772  -30.7608   21.3789 C   0  0  0  0  0  0
  -26.0517  -29.3797   20.7255 C   0  0  0  0  0  0
  -27.2265  -28.5566   20.7285 C   0  0  0  0  0  0
  -26.0266  -26.8475   19.5027 C   0  0  0  0  0  0
  -24.8726  -27.6562   19.4910 C   0  0  0  0  0  0
  -23.6512  -29.8046   20.1575 C   0  0  0  0  0  0
  -25.4113  -36.3055   24.0319 C   0  0  1  0  0  0
  -20.5902  -28.3690   23.1271 C   0  0  2  0  0  0
  -20.6781  -26.9404   22.5411 C   0  0  0  0  0  0
  -19.5753  -26.6378   21.5217 C   0  0  0  0  0  0
  -18.1938  -26.7929   22.1630 C   0  0  0  0  0  0
  -19.1553  -28.8860   23.2871 C   0  0  0  0  0  0
  -18.9469  -30.1465   23.8884 C   0  0  0  0  0  0
  -17.6463  -30.6582   24.0563 C   0  0  0  0  0  0
  -25.9058  -34.9429   23.5082 C   0  0  0  0  0  0
  -16.5359  -29.9075   23.6334 C   0  0  0  0  0  0
  -16.7286  -28.6499   23.0348 C   0  0  0  0  0  0
  -26.4504  -31.6580   25.0718 C   0  0  0  0  0  0
  -25.3724  -31.3770   26.1448 C   0  0  0  0  0  0
  -27.0338  -30.2982   24.6227 C   0  0  0  0  0  0
  -27.6051  -32.4333   25.7488 C   0  0  0  0  0  0
  -27.5579  -37.1785   24.8456 C   0  0  0  0  0  0
  -21.4218  -29.3030   22.3654 N   0  0  0  0  0  0
  -26.4282  -37.3758   23.9411 N   0  0  0  0  0  0
  -24.6992  -31.0480   22.0949 N   0  0  0  0  0  0
  -23.4206  -28.8130   23.3018 O   0  0  0  0  0  0
  -28.2999  -26.3283   20.1479 O   0  0  0  0  0  0
  -26.5633  -34.8910   22.4654 O   0  0  0  0  0  0
  -23.5469  -32.1362   23.7243 O   0  0  0  0  0  0
  -31.2664  -18.9749   22.3827 C   0  0  0  0  0  0
  -30.6108  -20.0653   21.7784 C   0  0  0  0  0  0
  -31.0117  -17.6386   22.0083 C   0  0  0  0  0  0
  -29.6556  -19.8829   20.7577 C   0  0  0  0  0  0
  -30.1030  -17.3342   20.9592 C   0  0  0  0  0  0
  -29.4223  -18.4878   20.3599 C   0  0  0  0  0  0
  -28.8490  -23.8322   20.2951 C   0  0  0  0  0  0
  -28.0972  -24.9735   20.5722 C   0  0  0  0  0  0
  -28.6841  -22.3609   20.9117 C   0  0  0  0  0  0
  -31.6375  -16.6380   22.7545 N   0  0  0  0  0  0
  -29.7973  -15.9016   20.6496 N   0  0  0  0  0  0
  -29.0324  -21.0687   20.1707 N   0  0  0  0  0  0
  -28.5120  -18.2506   19.3828 F   0  0  0  0  0  0
  -31.4728  -12.6197   19.1559 H   0  0  0  0  0  0
  -30.3986  -11.5063   19.9585 H   0  0  0  0  0  0
  -29.7942  -11.7305   17.5248 H   0  0  0  0  0  0
  -29.6224  -13.4587   17.7080 H   0  0  0  0  0  0
  -27.9071  -11.2753   18.9285 H   0  0  0  0  0  0
  -27.3746  -12.4979   17.8048 H   0  0  0  0  0  0
  -27.6268  -14.2481   19.4566 H   0  0  0  0  0  0
  -28.7320  -12.1817   21.4229 H   0  0  0  0  0  0
  -28.4146  -13.8590   21.7885 H   0  0  0  0  0  0
  -25.2769   -9.5676   22.4766 H   0  0  0  0  0  0
  -23.9996   -7.4633   22.7470 H   0  0  0  0  0  0
  -21.0838   -8.8804   19.8959 H   0  0  0  0  0  0
  -22.3707  -10.9694   19.6183 H   0  0  0  0  0  0
  -21.2013   -7.6156   23.9723 H   0  0  0  0  0  0
  -21.1473   -6.0519   25.9075 H   0  0  0  0  0  0
  -22.0597   -2.7608   23.2846 H   0  0  0  0  0  0
  -22.4073  -11.9894   22.4832 H   0  0  0  0  0  0
  -21.1087  -13.1268   22.2638 H   0  0  0  0  0  0
  -24.6481  -15.8414   20.5247 H   0  0  0  0  0  0
  -26.2564  -15.6351   20.0563 H   0  0  0  0  0  0
  -26.7211  -32.5389   23.1057 H   0  0  0  0  0  0
  -25.0065  -33.9679   25.0372 H   0  0  0  0  0  0
  -22.7271  -31.2956   21.3916 H   0  0  0  0  0  0
  -23.3745  -35.9618   23.3284 H   0  0  0  0  0  0
  -24.3580  -36.8920   22.2053 H   0  0  0  0  0  0
  -23.7248  -37.6477   23.6680 H   0  0  0  0  0  0
  -26.1163  -31.5183   20.6063 H   0  0  0  0  0  0
  -26.8540  -30.8130   22.0127 H   0  0  0  0  0  0
  -28.1260  -28.9072   21.2147 H   0  0  0  0  0  0
  -25.9792  -25.8789   19.0245 H   0  0  0  0  0  0
  -23.9753  -27.2939   19.0079 H   0  0  0  0  0  0
  -23.7779  -30.5796   19.4007 H   0  0  0  0  0  0
  -22.7688  -29.2394   19.8521 H   0  0  0  0  0  0
  -25.1291  -36.1889   25.0808 H   0  0  0  0  0  0
  -21.0000  -28.3271   24.1389 H   0  0  0  0  0  0
  -20.5678  -26.2296   23.3614 H   0  0  0  0  0  0
  -21.6648  -26.7420   22.1206 H   0  0  0  0  0  0
  -19.6907  -25.6289   21.1243 H   0  0  0  0  0  0
  -19.6692  -27.3192   20.6752 H   0  0  0  0  0  0
  -17.4203  -26.6679   21.4037 H   0  0  0  0  0  0
  -18.0336  -26.0078   22.9033 H   0  0  0  0  0  0
  -19.7941  -30.7294   24.2236 H   0  0  0  0  0  0
  -17.5011  -31.6259   24.5168 H   0  0  0  0  0  0
  -15.5355  -30.2962   23.7667 H   0  0  0  0  0  0
  -15.8693  -28.0814   22.7052 H   0  0  0  0  0  0
  -24.5859  -30.7163   25.7788 H   0  0  0  0  0  0
  -24.8977  -32.2969   26.4875 H   0  0  0  0  0  0
  -25.8031  -30.8934   27.0224 H   0  0  0  0  0  0
  -26.2925  -29.6734   24.1233 H   0  0  0  0  0  0
  -27.3977  -29.7248   25.4762 H   0  0  0  0  0  0
  -27.8825  -30.4230   23.9496 H   0  0  0  0  0  0
  -27.2642  -33.3628   26.2058 H   0  0  0  0  0  0
  -28.3861  -32.6902   25.0321 H   0  0  0  0  0  0
  -28.0721  -31.8471   26.5412 H   0  0  0  0  0  0
  -28.2576  -38.0101   24.7517 H   0  0  0  0  0  0
  -28.1094  -36.2632   24.6253 H   0  0  0  0  0  0
  -27.2306  -37.1396   25.8861 H   0  0  0  0  0  0
  -20.9408  -29.8741   21.6846 H   0  0  0  0  0  0
  -26.0152  -38.2822   24.1438 H   0  0  0  0  0  0
  -31.9712  -19.1855   23.1752 H   0  0  0  0  0  0
  -30.8719  -21.0559   22.1178 H   0  0  0  0  0  0
  -29.6933  -23.9459   19.6308 H   0  0  0  0  0  0
  -27.2418  -24.9085   21.2322 H   0  0  0  0  0  0
  -27.6394  -22.2739   21.2152 H   0  0  0  0  0  0
  -29.2345  -22.3808   21.8513 H   0  0  0  0  0  0
  -32.0443  -16.8859   23.6505 H   0  0  0  0  0  0
  -31.2276  -15.7125   22.7529 H   0  0  0  0  0  0
  -28.8114  -15.7056   20.5926 H   0  0  0  0  0  0
  -28.4135  -20.8481   19.3928 H   0  0  0  0  0  0
  1 25  1  0  0  0
  1 30  2  0  0  0
  1 81  1  0  0  0
  2  3  1  0  0  0
  2 25  1  0  0  0
  2 84  1  0  0  0
  2 85  1  0  0  0
  3  4  1  0  0  0
  3 86  1  0  0  0
  3 87  1  0  0  0
  4  5  1  0  0  0
  4 88  1  0  0  0
  4 89  1  0  0  0
  5  6  1  0  0  0
  5 26  1  0  0  0
  5 90  1  0  0  0
  6 25  1  0  0  0
  6 91  1  0  0  0
  6 92  1  0  0  0
  7  8  2  0  0  0
  7 26  1  0  0  0
  7 29  1  0  0  0
  8  9  1  0  0  0
  8 22  1  0  0  0
  9 10  1  0  0  0
  9 27  2  0  0  0
 10 11  2  0  0  0
 10 15  1  0  0  0
 11 12  1  0  0  0
 11 93  1  0  0  0
 12 13  2  0  0  0
 12 94  1  0  0  0
 13 14  1  0  0  0
 13 31  1  0  0  0
 14 15  2  0  0  0
 14 95  1  0  0  0
 15 96  1  0  0  0
 16 17  2  0  0  0
 16 21  1  0  0  0
 16 31  1  0  0  0
 17 18  1  0  0  0
 17 97  1  0  0  0
 18 19  2  0  0  0
 18 98  1  0  0  0
 19 20  1  0  0  0
 19 24  1  0  0  0
 20 21  2  0  0  0
 20 99  1  0  0  0
 21 23  1  0  0  0
 22 28  1  0  0  0
 22 32  2  0  0  0
 26 27  1  0  0  0
 28100  1  0  0  0
 28101  1  0  0  0
 29102  1  0  0  0
 29103  1  0  0  0
 33 34  1  0  0  0
 33 66  1  0  0  0
 33 70  2  0  0  0
 34 36  1  0  0  0
 34 59  1  0  0  0
 34104  1  0  0  0
 35 44  2  0  0  0
 35 45  1  0  0  0
 35 68  1  0  0  0
 36 56  1  0  0  0
 36105  1  0  0  0
 37 39  1  0  0  0
 37 47  1  0  0  0
 37 66  1  0  0  0
 37106  1  0  0  0
 38 43  2  0  0  0
 38 46  1  0  0  0
 38 47  1  0  0  0
 39 64  1  0  0  0
 39 67  2  0  0  0
 40 52  1  0  0  0
 40 53  2  0  0  0
 40 58  1  0  0  0
 41107  1  0  0  0
 41108  1  0  0  0
 41109  1  0  0  0
 41 48  1  0  0  0
 42 43  1  0  0  0
 42 66  1  0  0  0
 42110  1  0  0  0
 42111  1  0  0  0
 43 44  1  0  0  0
 44112  1  0  0  0
 45 46  2  0  0  0
 45113  1  0  0  0
 46114  1  0  0  0
 47115  1  0  0  0
 47116  1  0  0  0
 48 56  1  0  0  0
 48 65  1  0  0  0
 48117  1  0  0  0
 49 50  1  0  0  0
 49 53  1  0  0  0
 49 64  1  0  0  0
 49118  1  0  0  0
 50 51  1  0  0  0
 50119  1  0  0  0
 50120  1  0  0  0
 51 52  1  0  0  0
 51121  1  0  0  0
 51122  1  0  0  0
 52123  1  0  0  0
 52124  1  0  0  0
 53 54  1  0  0  0
 54 55  2  0  0  0
 54125  1  0  0  0
 55 57  1  0  0  0
 55126  1  0  0  0
 56 69  2  0  0  0
 57 58  2  0  0  0
 57127  1  0  0  0
 58128  1  0  0  0
 59 60  1  0  0  0
 59 61  1  0  0  0
 59 62  1  0  0  0
 60129  1  0  0  0
 60130  1  0  0  0
 60131  1  0  0  0
 61132  1  0  0  0
 61133  1  0  0  0
 61134  1  0  0  0
 62135  1  0  0  0
 62136  1  0  0  0
 62137  1  0  0  0
 63 65  1  0  0  0
 63138  1  0  0  0
 63139  1  0  0  0
 63140  1  0  0  0
 64141  1  0  0  0
 65142  1  0  0  0
 68 78  1  0  0  0
 71 72  2  0  0  0
 71 73  1  0  0  0
 71143  1  0  0  0
 72 74  1  0  0  0
 72144  1  0  0  0
 73 75  2  0  0  0
 73 80  1  0  0  0
 74 76  2  0  0  0
 74 82  1  0  0  0
 75 76  1  0  0  0
 75 81  1  0  0  0
 76 83  1  0  0  0
 77 78  2  0  0  0
 77 79  1  0  0  0
 77145  1  0  0  0
 78146  1  0  0  0
 79 82  1  0  0  0
 79147  1  0  0  0
 79148  1  0  0  0
 80149  1  0  0  0
 80150  1  0  0  0
 81151  1  0  0  0
 82152  1  0  0  0
M  ISO  4   1 100  68 101  78 101  81 100
M  END
> <chiral flag>
0

> <version>
0

> <s_m_source_file>
/data/baiqing/PycharmProjects/Reinvent-master-3.2/result/LINK_invent/BTK/process_docking_weight1_custom_product_contain_oxygen_bond_distance_aromatic_linkinvent_7_9_3/rearranged_h_0113.sdf

> <i_m_source_file_index>
74

> <r_mmod_Potential_Energy-OPLS-2005>
128.953460693359

> <r_mmod_Stretch_Energy-OPLS-2005>
133.116882324219

> <r_mmod_Bend_Energy-OPLS-2005>
168.253921508789

> <r_mmod_Torsional_Energy-OPLS-2005>
229.968200683594

> <r_mmod_Improper_Torsional_Energy-OPLS-2005>
12.536768913269

> <r_mmod_Van_der_Waal_Energy-OPLS-2005>
141.431228637695

> <r_mmod_Electrostatic_Energy-OPLS-2005>
-430.084259033203

> <r_mmod_Solvation_Energy-OPLS-2005>
-224.123107910156

> <b_mmod_Minimization_Converged-OPLS-2005>
0

> <r_mmod_RMS_Derivative-OPLS-2005>
1.0334380865097

$$$$
74
                    3D
 Structure written by MMmdl.
164172  0  0  1  0            999 V2000
  -30.6623  -14.5743   20.5264 C   0  0  0  0  0  0
  -30.4209  -12.3581   19.4427 C   0  0  0  0  0  0
  -29.4979  -12.5038   18.2144 C   0  0  0  0  0  0
  -28.0210  -12.3515   18.6285 C   0  0  0  0  0  0
  -27.6509  -13.2178   19.8631 C   0  0  2  0  0  0
  -28.6935  -13.0611   20.9930 C   0  0  0  0  0  0
  -25.2544  -13.8180   20.5683 C   0  0  0  0  0  0
  -24.1825  -13.0434   20.9205 C   0  0  0  0  0  0
  -24.6399  -11.6914   20.8767 C   0  0  0  0  0  0
  -23.9081  -10.4289   21.0426 C   0  0  0  0  0  0
  -24.3633   -9.4197   21.9191 C   0  0  0  0  0  0
  -23.6296   -8.2231   22.0751 C   0  0  0  0  0  0
  -22.4283   -8.0279   21.3545 C   0  0  0  0  0  0
  -21.9927   -9.0263   20.4647 C   0  0  0  0  0  0
  -22.7268  -10.2136   20.3063 C   0  0  0  0  0  0
  -21.6849   -6.0747   22.5281 C   0  0  0  0  0  0
  -21.4011   -6.5647   23.8211 C   0  0  0  0  0  0
  -21.3659   -5.6800   24.9181 C   0  0  0  0  0  0
  -21.6049   -4.3059   24.7222 C   0  0  0  0  0  0
  -21.8820   -3.8160   23.4347 C   0  0  0  0  0  0
  -21.9189   -4.6970   22.3402 C   0  0  0  0  0  0
  -22.7845  -13.5223   21.1875 C   0  0  0  0  0  0
  -22.1658   -4.2168   21.0972 F   0  0  0  0  0  0
  -21.5626   -3.4536   25.7733 F   0  0  0  0  0  0
  -30.0099  -13.3788   20.4240 N   0  0  0  0  0  0
  -26.2972  -12.9369   20.3314 N   0  0  0  0  0  0
  -25.9318  -11.6534   20.5763 N   0  0  0  0  0  0
  -22.0490  -12.8210   22.0421 N   0  0  0  0  0  0
  -25.4249  -15.1894   20.4059 N   0  0  0  0  0  0
  -31.8338  -14.6969   20.1530 O   0  0  0  0  0  0
  -21.6632   -6.8889   21.4243 O   0  0  0  0  0  0
  -22.3538  -14.5539   20.6722 O   0  0  0  0  0  0
  -24.6225  -31.8635   23.2052 C   0  0  0  0  0  0
  -25.9079  -32.4796   23.8376 C   0  0  1  0  0  0
  -27.2213  -27.3628   20.1097 C   0  0  0  0  0  0
  -25.5893  -33.8599   24.2281 N   0  0  0  0  0  0
  -23.4133  -30.4881   21.5470 C   0  0  2  0  0  0
  -24.8591  -28.9395   20.1204 C   0  0  0  0  0  0
  -22.7423  -29.4668   22.4961 C   0  0  0  0  0  0
  -18.0281  -28.1376   22.8493 C   0  0  0  0  0  0
  -24.1485  -36.7305   23.2639 C   0  0  0  0  0  0
  -25.9517  -30.8014   21.3735 C   0  0  0  0  0  0
  -26.0255  -29.4281   20.7275 C   0  0  0  0  0  0
  -27.2148  -28.6456   20.7257 C   0  0  0  0  0  0
  -26.0419  -26.9088   19.4935 C   0  0  0  0  0  0
  -24.8634  -27.6784   19.5043 C   0  0  0  0  0  0
  -23.6268  -29.8192   20.1644 C   0  0  0  0  0  0
  -25.4108  -36.3114   24.0335 C   0  0  1  0  0  0
  -20.5875  -28.3690   23.1288 C   0  0  2  0  0  0
  -20.6792  -26.9428   22.5407 C   0  0  0  0  0  0
  -19.5764  -26.6382   21.5209 C   0  0  0  0  0  0
  -18.1940  -26.7926   22.1630 C   0  0  0  0  0  0
  -19.1528  -28.8852   23.2882 C   0  0  0  0  0  0
  -18.9460  -30.1445   23.8908 C   0  0  0  0  0  0
  -17.6468  -30.6590   24.0574 C   0  0  0  0  0  0
  -25.9045  -34.9478   23.5118 C   0  0  0  0  0  0
  -16.5354  -29.9101   23.6339 C   0  0  0  0  0  0
  -16.7265  -28.6508   23.0367 C   0  0  0  0  0  0
  -26.4486  -31.6587   25.0725 C   0  0  0  0  0  0
  -25.3731  -31.3724   26.1459 C   0  0  0  0  0  0
  -27.0317  -30.3021   24.6145 C   0  0  0  0  0  0
  -27.6068  -32.4302   25.7483 C   0  0  0  0  0  0
  -27.5576  -37.1794   24.8463 C   0  0  0  0  0  0
  -21.4151  -29.3053   22.3692 N   0  0  0  0  0  0
  -26.4287  -37.3789   23.9420 N   0  0  0  0  0  0
  -24.6804  -31.0670   22.0989 N   0  0  0  0  0  0
  -23.4153  -28.8213   23.3055 O   0  0  0  0  0  0
  -28.3201  -26.5214   20.0185 O   0  0  0  0  0  0
  -26.5624  -34.8950   22.4690 O   0  0  0  0  0  0
  -23.5400  -32.1413   23.7394 O   0  0  0  0  0  0
  -31.2623  -19.7177   21.3092 C   0  0  0  0  0  0
  -29.5229  -18.1742   20.6057 C   0  0  0  0  0  0
  -31.5790  -17.3167   21.5977 C   0  0  0  0  0  0
  -29.9798  -19.5323   20.7495 C   0  0  0  0  0  0
  -32.0500  -18.6372   21.7425 C   0  0  0  0  0  0
  -30.3299  -17.0484   20.9948 C   0  0  0  0  0  0
  -29.1810  -20.7658   20.3786 C   0  0  0  0  0  0
  -29.4335  -22.0430   20.8125 C   0  0  0  0  0  0
  -28.9446  -24.4963   21.3272 C   0  0  0  0  0  0
  -28.7358  -25.8384   21.1433 C   0  0  0  0  0  0
  -33.3740  -18.9053   22.3893 C   0  0  0  0  0  0
  -28.7071  -23.3098   20.4348 C   0  0  0  0  0  0
  -35.0703  -17.4510   22.9590 C   0  0  0  0  0  0
  -36.2591  -16.5782   22.5880 C   0  0  0  0  0  0
  -34.7794  -17.5356   24.4702 C   0  0  0  0  0  0
  -37.2013  -16.1167   23.6971 C   0  0  0  0  0  0
  -34.3817  -18.0301   22.0410 N   0  0  0  0  0  0
  -29.9012  -15.6651   20.8480 N   0  0  0  0  0  0
  -33.4921  -19.8829   23.1313 O   0  0  0  0  0  0
  -27.9390  -23.3582   19.4703 O   0  0  0  0  0  0
  -36.5035  -16.2534   21.4192 O   0  0  0  0  0  0
  -31.4662  -12.4574   19.1471 H   0  0  0  0  0  0
  -30.3270  -11.3598   19.8741 H   0  0  0  0  0  0
  -29.7525  -11.7618   17.4578 H   0  0  0  0  0  0
  -29.6539  -13.4778   17.7488 H   0  0  0  0  0  0
  -27.8497  -11.2993   18.8544 H   0  0  0  0  0  0
  -27.3672  -12.5907   17.7885 H   0  0  0  0  0  0
  -27.6730  -14.2557   19.5292 H   0  0  0  0  0  0
  -28.6891  -12.0416   21.3801 H   0  0  0  0  0  0
  -28.4527  -13.7017   21.8413 H   0  0  0  0  0  0
  -25.2782   -9.5662   22.4770 H   0  0  0  0  0  0
  -24.0005   -7.4622   22.7471 H   0  0  0  0  0  0
  -21.0853   -8.8798   19.8954 H   0  0  0  0  0  0
  -22.3736  -10.9680   19.6168 H   0  0  0  0  0  0
  -21.1999   -7.6150   23.9728 H   0  0  0  0  0  0
  -21.1478   -6.0521   25.9083 H   0  0  0  0  0  0
  -22.0597   -2.7621   23.2832 H   0  0  0  0  0  0
  -22.4087  -11.9849   22.4792 H   0  0  0  0  0  0
  -21.1111  -13.1247   22.2636 H   0  0  0  0  0  0
  -24.6550  -15.8435   20.4977 H   0  0  0  0  0  0
  -26.2679  -15.6223   20.0520 H   0  0  0  0  0  0
  -26.7154  -32.5476   23.1131 H   0  0  0  0  0  0
  -25.0075  -33.9764   25.0458 H   0  0  0  0  0  0
  -22.7065  -31.3095   21.4036 H   0  0  0  0  0  0
  -23.3771  -35.9610   23.3313 H   0  0  0  0  0  0
  -24.3609  -36.8921   22.2056 H   0  0  0  0  0  0
  -23.7213  -37.6504   23.6652 H   0  0  0  0  0  0
  -26.0790  -31.5575   20.5987 H   0  0  0  0  0  0
  -26.8363  -30.8561   21.9963 H   0  0  0  0  0  0
  -28.1147  -29.0180   21.1939 H   0  0  0  0  0  0
  -26.0357  -25.9423   19.0071 H   0  0  0  0  0  0
  -23.9672  -27.2926   19.0354 H   0  0  0  0  0  0
  -23.7448  -30.5943   19.4073 H   0  0  0  0  0  0
  -22.7460  -29.2491   19.8660 H   0  0  0  0  0  0
  -25.1293  -36.1973   25.0824 H   0  0  0  0  0  0
  -20.9951  -28.3237   24.1417 H   0  0  0  0  0  0
  -20.5718  -26.2300   23.3599 H   0  0  0  0  0  0
  -21.6653  -26.7465   22.1183 H   0  0  0  0  0  0
  -19.6944  -25.6294   21.1232 H   0  0  0  0  0  0
  -19.6712  -27.3231   20.6768 H   0  0  0  0  0  0
  -17.4214  -26.6697   21.4014 H   0  0  0  0  0  0
  -18.0333  -26.0057   22.9017 H   0  0  0  0  0  0
  -19.7944  -30.7245   24.2299 H   0  0  0  0  0  0
  -17.5046  -31.6282   24.5160 H   0  0  0  0  0  0
  -15.5374  -30.3024   23.7647 H   0  0  0  0  0  0
  -15.8658  -28.0818   22.7090 H   0  0  0  0  0  0
  -24.5882  -30.7085   25.7799 H   0  0  0  0  0  0
  -24.8953  -32.2906   26.4880 H   0  0  0  0  0  0
  -25.8067  -30.8890   27.0221 H   0  0  0  0  0  0
  -26.2861  -29.6779   24.1194 H   0  0  0  0  0  0
  -27.4085  -29.7253   25.4605 H   0  0  0  0  0  0
  -27.8707  -30.4357   23.9315 H   0  0  0  0  0  0
  -27.2691  -33.3619   26.2028 H   0  0  0  0  0  0
  -28.3877  -32.6817   25.0292 H   0  0  0  0  0  0
  -28.0734  -31.8444   26.5417 H   0  0  0  0  0  0
  -28.2569  -38.0112   24.7542 H   0  0  0  0  0  0
  -28.1090  -36.2649   24.6229 H   0  0  0  0  0  0
  -27.2322  -37.1357   25.8871 H   0  0  0  0  0  0
  -20.9314  -29.8751   21.6891 H   0  0  0  0  0  0
  -26.0182  -38.2864   24.1441 H   0  0  0  0  0  0
  -31.6789  -20.7079   21.4181 H   0  0  0  0  0  0
  -28.5465  -17.9972   20.1795 H   0  0  0  0  0  0
  -32.1951  -16.5015   21.9531 H   0  0  0  0  0  0
  -28.3556  -20.6119   19.6929 H   0  0  0  0  0  0
  -30.2407  -22.2019   21.5059 H   0  0  0  0  0  0
  -29.3418  -24.2350   22.2951 H   0  0  0  0  0  0
  -28.9475  -26.5321   21.9451 H   0  0  0  0  0  0
  -34.9979  -16.5927   24.9703 H   0  0  0  0  0  0
  -33.7314  -17.7369   24.6951 H   0  0  0  0  0  0
  -35.3868  -18.3188   24.9226 H   0  0  0  0  0  0
  -37.3689  -16.9154   24.4216 H   0  0  0  0  0  0
  -38.1660  -15.8323   23.2778 H   0  0  0  0  0  0
  -36.7789  -15.2561   24.2180 H   0  0  0  0  0  0
  -28.9154  -15.4791   20.9637 H   0  0  0  0  0  0
  1 25  1  0  0  0
  1 30  2  0  0  0
  1 88  1  0  0  0
  2  3  1  0  0  0
  2 25  1  0  0  0
  2 92  1  0  0  0
  2 93  1  0  0  0
  3  4  1  0  0  0
  3 94  1  0  0  0
  3 95  1  0  0  0
  4  5  1  0  0  0
  4 96  1  0  0  0
  4 97  1  0  0  0
  5  6  1  0  0  0
  5 26  1  0  0  0
  5 98  1  0  0  0
  6 25  1  0  0  0
  6 99  1  0  0  0
  6100  1  0  0  0
  7  8  2  0  0  0
  7 26  1  0  0  0
  7 29  1  0  0  0
  8  9  1  0  0  0
  8 22  1  0  0  0
  9 10  1  0  0  0
  9 27  2  0  0  0
 10 11  2  0  0  0
 10 15  1  0  0  0
 11 12  1  0  0  0
 11101  1  0  0  0
 12 13  2  0  0  0
 12102  1  0  0  0
 13 14  1  0  0  0
 13 31  1  0  0  0
 14 15  2  0  0  0
 14103  1  0  0  0
 15104  1  0  0  0
 16 17  2  0  0  0
 16 21  1  0  0  0
 16 31  1  0  0  0
 17 18  1  0  0  0
 17105  1  0  0  0
 18 19  2  0  0  0
 18106  1  0  0  0
 19 20  1  0  0  0
 19 24  1  0  0  0
 20 21  2  0  0  0
 20107  1  0  0  0
 21 23  1  0  0  0
 22 28  1  0  0  0
 22 32  2  0  0  0
 26 27  1  0  0  0
 28108  1  0  0  0
 28109  1  0  0  0
 29110  1  0  0  0
 29111  1  0  0  0
 33 34  1  0  0  0
 33 66  1  0  0  0
 33 70  2  0  0  0
 34 36  1  0  0  0
 34 59  1  0  0  0
 34112  1  0  0  0
 35 44  2  0  0  0
 35 45  1  0  0  0
 35 68  1  0  0  0
 36 56  1  0  0  0
 36113  1  0  0  0
 37 39  1  0  0  0
 37 47  1  0  0  0
 37 66  1  0  0  0
 37114  1  0  0  0
 38 43  2  0  0  0
 38 46  1  0  0  0
 38 47  1  0  0  0
 39 64  1  0  0  0
 39 67  2  0  0  0
 40 52  1  0  0  0
 40 53  2  0  0  0
 40 58  1  0  0  0
 41115  1  0  0  0
 41116  1  0  0  0
 41117  1  0  0  0
 41 48  1  0  0  0
 42 43  1  0  0  0
 42 66  1  0  0  0
 42118  1  0  0  0
 42119  1  0  0  0
 43 44  1  0  0  0
 44120  1  0  0  0
 45 46  2  0  0  0
 45121  1  0  0  0
 46122  1  0  0  0
 47123  1  0  0  0
 47124  1  0  0  0
 48 56  1  0  0  0
 48 65  1  0  0  0
 48125  1  0  0  0
 49 50  1  0  0  0
 49 53  1  0  0  0
 49 64  1  0  0  0
 49126  1  0  0  0
 50 51  1  0  0  0
 50127  1  0  0  0
 50128  1  0  0  0
 51 52  1  0  0  0
 51129  1  0  0  0
 51130  1  0  0  0
 52131  1  0  0  0
 52132  1  0  0  0
 53 54  1  0  0  0
 54 55  2  0  0  0
 54133  1  0  0  0
 55 57  1  0  0  0
 55134  1  0  0  0
 56 69  2  0  0  0
 57 58  2  0  0  0
 57135  1  0  0  0
 58136  1  0  0  0
 59 60  1  0  0  0
 59 61  1  0  0  0
 59 62  1  0  0  0
 60137  1  0  0  0
 60138  1  0  0  0
 60139  1  0  0  0
 61140  1  0  0  0
 61141  1  0  0  0
 61142  1  0  0  0
 62143  1  0  0  0
 62144  1  0  0  0
 62145  1  0  0  0
 63 65  1  0  0  0
 63146  1  0  0  0
 63147  1  0  0  0
 63148  1  0  0  0
 64149  1  0  0  0
 65150  1  0  0  0
 68 80  1  0  0  0
 71 74  2  0  0  0
 71 75  1  0  0  0
 71151  1  0  0  0
 72 74  1  0  0  0
 72 76  2  0  0  0
 72152  1  0  0  0
 73 75  2  0  0  0
 73 76  1  0  0  0
 73153  1  0  0  0
 74 77  1  0  0  0
 75 81  1  0  0  0
 76 88  1  0  0  0
 77 78  2  0  0  0
 77154  1  0  0  0
 78 82  1  0  0  0
 78155  1  0  0  0
 79 80  2  0  0  0
 79 82  1  0  0  0
 79156  1  0  0  0
 80157  1  0  0  0
 81 87  1  0  0  0
 81 89  2  0  0  0
 82 90  2  0  0  0
 83 84  1  0  0  0
 83 85  1  0  0  0
 83 87  2  0  0  0
 84 86  1  0  0  0
 84 91  2  0  0  0
 85158  1  0  0  0
 85159  1  0  0  0
 85160  1  0  0  0
 86161  1  0  0  0
 86162  1  0  0  0
 86163  1  0  0  0
 88164  1  0  0  0
M  ISO  4   1 100  68 101  80 101  88 100
M  END
> <chiral flag>
0

> <version>
0

> <s_m_source_file>
/data/baiqing/PycharmProjects/Reinvent-master-3.2/result/LINK_invent/BTK/process_docking_weight1_custom_product_contain_oxygen_bond_distance_aromatic_linkinvent_7_9_3/rearranged_h_0113.sdf

> <i_m_source_file_index>
75

> <r_mmod_Potential_Energy-OPLS-2005>
10.9392890930176

> <r_mmod_Stretch_Energy-OPLS-2005>
64.1076965332031

> <r_mmod_Bend_Energy-OPLS-2005>
146.76806640625

> <r_mmod_Torsional_Energy-OPLS-2005>
266.509552001953

> <r_mmod_Improper_Torsional_Energy-OPLS-2005>
5.63812160491943

> <r_mmod_Van_der_Waal_Energy-OPLS-2005>
168.054428100586

> <r_mmod_Electrostatic_Energy-OPLS-2005>
-409.066162109375

> <r_mmod_Solvation_Energy-OPLS-2005>
-262.990844726562

> <b_mmod_Minimization_Converged-OPLS-2005>
0

> <r_mmod_RMS_Derivative-OPLS-2005>
3.51932287216187

$$$$
75
                    3D
 Structure written by MMmdl.
161169  0  0  1  0            999 V2000
  -30.7573  -14.4617   20.6736 C   0  0  0  0  0  0
  -30.4222  -12.3308   19.4588 C   0  0  0  0  0  0
  -29.5011  -12.4886   18.2356 C   0  0  0  0  0  0
  -28.0328  -12.3100   18.6567 C   0  0  0  0  0  0
  -27.6577  -13.2007   19.8679 C   0  0  2  0  0  0
  -28.6844  -13.0522   21.0113 C   0  0  0  0  0  0
  -25.2613  -13.8189   20.5712 C   0  0  0  0  0  0
  -24.1831  -13.0464   20.9170 C   0  0  0  0  0  0
  -24.6369  -11.6924   20.8716 C   0  0  0  0  0  0
  -23.9054  -10.4295   21.0421 C   0  0  0  0  0  0
  -24.3641   -9.4209   21.9183 C   0  0  0  0  0  0
  -23.6325   -8.2236   22.0745 C   0  0  0  0  0  0
  -22.4294   -8.0285   21.3554 C   0  0  0  0  0  0
  -21.9929   -9.0256   20.4659 C   0  0  0  0  0  0
  -22.7234  -10.2141   20.3075 C   0  0  0  0  0  0
  -21.6856   -6.0752   22.5290 C   0  0  0  0  0  0
  -21.3995   -6.5660   23.8215 C   0  0  0  0  0  0
  -21.3646   -5.6820   24.9180 C   0  0  0  0  0  0
  -21.6060   -4.3085   24.7237 C   0  0  0  0  0  0
  -21.8823   -3.8174   23.4354 C   0  0  0  0  0  0
  -21.9190   -4.6984   22.3405 C   0  0  0  0  0  0
  -22.7876  -13.5286   21.1874 C   0  0  0  0  0  0
  -22.1678   -4.2175   21.0985 F   0  0  0  0  0  0
  -21.5616   -3.4559   25.7737 F   0  0  0  0  0  0
  -30.0269  -13.3289   20.4697 N   0  0  0  0  0  0
  -26.2999  -12.9317   20.3304 N   0  0  0  0  0  0
  -25.9280  -11.6488   20.5731 N   0  0  0  0  0  0
  -22.0579  -12.8217   22.0430 N   0  0  0  0  0  0
  -25.4492  -15.1902   20.4219 N   0  0  0  0  0  0
  -31.8646  -14.6309   20.1499 O   0  0  0  0  0  0
  -21.6649   -6.8892   21.4254 O   0  0  0  0  0  0
  -22.3552  -14.5602   20.6757 O   0  0  0  0  0  0
  -24.6163  -31.8685   23.2088 C   0  0  0  0  0  0
  -25.9032  -32.4820   23.8416 C   0  0  1  0  0  0
  -27.2249  -27.4223   20.1155 C   0  0  0  0  0  0
  -25.5860  -33.8623   24.2349 N   0  0  0  0  0  0
  -23.4042  -30.4937   21.5458 C   0  0  2  0  0  0
  -24.8514  -28.9524   20.1150 C   0  0  0  0  0  0
  -22.7455  -29.4680   22.5001 C   0  0  0  0  0  0
  -18.0312  -28.1403   22.8450 C   0  0  0  0  0  0
  -24.1483  -36.7333   23.2638 C   0  0  0  0  0  0
  -25.9331  -30.8322   21.3597 C   0  0  0  0  0  0
  -26.0101  -29.4624   20.7166 C   0  0  0  0  0  0
  -27.2039  -28.7025   20.7163 C   0  0  0  0  0  0
  -26.0573  -26.9261   19.5074 C   0  0  0  0  0  0
  -24.8699  -27.6845   19.5071 C   0  0  0  0  0  0
  -23.6149  -29.8226   20.1625 C   0  0  0  0  0  0
  -25.4092  -36.3120   24.0343 C   0  0  1  0  0  0
  -20.5925  -28.3568   23.1232 C   0  0  2  0  0  0
  -20.6807  -26.9433   22.5068 C   0  0  0  0  0  0
  -19.5664  -26.6635   21.4987 C   0  0  0  0  0  0
  -18.1940  -26.7975   22.1568 C   0  0  0  0  0  0
  -19.1596  -28.8784   23.2916 C   0  0  0  0  0  0
  -18.9561  -30.1308   23.9069 C   0  0  0  0  0  0
  -17.6581  -30.6488   24.0775 C   0  0  0  0  0  0
  -25.9030  -34.9481   23.5143 C   0  0  0  0  0  0
  -16.5450  -29.9091   23.6443 C   0  0  0  0  0  0
  -16.7316  -28.6556   23.0329 C   0  0  0  0  0  0
  -26.4433  -31.6580   25.0727 C   0  0  0  0  0  0
  -25.3702  -31.3665   26.1481 C   0  0  0  0  0  0
  -27.0212  -30.3019   24.6024 C   0  0  0  0  0  0
  -27.6022  -32.4278   25.7491 C   0  0  0  0  0  0
  -27.5585  -37.1827   24.8450 C   0  0  0  0  0  0
  -21.4167  -29.3024   22.3732 N   0  0  0  0  0  0
  -26.4292  -37.3794   23.9395 N   0  0  0  0  0  0
  -24.6709  -31.0776   22.0997 N   0  0  0  0  0  0
  -23.4233  -28.8243   23.3037 O   0  0  0  0  0  0
  -28.3593  -26.6435   20.0925 O   0  0  0  0  0  0
  -26.5608  -34.8909   22.4734 O   0  0  0  0  0  0
  -23.5355  -32.1458   23.7474 O   0  0  0  0  0  0
  -29.5900  -18.6555   19.5376 C   0  0  0  0  0  0
  -29.4098  -17.6678   22.1238 C   0  0  0  0  0  0
  -29.8219  -17.2752   19.7672 C   0  0  0  0  0  0
  -29.2992  -19.5610   20.5743 C   0  0  0  0  0  0
  -29.8348  -16.7576   21.1086 C   0  0  0  0  0  0
  -29.1617  -19.0402   21.8783 C   0  0  0  0  0  0
  -29.1617  -16.4752   17.5149 C   0  0  0  0  0  0
  -30.0363  -16.5021   18.5324 C   0  0  0  0  0  0
  -28.3768  -21.8935   20.6231 C   0  0  0  0  0  0
  -30.6184  -15.1777   22.9247 C   0  0  0  0  0  0
  -28.7257  -23.3735   20.3132 C   0  0  0  0  0  0
  -27.9745  -24.4014   21.2084 C   0  0  0  0  0  0
  -28.5578  -25.8418   21.2675 C   0  0  0  0  0  0
  -29.2841  -20.9608   20.2739 N   0  0  0  0  0  0
  -30.2455  -15.4058   21.5101 N   0  0  0  0  0  0
  -27.2887  -21.6042   21.1227 O   0  0  0  0  0  0
  -28.8615  -19.8599   22.9167 F   0  0  0  0  0  0
  -31.4639  -12.4334   19.1529 H   0  0  0  0  0  0
  -30.3412  -11.3284   19.8820 H   0  0  0  0  0  0
  -29.7647  -11.7481   17.4800 H   0  0  0  0  0  0
  -29.6450  -13.4716   17.7851 H   0  0  0  0  0  0
  -27.9031  -11.2603   18.9285 H   0  0  0  0  0  0
  -27.3674  -12.4901   17.8135 H   0  0  0  0  0  0
  -27.6931  -14.2323   19.5203 H   0  0  0  0  0  0
  -28.6456  -12.0478   21.4363 H   0  0  0  0  0  0
  -28.4169  -13.7212   21.8312 H   0  0  0  0  0  0
  -25.2807   -9.5678   22.4736 H   0  0  0  0  0  0
  -24.0054   -7.4613   22.7443 H   0  0  0  0  0  0
  -21.0858   -8.8769   19.8964 H   0  0  0  0  0  0
  -22.3700  -10.9683   19.6188 H   0  0  0  0  0  0
  -21.1974   -7.6170   23.9725 H   0  0  0  0  0  0
  -21.1474   -6.0551   25.9089 H   0  0  0  0  0  0
  -22.0615   -2.7642   23.2843 H   0  0  0  0  0  0
  -22.4242  -11.9787   22.4585 H   0  0  0  0  0  0
  -21.1240  -13.1206   22.2829 H   0  0  0  0  0  0
  -24.7158  -15.8726   20.5828 H   0  0  0  0  0  0
  -26.3308  -15.6103   20.1537 H   0  0  0  0  0  0
  -26.7119  -32.5484   23.1219 H   0  0  0  0  0  0
  -24.9935  -33.9812   25.0439 H   0  0  0  0  0  0
  -22.6914  -31.3087   21.4016 H   0  0  0  0  0  0
  -23.3726  -35.9692   23.3306 H   0  0  0  0  0  0
  -24.3623  -36.8946   22.2058 H   0  0  0  0  0  0
  -23.7254  -37.6543   23.6664 H   0  0  0  0  0  0
  -26.0315  -31.5885   20.5791 H   0  0  0  0  0  0
  -26.8287  -30.9069   21.9670 H   0  0  0  0  0  0
  -28.0993  -29.0898   21.1802 H   0  0  0  0  0  0
  -26.0640  -25.9523   19.0422 H   0  0  0  0  0  0
  -23.9816  -27.2854   19.0390 H   0  0  0  0  0  0
  -23.7259  -30.5926   19.3995 H   0  0  0  0  0  0
  -22.7372  -29.2428   19.8691 H   0  0  0  0  0  0
  -25.1294  -36.2011   25.0842 H   0  0  0  0  0  0
  -21.0078  -28.2919   24.1304 H   0  0  0  0  0  0
  -20.5938  -26.2072   23.3062 H   0  0  0  0  0  0
  -21.6543  -26.7682   22.0482 H   0  0  0  0  0  0
  -19.6820  -25.6687   21.0682 H   0  0  0  0  0  0
  -19.6463  -27.3682   20.6694 H   0  0  0  0  0  0
  -17.4165  -26.6691   21.4026 H   0  0  0  0  0  0
  -18.0476  -26.0038   22.8910 H   0  0  0  0  0  0
  -19.8064  -30.7002   24.2591 H   0  0  0  0  0  0
  -17.5212  -31.6089   24.5578 H   0  0  0  0  0  0
  -15.5471  -30.2993   23.7843 H   0  0  0  0  0  0
  -15.8685  -28.0954   22.6971 H   0  0  0  0  0  0
  -24.5825  -30.7091   25.7781 H   0  0  0  0  0  0
  -24.8960  -32.2815   26.5024 H   0  0  0  0  0  0
  -25.8038  -30.8722   27.0187 H   0  0  0  0  0  0
  -26.2720  -29.6848   24.1047 H   0  0  0  0  0  0
  -27.3958  -29.7166   25.4430 H   0  0  0  0  0  0
  -27.8575  -30.4329   23.9161 H   0  0  0  0  0  0
  -27.2633  -33.3528   26.2164 H   0  0  0  0  0  0
  -28.3768  -32.6923   25.0288 H   0  0  0  0  0  0
  -28.0762  -31.8352   26.5331 H   0  0  0  0  0  0
  -28.2610  -38.0117   24.7507 H   0  0  0  0  0  0
  -28.1081  -36.2664   24.6268 H   0  0  0  0  0  0
  -27.2331  -37.1463   25.8859 H   0  0  0  0  0  0
  -20.9280  -29.8783   21.7032 H   0  0  0  0  0  0
  -26.0178  -38.2879   24.1383 H   0  0  0  0  0  0
  -29.6592  -19.0375   18.5288 H   0  0  0  0  0  0
  -29.2933  -17.3369   23.1422 H   0  0  0  0  0  0
  -29.3721  -15.9188   16.6122 H   0  0  0  0  0  0
  -28.2240  -17.0097   17.5634 H   0  0  0  0  0  0
  -30.9673  -15.9753   18.4165 H   0  0  0  0  0  0
  -31.0614  -16.0680   23.3800 H   0  0  0  0  0  0
  -31.3760  -14.3932   23.0485 H   0  0  0  0  0  0
  -29.7436  -14.8824   23.5130 H   0  0  0  0  0  0
  -28.5136  -23.5813   19.2651 H   0  0  0  0  0  0
  -29.8007  -23.5036   20.4467 H   0  0  0  0  0  0
  -27.9963  -24.0190   22.2297 H   0  0  0  0  0  0
  -26.9180  -24.4269   20.9379 H   0  0  0  0  0  0
  -29.6284  -25.7851   21.4673 H   0  0  0  0  0  0
  -28.1364  -26.3535   22.1374 H   0  0  0  0  0  0
  -30.0620  -21.2905   19.7211 H   0  0  0  0  0  0
  1 25  1  0  0  0
  1 30  2  0  0  0
  1 85  1  0  0  0
  2  3  1  0  0  0
  2 25  1  0  0  0
  2 88  1  0  0  0
  2 89  1  0  0  0
  3  4  1  0  0  0
  3 90  1  0  0  0
  3 91  1  0  0  0
  4  5  1  0  0  0
  4 92  1  0  0  0
  4 93  1  0  0  0
  5  6  1  0  0  0
  5 26  1  0  0  0
  5 94  1  0  0  0
  6 25  1  0  0  0
  6 95  1  0  0  0
  6 96  1  0  0  0
  7  8  2  0  0  0
  7 26  1  0  0  0
  7 29  1  0  0  0
  8  9  1  0  0  0
  8 22  1  0  0  0
  9 10  1  0  0  0
  9 27  2  0  0  0
 10 11  2  0  0  0
 10 15  1  0  0  0
 11 12  1  0  0  0
 11 97  1  0  0  0
 12 13  2  0  0  0
 12 98  1  0  0  0
 13 14  1  0  0  0
 13 31  1  0  0  0
 14 15  2  0  0  0
 14 99  1  0  0  0
 15100  1  0  0  0
 16 17  2  0  0  0
 16 21  1  0  0  0
 16 31  1  0  0  0
 17 18  1  0  0  0
 17101  1  0  0  0
 18 19  2  0  0  0
 18102  1  0  0  0
 19 20  1  0  0  0
 19 24  1  0  0  0
 20 21  2  0  0  0
 20103  1  0  0  0
 21 23  1  0  0  0
 22 28  1  0  0  0
 22 32  2  0  0  0
 26 27  1  0  0  0
 28104  1  0  0  0
 28105  1  0  0  0
 29106  1  0  0  0
 29107  1  0  0  0
 33 34  1  0  0  0
 33 66  1  0  0  0
 33 70  2  0  0  0
 34 36  1  0  0  0
 34 59  1  0  0  0
 34108  1  0  0  0
 35 44  2  0  0  0
 35 45  1  0  0  0
 35 68  1  0  0  0
 36 56  1  0  0  0
 36109  1  0  0  0
 37 39  1  0  0  0
 37 47  1  0  0  0
 37 66  1  0  0  0
 37110  1  0  0  0
 38 43  2  0  0  0
 38 46  1  0  0  0
 38 47  1  0  0  0
 39 64  1  0  0  0
 39 67  2  0  0  0
 40 52  1  0  0  0
 40 53  2  0  0  0
 40 58  1  0  0  0
 41111  1  0  0  0
 41112  1  0  0  0
 41113  1  0  0  0
 41 48  1  0  0  0
 42 43  1  0  0  0
 42 66  1  0  0  0
 42114  1  0  0  0
 42115  1  0  0  0
 43 44  1  0  0  0
 44116  1  0  0  0
 45 46  2  0  0  0
 45117  1  0  0  0
 46118  1  0  0  0
 47119  1  0  0  0
 47120  1  0  0  0
 48 56  1  0  0  0
 48 65  1  0  0  0
 48121  1  0  0  0
 49 50  1  0  0  0
 49 53  1  0  0  0
 49 64  1  0  0  0
 49122  1  0  0  0
 50 51  1  0  0  0
 50123  1  0  0  0
 50124  1  0  0  0
 51 52  1  0  0  0
 51125  1  0  0  0
 51126  1  0  0  0
 52127  1  0  0  0
 52128  1  0  0  0
 53 54  1  0  0  0
 54 55  2  0  0  0
 54129  1  0  0  0
 55 57  1  0  0  0
 55130  1  0  0  0
 56 69  2  0  0  0
 57 58  2  0  0  0
 57131  1  0  0  0
 58132  1  0  0  0
 59 60  1  0  0  0
 59 61  1  0  0  0
 59 62  1  0  0  0
 60133  1  0  0  0
 60134  1  0  0  0
 60135  1  0  0  0
 61136  1  0  0  0
 61137  1  0  0  0
 61138  1  0  0  0
 62139  1  0  0  0
 62140  1  0  0  0
 62141  1  0  0  0
 63 65  1  0  0  0
 63142  1  0  0  0
 63143  1  0  0  0
 63144  1  0  0  0
 64145  1  0  0  0
 65146  1  0  0  0
 68 83  1  0  0  0
 71 73  2  0  0  0
 71 74  1  0  0  0
 71147  1  0  0  0
 72 75  2  0  0  0
 72 76  1  0  0  0
 72148  1  0  0  0
 73 75  1  0  0  0
 73 78  1  0  0  0
 74 76  2  0  0  0
 74 84  1  0  0  0
 75 85  1  0  0  0
 76 87  1  0  0  0
 77 78  2  0  0  0
 77149  1  0  0  0
 77150  1  0  0  0
 78151  1  0  0  0
 79 81  1  0  0  0
 79 84  1  0  0  0
 79 86  2  0  0  0
 80 85  1  0  0  0
 80152  1  0  0  0
 80153  1  0  0  0
 80154  1  0  0  0
 81 82  1  0  0  0
 81155  1  0  0  0
 81156  1  0  0  0
 82 83  1  0  0  0
 82157  1  0  0  0
 82158  1  0  0  0
 83159  1  0  0  0
 83160  1  0  0  0
 84161  1  0  0  0
M  ISO  4   1 100  68 101  83 101  85 100
M  END
> <chiral flag>
0

> <version>
0

> <s_m_source_file>
/data/baiqing/PycharmProjects/Reinvent-master-3.2/result/LINK_invent/BTK/process_docking_weight1_custom_product_contain_oxygen_bond_distance_aromatic_linkinvent_7_9_3/rearranged_h_0113.sdf

> <i_m_source_file_index>
76

> <r_mmod_Potential_Energy-OPLS-2005>
101.779411315918

> <r_mmod_Stretch_Energy-OPLS-2005>
50.4448928833008

> <r_mmod_Bend_Energy-OPLS-2005>
118.385696411133

> <r_mmod_Torsional_Energy-OPLS-2005>
356.256286621094

> <r_mmod_Improper_Torsional_Energy-OPLS-2005>
3.84751272201538

> <r_mmod_Van_der_Waal_Energy-OPLS-2005>
160.950485229492

> <r_mmod_Electrostatic_Energy-OPLS-2005>
-395.9658203125

> <r_mmod_Solvation_Energy-OPLS-2005>
-209.577972412109

> <b_mmod_Minimization_Converged-OPLS-2005>
0

> <r_mmod_RMS_Derivative-OPLS-2005>
5.46800899505615

$$$$
76
                    3D
 Structure written by MMmdl.
157165  0  0  1  0            999 V2000
  -30.6149  -14.7083   20.4794 C   0  0  0  0  0  0
  -30.4418  -12.4275   19.4715 C   0  0  0  0  0  0
  -29.5138  -12.4934   18.2388 C   0  0  0  0  0  0
  -28.0423  -12.3096   18.6557 C   0  0  0  0  0  0
  -27.6476  -13.2177   19.8502 C   0  0  2  0  0  0
  -28.6908  -13.1380   20.9863 C   0  0  0  0  0  0
  -25.2545  -13.8163   20.5668 C   0  0  0  0  0  0
  -24.1823  -13.0431   20.9166 C   0  0  0  0  0  0
  -24.6422  -11.6905   20.8740 C   0  0  0  0  0  0
  -23.9091  -10.4295   21.0407 C   0  0  0  0  0  0
  -24.3631   -9.4204   21.9195 C   0  0  0  0  0  0
  -23.6293   -8.2239   22.0765 C   0  0  0  0  0  0
  -22.4276   -8.0283   21.3556 C   0  0  0  0  0  0
  -21.9927   -9.0259   20.4647 C   0  0  0  0  0  0
  -22.7259  -10.2129   20.3058 C   0  0  0  0  0  0
  -21.6855   -6.0748   22.5275 C   0  0  0  0  0  0
  -21.4018   -6.5648   23.8215 C   0  0  0  0  0  0
  -21.3653   -5.6789   24.9173 C   0  0  0  0  0  0
  -21.6044   -4.3057   24.7212 C   0  0  0  0  0  0
  -21.8811   -3.8159   23.4336 C   0  0  0  0  0  0
  -21.9194   -4.6977   22.3401 C   0  0  0  0  0  0
  -22.7841  -13.5215   21.1826 C   0  0  0  0  0  0
  -22.1658   -4.2169   21.0972 F   0  0  0  0  0  0
  -21.5626   -3.4538   25.7730 F   0  0  0  0  0  0
  -30.0013  -13.4808   20.4126 N   0  0  0  0  0  0
  -26.2977  -12.9360   20.3277 N   0  0  0  0  0  0
  -25.9352  -11.6523   20.5762 N   0  0  0  0  0  0
  -22.0502  -12.8204   22.0388 N   0  0  0  0  0  0
  -25.4240  -15.1884   20.4077 N   0  0  0  0  0  0
  -31.7974  -14.8325   20.1489 O   0  0  0  0  0  0
  -21.6632   -6.8893   21.4247 O   0  0  0  0  0  0
  -22.3533  -14.5541   20.6700 O   0  0  0  0  0  0
  -24.6231  -31.8618   23.1989 C   0  0  0  0  0  0
  -25.9076  -32.4806   23.8357 C   0  0  1  0  0  0
  -27.2295  -27.3218   20.1460 C   0  0  0  0  0  0
  -25.5900  -33.8602   24.2290 N   0  0  0  0  0  0
  -23.4179  -30.4802   21.5383 C   0  0  2  0  0  0
  -24.8729  -28.9328   20.1141 C   0  0  0  0  0  0
  -22.7490  -29.4614   22.4919 C   0  0  0  0  0  0
  -18.0287  -28.1413   22.8449 C   0  0  0  0  0  0
  -24.1512  -36.7306   23.2642 C   0  0  0  0  0  0
  -25.9572  -30.7955   21.3716 C   0  0  0  0  0  0
  -26.0383  -29.4220   20.7202 C   0  0  0  0  0  0
  -27.2223  -28.6259   20.7262 C   0  0  0  0  0  0
  -26.0492  -26.8853   19.5106 C   0  0  0  0  0  0
  -24.8821  -27.6708   19.5005 C   0  0  0  0  0  0
  -23.6376  -29.8070   20.1579 C   0  0  0  0  0  0
  -25.4121  -36.3112   24.0357 C   0  0  1  0  0  0
  -20.5887  -28.3712   23.1300 C   0  0  2  0  0  0
  -20.6798  -26.9437   22.5422 C   0  0  0  0  0  0
  -19.5766  -26.6381   21.5250 C   0  0  0  0  0  0
  -18.1925  -26.7937   22.1610 C   0  0  0  0  0  0
  -19.1540  -28.8870   23.2866 C   0  0  0  0  0  0
  -18.9458  -30.1457   23.8922 C   0  0  0  0  0  0
  -17.6469  -30.6602   24.0552 C   0  0  0  0  0  0
  -25.9048  -34.9493   23.5140 C   0  0  0  0  0  0
  -16.5359  -29.9102   23.6339 C   0  0  0  0  0  0
  -16.7284  -28.6530   23.0338 C   0  0  0  0  0  0
  -26.4459  -31.6599   25.0733 C   0  0  0  0  0  0
  -25.3653  -31.3723   26.1434 C   0  0  0  0  0  0
  -27.0323  -30.3049   24.6149 C   0  0  0  0  0  0
  -27.6058  -32.4309   25.7460 C   0  0  0  0  0  0
  -27.5608  -37.1783   24.8455 C   0  0  0  0  0  0
  -21.4190  -29.3073   22.3716 N   0  0  0  0  0  0
  -26.4301  -37.3791   23.9433 N   0  0  0  0  0  0
  -24.6826  -31.0635   22.0930 N   0  0  0  0  0  0
  -23.4221  -28.8168   23.2996 O   0  0  0  0  0  0
  -28.3425  -26.4730   20.1737 O   0  0  0  0  0  0
  -26.5605  -34.8940   22.4702 O   0  0  0  0  0  0
  -23.5396  -32.1411   23.7328 O   0  0  0  0  0  0
  -30.9905  -17.9658   21.2708 C   0  0  0  0  0  0
  -30.8955  -19.4106   21.0526 C   0  0  0  0  0  0
  -29.8021  -19.7926   20.2891 C   0  0  0  0  0  0
  -30.0204  -17.1801   20.6640 C   0  0  0  0  0  0
  -33.3423  -17.5616   22.1218 C   0  0  0  0  0  0
  -32.0184  -17.3289   22.1191 C   0  0  0  0  0  0
  -31.8569  -20.4327   21.6087 C   0  0  0  0  0  0
  -29.4481  -21.2048   19.6966 C   0  0  0  0  0  0
  -28.7703  -22.3973   20.5286 C   0  0  0  0  0  0
  -28.8461  -23.8815   19.9117 C   0  0  0  0  0  0
  -28.1526  -25.0950   20.6887 C   0  0  0  0  0  0
  -29.7956  -15.7991   20.6985 N   0  0  0  0  0  0
  -28.8938  -18.3160   19.8814 S   0  0  0  0  0  0
  -31.4822  -12.5520   19.1665 H   0  0  0  0  0  0
  -30.3851  -11.4459   19.9496 H   0  0  0  0  0  0
  -29.7978  -11.7291   17.5151 H   0  0  0  0  0  0
  -29.6376  -13.4557   17.7374 H   0  0  0  0  0  0
  -27.9122  -11.2642   18.9356 H   0  0  0  0  0  0
  -27.3799  -12.4804   17.8059 H   0  0  0  0  0  0
  -27.6489  -14.2379   19.4661 H   0  0  0  0  0  0
  -28.7142  -12.1368   21.4202 H   0  0  0  0  0  0
  -28.4256  -13.8132   21.8016 H   0  0  0  0  0  0
  -25.2783   -9.5668   22.4775 H   0  0  0  0  0  0
  -23.9994   -7.4637   22.7492 H   0  0  0  0  0  0
  -21.0863   -8.8784   19.8951 H   0  0  0  0  0  0
  -22.3734  -10.9680   19.6157 H   0  0  0  0  0  0
  -21.2013   -7.6157   23.9727 H   0  0  0  0  0  0
  -21.1481   -6.0522   25.9074 H   0  0  0  0  0  0
  -22.0604   -2.7624   23.2827 H   0  0  0  0  0  0
  -22.4107  -11.9824   22.4725 H   0  0  0  0  0  0
  -21.1149  -13.1268   22.2660 H   0  0  0  0  0  0
  -24.6504  -15.8354   20.5092 H   0  0  0  0  0  0
  -26.2633  -15.6359   20.0647 H   0  0  0  0  0  0
  -26.7165  -32.5507   23.1128 H   0  0  0  0  0  0
  -25.0110  -33.9757   25.0472 H   0  0  0  0  0  0
  -22.7080  -31.2963   21.3864 H   0  0  0  0  0  0
  -23.3831  -35.9585   23.3263 H   0  0  0  0  0  0
  -24.3617  -36.8956   22.2069 H   0  0  0  0  0  0
  -23.7219  -37.6470   23.6681 H   0  0  0  0  0  0
  -26.0805  -31.5590   20.6017 H   0  0  0  0  0  0
  -26.8370  -30.8500   22.0011 H   0  0  0  0  0  0
  -28.1148  -28.9845   21.2227 H   0  0  0  0  0  0
  -26.0247  -25.9146   19.0369 H   0  0  0  0  0  0
  -23.9888  -27.2866   19.0291 H   0  0  0  0  0  0
  -23.7504  -30.5763   19.3943 H   0  0  0  0  0  0
  -22.7601  -29.2300   19.8588 H   0  0  0  0  0  0
  -25.1285  -36.1977   25.0847 H   0  0  0  0  0  0
  -20.9918  -28.3299   24.1438 H   0  0  0  0  0  0
  -20.5774  -26.2315   23.3616 H   0  0  0  0  0  0
  -21.6663  -26.7504   22.1170 H   0  0  0  0  0  0
  -19.6962  -25.6292   21.1295 H   0  0  0  0  0  0
  -19.6747  -27.3170   20.6768 H   0  0  0  0  0  0
  -17.4208  -26.6742   21.3982 H   0  0  0  0  0  0
  -18.0275  -26.0060   22.8984 H   0  0  0  0  0  0
  -19.7951  -30.7252   24.2309 H   0  0  0  0  0  0
  -17.5036  -31.6294   24.5143 H   0  0  0  0  0  0
  -15.5357  -30.3019   23.7651 H   0  0  0  0  0  0
  -15.8678  -28.0864   22.7049 H   0  0  0  0  0  0
  -24.5915  -30.6965   25.7755 H   0  0  0  0  0  0
  -24.8718  -32.2869   26.4751 H   0  0  0  0  0  0
  -25.7936  -30.9001   27.0290 H   0  0  0  0  0  0
  -26.2905  -29.6783   24.1178 H   0  0  0  0  0  0
  -27.4092  -29.7308   25.4624 H   0  0  0  0  0  0
  -27.8730  -30.4411   23.9334 H   0  0  0  0  0  0
  -27.2764  -33.3688   26.1945 H   0  0  0  0  0  0
  -28.3879  -32.6717   25.0243 H   0  0  0  0  0  0
  -28.0703  -31.8467   26.5416 H   0  0  0  0  0  0
  -28.2543  -38.0144   24.7566 H   0  0  0  0  0  0
  -28.1171  -36.2683   24.6181 H   0  0  0  0  0  0
  -27.2333  -37.1293   25.8843 H   0  0  0  0  0  0
  -20.9397  -29.8832   21.6943 H   0  0  0  0  0  0
  -26.0226  -38.2882   24.1423 H   0  0  0  0  0  0
  -33.9872  -17.0443   22.8190 H   0  0  0  0  0  0
  -33.8223  -18.2491   21.4425 H   0  0  0  0  0  0
  -31.6388  -16.6096   22.8311 H   0  0  0  0  0  0
  -31.9176  -21.3221   20.9839 H   0  0  0  0  0  0
  -32.8787  -20.0737   21.6790 H   0  0  0  0  0  0
  -31.5643  -20.7435   22.6105 H   0  0  0  0  0  0
  -28.8044  -21.0382   18.8310 H   0  0  0  0  0  0
  -30.3588  -21.6081   19.2498 H   0  0  0  0  0  0
  -29.2219  -22.4407   21.5180 H   0  0  0  0  0  0
  -27.7226  -22.1449   20.7025 H   0  0  0  0  0  0
  -28.4400  -23.8665   18.8978 H   0  0  0  0  0  0
  -29.9004  -24.1315   19.7831 H   0  0  0  0  0  0
  -28.5405  -25.1055   21.7093 H   0  0  0  0  0  0
  -27.0915  -24.8740   20.8192 H   0  0  0  0  0  0
  -28.8238  -15.5353   20.7724 H   0  0  0  0  0  0
  1 25  1  0  0  0
  1 30  2  0  0  0
  1 82  1  0  0  0
  2  3  1  0  0  0
  2 25  1  0  0  0
  2 84  1  0  0  0
  2 85  1  0  0  0
  3  4  1  0  0  0
  3 86  1  0  0  0
  3 87  1  0  0  0
  4  5  1  0  0  0
  4 88  1  0  0  0
  4 89  1  0  0  0
  5  6  1  0  0  0
  5 26  1  0  0  0
  5 90  1  0  0  0
  6 25  1  0  0  0
  6 91  1  0  0  0
  6 92  1  0  0  0
  7  8  2  0  0  0
  7 26  1  0  0  0
  7 29  1  0  0  0
  8  9  1  0  0  0
  8 22  1  0  0  0
  9 10  1  0  0  0
  9 27  2  0  0  0
 10 11  2  0  0  0
 10 15  1  0  0  0
 11 12  1  0  0  0
 11 93  1  0  0  0
 12 13  2  0  0  0
 12 94  1  0  0  0
 13 14  1  0  0  0
 13 31  1  0  0  0
 14 15  2  0  0  0
 14 95  1  0  0  0
 15 96  1  0  0  0
 16 17  2  0  0  0
 16 21  1  0  0  0
 16 31  1  0  0  0
 17 18  1  0  0  0
 17 97  1  0  0  0
 18 19  2  0  0  0
 18 98  1  0  0  0
 19 20  1  0  0  0
 19 24  1  0  0  0
 20 21  2  0  0  0
 20 99  1  0  0  0
 21 23  1  0  0  0
 22 28  1  0  0  0
 22 32  2  0  0  0
 26 27  1  0  0  0
 28100  1  0  0  0
 28101  1  0  0  0
 29102  1  0  0  0
 29103  1  0  0  0
 33 34  1  0  0  0
 33 66  1  0  0  0
 33 70  2  0  0  0
 34 36  1  0  0  0
 34 59  1  0  0  0
 34104  1  0  0  0
 35 44  2  0  0  0
 35 45  1  0  0  0
 35 68  1  0  0  0
 36 56  1  0  0  0
 36105  1  0  0  0
 37 39  1  0  0  0
 37 47  1  0  0  0
 37 66  1  0  0  0
 37106  1  0  0  0
 38 43  2  0  0  0
 38 46  1  0  0  0
 38 47  1  0  0  0
 39 64  1  0  0  0
 39 67  2  0  0  0
 40 52  1  0  0  0
 40 53  2  0  0  0
 40 58  1  0  0  0
 41107  1  0  0  0
 41108  1  0  0  0
 41109  1  0  0  0
 41 48  1  0  0  0
 42 43  1  0  0  0
 42 66  1  0  0  0
 42110  1  0  0  0
 42111  1  0  0  0
 43 44  1  0  0  0
 44112  1  0  0  0
 45 46  2  0  0  0
 45113  1  0  0  0
 46114  1  0  0  0
 47115  1  0  0  0
 47116  1  0  0  0
 48 56  1  0  0  0
 48 65  1  0  0  0
 48117  1  0  0  0
 49 50  1  0  0  0
 49 53  1  0  0  0
 49 64  1  0  0  0
 49118  1  0  0  0
 50 51  1  0  0  0
 50119  1  0  0  0
 50120  1  0  0  0
 51 52  1  0  0  0
 51121  1  0  0  0
 51122  1  0  0  0
 52123  1  0  0  0
 52124  1  0  0  0
 53 54  1  0  0  0
 54 55  2  0  0  0
 54125  1  0  0  0
 55 57  1  0  0  0
 55126  1  0  0  0
 56 69  2  0  0  0
 57 58  2  0  0  0
 57127  1  0  0  0
 58128  1  0  0  0
 59 60  1  0  0  0
 59 61  1  0  0  0
 59 62  1  0  0  0
 60129  1  0  0  0
 60130  1  0  0  0
 60131  1  0  0  0
 61132  1  0  0  0
 61133  1  0  0  0
 61134  1  0  0  0
 62135  1  0  0  0
 62136  1  0  0  0
 62137  1  0  0  0
 63 65  1  0  0  0
 63138  1  0  0  0
 63139  1  0  0  0
 63140  1  0  0  0
 64141  1  0  0  0
 65142  1  0  0  0
 68 81  1  0  0  0
 71 72  1  0  0  0
 71 74  2  0  0  0
 71 76  1  0  0  0
 72 73  2  0  0  0
 72 77  1  0  0  0
 73 78  1  0  0  0
 73 83  1  0  0  0
 74 82  1  0  0  0
 74 83  1  0  0  0
 75 76  2  0  0  0
 75143  1  0  0  0
 75144  1  0  0  0
 76145  1  0  0  0
 77146  1  0  0  0
 77147  1  0  0  0
 77148  1  0  0  0
 78 79  1  0  0  0
 78149  1  0  0  0
 78150  1  0  0  0
 79 80  1  0  0  0
 79151  1  0  0  0
 79152  1  0  0  0
 80 81  1  0  0  0
 80153  1  0  0  0
 80154  1  0  0  0
 81155  1  0  0  0
 81156  1  0  0  0
 82157  1  0  0  0
M  ISO  4   1 100  68 101  81 101  82 100
M  END
> <chiral flag>
0

> <version>
0

> <s_m_source_file>
/data/baiqing/PycharmProjects/Reinvent-master-3.2/result/LINK_invent/BTK/process_docking_weight1_custom_product_contain_oxygen_bond_distance_aromatic_linkinvent_7_9_3/rearranged_h_0113.sdf

> <i_m_source_file_index>
77

> <r_mmod_Potential_Energy-OPLS-2005>
93.8145217895508

> <r_mmod_Stretch_Energy-OPLS-2005>
89.7131729125977

> <r_mmod_Bend_Energy-OPLS-2005>
149.355438232422

> <r_mmod_Torsional_Energy-OPLS-2005>
250.488616943359

> <r_mmod_Improper_Torsional_Energy-OPLS-2005>
6.30315923690796

> <r_mmod_Van_der_Waal_Energy-OPLS-2005>
118.630668640137

> <r_mmod_Electrostatic_Energy-OPLS-2005>
-380.991485595703

> <r_mmod_Solvation_Energy-OPLS-2005>
-202.461608886719

> <b_mmod_Minimization_Converged-OPLS-2005>
0

> <r_mmod_RMS_Derivative-OPLS-2005>
5.00398349761963

$$$$
77
                    3D
 Structure written by MMmdl.
145152  0  0  1  0            999 V2000
  -30.4068  -15.2673   20.3847 C   0  0  0  0  0  0
  -30.4518  -12.7998   19.5413 C   0  0  0  0  0  0
  -29.5489  -12.5914   18.2970 C   0  0  0  0  0  0
  -28.0910  -12.3173   18.7098 C   0  0  0  0  0  0
  -27.6204  -13.2781   19.8293 C   0  0  2  0  0  0
  -28.6510  -13.4279   20.9685 C   0  0  0  0  0  0
  -25.2429  -13.8254   20.5737 C   0  0  0  0  0  0
  -24.1777  -13.0442   20.9236 C   0  0  0  0  0  0
  -24.6433  -11.6939   20.8744 C   0  0  0  0  0  0
  -23.9123  -10.4297   21.0395 C   0  0  0  0  0  0
  -24.3652   -9.4208   21.9180 C   0  0  0  0  0  0
  -23.6306   -8.2254   22.0759 C   0  0  0  0  0  0
  -22.4286   -8.0293   21.3549 C   0  0  0  0  0  0
  -21.9935   -9.0274   20.4655 C   0  0  0  0  0  0
  -22.7286  -10.2140   20.3054 C   0  0  0  0  0  0
  -21.6858   -6.0739   22.5282 C   0  0  0  0  0  0
  -21.4024   -6.5642   23.8215 C   0  0  0  0  0  0
  -21.3660   -5.6795   24.9174 C   0  0  0  0  0  0
  -21.6039   -4.3056   24.7222 C   0  0  0  0  0  0
  -21.8821   -3.8147   23.4345 C   0  0  0  0  0  0
  -21.9197   -4.6966   22.3402 C   0  0  0  0  0  0
  -22.7790  -13.5189   21.1880 C   0  0  0  0  0  0
  -22.1661   -4.2148   21.0979 F   0  0  0  0  0  0
  -21.5625   -3.4543   25.7736 F   0  0  0  0  0  0
  -29.8978  -13.9336   20.3703 N   0  0  0  0  0  0
  -26.2868  -12.9538   20.3213 N   0  0  0  0  0  0
  -25.9375  -11.6637   20.5701 N   0  0  0  0  0  0
  -22.0442  -12.8187   22.0437 N   0  0  0  0  0  0
  -25.4066  -15.1999   20.4207 N   0  0  0  0  0  0
  -31.6064  -15.2961   20.0680 O   0  0  0  0  0  0
  -21.6645   -6.8888   21.4247 O   0  0  0  0  0  0
  -22.3466  -14.5485   20.6710 O   0  0  0  0  0  0
  -24.6621  -31.8223   23.1703 C   0  0  0  0  0  0
  -25.9306  -32.4584   23.8165 C   0  0  1  0  0  0
  -27.2273  -26.9324   20.1794 C   0  0  0  0  0  0
  -25.5970  -33.8402   24.2072 N   0  0  0  0  0  0
  -23.4774  -30.4326   21.5190 C   0  0  2  0  0  0
  -24.9334  -28.8201   20.1089 C   0  0  0  0  0  0
  -22.7664  -29.4425   22.4785 C   0  0  0  0  0  0
  -18.0323  -28.1411   22.8456 C   0  0  0  0  0  0
  -24.1491  -36.7212   23.2646 C   0  0  0  0  0  0
  -26.0451  -30.6300   21.4001 C   0  0  0  0  0  0
  -26.1139  -29.2198   20.7453 C   0  0  0  0  0  0
  -27.2522  -28.2955   20.7590 C   0  0  0  0  0  0
  -26.0198  -26.6872   19.4851 C   0  0  0  0  0  0
  -24.9119  -27.5746   19.4587 C   0  0  0  0  0  0
  -23.7177  -29.7467   20.1450 C   0  0  0  0  0  0
  -25.4136  -36.2973   24.0296 C   0  0  1  0  0  0
  -20.5942  -28.3749   23.1193 C   0  0  2  0  0  0
  -20.6803  -26.9432   22.5398 C   0  0  0  0  0  0
  -19.5776  -26.6379   21.5205 C   0  0  0  0  0  0
  -18.1957  -26.7946   22.1608 C   0  0  0  0  0  0
  -19.1582  -28.8898   23.2813 C   0  0  0  0  0  0
  -18.9497  -30.1489   23.8850 C   0  0  0  0  0  0
  -17.6493  -30.6601   24.0552 C   0  0  0  0  0  0
  -25.9099  -34.9351   23.5008 C   0  0  0  0  0  0
  -16.5383  -29.9087   23.6346 C   0  0  0  0  0  0
  -16.7306  -28.6513   23.0354 C   0  0  0  0  0  0
  -26.4556  -31.6529   25.0690 C   0  0  0  0  0  0
  -25.3686  -31.3781   26.1350 C   0  0  0  0  0  0
  -27.0449  -30.2895   24.6415 C   0  0  0  0  0  0
  -27.6045  -32.4340   25.7495 C   0  0  0  0  0  0
  -27.5570  -37.1772   24.8466 C   0  0  0  0  0  0
  -21.4332  -29.3045   22.3550 N   0  0  0  0  0  0
  -26.4285  -37.3707   23.9399 N   0  0  0  0  0  0
  -24.7495  -30.9884   22.0840 N   0  0  0  0  0  0
  -23.4214  -28.7999   23.3027 O   0  0  0  0  0  0
  -28.2330  -25.8354   20.3049 O   0  0  0  0  0  0
  -26.5707  -34.8882   22.4606 O   0  0  0  0  0  0
  -23.5693  -32.1189   23.6803 O   0  0  0  0  0  0
  -29.6510  -18.4642   20.1783 C   0  0  0  0  0  0
  -28.4495  -24.1557   18.4062 C   0  0  0  0  0  0
  -29.1480  -21.0987   19.9427 C   0  0  0  0  0  0
  -29.5694  -16.7728   20.7542 C   0  0  0  0  0  0
  -28.6973  -22.6613   20.6137 C   0  0  0  0  0  0
  -28.1331  -24.2311   19.8997 C   0  0  2  0  0  0
  -29.1471  -19.7125   20.6297 N   0  0  0  0  0  0
  -29.3999  -24.7785   17.9221 O   0  0  0  0  0  0
  -29.5357  -21.1725   18.7788 O   0  0  0  0  0  0
  -31.4725  -13.0025   19.2167 H   0  0  0  0  0  0
  -30.5125  -11.8840   20.1311 H   0  0  0  0  0  0
  -29.9285  -11.7727   17.6849 H   0  0  0  0  0  0
  -29.5888  -13.4850   17.6726 H   0  0  0  0  0  0
  -28.0368  -11.2866   19.0623 H   0  0  0  0  0  0
  -27.4290  -12.3820   17.8449 H   0  0  0  0  0  0
  -27.5448  -14.2541   19.3490 H   0  0  0  0  0  0
  -28.8070  -12.4845   21.4937 H   0  0  0  0  0  0
  -28.2897  -14.1400   21.7124 H   0  0  0  0  0  0
  -25.2793   -9.5680   22.4756 H   0  0  0  0  0  0
  -24.0009   -7.4648   22.7487 H   0  0  0  0  0  0
  -21.0859   -8.8807   19.8964 H   0  0  0  0  0  0
  -22.3750  -10.9680   19.6160 H   0  0  0  0  0  0
  -21.2023   -7.6147   23.9723 H   0  0  0  0  0  0
  -21.1477   -6.0516   25.9077 H   0  0  0  0  0  0
  -22.0598   -2.7609   23.2845 H   0  0  0  0  0  0
  -22.4054  -11.9856   22.4840 H   0  0  0  0  0  0
  -21.1061  -13.1221   22.2634 H   0  0  0  0  0  0
  -24.6378  -15.8503   20.5431 H   0  0  0  0  0  0
  -26.2532  -15.6472   20.0948 H   0  0  0  0  0  0
  -26.7371  -32.5125   23.0879 H   0  0  0  0  0  0
  -25.0072  -33.9472   25.0191 H   0  0  0  0  0  0
  -22.7902  -31.2644   21.3478 H   0  0  0  0  0  0
  -23.3759  -35.9537   23.3293 H   0  0  0  0  0  0
  -24.3563  -36.8872   22.2063 H   0  0  0  0  0  0
  -23.7243  -37.6396   23.6710 H   0  0  0  0  0  0
  -26.2217  -31.3712   20.6199 H   0  0  0  0  0  0
  -26.9068  -30.6891   22.0531 H   0  0  0  0  0  0
  -28.1421  -28.5972   21.2941 H   0  0  0  0  0  0
  -25.8904  -25.7383   18.9869 H   0  0  0  0  0  0
  -24.0154  -27.2646   18.9396 H   0  0  0  0  0  0
  -23.8719  -30.5142   19.3860 H   0  0  0  0  0  0
  -22.8282  -29.1999   19.8286 H   0  0  0  0  0  0
  -25.1338  -36.1777   25.0789 H   0  0  0  0  0  0
  -21.0025  -28.3346   24.1322 H   0  0  0  0  0  0
  -20.5677  -26.2359   23.3634 H   0  0  0  0  0  0
  -21.6669  -26.7416   22.1204 H   0  0  0  0  0  0
  -19.6923  -25.6283   21.1259 H   0  0  0  0  0  0
  -19.6708  -27.3172   20.6720 H   0  0  0  0  0  0
  -17.4226  -26.6696   21.4007 H   0  0  0  0  0  0
  -18.0335  -26.0095   22.9007 H   0  0  0  0  0  0
  -19.7971  -30.7321   24.2197 H   0  0  0  0  0  0
  -17.5042  -31.6264   24.5184 H   0  0  0  0  0  0
  -15.5378  -30.2974   23.7701 H   0  0  0  0  0  0
  -15.8705  -28.0817   22.7094 H   0  0  0  0  0  0
  -24.5880  -30.7110   25.7671 H   0  0  0  0  0  0
  -24.8859  -32.2983   26.4654 H   0  0  0  0  0  0
  -25.7928  -30.9034   27.0209 H   0  0  0  0  0  0
  -26.3112  -29.6574   24.1396 H   0  0  0  0  0  0
  -27.3960  -29.7250   25.5064 H   0  0  0  0  0  0
  -27.9061  -30.4077   23.9834 H   0  0  0  0  0  0
  -27.2607  -33.3683   26.1953 H   0  0  0  0  0  0
  -28.3926  -32.6842   25.0376 H   0  0  0  0  0  0
  -28.0635  -31.8543   26.5515 H   0  0  0  0  0  0
  -28.2587  -38.0069   24.7500 H   0  0  0  0  0  0
  -28.1070  -36.2597   24.6324 H   0  0  0  0  0  0
  -27.2276  -37.1448   25.8865 H   0  0  0  0  0  0
  -20.9585  -29.8749   21.6687 H   0  0  0  0  0  0
  -26.0134  -38.2767   24.1399 H   0  0  0  0  0  0
  -30.2065  -18.4764   19.2365 H   0  0  0  0  0  0
  -27.7784  -23.5329   17.8155 H   0  0  0  0  0  0
  -28.5228  -16.5021   20.6261 H   0  0  0  0  0  0
  -29.6826  -16.8502   21.8345 H   0  0  0  0  0  0
  -29.5900  -22.9385   21.1738 H   0  0  0  0  0  0
  -27.9706  -22.4206   21.3886 H   0  0  0  0  0  0
  -27.0539  -24.0871   19.9238 H   0  0  0  0  0  0
  1 25  1  0  0  0
  1 30  2  0  0  0
  1 74  1  0  0  0
  2  3  1  0  0  0
  2 25  1  0  0  0
  2 80  1  0  0  0
  2 81  1  0  0  0
  3  4  1  0  0  0
  3 82  1  0  0  0
  3 83  1  0  0  0
  4  5  1  0  0  0
  4 84  1  0  0  0
  4 85  1  0  0  0
  5  6  1  0  0  0
  5 26  1  0  0  0
  5 86  1  0  0  0
  6 25  1  0  0  0
  6 87  1  0  0  0
  6 88  1  0  0  0
  7  8  2  0  0  0
  7 26  1  0  0  0
  7 29  1  0  0  0
  8  9  1  0  0  0
  8 22  1  0  0  0
  9 10  1  0  0  0
  9 27  2  0  0  0
 10 11  2  0  0  0
 10 15  1  0  0  0
 11 12  1  0  0  0
 11 89  1  0  0  0
 12 13  2  0  0  0
 12 90  1  0  0  0
 13 14  1  0  0  0
 13 31  1  0  0  0
 14 15  2  0  0  0
 14 91  1  0  0  0
 15 92  1  0  0  0
 16 17  2  0  0  0
 16 21  1  0  0  0
 16 31  1  0  0  0
 17 18  1  0  0  0
 17 93  1  0  0  0
 18 19  2  0  0  0
 18 94  1  0  0  0
 19 20  1  0  0  0
 19 24  1  0  0  0
 20 21  2  0  0  0
 20 95  1  0  0  0
 21 23  1  0  0  0
 22 28  1  0  0  0
 22 32  2  0  0  0
 26 27  1  0  0  0
 28 96  1  0  0  0
 28 97  1  0  0  0
 29 98  1  0  0  0
 29 99  1  0  0  0
 33 34  1  0  0  0
 33 66  1  0  0  0
 33 70  2  0  0  0
 34 36  1  0  0  0
 34 59  1  0  0  0
 34100  1  0  0  0
 35 44  2  0  0  0
 35 45  1  0  0  0
 35 68  1  0  0  0
 36 56  1  0  0  0
 36101  1  0  0  0
 37 39  1  0  0  0
 37 47  1  0  0  0
 37 66  1  0  0  0
 37102  1  0  0  0
 38 43  2  0  0  0
 38 46  1  0  0  0
 38 47  1  0  0  0
 39 64  1  0  0  0
 39 67  2  0  0  0
 40 52  1  0  0  0
 40 53  2  0  0  0
 40 58  1  0  0  0
 41103  1  0  0  0
 41104  1  0  0  0
 41105  1  0  0  0
 41 48  1  0  0  0
 42 43  1  0  0  0
 42 66  1  0  0  0
 42106  1  0  0  0
 42107  1  0  0  0
 43 44  1  0  0  0
 44108  1  0  0  0
 45 46  2  0  0  0
 45109  1  0  0  0
 46110  1  0  0  0
 47111  1  0  0  0
 47112  1  0  0  0
 48 56  1  0  0  0
 48 65  1  0  0  0
 48113  1  0  0  0
 49 50  1  0  0  0
 49 53  1  0  0  0
 49 64  1  0  0  0
 49114  1  0  0  0
 50 51  1  0  0  0
 50115  1  0  0  0
 50116  1  0  0  0
 51 52  1  0  0  0
 51117  1  0  0  0
 51118  1  0  0  0
 52119  1  0  0  0
 52120  1  0  0  0
 53 54  1  0  0  0
 54 55  2  0  0  0
 54121  1  0  0  0
 55 57  1  0  0  0
 55122  1  0  0  0
 56 69  2  0  0  0
 57 58  2  0  0  0
 57123  1  0  0  0
 58124  1  0  0  0
 59 60  1  0  0  0
 59 61  1  0  0  0
 59 62  1  0  0  0
 60125  1  0  0  0
 60126  1  0  0  0
 60127  1  0  0  0
 61128  1  0  0  0
 61129  1  0  0  0
 61130  1  0  0  0
 62131  1  0  0  0
 62132  1  0  0  0
 62133  1  0  0  0
 63 65  1  0  0  0
 63134  1  0  0  0
 63135  1  0  0  0
 63136  1  0  0  0
 64137  1  0  0  0
 65138  1  0  0  0
 68 76  1  0  0  0
 71 74  1  0  0  0
 71 77  2  0  0  0
 71139  1  0  0  0
 72 76  1  0  0  0
 72 78  2  0  0  0
 72140  1  0  0  0
 73 75  1  0  0  0
 73 77  1  0  0  0
 73 79  2  0  0  0
 74141  1  0  0  0
 74142  1  0  0  0
 75143  1  0  0  0
 75144  1  0  0  0
 75 76  1  0  0  0
 76145  1  0  0  0
M  ISO  4   1 100  68 101  74 100  76 101
M  END
> <chiral flag>
0

> <version>
0

> <s_m_source_file>
/data/baiqing/PycharmProjects/Reinvent-master-3.2/result/LINK_invent/BTK/process_docking_weight1_custom_product_contain_oxygen_bond_distance_aromatic_linkinvent_7_9_3/rearranged_h_0113.sdf

> <i_m_source_file_index>
78

> <r_mmod_Potential_Energy-OPLS-2005>
1255.49255371094

> <r_mmod_Stretch_Energy-OPLS-2005>
634.978149414062

> <r_mmod_Bend_Energy-OPLS-2005>
451.602325439453

> <r_mmod_Torsional_Energy-OPLS-2005>
175.032241821289

> <r_mmod_Improper_Torsional_Energy-OPLS-2005>
1.90501356124878

> <r_mmod_Van_der_Waal_Energy-OPLS-2005>
107.084983825684

> <r_mmod_Electrostatic_Energy-OPLS-2005>
-340.770172119141

> <r_mmod_Solvation_Energy-OPLS-2005>
-229.359436035156

> <b_mmod_Minimization_Converged-OPLS-2005>
0

> <r_mmod_RMS_Derivative-OPLS-2005>
1.29316926002502

$$$$
78
                    3D
 Structure written by MMmdl.
157165  0  0  1  0            999 V2000
  -30.6001  -14.6723   20.5132 C   0  0  0  0  0  0
  -30.4509  -12.4074   19.4774 C   0  0  0  0  0  0
  -29.5290  -12.4891   18.2371 C   0  0  0  0  0  0
  -28.0477  -12.3202   18.6379 C   0  0  0  0  0  0
  -27.6525  -13.2121   19.8473 C   0  0  2  0  0  0
  -28.6872  -13.0823   20.9879 C   0  0  0  0  0  0
  -25.2593  -13.8173   20.5672 C   0  0  0  0  0  0
  -24.1831  -13.0459   20.9159 C   0  0  0  0  0  0
  -24.6351  -11.6915   20.8659 C   0  0  0  0  0  0
  -23.9024  -10.4326   21.0380 C   0  0  0  0  0  0
  -24.3598   -9.4255   21.9181 C   0  0  0  0  0  0
  -23.6309   -8.2258   22.0750 C   0  0  0  0  0  0
  -22.4298   -8.0267   21.3531 C   0  0  0  0  0  0
  -21.9907   -9.0217   20.4635 C   0  0  0  0  0  0
  -22.7194  -10.2129   20.3036 C   0  0  0  0  0  0
  -21.6853   -6.0740   22.5296 C   0  0  0  0  0  0
  -21.4009   -6.5652   23.8224 C   0  0  0  0  0  0
  -21.3659   -5.6793   24.9178 C   0  0  0  0  0  0
  -21.6051   -4.3043   24.7232 C   0  0  0  0  0  0
  -21.8819   -3.8150   23.4338 C   0  0  0  0  0  0
  -21.9198   -4.6977   22.3405 C   0  0  0  0  0  0
  -22.7863  -13.5266   21.1836 C   0  0  0  0  0  0
  -22.1677   -4.2169   21.0984 F   0  0  0  0  0  0
  -21.5635   -3.4519   25.7732 F   0  0  0  0  0  0
  -30.0095  -13.4335   20.4472 N   0  0  0  0  0  0
  -26.2964  -12.9330   20.3166 N   0  0  0  0  0  0
  -25.9275  -11.6483   20.5611 N   0  0  0  0  0  0
  -22.0451  -12.8272   22.0351 N   0  0  0  0  0  0
  -25.4421  -15.1895   20.4330 N   0  0  0  0  0  0
  -31.7430  -14.8573   20.0840 O   0  0  0  0  0  0
  -21.6641   -6.8877   21.4249 O   0  0  0  0  0  0
  -22.3564  -14.5559   20.6656 O   0  0  0  0  0  0
  -24.6285  -31.8583   23.1978 C   0  0  0  0  0  0
  -25.9094  -32.4782   23.8355 C   0  0  1  0  0  0
  -27.2238  -27.2960   20.1112 C   0  0  0  0  0  0
  -25.5871  -33.8570   24.2294 N   0  0  0  0  0  0
  -23.4264  -30.4868   21.5373 C   0  0  2  0  0  0
  -24.8698  -28.9295   20.1169 C   0  0  0  0  0  0
  -22.7487  -29.4658   22.4848 C   0  0  0  0  0  0
  -18.0309  -28.1513   22.8542 C   0  0  0  0  0  0
  -24.1471  -36.7286   23.2647 C   0  0  0  0  0  0
  -25.9687  -30.7844   21.3665 C   0  0  0  0  0  0
  -26.0388  -29.3999   20.7266 C   0  0  0  0  0  0
  -27.2185  -28.5905   20.7230 C   0  0  0  0  0  0
  -26.0459  -26.9014   19.4484 C   0  0  0  0  0  0
  -24.8750  -27.6850   19.4697 C   0  0  0  0  0  0
  -23.6440  -29.8212   20.1544 C   0  0  0  0  0  0
  -25.4090  -36.3088   24.0361 C   0  0  1  0  0  0
  -20.5936  -28.3750   23.1307 C   0  0  2  0  0  0
  -20.6817  -26.9470   22.5438 C   0  0  0  0  0  0
  -19.5759  -26.6483   21.5280 C   0  0  0  0  0  0
  -18.1928  -26.8066   22.1662 C   0  0  0  0  0  0
  -19.1585  -28.8931   23.2955 C   0  0  0  0  0  0
  -18.9479  -30.1543   23.8984 C   0  0  0  0  0  0
  -17.6479  -30.6687   24.0627 C   0  0  0  0  0  0
  -25.9037  -34.9442   23.5143 C   0  0  0  0  0  0
  -16.5367  -29.9220   23.6361 C   0  0  0  0  0  0
  -16.7312  -28.6654   23.0358 C   0  0  0  0  0  0
  -26.4492  -31.6582   25.0700 C   0  0  0  0  0  0
  -25.3723  -31.3719   26.1429 C   0  0  0  0  0  0
  -27.0296  -30.3034   24.6090 C   0  0  0  0  0  0
  -27.6112  -32.4250   25.7453 C   0  0  0  0  0  0
  -27.5578  -37.1797   24.8473 C   0  0  0  0  0  0
  -21.4191  -29.3097   22.3647 N   0  0  0  0  0  0
  -26.4262  -37.3776   23.9451 N   0  0  0  0  0  0
  -24.6940  -31.0607   22.0912 N   0  0  0  0  0  0
  -23.4198  -28.8146   23.2881 O   0  0  0  0  0  0
  -28.3701  -26.4867   20.0322 O   0  0  0  0  0  0
  -26.5601  -34.8903   22.4716 O   0  0  0  0  0  0
  -23.5434  -32.1338   23.7289 O   0  0  0  0  0  0
  -28.9482  -19.0875   19.3788 C   0  0  0  0  0  0
  -29.6074  -19.4492   21.6534 C   0  0  0  0  0  0
  -29.2865  -17.6951   19.4801 C   0  0  0  0  0  0
  -29.0793  -20.0046   20.4592 C   0  0  0  0  0  0
  -29.7693  -17.1415   20.7062 C   0  0  0  0  0  0
  -29.9243  -18.0616   21.7814 C   0  0  0  0  0  0
  -27.9159  -16.8885   17.5513 C   0  0  0  0  0  0
  -28.9845  -16.7914   18.3598 C   0  0  0  0  0  0
  -28.9254  -22.4390   20.0113 C   0  0  0  0  0  0
  -26.5652  -23.4231   19.9716 C   0  0  0  0  0  0
  -28.4507  -25.1020   20.5905 C   0  0  0  0  0  0
  -28.0616  -23.7662   19.7843 C   0  0  1  0  0  0
  -28.4443  -21.2972   20.4244 N   0  0  0  0  0  0
  -29.8076  -15.6938   20.9705 N   0  0  0  0  0  0
  -30.3101  -17.5903   22.9933 F   0  0  0  0  0  0
  -31.4922  -12.5498   19.1863 H   0  0  0  0  0  0
  -30.4007  -11.4165   19.9330 H   0  0  0  0  0  0
  -29.8126  -11.7220   17.5132 H   0  0  0  0  0  0
  -29.6684  -13.4481   17.7398 H   0  0  0  0  0  0
  -27.8932  -11.2705   18.8937 H   0  0  0  0  0  0
  -27.3984  -12.5175   17.7855 H   0  0  0  0  0  0
  -27.6708  -14.2410   19.4857 H   0  0  0  0  0  0
  -28.6950  -12.0666   21.3834 H   0  0  0  0  0  0
  -28.4069  -13.7197   21.8278 H   0  0  0  0  0  0
  -25.2748   -9.5759   22.4727 H   0  0  0  0  0  0
  -24.0045   -7.4662   22.7457 H   0  0  0  0  0  0
  -21.0842   -8.8699   19.8938 H   0  0  0  0  0  0
  -22.3643  -10.9632   19.6109 H   0  0  0  0  0  0
  -21.1990   -7.6165   23.9730 H   0  0  0  0  0  0
  -21.1488   -6.0521   25.9086 H   0  0  0  0  0  0
  -22.0595   -2.7615   23.2814 H   0  0  0  0  0  0
  -22.4002  -11.9929   22.4769 H   0  0  0  0  0  0
  -21.1045  -13.1313   22.2456 H   0  0  0  0  0  0
  -24.7000  -15.8563   20.6142 H   0  0  0  0  0  0
  -26.3158  -15.6300   20.1733 H   0  0  0  0  0  0
  -26.7142  -32.5472   23.1093 H   0  0  0  0  0  0
  -24.9961  -33.9685   25.0410 H   0  0  0  0  0  0
  -22.7329  -31.3162   21.3913 H   0  0  0  0  0  0
  -23.3738  -35.9605   23.3264 H   0  0  0  0  0  0
  -24.3603  -36.8935   22.2072 H   0  0  0  0  0  0
  -23.7171  -37.6470   23.6658 H   0  0  0  0  0  0
  -26.0913  -31.5332   20.5810 H   0  0  0  0  0  0
  -26.8548  -30.8525   21.9840 H   0  0  0  0  0  0
  -28.1221  -28.9548   21.1896 H   0  0  0  0  0  0
  -26.0433  -26.0036   18.8536 H   0  0  0  0  0  0
  -23.9873  -27.3452   18.9513 H   0  0  0  0  0  0
  -23.7778  -30.5972   19.3980 H   0  0  0  0  0  0
  -22.7583  -29.2640   19.8442 H   0  0  0  0  0  0
  -25.1276  -36.1936   25.0851 H   0  0  0  0  0  0
  -21.0146  -28.3343   24.1384 H   0  0  0  0  0  0
  -20.5817  -26.2348   23.3646 H   0  0  0  0  0  0
  -21.6654  -26.7571   22.1132 H   0  0  0  0  0  0
  -19.6885  -25.6409   21.1275 H   0  0  0  0  0  0
  -19.6699  -27.3343   20.6847 H   0  0  0  0  0  0
  -17.4224  -26.6913   21.4022 H   0  0  0  0  0  0
  -18.0228  -26.0262   22.9096 H   0  0  0  0  0  0
  -19.7937  -30.7389   24.2358 H   0  0  0  0  0  0
  -17.5029  -31.6366   24.5246 H   0  0  0  0  0  0
  -15.5371  -30.3147   23.7669 H   0  0  0  0  0  0
  -15.8720  -28.1040   22.6963 H   0  0  0  0  0  0
  -24.5897  -30.7073   25.7775 H   0  0  0  0  0  0
  -24.8879  -32.2863   26.4873 H   0  0  0  0  0  0
  -25.8050  -30.8901   27.0206 H   0  0  0  0  0  0
  -26.2827  -29.6788   24.1178 H   0  0  0  0  0  0
  -27.4127  -29.7311   25.4543 H   0  0  0  0  0  0
  -27.8646  -30.4417   23.9216 H   0  0  0  0  0  0
  -27.2870  -33.3627   26.1983 H   0  0  0  0  0  0
  -28.3947  -32.6644   25.0253 H   0  0  0  0  0  0
  -28.0710  -31.8328   26.5378 H   0  0  0  0  0  0
  -28.2583  -38.0109   24.7549 H   0  0  0  0  0  0
  -28.1078  -36.2643   24.6245 H   0  0  0  0  0  0
  -27.2322  -37.1393   25.8879 H   0  0  0  0  0  0
  -20.9331  -29.8860   21.6929 H   0  0  0  0  0  0
  -26.0148  -38.2852   24.1468 H   0  0  0  0  0  0
  -28.4976  -19.4575   18.4674 H   0  0  0  0  0  0
  -29.6919  -20.0751   22.5316 H   0  0  0  0  0  0
  -27.7647  -16.1848   16.7459 H   0  0  0  0  0  0
  -27.1684  -17.6592   17.6800 H   0  0  0  0  0  0
  -29.6999  -16.0042   18.1732 H   0  0  0  0  0  0
  -29.9746  -22.5389   19.7111 H   0  0  0  0  0  0
  -26.2194  -22.7468   19.1878 H   0  0  0  0  0  0
  -25.9168  -24.2899   19.9619 H   0  0  0  0  0  0
  -26.3812  -22.9412   20.9329 H   0  0  0  0  0  0
  -29.5150  -25.0053   20.8158 H   0  0  0  0  0  0
  -27.9750  -25.0834   21.5696 H   0  0  0  0  0  0
  -28.2069  -24.0156   18.7305 H   0  0  0  0  0  0
  -28.9901  -15.3527   21.4502 H   0  0  0  0  0  0
  1 25  1  0  0  0
  1 30  2  0  0  0
  1 84  1  0  0  0
  2  3  1  0  0  0
  2 25  1  0  0  0
  2 86  1  0  0  0
  2 87  1  0  0  0
  3  4  1  0  0  0
  3 88  1  0  0  0
  3 89  1  0  0  0
  4  5  1  0  0  0
  4 90  1  0  0  0
  4 91  1  0  0  0
  5  6  1  0  0  0
  5 26  1  0  0  0
  5 92  1  0  0  0
  6 25  1  0  0  0
  6 93  1  0  0  0
  6 94  1  0  0  0
  7  8  2  0  0  0
  7 26  1  0  0  0
  7 29  1  0  0  0
  8  9  1  0  0  0
  8 22  1  0  0  0
  9 10  1  0  0  0
  9 27  2  0  0  0
 10 11  2  0  0  0
 10 15  1  0  0  0
 11 12  1  0  0  0
 11 95  1  0  0  0
 12 13  2  0  0  0
 12 96  1  0  0  0
 13 14  1  0  0  0
 13 31  1  0  0  0
 14 15  2  0  0  0
 14 97  1  0  0  0
 15 98  1  0  0  0
 16 17  2  0  0  0
 16 21  1  0  0  0
 16 31  1  0  0  0
 17 18  1  0  0  0
 17 99  1  0  0  0
 18 19  2  0  0  0
 18100  1  0  0  0
 19 20  1  0  0  0
 19 24  1  0  0  0
 20 21  2  0  0  0
 20101  1  0  0  0
 21 23  1  0  0  0
 22 28  1  0  0  0
 22 32  2  0  0  0
 26 27  1  0  0  0
 28102  1  0  0  0
 28103  1  0  0  0
 29104  1  0  0  0
 29105  1  0  0  0
 33 34  1  0  0  0
 33 66  1  0  0  0
 33 70  2  0  0  0
 34 36  1  0  0  0
 34 59  1  0  0  0
 34106  1  0  0  0
 35 44  2  0  0  0
 35 45  1  0  0  0
 35 68  1  0  0  0
 36 56  1  0  0  0
 36107  1  0  0  0
 37 39  1  0  0  0
 37 47  1  0  0  0
 37 66  1  0  0  0
 37108  1  0  0  0
 38 43  2  0  0  0
 38 46  1  0  0  0
 38 47  1  0  0  0
 39 64  1  0  0  0
 39 67  2  0  0  0
 40 52  1  0  0  0
 40 53  2  0  0  0
 40 58  1  0  0  0
 41109  1  0  0  0
 41110  1  0  0  0
 41111  1  0  0  0
 41 48  1  0  0  0
 42 43  1  0  0  0
 42 66  1  0  0  0
 42112  1  0  0  0
 42113  1  0  0  0
 43 44  1  0  0  0
 44114  1  0  0  0
 45 46  2  0  0  0
 45115  1  0  0  0
 46116  1  0  0  0
 47117  1  0  0  0
 47118  1  0  0  0
 48 56  1  0  0  0
 48 65  1  0  0  0
 48119  1  0  0  0
 49 50  1  0  0  0
 49 53  1  0  0  0
 49 64  1  0  0  0
 49120  1  0  0  0
 50 51  1  0  0  0
 50121  1  0  0  0
 50122  1  0  0  0
 51 52  1  0  0  0
 51123  1  0  0  0
 51124  1  0  0  0
 52125  1  0  0  0
 52126  1  0  0  0
 53 54  1  0  0  0
 54 55  2  0  0  0
 54127  1  0  0  0
 55 57  1  0  0  0
 55128  1  0  0  0
 56 69  2  0  0  0
 57 58  2  0  0  0
 57129  1  0  0  0
 58130  1  0  0  0
 59 60  1  0  0  0
 59 61  1  0  0  0
 59 62  1  0  0  0
 60131  1  0  0  0
 60132  1  0  0  0
 60133  1  0  0  0
 61134  1  0  0  0
 61135  1  0  0  0
 61136  1  0  0  0
 62137  1  0  0  0
 62138  1  0  0  0
 62139  1  0  0  0
 63 65  1  0  0  0
 63140  1  0  0  0
 63141  1  0  0  0
 63142  1  0  0  0
 64143  1  0  0  0
 65144  1  0  0  0
 68 81  1  0  0  0
 71 73  2  0  0  0
 71 74  1  0  0  0
 71145  1  0  0  0
 72 74  2  0  0  0
 72 76  1  0  0  0
 72146  1  0  0  0
 73 75  1  0  0  0
 73 78  1  0  0  0
 74 83  1  0  0  0
 75 76  2  0  0  0
 75 84  1  0  0  0
 76 85  1  0  0  0
 77 78  2  0  0  0
 77147  1  0  0  0
 77148  1  0  0  0
 78149  1  0  0  0
 79 82  1  0  0  0
 79 83  2  0  0  0
 79150  1  0  0  0
 80151  1  0  0  0
 80152  1  0  0  0
 80153  1  0  0  0
 80 82  1  0  0  0
 81 82  1  0  0  0
 81154  1  0  0  0
 81155  1  0  0  0
 82156  1  0  0  0
 84157  1  0  0  0
M  ISO  4   1 100  68 101  81 101  84 100
M  END
> <chiral flag>
0

> <version>
0

> <s_m_source_file>
/data/baiqing/PycharmProjects/Reinvent-master-3.2/result/LINK_invent/BTK/process_docking_weight1_custom_product_contain_oxygen_bond_distance_aromatic_linkinvent_7_9_3/rearranged_h_0113.sdf

> <i_m_source_file_index>
79

> <r_mmod_Potential_Energy-OPLS-2005>
146.322448730469

> <r_mmod_Stretch_Energy-OPLS-2005>
94.5228729248047

> <r_mmod_Bend_Energy-OPLS-2005>
169.972213745117

> <r_mmod_Torsional_Energy-OPLS-2005>
308.479583740234

> <r_mmod_Improper_Torsional_Energy-OPLS-2005>
9.24244403839111

> <r_mmod_Van_der_Waal_Energy-OPLS-2005>
133.909912109375

> <r_mmod_Electrostatic_Energy-OPLS-2005>
-421.249786376953

> <r_mmod_Solvation_Energy-OPLS-2005>
-204.014465332031

> <b_mmod_Minimization_Converged-OPLS-2005>
0

> <r_mmod_RMS_Derivative-OPLS-2005>
5.34595060348511

$$$$
79
                    3D
 Structure written by MMmdl.
156164  0  0  1  0            999 V2000
  -30.6648  -14.6158   20.5192 C   0  0  0  0  0  0
  -30.4324  -12.3762   19.4586 C   0  0  0  0  0  0
  -29.5116  -12.4999   18.2252 C   0  0  0  0  0  0
  -28.0352  -12.3388   18.6385 C   0  0  0  0  0  0
  -27.6573  -13.2167   19.8619 C   0  0  2  0  0  0
  -28.7031  -13.0931   20.9948 C   0  0  0  0  0  0
  -25.2587  -13.8162   20.5683 C   0  0  0  0  0  0
  -24.1848  -13.0421   20.9169 C   0  0  0  0  0  0
  -24.6421  -11.6892   20.8713 C   0  0  0  0  0  0
  -23.9068  -10.4291   21.0386 C   0  0  0  0  0  0
  -24.3620   -9.4208   21.9171 C   0  0  0  0  0  0
  -23.6305   -8.2248   22.0762 C   0  0  0  0  0  0
  -22.4283   -8.0284   21.3549 C   0  0  0  0  0  0
  -21.9914   -9.0241   20.4645 C   0  0  0  0  0  0
  -22.7235  -10.2120   20.3039 C   0  0  0  0  0  0
  -21.6861   -6.0730   22.5267 C   0  0  0  0  0  0
  -21.4000   -6.5628   23.8197 C   0  0  0  0  0  0
  -21.3655   -5.6785   24.9154 C   0  0  0  0  0  0
  -21.6061   -4.3056   24.7208 C   0  0  0  0  0  0
  -21.8827   -3.8142   23.4326 C   0  0  0  0  0  0
  -21.9198   -4.6968   22.3398 C   0  0  0  0  0  0
  -22.7873  -13.5215   21.1831 C   0  0  0  0  0  0
  -22.1673   -4.2150   21.0979 F   0  0  0  0  0  0
  -21.5636   -3.4546   25.7711 F   0  0  0  0  0  0
  -30.0228  -13.4069   20.4298 N   0  0  0  0  0  0
  -26.3026  -12.9351   20.3316 N   0  0  0  0  0  0
  -25.9352  -11.6504   20.5751 N   0  0  0  0  0  0
  -22.0518  -12.8216   22.0388 N   0  0  0  0  0  0
  -25.4236  -15.1897   20.4127 N   0  0  0  0  0  0
  -31.8194  -14.7302   20.0960 O   0  0  0  0  0  0
  -21.6658   -6.8876   21.4241 O   0  0  0  0  0  0
  -22.3557  -14.5529   20.6684 O   0  0  0  0  0  0
  -24.6279  -31.8604   23.2021 C   0  0  0  0  0  0
  -25.9135  -32.4794   23.8357 C   0  0  1  0  0  0
  -27.2390  -27.3537   20.0992 C   0  0  0  0  0  0
  -25.5934  -33.8583   24.2276 N   0  0  0  0  0  0
  -23.4202  -30.4846   21.5424 C   0  0  2  0  0  0
  -24.8704  -28.9423   20.1057 C   0  0  0  0  0  0
  -22.7473  -29.4642   22.4928 C   0  0  0  0  0  0
  -18.0268  -28.1453   22.8495 C   0  0  0  0  0  0
  -24.1428  -36.7216   23.2651 C   0  0  0  0  0  0
  -25.9595  -30.8036   21.3672 C   0  0  0  0  0  0
  -26.0390  -29.4338   20.7060 C   0  0  0  0  0  0
  -27.2283  -28.6486   20.6960 C   0  0  0  0  0  0
  -26.0536  -26.9113   19.4724 C   0  0  0  0  0  0
  -24.8771  -27.6833   19.4835 C   0  0  0  0  0  0
  -23.6357  -29.8175   20.1584 C   0  0  0  0  0  0
  -25.4081  -36.3060   24.0334 C   0  0  1  0  0  0
  -20.5879  -28.3725   23.1286 C   0  0  2  0  0  0
  -20.6753  -26.9451   22.5424 C   0  0  0  0  0  0
  -19.5719  -26.6440   21.5231 C   0  0  0  0  0  0
  -18.1893  -26.8009   22.1617 C   0  0  0  0  0  0
  -19.1534  -28.8899   23.2886 C   0  0  0  0  0  0
  -18.9467  -30.1499   23.8893 C   0  0  0  0  0  0
  -17.6481  -30.6654   24.0603 C   0  0  0  0  0  0
  -25.9046  -34.9450   23.5103 C   0  0  0  0  0  0
  -16.5358  -29.9172   23.6385 C   0  0  0  0  0  0
  -16.7263  -28.6594   23.0402 C   0  0  0  0  0  0
  -26.4518  -31.6628   25.0740 C   0  0  0  0  0  0
  -25.3766  -31.3762   26.1473 C   0  0  0  0  0  0
  -27.0381  -30.3066   24.6183 C   0  0  0  0  0  0
  -27.6035  -32.4396   25.7523 C   0  0  0  0  0  0
  -27.5524  -37.1762   24.8483 C   0  0  0  0  0  0
  -21.4184  -29.3053   22.3649 N   0  0  0  0  0  0
  -26.4218  -37.3798   23.9459 N   0  0  0  0  0  0
  -24.6877  -31.0650   22.0945 N   0  0  0  0  0  0
  -23.4185  -28.8219   23.3041 O   0  0  0  0  0  0
  -28.3200  -26.4693   20.1547 O   0  0  0  0  0  0
  -26.5625  -34.8936   22.4665 O   0  0  0  0  0  0
  -23.5455  -32.1363   23.7388 O   0  0  0  0  0  0
  -31.6413  -19.7430   19.4012 C   0  0  0  0  0  0
  -29.7617  -20.9621   20.3510 C   0  0  0  0  0  0
  -32.1020  -20.9257   18.7907 C   0  0  0  0  0  0
  -30.4458  -19.7027   20.1640 C   0  0  0  0  0  0
  -30.2173  -22.1924   19.7545 C   0  0  0  0  0  0
  -31.3752  -22.1300   18.9383 C   0  0  0  0  0  0
  -28.5971  -23.9999   20.6672 C   0  0  0  0  0  0
  -28.0436  -25.2495   20.7899 C   0  0  0  0  0  0
  -30.3781  -17.2791   20.4121 C   0  0  0  0  0  0
  -33.3797  -20.8653   17.9607 C   0  0  0  0  0  0
  -29.9211  -15.9127   21.0390 C   0  0  0  0  0  0
  -29.9681  -18.4734   20.7522 N   0  0  0  0  0  0
  -31.7920  -23.2768   18.2526 N   0  0  0  0  0  0
  -29.6442  -23.5038   19.8792 N   0  0  0  0  0  0
  -31.4793  -12.4646   19.1649 H   0  0  0  0  0  0
  -30.3314  -11.3860   19.9054 H   0  0  0  0  0  0
  -29.7752  -11.7435   17.4825 H   0  0  0  0  0  0
  -29.6636  -13.4666   17.7436 H   0  0  0  0  0  0
  -27.8799  -11.2859   18.8775 H   0  0  0  0  0  0
  -27.3795  -12.5593   17.7953 H   0  0  0  0  0  0
  -27.6718  -14.2481   19.5094 H   0  0  0  0  0  0
  -28.7091  -12.0849   21.4139 H   0  0  0  0  0  0
  -28.4527  -13.7583   21.8227 H   0  0  0  0  0  0
  -25.2780   -9.5699   22.4716 H   0  0  0  0  0  0
  -24.0016   -7.4660   22.7487 H   0  0  0  0  0  0
  -21.0847   -8.8745   19.8955 H   0  0  0  0  0  0
  -22.3699  -10.9638   19.6130 H   0  0  0  0  0  0
  -21.1979   -7.6130   23.9673 H   0  0  0  0  0  0
  -21.1473   -6.0526   25.9055 H   0  0  0  0  0  0
  -22.0613   -2.7603   23.2818 H   0  0  0  0  0  0
  -22.4160  -11.9872   22.4754 H   0  0  0  0  0  0
  -21.1143  -13.1233   22.2603 H   0  0  0  0  0  0
  -24.6467  -15.8313   20.5220 H   0  0  0  0  0  0
  -26.2768  -15.6452   20.1141 H   0  0  0  0  0  0
  -26.7225  -32.5487   23.1133 H   0  0  0  0  0  0
  -25.0100  -33.9731   25.0421 H   0  0  0  0  0  0
  -22.7157  -31.3066   21.3999 H   0  0  0  0  0  0
  -23.3740  -35.9505   23.3368 H   0  0  0  0  0  0
  -24.3462  -36.8783   22.2043 H   0  0  0  0  0  0
  -23.7137  -37.6405   23.6643 H   0  0  0  0  0  0
  -26.0959  -31.5738   20.6066 H   0  0  0  0  0  0
  -26.8379  -30.8481   21.9978 H   0  0  0  0  0  0
  -28.1240  -29.0120   21.1783 H   0  0  0  0  0  0
  -26.0336  -25.9401   18.9995 H   0  0  0  0  0  0
  -23.9814  -27.2966   19.0185 H   0  0  0  0  0  0
  -23.7588  -30.5915   19.4010 H   0  0  0  0  0  0
  -22.7580  -29.2426   19.8545 H   0  0  0  0  0  0
  -25.1281  -36.1865   25.0831 H   0  0  0  0  0  0
  -20.9988  -28.3326   24.1407 H   0  0  0  0  0  0
  -20.5636  -26.2369   23.3653 H   0  0  0  0  0  0
  -21.6624  -26.7498   22.1216 H   0  0  0  0  0  0
  -19.6882  -25.6349   21.1269 H   0  0  0  0  0  0
  -19.6670  -27.3236   20.6748 H   0  0  0  0  0  0
  -17.4184  -26.6803   21.3988 H   0  0  0  0  0  0
  -18.0225  -26.0169   22.9005 H   0  0  0  0  0  0
  -19.7943  -30.7318   24.2246 H   0  0  0  0  0  0
  -17.5064  -31.6322   24.5236 H   0  0  0  0  0  0
  -15.5370  -30.3112   23.7724 H   0  0  0  0  0  0
  -15.8645  -28.0935   22.7165 H   0  0  0  0  0  0
  -24.5942  -30.7104   25.7814 H   0  0  0  0  0  0
  -24.8967  -32.2931   26.4896 H   0  0  0  0  0  0
  -25.8125  -30.8953   27.0241 H   0  0  0  0  0  0
  -26.2937  -29.6807   24.1246 H   0  0  0  0  0  0
  -27.4132  -29.7361   25.4695 H   0  0  0  0  0  0
  -27.8798  -30.4397   23.9388 H   0  0  0  0  0  0
  -27.2587  -33.3703   26.2065 H   0  0  0  0  0  0
  -28.3855  -32.6967   25.0358 H   0  0  0  0  0  0
  -28.0708  -31.8574   26.5474 H   0  0  0  0  0  0
  -28.2612  -38.0000   24.7540 H   0  0  0  0  0  0
  -28.0943  -36.2543   24.6302 H   0  0  0  0  0  0
  -27.2252  -37.1429   25.8893 H   0  0  0  0  0  0
  -20.9402  -29.8756   21.6816 H   0  0  0  0  0  0
  -26.0084  -38.2839   24.1567 H   0  0  0  0  0  0
  -32.2446  -18.8576   19.2601 H   0  0  0  0  0  0
  -28.8685  -20.9813   20.9563 H   0  0  0  0  0  0
  -28.1675  -23.2223   21.2831 H   0  0  0  0  0  0
  -27.2291  -25.3742   21.4933 H   0  0  0  0  0  0
  -31.0995  -17.1378   19.6050 H   0  0  0  0  0  0
  -34.0086  -20.0247   18.2575 H   0  0  0  0  0  0
  -33.9837  -21.7658   18.0829 H   0  0  0  0  0  0
  -33.1397  -20.7446   16.9039 H   0  0  0  0  0  0
  -28.8545  -15.8139   20.8491 H   0  0  0  0  0  0
  -30.0386  -15.9661   22.1205 H   0  0  0  0  0  0
  -32.5142  -23.1122   17.5612 H   0  0  0  0  0  0
  -31.0367  -23.8101   17.8367 H   0  0  0  0  0  0
  -30.2150  -24.1889   19.3920 H   0  0  0  0  0  0
  1 25  1  0  0  0
  1 30  2  0  0  0
  1 81  1  0  0  0
  2  3  1  0  0  0
  2 25  1  0  0  0
  2 85  1  0  0  0
  2 86  1  0  0  0
  3  4  1  0  0  0
  3 87  1  0  0  0
  3 88  1  0  0  0
  4  5  1  0  0  0
  4 89  1  0  0  0
  4 90  1  0  0  0
  5  6  1  0  0  0
  5 26  1  0  0  0
  5 91  1  0  0  0
  6 25  1  0  0  0
  6 92  1  0  0  0
  6 93  1  0  0  0
  7  8  2  0  0  0
  7 26  1  0  0  0
  7 29  1  0  0  0
  8  9  1  0  0  0
  8 22  1  0  0  0
  9 10  1  0  0  0
  9 27  2  0  0  0
 10 11  2  0  0  0
 10 15  1  0  0  0
 11 12  1  0  0  0
 11 94  1  0  0  0
 12 13  2  0  0  0
 12 95  1  0  0  0
 13 14  1  0  0  0
 13 31  1  0  0  0
 14 15  2  0  0  0
 14 96  1  0  0  0
 15 97  1  0  0  0
 16 17  2  0  0  0
 16 21  1  0  0  0
 16 31  1  0  0  0
 17 18  1  0  0  0
 17 98  1  0  0  0
 18 19  2  0  0  0
 18 99  1  0  0  0
 19 20  1  0  0  0
 19 24  1  0  0  0
 20 21  2  0  0  0
 20100  1  0  0  0
 21 23  1  0  0  0
 22 28  1  0  0  0
 22 32  2  0  0  0
 26 27  1  0  0  0
 28101  1  0  0  0
 28102  1  0  0  0
 29103  1  0  0  0
 29104  1  0  0  0
 33 34  1  0  0  0
 33 66  1  0  0  0
 33 70  2  0  0  0
 34 36  1  0  0  0
 34 59  1  0  0  0
 34105  1  0  0  0
 35 44  2  0  0  0
 35 45  1  0  0  0
 35 68  1  0  0  0
 36 56  1  0  0  0
 36106  1  0  0  0
 37 39  1  0  0  0
 37 47  1  0  0  0
 37 66  1  0  0  0
 37107  1  0  0  0
 38 43  2  0  0  0
 38 46  1  0  0  0
 38 47  1  0  0  0
 39 64  1  0  0  0
 39 67  2  0  0  0
 40 52  1  0  0  0
 40 53  2  0  0  0
 40 58  1  0  0  0
 41108  1  0  0  0
 41109  1  0  0  0
 41110  1  0  0  0
 41 48  1  0  0  0
 42 43  1  0  0  0
 42 66  1  0  0  0
 42111  1  0  0  0
 42112  1  0  0  0
 43 44  1  0  0  0
 44113  1  0  0  0
 45 46  2  0  0  0
 45114  1  0  0  0
 46115  1  0  0  0
 47116  1  0  0  0
 47117  1  0  0  0
 48 56  1  0  0  0
 48 65  1  0  0  0
 48118  1  0  0  0
 49 50  1  0  0  0
 49 53  1  0  0  0
 49 64  1  0  0  0
 49119  1  0  0  0
 50 51  1  0  0  0
 50120  1  0  0  0
 50121  1  0  0  0
 51 52  1  0  0  0
 51122  1  0  0  0
 51123  1  0  0  0
 52124  1  0  0  0
 52125  1  0  0  0
 53 54  1  0  0  0
 54 55  2  0  0  0
 54126  1  0  0  0
 55 57  1  0  0  0
 55127  1  0  0  0
 56 69  2  0  0  0
 57 58  2  0  0  0
 57128  1  0  0  0
 58129  1  0  0  0
 59 60  1  0  0  0
 59 61  1  0  0  0
 59 62  1  0  0  0
 60130  1  0  0  0
 60131  1  0  0  0
 60132  1  0  0  0
 61133  1  0  0  0
 61134  1  0  0  0
 61135  1  0  0  0
 62136  1  0  0  0
 62137  1  0  0  0
 62138  1  0  0  0
 63 65  1  0  0  0
 63139  1  0  0  0
 63140  1  0  0  0
 63141  1  0  0  0
 64142  1  0  0  0
 65143  1  0  0  0
 68 78  1  0  0  0
 71 73  2  0  0  0
 71 74  1  0  0  0
 71144  1  0  0  0
 72 74  2  0  0  0
 72 75  1  0  0  0
 72145  1  0  0  0
 73 76  1  0  0  0
 73 80  1  0  0  0
 74 82  1  0  0  0
 75 76  2  0  0  0
 75 84  1  0  0  0
 76 83  1  0  0  0
 77 78  2  0  0  0
 77 84  1  0  0  0
 77146  1  0  0  0
 78147  1  0  0  0
 79 81  1  0  0  0
 79 82  2  0  0  0
 79148  1  0  0  0
 80149  1  0  0  0
 80150  1  0  0  0
 80151  1  0  0  0
 81152  1  0  0  0
 81153  1  0  0  0
 83154  1  0  0  0
 83155  1  0  0  0
 84156  1  0  0  0
M  ISO  4   1 100  68 101  78 101  81 100
M  END
> <chiral flag>
0

> <version>
0

> <s_m_source_file>
/data/baiqing/PycharmProjects/Reinvent-master-3.2/result/LINK_invent/BTK/process_docking_weight1_custom_product_contain_oxygen_bond_distance_aromatic_linkinvent_7_9_3/rearranged_h_0113.sdf

> <i_m_source_file_index>
80

> <r_mmod_Potential_Energy-OPLS-2005>
-21.0173740386963

> <r_mmod_Stretch_Energy-OPLS-2005>
75.831901550293

> <r_mmod_Bend_Energy-OPLS-2005>
146.030014038086

> <r_mmod_Torsional_Energy-OPLS-2005>
192.513442993164

> <r_mmod_Improper_Torsional_Energy-OPLS-2005>
8.30212783813477

> <r_mmod_Van_der_Waal_Energy-OPLS-2005>
162.458618164062

> <r_mmod_Electrostatic_Energy-OPLS-2005>
-438.039733886719

> <r_mmod_Solvation_Energy-OPLS-2005>
-209.998474121094

> <b_mmod_Minimization_Converged-OPLS-2005>
0

> <r_mmod_RMS_Derivative-OPLS-2005>
3.68954539299011

$$$$
80
                    3D
 Structure written by MMmdl.
151160  0  0  1  0            999 V2000
  -30.7034  -14.5136   20.5442 C   0  0  0  0  0  0
  -30.4174  -12.3185   19.4434 C   0  0  0  0  0  0
  -29.5014  -12.5058   18.2172 C   0  0  0  0  0  0
  -28.0212  -12.3636   18.6219 C   0  0  0  0  0  0
  -27.6577  -13.2169   19.8674 C   0  0  2  0  0  0
  -28.6978  -13.0394   20.9944 C   0  0  0  0  0  0
  -25.2576  -13.8181   20.5671 C   0  0  0  0  0  0
  -24.1832  -13.0447   20.9164 C   0  0  0  0  0  0
  -24.6400  -11.6917   20.8724 C   0  0  0  0  0  0
  -23.9069  -10.4301   21.0398 C   0  0  0  0  0  0
  -24.3620   -9.4219   21.9178 C   0  0  0  0  0  0
  -23.6292   -8.2255   22.0756 C   0  0  0  0  0  0
  -22.4271   -8.0289   21.3547 C   0  0  0  0  0  0
  -21.9904   -9.0265   20.4653 C   0  0  0  0  0  0
  -22.7234  -10.2144   20.3058 C   0  0  0  0  0  0
  -21.6853   -6.0735   22.5277 C   0  0  0  0  0  0
  -21.4022   -6.5646   23.8210 C   0  0  0  0  0  0
  -21.3654   -5.6796   24.9170 C   0  0  0  0  0  0
  -21.6035   -4.3055   24.7220 C   0  0  0  0  0  0
  -21.8823   -3.8149   23.4342 C   0  0  0  0  0  0
  -21.9202   -4.6966   22.3402 C   0  0  0  0  0  0
  -22.7855  -13.5236   21.1836 C   0  0  0  0  0  0
  -22.1664   -4.2156   21.0976 F   0  0  0  0  0  0
  -21.5623   -3.4540   25.7734 F   0  0  0  0  0  0
  -30.0278  -13.3324   20.4402 N   0  0  0  0  0  0
  -26.3014  -12.9367   20.3340 N   0  0  0  0  0  0
  -25.9328  -11.6515   20.5751 N   0  0  0  0  0  0
  -22.0500  -12.8238   22.0400 N   0  0  0  0  0  0
  -25.4313  -15.1896   20.4078 N   0  0  0  0  0  0
  -31.8526  -14.6054   20.1026 O   0  0  0  0  0  0
  -21.6639   -6.8880   21.4239 O   0  0  0  0  0  0
  -22.3532  -14.5534   20.6679 O   0  0  0  0  0  0
  -24.6171  -31.8666   23.2089 C   0  0  0  0  0  0
  -25.9056  -32.4808   23.8391 C   0  0  1  0  0  0
  -27.2303  -27.4116   20.1048 C   0  0  0  0  0  0
  -25.5903  -33.8605   24.2323 N   0  0  0  0  0  0
  -23.4070  -30.4904   21.5488 C   0  0  2  0  0  0
  -24.8567  -28.9586   20.1104 C   0  0  0  0  0  0
  -22.7424  -29.4646   22.4958 C   0  0  0  0  0  0
  -18.0279  -28.1374   22.8478 C   0  0  0  0  0  0
  -24.1486  -36.7304   23.2632 C   0  0  0  0  0  0
  -25.9397  -30.8270   21.3657 C   0  0  0  0  0  0
  -26.0194  -29.4601   20.7116 C   0  0  0  0  0  0
  -27.2124  -28.6946   20.7059 C   0  0  0  0  0  0
  -26.0532  -26.9368   19.4866 C   0  0  0  0  0  0
  -24.8698  -27.6968   19.4929 C   0  0  0  0  0  0
  -23.6182  -29.8263   20.1622 C   0  0  0  0  0  0
  -25.4097  -36.3094   24.0339 C   0  0  1  0  0  0
  -20.5869  -28.3661   23.1300 C   0  0  2  0  0  0
  -20.6771  -26.9396   22.5405 C   0  0  0  0  0  0
  -19.5751  -26.6383   21.5201 C   0  0  0  0  0  0
  -18.1930  -26.7915   22.1620 C   0  0  0  0  0  0
  -19.1522  -28.8833   23.2895 C   0  0  0  0  0  0
  -18.9453  -30.1434   23.8915 C   0  0  0  0  0  0
  -17.6454  -30.6579   24.0560 C   0  0  0  0  0  0
  -25.9033  -34.9463   23.5126 C   0  0  0  0  0  0
  -16.5347  -29.9075   23.6326 C   0  0  0  0  0  0
  -16.7265  -28.6489   23.0352 C   0  0  0  0  0  0
  -26.4485  -31.6579   25.0712 C   0  0  0  0  0  0
  -25.3761  -31.3718   26.1476 C   0  0  0  0  0  0
  -27.0272  -30.2994   24.6094 C   0  0  0  0  0  0
  -27.6084  -32.4272   25.7456 C   0  0  0  0  0  0
  -27.5584  -37.1787   24.8452 C   0  0  0  0  0  0
  -21.4149  -29.3025   22.3698 N   0  0  0  0  0  0
  -26.4274  -37.3787   23.9426 N   0  0  0  0  0  0
  -24.6728  -31.0751   22.0995 N   0  0  0  0  0  0
  -23.4192  -28.8182   23.3006 O   0  0  0  0  0  0
  -28.3476  -26.5971   20.1345 O   0  0  0  0  0  0
  -26.5598  -34.8928   22.4690 O   0  0  0  0  0  0
  -23.5360  -32.1428   23.7468 O   0  0  0  0  0  0
  -28.7072  -18.4684   21.6285 C   0  0  0  0  0  0
  -28.4792  -19.8863   21.6265 C   0  0  0  0  0  0
  -29.6429  -18.0657   20.7119 C   0  0  0  0  0  0
  -29.2304  -20.6025   20.7115 C   0  0  0  0  0  0
  -28.8171  -24.2069   20.3994 C   0  0  0  0  0  0
  -28.4907  -22.9280   21.0220 C   0  0  0  0  0  0
  -30.1858  -16.7332   20.4044 C   0  0  0  0  0  0
  -28.1500  -25.3486   20.7059 C   0  0  0  0  0  0
  -29.9150  -24.0301   19.3949 C   0  0  0  0  0  0
  -30.1795  -22.5174   19.4478 C   0  0  0  0  0  0
  -29.9562  -15.6121   21.0032 N   0  0  0  0  0  0
  -29.2587  -21.9591   20.4509 N   0  0  0  0  0  0
  -27.6573  -22.7513   21.9155 O   0  0  0  0  0  0
  -30.2416  -19.4567   19.8283 S   0  0  0  0  0  0
  -31.4653  -12.3919   19.1460 H   0  0  0  0  0  0
  -30.3001  -11.3173   19.8618 H   0  0  0  0  0  0
  -29.7516  -11.7780   17.4442 H   0  0  0  0  0  0
  -29.6718  -13.4904   17.7778 H   0  0  0  0  0  0
  -27.8359  -11.3088   18.8271 H   0  0  0  0  0  0
  -27.3748  -12.6282   17.7848 H   0  0  0  0  0  0
  -27.6927  -14.2606   19.5543 H   0  0  0  0  0  0
  -28.6746  -12.0191   21.3800 H   0  0  0  0  0  0
  -28.4610  -13.6819   21.8436 H   0  0  0  0  0  0
  -25.2773   -9.5692   22.4747 H   0  0  0  0  0  0
  -24.0011   -7.4644   22.7470 H   0  0  0  0  0  0
  -21.0840   -8.8784   19.8952 H   0  0  0  0  0  0
  -22.3696  -10.9682   19.6169 H   0  0  0  0  0  0
  -21.2016   -7.6156   23.9717 H   0  0  0  0  0  0
  -21.1462   -6.0522   25.9073 H   0  0  0  0  0  0
  -22.0606   -2.7612   23.2844 H   0  0  0  0  0  0
  -22.4113  -11.9902   22.4793 H   0  0  0  0  0  0
  -21.1122  -13.1281   22.2611 H   0  0  0  0  0  0
  -24.6743  -15.8561   20.5146 H   0  0  0  0  0  0
  -26.3044  -15.6198   20.1274 H   0  0  0  0  0  0
  -26.7117  -32.5525   23.1152 H   0  0  0  0  0  0
  -25.0038  -33.9767   25.0457 H   0  0  0  0  0  0
  -22.6966  -31.3080   21.4093 H   0  0  0  0  0  0
  -23.3754  -35.9625   23.3251 H   0  0  0  0  0  0
  -24.3613  -36.8967   22.2060 H   0  0  0  0  0  0
  -23.7221  -37.6486   23.6679 H   0  0  0  0  0  0
  -26.0555  -31.5942   20.5984 H   0  0  0  0  0  0
  -26.8262  -30.8804   21.9858 H   0  0  0  0  0  0
  -28.1075  -29.0693   21.1827 H   0  0  0  0  0  0
  -26.0479  -25.9651   19.0138 H   0  0  0  0  0  0
  -23.9765  -27.3055   19.0267 H   0  0  0  0  0  0
  -23.7263  -30.6032   19.4045 H   0  0  0  0  0  0
  -22.7420  -29.2476   19.8644 H   0  0  0  0  0  0
  -25.1260  -36.1948   25.0825 H   0  0  0  0  0  0
  -20.9971  -28.3234   24.1417 H   0  0  0  0  0  0
  -20.5665  -26.2264   23.3588 H   0  0  0  0  0  0
  -21.6645  -26.7437   22.1203 H   0  0  0  0  0  0
  -19.6915  -25.6295   21.1221 H   0  0  0  0  0  0
  -19.6681  -27.3202   20.6736 H   0  0  0  0  0  0
  -17.4186  -26.6629   21.4038 H   0  0  0  0  0  0
  -18.0357  -26.0061   22.9027 H   0  0  0  0  0  0
  -19.7934  -30.7235   24.2299 H   0  0  0  0  0  0
  -17.5015  -31.6270   24.5136 H   0  0  0  0  0  0
  -15.5345  -30.2982   23.7646 H   0  0  0  0  0  0
  -15.8662  -28.0812   22.7065 H   0  0  0  0  0  0
  -24.5825  -30.7199   25.7805 H   0  0  0  0  0  0
  -24.9098  -32.2904   26.5040 H   0  0  0  0  0  0
  -25.8094  -30.8748   27.0163 H   0  0  0  0  0  0
  -26.2786  -29.6767   24.1165 H   0  0  0  0  0  0
  -27.4032  -29.7220   25.4555 H   0  0  0  0  0  0
  -27.8652  -30.4271   23.9233 H   0  0  0  0  0  0
  -27.2728  -33.3573   26.2055 H   0  0  0  0  0  0
  -28.3874  -32.6815   25.0255 H   0  0  0  0  0  0
  -28.0759  -31.8364   26.5348 H   0  0  0  0  0  0
  -28.2554  -38.0134   24.7568 H   0  0  0  0  0  0
  -28.1130  -36.2669   24.6168 H   0  0  0  0  0  0
  -27.2329  -37.1312   25.8862 H   0  0  0  0  0  0
  -20.9301  -29.8737   21.6911 H   0  0  0  0  0  0
  -26.0156  -38.2849   24.1481 H   0  0  0  0  0  0
  -28.1831  -17.8021   22.3001 H   0  0  0  0  0  0
  -27.7643  -20.3172   22.3121 H   0  0  0  0  0  0
  -30.8669  -16.7693   19.5464 H   0  0  0  0  0  0
  -27.3588  -25.3614   21.4454 H   0  0  0  0  0  0
  -30.7961  -24.6047   19.6845 H   0  0  0  0  0  0
  -29.5912  -24.3544   18.4055 H   0  0  0  0  0  0
  -31.2136  -22.3164   19.7324 H   0  0  0  0  0  0
  -30.0065  -22.0626   18.4710 H   0  0  0  0  0  0
  1 25  1  0  0  0
  1 30  2  0  0  0
  1 81  1  0  0  0
  2  3  1  0  0  0
  2 25  1  0  0  0
  2 85  1  0  0  0
  2 86  1  0  0  0
  3  4  1  0  0  0
  3 87  1  0  0  0
  3 88  1  0  0  0
  4  5  1  0  0  0
  4 89  1  0  0  0
  4 90  1  0  0  0
  5  6  1  0  0  0
  5 26  1  0  0  0
  5 91  1  0  0  0
  6 25  1  0  0  0
  6 92  1  0  0  0
  6 93  1  0  0  0
  7  8  2  0  0  0
  7 26  1  0  0  0
  7 29  1  0  0  0
  8  9  1  0  0  0
  8 22  1  0  0  0
  9 10  1  0  0  0
  9 27  2  0  0  0
 10 11  2  0  0  0
 10 15  1  0  0  0
 11 12  1  0  0  0
 11 94  1  0  0  0
 12 13  2  0  0  0
 12 95  1  0  0  0
 13 14  1  0  0  0
 13 31  1  0  0  0
 14 15  2  0  0  0
 14 96  1  0  0  0
 15 97  1  0  0  0
 16 17  2  0  0  0
 16 21  1  0  0  0
 16 31  1  0  0  0
 17 18  1  0  0  0
 17 98  1  0  0  0
 18 19  2  0  0  0
 18 99  1  0  0  0
 19 20  1  0  0  0
 19 24  1  0  0  0
 20 21  2  0  0  0
 20100  1  0  0  0
 21 23  1  0  0  0
 22 28  1  0  0  0
 22 32  2  0  0  0
 26 27  1  0  0  0
 28101  1  0  0  0
 28102  1  0  0  0
 29103  1  0  0  0
 29104  1  0  0  0
 33 34  1  0  0  0
 33 66  1  0  0  0
 33 70  2  0  0  0
 34 36  1  0  0  0
 34 59  1  0  0  0
 34105  1  0  0  0
 35 44  2  0  0  0
 35 45  1  0  0  0
 35 68  1  0  0  0
 36 56  1  0  0  0
 36106  1  0  0  0
 37 39  1  0  0  0
 37 47  1  0  0  0
 37 66  1  0  0  0
 37107  1  0  0  0
 38 43  2  0  0  0
 38 46  1  0  0  0
 38 47  1  0  0  0
 39 64  1  0  0  0
 39 67  2  0  0  0
 40 52  1  0  0  0
 40 53  2  0  0  0
 40 58  1  0  0  0
 41108  1  0  0  0
 41109  1  0  0  0
 41110  1  0  0  0
 41 48  1  0  0  0
 42 43  1  0  0  0
 42 66  1  0  0  0
 42111  1  0  0  0
 42112  1  0  0  0
 43 44  1  0  0  0
 44113  1  0  0  0
 45 46  2  0  0  0
 45114  1  0  0  0
 46115  1  0  0  0
 47116  1  0  0  0
 47117  1  0  0  0
 48 56  1  0  0  0
 48 65  1  0  0  0
 48118  1  0  0  0
 49 50  1  0  0  0
 49 53  1  0  0  0
 49 64  1  0  0  0
 49119  1  0  0  0
 50 51  1  0  0  0
 50120  1  0  0  0
 50121  1  0  0  0
 51 52  1  0  0  0
 51122  1  0  0  0
 51123  1  0  0  0
 52124  1  0  0  0
 52125  1  0  0  0
 53 54  1  0  0  0
 54 55  2  0  0  0
 54126  1  0  0  0
 55 57  1  0  0  0
 55127  1  0  0  0
 56 69  2  0  0  0
 57 58  2  0  0  0
 57128  1  0  0  0
 58129  1  0  0  0
 59 60  1  0  0  0
 59 61  1  0  0  0
 59 62  1  0  0  0
 60130  1  0  0  0
 60131  1  0  0  0
 60132  1  0  0  0
 61133  1  0  0  0
 61134  1  0  0  0
 61135  1  0  0  0
 62136  1  0  0  0
 62137  1  0  0  0
 62138  1  0  0  0
 63 65  1  0  0  0
 63139  1  0  0  0
 63140  1  0  0  0
 63141  1  0  0  0
 64142  1  0  0  0
 65143  1  0  0  0
 68 78  1  0  0  0
 71 72  1  0  0  0
 71 73  2  0  0  0
 71144  1  0  0  0
 72 74  2  0  0  0
 72145  1  0  0  0
 73 77  1  0  0  0
 73 84  1  0  0  0
 74 82  1  0  0  0
 74 84  1  0  0  0
 75 76  1  0  0  0
 75 78  2  0  0  0
 75 79  1  0  0  0
 76 82  1  0  0  0
 76 83  2  0  0  0
 77 81  2  0  0  0
 77146  1  0  0  0
 78147  1  0  0  0
 79 80  1  0  0  0
 79148  1  0  0  0
 79149  1  0  0  0
 80 82  1  0  0  0
 80150  1  0  0  0
 80151  1  0  0  0
M  ISO  4   1 100  68 101  78 101  81 100
M  END
> <chiral flag>
0

> <version>
0

> <s_m_source_file>
/data/baiqing/PycharmProjects/Reinvent-master-3.2/result/LINK_invent/BTK/process_docking_weight1_custom_product_contain_oxygen_bond_distance_aromatic_linkinvent_7_9_3/rearranged_h_0113.sdf

> <i_m_source_file_index>
81

> <r_mmod_Potential_Energy-OPLS-2005>
19.6702480316162

> <r_mmod_Stretch_Energy-OPLS-2005>
45.0872230529785

> <r_mmod_Bend_Energy-OPLS-2005>
127.29923248291

> <r_mmod_Torsional_Energy-OPLS-2005>
202.617385864258

> <r_mmod_Improper_Torsional_Energy-OPLS-2005>
3.7411572933197

> <r_mmod_Van_der_Waal_Energy-OPLS-2005>
144.276657104492

> <r_mmod_Electrostatic_Energy-OPLS-2005>
-337.712860107422

> <r_mmod_Solvation_Energy-OPLS-2005>
-186.331192016602

> <b_mmod_Minimization_Converged-OPLS-2005>
0

> <r_mmod_RMS_Derivative-OPLS-2005>
1.43976867198944

$$$$
81
                    3D
 Structure written by MMmdl.
157165  0  0  1  0            999 V2000
  -30.6604  -14.5398   20.5279 C   0  0  0  0  0  0
  -30.4291  -12.3258   19.4496 C   0  0  0  0  0  0
  -29.5093  -12.5030   18.2208 C   0  0  0  0  0  0
  -28.0263  -12.3634   18.6200 C   0  0  0  0  0  0
  -27.6594  -13.2138   19.8674 C   0  0  2  0  0  0
  -28.6977  -13.0218   20.9943 C   0  0  0  0  0  0
  -25.2568  -13.8173   20.5645 C   0  0  0  0  0  0
  -24.1829  -13.0449   20.9144 C   0  0  0  0  0  0
  -24.6399  -11.6919   20.8704 C   0  0  0  0  0  0
  -23.9071  -10.4304   21.0377 C   0  0  0  0  0  0
  -24.3629   -9.4230   21.9159 C   0  0  0  0  0  0
  -23.6296   -8.2269   22.0754 C   0  0  0  0  0  0
  -22.4272   -8.0302   21.3551 C   0  0  0  0  0  0
  -21.9910   -9.0273   20.4648 C   0  0  0  0  0  0
  -22.7241  -10.2149   20.3035 C   0  0  0  0  0  0
  -21.6861   -6.0748   22.5281 C   0  0  0  0  0  0
  -21.4021   -6.5647   23.8217 C   0  0  0  0  0  0
  -21.3655   -5.6794   24.9176 C   0  0  0  0  0  0
  -21.6046   -4.3058   24.7221 C   0  0  0  0  0  0
  -21.8815   -3.8154   23.4337 C   0  0  0  0  0  0
  -21.9193   -4.6976   22.3400 C   0  0  0  0  0  0
  -22.7857  -13.5253   21.1818 C   0  0  0  0  0  0
  -22.1658   -4.2165   21.0979 F   0  0  0  0  0  0
  -21.5619   -3.4541   25.7731 F   0  0  0  0  0  0
  -30.0287  -13.3321   20.4494 N   0  0  0  0  0  0
  -26.3014  -12.9357   20.3313 N   0  0  0  0  0  0
  -25.9323  -11.6509   20.5718 N   0  0  0  0  0  0
  -22.0504  -12.8260   22.0393 N   0  0  0  0  0  0
  -25.4253  -15.1889   20.4075 N   0  0  0  0  0  0
  -31.8242  -14.6558   20.1356 O   0  0  0  0  0  0
  -21.6642   -6.8898   21.4243 O   0  0  0  0  0  0
  -22.3544  -14.5561   20.6681 O   0  0  0  0  0  0
  -24.6174  -31.8669   23.2088 C   0  0  0  0  0  0
  -25.9065  -32.4814   23.8391 C   0  0  1  0  0  0
  -27.2317  -27.4178   20.0990 C   0  0  0  0  0  0
  -25.5911  -33.8613   24.2324 N   0  0  0  0  0  0
  -23.4046  -30.4906   21.5518 C   0  0  2  0  0  0
  -24.8498  -28.9521   20.1150 C   0  0  0  0  0  0
  -22.7426  -29.4670   22.5023 C   0  0  0  0  0  0
  -18.0287  -28.1394   22.8509 C   0  0  0  0  0  0
  -24.1487  -36.7307   23.2637 C   0  0  0  0  0  0
  -25.9364  -30.8296   21.3599 C   0  0  0  0  0  0
  -26.0139  -29.4628   20.7041 C   0  0  0  0  0  0
  -27.2121  -28.7080   20.6830 C   0  0  0  0  0  0
  -26.0512  -26.9225   19.5075 C   0  0  0  0  0  0
  -24.8652  -27.6829   19.5113 C   0  0  0  0  0  0
  -23.6096  -29.8183   20.1689 C   0  0  0  0  0  0
  -25.4112  -36.3104   24.0335 C   0  0  1  0  0  0
  -20.5873  -28.3688   23.1369 C   0  0  2  0  0  0
  -20.6792  -26.9406   22.5510 C   0  0  0  0  0  0
  -19.5801  -26.6363   21.5279 C   0  0  0  0  0  0
  -18.1945  -26.7934   22.1615 C   0  0  0  0  0  0
  -19.1526  -28.8850   23.2951 C   0  0  0  0  0  0
  -18.9444  -30.1454   23.8958 C   0  0  0  0  0  0
  -17.6452  -30.6634   24.0573 C   0  0  0  0  0  0
  -25.9039  -34.9471   23.5126 C   0  0  0  0  0  0
  -16.5362  -29.9117   23.6330 C   0  0  0  0  0  0
  -16.7283  -28.6535   23.0354 C   0  0  0  0  0  0
  -26.4474  -31.6589   25.0723 C   0  0  0  0  0  0
  -25.3732  -31.3689   26.1460 C   0  0  0  0  0  0
  -27.0317  -30.3038   24.6104 C   0  0  0  0  0  0
  -27.6045  -32.4304   25.7491 C   0  0  0  0  0  0
  -27.5582  -37.1812   24.8467 C   0  0  0  0  0  0
  -21.4140  -29.3093   22.3810 N   0  0  0  0  0  0
  -26.4305  -37.3796   23.9398 N   0  0  0  0  0  0
  -24.6709  -31.0773   22.0977 N   0  0  0  0  0  0
  -23.4202  -28.8175   23.3027 O   0  0  0  0  0  0
  -28.3783  -26.6497   20.0830 O   0  0  0  0  0  0
  -26.5599  -34.8933   22.4683 O   0  0  0  0  0  0
  -23.5363  -32.1412   23.7495 O   0  0  0  0  0  0
  -29.6111  -19.2653   20.6251 C   0  0  0  0  0  0
  -27.0523  -18.9848   21.6991 C   0  0  0  0  0  0
  -29.2478  -17.9946   21.1739 C   0  0  0  0  0  0
  -28.7334  -20.3853   20.6115 C   0  0  0  0  0  0
  -27.9431  -17.8900   21.7462 C   0  0  0  0  0  0
  -27.4285  -20.2125   21.1256 C   0  0  0  0  0  0
  -30.2176  -16.8234   21.0981 C   0  0  0  0  0  0
  -28.6821  -24.1496   20.0478 C   0  0  0  0  0  0
  -31.6760  -17.2277   21.3355 C   0  0  0  0  0  0
  -28.9468  -22.8470   20.8562 C   0  0  0  0  0  0
  -28.2986  -25.4222   20.8491 C   0  0  0  0  0  0
  -29.8140  -15.6060   20.8826 N   0  0  0  0  0  0
  -27.4901  -16.7265   22.3732 N   0  0  0  0  0  0
  -29.1422  -21.6198   20.0475 N   0  0  0  0  0  0
  -28.7612  -24.1527   18.8137 O   0  0  0  0  0  0
  -26.5217  -21.2194   21.0608 F   0  0  0  0  0  0
  -31.4749  -12.4165   19.1557 H   0  0  0  0  0  0
  -30.3263  -11.3223   19.8640 H   0  0  0  0  0  0
  -29.7602  -11.7699   17.4540 H   0  0  0  0  0  0
  -29.6766  -13.4819   17.7697 H   0  0  0  0  0  0
  -27.8372  -11.3089   18.8200 H   0  0  0  0  0  0
  -27.3848  -12.6317   17.7799 H   0  0  0  0  0  0
  -27.6937  -14.2587   19.5580 H   0  0  0  0  0  0
  -28.6793  -11.9925   21.3547 H   0  0  0  0  0  0
  -28.4544  -13.6373   21.8618 H   0  0  0  0  0  0
  -25.2782   -9.5717   22.4724 H   0  0  0  0  0  0
  -24.0016   -7.4667   22.7478 H   0  0  0  0  0  0
  -21.0839   -8.8783   19.8959 H   0  0  0  0  0  0
  -22.3685  -10.9684   19.6140 H   0  0  0  0  0  0
  -21.2016   -7.6158   23.9729 H   0  0  0  0  0  0
  -21.1477   -6.0522   25.9083 H   0  0  0  0  0  0
  -22.0594   -2.7621   23.2827 H   0  0  0  0  0  0
  -22.4127  -11.9923   22.4784 H   0  0  0  0  0  0
  -21.1128  -13.1295   22.2605 H   0  0  0  0  0  0
  -24.6652  -15.8481   20.5323 H   0  0  0  0  0  0
  -26.3024  -15.6325   20.1631 H   0  0  0  0  0  0
  -26.7137  -32.5534   23.1168 H   0  0  0  0  0  0
  -25.0070  -33.9764   25.0469 H   0  0  0  0  0  0
  -22.6909  -31.3057   21.4145 H   0  0  0  0  0  0
  -23.3747  -35.9643   23.3314 H   0  0  0  0  0  0
  -24.3577  -36.8914   22.2049 H   0  0  0  0  0  0
  -23.7236  -37.6521   23.6638 H   0  0  0  0  0  0
  -26.0473  -31.5970   20.5932 H   0  0  0  0  0  0
  -26.8210  -30.8831   21.9804 H   0  0  0  0  0  0
  -28.1145  -29.1074   21.1242 H   0  0  0  0  0  0
  -26.0494  -25.9484   19.0378 H   0  0  0  0  0  0
  -23.9703  -27.2851   19.0522 H   0  0  0  0  0  0
  -23.7057  -30.5905   19.4039 H   0  0  0  0  0  0
  -22.7332  -29.2336   19.8839 H   0  0  0  0  0  0
  -25.1288  -36.1978   25.0831 H   0  0  0  0  0  0
  -20.9944  -28.3289   24.1501 H   0  0  0  0  0  0
  -20.5692  -26.2294   23.3726 H   0  0  0  0  0  0
  -21.6676  -26.7438   22.1344 H   0  0  0  0  0  0
  -19.7036  -25.6271   21.1340 H   0  0  0  0  0  0
  -19.6772  -27.3165   20.6791 H   0  0  0  0  0  0
  -17.4298  -26.6775   21.3895 H   0  0  0  0  0  0
  -18.0194  -26.0025   22.8929 H   0  0  0  0  0  0
  -19.7919  -30.7253   24.2376 H   0  0  0  0  0  0
  -17.5024  -31.6332   24.5161 H   0  0  0  0  0  0
  -15.5375  -30.3036   23.7655 H   0  0  0  0  0  0
  -15.8690  -28.0861   22.7089 H   0  0  0  0  0  0
  -24.5906  -30.7037   25.7787 H   0  0  0  0  0  0
  -24.8920  -32.2848   26.4914 H   0  0  0  0  0  0
  -25.8085  -30.8854   27.0211 H   0  0  0  0  0  0
  -26.2878  -29.6805   24.1132 H   0  0  0  0  0  0
  -27.4056  -29.7272   25.4569 H   0  0  0  0  0  0
  -27.8712  -30.4358   23.9273 H   0  0  0  0  0  0
  -27.2658  -33.3585   26.2107 H   0  0  0  0  0  0
  -28.3846  -32.6898   25.0316 H   0  0  0  0  0  0
  -28.0719  -31.8402   26.5391 H   0  0  0  0  0  0
  -28.2617  -38.0096   24.7512 H   0  0  0  0  0  0
  -28.1065  -36.2632   24.6300 H   0  0  0  0  0  0
  -27.2294  -37.1465   25.8871 H   0  0  0  0  0  0
  -20.9268  -29.8879   21.7112 H   0  0  0  0  0  0
  -26.0196  -38.2878   24.1395 H   0  0  0  0  0  0
  -30.5895  -19.3839   20.1842 H   0  0  0  0  0  0
  -26.0565  -18.8938   22.1065 H   0  0  0  0  0  0
  -32.2107  -16.4663   21.9038 H   0  0  0  0  0  0
  -31.7361  -18.1440   21.9224 H   0  0  0  0  0  0
  -32.1897  -17.3928   20.3885 H   0  0  0  0  0  0
  -28.1409  -22.7334   21.5804 H   0  0  0  0  0  0
  -29.8490  -23.0108   21.4443 H   0  0  0  0  0  0
  -28.9734  -25.5104   21.6993 H   0  0  0  0  0  0
  -27.3004  -25.2784   21.2638 H   0  0  0  0  0  0
  -26.4908  -16.5481   22.3674 H   0  0  0  0  0  0
  -28.0192  -15.8863   22.1484 H   0  0  0  0  0  0
  -28.7451  -21.7748   19.1231 H   0  0  0  0  0  0
  1 25  1  0  0  0
  1 30  2  0  0  0
  1 82  1  0  0  0
  2  3  1  0  0  0
  2 25  1  0  0  0
  2 87  1  0  0  0
  2 88  1  0  0  0
  3  4  1  0  0  0
  3 89  1  0  0  0
  3 90  1  0  0  0
  4  5  1  0  0  0
  4 91  1  0  0  0
  4 92  1  0  0  0
  5  6  1  0  0  0
  5 26  1  0  0  0
  5 93  1  0  0  0
  6 25  1  0  0  0
  6 94  1  0  0  0
  6 95  1  0  0  0
  7  8  2  0  0  0
  7 26  1  0  0  0
  7 29  1  0  0  0
  8  9  1  0  0  0
  8 22  1  0  0  0
  9 10  1  0  0  0
  9 27  2  0  0  0
 10 11  2  0  0  0
 10 15  1  0  0  0
 11 12  1  0  0  0
 11 96  1  0  0  0
 12 13  2  0  0  0
 12 97  1  0  0  0
 13 14  1  0  0  0
 13 31  1  0  0  0
 14 15  2  0  0  0
 14 98  1  0  0  0
 15 99  1  0  0  0
 16 17  2  0  0  0
 16 21  1  0  0  0
 16 31  1  0  0  0
 17 18  1  0  0  0
 17100  1  0  0  0
 18 19  2  0  0  0
 18101  1  0  0  0
 19 20  1  0  0  0
 19 24  1  0  0  0
 20 21  2  0  0  0
 20102  1  0  0  0
 21 23  1  0  0  0
 22 28  1  0  0  0
 22 32  2  0  0  0
 26 27  1  0  0  0
 28103  1  0  0  0
 28104  1  0  0  0
 29105  1  0  0  0
 29106  1  0  0  0
 33 34  1  0  0  0
 33 66  1  0  0  0
 33 70  2  0  0  0
 34 36  1  0  0  0
 34 59  1  0  0  0
 34107  1  0  0  0
 35 44  2  0  0  0
 35 45  1  0  0  0
 35 68  1  0  0  0
 36 56  1  0  0  0
 36108  1  0  0  0
 37 39  1  0  0  0
 37 47  1  0  0  0
 37 66  1  0  0  0
 37109  1  0  0  0
 38 43  2  0  0  0
 38 46  1  0  0  0
 38 47  1  0  0  0
 39 64  1  0  0  0
 39 67  2  0  0  0
 40 52  1  0  0  0
 40 53  2  0  0  0
 40 58  1  0  0  0
 41110  1  0  0  0
 41111  1  0  0  0
 41112  1  0  0  0
 41 48  1  0  0  0
 42 43  1  0  0  0
 42 66  1  0  0  0
 42113  1  0  0  0
 42114  1  0  0  0
 43 44  1  0  0  0
 44115  1  0  0  0
 45 46  2  0  0  0
 45116  1  0  0  0
 46117  1  0  0  0
 47118  1  0  0  0
 47119  1  0  0  0
 48 56  1  0  0  0
 48 65  1  0  0  0
 48120  1  0  0  0
 49 50  1  0  0  0
 49 53  1  0  0  0
 49 64  1  0  0  0
 49121  1  0  0  0
 50 51  1  0  0  0
 50122  1  0  0  0
 50123  1  0  0  0
 51 52  1  0  0  0
 51124  1  0  0  0
 51125  1  0  0  0
 52126  1  0  0  0
 52127  1  0  0  0
 53 54  1  0  0  0
 54 55  2  0  0  0
 54128  1  0  0  0
 55 57  1  0  0  0
 55129  1  0  0  0
 56 69  2  0  0  0
 57 58  2  0  0  0
 57130  1  0  0  0
 58131  1  0  0  0
 59 60  1  0  0  0
 59 61  1  0  0  0
 59 62  1  0  0  0
 60132  1  0  0  0
 60133  1  0  0  0
 60134  1  0  0  0
 61135  1  0  0  0
 61136  1  0  0  0
 61137  1  0  0  0
 62138  1  0  0  0
 62139  1  0  0  0
 62140  1  0  0  0
 63 65  1  0  0  0
 63141  1  0  0  0
 63142  1  0  0  0
 63143  1  0  0  0
 64144  1  0  0  0
 65145  1  0  0  0
 68 81  1  0  0  0
 71 73  2  0  0  0
 71 74  1  0  0  0
 71146  1  0  0  0
 72 75  2  0  0  0
 72 76  1  0  0  0
 72147  1  0  0  0
 73 75  1  0  0  0
 73 77  1  0  0  0
 74 76  2  0  0  0
 74 84  1  0  0  0
 75 83  1  0  0  0
 76 86  1  0  0  0
 77 79  1  0  0  0
 77 82  2  0  0  0
 78 80  1  0  0  0
 78 81  1  0  0  0
 78 85  2  0  0  0
 79148  1  0  0  0
 79149  1  0  0  0
 79150  1  0  0  0
 80 84  1  0  0  0
 80151  1  0  0  0
 80152  1  0  0  0
 81153  1  0  0  0
 81154  1  0  0  0
 83155  1  0  0  0
 83156  1  0  0  0
 84157  1  0  0  0
M  ISO  4   1 100  68 101  81 101  82 100
M  END
> <chiral flag>
0

> <version>
0

> <s_m_source_file>
/data/baiqing/PycharmProjects/Reinvent-master-3.2/result/LINK_invent/BTK/process_docking_weight1_custom_product_contain_oxygen_bond_distance_aromatic_linkinvent_7_9_3/rearranged_h_0113.sdf

> <i_m_source_file_index>
82

> <r_mmod_Potential_Energy-OPLS-2005>
129.638885498047

> <r_mmod_Stretch_Energy-OPLS-2005>
55.293041229248

> <r_mmod_Bend_Energy-OPLS-2005>
115.876914978027

> <r_mmod_Torsional_Energy-OPLS-2005>
227.937118530273

> <r_mmod_Improper_Torsional_Energy-OPLS-2005>
14.3358325958252

> <r_mmod_Van_der_Waal_Energy-OPLS-2005>
164.290832519531

> <r_mmod_Electrostatic_Energy-OPLS-2005>
-262.235168457031

> <r_mmod_Solvation_Energy-OPLS-2005>
-205.502792358398

> <b_mmod_Minimization_Converged-OPLS-2005>
0

> <r_mmod_RMS_Derivative-OPLS-2005>
3.18269324302673

$$$$
82
                    3D
 Structure written by MMmdl.
161169  0  0  1  0            999 V2000
  -30.6433  -14.5627   20.5871 C   0  0  0  0  0  0
  -30.4457  -12.3685   19.4298 C   0  0  0  0  0  0
  -29.5061  -12.5381   18.2149 C   0  0  0  0  0  0
  -28.0286  -12.3776   18.6241 C   0  0  0  0  0  0
  -27.6667  -13.2097   19.8823 C   0  0  2  0  0  0
  -28.7114  -12.9801   20.9984 C   0  0  0  0  0  0
  -25.2598  -13.8158   20.5712 C   0  0  0  0  0  0
  -24.1837  -13.0439   20.9171 C   0  0  0  0  0  0
  -24.6389  -11.6910   20.8704 C   0  0  0  0  0  0
  -23.9052  -10.4299   21.0379 C   0  0  0  0  0  0
  -24.3596   -9.4218   21.9168 C   0  0  0  0  0  0
  -23.6272   -8.2249   22.0751 C   0  0  0  0  0  0
  -22.4253   -8.0280   21.3548 C   0  0  0  0  0  0
  -21.9892   -9.0260   20.4655 C   0  0  0  0  0  0
  -22.7218  -10.2144   20.3045 C   0  0  0  0  0  0
  -21.6857   -6.0716   22.5267 C   0  0  0  0  0  0
  -21.4025   -6.5620   23.8203 C   0  0  0  0  0  0
  -21.3670   -5.6774   24.9163 C   0  0  0  0  0  0
  -21.6047   -4.3039   24.7216 C   0  0  0  0  0  0
  -21.8819   -3.8135   23.4331 C   0  0  0  0  0  0
  -21.9194   -4.6951   22.3388 C   0  0  0  0  0  0
  -22.7867  -13.5259   21.1822 C   0  0  0  0  0  0
  -22.1660   -4.2140   21.0963 F   0  0  0  0  0  0
  -21.5633   -3.4522   25.7726 F   0  0  0  0  0  0
  -30.0408  -13.3381   20.4617 N   0  0  0  0  0  0
  -26.3054  -12.9350   20.3401 N   0  0  0  0  0  0
  -25.9323  -11.6505   20.5732 N   0  0  0  0  0  0
  -22.0481  -12.8284   22.0392 N   0  0  0  0  0  0
  -25.4329  -15.1878   20.4182 N   0  0  0  0  0  0
  -31.7218  -14.8333   20.0475 O   0  0  0  0  0  0
  -21.6637   -6.8864   21.4230 O   0  0  0  0  0  0
  -22.3578  -14.5569   20.6658 O   0  0  0  0  0  0
  -24.6221  -31.8624   23.2038 C   0  0  0  0  0  0
  -25.9077  -32.4788   23.8361 C   0  0  1  0  0  0
  -27.2445  -27.3635   20.1037 C   0  0  0  0  0  0
  -25.5890  -33.8584   24.2281 N   0  0  0  0  0  0
  -23.4143  -30.4838   21.5481 C   0  0  2  0  0  0
  -24.8632  -28.9422   20.1179 C   0  0  0  0  0  0
  -22.7461  -29.4626   22.4988 C   0  0  0  0  0  0
  -18.0282  -28.1373   22.8505 C   0  0  0  0  0  0
  -24.1478  -36.7302   23.2642 C   0  0  0  0  0  0
  -25.9517  -30.8077   21.3678 C   0  0  0  0  0  0
  -26.0308  -29.4373   20.7117 C   0  0  0  0  0  0
  -27.2240  -28.6614   20.6921 C   0  0  0  0  0  0
  -26.0462  -26.9040   19.5054 C   0  0  0  0  0  0
  -24.8712  -27.6780   19.5104 C   0  0  0  0  0  0
  -23.6260  -29.8131   20.1661 C   0  0  0  0  0  0
  -25.4104  -36.3088   24.0333 C   0  0  1  0  0  0
  -20.5877  -28.3668   23.1324 C   0  0  2  0  0  0
  -20.6772  -26.9400   22.5430 C   0  0  0  0  0  0
  -19.5741  -26.6378   21.5234 C   0  0  0  0  0  0
  -18.1921  -26.7921   22.1641 C   0  0  0  0  0  0
  -19.1533  -28.8842   23.2902 C   0  0  0  0  0  0
  -18.9456  -30.1453   23.8902 C   0  0  0  0  0  0
  -17.6455  -30.6585   24.0564 C   0  0  0  0  0  0
  -25.9040  -34.9456   23.5108 C   0  0  0  0  0  0
  -16.5347  -29.9083   23.6324 C   0  0  0  0  0  0
  -16.7273  -28.6496   23.0358 C   0  0  0  0  0  0
  -26.4474  -31.6581   25.0711 C   0  0  0  0  0  0
  -25.3707  -31.3735   26.1442 C   0  0  0  0  0  0
  -27.0310  -30.3003   24.6137 C   0  0  0  0  0  0
  -27.6031  -32.4323   25.7482 C   0  0  0  0  0  0
  -27.5579  -37.1801   24.8467 C   0  0  0  0  0  0
  -21.4183  -29.3016   22.3723 N   0  0  0  0  0  0
  -26.4289  -37.3779   23.9412 N   0  0  0  0  0  0
  -24.6812  -31.0671   22.0970 N   0  0  0  0  0  0
  -23.4202  -28.8183   23.3066 O   0  0  0  0  0  0
  -28.3972  -26.5675   20.1191 O   0  0  0  0  0  0
  -26.5629  -34.8928   22.4686 O   0  0  0  0  0  0
  -23.5394  -32.1402   23.7389 O   0  0  0  0  0  0
  -28.3952  -17.1146   21.9578 C   0  0  0  0  0  0
  -28.5622  -19.4823   21.4149 C   0  0  0  0  0  0
  -30.2890  -17.9232   20.6578 C   0  0  0  0  0  0
  -27.8757  -18.4173   22.0192 C   0  0  0  0  0  0
  -29.5954  -16.8285   21.2764 C   0  0  0  0  0  0
  -29.7905  -19.2831   20.7395 C   0  0  0  0  0  0
  -32.7905  -21.2028   19.5934 C   0  0  0  0  0  0
  -31.9141  -20.3507   20.1632 C   0  0  0  0  0  0
  -29.8892  -21.5765   19.6874 C   0  0  0  0  0  0
  -26.5870  -18.6782   22.7728 C   0  0  0  0  0  0
  -29.2477  -22.6735   20.6022 C   0  0  0  0  0  0
  -29.5017  -24.2046   20.2593 C   0  0  0  0  0  0
  -28.2227  -25.1113   20.1031 C   0  0  0  0  0  0
  -29.9649  -15.4312   21.3726 N   0  0  0  0  0  0
  -30.5021  -20.4556   20.2150 N   0  0  0  0  0  0
  -29.8511  -21.7669   18.4656 O   0  0  0  0  0  0
  -31.4841  -12.5060   19.1270 H   0  0  0  0  0  0
  -30.3857  -11.3544   19.8271 H   0  0  0  0  0  0
  -29.7623  -11.8142   17.4409 H   0  0  0  0  0  0
  -29.6555  -13.5238   17.7707 H   0  0  0  0  0  0
  -27.8489  -11.3203   18.8176 H   0  0  0  0  0  0
  -27.3776  -12.6514   17.7929 H   0  0  0  0  0  0
  -27.7097  -14.2599   19.5937 H   0  0  0  0  0  0
  -28.7096  -11.9327   21.3050 H   0  0  0  0  0  0
  -28.4429  -13.5341   21.8981 H   0  0  0  0  0  0
  -25.2731   -9.5717   22.4753 H   0  0  0  0  0  0
  -23.9993   -7.4649   22.7468 H   0  0  0  0  0  0
  -21.0827   -8.8776   19.8957 H   0  0  0  0  0  0
  -22.3655  -10.9686   19.6159 H   0  0  0  0  0  0
  -21.2021   -7.6129   23.9712 H   0  0  0  0  0  0
  -21.1495   -6.0494   25.9072 H   0  0  0  0  0  0
  -22.0590   -2.7596   23.2822 H   0  0  0  0  0  0
  -22.4072  -11.9957   22.4833 H   0  0  0  0  0  0
  -21.1109  -13.1377   22.2555 H   0  0  0  0  0  0
  -24.6718  -15.8465   20.5359 H   0  0  0  0  0  0
  -26.2957  -15.6321   20.1310 H   0  0  0  0  0  0
  -26.7142  -32.5488   23.1121 H   0  0  0  0  0  0
  -24.9986  -33.9718   25.0390 H   0  0  0  0  0  0
  -22.7045  -31.3011   21.4051 H   0  0  0  0  0  0
  -23.3734  -35.9639   23.3305 H   0  0  0  0  0  0
  -24.3578  -36.8921   22.2058 H   0  0  0  0  0  0
  -23.7231  -37.6505   23.6664 H   0  0  0  0  0  0
  -26.0738  -31.5717   20.5990 H   0  0  0  0  0  0
  -26.8351  -30.8599   21.9925 H   0  0  0  0  0  0
  -28.1244  -29.0455   21.1521 H   0  0  0  0  0  0
  -25.9867  -25.9395   19.0260 H   0  0  0  0  0  0
  -23.9753  -27.2873   19.0480 H   0  0  0  0  0  0
  -23.7344  -30.5841   19.4027 H   0  0  0  0  0  0
  -22.7501  -29.2318   19.8731 H   0  0  0  0  0  0
  -25.1276  -36.1949   25.0826 H   0  0  0  0  0  0
  -20.9970  -28.3232   24.1446 H   0  0  0  0  0  0
  -20.5704  -26.2269   23.3619 H   0  0  0  0  0  0
  -21.6638  -26.7451   22.1205 H   0  0  0  0  0  0
  -19.6903  -25.6294   21.1249 H   0  0  0  0  0  0
  -19.6675  -27.3206   20.6779 H   0  0  0  0  0  0
  -17.4198  -26.6697   21.4029 H   0  0  0  0  0  0
  -18.0303  -26.0058   22.9030 H   0  0  0  0  0  0
  -19.7931  -30.7275   24.2270 H   0  0  0  0  0  0
  -17.5006  -31.6270   24.5159 H   0  0  0  0  0  0
  -15.5347  -30.2985   23.7641 H   0  0  0  0  0  0
  -15.8677  -28.0819   22.7068 H   0  0  0  0  0  0
  -24.5864  -30.7096   25.7784 H   0  0  0  0  0  0
  -24.8909  -32.2912   26.4857 H   0  0  0  0  0  0
  -25.8022  -30.8921   27.0223 H   0  0  0  0  0  0
  -26.2876  -29.6773   24.1144 H   0  0  0  0  0  0
  -27.4002  -29.7239   25.4632 H   0  0  0  0  0  0
  -27.8748  -30.4295   23.9352 H   0  0  0  0  0  0
  -27.2618  -33.3617   26.2061 H   0  0  0  0  0  0
  -28.3835  -32.6897   25.0305 H   0  0  0  0  0  0
  -28.0698  -31.8444   26.5399 H   0  0  0  0  0  0
  -28.2596  -38.0096   24.7510 H   0  0  0  0  0  0
  -28.1067  -36.2629   24.6283 H   0  0  0  0  0  0
  -27.2305  -37.1447   25.8871 H   0  0  0  0  0  0
  -20.9371  -29.8706   21.6903 H   0  0  0  0  0  0
  -26.0172  -38.2857   24.1402 H   0  0  0  0  0  0
  -27.8511  -16.3238   22.4565 H   0  0  0  0  0  0
  -28.1363  -20.4678   21.5209 H   0  0  0  0  0  0
  -31.2118  -17.7133   20.1331 H   0  0  0  0  0  0
  -33.8524  -21.0041   19.6436 H   0  0  0  0  0  0
  -32.4930  -22.1013   19.0708 H   0  0  0  0  0  0
  -32.3004  -19.4826   20.6747 H   0  0  0  0  0  0
  -25.9024  -17.8356   22.6777 H   0  0  0  0  0  0
  -26.0769  -19.5648   22.3939 H   0  0  0  0  0  0
  -26.7954  -18.8332   23.8316 H   0  0  0  0  0  0
  -29.5601  -22.4820   21.6290 H   0  0  0  0  0  0
  -28.1736  -22.4979   20.5819 H   0  0  0  0  0  0
  -30.1061  -24.2931   19.3551 H   0  0  0  0  0  0
  -30.1170  -24.6204   21.0583 H   0  0  0  0  0  0
  -27.5238  -24.8583   20.9026 H   0  0  0  0  0  0
  -27.7575  -24.8101   19.1661 H   0  0  0  0  0  0
  -29.2974  -14.9111   21.9186 H   0  0  0  0  0  0
  1 25  1  0  0  0
  1 30  2  0  0  0
  1 84  1  0  0  0
  2  3  1  0  0  0
  2 25  1  0  0  0
  2 87  1  0  0  0
  2 88  1  0  0  0
  3  4  1  0  0  0
  3 89  1  0  0  0
  3 90  1  0  0  0
  4  5  1  0  0  0
  4 91  1  0  0  0
  4 92  1  0  0  0
  5  6  1  0  0  0
  5 26  1  0  0  0
  5 93  1  0  0  0
  6 25  1  0  0  0
  6 94  1  0  0  0
  6 95  1  0  0  0
  7  8  2  0  0  0
  7 26  1  0  0  0
  7 29  1  0  0  0
  8  9  1  0  0  0
  8 22  1  0  0  0
  9 10  1  0  0  0
  9 27  2  0  0  0
 10 11  2  0  0  0
 10 15  1  0  0  0
 11 12  1  0  0  0
 11 96  1  0  0  0
 12 13  2  0  0  0
 12 97  1  0  0  0
 13 14  1  0  0  0
 13 31  1  0  0  0
 14 15  2  0  0  0
 14 98  1  0  0  0
 15 99  1  0  0  0
 16 17  2  0  0  0
 16 21  1  0  0  0
 16 31  1  0  0  0
 17 18  1  0  0  0
 17100  1  0  0  0
 18 19  2  0  0  0
 18101  1  0  0  0
 19 20  1  0  0  0
 19 24  1  0  0  0
 20 21  2  0  0  0
 20102  1  0  0  0
 21 23  1  0  0  0
 22 28  1  0  0  0
 22 32  2  0  0  0
 26 27  1  0  0  0
 28103  1  0  0  0
 28104  1  0  0  0
 29105  1  0  0  0
 29106  1  0  0  0
 33 34  1  0  0  0
 33 66  1  0  0  0
 33 70  2  0  0  0
 34 36  1  0  0  0
 34 59  1  0  0  0
 34107  1  0  0  0
 35 44  2  0  0  0
 35 45  1  0  0  0
 35 68  1  0  0  0
 36 56  1  0  0  0
 36108  1  0  0  0
 37 39  1  0  0  0
 37 47  1  0  0  0
 37 66  1  0  0  0
 37109  1  0  0  0
 38 43  2  0  0  0
 38 46  1  0  0  0
 38 47  1  0  0  0
 39 64  1  0  0  0
 39 67  2  0  0  0
 40 52  1  0  0  0
 40 53  2  0  0  0
 40 58  1  0  0  0
 41110  1  0  0  0
 41111  1  0  0  0
 41112  1  0  0  0
 41 48  1  0  0  0
 42 43  1  0  0  0
 42 66  1  0  0  0
 42113  1  0  0  0
 42114  1  0  0  0
 43 44  1  0  0  0
 44115  1  0  0  0
 45 46  2  0  0  0
 45116  1  0  0  0
 46117  1  0  0  0
 47118  1  0  0  0
 47119  1  0  0  0
 48 56  1  0  0  0
 48 65  1  0  0  0
 48120  1  0  0  0
 49 50  1  0  0  0
 49 53  1  0  0  0
 49 64  1  0  0  0
 49121  1  0  0  0
 50 51  1  0  0  0
 50122  1  0  0  0
 50123  1  0  0  0
 51 52  1  0  0  0
 51124  1  0  0  0
 51125  1  0  0  0
 52126  1  0  0  0
 52127  1  0  0  0
 53 54  1  0  0  0
 54 55  2  0  0  0
 54128  1  0  0  0
 55 57  1  0  0  0
 55129  1  0  0  0
 56 69  2  0  0  0
 57 58  2  0  0  0
 57130  1  0  0  0
 58131  1  0  0  0
 59 60  1  0  0  0
 59 61  1  0  0  0
 59 62  1  0  0  0
 60132  1  0  0  0
 60133  1  0  0  0
 60134  1  0  0  0
 61135  1  0  0  0
 61136  1  0  0  0
 61137  1  0  0  0
 62138  1  0  0  0
 62139  1  0  0  0
 62140  1  0  0  0
 63 65  1  0  0  0
 63141  1  0  0  0
 63142  1  0  0  0
 63143  1  0  0  0
 64144  1  0  0  0
 65145  1  0  0  0
 68 83  1  0  0  0
 71 74  2  0  0  0
 71 75  1  0  0  0
 71146  1  0  0  0
 72 74  1  0  0  0
 72 76  2  0  0  0
 72147  1  0  0  0
 73 75  2  0  0  0
 73 76  1  0  0  0
 73148  1  0  0  0
 74 80  1  0  0  0
 75 84  1  0  0  0
 76 85  1  0  0  0
 77 78  2  0  0  0
 77149  1  0  0  0
 77150  1  0  0  0
 78 85  1  0  0  0
 78151  1  0  0  0
 79 81  1  0  0  0
 79 85  1  0  0  0
 79 86  2  0  0  0
 80152  1  0  0  0
 80153  1  0  0  0
 80154  1  0  0  0
 81 82  1  0  0  0
 81155  1  0  0  0
 81156  1  0  0  0
 82 83  1  0  0  0
 82157  1  0  0  0
 82158  1  0  0  0
 83159  1  0  0  0
 83160  1  0  0  0
 84161  1  0  0  0
M  ISO  4   1 100  68 101  83 101  84 100
M  END
> <chiral flag>
0

> <version>
0

> <s_m_source_file>
/data/baiqing/PycharmProjects/Reinvent-master-3.2/result/LINK_invent/BTK/process_docking_weight1_custom_product_contain_oxygen_bond_distance_aromatic_linkinvent_7_9_3/rearranged_h_0113.sdf

> <i_m_source_file_index>
83

> <r_mmod_Potential_Energy-OPLS-2005>
207.530258178711

> <r_mmod_Stretch_Energy-OPLS-2005>
74.3408508300781

> <r_mmod_Bend_Energy-OPLS-2005>
150.985275268555

> <r_mmod_Torsional_Energy-OPLS-2005>
317.991485595703

> <r_mmod_Improper_Torsional_Energy-OPLS-2005>
4.44780302047729

> <r_mmod_Van_der_Waal_Energy-OPLS-2005>
157.754516601562

> <r_mmod_Electrostatic_Energy-OPLS-2005>
-307.214294433594

> <r_mmod_Solvation_Energy-OPLS-2005>
-218.926940917969

> <b_mmod_Minimization_Converged-OPLS-2005>
0

> <r_mmod_RMS_Derivative-OPLS-2005>
2.40441966056824

$$$$
83
                    3D
 Structure written by MMmdl.
155163  0  0  1  0            999 V2000
  -30.6549  -14.6395   20.5822 C   0  0  0  0  0  0
  -30.4390  -12.4156   19.4654 C   0  0  0  0  0  0
  -29.5090  -12.5225   18.2342 C   0  0  0  0  0  0
  -28.0313  -12.3487   18.6352 C   0  0  0  0  0  0
  -27.6525  -13.2130   19.8634 C   0  0  2  0  0  0
  -28.6865  -13.0345   20.9922 C   0  0  0  0  0  0
  -25.2548  -13.8168   20.5668 C   0  0  0  0  0  0
  -24.1801  -13.0428   20.9159 C   0  0  0  0  0  0
  -24.6368  -11.6898   20.8701 C   0  0  0  0  0  0
  -23.9027  -10.4284   21.0385 C   0  0  0  0  0  0
  -24.3584   -9.4209   21.9170 C   0  0  0  0  0  0
  -23.6263   -8.2246   22.0754 C   0  0  0  0  0  0
  -22.4258   -8.0269   21.3526 C   0  0  0  0  0  0
  -21.9879   -9.0243   20.4634 C   0  0  0  0  0  0
  -22.7202  -10.2120   20.3032 C   0  0  0  0  0  0
  -21.6855   -6.0718   22.5275 C   0  0  0  0  0  0
  -21.4013   -6.5625   23.8211 C   0  0  0  0  0  0
  -21.3661   -5.6782   24.9166 C   0  0  0  0  0  0
  -21.6039   -4.3050   24.7227 C   0  0  0  0  0  0
  -21.8824   -3.8134   23.4352 C   0  0  0  0  0  0
  -21.9192   -4.6944   22.3399 C   0  0  0  0  0  0
  -22.7832  -13.5235   21.1847 C   0  0  0  0  0  0
  -22.1658   -4.2122   21.0976 F   0  0  0  0  0  0
  -21.5635   -3.4534   25.7743 F   0  0  0  0  0  0
  -30.0117  -13.4217   20.4683 N   0  0  0  0  0  0
  -26.2963  -12.9335   20.3284 N   0  0  0  0  0  0
  -25.9290  -11.6490   20.5693 N   0  0  0  0  0  0
  -22.0479  -12.8204   22.0401 N   0  0  0  0  0  0
  -25.4318  -15.1881   20.4138 N   0  0  0  0  0  0
  -31.7401  -14.8318   20.0213 O   0  0  0  0  0  0
  -21.6643   -6.8856   21.4234 O   0  0  0  0  0  0
  -22.3512  -14.5558   20.6733 O   0  0  0  0  0  0
  -24.6258  -31.8586   23.1987 C   0  0  0  0  0  0
  -25.9107  -32.4773   23.8313 C   0  0  1  0  0  0
  -27.2390  -27.3260   20.1280 C   0  0  0  0  0  0
  -25.5935  -33.8570   24.2278 N   0  0  0  0  0  0
  -23.4192  -30.4753   21.5436 C   0  0  2  0  0  0
  -24.8698  -28.9249   20.1148 C   0  0  0  0  0  0
  -22.7483  -29.4572   22.4957 C   0  0  0  0  0  0
  -18.0259  -28.1350   22.8461 C   0  0  0  0  0  0
  -24.1491  -36.7279   23.2648 C   0  0  0  0  0  0
  -25.9559  -30.7980   21.3589 C   0  0  0  0  0  0
  -26.0368  -29.4191   20.7124 C   0  0  0  0  0  0
  -27.2270  -28.6345   20.7002 C   0  0  0  0  0  0
  -26.0512  -26.8774   19.5109 C   0  0  0  0  0  0
  -24.8792  -27.6596   19.5032 C   0  0  0  0  0  0
  -23.6335  -29.8012   20.1602 C   0  0  0  0  0  0
  -25.4113  -36.3077   24.0339 C   0  0  1  0  0  0
  -20.5865  -28.3657   23.1275 C   0  0  2  0  0  0
  -20.6754  -26.9393   22.5376 C   0  0  0  0  0  0
  -19.5747  -26.6374   21.5157 C   0  0  0  0  0  0
  -18.1924  -26.7893   22.1587 C   0  0  0  0  0  0
  -19.1515  -28.8821   23.2855 C   0  0  0  0  0  0
  -18.9457  -30.1415   23.8887 C   0  0  0  0  0  0
  -17.6468  -30.6576   24.0536 C   0  0  0  0  0  0
  -25.9055  -34.9450   23.5105 C   0  0  0  0  0  0
  -16.5349  -29.9070   23.6324 C   0  0  0  0  0  0
  -16.7250  -28.6478   23.0349 C   0  0  0  0  0  0
  -26.4511  -31.6566   25.0660 C   0  0  0  0  0  0
  -25.3761  -31.3637   26.1395 C   0  0  0  0  0  0
  -27.0359  -30.3020   24.6013 C   0  0  0  0  0  0
  -27.6087  -32.4271   25.7443 C   0  0  0  0  0  0
  -27.5572  -37.1794   24.8474 C   0  0  0  0  0  0
  -21.4191  -29.3014   22.3701 N   0  0  0  0  0  0
  -26.4289  -37.3768   23.9424 N   0  0  0  0  0  0
  -24.6864  -31.0596   22.0927 N   0  0  0  0  0  0
  -23.4219  -28.8097   23.3021 O   0  0  0  0  0  0
  -28.3753  -26.5067   20.1278 O   0  0  0  0  0  0
  -26.5617  -34.8936   22.4669 O   0  0  0  0  0  0
  -23.5427  -32.1373   23.7326 O   0  0  0  0  0  0
  -29.3546  -17.6319   19.7247 C   0  0  0  0  0  0
  -30.1892  -19.7157   21.3930 C   0  0  0  0  0  0
  -29.9714  -17.2548   20.9459 C   0  0  0  0  0  0
  -29.5454  -20.0889   20.1821 C   0  0  0  0  0  0
  -29.1428  -19.0001   19.3503 C   0  0  0  0  0  0
  -30.3968  -18.3497   21.7589 C   0  0  0  0  0  0
  -29.2114  -22.5288   20.4377 C   0  0  0  0  0  0
  -30.0207  -15.7954   21.4504 C   0  0  0  0  0  0
  -27.3059  -18.6594   17.8994 C   0  0  0  0  0  0
  -29.1150  -23.9939   19.8416 C   0  0  0  0  0  0
  -28.2519  -25.1028   20.5905 C   0  0  0  0  0  0
  -29.5890  -15.5550   22.6206 N   0  0  0  0  0  0
  -29.3426  -21.4458   19.7250 N   0  0  0  0  0  0
  -28.5465  -19.3081   18.1506 O   0  0  0  0  0  0
  -31.0070  -18.1050   22.9442 F   0  0  0  0  0  0
  -31.4780  -12.5467   19.1569 H   0  0  0  0  0  0
  -30.3898  -11.4143   19.8958 H   0  0  0  0  0  0
  -29.7782  -11.7697   17.4925 H   0  0  0  0  0  0
  -29.6478  -13.4923   17.7535 H   0  0  0  0  0  0
  -27.8675  -11.2950   18.8653 H   0  0  0  0  0  0
  -27.3766  -12.5769   17.7939 H   0  0  0  0  0  0
  -27.6840  -14.2531   19.5392 H   0  0  0  0  0  0
  -28.7076  -11.9938   21.3196 H   0  0  0  0  0  0
  -28.3684  -13.5883   21.8700 H   0  0  0  0  0  0
  -25.2721   -9.5708   22.4751 H   0  0  0  0  0  0
  -23.9970   -7.4653   22.7492 H   0  0  0  0  0  0
  -21.0807   -8.8757   19.8946 H   0  0  0  0  0  0
  -22.3655  -10.9652   19.6147 H   0  0  0  0  0  0
  -21.2012   -7.6136   23.9694 H   0  0  0  0  0  0
  -21.1475   -6.0515   25.9064 H   0  0  0  0  0  0
  -22.0604   -2.7595   23.2867 H   0  0  0  0  0  0
  -22.4088  -11.9825   22.4712 H   0  0  0  0  0  0
  -21.1124  -13.1251   22.2676 H   0  0  0  0  0  0
  -24.6788  -15.8529   20.5519 H   0  0  0  0  0  0
  -26.3019  -15.6240   20.1403 H   0  0  0  0  0  0
  -26.7190  -32.5465   23.1090 H   0  0  0  0  0  0
  -25.0080  -33.9694   25.0423 H   0  0  0  0  0  0
  -22.7104  -31.2931   21.3984 H   0  0  0  0  0  0
  -23.3750  -35.9614   23.3310 H   0  0  0  0  0  0
  -24.3565  -36.8890   22.2055 H   0  0  0  0  0  0
  -23.7232  -37.6478   23.6667 H   0  0  0  0  0  0
  -26.0586  -31.5564   20.5799 H   0  0  0  0  0  0
  -26.8487  -30.8665   21.9690 H   0  0  0  0  0  0
  -28.1291  -29.0181   21.1559 H   0  0  0  0  0  0
  -26.0231  -25.9090   19.0306 H   0  0  0  0  0  0
  -23.9873  -27.2743   19.0289 H   0  0  0  0  0  0
  -23.7412  -30.5745   19.3990 H   0  0  0  0  0  0
  -22.7560  -29.2211   19.8662 H   0  0  0  0  0  0
  -25.1287  -36.1934   25.0823 H   0  0  0  0  0  0
  -20.9916  -28.3233   24.1414 H   0  0  0  0  0  0
  -20.5633  -26.2286   23.3576 H   0  0  0  0  0  0
  -21.6631  -26.7405   22.1200 H   0  0  0  0  0  0
  -19.6925  -25.6281   21.1179 H   0  0  0  0  0  0
  -19.6688  -27.3217   20.6711 H   0  0  0  0  0  0
  -17.4191  -26.6607   21.3999 H   0  0  0  0  0  0
  -18.0323  -26.0031   22.8980 H   0  0  0  0  0  0
  -19.7958  -30.7177   24.2295 H   0  0  0  0  0  0
  -17.5047  -31.6264   24.5128 H   0  0  0  0  0  0
  -15.5353  -30.2986   23.7658 H   0  0  0  0  0  0
  -15.8634  -28.0798   22.7094 H   0  0  0  0  0  0
  -24.5992  -30.6916   25.7717 H   0  0  0  0  0  0
  -24.8879  -32.2769   26.4808 H   0  0  0  0  0  0
  -25.8135  -30.8839   27.0165 H   0  0  0  0  0  0
  -26.2884  -29.6733   24.1157 H   0  0  0  0  0  0
  -27.4257  -29.7283   25.4427 H   0  0  0  0  0  0
  -27.8669  -30.4338   23.9071 H   0  0  0  0  0  0
  -27.2738  -33.3628   26.1924 H   0  0  0  0  0  0
  -28.3968  -32.6701   25.0302 H   0  0  0  0  0  0
  -28.0668  -31.8414   26.5421 H   0  0  0  0  0  0
  -28.2594  -38.0092   24.7520 H   0  0  0  0  0  0
  -28.1065  -36.2614   24.6324 H   0  0  0  0  0  0
  -27.2273  -37.1456   25.8874 H   0  0  0  0  0  0
  -20.9397  -29.8776   21.6919 H   0  0  0  0  0  0
  -26.0173  -38.2842   24.1440 H   0  0  0  0  0  0
  -29.0180  -16.8425   19.0697 H   0  0  0  0  0  0
  -30.5460  -20.4781   22.0689 H   0  0  0  0  0  0
  -29.1969  -22.4981   21.5310 H   0  0  0  0  0  0
  -26.8567  -19.0785   16.9979 H   0  0  0  0  0  0
  -26.6103  -18.8316   18.7221 H   0  0  0  0  0  0
  -27.4075  -17.5847   17.7416 H   0  0  0  0  0  0
  -28.7547  -23.9217   18.8157 H   0  0  0  0  0  0
  -30.1367  -24.3655   19.7644 H   0  0  0  0  0  0
  -28.5532  -25.1154   21.6389 H   0  0  0  0  0  0
  -27.2130  -24.7762   20.6044 H   0  0  0  0  0  0
  -29.2469  -16.3932   23.0742 H   0  0  0  0  0  0
  1 25  1  0  0  0
  1 30  2  0  0  0
  1 78  1  0  0  0
  2  3  1  0  0  0
  2 25  1  0  0  0
  2 86  1  0  0  0
  2 87  1  0  0  0
  3  4  1  0  0  0
  3 88  1  0  0  0
  3 89  1  0  0  0
  4  5  1  0  0  0
  4 90  1  0  0  0
  4 91  1  0  0  0
  5  6  1  0  0  0
  5 26  1  0  0  0
  5 92  1  0  0  0
  6 25  1  0  0  0
  6 93  1  0  0  0
  6 94  1  0  0  0
  7  8  2  0  0  0
  7 26  1  0  0  0
  7 29  1  0  0  0
  8  9  1  0  0  0
  8 22  1  0  0  0
  9 10  1  0  0  0
  9 27  2  0  0  0
 10 11  2  0  0  0
 10 15  1  0  0  0
 11 12  1  0  0  0
 11 95  1  0  0  0
 12 13  2  0  0  0
 12 96  1  0  0  0
 13 14  1  0  0  0
 13 31  1  0  0  0
 14 15  2  0  0  0
 14 97  1  0  0  0
 15 98  1  0  0  0
 16 17  2  0  0  0
 16 21  1  0  0  0
 16 31  1  0  0  0
 17 18  1  0  0  0
 17 99  1  0  0  0
 18 19  2  0  0  0
 18100  1  0  0  0
 19 20  1  0  0  0
 19 24  1  0  0  0
 20 21  2  0  0  0
 20101  1  0  0  0
 21 23  1  0  0  0
 22 28  1  0  0  0
 22 32  2  0  0  0
 26 27  1  0  0  0
 28102  1  0  0  0
 28103  1  0  0  0
 29104  1  0  0  0
 29105  1  0  0  0
 33 34  1  0  0  0
 33 66  1  0  0  0
 33 70  2  0  0  0
 34 36  1  0  0  0
 34 59  1  0  0  0
 34106  1  0  0  0
 35 44  2  0  0  0
 35 45  1  0  0  0
 35 68  1  0  0  0
 36 56  1  0  0  0
 36107  1  0  0  0
 37 39  1  0  0  0
 37 47  1  0  0  0
 37 66  1  0  0  0
 37108  1  0  0  0
 38 43  2  0  0  0
 38 46  1  0  0  0
 38 47  1  0  0  0
 39 64  1  0  0  0
 39 67  2  0  0  0
 40 52  1  0  0  0
 40 53  2  0  0  0
 40 58  1  0  0  0
 41109  1  0  0  0
 41110  1  0  0  0
 41111  1  0  0  0
 41 48  1  0  0  0
 42 43  1  0  0  0
 42 66  1  0  0  0
 42112  1  0  0  0
 42113  1  0  0  0
 43 44  1  0  0  0
 44114  1  0  0  0
 45 46  2  0  0  0
 45115  1  0  0  0
 46116  1  0  0  0
 47117  1  0  0  0
 47118  1  0  0  0
 48 56  1  0  0  0
 48 65  1  0  0  0
 48119  1  0  0  0
 49 50  1  0  0  0
 49 53  1  0  0  0
 49 64  1  0  0  0
 49120  1  0  0  0
 50 51  1  0  0  0
 50121  1  0  0  0
 50122  1  0  0  0
 51 52  1  0  0  0
 51123  1  0  0  0
 51124  1  0  0  0
 52125  1  0  0  0
 52126  1  0  0  0
 53 54  1  0  0  0
 54 55  2  0  0  0
 54127  1  0  0  0
 55 57  1  0  0  0
 55128  1  0  0  0
 56 69  2  0  0  0
 57 58  2  0  0  0
 57129  1  0  0  0
 58130  1  0  0  0
 59 60  1  0  0  0
 59 61  1  0  0  0
 59 62  1  0  0  0
 60131  1  0  0  0
 60132  1  0  0  0
 60133  1  0  0  0
 61134  1  0  0  0
 61135  1  0  0  0
 61136  1  0  0  0
 62137  1  0  0  0
 62138  1  0  0  0
 62139  1  0  0  0
 63 65  1  0  0  0
 63140  1  0  0  0
 63141  1  0  0  0
 63142  1  0  0  0
 64143  1  0  0  0
 65144  1  0  0  0
 68 81  1  0  0  0
 71 73  2  0  0  0
 71 75  1  0  0  0
 71145  1  0  0  0
 72 74  1  0  0  0
 72 76  2  0  0  0
 72146  1  0  0  0
 73 76  1  0  0  0
 73 78  1  0  0  0
 74 75  2  0  0  0
 74 83  1  0  0  0
 75 84  1  0  0  0
 76 85  1  0  0  0
 77 80  1  0  0  0
 77 83  2  0  0  0
 77147  1  0  0  0
 78 82  2  0  0  0
 79 84  1  0  0  0
 79148  1  0  0  0
 79149  1  0  0  0
 79150  1  0  0  0
 80 81  1  0  0  0
 80151  1  0  0  0
 80152  1  0  0  0
 81153  1  0  0  0
 81154  1  0  0  0
 82155  1  0  0  0
M  ISO  4   1 100  68 101  78 100  81 101
M  END
> <chiral flag>
0

> <version>
0

> <s_m_source_file>
/data/baiqing/PycharmProjects/Reinvent-master-3.2/result/LINK_invent/BTK/process_docking_weight1_custom_product_contain_oxygen_bond_distance_aromatic_linkinvent_7_9_3/rearranged_h_0113.sdf

> <i_m_source_file_index>
84

> <r_mmod_Potential_Energy-OPLS-2005>
211.143692016602

> <r_mmod_Stretch_Energy-OPLS-2005>
95.0958633422852

> <r_mmod_Bend_Energy-OPLS-2005>
155.325225830078

> <r_mmod_Torsional_Energy-OPLS-2005>
242.048446655273

> <r_mmod_Improper_Torsional_Energy-OPLS-2005>
3.01937890052795

> <r_mmod_Van_der_Waal_Energy-OPLS-2005>
146.200012207031

> <r_mmod_Electrostatic_Energy-OPLS-2005>
-258.552978515625

> <r_mmod_Solvation_Energy-OPLS-2005>
-215.029968261719

> <b_mmod_Minimization_Converged-OPLS-2005>
0

> <r_mmod_RMS_Derivative-OPLS-2005>
2.76718425750732

$$$$
84
                    3D
 Structure written by MMmdl.
166174  0  0  1  0            999 V2000
  -30.5098  -14.9891   20.3857 C   0  0  0  0  0  0
  -30.4568  -12.6087   19.4914 C   0  0  0  0  0  0
  -29.5207  -12.4804   18.2634 C   0  0  0  0  0  0
  -28.0629  -12.2223   18.6941 C   0  0  0  0  0  0
  -27.6213  -13.1858   19.8160 C   0  0  2  0  0  0
  -28.6663  -13.2790   20.9524 C   0  0  0  0  0  0
  -25.2541  -13.8062   20.5694 C   0  0  0  0  0  0
  -24.1777  -13.0379   20.9205 C   0  0  0  0  0  0
  -24.6326  -11.6855   20.8767 C   0  0  0  0  0  0
  -23.9010  -10.4271   21.0413 C   0  0  0  0  0  0
  -24.3602   -9.4206   21.9174 C   0  0  0  0  0  0
  -23.6294   -8.2235   22.0740 C   0  0  0  0  0  0
  -22.4276   -8.0276   21.3523 C   0  0  0  0  0  0
  -21.9894   -9.0238   20.4620 C   0  0  0  0  0  0
  -22.7208  -10.2121   20.3037 C   0  0  0  0  0  0
  -21.6858   -6.0749   22.5283 C   0  0  0  0  0  0
  -21.4040   -6.5648   23.8222 C   0  0  0  0  0  0
  -21.3641   -5.6781   24.9171 C   0  0  0  0  0  0
  -21.6038   -4.3048   24.7218 C   0  0  0  0  0  0
  -21.8832   -3.8156   23.4336 C   0  0  0  0  0  0
  -21.9203   -4.6984   22.3401 C   0  0  0  0  0  0
  -22.7836  -13.5227   21.1889 C   0  0  0  0  0  0
  -22.1668   -4.2176   21.0978 F   0  0  0  0  0  0
  -21.5605   -3.4518   25.7720 F   0  0  0  0  0  0
  -29.9410  -13.7079   20.3565 N   0  0  0  0  0  0
  -26.2844  -12.9131   20.3191 N   0  0  0  0  0  0
  -25.9230  -11.6350   20.5765 N   0  0  0  0  0  0
  -22.0468  -12.8220   22.0453 N   0  0  0  0  0  0
  -25.4403  -15.1745   20.4193 N   0  0  0  0  0  0
  -31.7298  -15.0653   20.1899 O   0  0  0  0  0  0
  -21.6624   -6.8889   21.4245 O   0  0  0  0  0  0
  -22.3553  -14.5559   20.6763 O   0  0  0  0  0  0
  -24.6483  -31.8451   23.1920 C   0  0  0  0  0  0
  -25.9249  -32.4699   23.8351 C   0  0  1  0  0  0
  -27.2461  -27.1580   20.1569 C   0  0  0  0  0  0
  -25.5970  -33.8502   24.2267 N   0  0  0  0  0  0
  -23.4545  -30.4603   21.5382 C   0  0  2  0  0  0
  -24.9076  -28.8849   20.1152 C   0  0  0  0  0  0
  -22.7627  -29.4510   22.4906 C   0  0  0  0  0  0
  -18.0328  -28.1359   22.8463 C   0  0  0  0  0  0
  -24.1467  -36.7249   23.2637 C   0  0  0  0  0  0
  -26.0078  -30.7206   21.3913 C   0  0  0  0  0  0
  -26.0813  -29.3326   20.7348 C   0  0  0  0  0  0
  -27.2492  -28.4866   20.7396 C   0  0  0  0  0  0
  -26.0476  -26.8113   19.4916 C   0  0  0  0  0  0
  -24.9021  -27.6353   19.4785 C   0  0  0  0  0  0
  -23.6832  -29.7832   20.1596 C   0  0  0  0  0  0
  -25.4095  -36.3033   24.0311 C   0  0  1  0  0  0
  -20.5950  -28.3686   23.1184 C   0  0  2  0  0  0
  -20.6779  -26.9368   22.5370 C   0  0  0  0  0  0
  -19.5734  -26.6355   21.5192 C   0  0  0  0  0  0
  -18.1926  -26.7900   22.1614 C   0  0  0  0  0  0
  -19.1598  -28.8862   23.2794 C   0  0  0  0  0  0
  -18.9487  -30.1484   23.8763 C   0  0  0  0  0  0
  -17.6457  -30.6528   24.0565 C   0  0  0  0  0  0
  -25.9046  -34.9405   23.5099 C   0  0  0  0  0  0
  -16.5355  -29.9015   23.6332 C   0  0  0  0  0  0
  -16.7312  -28.6480   23.0292 C   0  0  0  0  0  0
  -26.4558  -31.6577   25.0809 C   0  0  0  0  0  0
  -25.3707  -31.3671   26.1487 C   0  0  0  0  0  0
  -27.0523  -30.2994   24.6431 C   0  0  0  0  0  0
  -27.6104  -32.4378   25.7550 C   0  0  0  0  0  0
  -27.5560  -37.1765   24.8457 C   0  0  0  0  0  0
  -21.4325  -29.3016   22.3596 N   0  0  0  0  0  0
  -26.4273  -37.3744   23.9403 N   0  0  0  0  0  0
  -24.7232  -31.0304   22.0949 N   0  0  0  0  0  0
  -23.4265  -28.8053   23.3051 O   0  0  0  0  0  0
  -28.3154  -26.1985   20.2424 O   0  0  0  0  0  0
  -26.5648  -34.8903   22.4692 O   0  0  0  0  0  0
  -23.5584  -32.1380   23.7062 O   0  0  0  0  0  0
  -29.4874  -19.1051   19.7417 C   0  0  0  0  0  0
  -29.8407  -17.9283   20.5773 C   0  0  0  0  0  0
  -29.3433  -20.3346   20.4421 C   0  0  0  0  0  0
  -30.0337  -18.5423   21.7940 C   0  0  0  0  0  0
  -29.2945  -19.0348   18.2829 C   0  0  0  0  0  0
  -29.9283  -18.1638   17.4754 C   0  0  0  0  0  0
  -29.5352  -16.3607   20.3367 C   0  0  0  0  0  0
  -29.7550  -18.0934   15.9717 C   0  0  0  0  0  0
  -28.2138  -21.0445   23.3995 C   0  0  0  0  0  0
  -31.6158  -17.3709   23.0510 C   0  0  0  0  0  0
  -28.6973  -21.7997   20.0310 C   0  0  0  0  0  0
  -29.0652  -23.3821   20.4629 C   0  0  0  0  0  0
  -29.6513  -20.7889   22.9197 C   0  0  0  0  0  0
  -28.0923  -24.6813   20.0123 C   0  0  0  0  0  0
  -28.3182  -16.2245   20.0315 N   0  0  0  0  0  0
  -29.6905  -19.9256   21.7454 N   0  0  0  0  0  0
  -30.3258  -17.9706   22.9853 O   0  0  0  0  0  0
  -31.4749  -12.8067   19.1522 H   0  0  0  0  0  0
  -30.5033  -11.6743   20.0517 H   0  0  0  0  0  0
  -29.8623  -11.6711   17.6161 H   0  0  0  0  0  0
  -29.5664  -13.3941   17.6703 H   0  0  0  0  0  0
  -27.9902  -11.1939   19.0511 H   0  0  0  0  0  0
  -27.3899  -12.2912   17.8387 H   0  0  0  0  0  0
  -27.5430  -14.1243   19.2861 H   0  0  0  0  0  0
  -28.7715  -12.3185   21.4605 H   0  0  0  0  0  0
  -28.3467  -13.9937   21.7132 H   0  0  0  0  0  0
  -25.2760   -9.5699   22.4717 H   0  0  0  0  0  0
  -24.0008   -7.4642   22.7455 H   0  0  0  0  0  0
  -21.0817   -8.8762   19.8926 H   0  0  0  0  0  0
  -22.3676  -10.9669   19.6128 H   0  0  0  0  0  0
  -21.2073   -7.6160   23.9756 H   0  0  0  0  0  0
  -21.1417   -6.0491   25.9079 H   0  0  0  0  0  0
  -22.0635   -2.7622   23.2817 H   0  0  0  0  0  0
  -22.4066  -11.9871   22.4818 H   0  0  0  0  0  0
  -21.1112  -13.1267   22.2725 H   0  0  0  0  0  0
  -24.7053  -15.8594   20.5539 H   0  0  0  0  0  0
  -26.3542  -15.5840   20.2218 H   0  0  0  0  0  0
  -26.7345  -32.5324   23.1118 H   0  0  0  0  0  0
  -25.0116  -33.9577   25.0409 H   0  0  0  0  0  0
  -22.7585  -31.2841   21.3757 H   0  0  0  0  0  0
  -23.3750  -35.9552   23.3272 H   0  0  0  0  0  0
  -24.3532  -36.8964   22.2059 H   0  0  0  0  0  0
  -23.7253  -37.6424   23.6740 H   0  0  0  0  0  0
  -26.1679  -31.4698   20.6140 H   0  0  0  0  0  0
  -26.8764  -30.7714   22.0382 H   0  0  0  0  0  0
  -28.1454  -28.8243   21.2421 H   0  0  0  0  0  0
  -25.9695  -25.8599   18.9897 H   0  0  0  0  0  0
  -24.0058  -27.2817   18.9896 H   0  0  0  0  0  0
  -23.8175  -30.5564   19.4025 H   0  0  0  0  0  0
  -22.8010  -29.2187   19.8542 H   0  0  0  0  0  0
  -25.1271  -36.1865   25.0800 H   0  0  0  0  0  0
  -21.0014  -28.3288   24.1323 H   0  0  0  0  0  0
  -20.5636  -26.2302   23.3606 H   0  0  0  0  0  0
  -21.6637  -26.7310   22.1171 H   0  0  0  0  0  0
  -19.6841  -25.6272   21.1219 H   0  0  0  0  0  0
  -19.6656  -27.3158   20.6711 H   0  0  0  0  0  0
  -17.4187  -26.6690   21.4006 H   0  0  0  0  0  0
  -18.0278  -26.0024   22.8987 H   0  0  0  0  0  0
  -19.7957  -30.7391   24.2010 H   0  0  0  0  0  0
  -17.4981  -31.6161   24.5255 H   0  0  0  0  0  0
  -15.5340  -30.2826   23.7728 H   0  0  0  0  0  0
  -15.8750  -28.0796   22.6921 H   0  0  0  0  0  0
  -24.5886  -30.7055   25.7764 H   0  0  0  0  0  0
  -24.8843  -32.2768   26.4988 H   0  0  0  0  0  0
  -25.7946  -30.8782   27.0261 H   0  0  0  0  0  0
  -26.3217  -29.6611   24.1457 H   0  0  0  0  0  0
  -27.4183  -29.7408   25.5053 H   0  0  0  0  0  0
  -27.9081  -30.4295   23.9805 H   0  0  0  0  0  0
  -27.2784  -33.3781   26.1963 H   0  0  0  0  0  0
  -28.3963  -32.6795   25.0376 H   0  0  0  0  0  0
  -28.0741  -31.8625   26.5573 H   0  0  0  0  0  0
  -28.2546  -38.0081   24.7553 H   0  0  0  0  0  0
  -28.1109  -36.2631   24.6264 H   0  0  0  0  0  0
  -27.2260  -37.1397   25.8848 H   0  0  0  0  0  0
  -20.9569  -29.8827   21.6832 H   0  0  0  0  0  0
  -26.0136  -38.2806   24.1428 H   0  0  0  0  0  0
  -28.5922  -19.7313   17.8477 H   0  0  0  0  0  0
  -30.6286  -17.4495   17.8887 H   0  0  0  0  0  0
  -29.1299  -18.9017   15.5903 H   0  0  0  0  0  0
  -29.2993  -17.1432   15.6938 H   0  0  0  0  0  0
  -30.7258  -18.1601   15.4770 H   0  0  0  0  0  0
  -28.2169  -21.5686   24.3561 H   0  0  0  0  0  0
  -27.6646  -20.1116   23.5324 H   0  0  0  0  0  0
  -27.6507  -21.6588   22.6966 H   0  0  0  0  0  0
  -31.7173  -16.7842   23.9634 H   0  0  0  0  0  0
  -32.3952  -18.1333   23.0514 H   0  0  0  0  0  0
  -31.8096  -16.6992   22.2167 H   0  0  0  0  0  0
  -27.6366  -21.7113   20.2647 H   0  0  0  0  0  0
  -28.6932  -21.8274   18.9420 H   0  0  0  0  0  0
  -30.0717  -23.5897   20.0985 H   0  0  0  0  0  0
  -29.1496  -23.4235   21.5487 H   0  0  0  0  0  0
  -30.2257  -20.3287   23.7251 H   0  0  0  0  0  0
  -30.1575  -21.7277   22.6947 H   0  0  0  0  0  0
  -27.1131  -24.4580   20.4377 H   0  0  0  0  0  0
  -27.9576  -24.5884   18.9333 H   0  0  0  0  0  0
  -27.8663  -17.1304   20.0070 H   0  0  0  0  0  0
  1 25  1  0  0  0
  1 30  2  0  0  0
  1 77  1  0  0  0
  2  3  1  0  0  0
  2 25  1  0  0  0
  2 88  1  0  0  0
  2 89  1  0  0  0
  3  4  1  0  0  0
  3 90  1  0  0  0
  3 91  1  0  0  0
  4  5  1  0  0  0
  4 92  1  0  0  0
  4 93  1  0  0  0
  5  6  1  0  0  0
  5 26  1  0  0  0
  5 94  1  0  0  0
  6 25  1  0  0  0
  6 95  1  0  0  0
  6 96  1  0  0  0
  7  8  2  0  0  0
  7 26  1  0  0  0
  7 29  1  0  0  0
  8  9  1  0  0  0
  8 22  1  0  0  0
  9 10  1  0  0  0
  9 27  2  0  0  0
 10 11  2  0  0  0
 10 15  1  0  0  0
 11 12  1  0  0  0
 11 97  1  0  0  0
 12 13  2  0  0  0
 12 98  1  0  0  0
 13 14  1  0  0  0
 13 31  1  0  0  0
 14 15  2  0  0  0
 14 99  1  0  0  0
 15100  1  0  0  0
 16 17  2  0  0  0
 16 21  1  0  0  0
 16 31  1  0  0  0
 17 18  1  0  0  0
 17101  1  0  0  0
 18 19  2  0  0  0
 18102  1  0  0  0
 19 20  1  0  0  0
 19 24  1  0  0  0
 20 21  2  0  0  0
 20103  1  0  0  0
 21 23  1  0  0  0
 22 28  1  0  0  0
 22 32  2  0  0  0
 26 27  1  0  0  0
 28104  1  0  0  0
 28105  1  0  0  0
 29106  1  0  0  0
 29107  1  0  0  0
 33 34  1  0  0  0
 33 66  1  0  0  0
 33 70  2  0  0  0
 34 36  1  0  0  0
 34 59  1  0  0  0
 34108  1  0  0  0
 35 44  2  0  0  0
 35 45  1  0  0  0
 35 68  1  0  0  0
 36 56  1  0  0  0
 36109  1  0  0  0
 37 39  1  0  0  0
 37 47  1  0  0  0
 37 66  1  0  0  0
 37110  1  0  0  0
 38 43  2  0  0  0
 38 46  1  0  0  0
 38 47  1  0  0  0
 39 64  1  0  0  0
 39 67  2  0  0  0
 40 52  1  0  0  0
 40 53  2  0  0  0
 40 58  1  0  0  0
 41111  1  0  0  0
 41112  1  0  0  0
 41113  1  0  0  0
 41 48  1  0  0  0
 42 43  1  0  0  0
 42 66  1  0  0  0
 42114  1  0  0  0
 42115  1  0  0  0
 43 44  1  0  0  0
 44116  1  0  0  0
 45 46  2  0  0  0
 45117  1  0  0  0
 46118  1  0  0  0
 47119  1  0  0  0
 47120  1  0  0  0
 48 56  1  0  0  0
 48 65  1  0  0  0
 48121  1  0  0  0
 49 50  1  0  0  0
 49 53  1  0  0  0
 49 64  1  0  0  0
 49122  1  0  0  0
 50 51  1  0  0  0
 50123  1  0  0  0
 50124  1  0  0  0
 51 52  1  0  0  0
 51125  1  0  0  0
 51126  1  0  0  0
 52127  1  0  0  0
 52128  1  0  0  0
 53 54  1  0  0  0
 54 55  2  0  0  0
 54129  1  0  0  0
 55 57  1  0  0  0
 55130  1  0  0  0
 56 69  2  0  0  0
 57 58  2  0  0  0
 57131  1  0  0  0
 58132  1  0  0  0
 59 60  1  0  0  0
 59 61  1  0  0  0
 59 62  1  0  0  0
 60133  1  0  0  0
 60134  1  0  0  0
 60135  1  0  0  0
 61136  1  0  0  0
 61137  1  0  0  0
 61138  1  0  0  0
 62139  1  0  0  0
 62140  1  0  0  0
 62141  1  0  0  0
 63 65  1  0  0  0
 63142  1  0  0  0
 63143  1  0  0  0
 63144  1  0  0  0
 64145  1  0  0  0
 65146  1  0  0  0
 68 84  1  0  0  0
 71 72  1  0  0  0
 71 73  2  0  0  0
 71 75  1  0  0  0
 72 74  2  0  0  0
 72 77  1  0  0  0
 73 81  1  0  0  0
 73 86  1  0  0  0
 74 86  1  0  0  0
 74 87  1  0  0  0
 75 76  2  0  0  0
 75147  1  0  0  0
 76 78  1  0  0  0
 76148  1  0  0  0
 77 85  2  0  0  0
 78149  1  0  0  0
 78150  1  0  0  0
 78151  1  0  0  0
 79 83  1  0  0  0
 79152  1  0  0  0
 79153  1  0  0  0
 79154  1  0  0  0
 80 87  1  0  0  0
 80155  1  0  0  0
 80156  1  0  0  0
 80157  1  0  0  0
 81 82  1  0  0  0
 81158  1  0  0  0
 81159  1  0  0  0
 82 84  1  0  0  0
 82160  1  0  0  0
 82161  1  0  0  0
 83 86  1  0  0  0
 83162  1  0  0  0
 83163  1  0  0  0
 84164  1  0  0  0
 84165  1  0  0  0
 85166  1  0  0  0
M  ISO  4   1 100  68 101  77 100  84 101
M  END
> <chiral flag>
0

> <version>
0

> <s_m_source_file>
/data/baiqing/PycharmProjects/Reinvent-master-3.2/result/LINK_invent/BTK/process_docking_weight1_custom_product_contain_oxygen_bond_distance_aromatic_linkinvent_7_9_3/rearranged_h_0113.sdf

> <i_m_source_file_index>
85

> <r_mmod_Potential_Energy-OPLS-2005>
745.786193847656

> <r_mmod_Stretch_Energy-OPLS-2005>
267.488067626953

> <r_mmod_Bend_Energy-OPLS-2005>
287.044830322266

> <r_mmod_Torsional_Energy-OPLS-2005>
278.695983886719

> <r_mmod_Improper_Torsional_Energy-OPLS-2005>
15.28138256073

> <r_mmod_Van_der_Waal_Energy-OPLS-2005>
115.696128845215

> <r_mmod_Electrostatic_Energy-OPLS-2005>
-243.698699951172

> <r_mmod_Solvation_Energy-OPLS-2005>
-180.620025634766

> <b_mmod_Minimization_Converged-OPLS-2005>
0

> <r_mmod_RMS_Derivative-OPLS-2005>
4.63949632644653

$$$$
85
                    3D
 Structure written by MMmdl.
157165  0  0  1  0            999 V2000
  -30.6094  -14.8489   20.3279 C   0  0  0  0  0  0
  -30.4334  -12.5090   19.4455 C   0  0  0  0  0  0
  -29.4946  -12.4519   18.2220 C   0  0  0  0  0  0
  -28.0299  -12.2738   18.6647 C   0  0  0  0  0  0
  -27.6255  -13.2196   19.8247 C   0  0  2  0  0  0
  -28.6893  -13.2746   20.9360 C   0  0  0  0  0  0
  -25.2453  -13.8078   20.5931 C   0  0  0  0  0  0
  -24.1752  -13.0325   20.9335 C   0  0  0  0  0  0
  -24.6367  -11.6833   20.8799 C   0  0  0  0  0  0
  -23.9057  -10.4235   21.0422 C   0  0  0  0  0  0
  -24.3615   -9.4161   21.9195 C   0  0  0  0  0  0
  -23.6284   -8.2210   22.0759 C   0  0  0  0  0  0
  -22.4265   -8.0268   21.3546 C   0  0  0  0  0  0
  -21.9900   -9.0240   20.4643 C   0  0  0  0  0  0
  -22.7238  -10.2107   20.3053 C   0  0  0  0  0  0
  -21.6854   -6.0730   22.5282 C   0  0  0  0  0  0
  -21.4019   -6.5637   23.8215 C   0  0  0  0  0  0
  -21.3648   -5.6790   24.9174 C   0  0  0  0  0  0
  -21.6038   -4.3055   24.7224 C   0  0  0  0  0  0
  -21.8821   -3.8145   23.4349 C   0  0  0  0  0  0
  -21.9192   -4.6959   22.3404 C   0  0  0  0  0  0
  -22.7768  -13.5127   21.1934 C   0  0  0  0  0  0
  -22.1663   -4.2147   21.0980 F   0  0  0  0  0  0
  -21.5616   -3.4537   25.7735 F   0  0  0  0  0  0
  -29.9653  -13.6232   20.2981 N   0  0  0  0  0  0
  -26.2875  -12.9324   20.3293 N   0  0  0  0  0  0
  -25.9288  -11.6467   20.5770 N   0  0  0  0  0  0
  -22.0403  -12.8137   22.0483 N   0  0  0  0  0  0
  -25.3917  -15.1798   20.4659 N   0  0  0  0  0  0
  -31.8432  -14.8440   20.3807 O   0  0  0  0  0  0
  -21.6627   -6.8874   21.4246 O   0  0  0  0  0  0
  -22.3462  -14.5423   20.6740 O   0  0  0  0  0  0
  -24.6323  -31.8526   23.1943 C   0  0  0  0  0  0
  -25.9149  -32.4735   23.8294 C   0  0  1  0  0  0
  -27.2338  -27.2491   20.1212 C   0  0  0  0  0  0
  -25.5937  -33.8536   24.2224 N   0  0  0  0  0  0
  -23.4290  -30.4727   21.5375 C   0  0  2  0  0  0
  -24.8779  -28.9100   20.1083 C   0  0  0  0  0  0
  -22.7505  -29.4600   22.4904 C   0  0  0  0  0  0
  -18.0294  -28.1396   22.8487 C   0  0  0  0  0  0
  -24.1488  -36.7269   23.2637 C   0  0  0  0  0  0
  -25.9740  -30.7596   21.3758 C   0  0  0  0  0  0
  -26.0473  -29.3796   20.7178 C   0  0  0  0  0  0
  -27.2219  -28.5598   20.7144 C   0  0  0  0  0  0
  -26.0362  -26.8409   19.4927 C   0  0  0  0  0  0
  -24.8779  -27.6492   19.4875 C   0  0  0  0  0  0
  -23.6477  -29.7987   20.1559 C   0  0  0  0  0  0
  -25.4121  -36.3056   24.0318 C   0  0  1  0  0  0
  -20.5897  -28.3712   23.1263 C   0  0  2  0  0  0
  -20.6777  -26.9427   22.5409 C   0  0  0  0  0  0
  -19.5755  -26.6390   21.5208 C   0  0  0  0  0  0
  -18.1935  -26.7937   22.1624 C   0  0  0  0  0  0
  -19.1547  -28.8873   23.2868 C   0  0  0  0  0  0
  -18.9469  -30.1472   23.8890 C   0  0  0  0  0  0
  -17.6468  -30.6594   24.0566 C   0  0  0  0  0  0
  -25.9064  -34.9427   23.5079 C   0  0  0  0  0  0
  -16.5360  -29.9090   23.6334 C   0  0  0  0  0  0
  -16.7281  -28.6507   23.0358 C   0  0  0  0  0  0
  -26.4509  -31.6574   25.0697 C   0  0  0  0  0  0
  -25.3716  -31.3734   26.1406 C   0  0  0  0  0  0
  -27.0369  -30.2987   24.6214 C   0  0  0  0  0  0
  -27.6059  -32.4323   25.7479 C   0  0  0  0  0  0
  -27.5579  -37.1790   24.8467 C   0  0  0  0  0  0
  -21.4212  -29.3046   22.3643 N   0  0  0  0  0  0
  -26.4291  -37.3763   23.9405 N   0  0  0  0  0  0
  -24.6973  -31.0477   22.0920 N   0  0  0  0  0  0
  -23.4196  -28.8163   23.3023 O   0  0  0  0  0  0
  -28.3565  -26.3865   20.2131 O   0  0  0  0  0  0
  -26.5643  -34.8919   22.4651 O   0  0  0  0  0  0
  -23.5476  -32.1372   23.7230 O   0  0  0  0  0  0
  -27.9011  -19.9813   20.0083 C   0  0  0  0  0  0
  -27.2454  -18.7904   19.6777 C   0  0  0  0  0  0
  -29.3275  -17.4265   19.8208 C   0  0  0  0  0  0
  -29.2940  -20.0093   20.1761 C   0  0  0  0  0  0
  -27.9415  -17.5786   19.5024 C   0  0  0  0  0  0
  -29.9911  -18.6984   20.1364 C   0  0  0  0  0  0
  -29.6273  -22.5943   20.3323 C   0  0  0  0  0  0
  -30.0182  -16.0516   19.4137 C   0  0  0  0  0  0
  -32.2109  -19.5029   19.6994 C   0  0  0  0  0  0
  -28.3458  -23.5558   20.2252 C   0  0  0  0  0  0
  -28.5003  -25.0401   19.5445 C   0  0  0  0  0  0
  -30.1642  -15.8893   18.1594 N   0  0  0  0  0  0
  -29.9509  -21.2990   20.3453 N   0  0  0  0  0  0
  -27.2089  -16.5870   18.8537 N   0  0  0  0  0  0
  -31.3480  -18.5865   20.3592 O   0  0  0  0  0  0
  -31.4640  -12.6546   19.1172 H   0  0  0  0  0  0
  -30.4167  -11.5685   19.9984 H   0  0  0  0  0  0
  -29.7859  -11.6311   17.5652 H   0  0  0  0  0  0
  -29.5906  -13.3595   17.6277 H   0  0  0  0  0  0
  -27.9149  -11.2369   18.9821 H   0  0  0  0  0  0
  -27.3580  -12.4092   17.8163 H   0  0  0  0  0  0
  -27.5842  -14.2042   19.3808 H   0  0  0  0  0  0
  -28.7623  -12.3224   21.4635 H   0  0  0  0  0  0
  -28.4228  -14.0294   21.6785 H   0  0  0  0  0  0
  -25.2760   -9.5641   22.4770 H   0  0  0  0  0  0
  -23.9988   -7.4598   22.7477 H   0  0  0  0  0  0
  -21.0832   -8.8772   19.8951 H   0  0  0  0  0  0
  -22.3717  -10.9658   19.6169 H   0  0  0  0  0  0
  -21.2032   -7.6149   23.9718 H   0  0  0  0  0  0
  -21.1458   -6.0521   25.9074 H   0  0  0  0  0  0
  -22.0613   -2.7610   23.2849 H   0  0  0  0  0  0
  -22.4034  -11.9816   22.4889 H   0  0  0  0  0  0
  -21.1009  -13.1148   22.2670 H   0  0  0  0  0  0
  -24.6019  -15.8050   20.5682 H   0  0  0  0  0  0
  -26.1829  -15.6350   19.9927 H   0  0  0  0  0  0
  -26.7211  -32.5384   23.1027 H   0  0  0  0  0  0
  -25.0074  -33.9659   25.0366 H   0  0  0  0  0  0
  -22.7257  -31.2949   21.3878 H   0  0  0  0  0  0
  -23.3755  -35.9595   23.3302 H   0  0  0  0  0  0
  -24.3572  -36.8897   22.2051 H   0  0  0  0  0  0
  -23.7241  -37.6467   23.6671 H   0  0  0  0  0  0
  -26.1176  -31.5212   20.6083 H   0  0  0  0  0  0
  -26.8475  -30.8079   22.0135 H   0  0  0  0  0  0
  -28.1188  -28.9145   21.2040 H   0  0  0  0  0  0
  -25.9608  -25.8681   19.0317 H   0  0  0  0  0  0
  -23.9785  -27.2810   19.0121 H   0  0  0  0  0  0
  -23.7694  -30.5713   19.3957 H   0  0  0  0  0  0
  -22.7652  -29.2316   19.8552 H   0  0  0  0  0  0
  -25.1309  -36.1889   25.0812 H   0  0  0  0  0  0
  -20.9993  -28.3300   24.1386 H   0  0  0  0  0  0
  -20.5667  -26.2332   23.3623 H   0  0  0  0  0  0
  -21.6645  -26.7446   22.1213 H   0  0  0  0  0  0
  -19.6914  -25.6295   21.1253 H   0  0  0  0  0  0
  -19.6680  -27.3189   20.6725 H   0  0  0  0  0  0
  -17.4204  -26.6690   21.4029 H   0  0  0  0  0  0
  -18.0337  -26.0076   22.9017 H   0  0  0  0  0  0
  -19.7947  -30.7287   24.2254 H   0  0  0  0  0  0
  -17.5025  -31.6272   24.5171 H   0  0  0  0  0  0
  -15.5362  -30.2988   23.7660 H   0  0  0  0  0  0
  -15.8684  -28.0817   22.7081 H   0  0  0  0  0  0
  -24.5905  -30.7074   25.7721 H   0  0  0  0  0  0
  -24.8888  -32.2904   26.4795 H   0  0  0  0  0  0
  -25.8012  -30.8932   27.0206 H   0  0  0  0  0  0
  -26.2966  -29.6716   24.1234 H   0  0  0  0  0  0
  -27.4039  -29.7278   25.4753 H   0  0  0  0  0  0
  -27.8846  -30.4251   23.9475 H   0  0  0  0  0  0
  -27.2670  -33.3639   26.2023 H   0  0  0  0  0  0
  -28.3888  -32.6857   25.0317 H   0  0  0  0  0  0
  -28.0706  -31.8467   26.5421 H   0  0  0  0  0  0
  -28.2596  -38.0089   24.7521 H   0  0  0  0  0  0
  -28.1079  -36.2622   24.6291 H   0  0  0  0  0  0
  -27.2296  -37.1436   25.8870 H   0  0  0  0  0  0
  -20.9412  -29.8746   21.6822 H   0  0  0  0  0  0
  -26.0165  -38.2834   24.1415 H   0  0  0  0  0  0
  -27.3111  -20.8817   20.0683 H   0  0  0  0  0  0
  -26.1864  -18.8431   19.4653 H   0  0  0  0  0  0
  -30.4860  -23.2589   20.4614 H   0  0  0  0  0  0
  -32.4369  -20.3563   20.3394 H   0  0  0  0  0  0
  -31.8014  -19.8582   18.7524 H   0  0  0  0  0  0
  -33.1556  -19.0072   19.4771 H   0  0  0  0  0  0
  -27.9291  -23.6704   21.2255 H   0  0  0  0  0  0
  -27.5846  -23.0237   19.6579 H   0  0  0  0  0  0
  -27.9056  -25.0445   18.6315 H   0  0  0  0  0  0
  -29.5159  -25.0720   19.1500 H   0  0  0  0  0  0
  -29.7977  -16.6801   17.6438 H   0  0  0  0  0  0
  -26.3972  -16.9110   18.3365 H   0  0  0  0  0  0
  -27.7541  -15.9433   18.2875 H   0  0  0  0  0  0
  1 25  1  0  0  0
  1 30  2  0  0  0
  1 78  1  0  0  0
  2  3  1  0  0  0
  2 25  1  0  0  0
  2 86  1  0  0  0
  2 87  1  0  0  0
  3  4  1  0  0  0
  3 88  1  0  0  0
  3 89  1  0  0  0
  4  5  1  0  0  0
  4 90  1  0  0  0
  4 91  1  0  0  0
  5  6  1  0  0  0
  5 26  1  0  0  0
  5 92  1  0  0  0
  6 25  1  0  0  0
  6 93  1  0  0  0
  6 94  1  0  0  0
  7  8  2  0  0  0
  7 26  1  0  0  0
  7 29  1  0  0  0
  8  9  1  0  0  0
  8 22  1  0  0  0
  9 10  1  0  0  0
  9 27  2  0  0  0
 10 11  2  0  0  0
 10 15  1  0  0  0
 11 12  1  0  0  0
 11 95  1  0  0  0
 12 13  2  0  0  0
 12 96  1  0  0  0
 13 14  1  0  0  0
 13 31  1  0  0  0
 14 15  2  0  0  0
 14 97  1  0  0  0
 15 98  1  0  0  0
 16 17  2  0  0  0
 16 21  1  0  0  0
 16 31  1  0  0  0
 17 18  1  0  0  0
 17 99  1  0  0  0
 18 19  2  0  0  0
 18100  1  0  0  0
 19 20  1  0  0  0
 19 24  1  0  0  0
 20 21  2  0  0  0
 20101  1  0  0  0
 21 23  1  0  0  0
 22 28  1  0  0  0
 22 32  2  0  0  0
 26 27  1  0  0  0
 28102  1  0  0  0
 28103  1  0  0  0
 29104  1  0  0  0
 29105  1  0  0  0
 33 34  1  0  0  0
 33 66  1  0  0  0
 33 70  2  0  0  0
 34 36  1  0  0  0
 34 59  1  0  0  0
 34106  1  0  0  0
 35 44  2  0  0  0
 35 45  1  0  0  0
 35 68  1  0  0  0
 36 56  1  0  0  0
 36107  1  0  0  0
 37 39  1  0  0  0
 37 47  1  0  0  0
 37 66  1  0  0  0
 37108  1  0  0  0
 38 43  2  0  0  0
 38 46  1  0  0  0
 38 47  1  0  0  0
 39 64  1  0  0  0
 39 67  2  0  0  0
 40 52  1  0  0  0
 40 53  2  0  0  0
 40 58  1  0  0  0
 41109  1  0  0  0
 41110  1  0  0  0
 41111  1  0  0  0
 41 48  1  0  0  0
 42 43  1  0  0  0
 42 66  1  0  0  0
 42112  1  0  0  0
 42113  1  0  0  0
 43 44  1  0  0  0
 44114  1  0  0  0
 45 46  2  0  0  0
 45115  1  0  0  0
 46116  1  0  0  0
 47117  1  0  0  0
 47118  1  0  0  0
 48 56  1  0  0  0
 48 65  1  0  0  0
 48119  1  0  0  0
 49 50  1  0  0  0
 49 53  1  0  0  0
 49 64  1  0  0  0
 49120  1  0  0  0
 50 51  1  0  0  0
 50121  1  0  0  0
 50122  1  0  0  0
 51 52  1  0  0  0
 51123  1  0  0  0
 51124  1  0  0  0
 52125  1  0  0  0
 52126  1  0  0  0
 53 54  1  0  0  0
 54 55  2  0  0  0
 54127  1  0  0  0
 55 57  1  0  0  0
 55128  1  0  0  0
 56 69  2  0  0  0
 57 58  2  0  0  0
 57129  1  0  0  0
 58130  1  0  0  0
 59 60  1  0  0  0
 59 61  1  0  0  0
 59 62  1  0  0  0
 60131  1  0  0  0
 60132  1  0  0  0
 60133  1  0  0  0
 61134  1  0  0  0
 61135  1  0  0  0
 61136  1  0  0  0
 62137  1  0  0  0
 62138  1  0  0  0
 62139  1  0  0  0
 63 65  1  0  0  0
 63140  1  0  0  0
 63141  1  0  0  0
 63142  1  0  0  0
 64143  1  0  0  0
 65144  1  0  0  0
 68 81  1  0  0  0
 71 72  2  0  0  0
 71 74  1  0  0  0
 71145  1  0  0  0
 72 75  1  0  0  0
 72146  1  0  0  0
 73 75  2  0  0  0
 73 76  1  0  0  0
 73 78  1  0  0  0
 74 76  2  0  0  0
 74 83  1  0  0  0
 75 84  1  0  0  0
 76 85  1  0  0  0
 77 80  1  0  0  0
 77 83  2  0  0  0
 77147  1  0  0  0
 78 82  2  0  0  0
 79 85  1  0  0  0
 79148  1  0  0  0
 79149  1  0  0  0
 79150  1  0  0  0
 80 81  1  0  0  0
 80151  1  0  0  0
 80152  1  0  0  0
 81153  1  0  0  0
 81154  1  0  0  0
 82155  1  0  0  0
 84156  1  0  0  0
 84157  1  0  0  0
M  ISO  4   1 100  68 101  78 100  81 101
M  END
> <chiral flag>
0

> <version>
0

> <s_m_source_file>
/data/baiqing/PycharmProjects/Reinvent-master-3.2/result/LINK_invent/BTK/process_docking_weight1_custom_product_contain_oxygen_bond_distance_aromatic_linkinvent_7_9_3/rearranged_h_0113.sdf

> <i_m_source_file_index>
86

> <r_mmod_Potential_Energy-OPLS-2005>
689.703247070312

> <r_mmod_Stretch_Energy-OPLS-2005>
171.764495849609

> <r_mmod_Bend_Energy-OPLS-2005>
307.869354248047

> <r_mmod_Torsional_Energy-OPLS-2005>
316.318359375

> <r_mmod_Improper_Torsional_Energy-OPLS-2005>
43.1959114074707

> <r_mmod_Van_der_Waal_Energy-OPLS-2005>
152.423858642578

> <r_mmod_Electrostatic_Energy-OPLS-2005>
-221.265182495117

> <r_mmod_Solvation_Energy-OPLS-2005>
-215.298400878906

> <b_mmod_Minimization_Converged-OPLS-2005>
0

> <r_mmod_RMS_Derivative-OPLS-2005>
1.20397531986237

$$$$
86
                    3D
 Structure written by MMmdl.
147155  0  0  1  0            999 V2000
  -30.3658  -15.4103   20.2202 C   0  0  0  0  0  0
  -30.4264  -12.8843   19.5348 C   0  0  0  0  0  0
  -29.5417  -12.5977   18.2961 C   0  0  0  0  0  0
  -28.0927  -12.3130   18.7244 C   0  0  0  0  0  0
  -27.5978  -13.2995   19.8134 C   0  0  2  0  0  0
  -28.6292  -13.5450   20.9308 C   0  0  0  0  0  0
  -25.2330  -13.8312   20.5764 C   0  0  0  0  0  0
  -24.1694  -13.0437   20.9201 C   0  0  0  0  0  0
  -24.6408  -11.6949   20.8688 C   0  0  0  0  0  0
  -23.9139  -10.4306   21.0368 C   0  0  0  0  0  0
  -24.3691   -9.4228   21.9150 C   0  0  0  0  0  0
  -23.6330   -8.2278   22.0720 C   0  0  0  0  0  0
  -22.4319   -8.0293   21.3521 C   0  0  0  0  0  0
  -21.9931   -9.0269   20.4647 C   0  0  0  0  0  0
  -22.7259  -10.2167   20.3097 C   0  0  0  0  0  0
  -21.6855   -6.0747   22.5287 C   0  0  0  0  0  0
  -21.4035   -6.5667   23.8217 C   0  0  0  0  0  0
  -21.3647   -5.6821   24.9180 C   0  0  0  0  0  0
  -21.6038   -4.3074   24.7248 C   0  0  0  0  0  0
  -21.8782   -3.8161   23.4368 C   0  0  0  0  0  0
  -21.9192   -4.6979   22.3434 C   0  0  0  0  0  0
  -22.7736  -13.5159   21.1870 C   0  0  0  0  0  0
  -22.1682   -4.2165   21.1016 F   0  0  0  0  0  0
  -21.5621   -3.4548   25.7764 F   0  0  0  0  0  0
  -29.8386  -14.0711   20.2759 N   0  0  0  0  0  0
  -26.2749  -12.9634   20.3244 N   0  0  0  0  0  0
  -25.9357  -11.6728   20.5702 N   0  0  0  0  0  0
  -22.0366  -12.8132   22.0370 N   0  0  0  0  0  0
  -25.3967  -15.2059   20.4320 N   0  0  0  0  0  0
  -31.5959  -15.3754   20.0627 O   0  0  0  0  0  0
  -21.6665   -6.8896   21.4251 O   0  0  0  0  0  0
  -22.3384  -14.5489   20.6716 O   0  0  0  0  0  0
  -24.6794  -31.8072   23.1631 C   0  0  0  0  0  0
  -25.9375  -32.4488   23.8173 C   0  0  1  0  0  0
  -27.2066  -26.8219   20.1574 C   0  0  0  0  0  0
  -25.5969  -33.8337   24.2014 N   0  0  0  0  0  0
  -23.4917  -30.4241   21.5136 C   0  0  2  0  0  0
  -24.9419  -28.7944   20.1104 C   0  0  0  0  0  0
  -22.7711  -29.4405   22.4737 C   0  0  0  0  0  0
  -18.0323  -28.1397   22.8478 C   0  0  0  0  0  0
  -24.1516  -36.7220   23.2669 C   0  0  0  0  0  0
  -26.0702  -30.5748   21.4121 C   0  0  0  0  0  0
  -26.1315  -29.1586   20.7505 C   0  0  0  0  0  0
  -27.2553  -28.1995   20.7453 C   0  0  0  0  0  0
  -25.9790  -26.6317   19.4793 C   0  0  0  0  0  0
  -24.8974  -27.5560   19.4511 C   0  0  0  0  0  0
  -23.7323  -29.7390   20.1424 C   0  0  0  0  0  0
  -25.4165  -36.2945   24.0302 C   0  0  1  0  0  0
  -20.5967  -28.3760   23.1177 C   0  0  2  0  0  0
  -20.6819  -26.9445   22.5410 C   0  0  0  0  0  0
  -19.5798  -26.6384   21.5204 C   0  0  0  0  0  0
  -18.1976  -26.7930   22.1633 C   0  0  0  0  0  0
  -19.1576  -28.8913   23.2789 C   0  0  0  0  0  0
  -18.9499  -30.1507   23.8833 C   0  0  0  0  0  0
  -17.6478  -30.6578   24.0574 C   0  0  0  0  0  0
  -25.9113  -34.9304   23.4982 C   0  0  0  0  0  0
  -16.5367  -29.9079   23.6340 C   0  0  0  0  0  0
  -16.7303  -28.6501   23.0363 C   0  0  0  0  0  0
  -26.4587  -31.6491   25.0735 C   0  0  0  0  0  0
  -25.3663  -31.3777   26.1330 C   0  0  0  0  0  0
  -27.0515  -30.2873   24.6537 C   0  0  0  0  0  0
  -27.6013  -32.4382   25.7516 C   0  0  0  0  0  0
  -27.5573  -37.1817   24.8487 C   0  0  0  0  0  0
  -21.4367  -29.3010   22.3493 N   0  0  0  0  0  0
  -26.4316  -37.3692   23.9369 N   0  0  0  0  0  0
  -24.7699  -30.9687   22.0793 N   0  0  0  0  0  0
  -23.4228  -28.7976   23.3001 O   0  0  0  0  0  0
  -28.1818  -25.6577   20.1659 O   0  0  0  0  0  0
  -26.5773  -34.8839   22.4591 O   0  0  0  0  0  0
  -23.5841  -32.1107   23.6629 O   0  0  0  0  0  0
  -30.2049  -17.8453   18.1452 C   0  0  0  0  0  0
  -29.6947  -18.1924   19.4526 C   0  0  0  0  0  0
  -30.2333  -18.8284   17.2084 C   0  0  0  0  0  0
  -29.3367  -19.7270   19.4736 C   0  0  0  0  0  0
  -28.7903  -22.4300   19.8531 C   0  0  0  0  0  0
  -30.5518  -18.7128   15.7550 C   0  0  0  0  0  0
  -27.8474  -23.9902   20.1362 C   0  0  0  0  0  0
  -28.6944  -21.0022   20.1245 N   0  0  0  0  0  0
  -29.5967  -16.7263   20.2181 N   0  0  0  0  0  0
  -29.7695  -20.3317   17.8626 S   0  0  0  0  0  0
  -31.4542  -13.0677   19.2165 H   0  0  0  0  0  0
  -30.4764  -12.0017   20.1767 H   0  0  0  0  0  0
  -29.9406  -11.7675   17.7094 H   0  0  0  0  0  0
  -29.5703  -13.4704   17.6407 H   0  0  0  0  0  0
  -28.0566  -11.2919   19.1092 H   0  0  0  0  0  0
  -27.4281  -12.3507   17.8642 H   0  0  0  0  0  0
  -27.4834  -14.2540   19.2987 H   0  0  0  0  0  0
  -28.8233  -12.6400   21.5025 H   0  0  0  0  0  0
  -28.2588  -14.2856   21.6414 H   0  0  0  0  0  0
  -25.2882   -9.5646   22.4656 H   0  0  0  0  0  0
  -23.9996   -7.4703   22.7460 H   0  0  0  0  0  0
  -21.0819   -8.8805   19.8968 H   0  0  0  0  0  0
  -22.3715  -10.9683   19.6159 H   0  0  0  0  0  0
  -21.2060   -7.6184   23.9699 H   0  0  0  0  0  0
  -21.1513   -6.0578   25.9071 H   0  0  0  0  0  0
  -22.0584   -2.7641   23.2875 H   0  0  0  0  0  0
  -22.4064  -11.9769   22.4711 H   0  0  0  0  0  0
  -21.0931  -13.1092   22.2484 H   0  0  0  0  0  0
  -24.6211  -15.8476   20.5576 H   0  0  0  0  0  0
  -26.2473  -15.6623   20.1221 H   0  0  0  0  0  0
  -26.7410  -32.4994   23.0837 H   0  0  0  0  0  0
  -24.9971  -33.9435   25.0072 H   0  0  0  0  0  0
  -22.8097  -31.2573   21.3449 H   0  0  0  0  0  0
  -23.3751  -35.9586   23.3332 H   0  0  0  0  0  0
  -24.3561  -36.8873   22.2091 H   0  0  0  0  0  0
  -23.7323  -37.6429   23.6717 H   0  0  0  0  0  0
  -26.2692  -31.3107   20.6337 H   0  0  0  0  0  0
  -26.9251  -30.6289   22.0731 H   0  0  0  0  0  0
  -28.1577  -28.4876   21.2660 H   0  0  0  0  0  0
  -25.8182  -25.6958   18.9677 H   0  0  0  0  0  0
  -23.9994  -27.2723   18.9230 H   0  0  0  0  0  0
  -23.8976  -30.5101   19.3888 H   0  0  0  0  0  0
  -22.8360  -29.2015   19.8232 H   0  0  0  0  0  0
  -25.1384  -36.1739   25.0827 H   0  0  0  0  0  0
  -21.0028  -28.3359   24.1298 H   0  0  0  0  0  0
  -20.5704  -26.2376   23.3676 H   0  0  0  0  0  0
  -21.6692  -26.7413   22.1210 H   0  0  0  0  0  0
  -19.6937  -25.6262   21.1302 H   0  0  0  0  0  0
  -19.6714  -27.3166   20.6719 H   0  0  0  0  0  0
  -17.4244  -26.6677   21.4027 H   0  0  0  0  0  0
  -18.0334  -26.0067   22.9049 H   0  0  0  0  0  0
  -19.7973  -30.7348   24.2167 H   0  0  0  0  0  0
  -17.5028  -31.6259   24.5180 H   0  0  0  0  0  0
  -15.5360  -30.2962   23.7704 H   0  0  0  0  0  0
  -15.8728  -28.0817   22.7089 H   0  0  0  0  0  0
  -24.5766  -30.7219   25.7602 H   0  0  0  0  0  0
  -24.8962  -32.3018   26.4731 H   0  0  0  0  0  0
  -25.7848  -30.8910   27.0139 H   0  0  0  0  0  0
  -26.3204  -29.6484   24.1554 H   0  0  0  0  0  0
  -27.4008  -29.7291   25.5228 H   0  0  0  0  0  0
  -27.9166  -30.4056   23.9997 H   0  0  0  0  0  0
  -27.2462  -33.3656   26.2023 H   0  0  0  0  0  0
  -28.3827  -32.7021   25.0369 H   0  0  0  0  0  0
  -28.0668  -31.8603   26.5499 H   0  0  0  0  0  0
  -28.2673  -38.0035   24.7369 H   0  0  0  0  0  0
  -28.0990  -36.2548   24.6507 H   0  0  0  0  0  0
  -27.2250  -37.1681   25.8889 H   0  0  0  0  0  0
  -20.9631  -29.8696   21.6655 H   0  0  0  0  0  0
  -26.0150  -38.2790   24.1200 H   0  0  0  0  0  0
  -30.4770  -16.8387   17.8594 H   0  0  0  0  0  0
  -29.6351  -22.7136   19.2216 H   0  0  0  0  0  0
  -31.2738  -17.9166   15.5714 H   0  0  0  0  0  0
  -30.9618  -19.6520   15.3772 H   0  0  0  0  0  0
  -29.6412  -18.4894   15.1922 H   0  0  0  0  0  0
  -27.2828  -23.8131   21.0495 H   0  0  0  0  0  0
  -27.0952  -23.9292   19.3478 H   0  0  0  0  0  0
  -28.6390  -16.5483   20.4858 H   0  0  0  0  0  0
  1 25  1  0  0  0
  1 30  2  0  0  0
  1 79  1  0  0  0
  2  3  1  0  0  0
  2 25  1  0  0  0
  2 81  1  0  0  0
  2 82  1  0  0  0
  3  4  1  0  0  0
  3 83  1  0  0  0
  3 84  1  0  0  0
  4  5  1  0  0  0
  4 85  1  0  0  0
  4 86  1  0  0  0
  5  6  1  0  0  0
  5 26  1  0  0  0
  5 87  1  0  0  0
  6 25  1  0  0  0
  6 88  1  0  0  0
  6 89  1  0  0  0
  7  8  2  0  0  0
  7 26  1  0  0  0
  7 29  1  0  0  0
  8  9  1  0  0  0
  8 22  1  0  0  0
  9 10  1  0  0  0
  9 27  2  0  0  0
 10 11  2  0  0  0
 10 15  1  0  0  0
 11 12  1  0  0  0
 11 90  1  0  0  0
 12 13  2  0  0  0
 12 91  1  0  0  0
 13 14  1  0  0  0
 13 31  1  0  0  0
 14 15  2  0  0  0
 14 92  1  0  0  0
 15 93  1  0  0  0
 16 17  2  0  0  0
 16 21  1  0  0  0
 16 31  1  0  0  0
 17 18  1  0  0  0
 17 94  1  0  0  0
 18 19  2  0  0  0
 18 95  1  0  0  0
 19 20  1  0  0  0
 19 24  1  0  0  0
 20 21  2  0  0  0
 20 96  1  0  0  0
 21 23  1  0  0  0
 22 28  1  0  0  0
 22 32  2  0  0  0
 26 27  1  0  0  0
 28 97  1  0  0  0
 28 98  1  0  0  0
 29 99  1  0  0  0
 29100  1  0  0  0
 33 34  1  0  0  0
 33 66  1  0  0  0
 33 70  2  0  0  0
 34 36  1  0  0  0
 34 59  1  0  0  0
 34101  1  0  0  0
 35 44  2  0  0  0
 35 45  1  0  0  0
 35 68  1  0  0  0
 36 56  1  0  0  0
 36102  1  0  0  0
 37 39  1  0  0  0
 37 47  1  0  0  0
 37 66  1  0  0  0
 37103  1  0  0  0
 38 43  2  0  0  0
 38 46  1  0  0  0
 38 47  1  0  0  0
 39 64  1  0  0  0
 39 67  2  0  0  0
 40 52  1  0  0  0
 40 53  2  0  0  0
 40 58  1  0  0  0
 41104  1  0  0  0
 41105  1  0  0  0
 41106  1  0  0  0
 41 48  1  0  0  0
 42 43  1  0  0  0
 42 66  1  0  0  0
 42107  1  0  0  0
 42108  1  0  0  0
 43 44  1  0  0  0
 44109  1  0  0  0
 45 46  2  0  0  0
 45110  1  0  0  0
 46111  1  0  0  0
 47112  1  0  0  0
 47113  1  0  0  0
 48 56  1  0  0  0
 48 65  1  0  0  0
 48114  1  0  0  0
 49 50  1  0  0  0
 49 53  1  0  0  0
 49 64  1  0  0  0
 49115  1  0  0  0
 50 51  1  0  0  0
 50116  1  0  0  0
 50117  1  0  0  0
 51 52  1  0  0  0
 51118  1  0  0  0
 51119  1  0  0  0
 52120  1  0  0  0
 52121  1  0  0  0
 53 54  1  0  0  0
 54 55  2  0  0  0
 54122  1  0  0  0
 55 57  1  0  0  0
 55123  1  0  0  0
 56 69  2  0  0  0
 57 58  2  0  0  0
 57124  1  0  0  0
 58125  1  0  0  0
 59 60  1  0  0  0
 59 61  1  0  0  0
 59 62  1  0  0  0
 60126  1  0  0  0
 60127  1  0  0  0
 60128  1  0  0  0
 61129  1  0  0  0
 61130  1  0  0  0
 61131  1  0  0  0
 62132  1  0  0  0
 62133  1  0  0  0
 62134  1  0  0  0
 63 65  1  0  0  0
 63135  1  0  0  0
 63136  1  0  0  0
 63137  1  0  0  0
 64138  1  0  0  0
 65139  1  0  0  0
 68 77  1  0  0  0
 71 72  1  0  0  0
 71 73  2  0  0  0
 71140  1  0  0  0
 72 74  2  0  0  0
 72 79  1  0  0  0
 73 76  1  0  0  0
 73 80  1  0  0  0
 74 78  1  0  0  0
 74 80  1  0  0  0
 75 77  1  0  0  0
 75 78  2  0  0  0
 75141  1  0  0  0
 76142  1  0  0  0
 76143  1  0  0  0
 76144  1  0  0  0
 77145  1  0  0  0
 77146  1  0  0  0
 79147  1  0  0  0
M  ISO  4   1 100  68 101  77 101  79 100
M  END
> <chiral flag>
0

> <version>
0

> <s_m_source_file>
/data/baiqing/PycharmProjects/Reinvent-master-3.2/result/LINK_invent/BTK/process_docking_weight1_custom_product_contain_oxygen_bond_distance_aromatic_linkinvent_7_9_3/rearranged_h_0113.sdf

> <i_m_source_file_index>
87

> <r_mmod_Potential_Energy-OPLS-2005>
1801.18444824219

> <r_mmod_Stretch_Energy-OPLS-2005>
810.477783203125

> <r_mmod_Bend_Energy-OPLS-2005>
577.42578125

> <r_mmod_Torsional_Energy-OPLS-2005>
253.851791381836

> <r_mmod_Improper_Torsional_Energy-OPLS-2005>
5.65218782424927

> <r_mmod_Van_der_Waal_Energy-OPLS-2005>
120.521842956543

> <r_mmod_Electrostatic_Energy-OPLS-2005>
-374.396789550781

> <r_mmod_Solvation_Energy-OPLS-2005>
-224.170867919922

> <b_mmod_Minimization_Converged-OPLS-2005>
0

> <r_mmod_RMS_Derivative-OPLS-2005>
9.23813629150391

$$$$
87
                    3D
 Structure written by MMmdl.
156164  0  0  1  0            999 V2000
  -30.5902  -14.7938   20.4252 C   0  0  0  0  0  0
  -30.4362  -12.4810   19.4842 C   0  0  0  0  0  0
  -29.5148  -12.5052   18.2434 C   0  0  0  0  0  0
  -28.0416  -12.3254   18.6565 C   0  0  0  0  0  0
  -27.6400  -13.2360   19.8474 C   0  0  2  0  0  0
  -28.6837  -13.1947   20.9848 C   0  0  0  0  0  0
  -25.2506  -13.8206   20.5699 C   0  0  0  0  0  0
  -24.1802  -13.0444   20.9212 C   0  0  0  0  0  0
  -24.6398  -11.6924   20.8748 C   0  0  0  0  0  0
  -23.9076  -10.4297   21.0406 C   0  0  0  0  0  0
  -24.3625   -9.4210   21.9184 C   0  0  0  0  0  0
  -23.6297   -8.2246   22.0754 C   0  0  0  0  0  0
  -22.4279   -8.0283   21.3545 C   0  0  0  0  0  0
  -21.9916   -9.0258   20.4647 C   0  0  0  0  0  0
  -22.7247  -10.2137   20.3057 C   0  0  0  0  0  0
  -21.6856   -6.0737   22.5279 C   0  0  0  0  0  0
  -21.4017   -6.5641   23.8212 C   0  0  0  0  0  0
  -21.3660   -5.6793   24.9174 C   0  0  0  0  0  0
  -21.6044   -4.3056   24.7226 C   0  0  0  0  0  0
  -21.8819   -3.8147   23.4347 C   0  0  0  0  0  0
  -21.9193   -4.6963   22.3403 C   0  0  0  0  0  0
  -22.7822  -13.5223   21.1868 C   0  0  0  0  0  0
  -22.1661   -4.2148   21.0980 F   0  0  0  0  0  0
  -21.5628   -3.4540   25.7739 F   0  0  0  0  0  0
  -29.9814  -13.5551   20.4009 N   0  0  0  0  0  0
  -26.2932  -12.9419   20.3270 N   0  0  0  0  0  0
  -25.9331  -11.6559   20.5750 N   0  0  0  0  0  0
  -22.0469  -12.8211   22.0423 N   0  0  0  0  0  0
  -25.4193  -15.1931   20.4117 N   0  0  0  0  0  0
  -31.7902  -14.8771   20.1532 O   0  0  0  0  0  0
  -21.6643   -6.8880   21.4241 O   0  0  0  0  0  0
  -22.3506  -14.5527   20.6713 O   0  0  0  0  0  0
  -24.6350  -31.8526   23.1958 C   0  0  0  0  0  0
  -25.9159  -32.4743   23.8319 C   0  0  1  0  0  0
  -27.2204  -27.2371   20.1358 C   0  0  0  0  0  0
  -25.5938  -33.8545   24.2238 N   0  0  0  0  0  0
  -23.4349  -30.4739   21.5391 C   0  0  2  0  0  0
  -24.8863  -28.9184   20.1081 C   0  0  0  0  0  0
  -22.7529  -29.4589   22.4893 C   0  0  0  0  0  0
  -18.0298  -28.1393   22.8483 C   0  0  0  0  0  0
  -24.1491  -36.7280   23.2639 C   0  0  0  0  0  0
  -25.9836  -30.7574   21.3814 C   0  0  0  0  0  0
  -26.0598  -29.3778   20.7229 C   0  0  0  0  0  0
  -27.2339  -28.5492   20.7275 C   0  0  0  0  0  0
  -26.0290  -26.8547   19.4870 C   0  0  0  0  0  0
  -24.8773  -27.6654   19.4769 C   0  0  0  0  0  0
  -23.6569  -29.8073   20.1561 C   0  0  0  0  0  0
  -25.4118  -36.3064   24.0323 C   0  0  1  0  0  0
  -20.5905  -28.3713   23.1254 C   0  0  2  0  0  0
  -20.6785  -26.9425   22.5405 C   0  0  0  0  0  0
  -19.5758  -26.6386   21.5212 C   0  0  0  0  0  0
  -18.1940  -26.7933   22.1626 C   0  0  0  0  0  0
  -19.1552  -28.8869   23.2863 C   0  0  0  0  0  0
  -18.9470  -30.1467   23.8888 C   0  0  0  0  0  0
  -17.6468  -30.6592   24.0563 C   0  0  0  0  0  0
  -25.9061  -34.9435   23.5084 C   0  0  0  0  0  0
  -16.5359  -29.9087   23.6333 C   0  0  0  0  0  0
  -16.7284  -28.6504   23.0355 C   0  0  0  0  0  0
  -26.4510  -31.6578   25.0723 C   0  0  0  0  0  0
  -25.3717  -31.3736   26.1432 C   0  0  0  0  0  0
  -27.0364  -30.2988   24.6238 C   0  0  0  0  0  0
  -27.6053  -32.4329   25.7503 C   0  0  0  0  0  0
  -27.5580  -37.1794   24.8462 C   0  0  0  0  0  0
  -21.4230  -29.3051   22.3637 N   0  0  0  0  0  0
  -26.4291  -37.3766   23.9408 N   0  0  0  0  0  0
  -24.7036  -31.0463   22.0950 N   0  0  0  0  0  0
  -23.4209  -28.8133   23.3011 O   0  0  0  0  0  0
  -28.2448  -26.2553   20.1916 O   0  0  0  0  0  0
  -26.5640  -34.8918   22.4658 O   0  0  0  0  0  0
  -23.5489  -32.1360   23.7229 O   0  0  0  0  0  0
  -30.2604  -19.9658   18.9603 C   0  0  0  0  0  0
  -29.4055  -18.5499   20.7082 C   0  0  0  0  0  0
  -29.5220  -19.9093   20.1564 C   0  0  0  0  0  0
  -29.9595  -17.3586   20.0489 C   0  0  0  0  0  0
  -30.5733  -17.6363   18.7885 C   0  0  0  0  0  0
  -31.9081  -16.7514   16.8479 C   0  0  0  0  0  0
  -31.0137  -16.5913   17.8405 C   0  0  0  0  0  0
  -28.2186  -23.7044   20.9470 C   0  0  0  0  0  0
  -27.9309  -25.0787   20.9411 C   0  0  0  0  0  0
  -28.6575  -18.3566   22.0160 C   0  0  0  0  0  0
  -29.0305  -22.5794   20.1606 C   0  0  0  0  0  0
  -30.7581  -18.8924   18.3180 N   0  0  0  0  0  0
  -29.7971  -15.9407   20.5539 N   0  0  0  0  0  0
  -28.9638  -21.1447   20.7131 N   0  0  0  0  0  0
  -31.4760  -12.6114   19.1796 H   0  0  0  0  0  0
  -30.3904  -11.5110   19.9818 H   0  0  0  0  0  0
  -29.8045  -11.7214   17.5423 H   0  0  0  0  0  0
  -29.6334  -13.4492   17.7107 H   0  0  0  0  0  0
  -27.9055  -11.2789   18.9315 H   0  0  0  0  0  0
  -27.3844  -12.5027   17.8045 H   0  0  0  0  0  0
  -27.6266  -14.2524   19.4533 H   0  0  0  0  0  0
  -28.7280  -12.2036   21.4388 H   0  0  0  0  0  0
  -28.4123  -13.8865   21.7838 H   0  0  0  0  0  0
  -25.2769   -9.5685   22.4760 H   0  0  0  0  0  0
  -24.0005   -7.4638   22.7476 H   0  0  0  0  0  0
  -21.0847   -8.8780   19.8954 H   0  0  0  0  0  0
  -22.3705  -10.9677   19.6167 H   0  0  0  0  0  0
  -21.2012   -7.6150   23.9716 H   0  0  0  0  0  0
  -21.1482   -6.0524   25.9077 H   0  0  0  0  0  0
  -22.0597   -2.7609   23.2849 H   0  0  0  0  0  0
  -22.4091  -11.9875   22.4811 H   0  0  0  0  0  0
  -21.1085  -13.1230   22.2625 H   0  0  0  0  0  0
  -24.6478  -15.8429   20.5174 H   0  0  0  0  0  0
  -26.2593  -15.6327   20.0588 H   0  0  0  0  0  0
  -26.7229  -32.5389   23.1062 H   0  0  0  0  0  0
  -25.0069  -33.9676   25.0373 H   0  0  0  0  0  0
  -22.7330  -31.2970   21.3901 H   0  0  0  0  0  0
  -23.3756  -35.9609   23.3295 H   0  0  0  0  0  0
  -24.3579  -36.8912   22.2054 H   0  0  0  0  0  0
  -23.7245  -37.6478   23.6671 H   0  0  0  0  0  0
  -26.1258  -31.5171   20.6115 H   0  0  0  0  0  0
  -26.8592  -30.8073   22.0170 H   0  0  0  0  0  0
  -28.1284  -28.8887   21.2305 H   0  0  0  0  0  0
  -25.9778  -25.8828   19.0164 H   0  0  0  0  0  0
  -23.9802  -27.3065   18.9910 H   0  0  0  0  0  0
  -23.7829  -30.5838   19.4007 H   0  0  0  0  0  0
  -22.7749  -29.2418   19.8497 H   0  0  0  0  0  0
  -25.1300  -36.1904   25.0815 H   0  0  0  0  0  0
  -20.9997  -28.3301   24.1376 H   0  0  0  0  0  0
  -20.5682  -26.2329   23.3619 H   0  0  0  0  0  0
  -21.6653  -26.7444   22.1198 H   0  0  0  0  0  0
  -19.6922  -25.6293   21.1250 H   0  0  0  0  0  0
  -19.6691  -27.3192   20.6736 H   0  0  0  0  0  0
  -17.4206  -26.6680   21.4031 H   0  0  0  0  0  0
  -18.0342  -26.0078   22.9025 H   0  0  0  0  0  0
  -19.7945  -30.7287   24.2256 H   0  0  0  0  0  0
  -17.5019  -31.6271   24.5168 H   0  0  0  0  0  0
  -15.5358  -30.2985   23.7660 H   0  0  0  0  0  0
  -15.8685  -28.0819   22.7075 H   0  0  0  0  0  0
  -24.5907  -30.7071   25.7754 H   0  0  0  0  0  0
  -24.8893  -32.2906   26.4825 H   0  0  0  0  0  0
  -25.8023  -30.8936   27.0229 H   0  0  0  0  0  0
  -26.2961  -29.6729   24.1242 H   0  0  0  0  0  0
  -27.4005  -29.7262   25.4779 H   0  0  0  0  0  0
  -27.8855  -30.4248   23.9518 H   0  0  0  0  0  0
  -27.2650  -33.3633   26.2062 H   0  0  0  0  0  0
  -28.3874  -32.6885   25.0340 H   0  0  0  0  0  0
  -28.0712  -31.8470   26.5437 H   0  0  0  0  0  0
  -28.2585  -38.0103   24.7521 H   0  0  0  0  0  0
  -28.1089  -36.2634   24.6270 H   0  0  0  0  0  0
  -27.2301  -37.1419   25.8865 H   0  0  0  0  0  0
  -20.9428  -29.8768   21.6828 H   0  0  0  0  0  0
  -26.0166  -38.2837   24.1416 H   0  0  0  0  0  0
  -30.4391  -20.9112   18.4695 H   0  0  0  0  0  0
  -32.1536  -15.9334   16.1868 H   0  0  0  0  0  0
  -32.4077  -17.6949   16.6809 H   0  0  0  0  0  0
  -30.5456  -15.6251   17.9267 H   0  0  0  0  0  0
  -27.7055  -23.2296   21.7712 H   0  0  0  0  0  0
  -27.2713  -25.3856   21.7434 H   0  0  0  0  0  0
  -28.6627  -19.2627   22.6202 H   0  0  0  0  0  0
  -29.1145  -17.5699   22.6157 H   0  0  0  0  0  0
  -27.6214  -18.0823   21.8187 H   0  0  0  0  0  0
  -30.0745  -22.8934   20.1148 H   0  0  0  0  0  0
  -28.6684  -22.5756   19.1311 H   0  0  0  0  0  0
  -28.8946  -15.7447   20.9604 H   0  0  0  0  0  0
  -28.4550  -21.0440   21.5883 H   0  0  0  0  0  0
  1 25  1  0  0  0
  1 30  2  0  0  0
  1 83  1  0  0  0
  2  3  1  0  0  0
  2 25  1  0  0  0
  2 85  1  0  0  0
  2 86  1  0  0  0
  3  4  1  0  0  0
  3 87  1  0  0  0
  3 88  1  0  0  0
  4  5  1  0  0  0
  4 89  1  0  0  0
  4 90  1  0  0  0
  5  6  1  0  0  0
  5 26  1  0  0  0
  5 91  1  0  0  0
  6 25  1  0  0  0
  6 92  1  0  0  0
  6 93  1  0  0  0
  7  8  2  0  0  0
  7 26  1  0  0  0
  7 29  1  0  0  0
  8  9  1  0  0  0
  8 22  1  0  0  0
  9 10  1  0  0  0
  9 27  2  0  0  0
 10 11  2  0  0  0
 10 15  1  0  0  0
 11 12  1  0  0  0
 11 94  1  0  0  0
 12 13  2  0  0  0
 12 95  1  0  0  0
 13 14  1  0  0  0
 13 31  1  0  0  0
 14 15  2  0  0  0
 14 96  1  0  0  0
 15 97  1  0  0  0
 16 17  2  0  0  0
 16 21  1  0  0  0
 16 31  1  0  0  0
 17 18  1  0  0  0
 17 98  1  0  0  0
 18 19  2  0  0  0
 18 99  1  0  0  0
 19 20  1  0  0  0
 19 24  1  0  0  0
 20 21  2  0  0  0
 20100  1  0  0  0
 21 23  1  0  0  0
 22 28  1  0  0  0
 22 32  2  0  0  0
 26 27  1  0  0  0
 28101  1  0  0  0
 28102  1  0  0  0
 29103  1  0  0  0
 29104  1  0  0  0
 33 34  1  0  0  0
 33 66  1  0  0  0
 33 70  2  0  0  0
 34 36  1  0  0  0
 34 59  1  0  0  0
 34105  1  0  0  0
 35 44  2  0  0  0
 35 45  1  0  0  0
 35 68  1  0  0  0
 36 56  1  0  0  0
 36106  1  0  0  0
 37 39  1  0  0  0
 37 47  1  0  0  0
 37 66  1  0  0  0
 37107  1  0  0  0
 38 43  2  0  0  0
 38 46  1  0  0  0
 38 47  1  0  0  0
 39 64  1  0  0  0
 39 67  2  0  0  0
 40 52  1  0  0  0
 40 53  2  0  0  0
 40 58  1  0  0  0
 41108  1  0  0  0
 41109  1  0  0  0
 41110  1  0  0  0
 41 48  1  0  0  0
 42 43  1  0  0  0
 42 66  1  0  0  0
 42111  1  0  0  0
 42112  1  0  0  0
 43 44  1  0  0  0
 44113  1  0  0  0
 45 46  2  0  0  0
 45114  1  0  0  0
 46115  1  0  0  0
 47116  1  0  0  0
 47117  1  0  0  0
 48 56  1  0  0  0
 48 65  1  0  0  0
 48118  1  0  0  0
 49 50  1  0  0  0
 49 53  1  0  0  0
 49 64  1  0  0  0
 49119  1  0  0  0
 50 51  1  0  0  0
 50120  1  0  0  0
 50121  1  0  0  0
 51 52  1  0  0  0
 51122  1  0  0  0
 51123  1  0  0  0
 52124  1  0  0  0
 52125  1  0  0  0
 53 54  1  0  0  0
 54 55  2  0  0  0
 54126  1  0  0  0
 55 57  1  0  0  0
 55127  1  0  0  0
 56 69  2  0  0  0
 57 58  2  0  0  0
 57128  1  0  0  0
 58129  1  0  0  0
 59 60  1  0  0  0
 59 61  1  0  0  0
 59 62  1  0  0  0
 60130  1  0  0  0
 60131  1  0  0  0
 60132  1  0  0  0
 61133  1  0  0  0
 61134  1  0  0  0
 61135  1  0  0  0
 62136  1  0  0  0
 62137  1  0  0  0
 62138  1  0  0  0
 63 65  1  0  0  0
 63139  1  0  0  0
 63140  1  0  0  0
 63141  1  0  0  0
 64142  1  0  0  0
 65143  1  0  0  0
 68 79  1  0  0  0
 71 73  2  0  0  0
 71 82  1  0  0  0
 71144  1  0  0  0
 72 73  1  0  0  0
 72 74  2  0  0  0
 72 80  1  0  0  0
 73 84  1  0  0  0
 74 75  1  0  0  0
 74 83  1  0  0  0
 75 77  1  0  0  0
 75 82  2  0  0  0
 76 77  2  0  0  0
 76145  1  0  0  0
 76146  1  0  0  0
 77147  1  0  0  0
 78 79  2  0  0  0
 78 81  1  0  0  0
 78148  1  0  0  0
 79149  1  0  0  0
 80150  1  0  0  0
 80151  1  0  0  0
 80152  1  0  0  0
 81 84  1  0  0  0
 81153  1  0  0  0
 81154  1  0  0  0
 83155  1  0  0  0
 84156  1  0  0  0
M  ISO  4   1 100  68 101  79 101  83 100
M  END
> <chiral flag>
0

> <version>
0

> <s_m_source_file>
/data/baiqing/PycharmProjects/Reinvent-master-3.2/result/LINK_invent/BTK/process_docking_weight1_custom_product_contain_oxygen_bond_distance_aromatic_linkinvent_7_9_3/rearranged_h_0113.sdf

> <i_m_source_file_index>
88

> <r_mmod_Potential_Energy-OPLS-2005>
188.007293701172

> <r_mmod_Stretch_Energy-OPLS-2005>
147.43359375

> <r_mmod_Bend_Energy-OPLS-2005>
236.3671875

> <r_mmod_Torsional_Energy-OPLS-2005>
243.54866027832

> <r_mmod_Improper_Torsional_Energy-OPLS-2005>
5.58115291595459

> <r_mmod_Van_der_Waal_Energy-OPLS-2005>
145.896545410156

> <r_mmod_Electrostatic_Energy-OPLS-2005>
-475.812805175781

> <r_mmod_Solvation_Energy-OPLS-2005>
-229.038192749023

> <b_mmod_Minimization_Converged-OPLS-2005>
0

> <r_mmod_RMS_Derivative-OPLS-2005>
0.336983859539032

$$$$
88
                    3D
 Structure written by MMmdl.
166175  0  0  1  0            999 V2000
  -30.6027  -14.7132   20.4528 C   0  0  0  0  0  0
  -30.4465  -12.4284   19.4700 C   0  0  0  0  0  0
  -29.5215  -12.5101   18.2353 C   0  0  0  0  0  0
  -28.0468  -12.3184   18.6465 C   0  0  0  0  0  0
  -27.6540  -13.1939   19.8630 C   0  0  2  0  0  0
  -28.7018  -13.1114   20.9956 C   0  0  0  0  0  0
  -25.2573  -13.8078   20.5697 C   0  0  0  0  0  0
  -24.1804  -13.0382   20.9168 C   0  0  0  0  0  0
  -24.6364  -11.6844   20.8733 C   0  0  0  0  0  0
  -23.9018  -10.4260   21.0406 C   0  0  0  0  0  0
  -24.3585   -9.4184   21.9184 C   0  0  0  0  0  0
  -23.6274   -8.2218   22.0763 C   0  0  0  0  0  0
  -22.4246   -8.0263   21.3559 C   0  0  0  0  0  0
  -21.9874   -9.0226   20.4652 C   0  0  0  0  0  0
  -22.7200  -10.2101   20.3047 C   0  0  0  0  0  0
  -21.6838   -6.0710   22.5275 C   0  0  0  0  0  0
  -21.4012   -6.5617   23.8205 C   0  0  0  0  0  0
  -21.3660   -5.6769   24.9171 C   0  0  0  0  0  0
  -21.6045   -4.3034   24.7222 C   0  0  0  0  0  0
  -21.8823   -3.8127   23.4347 C   0  0  0  0  0  0
  -21.9194   -4.6946   22.3398 C   0  0  0  0  0  0
  -22.7839  -13.5223   21.1828 C   0  0  0  0  0  0
  -22.1658   -4.2129   21.0977 F   0  0  0  0  0  0
  -21.5644   -3.4519   25.7741 F   0  0  0  0  0  0
  -30.0105  -13.4710   20.4248 N   0  0  0  0  0  0
  -26.2990  -12.9219   20.3328 N   0  0  0  0  0  0
  -25.9290  -11.6396   20.5749 N   0  0  0  0  0  0
  -22.0454  -12.8248   22.0387 N   0  0  0  0  0  0
  -25.4295  -15.1803   20.4215 N   0  0  0  0  0  0
  -31.7582  -14.8689   20.0458 O   0  0  0  0  0  0
  -21.6634   -6.8849   21.4230 O   0  0  0  0  0  0
  -22.3551  -14.5547   20.6693 O   0  0  0  0  0  0
  -24.6230  -31.8580   23.2022 C   0  0  0  0  0  0
  -25.9078  -32.4771   23.8362 C   0  0  1  0  0  0
  -27.2420  -27.3435   20.1021 C   0  0  0  0  0  0
  -25.5898  -33.8580   24.2279 N   0  0  0  0  0  0
  -23.4200  -30.4794   21.5393 C   0  0  2  0  0  0
  -24.8772  -28.9430   20.0880 C   0  0  0  0  0  0
  -22.7467  -29.4601   22.4891 C   0  0  0  0  0  0
  -18.0280  -28.1386   22.8478 C   0  0  0  0  0  0
  -24.1476  -36.7285   23.2644 C   0  0  0  0  0  0
  -25.9578  -30.7972   21.3712 C   0  0  0  0  0  0
  -26.0377  -29.4299   20.7023 C   0  0  0  0  0  0
  -27.2195  -28.6336   20.7116 C   0  0  0  0  0  0
  -26.0702  -26.9035   19.4566 C   0  0  0  0  0  0
  -24.8949  -27.6872   19.4535 C   0  0  0  0  0  0
  -23.6364  -29.8147   20.1510 C   0  0  0  0  0  0
  -25.4102  -36.3084   24.0337 C   0  0  1  0  0  0
  -20.5881  -28.3687   23.1278 C   0  0  2  0  0  0
  -20.6755  -26.9406   22.5416 C   0  0  0  0  0  0
  -19.5738  -26.6378   21.5209 C   0  0  0  0  0  0
  -18.1919  -26.7929   22.1615 C   0  0  0  0  0  0
  -19.1537  -28.8851   23.2874 C   0  0  0  0  0  0
  -18.9466  -30.1450   23.8897 C   0  0  0  0  0  0
  -17.6470  -30.6586   24.0558 C   0  0  0  0  0  0
  -25.9040  -34.9454   23.5105 C   0  0  0  0  0  0
  -16.5357  -29.9090   23.6332 C   0  0  0  0  0  0
  -16.7269  -28.6507   23.0353 C   0  0  0  0  0  0
  -26.4484  -31.6588   25.0737 C   0  0  0  0  0  0
  -25.3732  -31.3721   26.1478 C   0  0  0  0  0  0
  -27.0334  -30.3019   24.6175 C   0  0  0  0  0  0
  -27.6040  -32.4328   25.7502 C   0  0  0  0  0  0
  -27.5569  -37.1794   24.8464 C   0  0  0  0  0  0
  -21.4176  -29.3040   22.3669 N   0  0  0  0  0  0
  -26.4271  -37.3780   23.9421 N   0  0  0  0  0  0
  -24.6845  -31.0606   22.0950 N   0  0  0  0  0  0
  -23.4202  -28.8141   23.2956 O   0  0  0  0  0  0
  -28.2478  -26.4158   20.3722 O   0  0  0  0  0  0
  -26.5616  -34.8914   22.4675 O   0  0  0  0  0  0
  -23.5395  -32.1364   23.7354 O   0  0  0  0  0  0
  -28.5001  -19.4867   19.0162 C   0  0  0  0  0  0
  -28.3501  -17.0873   19.4059 C   0  0  0  0  0  0
  -30.1745  -18.3406   20.3906 C   0  0  0  0  0  0
  -27.8450  -18.2576   18.8034 C   0  0  0  0  0  0
  -29.6734  -19.5661   19.7874 C   0  0  0  0  0  0
  -29.5160  -17.0639   20.2056 C   0  0  0  0  0  0
  -29.4680  -24.4694   19.3955 C   0  0  0  0  0  0
  -25.0046  -19.7079   15.0120 C   0  0  0  0  0  0
  -26.7148  -18.1360   17.8628 C   0  0  0  0  0  0
  -29.0640  -25.7894   19.4438 C   0  0  0  0  0  0
  -25.2832  -18.8328   15.9910 C   0  0  0  0  0  0
  -26.3908  -19.0236   16.9035 C   0  0  0  0  0  0
  -30.7991  -24.1098   18.8092 C   0  0  0  0  0  0
  -28.9954  -23.1182   20.0294 C   0  0  0  0  0  0
  -31.3483  -23.1670   19.8949 C   0  0  0  0  0  0
  -30.4924  -20.8975   19.6225 C   0  0  0  0  0  0
  -29.8278  -15.7772   20.8625 N   0  0  0  0  0  0
  -30.2311  -22.2583   20.2808 N   0  3  2  0  0  0
  -31.4907  -12.5483   19.1764 H   0  0  0  0  0  0
  -30.3838  -11.4410   19.9302 H   0  0  0  0  0  0
  -29.8088  -11.7583   17.4988 H   0  0  0  0  0  0
  -29.6449  -13.4786   17.7463 H   0  0  0  0  0  0
  -27.9062  -11.2652   18.8932 H   0  0  0  0  0  0
  -27.3900  -12.5274   17.8012 H   0  0  0  0  0  0
  -27.6548  -14.2047   19.4834 H   0  0  0  0  0  0
  -28.7360  -12.1026   21.4095 H   0  0  0  0  0  0
  -28.4306  -13.7643   21.8265 H   0  0  0  0  0  0
  -25.2723   -9.5679   22.4763 H   0  0  0  0  0  0
  -23.9991   -7.4604   22.7472 H   0  0  0  0  0  0
  -21.0815   -8.8729   19.8957 H   0  0  0  0  0  0
  -22.3658  -10.9636   19.6156 H   0  0  0  0  0  0
  -21.2006   -7.6124   23.9702 H   0  0  0  0  0  0
  -21.1475   -6.0500   25.9066 H   0  0  0  0  0  0
  -22.0615   -2.7596   23.2840 H   0  0  0  0  0  0
  -22.4053  -11.9900   22.4768 H   0  0  0  0  0  0
  -21.1084  -13.1319   22.2592 H   0  0  0  0  0  0
  -24.6622  -15.8312   20.5476 H   0  0  0  0  0  0
  -26.2958  -15.6331   20.1714 H   0  0  0  0  0  0
  -26.7147  -32.5450   23.1114 H   0  0  0  0  0  0
  -25.0054  -33.9716   25.0432 H   0  0  0  0  0  0
  -22.7129  -31.2994   21.3969 H   0  0  0  0  0  0
  -23.3745  -35.9606   23.3303 H   0  0  0  0  0  0
  -24.3574  -36.8916   22.2059 H   0  0  0  0  0  0
  -23.7206  -37.6476   23.6670 H   0  0  0  0  0  0
  -26.0885  -31.5682   20.6108 H   0  0  0  0  0  0
  -26.8365  -30.8441   22.0021 H   0  0  0  0  0  0
  -28.0924  -28.9751   21.2493 H   0  0  0  0  0  0
  -26.0423  -25.9151   19.0224 H   0  0  0  0  0  0
  -24.0009  -27.3058   18.9789 H   0  0  0  0  0  0
  -23.7453  -30.5955   19.3975 H   0  0  0  0  0  0
  -22.7593  -29.2399   19.8481 H   0  0  0  0  0  0
  -25.1273  -36.1939   25.0827 H   0  0  0  0  0  0
  -20.9982  -28.3271   24.1394 H   0  0  0  0  0  0
  -20.5645  -26.2296   23.3624 H   0  0  0  0  0  0
  -21.6627  -26.7421   22.1230 H   0  0  0  0  0  0
  -19.6903  -25.6285   21.1251 H   0  0  0  0  0  0
  -19.6685  -27.3179   20.6735 H   0  0  0  0  0  0
  -17.4192  -26.6680   21.4016 H   0  0  0  0  0  0
  -18.0320  -26.0073   22.9014 H   0  0  0  0  0  0
  -19.7945  -30.7256   24.2278 H   0  0  0  0  0  0
  -17.5031  -31.6271   24.5153 H   0  0  0  0  0  0
  -15.5360  -30.3002   23.7644 H   0  0  0  0  0  0
  -15.8663  -28.0830   22.7067 H   0  0  0  0  0  0
  -24.5879  -30.7092   25.7822 H   0  0  0  0  0  0
  -24.8956  -32.2891   26.4946 H   0  0  0  0  0  0
  -25.8083  -30.8874   27.0230 H   0  0  0  0  0  0
  -26.2908  -29.6772   24.1195 H   0  0  0  0  0  0
  -27.4042  -29.7269   25.4673 H   0  0  0  0  0  0
  -27.8777  -30.4324   23.9396 H   0  0  0  0  0  0
  -27.2643  -33.3621   26.2085 H   0  0  0  0  0  0
  -28.3851  -32.6897   25.0335 H   0  0  0  0  0  0
  -28.0710  -31.8456   26.5418 H   0  0  0  0  0  0
  -28.2580  -38.0095   24.7532 H   0  0  0  0  0  0
  -28.1066  -36.2633   24.6261 H   0  0  0  0  0  0
  -27.2304  -37.1422   25.8869 H   0  0  0  0  0  0
  -20.9344  -29.8783   21.6910 H   0  0  0  0  0  0
  -26.0160  -38.2848   24.1440 H   0  0  0  0  0  0
  -28.1515  -20.3768   18.5148 H   0  0  0  0  0  0
  -27.8199  -16.1783   19.2078 H   0  0  0  0  0  0
  -31.0902  -18.3749   20.9640 H   0  0  0  0  0  0
  -24.1798  -19.5472   14.3325 H   0  0  0  0  0  0
  -25.5978  -20.6014   14.8692 H   0  0  0  0  0  0
  -26.1075  -17.2482   17.9688 H   0  0  0  0  0  0
  -29.6425  -26.5457   18.9305 H   0  0  0  0  0  0
  -24.6582  -17.9554   16.0949 H   0  0  0  0  0  0
  -26.9830  -19.9195   16.7845 H   0  0  0  0  0  0
  -31.4440  -24.9754   18.6535 H   0  0  0  0  0  0
  -30.6631  -23.5976   17.8551 H   0  0  0  0  0  0
  -28.3265  -22.6099   19.3346 H   0  0  0  0  0  0
  -28.4442  -23.2967   20.9535 H   0  0  0  0  0  0
  -31.6221  -23.7551   20.7737 H   0  0  0  0  0  0
  -32.2572  -22.6596   19.5703 H   0  0  0  0  0  0
  -30.5454  -21.0797   18.5484 H   0  0  0  0  0  0
  -31.5076  -20.6139   19.9031 H   0  0  0  0  0  0
  -29.0164  -15.4000   21.3308 H   0  0  0  0  0  0
  -30.2944  -22.0992   21.2750 H   0  0  0  0  0  0
  1 25  1  0  0  0
  1 30  2  0  0  0
  1 87  1  0  0  0
  2  3  1  0  0  0
  2 25  1  0  0  0
  2 89  1  0  0  0
  2 90  1  0  0  0
  3  4  1  0  0  0
  3 91  1  0  0  0
  3 92  1  0  0  0
  4  5  1  0  0  0
  4 93  1  0  0  0
  4 94  1  0  0  0
  5  6  1  0  0  0
  5 26  1  0  0  0
  5 95  1  0  0  0
  6 25  1  0  0  0
  6 96  1  0  0  0
  6 97  1  0  0  0
  7  8  2  0  0  0
  7 26  1  0  0  0
  7 29  1  0  0  0
  8  9  1  0  0  0
  8 22  1  0  0  0
  9 10  1  0  0  0
  9 27  2  0  0  0
 10 11  2  0  0  0
 10 15  1  0  0  0
 11 12  1  0  0  0
 11 98  1  0  0  0
 12 13  2  0  0  0
 12 99  1  0  0  0
 13 14  1  0  0  0
 13 31  1  0  0  0
 14 15  2  0  0  0
 14100  1  0  0  0
 15101  1  0  0  0
 16 17  2  0  0  0
 16 21  1  0  0  0
 16 31  1  0  0  0
 17 18  1  0  0  0
 17102  1  0  0  0
 18 19  2  0  0  0
 18103  1  0  0  0
 19 20  1  0  0  0
 19 24  1  0  0  0
 20 21  2  0  0  0
 20104  1  0  0  0
 21 23  1  0  0  0
 22 28  1  0  0  0
 22 32  2  0  0  0
 26 27  1  0  0  0
 28105  1  0  0  0
 28106  1  0  0  0
 29107  1  0  0  0
 29108  1  0  0  0
 33 34  1  0  0  0
 33 66  1  0  0  0
 33 70  2  0  0  0
 34 36  1  0  0  0
 34 59  1  0  0  0
 34109  1  0  0  0
 35 44  2  0  0  0
 35 45  1  0  0  0
 35 68  1  0  0  0
 36 56  1  0  0  0
 36110  1  0  0  0
 37 39  1  0  0  0
 37 47  1  0  0  0
 37 66  1  0  0  0
 37111  1  0  0  0
 38 43  2  0  0  0
 38 46  1  0  0  0
 38 47  1  0  0  0
 39 64  1  0  0  0
 39 67  2  0  0  0
 40 52  1  0  0  0
 40 53  2  0  0  0
 40 58  1  0  0  0
 41112  1  0  0  0
 41113  1  0  0  0
 41114  1  0  0  0
 41 48  1  0  0  0
 42 43  1  0  0  0
 42 66  1  0  0  0
 42115  1  0  0  0
 42116  1  0  0  0
 43 44  1  0  0  0
 44117  1  0  0  0
 45 46  2  0  0  0
 45118  1  0  0  0
 46119  1  0  0  0
 47120  1  0  0  0
 47121  1  0  0  0
 48 56  1  0  0  0
 48 65  1  0  0  0
 48122  1  0  0  0
 49 50  1  0  0  0
 49 53  1  0  0  0
 49 64  1  0  0  0
 49123  1  0  0  0
 50 51  1  0  0  0
 50124  1  0  0  0
 50125  1  0  0  0
 51 52  1  0  0  0
 51126  1  0  0  0
 51127  1  0  0  0
 52128  1  0  0  0
 52129  1  0  0  0
 53 54  1  0  0  0
 54 55  2  0  0  0
 54130  1  0  0  0
 55 57  1  0  0  0
 55131  1  0  0  0
 56 69  2  0  0  0
 57 58  2  0  0  0
 57132  1  0  0  0
 58133  1  0  0  0
 59 60  1  0  0  0
 59 61  1  0  0  0
 59 62  1  0  0  0
 60134  1  0  0  0
 60135  1  0  0  0
 60136  1  0  0  0
 61137  1  0  0  0
 61138  1  0  0  0
 61139  1  0  0  0
 62140  1  0  0  0
 62141  1  0  0  0
 62142  1  0  0  0
 63 65  1  0  0  0
 63143  1  0  0  0
 63144  1  0  0  0
 63145  1  0  0  0
 64146  1  0  0  0
 65147  1  0  0  0
 68 80  1  0  0  0
 71 74  2  0  0  0
 71 75  1  0  0  0
 71148  1  0  0  0
 72 74  1  0  0  0
 72 76  2  0  0  0
 72149  1  0  0  0
 73 75  2  0  0  0
 73 76  1  0  0  0
 73150  1  0  0  0
 74 79  1  0  0  0
 75 86  1  0  0  0
 76 87  1  0  0  0
 77 80  2  0  0  0
 77 83  1  0  0  0
 77 84  1  0  0  0
 78 81  2  0  0  0
 78151  1  0  0  0
 78152  1  0  0  0
 79 82  2  0  0  0
 79153  1  0  0  0
 80154  1  0  0  0
 81 82  1  0  0  0
 81155  1  0  0  0
 82156  1  0  0  0
 83 85  1  0  0  0
 83157  1  0  0  0
 83158  1  0  0  0
 84 88  1  0  0  0
 84159  1  0  0  0
 84160  1  0  0  0
 85 88  1  0  0  0
 85161  1  0  0  0
 85162  1  0  0  0
 86163  1  0  0  0
 86164  1  0  0  0
 86 88  1  0  0  0
 87165  1  0  0  0
 88166  1  0  0  0
M  CHG  1  88   1
M  ISO  4   1 100  68 101  80 101  87 100
M  END
> <chiral flag>
0

> <version>
0

> <s_m_source_file>
/data/baiqing/PycharmProjects/Reinvent-master-3.2/result/LINK_invent/BTK/process_docking_weight1_custom_product_contain_oxygen_bond_distance_aromatic_linkinvent_7_9_3/rearranged_h_0113.sdf

> <i_m_source_file_index>
89

> <r_mmod_Potential_Energy-OPLS-2005>
162.357925415039

> <r_mmod_Stretch_Energy-OPLS-2005>
87.2420883178711

> <r_mmod_Bend_Energy-OPLS-2005>
251.544845581055

> <r_mmod_Torsional_Energy-OPLS-2005>
315.897003173828

> <r_mmod_Improper_Torsional_Energy-OPLS-2005>
12.4484128952026

> <r_mmod_Van_der_Waal_Energy-OPLS-2005>
130.237106323242

> <r_mmod_Electrostatic_Energy-OPLS-2005>
-272.816772460938

> <r_mmod_Solvation_Energy-OPLS-2005>
-440.381958007812

> <b_mmod_Minimization_Converged-OPLS-2005>
0

> <r_mmod_RMS_Derivative-OPLS-2005>
2.28106474876404

$$$$
89
                    3D
 Structure written by MMmdl.
159167  0  0  1  0            999 V2000
  -30.6354  -14.7119   20.5486 C   0  0  0  0  0  0
  -30.4360  -12.4518   19.4810 C   0  0  0  0  0  0
  -29.5149  -12.5350   18.2422 C   0  0  0  0  0  0
  -28.0389  -12.3498   18.6427 C   0  0  0  0  0  0
  -27.6499  -13.2242   19.8628 C   0  0  2  0  0  0
  -28.6861  -13.0935   20.9983 C   0  0  0  0  0  0
  -25.2541  -13.8186   20.5680 C   0  0  0  0  0  0
  -24.1818  -13.0435   20.9181 C   0  0  0  0  0  0
  -24.6397  -11.6916   20.8723 C   0  0  0  0  0  0
  -23.9063  -10.4294   21.0390 C   0  0  0  0  0  0
  -24.3616   -9.4215   21.9174 C   0  0  0  0  0  0
  -23.6288   -8.2248   22.0750 C   0  0  0  0  0  0
  -22.4270   -8.0283   21.3542 C   0  0  0  0  0  0
  -21.9906   -9.0254   20.4645 C   0  0  0  0  0  0
  -22.7234  -10.2132   20.3048 C   0  0  0  0  0  0
  -21.6852   -6.0732   22.5272 C   0  0  0  0  0  0
  -21.4019   -6.5636   23.8207 C   0  0  0  0  0  0
  -21.3658   -5.6790   24.9168 C   0  0  0  0  0  0
  -21.6043   -4.3053   24.7222 C   0  0  0  0  0  0
  -21.8820   -3.8144   23.4344 C   0  0  0  0  0  0
  -21.9194   -4.6958   22.3400 C   0  0  0  0  0  0
  -22.7844  -13.5231   21.1851 C   0  0  0  0  0  0
  -22.1662   -4.2143   21.0976 F   0  0  0  0  0  0
  -21.5624   -3.4542   25.7739 F   0  0  0  0  0  0
  -30.0023  -13.4817   20.4591 N   0  0  0  0  0  0
  -26.2961  -12.9371   20.3281 N   0  0  0  0  0  0
  -25.9322  -11.6523   20.5715 N   0  0  0  0  0  0
  -22.0496  -12.8221   22.0412 N   0  0  0  0  0  0
  -25.4251  -15.1904   20.4130 N   0  0  0  0  0  0
  -31.7319  -14.8772   20.0022 O   0  0  0  0  0  0
  -21.6638   -6.8881   21.4237 O   0  0  0  0  0  0
  -22.3524  -14.5539   20.6704 O   0  0  0  0  0  0
  -24.6311  -31.8544   23.2005 C   0  0  0  0  0  0
  -25.9139  -32.4731   23.8349 C   0  0  1  0  0  0
  -27.2295  -27.2809   20.1095 C   0  0  0  0  0  0
  -25.5927  -33.8530   24.2277 N   0  0  0  0  0  0
  -23.4279  -30.4778   21.5421 C   0  0  2  0  0  0
  -24.8764  -28.9289   20.1058 C   0  0  0  0  0  0
  -22.7512  -29.4602   22.4922 C   0  0  0  0  0  0
  -18.0292  -28.1393   22.8486 C   0  0  0  0  0  0
  -24.1500  -36.7279   23.2643 C   0  0  0  0  0  0
  -25.9727  -30.7698   21.3816 C   0  0  0  0  0  0
  -26.0473  -29.3966   20.7168 C   0  0  0  0  0  0
  -27.2246  -28.5818   20.7143 C   0  0  0  0  0  0
  -26.0299  -26.8720   19.4821 C   0  0  0  0  0  0
  -24.8716  -27.6735   19.4794 C   0  0  0  0  0  0
  -23.6457  -29.8121   20.1578 C   0  0  0  0  0  0
  -25.4113  -36.3052   24.0343 C   0  0  1  0  0  0
  -20.5896  -28.3714   23.1274 C   0  0  2  0  0  0
  -20.6773  -26.9436   22.5406 C   0  0  0  0  0  0
  -19.5758  -26.6396   21.5209 C   0  0  0  0  0  0
  -18.1937  -26.7932   22.1618 C   0  0  0  0  0  0
  -19.1548  -28.8870   23.2865 C   0  0  0  0  0  0
  -18.9475  -30.1473   23.8879 C   0  0  0  0  0  0
  -17.6476  -30.6598   24.0566 C   0  0  0  0  0  0
  -25.9059  -34.9419   23.5117 C   0  0  0  0  0  0
  -16.5361  -29.9094   23.6339 C   0  0  0  0  0  0
  -16.7279  -28.6512   23.0356 C   0  0  0  0  0  0
  -26.4531  -31.6541   25.0728 C   0  0  0  0  0  0
  -25.3768  -31.3632   26.1457 C   0  0  0  0  0  0
  -27.0396  -30.2949   24.6231 C   0  0  0  0  0  0
  -27.6108  -32.4275   25.7471 C   0  0  0  0  0  0
  -27.5589  -37.1780   24.8469 C   0  0  0  0  0  0
  -21.4225  -29.3045   22.3659 N   0  0  0  0  0  0
  -26.4291  -37.3756   23.9429 N   0  0  0  0  0  0
  -24.6951  -31.0522   22.0970 N   0  0  0  0  0  0
  -23.4203  -28.8152   23.3037 O   0  0  0  0  0  0
  -28.3059  -26.3692   20.2054 O   0  0  0  0  0  0
  -26.5665  -34.8896   22.4700 O   0  0  0  0  0  0
  -23.5466  -32.1398   23.7298 O   0  0  0  0  0  0
  -30.7116  -18.0282   20.0154 C   0  0  0  0  0  0
  -28.7470  -19.6946   21.0804 C   0  0  0  0  0  0
  -29.8143  -17.3876   20.9192 C   0  0  0  0  0  0
  -28.7978  -18.2955   21.4240 C   0  0  0  0  0  0
  -29.6719  -20.3171   20.2061 C   0  0  0  0  0  0
  -30.6454  -19.4197   19.6757 C   0  0  0  0  0  0
  -28.6772  -23.9739   19.2818 C   0  0  0  0  0  0
  -28.4603  -25.3475   19.2462 C   0  0  0  0  0  0
  -30.0053  -15.8977   21.4154 C   0  0  0  0  0  0
  -26.8720  -17.7970   24.7988 C   0  0  0  0  0  0
  -27.6883  -17.8474   22.3759 C   0  0  0  0  0  0
  -28.8469  -22.7985   20.3235 C   0  0  0  0  0  0
  -27.9847  -18.2320   23.8375 C   0  0  0  0  0  0
  -29.7166  -15.6340   22.6209 N   0  0  0  0  0  0
  -29.6991  -21.6912   19.8167 O   0  0  0  0  0  0
  -31.5713  -19.9103   18.8159 F   0  0  0  0  0  0
  -31.4787  -12.5734   19.1830 H   0  0  0  0  0  0
  -30.3776  -11.4592   19.9304 H   0  0  0  0  0  0
  -29.8008  -11.7821   17.5065 H   0  0  0  0  0  0
  -29.6429  -13.5027   17.7553 H   0  0  0  0  0  0
  -27.8909  -11.2960   18.8819 H   0  0  0  0  0  0
  -27.3850  -12.5643   17.7965 H   0  0  0  0  0  0
  -27.6649  -14.2589   19.5205 H   0  0  0  0  0  0
  -28.7178  -12.0672   21.3664 H   0  0  0  0  0  0
  -28.3708  -13.6865   21.8525 H   0  0  0  0  0  0
  -25.2763   -9.5686   22.4752 H   0  0  0  0  0  0
  -23.9992   -7.4642   22.7476 H   0  0  0  0  0  0
  -21.0834   -8.8767   19.8964 H   0  0  0  0  0  0
  -22.3682  -10.9664   19.6157 H   0  0  0  0  0  0
  -21.2020   -7.6147   23.9704 H   0  0  0  0  0  0
  -21.1477   -6.0526   25.9068 H   0  0  0  0  0  0
  -22.0604   -2.7607   23.2844 H   0  0  0  0  0  0
  -22.4119  -11.9875   22.4785 H   0  0  0  0  0  0
  -21.1118  -13.1240   22.2638 H   0  0  0  0  0  0
  -24.6581  -15.8443   20.5266 H   0  0  0  0  0  0
  -26.2779  -15.6298   20.0905 H   0  0  0  0  0  0
  -26.7194  -32.5392   23.1085 H   0  0  0  0  0  0
  -24.9996  -33.9642   25.0371 H   0  0  0  0  0  0
  -22.7261  -31.3013   21.3965 H   0  0  0  0  0  0
  -23.3762  -35.9612   23.3271 H   0  0  0  0  0  0
  -24.3582  -36.8946   22.2065 H   0  0  0  0  0  0
  -23.7264  -37.6470   23.6695 H   0  0  0  0  0  0
  -26.1152  -31.5338   20.6167 H   0  0  0  0  0  0
  -26.8475  -30.8106   22.0199 H   0  0  0  0  0  0
  -28.1177  -28.9254   21.2171 H   0  0  0  0  0  0
  -25.9588  -25.8952   19.0242 H   0  0  0  0  0  0
  -23.9720  -27.3061   19.0040 H   0  0  0  0  0  0
  -23.7664  -30.5867   19.4001 H   0  0  0  0  0  0
  -22.7648  -29.2427   19.8566 H   0  0  0  0  0  0
  -25.1284  -36.1886   25.0839 H   0  0  0  0  0  0
  -20.9980  -28.3289   24.1400 H   0  0  0  0  0  0
  -20.5673  -26.2336   23.3609 H   0  0  0  0  0  0
  -21.6647  -26.7454   22.1219 H   0  0  0  0  0  0
  -19.6921  -25.6307   21.1246 H   0  0  0  0  0  0
  -19.6683  -27.3202   20.6733 H   0  0  0  0  0  0
  -17.4209  -26.6699   21.4013 H   0  0  0  0  0  0
  -18.0326  -26.0065   22.9004 H   0  0  0  0  0  0
  -19.7955  -30.7297   24.2232 H   0  0  0  0  0  0
  -17.5035  -31.6271   24.5188 H   0  0  0  0  0  0
  -15.5368  -30.2998   23.7672 H   0  0  0  0  0  0
  -15.8674  -28.0830   22.7075 H   0  0  0  0  0  0
  -24.6013  -30.6891   25.7798 H   0  0  0  0  0  0
  -24.8858  -32.2743   26.4877 H   0  0  0  0  0  0
  -25.8123  -30.8853   27.0241 H   0  0  0  0  0  0
  -26.2981  -29.6627   24.1331 H   0  0  0  0  0  0
  -27.4156  -29.7270   25.4753 H   0  0  0  0  0  0
  -27.8821  -30.4211   23.9428 H   0  0  0  0  0  0
  -27.2774  -33.3621   26.1994 H   0  0  0  0  0  0
  -28.3925  -32.6747   25.0276 H   0  0  0  0  0  0
  -28.0769  -31.8420   26.5417 H   0  0  0  0  0  0
  -28.2580  -38.0105   24.7552 H   0  0  0  0  0  0
  -28.1124  -36.2640   24.6247 H   0  0  0  0  0  0
  -27.2316  -37.1366   25.8874 H   0  0  0  0  0  0
  -20.9440  -29.8721   21.6807 H   0  0  0  0  0  0
  -26.0169  -38.2833   24.1422 H   0  0  0  0  0  0
  -31.5156  -17.4523   19.5823 H   0  0  0  0  0  0
  -27.9662  -20.3022   21.5135 H   0  0  0  0  0  0
  -28.7246  -23.5553   18.2869 H   0  0  0  0  0  0
  -28.3890  -25.8023   18.2656 H   0  0  0  0  0  0
  -27.1241  -18.0520   25.8292 H   0  0  0  0  0  0
  -26.7091  -16.7199   24.7545 H   0  0  0  0  0  0
  -25.9278  -18.2876   24.5600 H   0  0  0  0  0  0
  -27.4704  -16.7842   22.2797 H   0  0  0  0  0  0
  -26.7597  -18.3316   22.0693 H   0  0  0  0  0  0
  -27.8524  -22.4061   20.5301 H   0  0  0  0  0  0
  -29.2417  -23.1839   21.2631 H   0  0  0  0  0  0
  -28.9292  -17.7952   24.1626 H   0  0  0  0  0  0
  -28.1168  -19.3128   23.9132 H   0  0  0  0  0  0
  -29.3641  -16.4579   23.0915 H   0  0  0  0  0  0
  1 25  1  0  0  0
  1 30  2  0  0  0
  1 79  1  0  0  0
  2  3  1  0  0  0
  2 25  1  0  0  0
  2 87  1  0  0  0
  2 88  1  0  0  0
  3  4  1  0  0  0
  3 89  1  0  0  0
  3 90  1  0  0  0
  4  5  1  0  0  0
  4 91  1  0  0  0
  4 92  1  0  0  0
  5  6  1  0  0  0
  5 26  1  0  0  0
  5 93  1  0  0  0
  6 25  1  0  0  0
  6 94  1  0  0  0
  6 95  1  0  0  0
  7  8  2  0  0  0
  7 26  1  0  0  0
  7 29  1  0  0  0
  8  9  1  0  0  0
  8 22  1  0  0  0
  9 10  1  0  0  0
  9 27  2  0  0  0
 10 11  2  0  0  0
 10 15  1  0  0  0
 11 12  1  0  0  0
 11 96  1  0  0  0
 12 13  2  0  0  0
 12 97  1  0  0  0
 13 14  1  0  0  0
 13 31  1  0  0  0
 14 15  2  0  0  0
 14 98  1  0  0  0
 15 99  1  0  0  0
 16 17  2  0  0  0
 16 21  1  0  0  0
 16 31  1  0  0  0
 17 18  1  0  0  0
 17100  1  0  0  0
 18 19  2  0  0  0
 18101  1  0  0  0
 19 20  1  0  0  0
 19 24  1  0  0  0
 20 21  2  0  0  0
 20102  1  0  0  0
 21 23  1  0  0  0
 22 28  1  0  0  0
 22 32  2  0  0  0
 26 27  1  0  0  0
 28103  1  0  0  0
 28104  1  0  0  0
 29105  1  0  0  0
 29106  1  0  0  0
 33 34  1  0  0  0
 33 66  1  0  0  0
 33 70  2  0  0  0
 34 36  1  0  0  0
 34 59  1  0  0  0
 34107  1  0  0  0
 35 44  2  0  0  0
 35 45  1  0  0  0
 35 68  1  0  0  0
 36 56  1  0  0  0
 36108  1  0  0  0
 37 39  1  0  0  0
 37 47  1  0  0  0
 37 66  1  0  0  0
 37109  1  0  0  0
 38 43  2  0  0  0
 38 46  1  0  0  0
 38 47  1  0  0  0
 39 64  1  0  0  0
 39 67  2  0  0  0
 40 52  1  0  0  0
 40 53  2  0  0  0
 40 58  1  0  0  0
 41110  1  0  0  0
 41111  1  0  0  0
 41112  1  0  0  0
 41 48  1  0  0  0
 42 43  1  0  0  0
 42 66  1  0  0  0
 42113  1  0  0  0
 42114  1  0  0  0
 43 44  1  0  0  0
 44115  1  0  0  0
 45 46  2  0  0  0
 45116  1  0  0  0
 46117  1  0  0  0
 47118  1  0  0  0
 47119  1  0  0  0
 48 56  1  0  0  0
 48 65  1  0  0  0
 48120  1  0  0  0
 49 50  1  0  0  0
 49 53  1  0  0  0
 49 64  1  0  0  0
 49121  1  0  0  0
 50 51  1  0  0  0
 50122  1  0  0  0
 50123  1  0  0  0
 51 52  1  0  0  0
 51124  1  0  0  0
 51125  1  0  0  0
 52126  1  0  0  0
 52127  1  0  0  0
 53 54  1  0  0  0
 54 55  2  0  0  0
 54128  1  0  0  0
 55 57  1  0  0  0
 55129  1  0  0  0
 56 69  2  0  0  0
 57 58  2  0  0  0
 57130  1  0  0  0
 58131  1  0  0  0
 59 60  1  0  0  0
 59 61  1  0  0  0
 59 62  1  0  0  0
 60132  1  0  0  0
 60133  1  0  0  0
 60134  1  0  0  0
 61135  1  0  0  0
 61136  1  0  0  0
 61137  1  0  0  0
 62138  1  0  0  0
 62139  1  0  0  0
 62140  1  0  0  0
 63 65  1  0  0  0
 63141  1  0  0  0
 63142  1  0  0  0
 63143  1  0  0  0
 64144  1  0  0  0
 65145  1  0  0  0
 68 78  1  0  0  0
 71 73  2  0  0  0
 71 76  1  0  0  0
 71146  1  0  0  0
 72 74  2  0  0  0
 72 75  1  0  0  0
 72147  1  0  0  0
 73 74  1  0  0  0
 73 79  1  0  0  0
 74 81  1  0  0  0
 75 76  2  0  0  0
 75 85  1  0  0  0
 76 86  1  0  0  0
 77 78  2  0  0  0
 77 82  1  0  0  0
 77148  1  0  0  0
 78149  1  0  0  0
 79 84  2  0  0  0
 80 83  1  0  0  0
 80150  1  0  0  0
 80151  1  0  0  0
 80152  1  0  0  0
 81 83  1  0  0  0
 81153  1  0  0  0
 81154  1  0  0  0
 82 85  1  0  0  0
 82155  1  0  0  0
 82156  1  0  0  0
 83157  1  0  0  0
 83158  1  0  0  0
 84159  1  0  0  0
M  ISO  4   1 100  68 101  78 101  79 100
M  END
> <chiral flag>
0

> <version>
0

> <s_m_source_file>
/data/baiqing/PycharmProjects/Reinvent-master-3.2/result/LINK_invent/BTK/process_docking_weight1_custom_product_contain_oxygen_bond_distance_aromatic_linkinvent_7_9_3/rearranged_h_0113.sdf

> <i_m_source_file_index>
90

> <r_mmod_Potential_Energy-OPLS-2005>
373.093505859375

> <r_mmod_Stretch_Energy-OPLS-2005>
123.902221679688

> <r_mmod_Bend_Energy-OPLS-2005>
227.249038696289

> <r_mmod_Torsional_Energy-OPLS-2005>
204.226135253906

> <r_mmod_Improper_Torsional_Energy-OPLS-2005>
3.61160182952881

> <r_mmod_Van_der_Waal_Energy-OPLS-2005>
145.003311157227

> <r_mmod_Electrostatic_Energy-OPLS-2005>
-215.083053588867

> <r_mmod_Solvation_Energy-OPLS-2005>
-189.962432861328

> <b_mmod_Minimization_Converged-OPLS-2005>
0

> <r_mmod_RMS_Derivative-OPLS-2005>
1.71738040447235

$$$$
90
                    3D
 Structure written by MMmdl.
164173  0  0  1  0            999 V2000
  -30.6018  -14.6640   20.4919 C   0  0  0  0  0  0
  -30.4431  -12.4057   19.4542 C   0  0  0  0  0  0
  -29.5108  -12.5103   18.2254 C   0  0  0  0  0  0
  -28.0335  -12.3422   18.6360 C   0  0  0  0  0  0
  -27.6529  -13.2144   19.8616 C   0  0  2  0  0  0
  -28.6978  -13.0739   20.9921 C   0  0  0  0  0  0
  -25.2562  -13.8155   20.5667 C   0  0  0  0  0  0
  -24.1833  -13.0430   20.9201 C   0  0  0  0  0  0
  -24.6396  -11.6899   20.8745 C   0  0  0  0  0  0
  -23.9061  -10.4286   21.0407 C   0  0  0  0  0  0
  -24.3614   -9.4203   21.9184 C   0  0  0  0  0  0
  -23.6290   -8.2239   22.0753 C   0  0  0  0  0  0
  -22.4273   -8.0277   21.3543 C   0  0  0  0  0  0
  -21.9906   -9.0249   20.4645 C   0  0  0  0  0  0
  -22.7232  -10.2130   20.3055 C   0  0  0  0  0  0
  -21.6852   -6.0733   22.5278 C   0  0  0  0  0  0
  -21.4011   -6.5638   23.8211 C   0  0  0  0  0  0
  -21.3660   -5.6791   24.9174 C   0  0  0  0  0  0
  -21.6048   -4.3055   24.7226 C   0  0  0  0  0  0
  -21.8819   -3.8144   23.4347 C   0  0  0  0  0  0
  -21.9192   -4.6960   22.3403 C   0  0  0  0  0  0
  -22.7856  -13.5231   21.1860 C   0  0  0  0  0  0
  -22.1662   -4.2145   21.0980 F   0  0  0  0  0  0
  -21.5631   -3.4540   25.7739 F   0  0  0  0  0  0
  -30.0115  -13.4270   20.4299 N   0  0  0  0  0  0
  -26.2985  -12.9331   20.3294 N   0  0  0  0  0  0
  -25.9322  -11.6491   20.5747 N   0  0  0  0  0  0
  -22.0492  -12.8226   22.0412 N   0  0  0  0  0  0
  -25.4268  -15.1869   20.4029 N   0  0  0  0  0  0
  -31.7669  -14.8359   20.1205 O   0  0  0  0  0  0
  -21.6639   -6.8873   21.4238 O   0  0  0  0  0  0
  -22.3547  -14.5539   20.6703 O   0  0  0  0  0  0
  -24.6261  -31.8588   23.2016 C   0  0  0  0  0  0
  -25.9107  -32.4773   23.8350 C   0  0  1  0  0  0
  -27.2291  -27.3200   20.1273 C   0  0  0  0  0  0
  -25.5923  -33.8574   24.2281 N   0  0  0  0  0  0
  -23.4206  -30.4804   21.5438 C   0  0  2  0  0  0
  -24.8692  -28.9305   20.1142 C   0  0  0  0  0  0
  -22.7475  -29.4618   22.4940 C   0  0  0  0  0  0
  -18.0286  -28.1385   22.8486 C   0  0  0  0  0  0
  -24.1488  -36.7290   23.2641 C   0  0  0  0  0  0
  -25.9603  -30.7910   21.3709 C   0  0  0  0  0  0
  -26.0372  -29.4169   20.7161 C   0  0  0  0  0  0
  -27.2231  -28.6247   20.7084 C   0  0  0  0  0  0
  -26.0417  -26.8812   19.5041 C   0  0  0  0  0  0
  -24.8728  -27.6678   19.4984 C   0  0  0  0  0  0
  -23.6362  -29.8104   20.1607 C   0  0  0  0  0  0
  -25.4112  -36.3080   24.0333 C   0  0  1  0  0  0
  -20.5885  -28.3687   23.1285 C   0  0  2  0  0  0
  -20.6774  -26.9410   22.5411 C   0  0  0  0  0  0
  -19.5751  -26.6382   21.5212 C   0  0  0  0  0  0
  -18.1930  -26.7928   22.1623 C   0  0  0  0  0  0
  -19.1537  -28.8853   23.2880 C   0  0  0  0  0  0
  -18.9460  -30.1455   23.8899 C   0  0  0  0  0  0
  -17.6459  -30.6587   24.0563 C   0  0  0  0  0  0
  -25.9047  -34.9449   23.5106 C   0  0  0  0  0  0
  -16.5351  -29.9083   23.6331 C   0  0  0  0  0  0
  -16.7271  -28.6500   23.0354 C   0  0  0  0  0  0
  -26.4498  -31.6582   25.0718 C   0  0  0  0  0  0
  -25.3736  -31.3710   26.1447 C   0  0  0  0  0  0
  -27.0344  -30.3010   24.6166 C   0  0  0  0  0  0
  -27.6060  -32.4315   25.7487 C   0  0  0  0  0  0
  -27.5578  -37.1802   24.8468 C   0  0  0  0  0  0
  -21.4189  -29.3039   22.3680 N   0  0  0  0  0  0
  -26.4292  -37.3774   23.9408 N   0  0  0  0  0  0
  -24.6878  -31.0600   22.0962 N   0  0  0  0  0  0
  -23.4192  -28.8165   23.3031 O   0  0  0  0  0  0
  -28.3461  -26.4742   20.1382 O   0  0  0  0  0  0
  -26.5615  -34.8918   22.4673 O   0  0  0  0  0  0
  -23.5424  -32.1383   23.7345 O   0  0  0  0  0  0
  -30.9661  -17.9420   20.4092 C   0  0  0  0  0  0
  -28.5768  -17.8891   20.6262 C   0  0  0  0  0  0
  -29.6650  -20.0827   20.1594 C   0  0  0  0  0  0
  -29.7978  -17.1570   20.6074 C   0  0  0  0  0  0
  -30.9051  -19.3589   20.2025 C   0  0  0  0  0  0
  -28.5028  -19.2974   20.3991 C   0  0  0  0  0  0
  -28.7052  -23.8590   19.8641 C   0  0  0  0  0  0
  -29.0499  -22.6294   20.4248 C   0  0  0  0  0  0
  -28.8705  -21.7610   17.3878 C   0  0  0  0  0  0
  -28.7515  -24.1521   18.3612 C   0  0  0  0  0  0
  -28.1107  -23.0805   17.4546 C   0  0  0  0  0  0
  -30.0349  -21.5659   18.3527 C   0  0  0  0  0  0
  -28.9116  -22.4351   21.9297 C   0  0  0  0  0  0
  -28.1686  -25.1025   20.6821 C   0  0  0  0  0  0
  -29.5945  -21.4768   19.7500 N   0  0  0  0  0  0
  -32.1081  -20.0544   20.0378 N   0  0  0  0  0  0
  -29.7609  -15.7005   20.8207 N   0  0  0  0  0  0
  -28.5429  -20.8797   16.5892 O   0  0  0  0  0  0
  -27.2820  -19.8880   20.3685 F   0  0  0  0  0  0
  -31.4830  -12.5411   19.1519 H   0  0  0  0  0  0
  -30.3876  -11.4104   19.8977 H   0  0  0  0  0  0
  -29.7799  -11.7580   17.4827 H   0  0  0  0  0  0
  -29.6478  -13.4787   17.7412 H   0  0  0  0  0  0
  -27.8739  -11.2888   18.8692 H   0  0  0  0  0  0
  -27.3789  -12.5683   17.7935 H   0  0  0  0  0  0
  -27.6680  -14.2482   19.5162 H   0  0  0  0  0  0
  -28.7152  -12.0517   21.3731 H   0  0  0  0  0  0
  -28.4389  -13.7027   21.8453 H   0  0  0  0  0  0
  -25.2757   -9.5684   22.4760 H   0  0  0  0  0  0
  -24.0001   -7.4631   22.7471 H   0  0  0  0  0  0
  -21.0838   -8.8764   19.8951 H   0  0  0  0  0  0
  -22.3687  -10.9668   19.6168 H   0  0  0  0  0  0
  -21.1999   -7.6146   23.9713 H   0  0  0  0  0  0
  -21.1485   -6.0522   25.9077 H   0  0  0  0  0  0
  -22.0598   -2.7605   23.2848 H   0  0  0  0  0  0
  -22.4103  -11.9887   22.4804 H   0  0  0  0  0  0
  -21.1110  -13.1254   22.2610 H   0  0  0  0  0  0
  -24.6475  -15.8310   20.4854 H   0  0  0  0  0  0
  -26.2465  -15.6093   19.9882 H   0  0  0  0  0  0
  -26.7176  -32.5448   23.1100 H   0  0  0  0  0  0
  -25.0081  -33.9717   25.0433 H   0  0  0  0  0  0
  -22.7147  -31.3008   21.3982 H   0  0  0  0  0  0
  -23.3750  -35.9624   23.3309 H   0  0  0  0  0  0
  -24.3579  -36.8903   22.2054 H   0  0  0  0  0  0
  -23.7241  -37.6495   23.6658 H   0  0  0  0  0  0
  -26.0887  -31.5537   20.6015 H   0  0  0  0  0  0
  -26.8412  -30.8428   21.9990 H   0  0  0  0  0  0
  -28.1225  -28.9956   21.1797 H   0  0  0  0  0  0
  -26.0120  -25.9118   19.0270 H   0  0  0  0  0  0
  -23.9780  -27.2891   19.0236 H   0  0  0  0  0  0
  -23.7553  -30.5846   19.4019 H   0  0  0  0  0  0
  -22.7566  -29.2384   19.8596 H   0  0  0  0  0  0
  -25.1294  -36.1935   25.0827 H   0  0  0  0  0  0
  -20.9976  -28.3258   24.1407 H   0  0  0  0  0  0
  -20.5673  -26.2297   23.3610 H   0  0  0  0  0  0
  -21.6642  -26.7440   22.1204 H   0  0  0  0  0  0
  -19.6911  -25.6293   21.1243 H   0  0  0  0  0  0
  -19.6689  -27.3194   20.6743 H   0  0  0  0  0  0
  -17.4200  -26.6678   21.4024 H   0  0  0  0  0  0
  -18.0328  -26.0068   22.9017 H   0  0  0  0  0  0
  -19.7935  -30.7269   24.2270 H   0  0  0  0  0  0
  -17.5014  -31.6271   24.5158 H   0  0  0  0  0  0
  -15.5352  -30.2985   23.7655 H   0  0  0  0  0  0
  -15.8671  -28.0817   22.7074 H   0  0  0  0  0  0
  -24.5919  -30.7050   25.7776 H   0  0  0  0  0  0
  -24.8919  -32.2869   26.4879 H   0  0  0  0  0  0
  -25.8068  -30.8886   27.0217 H   0  0  0  0  0  0
  -26.2916  -29.6752   24.1207 H   0  0  0  0  0  0
  -27.4067  -29.7274   25.4665 H   0  0  0  0  0  0
  -27.8772  -30.4303   23.9372 H   0  0  0  0  0  0
  -27.2677  -33.3617   26.2063 H   0  0  0  0  0  0
  -28.3871  -32.6868   25.0314 H   0  0  0  0  0  0
  -28.0727  -31.8439   26.5403 H   0  0  0  0  0  0
  -28.2601  -38.0095   24.7507 H   0  0  0  0  0  0
  -28.1070  -36.2626   24.6303 H   0  0  0  0  0  0
  -27.2295  -37.1458   25.8871 H   0  0  0  0  0  0
  -20.9369  -29.8755   21.6882 H   0  0  0  0  0  0
  -26.0175  -38.2850   24.1405 H   0  0  0  0  0  0
  -31.9292  -17.4517   20.4139 H   0  0  0  0  0  0
  -27.6482  -17.3633   20.7904 H   0  0  0  0  0  0
  -29.7798  -24.3652   18.0676 H   0  0  0  0  0  0
  -28.2087  -25.0741   18.1588 H   0  0  0  0  0  0
  -27.0936  -22.8740   17.7870 H   0  0  0  0  0  0
  -28.0339  -23.4670   16.4384 H   0  0  0  0  0  0
  -30.7436  -22.3859   18.2440 H   0  0  0  0  0  0
  -30.5735  -20.6769   18.0245 H   0  0  0  0  0  0
  -27.8775  -22.5963   22.2365 H   0  0  0  0  0  0
  -29.5390  -23.1502   22.4623 H   0  0  0  0  0  0
  -29.2036  -21.4473   22.2823 H   0  0  0  0  0  0
  -28.6451  -25.1069   21.6615 H   0  0  0  0  0  0
  -27.1157  -24.9068   20.8868 H   0  0  0  0  0  0
  -32.9434  -19.6571   20.4539 H   0  0  0  0  0  0
  -32.0447  -21.0577   20.1814 H   0  0  0  0  0  0
  -28.8613  -15.3526   21.1152 H   0  0  0  0  0  0
  1 25  1  0  0  0
  1 30  2  0  0  0
  1 87  1  0  0  0
  2  3  1  0  0  0
  2 25  1  0  0  0
  2 90  1  0  0  0
  2 91  1  0  0  0
  3  4  1  0  0  0
  3 92  1  0  0  0
  3 93  1  0  0  0
  4  5  1  0  0  0
  4 94  1  0  0  0
  4 95  1  0  0  0
  5  6  1  0  0  0
  5 26  1  0  0  0
  5 96  1  0  0  0
  6 25  1  0  0  0
  6 97  1  0  0  0
  6 98  1  0  0  0
  7  8  2  0  0  0
  7 26  1  0  0  0
  7 29  1  0  0  0
  8  9  1  0  0  0
  8 22  1  0  0  0
  9 10  1  0  0  0
  9 27  2  0  0  0
 10 11  2  0  0  0
 10 15  1  0  0  0
 11 12  1  0  0  0
 11 99  1  0  0  0
 12 13  2  0  0  0
 12100  1  0  0  0
 13 14  1  0  0  0
 13 31  1  0  0  0
 14 15  2  0  0  0
 14101  1  0  0  0
 15102  1  0  0  0
 16 17  2  0  0  0
 16 21  1  0  0  0
 16 31  1  0  0  0
 17 18  1  0  0  0
 17103  1  0  0  0
 18 19  2  0  0  0
 18104  1  0  0  0
 19 20  1  0  0  0
 19 24  1  0  0  0
 20 21  2  0  0  0
 20105  1  0  0  0
 21 23  1  0  0  0
 22 28  1  0  0  0
 22 32  2  0  0  0
 26 27  1  0  0  0
 28106  1  0  0  0
 28107  1  0  0  0
 29108  1  0  0  0
 29109  1  0  0  0
 33 34  1  0  0  0
 33 66  1  0  0  0
 33 70  2  0  0  0
 34 36  1  0  0  0
 34 59  1  0  0  0
 34110  1  0  0  0
 35 44  2  0  0  0
 35 45  1  0  0  0
 35 68  1  0  0  0
 36 56  1  0  0  0
 36111  1  0  0  0
 37 39  1  0  0  0
 37 47  1  0  0  0
 37 66  1  0  0  0
 37112  1  0  0  0
 38 43  2  0  0  0
 38 46  1  0  0  0
 38 47  1  0  0  0
 39 64  1  0  0  0
 39 67  2  0  0  0
 40 52  1  0  0  0
 40 53  2  0  0  0
 40 58  1  0  0  0
 41113  1  0  0  0
 41114  1  0  0  0
 41115  1  0  0  0
 41 48  1  0  0  0
 42 43  1  0  0  0
 42 66  1  0  0  0
 42116  1  0  0  0
 42117  1  0  0  0
 43 44  1  0  0  0
 44118  1  0  0  0
 45 46  2  0  0  0
 45119  1  0  0  0
 46120  1  0  0  0
 47121  1  0  0  0
 47122  1  0  0  0
 48 56  1  0  0  0
 48 65  1  0  0  0
 48123  1  0  0  0
 49 50  1  0  0  0
 49 53  1  0  0  0
 49 64  1  0  0  0
 49124  1  0  0  0
 50 51  1  0  0  0
 50125  1  0  0  0
 50126  1  0  0  0
 51 52  1  0  0  0
 51127  1  0  0  0
 51128  1  0  0  0
 52129  1  0  0  0
 52130  1  0  0  0
 53 54  1  0  0  0
 54 55  2  0  0  0
 54131  1  0  0  0
 55 57  1  0  0  0
 55132  1  0  0  0
 56 69  2  0  0  0
 57 58  2  0  0  0
 57133  1  0  0  0
 58134  1  0  0  0
 59 60  1  0  0  0
 59 61  1  0  0  0
 59 62  1  0  0  0
 60135  1  0  0  0
 60136  1  0  0  0
 60137  1  0  0  0
 61138  1  0  0  0
 61139  1  0  0  0
 61140  1  0  0  0
 62141  1  0  0  0
 62142  1  0  0  0
 62143  1  0  0  0
 63 65  1  0  0  0
 63144  1  0  0  0
 63145  1  0  0  0
 63146  1  0  0  0
 64147  1  0  0  0
 65148  1  0  0  0
 68 84  1  0  0  0
 71 74  2  0  0  0
 71 75  1  0  0  0
 71149  1  0  0  0
 72 74  1  0  0  0
 72 76  2  0  0  0
 72150  1  0  0  0
 73 75  2  0  0  0
 73 76  1  0  0  0
 73 85  1  0  0  0
 74 87  1  0  0  0
 75 86  1  0  0  0
 76 89  1  0  0  0
 77 78  2  0  0  0
 77 80  1  0  0  0
 77 84  1  0  0  0
 78 83  1  0  0  0
 78 85  1  0  0  0
 79 81  1  0  0  0
 79 82  1  0  0  0
 79 88  2  0  0  0
 80 81  1  0  0  0
 80151  1  0  0  0
 80152  1  0  0  0
 81153  1  0  0  0
 81154  1  0  0  0
 82 85  1  0  0  0
 82155  1  0  0  0
 82156  1  0  0  0
 83157  1  0  0  0
 83158  1  0  0  0
 83159  1  0  0  0
 84160  1  0  0  0
 84161  1  0  0  0
 86162  1  0  0  0
 86163  1  0  0  0
 87164  1  0  0  0
M  ISO  4   1 100  68 101  84 101  87 100
M  END
> <chiral flag>
0

> <version>
0

> <s_m_source_file>
/data/baiqing/PycharmProjects/Reinvent-master-3.2/result/LINK_invent/BTK/process_docking_weight1_custom_product_contain_oxygen_bond_distance_aromatic_linkinvent_7_9_3/rearranged_h_0113.sdf

> <i_m_source_file_index>
91

> <r_mmod_Potential_Energy-OPLS-2005>
208.383850097656

> <r_mmod_Stretch_Energy-OPLS-2005>
95.4252319335938

> <r_mmod_Bend_Energy-OPLS-2005>
144.938354492188

> <r_mmod_Torsional_Energy-OPLS-2005>
280.996948242188

> <r_mmod_Improper_Torsional_Energy-OPLS-2005>
9.72977256774902

> <r_mmod_Van_der_Waal_Energy-OPLS-2005>
155.022872924805

> <r_mmod_Electrostatic_Energy-OPLS-2005>
-307.884124755859

> <r_mmod_Solvation_Energy-OPLS-2005>
-221.851013183594

> <b_mmod_Minimization_Converged-OPLS-2005>
0

> <r_mmod_RMS_Derivative-OPLS-2005>
0.417395889759064

$$$$
91
                    3D
 Structure written by MMmdl.
158166  0  0  1  0            999 V2000
  -30.5255  -15.0158   20.4049 C   0  0  0  0  0  0
  -30.4486  -12.6275   19.5201 C   0  0  0  0  0  0
  -29.5342  -12.5366   18.2753 C   0  0  0  0  0  0
  -28.0689  -12.3143   18.6928 C   0  0  0  0  0  0
  -27.6351  -13.2551   19.8464 C   0  0  2  0  0  0
  -28.6748  -13.3134   20.9881 C   0  0  0  0  0  0
  -25.2490  -13.8235   20.5730 C   0  0  0  0  0  0
  -24.1807  -13.0447   20.9234 C   0  0  0  0  0  0
  -24.6421  -11.6934   20.8756 C   0  0  0  0  0  0
  -23.9099  -10.4304   21.0404 C   0  0  0  0  0  0
  -24.3639   -9.4212   21.9182 C   0  0  0  0  0  0
  -23.6307   -8.2252   22.0750 C   0  0  0  0  0  0
  -22.4291   -8.0294   21.3542 C   0  0  0  0  0  0
  -21.9933   -9.0271   20.4647 C   0  0  0  0  0  0
  -22.7267  -10.2148   20.3056 C   0  0  0  0  0  0
  -21.6856   -6.0751   22.5279 C   0  0  0  0  0  0
  -21.4011   -6.5649   23.8216 C   0  0  0  0  0  0
  -21.3653   -5.6795   24.9179 C   0  0  0  0  0  0
  -21.6042   -4.3058   24.7226 C   0  0  0  0  0  0
  -21.8816   -3.8155   23.4344 C   0  0  0  0  0  0
  -21.9190   -4.6975   22.3405 C   0  0  0  0  0  0
  -22.7824  -13.5214   21.1887 C   0  0  0  0  0  0
  -22.1649   -4.2161   21.0981 F   0  0  0  0  0  0
  -21.5635   -3.4541   25.7737 F   0  0  0  0  0  0
  -29.9477  -13.7377   20.3896 N   0  0  0  0  0  0
  -26.2931  -12.9472   20.3296 N   0  0  0  0  0  0
  -25.9365  -11.6598   20.5767 N   0  0  0  0  0  0
  -22.0462  -12.8205   22.0435 N   0  0  0  0  0  0
  -25.4139  -15.1969   20.4137 N   0  0  0  0  0  0
  -31.7144  -15.0763   20.0745 O   0  0  0  0  0  0
  -21.6646   -6.8895   21.4239 O   0  0  0  0  0  0
  -22.3501  -14.5511   20.6715 O   0  0  0  0  0  0
  -24.6481  -31.8386   23.1835 C   0  0  0  0  0  0
  -25.9230  -32.4666   23.8252 C   0  0  1  0  0  0
  -27.2247  -27.0882   20.1522 C   0  0  0  0  0  0
  -25.5969  -33.8480   24.2171 N   0  0  0  0  0  0
  -23.4550  -30.4543   21.5302 C   0  0  2  0  0  0
  -24.9079  -28.8728   20.1099 C   0  0  0  0  0  0
  -22.7592  -29.4505   22.4843 C   0  0  0  0  0  0
  -18.0306  -28.1383   22.8478 C   0  0  0  0  0  0
  -24.1492  -36.7238   23.2640 C   0  0  0  0  0  0
  -26.0156  -30.6961   21.3912 C   0  0  0  0  0  0
  -26.0877  -29.3034   20.7308 C   0  0  0  0  0  0
  -27.2449  -28.4283   20.7314 C   0  0  0  0  0  0
  -26.0164  -26.7720   19.4921 C   0  0  0  0  0  0
  -24.8874  -27.6219   19.4755 C   0  0  0  0  0  0
  -23.6855  -29.7794   20.1512 C   0  0  0  0  0  0
  -25.4128  -36.3014   24.0314 C   0  0  1  0  0  0
  -20.5926  -28.3696   23.1214 C   0  0  2  0  0  0
  -20.6802  -26.9420   22.5319 C   0  0  0  0  0  0
  -19.5730  -26.6393   21.5168 C   0  0  0  0  0  0
  -18.1942  -26.7915   22.1640 C   0  0  0  0  0  0
  -19.1572  -28.8860   23.2850 C   0  0  0  0  0  0
  -18.9496  -30.1453   23.8876 C   0  0  0  0  0  0
  -17.6494  -30.6578   24.0587 C   0  0  0  0  0  0
  -25.9076  -34.9390   23.5052 C   0  0  0  0  0  0
  -16.5386  -29.9073   23.6356 C   0  0  0  0  0  0
  -16.7296  -28.6490   23.0372 C   0  0  0  0  0  0
  -26.4535  -31.6555   25.0720 C   0  0  0  0  0  0
  -25.3713  -31.3749   26.1410 C   0  0  0  0  0  0
  -27.0418  -30.2943   24.6352 C   0  0  0  0  0  0
  -27.6058  -32.4336   25.7500 C   0  0  0  0  0  0
  -27.5579  -37.1769   24.8461 C   0  0  0  0  0  0
  -21.4278  -29.3033   22.3591 N   0  0  0  0  0  0
  -26.4282  -37.3740   23.9411 N   0  0  0  0  0  0
  -24.7261  -31.0189   22.0895 N   0  0  0  0  0  0
  -23.4203  -28.8064   23.3024 O   0  0  0  0  0  0
  -28.2666  -26.0743   20.2248 O   0  0  0  0  0  0
  -26.5659  -34.8905   22.4625 O   0  0  0  0  0  0
  -23.5587  -32.1286   23.7026 O   0  0  0  0  0  0
  -29.2703  -21.1825   22.5213 C   0  0  0  0  0  0
  -29.6954  -20.6454   23.7309 C   0  0  0  0  0  0
  -29.3786  -20.5348   21.2603 C   0  0  0  0  0  0
  -29.8596  -19.0611   21.3113 C   0  0  0  0  0  0
  -30.4941  -18.6778   22.5512 C   0  0  0  0  0  0
  -30.3552  -19.4261   23.7420 C   0  0  0  0  0  0
  -30.2443  -23.6737   20.9189 C   0  0  0  0  0  0
  -28.8825  -21.6769   20.1971 C   0  0  0  0  0  0
  -29.0568  -23.3012   20.4040 C   0  0  0  0  0  0
  -31.4179  -17.4621   22.6495 C   0  0  0  0  0  0
  -29.8710  -17.7808   20.2429 C   0  0  0  0  0  0
  -27.9936  -24.5261   20.0311 C   0  0  0  0  0  0
  -30.8586  -18.9800   24.9630 N   0  0  0  0  0  0
  -29.7471  -16.2073   20.5991 N   0  0  0  0  0  0
  -28.3524  -21.2804   19.1568 O   0  0  0  0  0  0
  -31.4805  -12.7889   19.2039 H   0  0  0  0  0  0
  -30.4565  -11.6830   20.0662 H   0  0  0  0  0  0
  -29.8639  -11.7261   17.6235 H   0  0  0  0  0  0
  -29.6193  -13.4544   17.6918 H   0  0  0  0  0  0
  -27.9738  -11.2765   19.0155 H   0  0  0  0  0  0
  -27.4041  -12.4301   17.8368 H   0  0  0  0  0  0
  -27.5921  -14.2522   19.4067 H   0  0  0  0  0  0
  -28.7751  -12.3489   21.4877 H   0  0  0  0  0  0
  -28.3663  -14.0272   21.7543 H   0  0  0  0  0  0
  -25.2767   -9.5693   22.4787 H   0  0  0  0  0  0
  -24.0011   -7.4635   22.7460 H   0  0  0  0  0  0
  -21.0870   -8.8789   19.8955 H   0  0  0  0  0  0
  -22.3702  -10.9695   19.6189 H   0  0  0  0  0  0
  -21.1994   -7.6153   23.9726 H   0  0  0  0  0  0
  -21.1479   -6.0526   25.9085 H   0  0  0  0  0  0
  -22.0604   -2.7617   23.2837 H   0  0  0  0  0  0
  -22.4066  -11.9871   22.4841 H   0  0  0  0  0  0
  -21.1075  -13.1229   22.2633 H   0  0  0  0  0  0
  -24.6458  -15.8479   20.5350 H   0  0  0  0  0  0
  -26.2539  -15.6372   20.0610 H   0  0  0  0  0  0
  -26.7306  -32.5245   23.0984 H   0  0  0  0  0  0
  -25.0112  -33.9590   25.0318 H   0  0  0  0  0  0
  -22.7612  -31.2827   21.3704 H   0  0  0  0  0  0
  -23.3773  -35.9547   23.3267 H   0  0  0  0  0  0
  -24.3571  -36.8895   22.2056 H   0  0  0  0  0  0
  -23.7227  -37.6418   23.6701 H   0  0  0  0  0  0
  -26.1820  -31.4507   20.6206 H   0  0  0  0  0  0
  -26.8813  -30.7432   22.0407 H   0  0  0  0  0  0
  -28.1425  -28.7510   21.2391 H   0  0  0  0  0  0
  -25.9116  -25.8178   18.9991 H   0  0  0  0  0  0
  -23.9876  -27.2867   18.9777 H   0  0  0  0  0  0
  -23.8259  -30.5532   19.3956 H   0  0  0  0  0  0
  -22.7985  -29.2249   19.8377 H   0  0  0  0  0  0
  -25.1313  -36.1825   25.0807 H   0  0  0  0  0  0
  -21.0025  -28.3231   24.1330 H   0  0  0  0  0  0
  -20.5762  -26.2292   23.3512 H   0  0  0  0  0  0
  -21.6656  -26.7478   22.1058 H   0  0  0  0  0  0
  -19.6842  -25.6287   21.1226 H   0  0  0  0  0  0
  -19.6629  -27.3165   20.6663 H   0  0  0  0  0  0
  -17.4170  -26.6562   21.4108 H   0  0  0  0  0  0
  -18.0453  -26.0091   22.9094 H   0  0  0  0  0  0
  -19.7985  -30.7261   24.2207 H   0  0  0  0  0  0
  -17.5046  -31.6251   24.5200 H   0  0  0  0  0  0
  -15.5380  -30.2961   23.7694 H   0  0  0  0  0  0
  -15.8679  -28.0815   22.7119 H   0  0  0  0  0  0
  -24.5905  -30.7085   25.7721 H   0  0  0  0  0  0
  -24.8902  -32.2935   26.4778 H   0  0  0  0  0  0
  -25.7995  -30.8952   27.0220 H   0  0  0  0  0  0
  -26.3053  -29.6652   24.1344 H   0  0  0  0  0  0
  -27.3984  -29.7259   25.4952 H   0  0  0  0  0  0
  -27.8981  -30.4158   23.9718 H   0  0  0  0  0  0
  -27.2640  -33.3656   26.2013 H   0  0  0  0  0  0
  -28.3897  -32.6859   25.0347 H   0  0  0  0  0  0
  -28.0710  -31.8512   26.5462 H   0  0  0  0  0  0
  -28.2566  -38.0096   24.7539 H   0  0  0  0  0  0
  -28.1110  -36.2626   24.6248 H   0  0  0  0  0  0
  -27.2302  -37.1358   25.8864 H   0  0  0  0  0  0
  -20.9506  -29.8733   21.6749 H   0  0  0  0  0  0
  -26.0141  -38.2795   24.1446 H   0  0  0  0  0  0
  -28.8288  -22.1629   22.6200 H   0  0  0  0  0  0
  -29.5663  -21.2189   24.6388 H   0  0  0  0  0  0
  -31.0122  -22.9561   21.1725 H   0  0  0  0  0  0
  -30.4711  -24.7157   21.0899 H   0  0  0  0  0  0
  -31.9275  -17.2584   21.7107 H   0  0  0  0  0  0
  -30.8654  -16.5830   22.9797 H   0  0  0  0  0  0
  -32.2311  -17.6242   23.3558 H   0  0  0  0  0  0
  -30.7750  -17.8906   19.6417 H   0  0  0  0  0  0
  -29.0590  -17.9824   19.5436 H   0  0  0  0  0  0
  -27.0847  -24.2986   20.5875 H   0  0  0  0  0  0
  -27.7367  -24.3795   18.9819 H   0  0  0  0  0  0
  -30.9039  -19.6035   25.7625 H   0  0  0  0  0  0
  -31.4964  -18.1926   25.0071 H   0  0  0  0  0  0
  -28.8195  -15.9827   20.9245 H   0  0  0  0  0  0
  1 25  1  0  0  0
  1 30  2  0  0  0
  1 84  1  0  0  0
  2  3  1  0  0  0
  2 25  1  0  0  0
  2 86  1  0  0  0
  2 87  1  0  0  0
  3  4  1  0  0  0
  3 88  1  0  0  0
  3 89  1  0  0  0
  4  5  1  0  0  0
  4 90  1  0  0  0
  4 91  1  0  0  0
  5  6  1  0  0  0
  5 26  1  0  0  0
  5 92  1  0  0  0
  6 25  1  0  0  0
  6 93  1  0  0  0
  6 94  1  0  0  0
  7  8  2  0  0  0
  7 26  1  0  0  0
  7 29  1  0  0  0
  8  9  1  0  0  0
  8 22  1  0  0  0
  9 10  1  0  0  0
  9 27  2  0  0  0
 10 11  2  0  0  0
 10 15  1  0  0  0
 11 12  1  0  0  0
 11 95  1  0  0  0
 12 13  2  0  0  0
 12 96  1  0  0  0
 13 14  1  0  0  0
 13 31  1  0  0  0
 14 15  2  0  0  0
 14 97  1  0  0  0
 15 98  1  0  0  0
 16 17  2  0  0  0
 16 21  1  0  0  0
 16 31  1  0  0  0
 17 18  1  0  0  0
 17 99  1  0  0  0
 18 19  2  0  0  0
 18100  1  0  0  0
 19 20  1  0  0  0
 19 24  1  0  0  0
 20 21  2  0  0  0
 20101  1  0  0  0
 21 23  1  0  0  0
 22 28  1  0  0  0
 22 32  2  0  0  0
 26 27  1  0  0  0
 28102  1  0  0  0
 28103  1  0  0  0
 29104  1  0  0  0
 29105  1  0  0  0
 33 34  1  0  0  0
 33 66  1  0  0  0
 33 70  2  0  0  0
 34 36  1  0  0  0
 34 59  1  0  0  0
 34106  1  0  0  0
 35 44  2  0  0  0
 35 45  1  0  0  0
 35 68  1  0  0  0
 36 56  1  0  0  0
 36107  1  0  0  0
 37 39  1  0  0  0
 37 47  1  0  0  0
 37 66  1  0  0  0
 37108  1  0  0  0
 38 43  2  0  0  0
 38 46  1  0  0  0
 38 47  1  0  0  0
 39 64  1  0  0  0
 39 67  2  0  0  0
 40 52  1  0  0  0
 40 53  2  0  0  0
 40 58  1  0  0  0
 41109  1  0  0  0
 41110  1  0  0  0
 41111  1  0  0  0
 41 48  1  0  0  0
 42 43  1  0  0  0
 42 66  1  0  0  0
 42112  1  0  0  0
 42113  1  0  0  0
 43 44  1  0  0  0
 44114  1  0  0  0
 45 46  2  0  0  0
 45115  1  0  0  0
 46116  1  0  0  0
 47117  1  0  0  0
 47118  1  0  0  0
 48 56  1  0  0  0
 48 65  1  0  0  0
 48119  1  0  0  0
 49 50  1  0  0  0
 49 53  1  0  0  0
 49 64  1  0  0  0
 49120  1  0  0  0
 50 51  1  0  0  0
 50121  1  0  0  0
 50122  1  0  0  0
 51 52  1  0  0  0
 51123  1  0  0  0
 51124  1  0  0  0
 52125  1  0  0  0
 52126  1  0  0  0
 53 54  1  0  0  0
 54 55  2  0  0  0
 54127  1  0  0  0
 55 57  1  0  0  0
 55128  1  0  0  0
 56 69  2  0  0  0
 57 58  2  0  0  0
 57129  1  0  0  0
 58130  1  0  0  0
 59 60  1  0  0  0
 59 61  1  0  0  0
 59 62  1  0  0  0
 60131  1  0  0  0
 60132  1  0  0  0
 60133  1  0  0  0
 61134  1  0  0  0
 61135  1  0  0  0
 61136  1  0  0  0
 62137  1  0  0  0
 62138  1  0  0  0
 62139  1  0  0  0
 63 65  1  0  0  0
 63140  1  0  0  0
 63141  1  0  0  0
 63142  1  0  0  0
 64143  1  0  0  0
 65144  1  0  0  0
 68 82  1  0  0  0
 71 72  2  0  0  0
 71 73  1  0  0  0
 71145  1  0  0  0
 72 76  1  0  0  0
 72146  1  0  0  0
 73 74  2  0  0  0
 73 78  1  0  0  0
 74 75  1  0  0  0
 74 81  1  0  0  0
 75 76  2  0  0  0
 75 80  1  0  0  0
 76 83  1  0  0  0
 77 79  2  0  0  0
 77147  1  0  0  0
 77148  1  0  0  0
 78 79  1  0  0  0
 78 85  2  0  0  0
 79 82  1  0  0  0
 80149  1  0  0  0
 80150  1  0  0  0
 80151  1  0  0  0
 81 84  1  0  0  0
 81152  1  0  0  0
 81153  1  0  0  0
 82154  1  0  0  0
 82155  1  0  0  0
 83156  1  0  0  0
 83157  1  0  0  0
 84158  1  0  0  0
M  ISO  4   1 100  68 101  82 101  84 100
M  END
> <chiral flag>
0

> <version>
0

> <s_m_source_file>
/data/baiqing/PycharmProjects/Reinvent-master-3.2/result/LINK_invent/BTK/process_docking_weight1_custom_product_contain_oxygen_bond_distance_aromatic_linkinvent_7_9_3/rearranged_h_0113.sdf

> <i_m_source_file_index>
92

> <r_mmod_Potential_Energy-OPLS-2005>
663.970275878906

> <r_mmod_Stretch_Energy-OPLS-2005>
372.322296142578

> <r_mmod_Bend_Energy-OPLS-2005>
336.491424560547

> <r_mmod_Torsional_Energy-OPLS-2005>
223.228073120117

> <r_mmod_Improper_Torsional_Energy-OPLS-2005>
5.98252773284912

> <r_mmod_Van_der_Waal_Energy-OPLS-2005>
154.617248535156

> <r_mmod_Electrostatic_Energy-OPLS-2005>
-442.628479003906

> <r_mmod_Solvation_Energy-OPLS-2005>
-225.450393676758

> <b_mmod_Minimization_Converged-OPLS-2005>
0

> <r_mmod_RMS_Derivative-OPLS-2005>
2.17959642410278

$$$$
92
                    3D
 Structure written by MMmdl.
159168  0  0  1  0            999 V2000
  -30.5620  -14.6928   20.4918 C   0  0  0  0  0  0
  -30.4550  -12.4212   19.4570 C   0  0  0  0  0  0
  -29.5166  -12.4977   18.2288 C   0  0  0  0  0  0
  -28.0354  -12.3386   18.6346 C   0  0  0  0  0  0
  -27.6527  -13.2092   19.8595 C   0  0  2  0  0  0
  -28.6980  -13.0533   20.9863 C   0  0  0  0  0  0
  -25.2558  -13.8152   20.5670 C   0  0  0  0  0  0
  -24.1808  -13.0424   20.9145 C   0  0  0  0  0  0
  -24.6375  -11.6892   20.8713 C   0  0  0  0  0  0
  -23.9043  -10.4275   21.0384 C   0  0  0  0  0  0
  -24.3597   -9.4193   21.9175 C   0  0  0  0  0  0
  -23.6273   -8.2231   22.0757 C   0  0  0  0  0  0
  -22.4250   -8.0260   21.3537 C   0  0  0  0  0  0
  -21.9884   -9.0232   20.4646 C   0  0  0  0  0  0
  -22.7224  -10.2111   20.3039 C   0  0  0  0  0  0
  -21.6846   -6.0714   22.5285 C   0  0  0  0  0  0
  -21.4007   -6.5627   23.8216 C   0  0  0  0  0  0
  -21.3658   -5.6783   24.9189 C   0  0  0  0  0  0
  -21.6037   -4.3043   24.7243 C   0  0  0  0  0  0
  -21.8821   -3.8132   23.4370 C   0  0  0  0  0  0
  -21.9195   -4.6940   22.3417 C   0  0  0  0  0  0
  -22.7834  -13.5226   21.1832 C   0  0  0  0  0  0
  -22.1664   -4.2120   21.0993 F   0  0  0  0  0  0
  -21.5632   -3.4536   25.7766 F   0  0  0  0  0  0
  -30.0063  -13.4374   20.4300 N   0  0  0  0  0  0
  -26.2974  -12.9312   20.3283 N   0  0  0  0  0  0
  -25.9296  -11.6475   20.5725 N   0  0  0  0  0  0
  -22.0477  -12.8215   22.0395 N   0  0  0  0  0  0
  -25.4318  -15.1868   20.4167 N   0  0  0  0  0  0
  -31.7155  -14.9033   20.1010 O   0  0  0  0  0  0
  -21.6621   -6.8847   21.4241 O   0  0  0  0  0  0
  -22.3521  -14.5530   20.6687 O   0  0  0  0  0  0
  -24.6288  -31.8565   23.1970 C   0  0  0  0  0  0
  -25.9102  -32.4772   23.8324 C   0  0  1  0  0  0
  -27.2377  -27.2875   20.1197 C   0  0  0  0  0  0
  -25.5899  -33.8575   24.2259 N   0  0  0  0  0  0
  -23.4270  -30.4717   21.5409 C   0  0  2  0  0  0
  -24.8777  -28.9190   20.1080 C   0  0  0  0  0  0
  -22.7510  -29.4570   22.4928 C   0  0  0  0  0  0
  -18.0295  -28.1406   22.8531 C   0  0  0  0  0  0
  -24.1457  -36.7243   23.2635 C   0  0  0  0  0  0
  -25.9678  -30.7763   21.3729 C   0  0  0  0  0  0
  -26.0444  -29.3999   20.7157 C   0  0  0  0  0  0
  -27.2224  -28.5919   20.7113 C   0  0  0  0  0  0
  -26.0463  -26.8637   19.4906 C   0  0  0  0  0  0
  -24.8820  -27.6597   19.4860 C   0  0  0  0  0  0
  -23.6454  -29.8001   20.1586 C   0  0  0  0  0  0
  -25.4102  -36.3087   24.0328 C   0  0  1  0  0  0
  -20.5910  -28.3688   23.1304 C   0  0  2  0  0  0
  -20.6744  -26.9407   22.5424 C   0  0  0  0  0  0
  -19.5713  -26.6414   21.5223 C   0  0  0  0  0  0
  -18.1908  -26.7960   22.1660 C   0  0  0  0  0  0
  -19.1557  -28.8878   23.2909 C   0  0  0  0  0  0
  -18.9476  -30.1480   23.8919 C   0  0  0  0  0  0
  -17.6469  -30.6603   24.0590 C   0  0  0  0  0  0
  -25.9053  -34.9463   23.5107 C   0  0  0  0  0  0
  -16.5357  -29.9097   23.6349 C   0  0  0  0  0  0
  -16.7279  -28.6520   23.0380 C   0  0  0  0  0  0
  -26.4483  -31.6595   25.0708 C   0  0  0  0  0  0
  -25.3724  -31.3724   26.1449 C   0  0  0  0  0  0
  -27.0309  -30.3019   24.6155 C   0  0  0  0  0  0
  -27.6043  -32.4328   25.7475 C   0  0  0  0  0  0
  -27.5569  -37.1779   24.8483 C   0  0  0  0  0  0
  -21.4214  -29.3020   22.3689 N   0  0  0  0  0  0
  -26.4277  -37.3795   23.9432 N   0  0  0  0  0  0
  -24.6935  -31.0538   22.0943 N   0  0  0  0  0  0
  -23.4208  -28.8089   23.3003 O   0  0  0  0  0  0
  -28.3484  -26.4238   20.2233 O   0  0  0  0  0  0
  -26.5640  -34.8929   22.4679 O   0  0  0  0  0  0
  -23.5422  -32.1360   23.7278 O   0  0  0  0  0  0
  -28.5579  -19.2565   21.5633 C   0  0  0  0  0  0
  -30.4110  -18.0184   19.9298 C   0  0  0  0  0  0
  -28.7116  -17.8400   21.6047 C   0  0  0  0  0  0
  -29.6642  -17.1635   20.7943 C   0  0  0  0  0  0
  -29.3309  -20.0847   20.7018 C   0  0  0  0  0  0
  -28.6620  -23.9167   20.2917 C   0  0  0  0  0  0
  -28.3814  -25.1207   19.6642 C   0  0  0  0  0  0
  -28.8575  -23.7175   21.7766 C   0  0  0  0  0  0
  -28.9001  -22.1848   21.9978 C   0  0  0  0  0  0
  -28.8441  -22.4882   19.6662 C   0  0  1  0  0  0
  -29.7694  -22.4993   18.4381 C   0  0  0  0  0  0
  -30.2182  -19.3906   19.9184 N   0  3  0  0  0  0
  -29.2861  -21.5409   20.7379 N   0  0  0  0  0  0
  -27.9052  -17.0861   22.4658 N   0  0  0  0  0  0
  -29.7017  -15.6918   20.8776 N   0  0  0  0  0  0
  -31.4916  -12.5767   19.1520 H   0  0  0  0  0  0
  -30.4262  -11.4288   19.9096 H   0  0  0  0  0  0
  -29.7899  -11.7285   17.5046 H   0  0  0  0  0  0
  -29.6500  -13.4549   17.7213 H   0  0  0  0  0  0
  -27.8690  -11.2861   18.8679 H   0  0  0  0  0  0
  -27.3844  -12.5672   17.7904 H   0  0  0  0  0  0
  -27.6700  -14.2443   19.5169 H   0  0  0  0  0  0
  -28.7264  -12.0176   21.3290 H   0  0  0  0  0  0
  -28.4327  -13.6460   21.8620 H   0  0  0  0  0  0
  -25.2751   -9.5678   22.4737 H   0  0  0  0  0  0
  -23.9987   -7.4634   22.7483 H   0  0  0  0  0  0
  -21.0816   -8.8742   19.8968 H   0  0  0  0  0  0
  -22.3679  -10.9626   19.6126 H   0  0  0  0  0  0
  -21.1983   -7.6134   23.9712 H   0  0  0  0  0  0
  -21.1479   -6.0517   25.9084 H   0  0  0  0  0  0
  -22.0599   -2.7587   23.2890 H   0  0  0  0  0  0
  -22.4093  -11.9870   22.4767 H   0  0  0  0  0  0
  -21.1086  -13.1229   22.2578 H   0  0  0  0  0  0
  -24.6883  -15.8504   20.5989 H   0  0  0  0  0  0
  -26.3121  -15.6361   20.2025 H   0  0  0  0  0  0
  -26.7153  -32.5445   23.1054 H   0  0  0  0  0  0
  -25.0024  -33.9694   25.0395 H   0  0  0  0  0  0
  -22.7231  -31.2922   21.3927 H   0  0  0  0  0  0
  -23.3753  -35.9544   23.3327 H   0  0  0  0  0  0
  -24.3500  -36.8848   22.2041 H   0  0  0  0  0  0
  -23.7159  -37.6426   23.6642 H   0  0  0  0  0  0
  -26.1074  -31.5378   20.6033 H   0  0  0  0  0  0
  -26.8433  -30.8263   22.0086 H   0  0  0  0  0  0
  -28.1174  -28.9473   21.2017 H   0  0  0  0  0  0
  -25.9946  -25.8893   19.0304 H   0  0  0  0  0  0
  -23.9861  -27.2843   19.0103 H   0  0  0  0  0  0
  -23.7694  -30.5752   19.4012 H   0  0  0  0  0  0
  -22.7662  -29.2292   19.8512 H   0  0  0  0  0  0
  -25.1278  -36.1920   25.0819 H   0  0  0  0  0  0
  -21.0035  -28.3231   24.1414 H   0  0  0  0  0  0
  -20.5642  -26.2270   23.3602 H   0  0  0  0  0  0
  -21.6596  -26.7393   22.1225 H   0  0  0  0  0  0
  -19.6827  -25.6343   21.1200 H   0  0  0  0  0  0
  -19.6636  -27.3254   20.6785 H   0  0  0  0  0  0
  -17.4170  -26.6768   21.4056 H   0  0  0  0  0  0
  -18.0288  -26.0087   22.9047 H   0  0  0  0  0  0
  -19.7939  -30.7316   24.2273 H   0  0  0  0  0  0
  -17.5006  -31.6283   24.5188 H   0  0  0  0  0  0
  -15.5359  -30.2993   23.7664 H   0  0  0  0  0  0
  -15.8684  -28.0816   22.7103 H   0  0  0  0  0  0
  -24.5928  -30.7011   25.7822 H   0  0  0  0  0  0
  -24.8863  -32.2877   26.4844 H   0  0  0  0  0  0
  -25.8096  -30.8968   27.0237 H   0  0  0  0  0  0
  -26.2858  -29.6782   24.1204 H   0  0  0  0  0  0
  -27.4028  -29.7268   25.4643 H   0  0  0  0  0  0
  -27.8728  -30.4301   23.9348 H   0  0  0  0  0  0
  -27.2668  -33.3656   26.1995 H   0  0  0  0  0  0
  -28.3889  -32.6836   25.0327 H   0  0  0  0  0  0
  -28.0648  -31.8471   26.5443 H   0  0  0  0  0  0
  -28.2627  -38.0050   24.7578 H   0  0  0  0  0  0
  -28.1042  -36.2599   24.6285 H   0  0  0  0  0  0
  -27.2292  -37.1409   25.8890 H   0  0  0  0  0  0
  -20.9398  -29.8737   21.6896 H   0  0  0  0  0  0
  -26.0157  -38.2851   24.1504 H   0  0  0  0  0  0
  -27.8388  -19.7090   22.2241 H   0  0  0  0  0  0
  -31.1511  -17.6382   19.2372 H   0  0  0  0  0  0
  -28.2545  -25.1669   18.5920 H   0  0  0  0  0  0
  -28.0508  -24.1834   22.3435 H   0  0  0  0  0  0
  -29.8007  -24.1734   22.0802 H   0  0  0  0  0  0
  -27.9023  -21.8532   22.2871 H   0  0  0  0  0  0
  -29.5819  -21.9184   22.8083 H   0  0  0  0  0  0
  -27.8600  -22.1501   19.3401 H   0  0  0  0  0  0
  -30.7733  -22.8440   18.6955 H   0  0  0  0  0  0
  -29.3790  -23.1647   17.6679 H   0  0  0  0  0  0
  -29.8521  -21.5100   17.9877 H   0  0  0  0  0  0
  -30.8191  -19.9388   19.2953 H   0  0  0  0  0  0
  -27.3625  -17.6204   23.1329 H   0  0  0  0  0  0
  -28.3580  -16.3036   22.9200 H   0  0  0  0  0  0
  -28.8455  -15.3208   21.2606 H   0  0  0  0  0  0
  1 25  1  0  0  0
  1 30  2  0  0  0
  1 85  1  0  0  0
  2  3  1  0  0  0
  2 25  1  0  0  0
  2 86  1  0  0  0
  2 87  1  0  0  0
  3  4  1  0  0  0
  3 88  1  0  0  0
  3 89  1  0  0  0
  4  5  1  0  0  0
  4 90  1  0  0  0
  4 91  1  0  0  0
  5  6  1  0  0  0
  5 26  1  0  0  0
  5 92  1  0  0  0
  6 25  1  0  0  0
  6 93  1  0  0  0
  6 94  1  0  0  0
  7  8  2  0  0  0
  7 26  1  0  0  0
  7 29  1  0  0  0
  8  9  1  0  0  0
  8 22  1  0  0  0
  9 10  1  0  0  0
  9 27  2  0  0  0
 10 11  2  0  0  0
 10 15  1  0  0  0
 11 12  1  0  0  0
 11 95  1  0  0  0
 12 13  2  0  0  0
 12 96  1  0  0  0
 13 14  1  0  0  0
 13 31  1  0  0  0
 14 15  2  0  0  0
 14 97  1  0  0  0
 15 98  1  0  0  0
 16 17  2  0  0  0
 16 21  1  0  0  0
 16 31  1  0  0  0
 17 18  1  0  0  0
 17 99  1  0  0  0
 18 19  2  0  0  0
 18100  1  0  0  0
 19 20  1  0  0  0
 19 24  1  0  0  0
 20 21  2  0  0  0
 20101  1  0  0  0
 21 23  1  0  0  0
 22 28  1  0  0  0
 22 32  2  0  0  0
 26 27  1  0  0  0
 28102  1  0  0  0
 28103  1  0  0  0
 29104  1  0  0  0
 29105  1  0  0  0
 33 34  1  0  0  0
 33 66  1  0  0  0
 33 70  2  0  0  0
 34 36  1  0  0  0
 34 59  1  0  0  0
 34106  1  0  0  0
 35 44  2  0  0  0
 35 45  1  0  0  0
 35 68  1  0  0  0
 36 56  1  0  0  0
 36107  1  0  0  0
 37 39  1  0  0  0
 37 47  1  0  0  0
 37 66  1  0  0  0
 37108  1  0  0  0
 38 43  2  0  0  0
 38 46  1  0  0  0
 38 47  1  0  0  0
 39 64  1  0  0  0
 39 67  2  0  0  0
 40 52  1  0  0  0
 40 53  2  0  0  0
 40 58  1  0  0  0
 41109  1  0  0  0
 41110  1  0  0  0
 41111  1  0  0  0
 41 48  1  0  0  0
 42 43  1  0  0  0
 42 66  1  0  0  0
 42112  1  0  0  0
 42113  1  0  0  0
 43 44  1  0  0  0
 44114  1  0  0  0
 45 46  2  0  0  0
 45115  1  0  0  0
 46116  1  0  0  0
 47117  1  0  0  0
 47118  1  0  0  0
 48 56  1  0  0  0
 48 65  1  0  0  0
 48119  1  0  0  0
 49 50  1  0  0  0
 49 53  1  0  0  0
 49 64  1  0  0  0
 49120  1  0  0  0
 50 51  1  0  0  0
 50121  1  0  0  0
 50122  1  0  0  0
 51 52  1  0  0  0
 51123  1  0  0  0
 51124  1  0  0  0
 52125  1  0  0  0
 52126  1  0  0  0
 53 54  1  0  0  0
 54 55  2  0  0  0
 54127  1  0  0  0
 55 57  1  0  0  0
 55128  1  0  0  0
 56 69  2  0  0  0
 57 58  2  0  0  0
 57129  1  0  0  0
 58130  1  0  0  0
 59 60  1  0  0  0
 59 61  1  0  0  0
 59 62  1  0  0  0
 60131  1  0  0  0
 60132  1  0  0  0
 60133  1  0  0  0
 61134  1  0  0  0
 61135  1  0  0  0
 61136  1  0  0  0
 62137  1  0  0  0
 62138  1  0  0  0
 62139  1  0  0  0
 63 65  1  0  0  0
 63140  1  0  0  0
 63141  1  0  0  0
 63142  1  0  0  0
 64143  1  0  0  0
 65144  1  0  0  0
 68 77  1  0  0  0
 71 73  2  0  0  0
 71 75  1  0  0  0
 71145  1  0  0  0
 72 74  2  0  0  0
 72 82  1  0  0  0
 72146  1  0  0  0
 73 74  1  0  0  0
 73 84  1  0  0  0
 74 85  1  0  0  0
 75 82  2  0  0  0
 75 83  1  0  0  0
 76 77  2  0  0  0
 76 78  1  0  0  0
 76 80  1  0  0  0
 77147  1  0  0  0
 78 79  1  0  0  0
 78148  1  0  0  0
 78149  1  0  0  0
 79 83  1  0  0  0
 79150  1  0  0  0
 79151  1  0  0  0
 80 81  1  0  0  0
 80 83  1  0  0  0
 80152  1  0  0  0
 81153  1  0  0  0
 81154  1  0  0  0
 81155  1  0  0  0
 82156  1  0  0  0
 84157  1  0  0  0
 84158  1  0  0  0
 85159  1  0  0  0
M  CHG  1  82   1
M  ISO  4   1 100  68 101  77 101  85 100
M  END
> <chiral flag>
0

> <version>
0

> <s_m_source_file>
/data/baiqing/PycharmProjects/Reinvent-master-3.2/result/LINK_invent/BTK/process_docking_weight1_custom_product_contain_oxygen_bond_distance_aromatic_linkinvent_7_9_3/rearranged_h_0113.sdf

> <i_m_source_file_index>
93

> <r_mmod_Potential_Energy-OPLS-2005>
-22.6755428314209

> <r_mmod_Stretch_Energy-OPLS-2005>
91.1434020996094

> <r_mmod_Bend_Energy-OPLS-2005>
198.083938598633

> <r_mmod_Torsional_Energy-OPLS-2005>
259.567749023438

> <r_mmod_Improper_Torsional_Energy-OPLS-2005>
11.9337873458862

> <r_mmod_Van_der_Waal_Energy-OPLS-2005>
138.42822265625

> <r_mmod_Electrostatic_Energy-OPLS-2005>
-384.334014892578

> <r_mmod_Solvation_Energy-OPLS-2005>
-406.568908691406

> <b_mmod_Minimization_Converged-OPLS-2005>
0

> <r_mmod_RMS_Derivative-OPLS-2005>
3.76219367980957

$$$$
93
                    3D
 Structure written by MMmdl.
160168  0  0  1  0            999 V2000
  -30.6504  -14.7208   20.5595 C   0  0  0  0  0  0
  -30.4439  -12.4735   19.4549 C   0  0  0  0  0  0
  -29.5071  -12.5551   18.2276 C   0  0  0  0  0  0
  -28.0321  -12.3766   18.6385 C   0  0  0  0  0  0
  -27.6597  -13.2314   19.8817 C   0  0  2  0  0  0
  -28.7184  -13.0463   20.9949 C   0  0  0  0  0  0
  -25.2508  -13.8170   20.5525 C   0  0  0  0  0  0
  -24.1813  -13.0409   20.9158 C   0  0  0  0  0  0
  -24.6428  -11.6921   20.8771 C   0  0  0  0  0  0
  -23.9098  -10.4282   21.0414 C   0  0  0  0  0  0
  -24.3636   -9.4193   21.9189 C   0  0  0  0  0  0
  -23.6294   -8.2238   22.0765 C   0  0  0  0  0  0
  -22.4272   -8.0289   21.3559 C   0  0  0  0  0  0
  -21.9923   -9.0265   20.4653 C   0  0  0  0  0  0
  -22.7275  -10.2129   20.3051 C   0  0  0  0  0  0
  -21.6852   -6.0734   22.5283 C   0  0  0  0  0  0
  -21.4010   -6.5641   23.8212 C   0  0  0  0  0  0
  -21.3669   -5.6798   24.9184 C   0  0  0  0  0  0
  -21.6032   -4.3058   24.7236 C   0  0  0  0  0  0
  -21.8823   -3.8145   23.4363 C   0  0  0  0  0  0
  -21.9185   -4.6960   22.3409 C   0  0  0  0  0  0
  -22.7841  -13.5218   21.1827 C   0  0  0  0  0  0
  -22.1652   -4.2150   21.0985 F   0  0  0  0  0  0
  -21.5635   -3.4536   25.7745 F   0  0  0  0  0  0
  -30.0132  -13.4884   20.4545 N   0  0  0  0  0  0
  -26.3028  -12.9400   20.3422 N   0  0  0  0  0  0
  -25.9385  -11.6548   20.5849 N   0  0  0  0  0  0
  -22.0502  -12.8184   22.0413 N   0  0  0  0  0  0
  -25.4066  -15.1825   20.3585 N   0  0  0  0  0  0
  -31.7134  -14.8935   19.9505 O   0  0  0  0  0  0
  -21.6638   -6.8887   21.4251 O   0  0  0  0  0  0
  -22.3520  -14.5534   20.6715 O   0  0  0  0  0  0
  -24.6370  -31.8531   23.1941 C   0  0  0  0  0  0
  -25.9172  -32.4721   23.8336 C   0  0  1  0  0  0
  -27.2416  -27.2471   20.1288 C   0  0  0  0  0  0
  -25.5969  -33.8531   24.2231 N   0  0  0  0  0  0
  -23.4349  -30.4775   21.5315 C   0  0  2  0  0  0
  -24.8872  -28.9150   20.1119 C   0  0  0  0  0  0
  -22.7502  -29.4654   22.4819 C   0  0  0  0  0  0
  -18.0323  -28.1392   22.8482 C   0  0  0  0  0  0
  -24.1492  -36.7286   23.2641 C   0  0  0  0  0  0
  -25.9835  -30.7595   21.3798 C   0  0  0  0  0  0
  -26.0578  -29.3812   20.7214 C   0  0  0  0  0  0
  -27.2375  -28.5626   20.7140 C   0  0  0  0  0  0
  -26.0380  -26.8541   19.4958 C   0  0  0  0  0  0
  -24.8819  -27.6580   19.4912 C   0  0  0  0  0  0
  -23.6596  -29.8054   20.1503 C   0  0  0  0  0  0
  -25.4118  -36.3040   24.0306 C   0  0  1  0  0  0
  -20.5927  -28.3804   23.1165 C   0  0  2  0  0  0
  -20.6854  -26.9456   22.5464 C   0  0  0  0  0  0
  -19.5798  -26.6198   21.5338 C   0  0  0  0  0  0
  -18.1989  -26.7846   22.1792 C   0  0  0  0  0  0
  -19.1570  -28.8934   23.2761 C   0  0  0  0  0  0
  -18.9496  -30.1573   23.8711 C   0  0  0  0  0  0
  -17.6498  -30.6703   24.0428 C   0  0  0  0  0  0
  -25.9062  -34.9419   23.5066 C   0  0  0  0  0  0
  -16.5378  -29.9157   23.6270 C   0  0  0  0  0  0
  -16.7311  -28.6525   23.0383 C   0  0  0  0  0  0
  -26.4535  -31.6561   25.0747 C   0  0  0  0  0  0
  -25.3760  -31.3728   26.1465 C   0  0  0  0  0  0
  -27.0393  -30.2953   24.6304 C   0  0  0  0  0  0
  -27.6064  -32.4338   25.7541 C   0  0  0  0  0  0
  -27.5575  -37.1800   24.8466 C   0  0  0  0  0  0
  -21.4216  -29.3126   22.3512 N   0  0  0  0  0  0
  -26.4288  -37.3745   23.9395 N   0  0  0  0  0  0
  -24.7027  -31.0503   22.0906 N   0  0  0  0  0  0
  -23.4154  -28.8236   23.2998 O   0  0  0  0  0  0
  -28.3426  -26.3451   20.1648 O   0  0  0  0  0  0
  -26.5653  -34.8899   22.4642 O   0  0  0  0  0  0
  -23.5511  -32.1353   23.7222 O   0  0  0  0  0  0
  -29.8206  -18.4903   20.7893 C   0  0  0  0  0  0
  -27.1679  -18.2998   21.4960 C   0  0  0  0  0  0
  -29.3562  -17.1760   21.2677 C   0  0  0  0  0  0
  -28.0210  -17.2202   21.7750 C   0  0  0  0  0  0
  -28.9898  -19.7034   20.6702 C   0  0  0  0  0  0
  -27.5982  -19.4896   20.8820 C   0  0  0  0  0  0
  -28.8853  -22.2230   20.5469 C   0  0  0  0  0  0
  -30.2069  -15.8753   21.5788 C   0  0  0  0  0  0
  -29.2073  -23.7566   20.1816 C   0  0  0  0  0  0
  -27.5247  -16.7436   24.2174 C   0  0  0  0  0  0
  -25.3221  -20.0870   20.3500 C   0  0  0  0  0  0
  -27.4422  -16.2232   22.7770 C   0  0  0  0  0  0
  -28.0358  -24.8617   20.1777 C   0  0  0  0  0  0
  -30.6213  -15.7416   22.7697 N   0  0  0  0  0  0
  -29.4889  -21.0506   20.3153 N   0  0  0  0  0  0
  -30.3477  -24.0953   19.8388 O   0  0  0  0  0  0
  -26.6830  -20.4631   20.5378 O   0  0  0  0  0  0
  -31.4815  -12.6084   19.1432 H   0  0  0  0  0  0
  -30.4179  -11.4734   19.8913 H   0  0  0  0  0  0
  -29.7849  -11.7944   17.4983 H   0  0  0  0  0  0
  -29.6431  -13.5182   17.7326 H   0  0  0  0  0  0
  -27.8726  -11.3174   18.8521 H   0  0  0  0  0  0
  -27.3782  -12.6127   17.7987 H   0  0  0  0  0  0
  -27.6899  -14.2780   19.5772 H   0  0  0  0  0  0
  -28.7726  -11.9886   21.2512 H   0  0  0  0  0  0
  -28.4656  -13.5094   21.9365 H   0  0  0  0  0  0
  -25.2774   -9.5664   22.4784 H   0  0  0  0  0  0
  -24.0003   -7.4624   22.7475 H   0  0  0  0  0  0
  -21.0863   -8.8796   19.8950 H   0  0  0  0  0  0
  -22.3744  -10.9682   19.6167 H   0  0  0  0  0  0
  -21.2000   -7.6143   23.9729 H   0  0  0  0  0  0
  -21.1489   -6.0518   25.9090 H   0  0  0  0  0  0
  -22.0588   -2.7605   23.2855 H   0  0  0  0  0  0
  -22.4134  -11.9836   22.4757 H   0  0  0  0  0  0
  -21.1137  -13.1245   22.2696 H   0  0  0  0  0  0
  -24.6333  -15.8315   20.4500 H   0  0  0  0  0  0
  -26.2547  -15.6248   20.0276 H   0  0  0  0  0  0
  -26.7264  -32.5345   23.1106 H   0  0  0  0  0  0
  -25.0099  -33.9660   25.0366 H   0  0  0  0  0  0
  -22.7352  -31.3005   21.3787 H   0  0  0  0  0  0
  -23.3718  -35.9656   23.3291 H   0  0  0  0  0  0
  -24.3597  -36.8930   22.2064 H   0  0  0  0  0  0
  -23.7283  -37.6495   23.6687 H   0  0  0  0  0  0
  -26.1393  -31.5182   20.6112 H   0  0  0  0  0  0
  -26.8537  -30.8030   22.0239 H   0  0  0  0  0  0
  -28.1359  -28.9162   21.2010 H   0  0  0  0  0  0
  -25.9494  -25.9055   18.9912 H   0  0  0  0  0  0
  -23.9856  -27.2903   19.0110 H   0  0  0  0  0  0
  -23.7835  -30.5756   19.3882 H   0  0  0  0  0  0
  -22.7753  -29.2406   19.8527 H   0  0  0  0  0  0
  -25.1295  -36.1880   25.0799 H   0  0  0  0  0  0
  -21.0030  -28.3528   24.1288 H   0  0  0  0  0  0
  -20.5782  -26.2492   23.3807 H   0  0  0  0  0  0
  -21.6755  -26.7489   22.1325 H   0  0  0  0  0  0
  -19.6935  -25.5980   21.1657 H   0  0  0  0  0  0
  -19.6699  -27.2713   20.6639 H   0  0  0  0  0  0
  -17.4213  -26.6410   21.4279 H   0  0  0  0  0  0
  -18.0511  -26.0127   22.9361 H   0  0  0  0  0  0
  -19.8005  -30.7404   24.1970 H   0  0  0  0  0  0
  -17.5073  -31.6451   24.4927 H   0  0  0  0  0  0
  -15.5355  -30.3040   23.7575 H   0  0  0  0  0  0
  -15.8726  -28.0750   22.7214 H   0  0  0  0  0  0
  -24.5946  -30.7057   25.7801 H   0  0  0  0  0  0
  -24.8952  -32.2902   26.4876 H   0  0  0  0  0  0
  -25.8095  -30.8932   27.0247 H   0  0  0  0  0  0
  -26.2994  -29.6688   24.1306 H   0  0  0  0  0  0
  -27.3989  -29.7256   25.4884 H   0  0  0  0  0  0
  -27.8917  -30.4162   23.9612 H   0  0  0  0  0  0
  -27.2626  -33.3631   26.2101 H   0  0  0  0  0  0
  -28.3902  -32.6916   25.0407 H   0  0  0  0  0  0
  -28.0709  -31.8488   26.5497 H   0  0  0  0  0  0
  -28.2572  -38.0110   24.7479 H   0  0  0  0  0  0
  -28.1079  -36.2637   24.6298 H   0  0  0  0  0  0
  -27.2307  -37.1454   25.8874 H   0  0  0  0  0  0
  -20.9435  -29.8810   21.6661 H   0  0  0  0  0  0
  -26.0145  -38.2814   24.1367 H   0  0  0  0  0  0
  -30.8726  -18.5940   20.5594 H   0  0  0  0  0  0
  -26.1497  -18.2327   21.8448 H   0  0  0  0  0  0
  -27.9700  -22.2033   21.1373 H   0  0  0  0  0  0
  -27.0566  -16.0347   24.8992 H   0  0  0  0  0  0
  -27.0240  -17.7078   24.3289 H   0  0  0  0  0  0
  -28.5570  -16.8758   24.5344 H   0  0  0  0  0  0
  -25.2329  -19.1430   19.8108 H   0  0  0  0  0  0
  -24.8141  -20.8428   19.7515 H   0  0  0  0  0  0
  -24.7874  -20.0113   21.2970 H   0  0  0  0  0  0
  -26.3918  -16.0381   22.5648 H   0  0  0  0  0  0
  -27.9167  -15.2599   22.7350 H   0  0  0  0  0  0
  -27.3689  -24.6654   21.0176 H   0  0  0  0  0  0
  -27.4876  -24.6221   19.2700 H   0  0  0  0  0  0
  -30.3114  -16.5161   23.3418 H   0  0  0  0  0  0
  1 25  1  0  0  0
  1 30  2  0  0  0
  1 78  1  0  0  0
  2  3  1  0  0  0
  2 25  1  0  0  0
  2 88  1  0  0  0
  2 89  1  0  0  0
  3  4  1  0  0  0
  3 90  1  0  0  0
  3 91  1  0  0  0
  4  5  1  0  0  0
  4 92  1  0  0  0
  4 93  1  0  0  0
  5  6  1  0  0  0
  5 26  1  0  0  0
  5 94  1  0  0  0
  6 25  1  0  0  0
  6 95  1  0  0  0
  6 96  1  0  0  0
  7  8  2  0  0  0
  7 26  1  0  0  0
  7 29  1  0  0  0
  8  9  1  0  0  0
  8 22  1  0  0  0
  9 10  1  0  0  0
  9 27  2  0  0  0
 10 11  2  0  0  0
 10 15  1  0  0  0
 11 12  1  0  0  0
 11 97  1  0  0  0
 12 13  2  0  0  0
 12 98  1  0  0  0
 13 14  1  0  0  0
 13 31  1  0  0  0
 14 15  2  0  0  0
 14 99  1  0  0  0
 15100  1  0  0  0
 16 17  2  0  0  0
 16 21  1  0  0  0
 16 31  1  0  0  0
 17 18  1  0  0  0
 17101  1  0  0  0
 18 19  2  0  0  0
 18102  1  0  0  0
 19 20  1  0  0  0
 19 24  1  0  0  0
 20 21  2  0  0  0
 20103  1  0  0  0
 21 23  1  0  0  0
 22 28  1  0  0  0
 22 32  2  0  0  0
 26 27  1  0  0  0
 28104  1  0  0  0
 28105  1  0  0  0
 29106  1  0  0  0
 29107  1  0  0  0
 33 34  1  0  0  0
 33 66  1  0  0  0
 33 70  2  0  0  0
 34 36  1  0  0  0
 34 59  1  0  0  0
 34108  1  0  0  0
 35 44  2  0  0  0
 35 45  1  0  0  0
 35 68  1  0  0  0
 36 56  1  0  0  0
 36109  1  0  0  0
 37 39  1  0  0  0
 37 47  1  0  0  0
 37 66  1  0  0  0
 37110  1  0  0  0
 38 43  2  0  0  0
 38 46  1  0  0  0
 38 47  1  0  0  0
 39 64  1  0  0  0
 39 67  2  0  0  0
 40 52  1  0  0  0
 40 53  2  0  0  0
 40 58  1  0  0  0
 41111  1  0  0  0
 41112  1  0  0  0
 41113  1  0  0  0
 41 48  1  0  0  0
 42 43  1  0  0  0
 42 66  1  0  0  0
 42114  1  0  0  0
 42115  1  0  0  0
 43 44  1  0  0  0
 44116  1  0  0  0
 45 46  2  0  0  0
 45117  1  0  0  0
 46118  1  0  0  0
 47119  1  0  0  0
 47120  1  0  0  0
 48 56  1  0  0  0
 48 65  1  0  0  0
 48121  1  0  0  0
 49 50  1  0  0  0
 49 53  1  0  0  0
 49 64  1  0  0  0
 49122  1  0  0  0
 50 51  1  0  0  0
 50123  1  0  0  0
 50124  1  0  0  0
 51 52  1  0  0  0
 51125  1  0  0  0
 51126  1  0  0  0
 52127  1  0  0  0
 52128  1  0  0  0
 53 54  1  0  0  0
 54 55  2  0  0  0
 54129  1  0  0  0
 55 57  1  0  0  0
 55130  1  0  0  0
 56 69  2  0  0  0
 57 58  2  0  0  0
 57131  1  0  0  0
 58132  1  0  0  0
 59 60  1  0  0  0
 59 61  1  0  0  0
 59 62  1  0  0  0
 60133  1  0  0  0
 60134  1  0  0  0
 60135  1  0  0  0
 61136  1  0  0  0
 61137  1  0  0  0
 61138  1  0  0  0
 62139  1  0  0  0
 62140  1  0  0  0
 62141  1  0  0  0
 63 65  1  0  0  0
 63142  1  0  0  0
 63143  1  0  0  0
 63144  1  0  0  0
 64145  1  0  0  0
 65146  1  0  0  0
 68 83  1  0  0  0
 71 73  2  0  0  0
 71 75  1  0  0  0
 71147  1  0  0  0
 72 74  2  0  0  0
 72 76  1  0  0  0
 72148  1  0  0  0
 73 74  1  0  0  0
 73 78  1  0  0  0
 74 82  1  0  0  0
 75 76  2  0  0  0
 75 85  1  0  0  0
 76 87  1  0  0  0
 77 79  1  0  0  0
 77 85  2  0  0  0
 77149  1  0  0  0
 78 84  2  0  0  0
 79 83  1  0  0  0
 79 86  2  0  0  0
 80 82  1  0  0  0
 80150  1  0  0  0
 80151  1  0  0  0
 80152  1  0  0  0
 81 87  1  0  0  0
 81153  1  0  0  0
 81154  1  0  0  0
 81155  1  0  0  0
 82156  1  0  0  0
 82157  1  0  0  0
 83158  1  0  0  0
 83159  1  0  0  0
 84160  1  0  0  0
M  ISO  4   1 100  68 101  78 100  83 101
M  END
> <chiral flag>
0

> <version>
0

> <s_m_source_file>
/data/baiqing/PycharmProjects/Reinvent-master-3.2/result/LINK_invent/BTK/process_docking_weight1_custom_product_contain_oxygen_bond_distance_aromatic_linkinvent_7_9_3/rearranged_h_0113.sdf

> <i_m_source_file_index>
94

> <r_mmod_Potential_Energy-OPLS-2005>
494.773132324219

> <r_mmod_Stretch_Energy-OPLS-2005>
178.65478515625

> <r_mmod_Bend_Energy-OPLS-2005>
228.691360473633

> <r_mmod_Torsional_Energy-OPLS-2005>
268.994689941406

> <r_mmod_Improper_Torsional_Energy-OPLS-2005>
7.32870721817017

> <r_mmod_Van_der_Waal_Energy-OPLS-2005>
160.661376953125

> <r_mmod_Electrostatic_Energy-OPLS-2005>
-193.855621337891

> <r_mmod_Solvation_Energy-OPLS-2005>
-235.804046630859

> <b_mmod_Minimization_Converged-OPLS-2005>
0

> <r_mmod_RMS_Derivative-OPLS-2005>
5.38772678375244

$$$$
94
                    3D
 Structure written by MMmdl.
162171  0  0  1  0            999 V2000
  -30.5326  -15.0302   20.3983 C   0  0  0  0  0  0
  -30.4409  -12.6431   19.5096 C   0  0  0  0  0  0
  -29.5254  -12.5324   18.2677 C   0  0  0  0  0  0
  -28.0661  -12.2949   18.6953 C   0  0  0  0  0  0
  -27.6251  -13.2538   19.8317 C   0  0  2  0  0  0
  -28.6654  -13.3377   20.9704 C   0  0  0  0  0  0
  -25.2449  -13.8218   20.5731 C   0  0  0  0  0  0
  -24.1776  -13.0441   20.9251 C   0  0  0  0  0  0
  -24.6391  -11.6919   20.8757 C   0  0  0  0  0  0
  -23.9076  -10.4289   21.0412 C   0  0  0  0  0  0
  -24.3614   -9.4198   21.9191 C   0  0  0  0  0  0
  -23.6288   -8.2234   22.0754 C   0  0  0  0  0  0
  -22.4278   -8.0269   21.3540 C   0  0  0  0  0  0
  -21.9912   -9.0254   20.4655 C   0  0  0  0  0  0
  -22.7241  -10.2133   20.3066 C   0  0  0  0  0  0
  -21.6852   -6.0729   22.5280 C   0  0  0  0  0  0
  -21.4015   -6.5640   23.8212 C   0  0  0  0  0  0
  -21.3664   -5.6794   24.9176 C   0  0  0  0  0  0
  -21.6037   -4.3055   24.7230 C   0  0  0  0  0  0
  -21.8817   -3.8143   23.4354 C   0  0  0  0  0  0
  -21.9190   -4.6955   22.3404 C   0  0  0  0  0  0
  -22.7795  -13.5209   21.1897 C   0  0  0  0  0  0
  -22.1654   -4.2136   21.0980 F   0  0  0  0  0  0
  -21.5626   -3.4537   25.7746 F   0  0  0  0  0  0
  -29.9340  -13.7630   20.3629 N   0  0  0  0  0  0
  -26.2874  -12.9462   20.3238 N   0  0  0  0  0  0
  -25.9329  -11.6588   20.5757 N   0  0  0  0  0  0
  -22.0423  -12.8219   22.0450 N   0  0  0  0  0  0
  -25.4110  -15.1948   20.4112 N   0  0  0  0  0  0
  -31.7447  -15.0471   20.1526 O   0  0  0  0  0  0
  -21.6636   -6.8874   21.4246 O   0  0  0  0  0  0
  -22.3484  -14.5510   20.6721 O   0  0  0  0  0  0
  -24.6462  -31.8374   23.1828 C   0  0  0  0  0  0
  -25.9206  -32.4675   23.8215 C   0  0  1  0  0  0
  -27.2208  -27.0904   20.1640 C   0  0  0  0  0  0
  -25.5905  -33.8486   24.2131 N   0  0  0  0  0  0
  -23.4518  -30.4541   21.5290 C   0  0  2  0  0  0
  -24.9027  -28.8709   20.1104 C   0  0  0  0  0  0
  -22.7582  -29.4501   22.4838 C   0  0  0  0  0  0
  -18.0297  -28.1392   22.8477 C   0  0  0  0  0  0
  -24.1490  -36.7273   23.2656 C   0  0  0  0  0  0
  -26.0093  -30.7003   21.3830 C   0  0  0  0  0  0
  -26.0816  -29.3045   20.7298 C   0  0  0  0  0  0
  -27.2404  -28.4318   20.7371 C   0  0  0  0  0  0
  -26.0167  -26.7689   19.5007 C   0  0  0  0  0  0
  -24.8868  -27.6187   19.4780 C   0  0  0  0  0  0
  -23.6799  -29.7768   20.1505 C   0  0  0  0  0  0
  -25.4122  -36.3028   24.0318 C   0  0  1  0  0  0
  -20.5911  -28.3701   23.1231 C   0  0  2  0  0  0
  -20.6772  -26.9403   22.5403 C   0  0  0  0  0  0
  -19.5748  -26.6378   21.5207 C   0  0  0  0  0  0
  -18.1933  -26.7923   22.1629 C   0  0  0  0  0  0
  -19.1558  -28.8868   23.2846 C   0  0  0  0  0  0
  -18.9480  -30.1469   23.8870 C   0  0  0  0  0  0
  -17.6476  -30.6587   24.0561 C   0  0  0  0  0  0
  -25.9066  -34.9403   23.5048 C   0  0  0  0  0  0
  -16.5366  -29.9086   23.6333 C   0  0  0  0  0  0
  -16.7285  -28.6506   23.0352 C   0  0  0  0  0  0
  -26.4549  -31.6562   25.0664 C   0  0  0  0  0  0
  -25.3766  -31.3822   26.1410 C   0  0  0  0  0  0
  -27.0429  -30.2946   24.6274 C   0  0  0  0  0  0
  -27.6087  -32.4352   25.7394 C   0  0  0  0  0  0
  -27.5573  -37.1775   24.8461 C   0  0  0  0  0  0
  -21.4265  -29.3028   22.3605 N   0  0  0  0  0  0
  -26.4283  -37.3743   23.9406 N   0  0  0  0  0  0
  -24.7226  -31.0198   22.0870 N   0  0  0  0  0  0
  -23.4207  -28.8065   23.3015 O   0  0  0  0  0  0
  -28.2661  -26.0833   20.2426 O   0  0  0  0  0  0
  -26.5695  -34.8916   22.4658 O   0  0  0  0  0  0
  -23.5577  -32.1253   23.7042 O   0  0  0  0  0  0
  -29.1387  -18.9616   20.4808 C   0  0  0  0  0  0
  -30.8494  -20.6049   20.0069 C   0  0  0  0  0  0
  -31.3745  -18.1765   20.0322 C   0  0  0  0  0  0
  -29.4811  -20.4227   20.3091 C   0  0  0  0  0  0
  -30.0580  -17.7773   20.3535 C   0  0  0  0  0  0
  -31.7726  -19.5274   19.8751 C   0  0  0  0  0  0
  -27.8280  -21.8021   22.7539 C   0  0  0  0  0  0
  -28.5293  -23.1459   22.9816 C   0  0  0  0  0  0
  -27.4800  -21.4515   21.2991 C   0  0  0  0  0  0
  -29.5813  -23.4400   21.8848 C   0  0  0  0  0  0
  -29.0402  -23.2061   20.4585 C   0  0  2  0  0  0
  -33.6402  -21.0323   19.6213 C   0  0  0  0  0  0
  -27.9996  -24.5321   20.1076 C   0  0  0  0  0  0
  -28.6234  -21.6690   20.4069 N   0  0  0  0  0  0
  -29.7634  -16.2487   20.5098 N   0  0  0  0  0  0
  -27.5505  -21.0506   23.6894 O   0  0  0  0  0  0
  -33.1096  -19.7124   19.5880 O   0  0  0  0  0  0
  -31.4705  -12.8069   19.1890 H   0  0  0  0  0  0
  -30.4524  -11.7072   20.0716 H   0  0  0  0  0  0
  -29.8640  -11.7239   17.6181 H   0  0  0  0  0  0
  -29.5922  -13.4489   17.6805 H   0  0  0  0  0  0
  -27.9946  -11.2642   19.0441 H   0  0  0  0  0  0
  -27.3953  -12.3721   17.8388 H   0  0  0  0  0  0
  -27.5730  -14.2411   19.3706 H   0  0  0  0  0  0
  -28.7736  -12.3808   21.4843 H   0  0  0  0  0  0
  -28.3502  -14.0626   21.7223 H   0  0  0  0  0  0
  -25.2751   -9.5676   22.4775 H   0  0  0  0  0  0
  -23.9986   -7.4635   22.7478 H   0  0  0  0  0  0
  -21.0836   -8.8795   19.8973 H   0  0  0  0  0  0
  -22.3701  -10.9680   19.6179 H   0  0  0  0  0  0
  -21.2015   -7.6148   23.9718 H   0  0  0  0  0  0
  -21.1482   -6.0522   25.9081 H   0  0  0  0  0  0
  -22.0591   -2.7604   23.2861 H   0  0  0  0  0  0
  -22.4025  -11.9896   22.4880 H   0  0  0  0  0  0
  -21.1037  -13.1267   22.2626 H   0  0  0  0  0  0
  -24.6365  -15.8416   20.5121 H   0  0  0  0  0  0
  -26.2436  -15.6311   20.0396 H   0  0  0  0  0  0
  -26.7255  -32.5263   23.0925 H   0  0  0  0  0  0
  -24.9914  -33.9560   25.0184 H   0  0  0  0  0  0
  -22.7547  -31.2795   21.3705 H   0  0  0  0  0  0
  -23.3736  -35.9621   23.3293 H   0  0  0  0  0  0
  -24.3559  -36.8937   22.2071 H   0  0  0  0  0  0
  -23.7250  -37.6469   23.6710 H   0  0  0  0  0  0
  -26.1588  -31.4480   20.6018 H   0  0  0  0  0  0
  -26.8818  -30.7611   22.0232 H   0  0  0  0  0  0
  -28.1369  -28.7625   21.2419 H   0  0  0  0  0  0
  -25.9147  -25.8091   19.0154 H   0  0  0  0  0  0
  -23.9889  -27.2811   18.9795 H   0  0  0  0  0  0
  -23.8164  -30.5473   19.3907 H   0  0  0  0  0  0
  -22.7926  -29.2202   19.8430 H   0  0  0  0  0  0
  -25.1303  -36.1856   25.0807 H   0  0  0  0  0  0
  -21.0007  -28.3298   24.1353 H   0  0  0  0  0  0
  -20.5649  -26.2324   23.3628 H   0  0  0  0  0  0
  -21.6634  -26.7394   22.1220 H   0  0  0  0  0  0
  -19.6909  -25.6288   21.1252 H   0  0  0  0  0  0
  -19.6686  -27.3175   20.6724 H   0  0  0  0  0  0
  -17.4199  -26.6661   21.4038 H   0  0  0  0  0  0
  -18.0345  -26.0067   22.9031 H   0  0  0  0  0  0
  -19.7959  -30.7293   24.2229 H   0  0  0  0  0  0
  -17.5033  -31.6265   24.5167 H   0  0  0  0  0  0
  -15.5372  -30.2996   23.7652 H   0  0  0  0  0  0
  -15.8681  -28.0831   22.7068 H   0  0  0  0  0  0
  -24.5961  -30.7089   25.7855 H   0  0  0  0  0  0
  -24.8951  -32.3036   26.4695 H   0  0  0  0  0  0
  -25.8098  -30.9181   27.0276 H   0  0  0  0  0  0
  -26.3043  -29.6600   24.1363 H   0  0  0  0  0  0
  -27.4138  -29.7324   25.4851 H   0  0  0  0  0  0
  -27.8899  -30.4189   23.9522 H   0  0  0  0  0  0
  -27.2691  -33.3736   26.1801 H   0  0  0  0  0  0
  -28.3925  -32.6785   25.0203 H   0  0  0  0  0  0
  -28.0685  -31.8575   26.5428 H   0  0  0  0  0  0
  -28.2585  -38.0079   24.7502 H   0  0  0  0  0  0
  -28.1073  -36.2606   24.6282 H   0  0  0  0  0  0
  -27.2297  -37.1411   25.8869 H   0  0  0  0  0  0
  -20.9487  -29.8741   21.6773 H   0  0  0  0  0  0
  -26.0152  -38.2814   24.1410 H   0  0  0  0  0  0
  -28.1132  -18.7161   20.7124 H   0  0  0  0  0  0
  -31.2012  -21.6142   19.8756 H   0  0  0  0  0  0
  -32.1420  -17.4302   19.9009 H   0  0  0  0  0  0
  -28.9947  -23.1487   23.9671 H   0  0  0  0  0  0
  -27.7695  -23.9273   22.9889 H   0  0  0  0  0  0
  -26.6568  -22.0931   20.9846 H   0  0  0  0  0  0
  -27.0960  -20.4345   21.2473 H   0  0  0  0  0  0
  -30.4576  -22.8124   22.0512 H   0  0  0  0  0  0
  -29.9335  -24.4669   21.9831 H   0  0  0  0  0  0
  -29.8734  -23.3223   19.7642 H   0  0  0  0  0  0
  -34.7216  -20.9895   19.4874 H   0  0  0  0  0  0
  -33.4497  -21.5112   20.5824 H   0  0  0  0  0  0
  -33.2359  -21.6525   18.8202 H   0  0  0  0  0  0
  -27.0912  -24.3617   20.6865 H   0  0  0  0  0  0
  -27.6967  -24.3877   19.0700 H   0  0  0  0  0  0
  -28.7919  -16.0475   20.6919 H   0  0  0  0  0  0
  1 25  1  0  0  0
  1 30  2  0  0  0
  1 85  1  0  0  0
  2  3  1  0  0  0
  2 25  1  0  0  0
  2 88  1  0  0  0
  2 89  1  0  0  0
  3  4  1  0  0  0
  3 90  1  0  0  0
  3 91  1  0  0  0
  4  5  1  0  0  0
  4 92  1  0  0  0
  4 93  1  0  0  0
  5  6  1  0  0  0
  5 26  1  0  0  0
  5 94  1  0  0  0
  6 25  1  0  0  0
  6 95  1  0  0  0
  6 96  1  0  0  0
  7  8  2  0  0  0
  7 26  1  0  0  0
  7 29  1  0  0  0
  8  9  1  0  0  0
  8 22  1  0  0  0
  9 10  1  0  0  0
  9 27  2  0  0  0
 10 11  2  0  0  0
 10 15  1  0  0  0
 11 12  1  0  0  0
 11 97  1  0  0  0
 12 13  2  0  0  0
 12 98  1  0  0  0
 13 14  1  0  0  0
 13 31  1  0  0  0
 14 15  2  0  0  0
 14 99  1  0  0  0
 15100  1  0  0  0
 16 17  2  0  0  0
 16 21  1  0  0  0
 16 31  1  0  0  0
 17 18  1  0  0  0
 17101  1  0  0  0
 18 19  2  0  0  0
 18102  1  0  0  0
 19 20  1  0  0  0
 19 24  1  0  0  0
 20 21  2  0  0  0
 20103  1  0  0  0
 21 23  1  0  0  0
 22 28  1  0  0  0
 22 32  2  0  0  0
 26 27  1  0  0  0
 28104  1  0  0  0
 28105  1  0  0  0
 29106  1  0  0  0
 29107  1  0  0  0
 33 34  1  0  0  0
 33 66  1  0  0  0
 33 70  2  0  0  0
 34 36  1  0  0  0
 34 59  1  0  0  0
 34108  1  0  0  0
 35 44  2  0  0  0
 35 45  1  0  0  0
 35 68  1  0  0  0
 36 56  1  0  0  0
 36109  1  0  0  0
 37 39  1  0  0  0
 37 47  1  0  0  0
 37 66  1  0  0  0
 37110  1  0  0  0
 38 43  2  0  0  0
 38 46  1  0  0  0
 38 47  1  0  0  0
 39 64  1  0  0  0
 39 67  2  0  0  0
 40 52  1  0  0  0
 40 53  2  0  0  0
 40 58  1  0  0  0
 41111  1  0  0  0
 41112  1  0  0  0
 41113  1  0  0  0
 41 48  1  0  0  0
 42 43  1  0  0  0
 42 66  1  0  0  0
 42114  1  0  0  0
 42115  1  0  0  0
 43 44  1  0  0  0
 44116  1  0  0  0
 45 46  2  0  0  0
 45117  1  0  0  0
 46118  1  0  0  0
 47119  1  0  0  0
 47120  1  0  0  0
 48 56  1  0  0  0
 48 65  1  0  0  0
 48121  1  0  0  0
 49 50  1  0  0  0
 49 53  1  0  0  0
 49 64  1  0  0  0
 49122  1  0  0  0
 50 51  1  0  0  0
 50123  1  0  0  0
 50124  1  0  0  0
 51 52  1  0  0  0
 51125  1  0  0  0
 51126  1  0  0  0
 52127  1  0  0  0
 52128  1  0  0  0
 53 54  1  0  0  0
 54 55  2  0  0  0
 54129  1  0  0  0
 55 57  1  0  0  0
 55130  1  0  0  0
 56 69  2  0  0  0
 57 58  2  0  0  0
 57131  1  0  0  0
 58132  1  0  0  0
 59 60  1  0  0  0
 59 61  1  0  0  0
 59 62  1  0  0  0
 60133  1  0  0  0
 60134  1  0  0  0
 60135  1  0  0  0
 61136  1  0  0  0
 61137  1  0  0  0
 61138  1  0  0  0
 62139  1  0  0  0
 62140  1  0  0  0
 62141  1  0  0  0
 63 65  1  0  0  0
 63142  1  0  0  0
 63143  1  0  0  0
 63144  1  0  0  0
 64145  1  0  0  0
 65146  1  0  0  0
 68 83  1  0  0  0
 71 74  2  0  0  0
 71 75  1  0  0  0
 71147  1  0  0  0
 72 74  1  0  0  0
 72 76  2  0  0  0
 72148  1  0  0  0
 73 75  2  0  0  0
 73 76  1  0  0  0
 73149  1  0  0  0
 74 84  1  0  0  0
 75 85  1  0  0  0
 76 87  1  0  0  0
 77 78  1  0  0  0
 77 79  1  0  0  0
 77 86  2  0  0  0
 78 80  1  0  0  0
 78150  1  0  0  0
 78151  1  0  0  0
 79 84  1  0  0  0
 79152  1  0  0  0
 79153  1  0  0  0
 80 81  1  0  0  0
 80154  1  0  0  0
 80155  1  0  0  0
 81 83  1  0  0  0
 81 84  1  0  0  0
 81156  1  0  0  0
 82 87  1  0  0  0
 82157  1  0  0  0
 82158  1  0  0  0
 82159  1  0  0  0
 83160  1  0  0  0
 83161  1  0  0  0
 85162  1  0  0  0
M  ISO  4   1 100  68 101  83 101  85 100
M  END
> <chiral flag>
0

> <version>
0

> <s_m_source_file>
/data/baiqing/PycharmProjects/Reinvent-master-3.2/result/LINK_invent/BTK/process_docking_weight1_custom_product_contain_oxygen_bond_distance_aromatic_linkinvent_7_9_3/rearranged_h_0113.sdf

> <i_m_source_file_index>
95

> <r_mmod_Potential_Energy-OPLS-2005>
694.960144042969

> <r_mmod_Stretch_Energy-OPLS-2005>
329.559112548828

> <r_mmod_Bend_Energy-OPLS-2005>
291.146881103516

> <r_mmod_Torsional_Energy-OPLS-2005>
224.440856933594

> <r_mmod_Improper_Torsional_Energy-OPLS-2005>
7.39900779724121

> <r_mmod_Van_der_Waal_Energy-OPLS-2005>
144.366928100586

> <r_mmod_Electrostatic_Energy-OPLS-2005>
-300.645477294922

> <r_mmod_Solvation_Energy-OPLS-2005>
-246.304244995117

> <b_mmod_Minimization_Converged-OPLS-2005>
0

> <r_mmod_RMS_Derivative-OPLS-2005>
2.35513591766357

$$$$
95
                    3D
 Structure written by MMmdl.
154162  0  0  1  0            999 V2000
  -30.4004  -15.1515   21.3205 C   0  0  0  0  0  0
  -30.5836  -14.0513   17.7665 C   0  0  0  0  0  0
  -28.9815  -13.3764   17.2116 C   0  0  0  0  0  0
  -27.6702  -12.9142   18.3448 C   0  0  0  0  0  0
  -27.6032  -13.1742   20.1077 C   0  0  2  0  0  0
  -28.9965  -13.3275   21.3080 C   0  0  0  0  0  0
  -25.1980  -13.7830   20.6608 C   0  0  0  0  0  0
  -24.1295  -13.0026   20.9563 C   0  0  0  0  0  0
  -24.6039  -11.6572   20.9105 C   0  0  0  0  0  0
  -23.8806  -10.4023   21.0500 C   0  0  0  0  0  0
  -24.3438   -9.3984   21.9251 C   0  0  0  0  0  0
  -23.6157   -8.2031   22.0764 C   0  0  0  0  0  0
  -22.4160   -8.0111   21.3513 C   0  0  0  0  0  0
  -21.9766   -9.0056   20.4617 C   0  0  0  0  0  0
  -22.7052  -10.1943   20.3059 C   0  0  0  0  0  0
  -21.6778   -6.0643   22.5273 C   0  0  0  0  0  0
  -21.3974   -6.5584   23.8190 C   0  0  0  0  0  0
  -21.3652   -5.6759   24.9166 C   0  0  0  0  0  0
  -21.6051   -4.3022   24.7230 C   0  0  0  0  0  0
  -21.8828   -3.8093   23.4353 C   0  0  0  0  0  0
  -21.9166   -4.6889   22.3398 C   0  0  0  0  0  0
  -22.7332  -13.4885   21.1875 C   0  0  0  0  0  0
  -22.1662   -4.2089   21.0974 F   0  0  0  0  0  0
  -21.5626   -3.4520   25.7745 F   0  0  0  0  0  0
  -30.5288  -14.1289   20.6784 N   0  0  0  0  0  0
  -26.2724  -12.8911   20.5427 N   0  0  0  0  0  0
  -25.9074  -11.6078   20.6762 N   0  0  0  0  0  0
  -21.9922  -12.8005   22.0458 N   0  0  0  0  0  0
  -25.3062  -15.1675   20.4795 N   0  0  0  0  0  0
  -31.4610  -15.7055   21.5373 O   0  0  0  0  0  0
  -21.6521   -6.8741   21.4220 O   0  0  0  0  0  0
  -22.3169  -14.5202   20.6611 O   0  0  0  0  0  0
  -24.7014  -31.7797   23.1328 C   0  0  0  0  0  0
  -25.9508  -32.4358   23.7958 C   0  0  1  0  0  0
  -27.2475  -26.5808   20.0829 C   0  0  0  0  0  0
  -25.6021  -33.8186   24.1819 N   0  0  0  0  0  0
  -23.5308  -30.3771   21.4955 C   0  0  2  0  0  0
  -24.9807  -28.6902   20.1073 C   0  0  0  0  0  0
  -22.7832  -29.4223   22.4669 C   0  0  0  0  0  0
  -18.0366  -28.1419   22.8469 C   0  0  0  0  0  0
  -24.1516  -36.7109   23.2648 C   0  0  0  0  0  0
  -26.1203  -30.4605   21.4124 C   0  0  0  0  0  0
  -26.1846  -29.0155   20.7422 C   0  0  0  0  0  0
  -27.2951  -27.9909   20.6986 C   0  0  0  0  0  0
  -25.9853  -26.4900   19.4389 C   0  0  0  0  0  0
  -24.9221  -27.4496   19.4463 C   0  0  0  0  0  0
  -23.7844  -29.6624   20.1374 C   0  0  0  0  0  0
  -25.4160  -36.2800   24.0251 C   0  0  1  0  0  0
  -20.6005  -28.3782   23.1129 C   0  0  2  0  0  0
  -20.6815  -26.9432   22.5406 C   0  0  0  0  0  0
  -19.5789  -26.6360   21.5226 C   0  0  0  0  0  0
  -18.1977  -26.7947   22.1632 C   0  0  0  0  0  0
  -19.1633  -28.8929   23.2784 C   0  0  0  0  0  0
  -18.9526  -30.1514   23.8824 C   0  0  0  0  0  0
  -17.6507  -30.6598   24.0541 C   0  0  0  0  0  0
  -25.9159  -34.9212   23.4875 C   0  0  0  0  0  0
  -16.5401  -29.9070   23.6345 C   0  0  0  0  0  0
  -16.7344  -28.6493   23.0376 C   0  0  0  0  0  0
  -26.4623  -31.6474   25.0653 C   0  0  0  0  0  0
  -25.3655  -31.3837   26.1245 C   0  0  0  0  0  0
  -27.0530  -30.2785   24.6640 C   0  0  0  0  0  0
  -27.6043  -32.4372   25.7492 C   0  0  0  0  0  0
  -27.5569  -37.1688   24.8439 C   0  0  0  0  0  0
  -21.4460  -29.3013   22.3432 N   0  0  0  0  0  0
  -26.4250  -37.3592   23.9419 N   0  0  0  0  0  0
  -24.8111  -30.9083   22.0665 N   0  0  0  0  0  0
  -23.4213  -28.7843   23.3073 O   0  0  0  0  0  0
  -28.2224  -25.3203   20.0137 O   0  0  0  0  0  0
  -26.5825  -34.8826   22.4512 O   0  0  0  0  0  0
  -23.5997  -32.0961   23.6186 O   0  0  0  0  0  0
  -32.4639  -14.0589   19.2191 C   0  0  0  0  0  0
  -29.9289  -12.6274   19.2568 C   0  0  0  0  0  0
  -30.2759  -16.2189   19.0016 C   0  0  0  0  0  0
  -31.8680  -15.6266   19.0242 C   0  0  0  0  0  0
  -29.2124  -14.8699   19.2629 C   0  0  0  0  0  0
  -31.6281  -12.5979   19.2939 C   0  0  0  0  0  0
  -30.0314  -18.1520   18.9477 C   0  0  0  0  0  0
  -29.0177  -19.7179   19.4776 C   0  0  0  0  0  0
  -29.1065  -21.7548   19.4948 C   0  0  0  0  0  0
  -28.1016  -23.5029   19.7816 C   0  0  0  0  0  0
  -32.8951  -16.5566   18.8187 N   0  0  0  0  0  0
  -29.3480  -15.5985   20.5691 N   0  0  0  0  0  0
  -30.9499  -18.6374   18.2808 O   0  0  0  0  0  0
  -32.2957  -11.4208   19.3690 F   0  0  0  0  0  0
  -30.6744  -14.9370   17.1216 H   0  0  0  0  0  0
  -31.3122  -13.4546   17.1930 H   0  0  0  0  0  0
  -29.1886  -12.5089   16.5829 H   0  0  0  0  0  0
  -28.5639  -14.0993   16.5101 H   0  0  0  0  0  0
  -27.4964  -11.8481   18.1877 H   0  0  0  0  0  0
  -26.7637  -13.3653   17.9405 H   0  0  0  0  0  0
  -27.3510  -14.2065   20.1428 H   0  0  0  0  0  0
  -29.2638  -12.3338   21.6741 H   0  0  0  0  0  0
  -28.6022  -13.7953   22.2180 H   0  0  0  0  0  0
  -25.2550   -9.5485   22.4877 H   0  0  0  0  0  0
  -23.9846   -7.4409   22.7485 H   0  0  0  0  0  0
  -21.0693   -8.8538   19.8933 H   0  0  0  0  0  0
  -22.3496  -10.9500   19.6198 H   0  0  0  0  0  0
  -21.1980   -7.6100   23.9670 H   0  0  0  0  0  0
  -21.1485   -6.0504   25.9063 H   0  0  0  0  0  0
  -22.0639   -2.7561   23.2856 H   0  0  0  0  0  0
  -22.3503  -11.9734   22.5004 H   0  0  0  0  0  0
  -21.0543  -13.1107   22.2585 H   0  0  0  0  0  0
  -24.4946  -15.7748   20.5308 H   0  0  0  0  0  0
  -26.1544  -15.6604   20.2300 H   0  0  0  0  0  0
  -26.7613  -32.4773   23.0688 H   0  0  0  0  0  0
  -25.0040  -33.9206   24.9882 H   0  0  0  0  0  0
  -22.8648  -31.2183   21.2941 H   0  0  0  0  0  0
  -23.3790  -35.9423   23.3163 H   0  0  0  0  0  0
  -24.3608  -36.8936   22.2098 H   0  0  0  0  0  0
  -23.7268  -37.6224   23.6856 H   0  0  0  0  0  0
  -26.3416  -31.1836   20.6266 H   0  0  0  0  0  0
  -26.9621  -30.5244   22.0876 H   0  0  0  0  0  0
  -28.2071  -28.2510   21.2186 H   0  0  0  0  0  0
  -25.7843  -25.5667   18.9140 H   0  0  0  0  0  0
  -24.0087  -27.1837   18.9313 H   0  0  0  0  0  0
  -23.9626  -30.4142   19.3688 H   0  0  0  0  0  0
  -22.8838  -29.1365   19.8180 H   0  0  0  0  0  0
  -25.1384  -36.1495   25.0735 H   0  0  0  0  0  0
  -21.0120  -28.3404   24.1243 H   0  0  0  0  0  0
  -20.5656  -26.2415   23.3681 H   0  0  0  0  0  0
  -21.6673  -26.7338   22.1234 H   0  0  0  0  0  0
  -19.6927  -25.6248   21.1311 H   0  0  0  0  0  0
  -19.6719  -27.3122   20.6721 H   0  0  0  0  0  0
  -17.4244  -26.6718   21.4035 H   0  0  0  0  0  0
  -18.0346  -26.0104   22.9042 H   0  0  0  0  0  0
  -19.7996  -30.7366   24.2151 H   0  0  0  0  0  0
  -17.5044  -31.6268   24.5154 H   0  0  0  0  0  0
  -15.5392  -30.2933   23.7695 H   0  0  0  0  0  0
  -15.8761  -28.0764   22.7135 H   0  0  0  0  0  0
  -24.5876  -30.7153   25.7533 H   0  0  0  0  0  0
  -24.8817  -32.3074   26.4434 H   0  0  0  0  0  0
  -25.7806  -30.9149   27.0179 H   0  0  0  0  0  0
  -26.3227  -29.6404   24.1651 H   0  0  0  0  0  0
  -27.3896  -29.7253   25.5418 H   0  0  0  0  0  0
  -27.9255  -30.3832   24.0192 H   0  0  0  0  0  0
  -27.2564  -33.3777   26.1780 H   0  0  0  0  0  0
  -28.4012  -32.6774   25.0440 H   0  0  0  0  0  0
  -28.0545  -31.8704   26.5652 H   0  0  0  0  0  0
  -28.2443  -38.0111   24.7567 H   0  0  0  0  0  0
  -28.1203  -36.2629   24.6149 H   0  0  0  0  0  0
  -27.2308  -37.1166   25.8840 H   0  0  0  0  0  0
  -20.9783  -29.8682   21.6493 H   0  0  0  0  0  0
  -26.0030  -38.2602   24.1494 H   0  0  0  0  0  0
  -33.5395  -13.9532   19.2228 H   0  0  0  0  0  0
  -29.4032  -11.6820   19.3348 H   0  0  0  0  0  0
  -28.7928  -19.4822   20.5165 H   0  0  0  0  0  0
  -28.0749  -19.5226   18.9682 H   0  0  0  0  0  0
  -29.5604  -21.9490   18.5226 H   0  0  0  0  0  0
  -29.9375  -21.9008   20.1839 H   0  0  0  0  0  0
  -27.4942  -23.2588   20.6523 H   0  0  0  0  0  0
  -27.3814  -23.4734   18.9631 H   0  0  0  0  0  0
  -33.8618  -16.3598   19.0547 H   0  0  0  0  0  0
  -32.6778  -17.5395   18.6674 H   0  0  0  0  0  0
  -29.1098  -16.5742   20.6246 H   0  0  0  0  0  0
  1 25  1  0  0  0
  1 30  2  0  0  0
  1 82  1  0  0  0
  2  3  1  0  0  0
  2 25  1  0  0  0
  2 85  1  0  0  0
  2 86  1  0  0  0
  3  4  1  0  0  0
  3 87  1  0  0  0
  3 88  1  0  0  0
  4  5  1  0  0  0
  4 89  1  0  0  0
  4 90  1  0  0  0
  5  6  1  0  0  0
  5 26  1  0  0  0
  5 91  1  0  0  0
  6 25  1  0  0  0
  6 92  1  0  0  0
  6 93  1  0  0  0
  7  8  2  0  0  0
  7 26  1  0  0  0
  7 29  1  0  0  0
  8  9  1  0  0  0
  8 22  1  0  0  0
  9 10  1  0  0  0
  9 27  2  0  0  0
 10 11  2  0  0  0
 10 15  1  0  0  0
 11 12  1  0  0  0
 11 94  1  0  0  0
 12 13  2  0  0  0
 12 95  1  0  0  0
 13 14  1  0  0  0
 13 31  1  0  0  0
 14 15  2  0  0  0
 14 96  1  0  0  0
 15 97  1  0  0  0
 16 17  2  0  0  0
 16 21  1  0  0  0
 16 31  1  0  0  0
 17 18  1  0  0  0
 17 98  1  0  0  0
 18 19  2  0  0  0
 18 99  1  0  0  0
 19 20  1  0  0  0
 19 24  1  0  0  0
 20 21  2  0  0  0
 20100  1  0  0  0
 21 23  1  0  0  0
 22 28  1  0  0  0
 22 32  2  0  0  0
 26 27  1  0  0  0
 28101  1  0  0  0
 28102  1  0  0  0
 29103  1  0  0  0
 29104  1  0  0  0
 33 34  1  0  0  0
 33 66  1  0  0  0
 33 70  2  0  0  0
 34 36  1  0  0  0
 34 59  1  0  0  0
 34105  1  0  0  0
 35 44  2  0  0  0
 35 45  1  0  0  0
 35 68  1  0  0  0
 36 56  1  0  0  0
 36106  1  0  0  0
 37 39  1  0  0  0
 37 47  1  0  0  0
 37 66  1  0  0  0
 37107  1  0  0  0
 38 43  2  0  0  0
 38 46  1  0  0  0
 38 47  1  0  0  0
 39 64  1  0  0  0
 39 67  2  0  0  0
 40 52  1  0  0  0
 40 53  2  0  0  0
 40 58  1  0  0  0
 41108  1  0  0  0
 41109  1  0  0  0
 41110  1  0  0  0
 41 48  1  0  0  0
 42 43  1  0  0  0
 42 66  1  0  0  0
 42111  1  0  0  0
 42112  1  0  0  0
 43 44  1  0  0  0
 44113  1  0  0  0
 45 46  2  0  0  0
 45114  1  0  0  0
 46115  1  0  0  0
 47116  1  0  0  0
 47117  1  0  0  0
 48 56  1  0  0  0
 48 65  1  0  0  0
 48118  1  0  0  0
 49 50  1  0  0  0
 49 53  1  0  0  0
 49 64  1  0  0  0
 49119  1  0  0  0
 50 51  1  0  0  0
 50120  1  0  0  0
 50121  1  0  0  0
 51 52  1  0  0  0
 51122  1  0  0  0
 51123  1  0  0  0
 52124  1  0  0  0
 52125  1  0  0  0
 53 54  1  0  0  0
 54 55  2  0  0  0
 54126  1  0  0  0
 55 57  1  0  0  0
 55127  1  0  0  0
 56 69  2  0  0  0
 57 58  2  0  0  0
 57128  1  0  0  0
 58129  1  0  0  0
 59 60  1  0  0  0
 59 61  1  0  0  0
 59 62  1  0  0  0
 60130  1  0  0  0
 60131  1  0  0  0
 60132  1  0  0  0
 61133  1  0  0  0
 61134  1  0  0  0
 61135  1  0  0  0
 62136  1  0  0  0
 62137  1  0  0  0
 62138  1  0  0  0
 63 65  1  0  0  0
 63139  1  0  0  0
 63140  1  0  0  0
 63141  1  0  0  0
 64142  1  0  0  0
 65143  1  0  0  0
 68 80  1  0  0  0
 71 74  2  0  0  0
 71 76  1  0  0  0
 71144  1  0  0  0
 72 75  1  0  0  0
 72 76  2  0  0  0
 72145  1  0  0  0
 73 74  1  0  0  0
 73 75  2  0  0  0
 73 77  1  0  0  0
 74 81  1  0  0  0
 75 82  1  0  0  0
 76 84  1  0  0  0
 77 78  1  0  0  0
 77 83  2  0  0  0
 78 79  1  0  0  0
 78146  1  0  0  0
 78147  1  0  0  0
 79 80  1  0  0  0
 79148  1  0  0  0
 79149  1  0  0  0
 80150  1  0  0  0
 80151  1  0  0  0
 81152  1  0  0  0
 81153  1  0  0  0
 82154  1  0  0  0
M  ISO  4   1 100  68 101  80 101  82 100
M  END
> <chiral flag>
0

> <version>
0

> <s_m_source_file>
/data/baiqing/PycharmProjects/Reinvent-master-3.2/result/LINK_invent/BTK/process_docking_weight1_custom_product_contain_oxygen_bond_distance_aromatic_linkinvent_7_9_3/rearranged_h_0113.sdf

> <i_m_source_file_index>
96

> <r_mmod_Potential_Energy-OPLS-2005>
14230.3642578125

> <r_mmod_Stretch_Energy-OPLS-2005>
7900.52587890625

> <r_mmod_Bend_Energy-OPLS-2005>
1201.85107421875

> <r_mmod_Torsional_Energy-OPLS-2005>
470.498596191406

> <r_mmod_Improper_Torsional_Energy-OPLS-2005>
100.238983154297

> <r_mmod_Van_der_Waal_Energy-OPLS-2005>
3073.91625976562

> <r_mmod_Electrostatic_Energy-OPLS-2005>
-200.042205810547

> <r_mmod_Solvation_Energy-OPLS-2005>
-229.427520751953

> <b_mmod_Minimization_Converged-OPLS-2005>
0

> <r_mmod_RMS_Derivative-OPLS-2005>
4.36590766906738

$$$$
96
                    3D
 Structure written by MMmdl.
158166  0  0  1  0            999 V2000
  -30.6363  -14.6396   20.4814 C   0  0  0  0  0  0
  -30.4189  -12.3853   19.4482 C   0  0  0  0  0  0
  -29.4923  -12.5026   18.2155 C   0  0  0  0  0  0
  -28.0166  -12.3413   18.6293 C   0  0  0  0  0  0
  -27.6455  -13.2183   19.8548 C   0  0  2  0  0  0
  -28.6899  -13.0964   20.9875 C   0  0  0  0  0  0
  -25.2514  -13.8137   20.5620 C   0  0  0  0  0  0
  -24.1828  -13.0417   20.9196 C   0  0  0  0  0  0
  -24.6396  -11.6883   20.8749 C   0  0  0  0  0  0
  -23.9067  -10.4268   21.0414 C   0  0  0  0  0  0
  -24.3626   -9.4193   21.9186 C   0  0  0  0  0  0
  -23.6292   -8.2241   22.0747 C   0  0  0  0  0  0
  -22.4271   -8.0266   21.3542 C   0  0  0  0  0  0
  -21.9905   -9.0242   20.4658 C   0  0  0  0  0  0
  -22.7245  -10.2118   20.3068 C   0  0  0  0  0  0
  -21.6860   -6.0753   22.5303 C   0  0  0  0  0  0
  -21.4033   -6.5663   23.8231 C   0  0  0  0  0  0
  -21.3659   -5.6806   24.9181 C   0  0  0  0  0  0
  -21.6027   -4.3060   24.7233 C   0  0  0  0  0  0
  -21.8823   -3.8154   23.4357 C   0  0  0  0  0  0
  -21.9196   -4.6969   22.3419 C   0  0  0  0  0  0
  -22.7867  -13.5212   21.1843 C   0  0  0  0  0  0
  -22.1656   -4.2161   21.0985 F   0  0  0  0  0  0
  -21.5614   -3.4538   25.7743 F   0  0  0  0  0  0
  -30.0055  -13.4223   20.4172 N   0  0  0  0  0  0
  -26.2949  -12.9342   20.3269 N   0  0  0  0  0  0
  -25.9330  -11.6499   20.5786 N   0  0  0  0  0  0
  -22.0554  -12.8215   22.0413 N   0  0  0  0  0  0
  -25.4138  -15.1862   20.3857 N   0  0  0  0  0  0
  -31.7998  -14.7425   20.0971 O   0  0  0  0  0  0
  -21.6642   -6.8883   21.4254 O   0  0  0  0  0  0
  -22.3543  -14.5522   20.6680 O   0  0  0  0  0  0
  -24.6247  -31.8599   23.2027 C   0  0  0  0  0  0
  -25.9092  -32.4788   23.8332 C   0  0  1  0  0  0
  -27.2296  -27.3325   20.1203 C   0  0  0  0  0  0
  -25.5914  -33.8586   24.2263 N   0  0  0  0  0  0
  -23.4182  -30.4845   21.5465 C   0  0  2  0  0  0
  -24.8652  -28.9417   20.1099 C   0  0  0  0  0  0
  -22.7474  -29.4637   22.4945 C   0  0  0  0  0  0
  -18.0299  -28.1395   22.8487 C   0  0  0  0  0  0
  -24.1506  -36.7280   23.2638 C   0  0  0  0  0  0
  -25.9568  -30.7918   21.3770 C   0  0  0  0  0  0
  -26.0324  -29.4242   20.7137 C   0  0  0  0  0  0
  -27.2169  -28.6334   20.7067 C   0  0  0  0  0  0
  -26.0383  -26.9007   19.4902 C   0  0  0  0  0  0
  -24.8707  -27.6851   19.4862 C   0  0  0  0  0  0
  -23.6307  -29.8167   20.1647 C   0  0  0  0  0  0
  -25.4132  -36.3088   24.0338 C   0  0  1  0  0  0
  -20.5910  -28.3689   23.1288 C   0  0  2  0  0  0
  -20.6823  -26.9422   22.5410 C   0  0  0  0  0  0
  -19.5790  -26.6380   21.5231 C   0  0  0  0  0  0
  -18.1954  -26.7941   22.1620 C   0  0  0  0  0  0
  -19.1557  -28.8864   23.2872 C   0  0  0  0  0  0
  -18.9477  -30.1489   23.8853 C   0  0  0  0  0  0
  -17.6475  -30.6591   24.0590 C   0  0  0  0  0  0
  -25.9053  -34.9463   23.5095 C   0  0  0  0  0  0
  -16.5367  -29.9086   23.6357 C   0  0  0  0  0  0
  -16.7293  -28.6521   23.0332 C   0  0  0  0  0  0
  -26.4464  -31.6604   25.0697 C   0  0  0  0  0  0
  -25.3680  -31.3776   26.1422 C   0  0  0  0  0  0
  -27.0327  -30.3032   24.6174 C   0  0  0  0  0  0
  -27.6035  -32.4350   25.7418 C   0  0  0  0  0  0
  -27.5605  -37.1799   24.8465 C   0  0  0  0  0  0
  -21.4197  -29.3025   22.3665 N   0  0  0  0  0  0
  -26.4312  -37.3787   23.9407 N   0  0  0  0  0  0
  -24.6848  -31.0626   22.0979 N   0  0  0  0  0  0
  -23.4181  -28.8174   23.3031 O   0  0  0  0  0  0
  -28.3517  -26.4929   20.1840 O   0  0  0  0  0  0
  -26.5621  -34.8950   22.4659 O   0  0  0  0  0  0
  -23.5410  -32.1361   23.7372 O   0  0  0  0  0  0
  -30.9923  -19.4340   20.8305 C   0  0  0  0  0  0
  -28.7084  -17.9054   20.6757 C   0  0  0  0  0  0
  -31.1161  -18.0118   20.7930 C   0  0  0  0  0  0
  -29.7617  -20.1428   20.7660 C   0  0  0  0  0  0
  -29.9431  -17.1915   20.7230 C   0  0  0  0  0  0
  -28.5844  -19.3391   20.6809 C   0  0  0  0  0  0
  -33.4172  -17.8551   21.7612 C   0  0  0  0  0  0
  -32.4907  -17.4846   20.8621 C   0  0  0  0  0  0
  -29.0121  -22.4882   20.4392 C   0  0  0  0  0  0
  -26.1735  -19.2824   20.2620 C   0  0  0  0  0  0
  -29.2689  -24.0410   20.5682 C   0  0  0  0  0  0
  -28.1288  -25.0321   20.0834 C   0  0  0  0  0  0
  -29.8485  -21.5822   20.8498 N   0  0  0  0  0  0
  -29.8388  -15.7148   20.7951 N   0  0  0  0  0  0
  -27.3561  -19.9804   20.6758 O   0  0  0  0  0  0
  -31.4628  -12.4907   19.1446 H   0  0  0  0  0  0
  -30.3379  -11.3916   19.8953 H   0  0  0  0  0  0
  -29.7513  -11.7524   17.4675 H   0  0  0  0  0  0
  -29.6310  -13.4712   17.7332 H   0  0  0  0  0  0
  -27.8588  -11.2888   18.8647 H   0  0  0  0  0  0
  -27.3516  -12.5595   17.7910 H   0  0  0  0  0  0
  -27.6582  -14.2506   19.5052 H   0  0  0  0  0  0
  -28.7023  -12.0885   21.4019 H   0  0  0  0  0  0
  -28.4374  -13.7567   21.8184 H   0  0  0  0  0  0
  -25.2773   -9.5670   22.4765 H   0  0  0  0  0  0
  -24.0008   -7.4636   22.7466 H   0  0  0  0  0  0
  -21.0829   -8.8764   19.8994 H   0  0  0  0  0  0
  -22.3678  -10.9658   19.6176 H   0  0  0  0  0  0
  -21.2075   -7.6169   23.9739 H   0  0  0  0  0  0
  -21.1447   -6.0539   25.9086 H   0  0  0  0  0  0
  -22.0604   -2.7629   23.2853 H   0  0  0  0  0  0
  -22.4155  -11.9830   22.4738 H   0  0  0  0  0  0
  -21.1225  -13.1298   22.2724 H   0  0  0  0  0  0
  -24.6085  -15.8017   20.4077 H   0  0  0  0  0  0
  -26.2087  -15.5924   19.9117 H   0  0  0  0  0  0
  -26.7134  -32.5475   23.1057 H   0  0  0  0  0  0
  -25.0130  -33.9699   25.0459 H   0  0  0  0  0  0
  -22.7137  -31.3060   21.4083 H   0  0  0  0  0  0
  -23.3826  -35.9559   23.3270 H   0  0  0  0  0  0
  -24.3598  -36.8913   22.2056 H   0  0  0  0  0  0
  -23.7208  -37.6452   23.6672 H   0  0  0  0  0  0
  -26.0993  -31.5621   20.6192 H   0  0  0  0  0  0
  -26.8317  -30.8258   22.0136 H   0  0  0  0  0  0
  -28.1133  -29.0002   21.1873 H   0  0  0  0  0  0
  -25.9839  -25.9417   19.0002 H   0  0  0  0  0  0
  -23.9783  -27.3077   19.0049 H   0  0  0  0  0  0
  -23.7404  -30.5930   19.4090 H   0  0  0  0  0  0
  -22.7498  -29.2434   19.8689 H   0  0  0  0  0  0
  -25.1339  -36.1934   25.0841 H   0  0  0  0  0  0
  -21.0003  -28.3272   24.1408 H   0  0  0  0  0  0
  -20.5799  -26.2277   23.3593 H   0  0  0  0  0  0
  -21.6671  -26.7492   22.1146 H   0  0  0  0  0  0
  -19.6965  -25.6283   21.1261 H   0  0  0  0  0  0
  -19.6763  -27.3201   20.6784 H   0  0  0  0  0  0
  -17.4249  -26.6723   21.4002 H   0  0  0  0  0  0
  -18.0327  -26.0069   22.9001 H   0  0  0  0  0  0
  -19.7956  -30.7365   24.2114 H   0  0  0  0  0  0
  -17.5029  -31.6268   24.5213 H   0  0  0  0  0  0
  -15.5365  -30.2983   23.7715 H   0  0  0  0  0  0
  -15.8696  -28.0887   22.6979 H   0  0  0  0  0  0
  -24.5730  -30.7303   25.7684 H   0  0  0  0  0  0
  -24.9038  -32.2995   26.4958 H   0  0  0  0  0  0
  -25.7920  -30.8764   27.0136 H   0  0  0  0  0  0
  -26.2909  -29.6745   24.1229 H   0  0  0  0  0  0
  -27.4067  -29.7321   25.4685 H   0  0  0  0  0  0
  -27.8767  -30.4338   23.9390 H   0  0  0  0  0  0
  -27.2665  -33.3675   26.1975 H   0  0  0  0  0  0
  -28.3815  -32.6880   25.0191 H   0  0  0  0  0  0
  -28.0755  -31.8503   26.5324 H   0  0  0  0  0  0
  -28.2610  -38.0114   24.7559 H   0  0  0  0  0  0
  -28.1118  -36.2649   24.6259 H   0  0  0  0  0  0
  -27.2314  -37.1401   25.8862 H   0  0  0  0  0  0
  -20.9362  -29.8660   21.6829 H   0  0  0  0  0  0
  -26.0213  -38.2864   24.1439 H   0  0  0  0  0  0
  -31.8981  -20.0184   20.9107 H   0  0  0  0  0  0
  -27.8180  -17.3001   20.6663 H   0  0  0  0  0  0
  -34.4184  -17.4437   21.7303 H   0  0  0  0  0  0
  -33.1986  -18.5692   22.5434 H   0  0  0  0  0  0
  -32.7930  -16.7897   20.0948 H   0  0  0  0  0  0
  -28.0722  -22.2368   19.9440 H   0  0  0  0  0  0
  -25.3158  -19.8961   20.5355 H   0  0  0  0  0  0
  -25.9954  -18.3211   20.7523 H   0  0  0  0  0  0
  -26.1490  -19.1565   19.1726 H   0  0  0  0  0  0
  -30.1841  -24.2672   20.0204 H   0  0  0  0  0  0
  -29.4885  -24.2538   21.6140 H   0  0  0  0  0  0
  -27.2353  -24.7823   20.6578 H   0  0  0  0  0  0
  -27.9070  -24.7969   19.0418 H   0  0  0  0  0  0
  -28.9053  -15.3955   21.0086 H   0  0  0  0  0  0
  1 25  1  0  0  0
  1 30  2  0  0  0
  1 84  1  0  0  0
  2  3  1  0  0  0
  2 25  1  0  0  0
  2 86  1  0  0  0
  2 87  1  0  0  0
  3  4  1  0  0  0
  3 88  1  0  0  0
  3 89  1  0  0  0
  4  5  1  0  0  0
  4 90  1  0  0  0
  4 91  1  0  0  0
  5  6  1  0  0  0
  5 26  1  0  0  0
  5 92  1  0  0  0
  6 25  1  0  0  0
  6 93  1  0  0  0
  6 94  1  0  0  0
  7  8  2  0  0  0
  7 26  1  0  0  0
  7 29  1  0  0  0
  8  9  1  0  0  0
  8 22  1  0  0  0
  9 10  1  0  0  0
  9 27  2  0  0  0
 10 11  2  0  0  0
 10 15  1  0  0  0
 11 12  1  0  0  0
 11 95  1  0  0  0
 12 13  2  0  0  0
 12 96  1  0  0  0
 13 14  1  0  0  0
 13 31  1  0  0  0
 14 15  2  0  0  0
 14 97  1  0  0  0
 15 98  1  0  0  0
 16 17  2  0  0  0
 16 21  1  0  0  0
 16 31  1  0  0  0
 17 18  1  0  0  0
 17 99  1  0  0  0
 18 19  2  0  0  0
 18100  1  0  0  0
 19 20  1  0  0  0
 19 24  1  0  0  0
 20 21  2  0  0  0
 20101  1  0  0  0
 21 23  1  0  0  0
 22 28  1  0  0  0
 22 32  2  0  0  0
 26 27  1  0  0  0
 28102  1  0  0  0
 28103  1  0  0  0
 29104  1  0  0  0
 29105  1  0  0  0
 33 34  1  0  0  0
 33 66  1  0  0  0
 33 70  2  0  0  0
 34 36  1  0  0  0
 34 59  1  0  0  0
 34106  1  0  0  0
 35 44  2  0  0  0
 35 45  1  0  0  0
 35 68  1  0  0  0
 36 56  1  0  0  0
 36107  1  0  0  0
 37 39  1  0  0  0
 37 47  1  0  0  0
 37 66  1  0  0  0
 37108  1  0  0  0
 38 43  2  0  0  0
 38 46  1  0  0  0
 38 47  1  0  0  0
 39 64  1  0  0  0
 39 67  2  0  0  0
 40 52  1  0  0  0
 40 53  2  0  0  0
 40 58  1  0  0  0
 41109  1  0  0  0
 41110  1  0  0  0
 41111  1  0  0  0
 41 48  1  0  0  0
 42 43  1  0  0  0
 42 66  1  0  0  0
 42112  1  0  0  0
 42113  1  0  0  0
 43 44  1  0  0  0
 44114  1  0  0  0
 45 46  2  0  0  0
 45115  1  0  0  0
 46116  1  0  0  0
 47117  1  0  0  0
 47118  1  0  0  0
 48 56  1  0  0  0
 48 65  1  0  0  0
 48119  1  0  0  0
 49 50  1  0  0  0
 49 53  1  0  0  0
 49 64  1  0  0  0
 49120  1  0  0  0
 50 51  1  0  0  0
 50121  1  0  0  0
 50122  1  0  0  0
 51 52  1  0  0  0
 51123  1  0  0  0
 51124  1  0  0  0
 52125  1  0  0  0
 52126  1  0  0  0
 53 54  1  0  0  0
 54 55  2  0  0  0
 54127  1  0  0  0
 55 57  1  0  0  0
 55128  1  0  0  0
 56 69  2  0  0  0
 57 58  2  0  0  0
 57129  1  0  0  0
 58130  1  0  0  0
 59 60  1  0  0  0
 59 61  1  0  0  0
 59 62  1  0  0  0
 60131  1  0  0  0
 60132  1  0  0  0
 60133  1  0  0  0
 61134  1  0  0  0
 61135  1  0  0  0
 61136  1  0  0  0
 62137  1  0  0  0
 62138  1  0  0  0
 62139  1  0  0  0
 63 65  1  0  0  0
 63140  1  0  0  0
 63141  1  0  0  0
 63142  1  0  0  0
 64143  1  0  0  0
 65144  1  0  0  0
 68 82  1  0  0  0
 71 73  2  0  0  0
 71 74  1  0  0  0
 71145  1  0  0  0
 72 75  2  0  0  0
 72 76  1  0  0  0
 72146  1  0  0  0
 73 75  1  0  0  0
 73 78  1  0  0  0
 74 76  2  0  0  0
 74 83  1  0  0  0
 75 84  1  0  0  0
 76 85  1  0  0  0
 77 78  2  0  0  0
 77147  1  0  0  0
 77148  1  0  0  0
 78149  1  0  0  0
 79 81  1  0  0  0
 79 83  2  0  0  0
 79150  1  0  0  0
 80 85  1  0  0  0
 80151  1  0  0  0
 80152  1  0  0  0
 80153  1  0  0  0
 81 82  1  0  0  0
 81154  1  0  0  0
 81155  1  0  0  0
 82156  1  0  0  0
 82157  1  0  0  0
 84158  1  0  0  0
M  ISO  4   1 100  68 101  82 101  84 100
M  END
> <chiral flag>
0

> <version>
0

> <s_m_source_file>
/data/baiqing/PycharmProjects/Reinvent-master-3.2/result/LINK_invent/BTK/process_docking_weight1_custom_product_contain_oxygen_bond_distance_aromatic_linkinvent_7_9_3/rearranged_h_0113.sdf

> <i_m_source_file_index>
97

> <r_mmod_Potential_Energy-OPLS-2005>
90.3670043945312

> <r_mmod_Stretch_Energy-OPLS-2005>
86.2695770263672

> <r_mmod_Bend_Energy-OPLS-2005>
180.891555786133

> <r_mmod_Torsional_Energy-OPLS-2005>
238.356521606445

> <r_mmod_Improper_Torsional_Energy-OPLS-2005>
7.00713348388672

> <r_mmod_Van_der_Waal_Energy-OPLS-2005>
159.583114624023

> <r_mmod_Electrostatic_Energy-OPLS-2005>
-407.752807617188

> <r_mmod_Solvation_Energy-OPLS-2005>
-220.511077880859

> <b_mmod_Minimization_Converged-OPLS-2005>
0

> <r_mmod_RMS_Derivative-OPLS-2005>
4.95062017440796

$$$$
97
                    3D
 Structure written by MMmdl.
150158  0  0  1  0            999 V2000
  -30.5949  -14.7659   20.4794 C   0  0  0  0  0  0
  -30.4421  -12.4714   19.4750 C   0  0  0  0  0  0
  -29.5166  -12.5228   18.2383 C   0  0  0  0  0  0
  -28.0413  -12.3417   18.6487 C   0  0  0  0  0  0
  -27.6462  -13.2319   19.8571 C   0  0  2  0  0  0
  -28.6919  -13.1538   20.9917 C   0  0  0  0  0  0
  -25.2528  -13.8200   20.5693 C   0  0  0  0  0  0
  -24.1819  -13.0444   20.9198 C   0  0  0  0  0  0
  -24.6410  -11.6919   20.8754 C   0  0  0  0  0  0
  -23.9086  -10.4296   21.0414 C   0  0  0  0  0  0
  -24.3632   -9.4206   21.9189 C   0  0  0  0  0  0
  -23.6301   -8.2248   22.0755 C   0  0  0  0  0  0
  -22.4284   -8.0286   21.3545 C   0  0  0  0  0  0
  -21.9926   -9.0263   20.4647 C   0  0  0  0  0  0
  -22.7262  -10.2140   20.3058 C   0  0  0  0  0  0
  -21.6854   -6.0743   22.5278 C   0  0  0  0  0  0
  -21.4014   -6.5643   23.8214 C   0  0  0  0  0  0
  -21.3659   -5.6795   24.9174 C   0  0  0  0  0  0
  -21.6045   -4.3059   24.7224 C   0  0  0  0  0  0
  -21.8817   -3.8150   23.4345 C   0  0  0  0  0  0
  -21.9191   -4.6970   22.3400 C   0  0  0  0  0  0
  -22.7837  -13.5224   21.1860 C   0  0  0  0  0  0
  -22.1660   -4.2157   21.0979 F   0  0  0  0  0  0
  -21.5627   -3.4538   25.7736 F   0  0  0  0  0  0
  -29.9936  -13.5243   20.4178 N   0  0  0  0  0  0
  -26.2958  -12.9406   20.3302 N   0  0  0  0  0  0
  -25.9342  -11.6548   20.5760 N   0  0  0  0  0  0
  -22.0483  -12.8211   22.0412 N   0  0  0  0  0  0
  -25.4210  -15.1929   20.4107 N   0  0  0  0  0  0
  -31.7682  -14.8884   20.1185 O   0  0  0  0  0  0
  -21.6640   -6.8890   21.4245 O   0  0  0  0  0  0
  -22.3527  -14.5531   20.6705 O   0  0  0  0  0  0
  -24.6327  -31.8535   23.1975 C   0  0  0  0  0  0
  -25.9143  -32.4752   23.8327 C   0  0  1  0  0  0
  -27.2236  -27.2536   20.1381 C   0  0  0  0  0  0
  -25.5931  -33.8554   24.2248 N   0  0  0  0  0  0
  -23.4316  -30.4750   21.5396 C   0  0  2  0  0  0
  -24.8857  -28.9240   20.1057 C   0  0  0  0  0  0
  -22.7516  -29.4582   22.4888 C   0  0  0  0  0  0
  -18.0294  -28.1395   22.8469 C   0  0  0  0  0  0
  -24.1487  -36.7286   23.2639 C   0  0  0  0  0  0
  -25.9793  -30.7652   21.3800 C   0  0  0  0  0  0
  -26.0570  -29.3865   20.7225 C   0  0  0  0  0  0
  -27.2312  -28.5618   20.7328 C   0  0  0  0  0  0
  -26.0373  -26.8666   19.4808 C   0  0  0  0  0  0
  -24.8812  -27.6716   19.4718 C   0  0  0  0  0  0
  -23.6540  -29.8092   20.1553 C   0  0  0  0  0  0
  -25.4115  -36.3068   24.0324 C   0  0  1  0  0  0
  -20.5901  -28.3697   23.1263 C   0  0  2  0  0  0
  -20.6778  -26.9410   22.5405 C   0  0  0  0  0  0
  -19.5755  -26.6376   21.5212 C   0  0  0  0  0  0
  -18.1936  -26.7929   22.1623 C   0  0  0  0  0  0
  -19.1550  -28.8863   23.2853 C   0  0  0  0  0  0
  -18.9475  -30.1464   23.8873 C   0  0  0  0  0  0
  -17.6474  -30.6586   24.0565 C   0  0  0  0  0  0
  -25.9056  -34.9439   23.5088 C   0  0  0  0  0  0
  -16.5363  -29.9088   23.6339 C   0  0  0  0  0  0
  -16.7282  -28.6513   23.0340 C   0  0  0  0  0  0
  -26.4502  -31.6583   25.0722 C   0  0  0  0  0  0
  -25.3710  -31.3755   26.1432 C   0  0  0  0  0  0
  -27.0349  -30.2995   24.6217 C   0  0  0  0  0  0
  -27.6059  -32.4314   25.7495 C   0  0  0  0  0  0
  -27.5577  -37.1798   24.8465 C   0  0  0  0  0  0
  -21.4220  -29.3045   22.3652 N   0  0  0  0  0  0
  -26.4290  -37.3764   23.9408 N   0  0  0  0  0  0
  -24.7003  -31.0487   22.0959 N   0  0  0  0  0  0
  -23.4209  -28.8118   23.2992 O   0  0  0  0  0  0
  -28.2469  -26.2755   20.2199 O   0  0  0  0  0  0
  -26.5626  -34.8914   22.4653 O   0  0  0  0  0  0
  -23.5471  -32.1367   23.7253 O   0  0  0  0  0  0
  -30.9670  -18.1495   20.9545 C   0  0  0  0  0  0
  -29.9151  -17.2680   20.6950 C   0  0  0  0  0  0
  -29.4342  -19.8759   20.5412 C   0  0  0  0  0  0
  -33.3452  -18.5480   21.6246 C   0  0  0  0  0  0
  -32.3008  -17.7278   21.4151 C   0  0  0  0  0  0
  -28.2501  -23.7391   20.9909 C   0  0  0  0  0  0
  -27.8871  -25.0900   20.9298 C   0  0  0  0  0  0
  -29.2465  -22.6883   20.3439 C   0  0  0  0  0  0
  -30.7038  -19.5552   20.8289 N   0  0  0  0  0  0
  -29.7792  -15.8585   20.7606 N   0  0  0  0  0  0
  -28.8630  -21.2108   20.4097 N   0  0  0  0  0  0
  -28.5053  -18.3352   20.3583 S   0  0  0  0  0  0
  -31.4818  -12.6050   19.1720 H   0  0  0  0  0  0
  -30.3957  -11.4905   19.9504 H   0  0  0  0  0  0
  -29.8021  -11.7550   17.5180 H   0  0  0  0  0  0
  -29.6388  -13.4806   17.7293 H   0  0  0  0  0  0
  -27.8953  -11.2910   18.9005 H   0  0  0  0  0  0
  -27.3856  -12.5444   17.8007 H   0  0  0  0  0  0
  -27.6426  -14.2568   19.4852 H   0  0  0  0  0  0
  -28.7333  -12.1478   21.4119 H   0  0  0  0  0  0
  -28.4217  -13.8134   21.8173 H   0  0  0  0  0  0
  -25.2780   -9.5675   22.4762 H   0  0  0  0  0  0
  -24.0002   -7.4640   22.7476 H   0  0  0  0  0  0
  -21.0855   -8.8792   19.8953 H   0  0  0  0  0  0
  -22.3730  -10.9679   19.6163 H   0  0  0  0  0  0
  -21.2009   -7.6150   23.9720 H   0  0  0  0  0  0
  -21.1482   -6.0523   25.9079 H   0  0  0  0  0  0
  -22.0597   -2.7612   23.2841 H   0  0  0  0  0  0
  -22.4088  -11.9862   22.4795 H   0  0  0  0  0  0
  -21.1100  -13.1235   22.2621 H   0  0  0  0  0  0
  -24.6484  -15.8412   20.5152 H   0  0  0  0  0  0
  -26.2579  -15.6335   20.0513 H   0  0  0  0  0  0
  -26.7207  -32.5414   23.1069 H   0  0  0  0  0  0
  -25.0096  -33.9689   25.0408 H   0  0  0  0  0  0
  -22.7290  -31.2976   21.3915 H   0  0  0  0  0  0
  -23.3752  -35.9617   23.3301 H   0  0  0  0  0  0
  -24.3584  -36.8904   22.2053 H   0  0  0  0  0  0
  -23.7239  -37.6483   23.6665 H   0  0  0  0  0  0
  -26.1152  -31.5255   20.6086 H   0  0  0  0  0  0
  -26.8570  -30.8204   22.0115 H   0  0  0  0  0  0
  -28.1188  -28.9000   21.2482 H   0  0  0  0  0  0
  -25.9921  -25.8943   19.0099 H   0  0  0  0  0  0
  -23.9857  -27.3108   18.9841 H   0  0  0  0  0  0
  -23.7779  -30.5871   19.4012 H   0  0  0  0  0  0
  -22.7738  -29.2411   19.8484 H   0  0  0  0  0  0
  -25.1296  -36.1912   25.0818 H   0  0  0  0  0  0
  -20.9996  -28.3276   24.1384 H   0  0  0  0  0  0
  -20.5676  -26.2313   23.3612 H   0  0  0  0  0  0
  -21.6648  -26.7420   22.1206 H   0  0  0  0  0  0
  -19.6921  -25.6284   21.1253 H   0  0  0  0  0  0
  -19.6703  -27.3177   20.6735 H   0  0  0  0  0  0
  -17.4203  -26.6664   21.4025 H   0  0  0  0  0  0
  -18.0337  -26.0083   22.9029 H   0  0  0  0  0  0
  -19.7951  -30.7283   24.2233 H   0  0  0  0  0  0
  -17.5029  -31.6272   24.5163 H   0  0  0  0  0  0
  -15.5363  -30.2983   23.7679 H   0  0  0  0  0  0
  -15.8678  -28.0835   22.7054 H   0  0  0  0  0  0
  -24.5918  -30.7062   25.7777 H   0  0  0  0  0  0
  -24.8868  -32.2934   26.4777 H   0  0  0  0  0  0
  -25.8018  -30.9006   27.0259 H   0  0  0  0  0  0
  -26.2945  -29.6738   24.1225 H   0  0  0  0  0  0
  -27.4013  -29.7261   25.4742 H   0  0  0  0  0  0
  -27.8822  -30.4267   23.9480 H   0  0  0  0  0  0
  -27.2690  -33.3657   26.2004 H   0  0  0  0  0  0
  -28.3910  -32.6795   25.0341 H   0  0  0  0  0  0
  -28.0672  -31.8471   26.5465 H   0  0  0  0  0  0
  -28.2585  -38.0099   24.7512 H   0  0  0  0  0  0
  -28.1075  -36.2630   24.6288 H   0  0  0  0  0  0
  -27.2300  -37.1442   25.8868 H   0  0  0  0  0  0
  -20.9411  -29.8799   21.6876 H   0  0  0  0  0  0
  -26.0167  -38.2836   24.1416 H   0  0  0  0  0  0
  -34.2909  -18.1618   21.9773 H   0  0  0  0  0  0
  -33.2773  -19.6126   21.4510 H   0  0  0  0  0  0
  -32.4409  -16.6778   21.6170 H   0  0  0  0  0  0
  -27.6756  -23.2306   21.7528 H   0  0  0  0  0  0
  -27.1042  -25.3576   21.6285 H   0  0  0  0  0  0
  -30.1998  -22.7946   20.8640 H   0  0  0  0  0  0
  -29.4347  -22.9738   19.3077 H   0  0  0  0  0  0
  -28.8333  -15.5599   20.9409 H   0  0  0  0  0  0
  -27.8730  -21.1106   20.2008 H   0  0  0  0  0  0
  1 25  1  0  0  0
  1 30  2  0  0  0
  1 80  1  0  0  0
  2  3  1  0  0  0
  2 25  1  0  0  0
  2 83  1  0  0  0
  2 84  1  0  0  0
  3  4  1  0  0  0
  3 85  1  0  0  0
  3 86  1  0  0  0
  4  5  1  0  0  0
  4 87  1  0  0  0
  4 88  1  0  0  0
  5  6  1  0  0  0
  5 26  1  0  0  0
  5 89  1  0  0  0
  6 25  1  0  0  0
  6 90  1  0  0  0
  6 91  1  0  0  0
  7  8  2  0  0  0
  7 26  1  0  0  0
  7 29  1  0  0  0
  8  9  1  0  0  0
  8 22  1  0  0  0
  9 10  1  0  0  0
  9 27  2  0  0  0
 10 11  2  0  0  0
 10 15  1  0  0  0
 11 12  1  0  0  0
 11 92  1  0  0  0
 12 13  2  0  0  0
 12 93  1  0  0  0
 13 14  1  0  0  0
 13 31  1  0  0  0
 14 15  2  0  0  0
 14 94  1  0  0  0
 15 95  1  0  0  0
 16 17  2  0  0  0
 16 21  1  0  0  0
 16 31  1  0  0  0
 17 18  1  0  0  0
 17 96  1  0  0  0
 18 19  2  0  0  0
 18 97  1  0  0  0
 19 20  1  0  0  0
 19 24  1  0  0  0
 20 21  2  0  0  0
 20 98  1  0  0  0
 21 23  1  0  0  0
 22 28  1  0  0  0
 22 32  2  0  0  0
 26 27  1  0  0  0
 28 99  1  0  0  0
 28100  1  0  0  0
 29101  1  0  0  0
 29102  1  0  0  0
 33 34  1  0  0  0
 33 66  1  0  0  0
 33 70  2  0  0  0
 34 36  1  0  0  0
 34 59  1  0  0  0
 34103  1  0  0  0
 35 44  2  0  0  0
 35 45  1  0  0  0
 35 68  1  0  0  0
 36 56  1  0  0  0
 36104  1  0  0  0
 37 39  1  0  0  0
 37 47  1  0  0  0
 37 66  1  0  0  0
 37105  1  0  0  0
 38 43  2  0  0  0
 38 46  1  0  0  0
 38 47  1  0  0  0
 39 64  1  0  0  0
 39 67  2  0  0  0
 40 52  1  0  0  0
 40 53  2  0  0  0
 40 58  1  0  0  0
 41106  1  0  0  0
 41107  1  0  0  0
 41108  1  0  0  0
 41 48  1  0  0  0
 42 43  1  0  0  0
 42 66  1  0  0  0
 42109  1  0  0  0
 42110  1  0  0  0
 43 44  1  0  0  0
 44111  1  0  0  0
 45 46  2  0  0  0
 45112  1  0  0  0
 46113  1  0  0  0
 47114  1  0  0  0
 47115  1  0  0  0
 48 56  1  0  0  0
 48 65  1  0  0  0
 48116  1  0  0  0
 49 50  1  0  0  0
 49 53  1  0  0  0
 49 64  1  0  0  0
 49117  1  0  0  0
 50 51  1  0  0  0
 50118  1  0  0  0
 50119  1  0  0  0
 51 52  1  0  0  0
 51120  1  0  0  0
 51121  1  0  0  0
 52122  1  0  0  0
 52123  1  0  0  0
 53 54  1  0  0  0
 54 55  2  0  0  0
 54124  1  0  0  0
 55 57  1  0  0  0
 55125  1  0  0  0
 56 69  2  0  0  0
 57 58  2  0  0  0
 57126  1  0  0  0
 58127  1  0  0  0
 59 60  1  0  0  0
 59 61  1  0  0  0
 59 62  1  0  0  0
 60128  1  0  0  0
 60129  1  0  0  0
 60130  1  0  0  0
 61131  1  0  0  0
 61132  1  0  0  0
 61133  1  0  0  0
 62134  1  0  0  0
 62135  1  0  0  0
 62136  1  0  0  0
 63 65  1  0  0  0
 63137  1  0  0  0
 63138  1  0  0  0
 63139  1  0  0  0
 64140  1  0  0  0
 65141  1  0  0  0
 68 77  1  0  0  0
 71 72  2  0  0  0
 71 75  1  0  0  0
 71 79  1  0  0  0
 72 80  1  0  0  0
 72 82  1  0  0  0
 73 79  2  0  0  0
 73 81  1  0  0  0
 73 82  1  0  0  0
 74 75  2  0  0  0
 74142  1  0  0  0
 74143  1  0  0  0
 75144  1  0  0  0
 76 77  2  0  0  0
 76 78  1  0  0  0
 76145  1  0  0  0
 77146  1  0  0  0
 78 81  1  0  0  0
 78147  1  0  0  0
 78148  1  0  0  0
 80149  1  0  0  0
 81150  1  0  0  0
M  ISO  4   1 100  68 101  77 101  80 100
M  END
> <chiral flag>
0

> <version>
0

> <s_m_source_file>
/data/baiqing/PycharmProjects/Reinvent-master-3.2/result/LINK_invent/BTK/process_docking_weight1_custom_product_contain_oxygen_bond_distance_aromatic_linkinvent_7_9_3/rearranged_h_0113.sdf

> <i_m_source_file_index>
98

> <r_mmod_Potential_Energy-OPLS-2005>
156.588150024414

> <r_mmod_Stretch_Energy-OPLS-2005>
116.484390258789

> <r_mmod_Bend_Energy-OPLS-2005>
224.8232421875

> <r_mmod_Torsional_Energy-OPLS-2005>
216.008407592773

> <r_mmod_Improper_Torsional_Energy-OPLS-2005>
5.51270580291748

> <r_mmod_Van_der_Waal_Energy-OPLS-2005>
119.413597106934

> <r_mmod_Electrostatic_Energy-OPLS-2005>
-403.892456054688

> <r_mmod_Solvation_Energy-OPLS-2005>
-222.271133422852

> <b_mmod_Minimization_Converged-OPLS-2005>
0

> <r_mmod_RMS_Derivative-OPLS-2005>
1.30101811885834

$$$$
