0
                    3D
 Structure written by MMmdl.
155163  0  0  1  0            999 V2000
  -30.6207  -14.7146   20.4559 C   0  0  0  0  0  0
  -30.4331  -12.4299   19.4843 C   0  0  0  0  0  0
  -29.5167  -12.5067   18.2419 C   0  0  0  0  0  0
  -28.0385  -12.3444   18.6466 C   0  0  0  0  0  0
  -27.6474  -13.2327   19.8584 C   0  0  2  0  0  0
  -28.6901  -13.1478   20.9977 C   0  0  0  0  0  0
  -25.2516  -13.8210   20.5696 C   0  0  0  0  0  0
  -24.1806  -13.0450   20.9209 C   0  0  0  0  0  0
  -24.6396  -11.6928   20.8744 C   0  0  0  0  0  0
  -23.9084  -10.4299   21.0402 C   0  0  0  0  0  0
  -24.3633   -9.4213   21.9182 C   0  0  0  0  0  0
  -23.6301   -8.2251   22.0755 C   0  0  0  0  0  0
  -22.4280   -8.0296   21.3553 C   0  0  0  0  0  0
  -21.9922   -9.0273   20.4656 C   0  0  0  0  0  0
  -22.7256  -10.2146   20.3057 C   0  0  0  0  0  0
  -21.6858   -6.0742   22.5279 C   0  0  0  0  0  0
  -21.4020   -6.5640   23.8216 C   0  0  0  0  0  0
  -21.3660   -5.6788   24.9174 C   0  0  0  0  0  0
  -21.6040   -4.3048   24.7225 C   0  0  0  0  0  0
  -21.8820   -3.8152   23.4342 C   0  0  0  0  0  0
  -21.9190   -4.6970   22.3397 C   0  0  0  0  0  0
  -22.7824  -13.5231   21.1858 C   0  0  0  0  0  0
  -22.1659   -4.2150   21.0974 F   0  0  0  0  0  0
  -21.5623   -3.4533   25.7741 F   0  0  0  0  0  0
  -30.0009  -13.4870   20.4281 N   0  0  0  0  0  0
  -26.2959  -12.9424   20.3307 N   0  0  0  0  0  0
  -25.9333  -11.6563   20.5768 N   0  0  0  0  0  0
  -22.0460  -12.8234   22.0415 N   0  0  0  0  0  0
  -25.4185  -15.1941   20.4116 N   0  0  0  0  0  0
  -31.7911  -14.8259   20.0819 O   0  0  0  0  0  0
  -21.6641   -6.8897   21.4248 O   0  0  0  0  0  0
  -22.3511  -14.5530   20.6691 O   0  0  0  0  0  0
  -24.6312  -31.8572   23.2005 C   0  0  0  0  0  0
  -25.9144  -32.4758   23.8342 C   0  0  1  0  0  0
  -27.2080  -27.2629   20.1253 C   0  0  0  0  0  0
  -25.5944  -33.8561   24.2267 N   0  0  0  0  0  0
  -23.4269  -30.4830   21.5434 C   0  0  2  0  0  0
  -24.8721  -28.9381   20.1040 C   0  0  0  0  0  0
  -22.7499  -29.4624   22.4906 C   0  0  0  0  0  0
  -18.0298  -28.1390   22.8491 C   0  0  0  0  0  0
  -24.1485  -36.7284   23.2636 C   0  0  0  0  0  0
  -25.9736  -30.7702   21.3820 C   0  0  0  0  0  0
  -26.0444  -29.3948   20.7203 C   0  0  0  0  0  0
  -27.2145  -28.5689   20.7235 C   0  0  0  0  0  0
  -26.0220  -26.8954   19.4470 C   0  0  0  0  0  0
  -24.8673  -27.6961   19.4558 C   0  0  0  0  0  0
  -23.6438  -29.8232   20.1569 C   0  0  0  0  0  0
  -25.4112  -36.3068   24.0326 C   0  0  1  0  0  0
  -20.5901  -28.3709   23.1260 C   0  0  2  0  0  0
  -20.6786  -26.9427   22.5401 C   0  0  0  0  0  0
  -19.5752  -26.6390   21.5211 C   0  0  0  0  0  0
  -18.1935  -26.7931   22.1628 C   0  0  0  0  0  0
  -19.1552  -28.8867   23.2870 C   0  0  0  0  0  0
  -18.9472  -30.1464   23.8893 C   0  0  0  0  0  0
  -17.6472  -30.6586   24.0573 C   0  0  0  0  0  0
  -25.9057  -34.9437   23.5096 C   0  0  0  0  0  0
  -16.5364  -29.9086   23.6333 C   0  0  0  0  0  0
  -16.7287  -28.6504   23.0358 C   0  0  0  0  0  0
  -26.4508  -31.6583   25.0732 C   0  0  0  0  0  0
  -25.3732  -31.3737   26.1458 C   0  0  0  0  0  0
  -27.0358  -30.2997   24.6212 C   0  0  0  0  0  0
  -27.6055  -32.4327   25.7506 C   0  0  0  0  0  0
  -27.5578  -37.1804   24.8468 C   0  0  0  0  0  0
  -21.4209  -29.3060   22.3645 N   0  0  0  0  0  0
  -26.4288  -37.3769   23.9410 N   0  0  0  0  0  0
  -24.6959  -31.0544   22.0976 N   0  0  0  0  0  0
  -23.4213  -28.8168   23.2996 O   0  0  0  0  0  0
  -28.2764  -26.3361   20.2276 O   0  0  0  0  0  0
  -26.5621  -34.8918   22.4659 O   0  0  0  0  0  0
  -23.5464  -32.1394   23.7303 O   0  0  0  0  0  0
  -29.8652  -21.1142   21.9526 C   0  0  0  0  0  0
  -29.3175  -19.8011   20.0056 C   0  0  0  0  0  0
  -30.3340  -19.9183   22.5518 C   0  0  0  0  0  0
  -29.3322  -21.1025   20.6450 C   0  0  0  0  0  0
  -29.8148  -18.5930   20.6432 C   0  0  0  0  0  0
  -26.9742  -24.5256   21.3491 C   0  0  0  0  0  0
  -29.9766  -17.1804   19.9412 C   0  0  0  0  0  0
  -29.1606  -23.7594   20.3659 C   0  0  0  0  0  0
  -27.9800  -24.8524   20.2223 C   0  0  2  0  0  0
  -30.2957  -18.7318   21.8957 N   0  3  0  0  0  0
  -28.8238  -22.3148   20.0336 N   0  0  0  0  0  0
  -29.8443  -15.8398   20.6577 N   0  0  0  0  0  0
  -31.4776  -12.5397   19.1884 H   0  0  0  0  0  0
  -30.3640  -11.4483   19.9562 H   0  0  0  0  0  0
  -29.7955  -11.7366   17.5208 H   0  0  0  0  0  0
  -29.6577  -13.4648   17.7386 H   0  0  0  0  0  0
  -27.8800  -11.2951   18.8965 H   0  0  0  0  0  0
  -27.3897  -12.5562   17.7957 H   0  0  0  0  0  0
  -27.6486  -14.2598   19.4922 H   0  0  0  0  0  0
  -28.7111  -12.1461   21.4293 H   0  0  0  0  0  0
  -28.4292  -13.8240   21.8134 H   0  0  0  0  0  0
  -25.2785   -9.5672   22.4755 H   0  0  0  0  0  0
  -24.0003   -7.4638   22.7472 H   0  0  0  0  0  0
  -21.0854   -8.8811   19.8965 H   0  0  0  0  0  0
  -22.3731  -10.9692   19.6164 H   0  0  0  0  0  0
  -21.2020   -7.6149   23.9722 H   0  0  0  0  0  0
  -21.1478   -6.0515   25.9075 H   0  0  0  0  0  0
  -22.0596   -2.7615   23.2839 H   0  0  0  0  0  0
  -22.4069  -11.9907   22.4836 H   0  0  0  0  0  0
  -21.1075  -13.1270   22.2601 H   0  0  0  0  0  0
  -24.6465  -15.8440   20.5184 H   0  0  0  0  0  0
  -26.2575  -15.6358   20.0590 H   0  0  0  0  0  0
  -26.7209  -32.5402   23.1082 H   0  0  0  0  0  0
  -25.0097  -33.9699   25.0416 H   0  0  0  0  0  0
  -22.7223  -31.3053   21.4017 H   0  0  0  0  0  0
  -23.3739  -35.9625   23.3297 H   0  0  0  0  0  0
  -24.3576  -36.8907   22.2050 H   0  0  0  0  0  0
  -23.7250  -37.6490   23.6663 H   0  0  0  0  0  0
  -26.1144  -31.5312   20.6131 H   0  0  0  0  0  0
  -26.8499  -30.8141   22.0171 H   0  0  0  0  0  0
  -28.1044  -28.9037   21.2374 H   0  0  0  0  0  0
  -25.9418  -25.9524   18.9300 H   0  0  0  0  0  0
  -23.9745  -27.3440   18.9574 H   0  0  0  0  0  0
  -23.7692  -30.6039   19.4057 H   0  0  0  0  0  0
  -22.7611  -29.2599   19.8482 H   0  0  0  0  0  0
  -25.1294  -36.1918   25.0821 H   0  0  0  0  0  0
  -21.0006  -28.3294   24.1376 H   0  0  0  0  0  0
  -20.5680  -26.2326   23.3610 H   0  0  0  0  0  0
  -21.6653  -26.7448   22.1199 H   0  0  0  0  0  0
  -19.6913  -25.6297   21.1243 H   0  0  0  0  0  0
  -19.6683  -27.3190   20.6728 H   0  0  0  0  0  0
  -17.4209  -26.6687   21.4026 H   0  0  0  0  0  0
  -18.0344  -26.0065   22.9017 H   0  0  0  0  0  0
  -19.7949  -30.7281   24.2262 H   0  0  0  0  0  0
  -17.5026  -31.6267   24.5168 H   0  0  0  0  0  0
  -15.5359  -30.2994   23.7644 H   0  0  0  0  0  0
  -15.8690  -28.0815   22.7084 H   0  0  0  0  0  0
  -24.5919  -30.7067   25.7797 H   0  0  0  0  0  0
  -24.8916  -32.2909   26.4858 H   0  0  0  0  0  0
  -25.8067  -30.8947   27.0248 H   0  0  0  0  0  0
  -26.2945  -29.6740   24.1227 H   0  0  0  0  0  0
  -27.4021  -29.7265   25.4735 H   0  0  0  0  0  0
  -27.8830  -30.4251   23.9464 H   0  0  0  0  0  0
  -27.2654  -33.3629   26.2059 H   0  0  0  0  0  0
  -28.3882  -32.6882   25.0354 H   0  0  0  0  0  0
  -28.0700  -31.8471   26.5446 H   0  0  0  0  0  0
  -28.2601  -38.0096   24.7510 H   0  0  0  0  0  0
  -28.1067  -36.2631   24.6296 H   0  0  0  0  0  0
  -27.2300  -37.1456   25.8872 H   0  0  0  0  0  0
  -20.9391  -29.8795   21.6861 H   0  0  0  0  0  0
  -26.0160  -38.2842   24.1409 H   0  0  0  0  0  0
  -29.9139  -22.0268   22.5260 H   0  0  0  0  0  0
  -28.9420  -19.7219   18.9965 H   0  0  0  0  0  0
  -30.7541  -19.8862   23.5482 H   0  0  0  0  0  0
  -26.6898  -23.4737   21.3285 H   0  0  0  0  0  0
  -26.0454  -25.0875   21.2886 H   0  0  0  0  0  0
  -27.4126  -24.7238   22.3268 H   0  0  0  0  0  0
  -30.9433  -17.2087   19.4351 H   0  0  0  0  0  0
  -29.2469  -17.1571   19.1312 H   0  0  0  0  0  0
  -29.5861  -23.8291   21.3665 H   0  0  0  0  0  0
  -29.9663  -24.0530   19.6909 H   0  0  0  0  0  0
  -27.5259  -24.6311   19.2577 H   0  0  0  0  0  0
  -30.6732  -17.9032   22.3618 H   0  0  0  0  0  0
  -28.3917  -22.1870   19.1242 H   0  0  0  0  0  0
  -28.9233  -15.6493   21.0243 H   0  0  0  0  0  0
  1 25  1  0  0  0
  1 30  2  0  0  0
  1 82  1  0  0  0
  2  3  1  0  0  0
  2 25  1  0  0  0
  2 83  1  0  0  0
  2 84  1  0  0  0
  3  4  1  0  0  0
  3 85  1  0  0  0
  3 86  1  0  0  0
  4  5  1  0  0  0
  4 87  1  0  0  0
  4 88  1  0  0  0
  5  6  1  0  0  0
  5 26  1  0  0  0
  5 89  1  0  0  0
  6 25  1  0  0  0
  6 90  1  0  0  0
  6 91  1  0  0  0
  7  8  2  0  0  0
  7 26  1  0  0  0
  7 29  1  0  0  0
  8  9  1  0  0  0
  8 22  1  0  0  0
  9 10  1  0  0  0
  9 27  2  0  0  0
 10 11  2  0  0  0
 10 15  1  0  0  0
 11 12  1  0  0  0
 11 92  1  0  0  0
 12 13  2  0  0  0
 12 93  1  0  0  0
 13 14  1  0  0  0
 13 31  1  0  0  0
 14 15  2  0  0  0
 14 94  1  0  0  0
 15 95  1  0  0  0
 16 17  2  0  0  0
 16 21  1  0  0  0
 16 31  1  0  0  0
 17 18  1  0  0  0
 17 96  1  0  0  0
 18 19  2  0  0  0
 18 97  1  0  0  0
 19 20  1  0  0  0
 19 24  1  0  0  0
 20 21  2  0  0  0
 20 98  1  0  0  0
 21 23  1  0  0  0
 22 28  1  0  0  0
 22 32  2  0  0  0
 26 27  1  0  0  0
 28 99  1  0  0  0
 28100  1  0  0  0
 29101  1  0  0  0
 29102  1  0  0  0
 33 34  1  0  0  0
 33 66  1  0  0  0
 33 70  2  0  0  0
 34 36  1  0  0  0
 34 59  1  0  0  0
 34103  1  0  0  0
 35 44  2  0  0  0
 35 45  1  0  0  0
 35 68  1  0  0  0
 36 56  1  0  0  0
 36104  1  0  0  0
 37 39  1  0  0  0
 37 47  1  0  0  0
 37 66  1  0  0  0
 37105  1  0  0  0
 38 43  2  0  0  0
 38 46  1  0  0  0
 38 47  1  0  0  0
 39 64  1  0  0  0
 39 67  2  0  0  0
 40 52  1  0  0  0
 40 53  2  0  0  0
 40 58  1  0  0  0
 41106  1  0  0  0
 41107  1  0  0  0
 41108  1  0  0  0
 41 48  1  0  0  0
 42 43  1  0  0  0
 42 66  1  0  0  0
 42109  1  0  0  0
 42110  1  0  0  0
 43 44  1  0  0  0
 44111  1  0  0  0
 45 46  2  0  0  0
 45112  1  0  0  0
 46113  1  0  0  0
 47114  1  0  0  0
 47115  1  0  0  0
 48 56  1  0  0  0
 48 65  1  0  0  0
 48116  1  0  0  0
 49 50  1  0  0  0
 49 53  1  0  0  0
 49 64  1  0  0  0
 49117  1  0  0  0
 50 51  1  0  0  0
 50118  1  0  0  0
 50119  1  0  0  0
 51 52  1  0  0  0
 51120  1  0  0  0
 51121  1  0  0  0
 52122  1  0  0  0
 52123  1  0  0  0
 53 54  1  0  0  0
 54 55  2  0  0  0
 54124  1  0  0  0
 55 57  1  0  0  0
 55125  1  0  0  0
 56 69  2  0  0  0
 57 58  2  0  0  0
 57126  1  0  0  0
 58127  1  0  0  0
 59 60  1  0  0  0
 59 61  1  0  0  0
 59 62  1  0  0  0
 60128  1  0  0  0
 60129  1  0  0  0
 60130  1  0  0  0
 61131  1  0  0  0
 61132  1  0  0  0
 61133  1  0  0  0
 62134  1  0  0  0
 62135  1  0  0  0
 62136  1  0  0  0
 63 65  1  0  0  0
 63137  1  0  0  0
 63138  1  0  0  0
 63139  1  0  0  0
 64140  1  0  0  0
 65141  1  0  0  0
 68 79  1  0  0  0
 71 73  2  0  0  0
 71 74  1  0  0  0
 71142  1  0  0  0
 72 74  2  0  0  0
 72 75  1  0  0  0
 72143  1  0  0  0
 73 80  1  0  0  0
 73144  1  0  0  0
 74 81  1  0  0  0
 75 77  1  0  0  0
 75 80  2  0  0  0
 76145  1  0  0  0
 76146  1  0  0  0
 76147  1  0  0  0
 76 79  1  0  0  0
 77 82  1  0  0  0
 77148  1  0  0  0
 77149  1  0  0  0
 78 79  1  0  0  0
 78 81  1  0  0  0
 78150  1  0  0  0
 78151  1  0  0  0
 79152  1  0  0  0
 80153  1  0  0  0
 81154  1  0  0  0
 82155  1  0  0  0
M  CHG  1  80   1
M  ISO  4   1 100  68 101  79 101  82 100
M  END
> <chiral flag>
0

> <version>
0

> <s_m_source_file>
/data/baiqing/PycharmProjects/Reinvent-master-3.2/result/LINK_invent/BTK/process_docking_weight1_custom_product_contain_oxygen_bond_distance_aromatic_linkinvent_7_9_3/rearranged_h_0156.sdf

> <i_m_source_file_index>
1

> <r_mmod_Potential_Energy-OPLS-2005>
-89.9230575561523

> <r_mmod_Stretch_Energy-OPLS-2005>
113.203971862793

> <r_mmod_Bend_Energy-OPLS-2005>
167.801956176758

> <r_mmod_Torsional_Energy-OPLS-2005>
215.149841308594

> <r_mmod_Improper_Torsional_Energy-OPLS-2005>
8.88009357452393

> <r_mmod_Van_der_Waal_Energy-OPLS-2005>
146.695266723633

> <r_mmod_Electrostatic_Energy-OPLS-2005>
-377.158355712891

> <r_mmod_Solvation_Energy-OPLS-2005>
-447.217681884766

> <b_mmod_Minimization_Converged-OPLS-2005>
0

> <r_mmod_RMS_Derivative-OPLS-2005>
1.57502150535583

$$$$
1
                    3D
 Structure written by MMmdl.
164173  0  0  1  0            999 V2000
  -30.6294  -14.5698   20.5630 C   0  0  0  0  0  0
  -30.4491  -12.3674   19.4313 C   0  0  0  0  0  0
  -29.5043  -12.5124   18.2154 C   0  0  0  0  0  0
  -28.0276  -12.3533   18.6300 C   0  0  0  0  0  0
  -27.6585  -13.2074   19.8707 C   0  0  2  0  0  0
  -28.7000  -13.0024   20.9921 C   0  0  0  0  0  0
  -25.2552  -13.8152   20.5705 C   0  0  0  0  0  0
  -24.1804  -13.0433   20.9203 C   0  0  0  0  0  0
  -24.6361  -11.6918   20.8733 C   0  0  0  0  0  0
  -23.9033  -10.4300   21.0409 C   0  0  0  0  0  0
  -24.3582   -9.4218   21.9184 C   0  0  0  0  0  0
  -23.6267   -8.2248   22.0760 C   0  0  0  0  0  0
  -22.4254   -8.0284   21.3550 C   0  0  0  0  0  0
  -21.9872   -9.0266   20.4640 C   0  0  0  0  0  0
  -22.7206  -10.2147   20.3051 C   0  0  0  0  0  0
  -21.6855   -6.0704   22.5270 C   0  0  0  0  0  0
  -21.4008   -6.5608   23.8206 C   0  0  0  0  0  0
  -21.3656   -5.6759   24.9164 C   0  0  0  0  0  0
  -21.6056   -4.3030   24.7222 C   0  0  0  0  0  0
  -21.8818   -3.8117   23.4346 C   0  0  0  0  0  0
  -21.9197   -4.6920   22.3397 C   0  0  0  0  0  0
  -22.7814  -13.5247   21.1864 C   0  0  0  0  0  0
  -22.1676   -4.2105   21.0983 F   0  0  0  0  0  0
  -21.5618   -3.4524   25.7741 F   0  0  0  0  0  0
  -30.0251  -13.3483   20.4461 N   0  0  0  0  0  0
  -26.2996  -12.9323   20.3332 N   0  0  0  0  0  0
  -25.9288  -11.6502   20.5739 N   0  0  0  0  0  0
  -22.0429  -12.8280   22.0411 N   0  0  0  0  0  0
  -25.4191  -15.1880   20.4187 N   0  0  0  0  0  0
  -31.7669  -14.7964   20.1410 O   0  0  0  0  0  0
  -21.6637   -6.8869   21.4250 O   0  0  0  0  0  0
  -22.3528  -14.5560   20.6696 O   0  0  0  0  0  0
  -24.6217  -31.8603   23.2091 C   0  0  0  0  0  0
  -25.9094  -32.4790   23.8398 C   0  0  1  0  0  0
  -27.2476  -27.3779   20.1035 C   0  0  0  0  0  0
  -25.5955  -33.8586   24.2357 N   0  0  0  0  0  0
  -23.4170  -30.4857   21.5440 C   0  0  2  0  0  0
  -24.8677  -28.9467   20.1183 C   0  0  0  0  0  0
  -22.7484  -29.4561   22.4870 C   0  0  0  0  0  0
  -18.0259  -28.1409   22.8437 C   0  0  0  0  0  0
  -24.1474  -36.7294   23.2625 C   0  0  0  0  0  0
  -25.9527  -30.8099   21.3733 C   0  0  0  0  0  0
  -26.0328  -29.4385   20.7224 C   0  0  0  0  0  0
  -27.2197  -28.6625   20.7160 C   0  0  0  0  0  0
  -26.0561  -26.9227   19.4841 C   0  0  0  0  0  0
  -24.8739  -27.6862   19.5053 C   0  0  0  0  0  0
  -23.6449  -29.8343   20.1536 C   0  0  0  0  0  0
  -25.4079  -36.3088   24.0357 C   0  0  1  0  0  0
  -20.5861  -28.3664   23.1234 C   0  0  2  0  0  0
  -20.6729  -26.9379   22.5362 C   0  0  0  0  0  0
  -19.5700  -26.6383   21.5139 C   0  0  0  0  0  0
  -18.1896  -26.7950   22.1567 C   0  0  0  0  0  0
  -19.1530  -28.8847   23.2860 C   0  0  0  0  0  0
  -18.9458  -30.1433   23.8902 C   0  0  0  0  0  0
  -17.6462  -30.6590   24.0558 C   0  0  0  0  0  0
  -25.9025  -34.9459   23.5144 C   0  0  0  0  0  0
  -16.5344  -29.9121   23.6293 C   0  0  0  0  0  0
  -16.7249  -28.6549   23.0297 C   0  0  0  0  0  0
  -26.4550  -31.6588   25.0738 C   0  0  0  0  0  0
  -25.3857  -31.3709   26.1529 C   0  0  0  0  0  0
  -27.0377  -30.3028   24.6119 C   0  0  0  0  0  0
  -27.6106  -32.4289   25.7529 C   0  0  0  0  0  0
  -27.5558  -37.1794   24.8479 C   0  0  0  0  0  0
  -21.4191  -29.3028   22.3662 N   0  0  0  0  0  0
  -26.4253  -37.3774   23.9435 N   0  0  0  0  0  0
  -24.6823  -31.0663   22.1007 N   0  0  0  0  0  0
  -23.4208  -28.8049   23.2915 O   0  0  0  0  0  0
  -28.4192  -26.6198   20.1568 O   0  0  0  0  0  0
  -26.5545  -34.8916   22.4678 O   0  0  0  0  0  0
  -23.5395  -32.1380   23.7449 O   0  0  0  0  0  0
  -30.7284  -17.8338   21.5037 C   0  0  0  0  0  0
  -29.8589  -16.9128   20.9496 C   0  0  0  0  0  0
  -29.0793  -19.3262   20.8826 C   0  0  0  0  0  0
  -29.2864  -24.2598   20.4202 C   0  0  0  0  0  0
  -26.4463  -21.1755   22.8775 C   0  0  0  0  0  0
  -27.6767  -21.7127   23.5897 C   0  0  0  0  0  0
  -26.9402  -20.1238   21.8962 C   0  0  0  0  0  0
  -28.4911  -22.5122   22.5800 C   0  0  0  0  0  0
  -28.1211  -20.5284   20.9582 C   0  0  1  0  0  0
  -29.0725  -25.4329   18.1571 C   0  0  0  0  0  0
  -29.0667  -22.7285   20.1345 C   0  0  0  0  0  0
  -28.4754  -25.2866   19.5692 C   0  0  2  0  0  0
  -30.2720  -19.1781   21.4816 N   0  0  0  0  0  0
  -29.8162  -15.5425   21.0512 N   0  0  0  0  0  0
  -28.9015  -21.7909   21.3240 N   0  3  1  0  0  0
  -30.0966  -24.6425   21.2709 O   0  0  0  0  0  0
  -28.5187  -17.7766   20.2168 S   0  0  0  0  0  0
  -31.4836  -12.5193   19.1191 H   0  0  0  0  0  0
  -30.4057  -11.3557   19.8343 H   0  0  0  0  0  0
  -29.7558  -11.7731   17.4558 H   0  0  0  0  0  0
  -29.6478  -13.4920   17.7550 H   0  0  0  0  0  0
  -27.8583  -11.2998   18.8522 H   0  0  0  0  0  0
  -27.3717  -12.5947   17.7928 H   0  0  0  0  0  0
  -27.6941  -14.2485   19.5577 H   0  0  0  0  0  0
  -28.6946  -11.9631   21.3217 H   0  0  0  0  0  0
  -28.4364  -13.5876   21.8737 H   0  0  0  0  0  0
  -25.2731   -9.5670   22.4759 H   0  0  0  0  0  0
  -23.9962   -7.4635   22.7485 H   0  0  0  0  0  0
  -21.0797   -8.8818   19.8953 H   0  0  0  0  0  0
  -22.3693  -10.9698   19.6156 H   0  0  0  0  0  0
  -21.2009   -7.6111   23.9682 H   0  0  0  0  0  0
  -21.1476   -6.0505   25.9065 H   0  0  0  0  0  0
  -22.0596   -2.7574   23.2891 H   0  0  0  0  0  0
  -22.4043  -11.9996   22.4910 H   0  0  0  0  0  0
  -21.1015  -13.1312   22.2497 H   0  0  0  0  0  0
  -24.6509  -15.8360   20.5557 H   0  0  0  0  0  0
  -26.2601  -15.6433   20.0902 H   0  0  0  0  0  0
  -26.7104  -32.5481   23.1090 H   0  0  0  0  0  0
  -25.0285  -33.9732   25.0630 H   0  0  0  0  0  0
  -22.7044  -31.3013   21.4019 H   0  0  0  0  0  0
  -23.3717  -35.9635   23.3296 H   0  0  0  0  0  0
  -24.3573  -36.8907   22.2034 H   0  0  0  0  0  0
  -23.7254  -37.6515   23.6633 H   0  0  0  0  0  0
  -26.0781  -31.5663   20.5965 H   0  0  0  0  0  0
  -26.8328  -30.8603   22.0016 H   0  0  0  0  0  0
  -28.1161  -29.0349   21.1931 H   0  0  0  0  0  0
  -25.9897  -25.9770   18.9729 H   0  0  0  0  0  0
  -23.9761  -27.2950   19.0447 H   0  0  0  0  0  0
  -23.8067  -30.6261   19.4218 H   0  0  0  0  0  0
  -22.7658  -29.2911   19.8062 H   0  0  0  0  0  0
  -25.1216  -36.1933   25.0843 H   0  0  0  0  0  0
  -20.9941  -28.3221   24.1352 H   0  0  0  0  0  0
  -20.5613  -26.2285   23.3589 H   0  0  0  0  0  0
  -21.6582  -26.7363   22.1161 H   0  0  0  0  0  0
  -19.6825  -25.6275   21.1195 H   0  0  0  0  0  0
  -19.6711  -27.3182   20.6673 H   0  0  0  0  0  0
  -17.4149  -26.6652   21.3985 H   0  0  0  0  0  0
  -18.0323  -26.0117   22.9000 H   0  0  0  0  0  0
  -19.7974  -30.7216   24.2287 H   0  0  0  0  0  0
  -17.5010  -31.6238   24.5214 H   0  0  0  0  0  0
  -15.5351  -30.3046   23.7547 H   0  0  0  0  0  0
  -15.8626  -28.0899   22.7000 H   0  0  0  0  0  0
  -24.6008  -30.7052   25.7946 H   0  0  0  0  0  0
  -24.9087  -32.2879   26.4987 H   0  0  0  0  0  0
  -25.8286  -30.8930   27.0282 H   0  0  0  0  0  0
  -26.2930  -29.6749   24.1208 H   0  0  0  0  0  0
  -27.4219  -29.7292   25.4558 H   0  0  0  0  0  0
  -27.8750  -30.4325   23.9252 H   0  0  0  0  0  0
  -27.2710  -33.3548   26.2154 H   0  0  0  0  0  0
  -28.3949  -32.6875   25.0423 H   0  0  0  0  0  0
  -28.0730  -31.8378   26.5440 H   0  0  0  0  0  0
  -28.2563  -38.0089   24.7473 H   0  0  0  0  0  0
  -28.1058  -36.2621   24.6322 H   0  0  0  0  0  0
  -27.2306  -37.1490   25.8892 H   0  0  0  0  0  0
  -20.9399  -29.8856   21.6933 H   0  0  0  0  0  0
  -26.0152  -38.2838   24.1471 H   0  0  0  0  0  0
  -31.6404  -17.6148   22.0482 H   0  0  0  0  0  0
  -25.8890  -21.9618   22.3678 H   0  0  0  0  0  0
  -25.7591  -20.7315   23.5991 H   0  0  0  0  0  0
  -28.2727  -20.9143   24.0317 H   0  0  0  0  0  0
  -27.3824  -22.3671   24.4135 H   0  0  0  0  0  0
  -26.1162  -19.7371   21.2943 H   0  0  0  0  0  0
  -27.2507  -19.2795   22.5183 H   0  0  0  0  0  0
  -29.3803  -22.9060   23.0749 H   0  0  0  0  0  0
  -27.8545  -23.3653   22.3443 H   0  0  0  0  0  0
  -27.6984  -20.6513   19.9603 H   0  0  0  0  0  0
  -29.9259  -26.1127   18.1585 H   0  0  0  0  0  0
  -28.3353  -25.8362   17.4615 H   0  0  0  0  0  0
  -29.4193  -24.4791   17.7580 H   0  0  0  0  0  0
  -29.9230  -22.3842   19.5566 H   0  0  0  0  0  0
  -28.1968  -22.6562   19.4798 H   0  0  0  0  0  0
  -27.4946  -24.8295   19.5014 H   0  0  0  0  0  0
  -28.9117  -15.1786   21.3026 H   0  0  0  0  0  0
  -29.8214  -21.4253   21.5319 H   0  0  0  0  0  0
  1 25  1  0  0  0
  1 30  2  0  0  0
  1 84  1  0  0  0
  2  3  1  0  0  0
  2 25  1  0  0  0
  2 88  1  0  0  0
  2 89  1  0  0  0
  3  4  1  0  0  0
  3 90  1  0  0  0
  3 91  1  0  0  0
  4  5  1  0  0  0
  4 92  1  0  0  0
  4 93  1  0  0  0
  5  6  1  0  0  0
  5 26  1  0  0  0
  5 94  1  0  0  0
  6 25  1  0  0  0
  6 95  1  0  0  0
  6 96  1  0  0  0
  7  8  2  0  0  0
  7 26  1  0  0  0
  7 29  1  0  0  0
  8  9  1  0  0  0
  8 22  1  0  0  0
  9 10  1  0  0  0
  9 27  2  0  0  0
 10 11  2  0  0  0
 10 15  1  0  0  0
 11 12  1  0  0  0
 11 97  1  0  0  0
 12 13  2  0  0  0
 12 98  1  0  0  0
 13 14  1  0  0  0
 13 31  1  0  0  0
 14 15  2  0  0  0
 14 99  1  0  0  0
 15100  1  0  0  0
 16 17  2  0  0  0
 16 21  1  0  0  0
 16 31  1  0  0  0
 17 18  1  0  0  0
 17101  1  0  0  0
 18 19  2  0  0  0
 18102  1  0  0  0
 19 20  1  0  0  0
 19 24  1  0  0  0
 20 21  2  0  0  0
 20103  1  0  0  0
 21 23  1  0  0  0
 22 28  1  0  0  0
 22 32  2  0  0  0
 26 27  1  0  0  0
 28104  1  0  0  0
 28105  1  0  0  0
 29106  1  0  0  0
 29107  1  0  0  0
 33 34  1  0  0  0
 33 66  1  0  0  0
 33 70  2  0  0  0
 34 36  1  0  0  0
 34 59  1  0  0  0
 34108  1  0  0  0
 35 44  2  0  0  0
 35 45  1  0  0  0
 35 68  1  0  0  0
 36 56  1  0  0  0
 36109  1  0  0  0
 37 39  1  0  0  0
 37 47  1  0  0  0
 37 66  1  0  0  0
 37110  1  0  0  0
 38 43  2  0  0  0
 38 46  1  0  0  0
 38 47  1  0  0  0
 39 64  1  0  0  0
 39 67  2  0  0  0
 40 52  1  0  0  0
 40 53  2  0  0  0
 40 58  1  0  0  0
 41111  1  0  0  0
 41112  1  0  0  0
 41113  1  0  0  0
 41 48  1  0  0  0
 42 43  1  0  0  0
 42 66  1  0  0  0
 42114  1  0  0  0
 42115  1  0  0  0
 43 44  1  0  0  0
 44116  1  0  0  0
 45 46  2  0  0  0
 45117  1  0  0  0
 46118  1  0  0  0
 47119  1  0  0  0
 47120  1  0  0  0
 48 56  1  0  0  0
 48 65  1  0  0  0
 48121  1  0  0  0
 49 50  1  0  0  0
 49 53  1  0  0  0
 49 64  1  0  0  0
 49122  1  0  0  0
 50 51  1  0  0  0
 50123  1  0  0  0
 50124  1  0  0  0
 51 52  1  0  0  0
 51125  1  0  0  0
 51126  1  0  0  0
 52127  1  0  0  0
 52128  1  0  0  0
 53 54  1  0  0  0
 54 55  2  0  0  0
 54129  1  0  0  0
 55 57  1  0  0  0
 55130  1  0  0  0
 56 69  2  0  0  0
 57 58  2  0  0  0
 57131  1  0  0  0
 58132  1  0  0  0
 59 60  1  0  0  0
 59 61  1  0  0  0
 59 62  1  0  0  0
 60133  1  0  0  0
 60134  1  0  0  0
 60135  1  0  0  0
 61136  1  0  0  0
 61137  1  0  0  0
 61138  1  0  0  0
 62139  1  0  0  0
 62140  1  0  0  0
 62141  1  0  0  0
 63 65  1  0  0  0
 63142  1  0  0  0
 63143  1  0  0  0
 63144  1  0  0  0
 64145  1  0  0  0
 65146  1  0  0  0
 68 82  1  0  0  0
 71 72  2  0  0  0
 71 83  1  0  0  0
 71147  1  0  0  0
 72 84  1  0  0  0
 72 87  1  0  0  0
 73 83  2  0  0  0
 73 87  1  0  0  0
 73 79  1  0  0  0
 74 81  1  0  0  0
 74 82  1  0  0  0
 74 86  2  0  0  0
 75 76  1  0  0  0
 75 77  1  0  0  0
 75148  1  0  0  0
 75149  1  0  0  0
 76 78  1  0  0  0
 76150  1  0  0  0
 76151  1  0  0  0
 77 79  1  0  0  0
 77152  1  0  0  0
 77153  1  0  0  0
 78 85  1  0  0  0
 78154  1  0  0  0
 78155  1  0  0  0
 79 85  1  0  0  0
 79156  1  0  0  0
 80157  1  0  0  0
 80158  1  0  0  0
 80159  1  0  0  0
 80 82  1  0  0  0
 81160  1  0  0  0
 81161  1  0  0  0
 81 85  1  0  0  0
 82162  1  0  0  0
 84163  1  0  0  0
 85164  1  0  0  0
M  CHG  1  85   1
M  ISO  4   1 100  68 101  82 101  84 100
M  END
> <chiral flag>
0

> <version>
0

> <s_m_source_file>
/data/baiqing/PycharmProjects/Reinvent-master-3.2/result/LINK_invent/BTK/process_docking_weight1_custom_product_contain_oxygen_bond_distance_aromatic_linkinvent_7_9_3/rearranged_h_0156.sdf

> <i_m_source_file_index>
2

> <r_mmod_Potential_Energy-OPLS-2005>
-126.016136169434

> <r_mmod_Stretch_Energy-OPLS-2005>
64.315544128418

> <r_mmod_Bend_Energy-OPLS-2005>
163.304244995117

> <r_mmod_Torsional_Energy-OPLS-2005>
294.223907470703

> <r_mmod_Improper_Torsional_Energy-OPLS-2005>
6.82301664352417

> <r_mmod_Van_der_Waal_Energy-OPLS-2005>
139.622344970703

> <r_mmod_Electrostatic_Energy-OPLS-2005>
-360.412170410156

> <r_mmod_Solvation_Energy-OPLS-2005>
-462.211700439453

> <b_mmod_Minimization_Converged-OPLS-2005>
0

> <r_mmod_RMS_Derivative-OPLS-2005>
5.766761302948

$$$$
2
                    3D
 Structure written by MMmdl.
161170  0  0  1  0            999 V2000
  -30.5363  -14.8375   20.4343 C   0  0  0  0  0  0
  -30.4517  -12.5141   19.4645 C   0  0  0  0  0  0
  -29.5152  -12.5081   18.2337 C   0  0  0  0  0  0
  -28.0444  -12.3116   18.6558 C   0  0  0  0  0  0
  -27.6369  -13.2252   19.8410 C   0  0  2  0  0  0
  -28.6875  -13.1845   20.9716 C   0  0  0  0  0  0
  -25.2502  -13.8167   20.5679 C   0  0  0  0  0  0
  -24.1799  -13.0424   20.9232 C   0  0  0  0  0  0
  -24.6386  -11.6901   20.8764 C   0  0  0  0  0  0
  -23.9061  -10.4283   21.0419 C   0  0  0  0  0  0
  -24.3612   -9.4196   21.9194 C   0  0  0  0  0  0
  -23.6287   -8.2231   22.0758 C   0  0  0  0  0  0
  -22.4271   -8.0273   21.3545 C   0  0  0  0  0  0
  -21.9907   -9.0248   20.4648 C   0  0  0  0  0  0
  -22.7236  -10.2128   20.3064 C   0  0  0  0  0  0
  -21.6851   -6.0729   22.5277 C   0  0  0  0  0  0
  -21.4010   -6.5637   23.8208 C   0  0  0  0  0  0
  -21.3658   -5.6790   24.9172 C   0  0  0  0  0  0
  -21.6048   -4.3052   24.7225 C   0  0  0  0  0  0
  -21.8819   -3.8143   23.4344 C   0  0  0  0  0  0
  -21.9191   -4.6958   22.3399 C   0  0  0  0  0  0
  -22.7822  -13.5214   21.1883 C   0  0  0  0  0  0
  -22.1661   -4.2143   21.0976 F   0  0  0  0  0  0
  -21.5630   -3.4537   25.7738 F   0  0  0  0  0  0
  -29.9727  -13.5770   20.3770 N   0  0  0  0  0  0
  -26.2915  -12.9356   20.3242 N   0  0  0  0  0  0
  -25.9311  -11.6512   20.5749 N   0  0  0  0  0  0
  -22.0461  -12.8205   22.0432 N   0  0  0  0  0  0
  -25.4162  -15.1895   20.4042 N   0  0  0  0  0  0
  -31.7463  -14.9735   20.2231 O   0  0  0  0  0  0
  -21.6636   -6.8870   21.4240 O   0  0  0  0  0  0
  -22.3512  -14.5521   20.6726 O   0  0  0  0  0  0
  -24.6388  -31.8491   23.1921 C   0  0  0  0  0  0
  -25.9177  -32.4721   23.8297 C   0  0  1  0  0  0
  -27.2240  -27.2012   20.1137 C   0  0  0  0  0  0
  -25.5944  -33.8525   24.2218 N   0  0  0  0  0  0
  -23.4374  -30.4721   21.5376 C   0  0  2  0  0  0
  -24.8813  -28.9100   20.1093 C   0  0  0  0  0  0
  -22.7537  -29.4574   22.4876 C   0  0  0  0  0  0
  -18.0301  -28.1398   22.8479 C   0  0  0  0  0  0
  -24.1488  -36.7258   23.2645 C   0  0  0  0  0  0
  -25.9891  -30.7449   21.3762 C   0  0  0  0  0  0
  -26.0598  -29.3637   20.7123 C   0  0  0  0  0  0
  -27.2284  -28.5248   20.6977 C   0  0  0  0  0  0
  -25.9955  -26.8133   19.5359 C   0  0  0  0  0  0
  -24.8566  -27.6423   19.5136 C   0  0  0  0  0  0
  -23.6576  -29.8068   20.1549 C   0  0  0  0  0  0
  -25.4118  -36.3043   24.0327 C   0  0  1  0  0  0
  -20.5911  -28.3709   23.1247 C   0  0  2  0  0  0
  -20.6789  -26.9421   22.5397 C   0  0  0  0  0  0
  -19.5763  -26.6385   21.5207 C   0  0  0  0  0  0
  -18.1942  -26.7936   22.1621 C   0  0  0  0  0  0
  -19.1556  -28.8871   23.2859 C   0  0  0  0  0  0
  -18.9480  -30.1471   23.8880 C   0  0  0  0  0  0
  -17.6479  -30.6595   24.0568 C   0  0  0  0  0  0
  -25.9065  -34.9422   23.5077 C   0  0  0  0  0  0
  -16.5366  -29.9093   23.6341 C   0  0  0  0  0  0
  -16.7289  -28.6513   23.0353 C   0  0  0  0  0  0
  -26.4513  -31.6575   25.0713 C   0  0  0  0  0  0
  -25.3715  -31.3748   26.1421 C   0  0  0  0  0  0
  -27.0379  -30.2986   24.6240 C   0  0  0  0  0  0
  -27.6054  -32.4325   25.7498 C   0  0  0  0  0  0
  -27.5571  -37.1783   24.8469 C   0  0  0  0  0  0
  -21.4235  -29.3047   22.3629 N   0  0  0  0  0  0
  -26.4284  -37.3748   23.9415 N   0  0  0  0  0  0
  -24.7088  -31.0407   22.0919 N   0  0  0  0  0  0
  -23.4211  -28.8106   23.2993 O   0  0  0  0  0  0
  -28.3394  -26.3054   20.1888 O   0  0  0  0  0  0
  -26.5640  -34.8912   22.4646 O   0  0  0  0  0  0
  -23.5522  -32.1337   23.7181 O   0  0  0  0  0  0
  -28.9405  -20.0467   21.7572 C   0  0  0  0  0  0
  -29.8267  -18.5657   20.0256 C   0  0  0  0  0  0
  -28.9994  -17.5903   22.0745 C   0  0  0  0  0  0
  -29.5317  -19.9404   20.4845 C   0  0  0  0  0  0
  -28.6775  -18.8950   22.5342 C   0  0  0  0  0  0
  -29.5943  -17.3519   20.8129 C   0  0  0  0  0  0
  -28.5412  -23.5189   20.1352 C   0  0  0  0  0  0
  -30.0232  -21.2270   19.7743 C   0  0  0  0  0  0
  -30.1107  -25.0070   19.2074 C   0  0  0  0  0  0
  -30.5447  -23.5524   18.9478 C   0  0  0  0  0  0
  -28.6010  -24.9883   19.4337 C   0  0  2  0  0  0
  -27.9178  -24.9301   18.0430 C   0  0  0  0  0  0
  -29.6549  -22.6104   19.6862 N   0  0  0  0  0  0
  -28.0832  -19.0551   23.7873 N   0  0  0  0  0  0
  -29.6407  -15.9129   20.3720 N   0  0  0  0  0  0
  -31.1386  -20.9168   19.0985 N   0  3  0  0  0  0
  -27.6377  -23.1387   20.8837 O   0  0  0  0  0  0
  -31.4831  -12.6862   19.1523 H   0  0  0  0  0  0
  -30.4435  -11.5452   19.9665 H   0  0  0  0  0  0
  -29.8116  -11.7225   17.5373 H   0  0  0  0  0  0
  -29.6160  -13.4495   17.6915 H   0  0  0  0  0  0
  -27.9231  -11.2664   18.9420 H   0  0  0  0  0  0
  -27.3802  -12.4717   17.8060 H   0  0  0  0  0  0
  -27.6150  -14.2369   19.4374 H   0  0  0  0  0  0
  -28.7521  -12.1866   21.4082 H   0  0  0  0  0  0
  -28.4114  -13.8585   21.7849 H   0  0  0  0  0  0
  -25.2754   -9.5673   22.4771 H   0  0  0  0  0  0
  -23.9994   -7.4622   22.7476 H   0  0  0  0  0  0
  -21.0838   -8.8766   19.8951 H   0  0  0  0  0  0
  -22.3693  -10.9669   19.6173 H   0  0  0  0  0  0
  -21.2001   -7.6145   23.9710 H   0  0  0  0  0  0
  -21.1483   -6.0520   25.9074 H   0  0  0  0  0  0
  -22.0601   -2.7606   23.2846 H   0  0  0  0  0  0
  -22.4071  -11.9861   22.4818 H   0  0  0  0  0  0
  -21.1082  -13.1236   22.2640 H   0  0  0  0  0  0
  -24.6361  -15.8302   20.5022 H   0  0  0  0  0  0
  -26.2312  -15.6267   19.9963 H   0  0  0  0  0  0
  -26.7237  -32.5335   23.1023 H   0  0  0  0  0  0
  -25.0103  -33.9654   25.0369 H   0  0  0  0  0  0
  -22.7377  -31.2972   21.3888 H   0  0  0  0  0  0
  -23.3760  -35.9580   23.3303 H   0  0  0  0  0  0
  -24.3580  -36.8884   22.2059 H   0  0  0  0  0  0
  -23.7235  -37.6454   23.6674 H   0  0  0  0  0  0
  -26.1358  -31.5054   20.6091 H   0  0  0  0  0  0
  -26.8636  -30.7894   22.0137 H   0  0  0  0  0  0
  -28.1329  -28.8744   21.1756 H   0  0  0  0  0  0
  -25.8487  -25.8238   19.1484 H   0  0  0  0  0  0
  -23.9427  -27.2712   19.0706 H   0  0  0  0  0  0
  -23.7908  -30.5842   19.4017 H   0  0  0  0  0  0
  -22.7725  -29.2480   19.8454 H   0  0  0  0  0  0
  -25.1302  -36.1879   25.0819 H   0  0  0  0  0  0
  -21.0012  -28.3291   24.1363 H   0  0  0  0  0  0
  -20.5684  -26.2321   23.3611 H   0  0  0  0  0  0
  -21.6657  -26.7435   22.1194 H   0  0  0  0  0  0
  -19.6934  -25.6293   21.1248 H   0  0  0  0  0  0
  -19.6706  -27.3191   20.6738 H   0  0  0  0  0  0
  -17.4212  -26.6681   21.4027 H   0  0  0  0  0  0
  -18.0343  -26.0088   22.9028 H   0  0  0  0  0  0
  -19.7959  -30.7291   24.2236 H   0  0  0  0  0  0
  -17.5040  -31.6273   24.5167 H   0  0  0  0  0  0
  -15.5372  -30.2991   23.7682 H   0  0  0  0  0  0
  -15.8687  -28.0837   22.7066 H   0  0  0  0  0  0
  -24.5907  -30.7076   25.7752 H   0  0  0  0  0  0
  -24.8890  -32.2929   26.4789 H   0  0  0  0  0  0
  -25.8012  -30.8977   27.0235 H   0  0  0  0  0  0
  -26.2984  -29.6715   24.1240 H   0  0  0  0  0  0
  -27.4029  -29.7264   25.4777 H   0  0  0  0  0  0
  -27.8869  -30.4257   23.9519 H   0  0  0  0  0  0
  -27.2658  -33.3645   26.2025 H   0  0  0  0  0  0
  -28.3892  -32.6849   25.0344 H   0  0  0  0  0  0
  -28.0689  -31.8484   26.5456 H   0  0  0  0  0  0
  -28.2575  -38.0088   24.7509 H   0  0  0  0  0  0
  -28.1078  -36.2617   24.6300 H   0  0  0  0  0  0
  -27.2289  -37.1424   25.8870 H   0  0  0  0  0  0
  -20.9427  -29.8776   21.6832 H   0  0  0  0  0  0
  -26.0159  -38.2816   24.1433 H   0  0  0  0  0  0
  -28.7196  -21.0272   22.1561 H   0  0  0  0  0  0
  -30.2475  -18.4342   19.0382 H   0  0  0  0  0  0
  -28.7466  -16.7431   22.6956 H   0  0  0  0  0  0
  -30.3858  -25.6546   18.3741 H   0  0  0  0  0  0
  -30.6306  -25.3902   20.0868 H   0  0  0  0  0  0
  -31.5901  -23.4476   19.2448 H   0  0  0  0  0  0
  -30.4917  -23.3317   17.8797 H   0  0  0  0  0  0
  -28.4762  -24.3213   17.3329 H   0  0  0  0  0  0
  -27.8293  -25.9201   17.5962 H   0  0  0  0  0  0
  -26.9337  -24.4669   18.0835 H   0  0  0  0  0  0
  -28.0894  -19.9684   24.2302 H   0  0  0  0  0  0
  -28.1058  -18.2863   24.4504 H   0  0  0  0  0  0
  -28.7131  -15.5241   20.3148 H   0  0  0  0  0  0
  -31.5017  -19.9811   19.1903 H   0  0  0  0  0  0
  -31.6522  -21.5757   18.5409 H   0  0  0  0  0  0
  1 25  1  0  0  0
  1 30  2  0  0  0
  1 85  1  0  0  0
  2  3  1  0  0  0
  2 25  1  0  0  0
  2 88  1  0  0  0
  2 89  1  0  0  0
  3  4  1  0  0  0
  3 90  1  0  0  0
  3 91  1  0  0  0
  4  5  1  0  0  0
  4 92  1  0  0  0
  4 93  1  0  0  0
  5  6  1  0  0  0
  5 26  1  0  0  0
  5 94  1  0  0  0
  6 25  1  0  0  0
  6 95  1  0  0  0
  6 96  1  0  0  0
  7  8  2  0  0  0
  7 26  1  0  0  0
  7 29  1  0  0  0
  8  9  1  0  0  0
  8 22  1  0  0  0
  9 10  1  0  0  0
  9 27  2  0  0  0
 10 11  2  0  0  0
 10 15  1  0  0  0
 11 12  1  0  0  0
 11 97  1  0  0  0
 12 13  2  0  0  0
 12 98  1  0  0  0
 13 14  1  0  0  0
 13 31  1  0  0  0
 14 15  2  0  0  0
 14 99  1  0  0  0
 15100  1  0  0  0
 16 17  2  0  0  0
 16 21  1  0  0  0
 16 31  1  0  0  0
 17 18  1  0  0  0
 17101  1  0  0  0
 18 19  2  0  0  0
 18102  1  0  0  0
 19 20  1  0  0  0
 19 24  1  0  0  0
 20 21  2  0  0  0
 20103  1  0  0  0
 21 23  1  0  0  0
 22 28  1  0  0  0
 22 32  2  0  0  0
 26 27  1  0  0  0
 28104  1  0  0  0
 28105  1  0  0  0
 29106  1  0  0  0
 29107  1  0  0  0
 33 34  1  0  0  0
 33 66  1  0  0  0
 33 70  2  0  0  0
 34 36  1  0  0  0
 34 59  1  0  0  0
 34108  1  0  0  0
 35 44  2  0  0  0
 35 45  1  0  0  0
 35 68  1  0  0  0
 36 56  1  0  0  0
 36109  1  0  0  0
 37 39  1  0  0  0
 37 47  1  0  0  0
 37 66  1  0  0  0
 37110  1  0  0  0
 38 43  2  0  0  0
 38 46  1  0  0  0
 38 47  1  0  0  0
 39 64  1  0  0  0
 39 67  2  0  0  0
 40 52  1  0  0  0
 40 53  2  0  0  0
 40 58  1  0  0  0
 41111  1  0  0  0
 41112  1  0  0  0
 41113  1  0  0  0
 41 48  1  0  0  0
 42 43  1  0  0  0
 42 66  1  0  0  0
 42114  1  0  0  0
 42115  1  0  0  0
 43 44  1  0  0  0
 44116  1  0  0  0
 45 46  2  0  0  0
 45117  1  0  0  0
 46118  1  0  0  0
 47119  1  0  0  0
 47120  1  0  0  0
 48 56  1  0  0  0
 48 65  1  0  0  0
 48121  1  0  0  0
 49 50  1  0  0  0
 49 53  1  0  0  0
 49 64  1  0  0  0
 49122  1  0  0  0
 50 51  1  0  0  0
 50123  1  0  0  0
 50124  1  0  0  0
 51 52  1  0  0  0
 51125  1  0  0  0
 51126  1  0  0  0
 52127  1  0  0  0
 52128  1  0  0  0
 53 54  1  0  0  0
 54 55  2  0  0  0
 54129  1  0  0  0
 55 57  1  0  0  0
 55130  1  0  0  0
 56 69  2  0  0  0
 57 58  2  0  0  0
 57131  1  0  0  0
 58132  1  0  0  0
 59 60  1  0  0  0
 59 61  1  0  0  0
 59 62  1  0  0  0
 60133  1  0  0  0
 60134  1  0  0  0
 60135  1  0  0  0
 61136  1  0  0  0
 61137  1  0  0  0
 61138  1  0  0  0
 62139  1  0  0  0
 62140  1  0  0  0
 62141  1  0  0  0
 63 65  1  0  0  0
 63142  1  0  0  0
 63143  1  0  0  0
 63144  1  0  0  0
 64145  1  0  0  0
 65146  1  0  0  0
 68 81  1  0  0  0
 71 74  2  0  0  0
 71 75  1  0  0  0
 71147  1  0  0  0
 72 74  1  0  0  0
 72 76  2  0  0  0
 72148  1  0  0  0
 73 75  2  0  0  0
 73 76  1  0  0  0
 73149  1  0  0  0
 74 78  1  0  0  0
 75 84  1  0  0  0
 76 85  1  0  0  0
 77 81  1  0  0  0
 77 83  1  0  0  0
 77 87  2  0  0  0
 78 83  1  0  0  0
 78 86  2  0  0  0
 79 80  1  0  0  0
 79 81  1  0  0  0
 79150  1  0  0  0
 79151  1  0  0  0
 80 83  1  0  0  0
 80152  1  0  0  0
 80153  1  0  0  0
 81 82  1  0  0  0
 82154  1  0  0  0
 82155  1  0  0  0
 82156  1  0  0  0
 84157  1  0  0  0
 84158  1  0  0  0
 85159  1  0  0  0
 86160  1  0  0  0
 86161  1  0  0  0
M  CHG  1  86   1
M  ISO  4   1 100  68 101  81 101  85 100
M  END
> <chiral flag>
0

> <version>
0

> <s_m_source_file>
/data/baiqing/PycharmProjects/Reinvent-master-3.2/result/LINK_invent/BTK/process_docking_weight1_custom_product_contain_oxygen_bond_distance_aromatic_linkinvent_7_9_3/rearranged_h_0156.sdf

> <i_m_source_file_index>
3

> <r_mmod_Potential_Energy-OPLS-2005>
247.188461303711

> <r_mmod_Stretch_Energy-OPLS-2005>
179.66975402832

> <r_mmod_Bend_Energy-OPLS-2005>
332.382873535156

> <r_mmod_Torsional_Energy-OPLS-2005>
294.047729492188

> <r_mmod_Improper_Torsional_Energy-OPLS-2005>
17.9539089202881

> <r_mmod_Van_der_Waal_Energy-OPLS-2005>
143.518478393555

> <r_mmod_Electrostatic_Energy-OPLS-2005>
-402.558532714844

> <r_mmod_Solvation_Energy-OPLS-2005>
-447.192413330078

> <b_mmod_Minimization_Converged-OPLS-2005>
0

> <r_mmod_RMS_Derivative-OPLS-2005>
1.09503209590912

$$$$
3
                    3D
 Structure written by MMmdl.
151159  0  0  1  0            999 V2000
  -30.5621  -14.7668   20.4784 C   0  0  0  0  0  0
  -30.4566  -12.4699   19.4659 C   0  0  0  0  0  0
  -29.5214  -12.5261   18.2343 C   0  0  0  0  0  0
  -28.0455  -12.3408   18.6454 C   0  0  0  0  0  0
  -27.6522  -13.2223   19.8604 C   0  0  2  0  0  0
  -28.7011  -13.1131   20.9908 C   0  0  0  0  0  0
  -25.2552  -13.8167   20.5666 C   0  0  0  0  0  0
  -24.1839  -13.0435   20.9220 C   0  0  0  0  0  0
  -24.6418  -11.6905   20.8754 C   0  0  0  0  0  0
  -23.9080  -10.4292   21.0409 C   0  0  0  0  0  0
  -24.3621   -9.4207   21.9183 C   0  0  0  0  0  0
  -23.6290   -8.2245   22.0760 C   0  0  0  0  0  0
  -22.4272   -8.0283   21.3551 C   0  0  0  0  0  0
  -21.9913   -9.0259   20.4650 C   0  0  0  0  0  0
  -22.7250  -10.2135   20.3060 C   0  0  0  0  0  0
  -21.6853   -6.0736   22.5281 C   0  0  0  0  0  0
  -21.4010   -6.5634   23.8213 C   0  0  0  0  0  0
  -21.3663   -5.6785   24.9172 C   0  0  0  0  0  0
  -21.6044   -4.3051   24.7222 C   0  0  0  0  0  0
  -21.8816   -3.8149   23.4342 C   0  0  0  0  0  0
  -21.9190   -4.6965   22.3400 C   0  0  0  0  0  0
  -22.7854  -13.5233   21.1858 C   0  0  0  0  0  0
  -22.1656   -4.2158   21.0972 F   0  0  0  0  0  0
  -21.5641   -3.4529   25.7733 F   0  0  0  0  0  0
  -30.0048  -13.5039   20.4250 N   0  0  0  0  0  0
  -26.2992  -12.9360   20.3304 N   0  0  0  0  0  0
  -25.9350  -11.6512   20.5756 N   0  0  0  0  0  0
  -22.0473  -12.8251   22.0407 N   0  0  0  0  0  0
  -25.4207  -15.1884   20.3993 N   0  0  0  0  0  0
  -31.7215  -14.9548   20.0943 O   0  0  0  0  0  0
  -21.6639   -6.8879   21.4244 O   0  0  0  0  0  0
  -22.3543  -14.5531   20.6680 O   0  0  0  0  0  0
  -24.6375  -31.8524   23.1973 C   0  0  0  0  0  0
  -25.9185  -32.4733   23.8334 C   0  0  1  0  0  0
  -27.2209  -27.2236   20.1274 C   0  0  0  0  0  0
  -25.5970  -33.8540   24.2255 N   0  0  0  0  0  0
  -23.4359  -30.4771   21.5401 C   0  0  2  0  0  0
  -24.8837  -28.9203   20.1102 C   0  0  0  0  0  0
  -22.7526  -29.4606   22.4881 C   0  0  0  0  0  0
  -18.0301  -28.1390   22.8472 C   0  0  0  0  0  0
  -24.1492  -36.7265   23.2639 C   0  0  0  0  0  0
  -25.9879  -30.7528   21.3852 C   0  0  0  0  0  0
  -26.0593  -29.3741   20.7218 C   0  0  0  0  0  0
  -27.2308  -28.5403   20.7145 C   0  0  0  0  0  0
  -26.0161  -26.8516   19.4846 C   0  0  0  0  0  0
  -24.8704  -27.6692   19.4795 C   0  0  0  0  0  0
  -23.6577  -29.8140   20.1567 C   0  0  0  0  0  0
  -25.4122  -36.3054   24.0323 C   0  0  1  0  0  0
  -20.5909  -28.3715   23.1233 C   0  0  2  0  0  0
  -20.6788  -26.9423   22.5397 C   0  0  0  0  0  0
  -19.5765  -26.6384   21.5198 C   0  0  0  0  0  0
  -18.1941  -26.7938   22.1602 C   0  0  0  0  0  0
  -19.1556  -28.8871   23.2852 C   0  0  0  0  0  0
  -18.9474  -30.1467   23.8879 C   0  0  0  0  0  0
  -17.6470  -30.6589   24.0561 C   0  0  0  0  0  0
  -25.9069  -34.9427   23.5091 C   0  0  0  0  0  0
  -16.5362  -29.9079   23.6337 C   0  0  0  0  0  0
  -16.7282  -28.6500   23.0355 C   0  0  0  0  0  0
  -26.4540  -31.6563   25.0734 C   0  0  0  0  0  0
  -25.3767  -31.3731   26.1461 C   0  0  0  0  0  0
  -27.0369  -30.2955   24.6265 C   0  0  0  0  0  0
  -27.6098  -32.4305   25.7492 C   0  0  0  0  0  0
  -27.5588  -37.1783   24.8463 C   0  0  0  0  0  0
  -21.4229  -29.3056   22.3614 N   0  0  0  0  0  0
  -26.4291  -37.3760   23.9419 N   0  0  0  0  0  0
  -24.7064  -31.0454   22.0965 N   0  0  0  0  0  0
  -23.4200  -28.8139   23.2998 O   0  0  0  0  0  0
  -28.2981  -26.2915   20.1794 O   0  0  0  0  0  0
  -26.5630  -34.8908   22.4652 O   0  0  0  0  0  0
  -23.5514  -32.1363   23.7236 O   0  0  0  0  0  0
  -30.2502  -18.4069   20.2071 C   0  0  0  0  0  0
  -29.5703  -17.2746   20.8417 C   0  0  0  0  0  0
  -28.5306  -17.8634   21.5228 C   0  0  0  0  0  0
  -29.5418  -19.5772   20.5486 C   0  0  0  0  0  0
  -29.1090  -23.6715   20.2478 C   0  0  0  0  0  0
  -27.4472  -17.3184   22.3915 C   0  0  0  0  0  0
  -28.7297  -22.1037   20.4207 C   0  0  0  0  0  0
  -27.9636  -24.8057   20.1200 C   0  0  0  0  0  0
  -29.6974  -15.7827   20.8565 N   0  0  0  0  0  0
  -29.7498  -20.9807   20.2083 N   0  0  0  0  0  0
  -30.3013  -23.9924   20.1959 O   0  0  0  0  0  0
  -28.5000  -19.2320   21.3505 O   0  0  0  0  0  0
  -31.4932  -12.6237   19.1611 H   0  0  0  0  0  0
  -30.4247  -11.4817   19.9279 H   0  0  0  0  0  0
  -29.8068  -11.7639   17.5082 H   0  0  0  0  0  0
  -29.6412  -13.4861   17.7298 H   0  0  0  0  0  0
  -27.9007  -11.2880   18.8904 H   0  0  0  0  0  0
  -27.3889  -12.5476   17.7989 H   0  0  0  0  0  0
  -27.6564  -14.2519   19.5021 H   0  0  0  0  0  0
  -28.7445  -12.0933   21.3761 H   0  0  0  0  0  0
  -28.4258  -13.7367   21.8425 H   0  0  0  0  0  0
  -25.2758   -9.5686   22.4764 H   0  0  0  0  0  0
  -23.9994   -7.4637   22.7486 H   0  0  0  0  0  0
  -21.0846   -8.8773   19.8955 H   0  0  0  0  0  0
  -22.3703  -10.9671   19.6172 H   0  0  0  0  0  0
  -21.1993   -7.6138   23.9727 H   0  0  0  0  0  0
  -21.1491   -6.0507   25.9079 H   0  0  0  0  0  0
  -22.0595   -2.7614   23.2835 H   0  0  0  0  0  0
  -22.4039  -11.9911   22.4822 H   0  0  0  0  0  0
  -21.1099  -13.1319   22.2575 H   0  0  0  0  0  0
  -24.6381  -15.8269   20.4876 H   0  0  0  0  0  0
  -26.2326  -15.6179   19.9761 H   0  0  0  0  0  0
  -26.7247  -32.5362   23.1067 H   0  0  0  0  0  0
  -25.0144  -33.9675   25.0421 H   0  0  0  0  0  0
  -22.7364  -31.3026   21.3929 H   0  0  0  0  0  0
  -23.3769  -35.9581   23.3281 H   0  0  0  0  0  0
  -24.3581  -36.8915   22.2059 H   0  0  0  0  0  0
  -23.7227  -37.6449   23.6683 H   0  0  0  0  0  0
  -26.1393  -31.5154   20.6202 H   0  0  0  0  0  0
  -26.8606  -30.7954   22.0254 H   0  0  0  0  0  0
  -28.1307  -28.8829   21.2049 H   0  0  0  0  0  0
  -25.9207  -25.9022   18.9817 H   0  0  0  0  0  0
  -23.9706  -27.3204   18.9913 H   0  0  0  0  0  0
  -23.7911  -30.5930   19.4055 H   0  0  0  0  0  0
  -22.7739  -29.2548   19.8443 H   0  0  0  0  0  0
  -25.1305  -36.1892   25.0814 H   0  0  0  0  0  0
  -21.0006  -28.3307   24.1350 H   0  0  0  0  0  0
  -20.5676  -26.2329   23.3613 H   0  0  0  0  0  0
  -21.6656  -26.7436   22.1194 H   0  0  0  0  0  0
  -19.6926  -25.6287   21.1248 H   0  0  0  0  0  0
  -19.6711  -27.3182   20.6719 H   0  0  0  0  0  0
  -17.4215  -26.6693   21.3999 H   0  0  0  0  0  0
  -18.0334  -26.0079   22.8995 H   0  0  0  0  0  0
  -19.7949  -30.7293   24.2234 H   0  0  0  0  0  0
  -17.5021  -31.6268   24.5165 H   0  0  0  0  0  0
  -15.5360  -30.2973   23.7684 H   0  0  0  0  0  0
  -15.8683  -28.0816   22.7081 H   0  0  0  0  0  0
  -24.5872  -30.7175   25.7768 H   0  0  0  0  0  0
  -24.9059  -32.2916   26.4972 H   0  0  0  0  0  0
  -25.8073  -30.8802   27.0187 H   0  0  0  0  0  0
  -26.2940  -29.6678   24.1325 H   0  0  0  0  0  0
  -27.4041  -29.7254   25.4812 H   0  0  0  0  0  0
  -27.8845  -30.4179   23.9517 H   0  0  0  0  0  0
  -27.2709  -33.3599   26.2079 H   0  0  0  0  0  0
  -28.3895  -32.6876   25.0310 H   0  0  0  0  0  0
  -28.0788  -31.8430   26.5394 H   0  0  0  0  0  0
  -28.2590  -38.0095   24.7528 H   0  0  0  0  0  0
  -28.1101  -36.2628   24.6263 H   0  0  0  0  0  0
  -27.2312  -37.1399   25.8867 H   0  0  0  0  0  0
  -20.9426  -29.8759   21.6793 H   0  0  0  0  0  0
  -26.0164  -38.2826   24.1443 H   0  0  0  0  0  0
  -31.1221  -18.3646   19.5692 H   0  0  0  0  0  0
  -27.4642  -16.2294   22.4205 H   0  0  0  0  0  0
  -26.4675  -17.6253   22.0264 H   0  0  0  0  0  0
  -27.5565  -17.6807   23.4137 H   0  0  0  0  0  0
  -27.8926  -21.9120   19.7490 H   0  0  0  0  0  0
  -28.3265  -21.9929   21.4285 H   0  0  0  0  0  0
  -27.2145  -24.5914   20.8837 H   0  0  0  0  0  0
  -27.4860  -24.5955   19.1632 H   0  0  0  0  0  0
  -28.8629  -15.3491   21.2199 H   0  0  0  0  0  0
  -30.5376  -21.2360   19.6164 H   0  0  0  0  0  0
  1 25  1  0  0  0
  1 30  2  0  0  0
  1 79  1  0  0  0
  2  3  1  0  0  0
  2 25  1  0  0  0
  2 83  1  0  0  0
  2 84  1  0  0  0
  3  4  1  0  0  0
  3 85  1  0  0  0
  3 86  1  0  0  0
  4  5  1  0  0  0
  4 87  1  0  0  0
  4 88  1  0  0  0
  5  6  1  0  0  0
  5 26  1  0  0  0
  5 89  1  0  0  0
  6 25  1  0  0  0
  6 90  1  0  0  0
  6 91  1  0  0  0
  7  8  2  0  0  0
  7 26  1  0  0  0
  7 29  1  0  0  0
  8  9  1  0  0  0
  8 22  1  0  0  0
  9 10  1  0  0  0
  9 27  2  0  0  0
 10 11  2  0  0  0
 10 15  1  0  0  0
 11 12  1  0  0  0
 11 92  1  0  0  0
 12 13  2  0  0  0
 12 93  1  0  0  0
 13 14  1  0  0  0
 13 31  1  0  0  0
 14 15  2  0  0  0
 14 94  1  0  0  0
 15 95  1  0  0  0
 16 17  2  0  0  0
 16 21  1  0  0  0
 16 31  1  0  0  0
 17 18  1  0  0  0
 17 96  1  0  0  0
 18 19  2  0  0  0
 18 97  1  0  0  0
 19 20  1  0  0  0
 19 24  1  0  0  0
 20 21  2  0  0  0
 20 98  1  0  0  0
 21 23  1  0  0  0
 22 28  1  0  0  0
 22 32  2  0  0  0
 26 27  1  0  0  0
 28 99  1  0  0  0
 28100  1  0  0  0
 29101  1  0  0  0
 29102  1  0  0  0
 33 34  1  0  0  0
 33 66  1  0  0  0
 33 70  2  0  0  0
 34 36  1  0  0  0
 34 59  1  0  0  0
 34103  1  0  0  0
 35 44  2  0  0  0
 35 45  1  0  0  0
 35 68  1  0  0  0
 36 56  1  0  0  0
 36104  1  0  0  0
 37 39  1  0  0  0
 37 47  1  0  0  0
 37 66  1  0  0  0
 37105  1  0  0  0
 38 43  2  0  0  0
 38 46  1  0  0  0
 38 47  1  0  0  0
 39 64  1  0  0  0
 39 67  2  0  0  0
 40 52  1  0  0  0
 40 53  2  0  0  0
 40 58  1  0  0  0
 41106  1  0  0  0
 41107  1  0  0  0
 41108  1  0  0  0
 41 48  1  0  0  0
 42 43  1  0  0  0
 42 66  1  0  0  0
 42109  1  0  0  0
 42110  1  0  0  0
 43 44  1  0  0  0
 44111  1  0  0  0
 45 46  2  0  0  0
 45112  1  0  0  0
 46113  1  0  0  0
 47114  1  0  0  0
 47115  1  0  0  0
 48 56  1  0  0  0
 48 65  1  0  0  0
 48116  1  0  0  0
 49 50  1  0  0  0
 49 53  1  0  0  0
 49 64  1  0  0  0
 49117  1  0  0  0
 50 51  1  0  0  0
 50118  1  0  0  0
 50119  1  0  0  0
 51 52  1  0  0  0
 51120  1  0  0  0
 51121  1  0  0  0
 52122  1  0  0  0
 52123  1  0  0  0
 53 54  1  0  0  0
 54 55  2  0  0  0
 54124  1  0  0  0
 55 57  1  0  0  0
 55125  1  0  0  0
 56 69  2  0  0  0
 57 58  2  0  0  0
 57126  1  0  0  0
 58127  1  0  0  0
 59 60  1  0  0  0
 59 61  1  0  0  0
 59 62  1  0  0  0
 60128  1  0  0  0
 60129  1  0  0  0
 60130  1  0  0  0
 61131  1  0  0  0
 61132  1  0  0  0
 61133  1  0  0  0
 62134  1  0  0  0
 62135  1  0  0  0
 62136  1  0  0  0
 63 65  1  0  0  0
 63137  1  0  0  0
 63138  1  0  0  0
 63139  1  0  0  0
 64140  1  0  0  0
 65141  1  0  0  0
 68 78  1  0  0  0
 71 72  1  0  0  0
 71 74  2  0  0  0
 71142  1  0  0  0
 72 73  2  0  0  0
 72 79  1  0  0  0
 73 76  1  0  0  0
 73 82  1  0  0  0
 74 80  1  0  0  0
 74 82  1  0  0  0
 75 77  1  0  0  0
 75 78  1  0  0  0
 75 81  2  0  0  0
 76143  1  0  0  0
 76144  1  0  0  0
 76145  1  0  0  0
 77 80  1  0  0  0
 77146  1  0  0  0
 77147  1  0  0  0
 78148  1  0  0  0
 78149  1  0  0  0
 79150  1  0  0  0
 80151  1  0  0  0
M  ISO  4   1 100  68 101  78 101  79 100
M  END
> <chiral flag>
0

> <version>
0

> <s_m_source_file>
/data/baiqing/PycharmProjects/Reinvent-master-3.2/result/LINK_invent/BTK/process_docking_weight1_custom_product_contain_oxygen_bond_distance_aromatic_linkinvent_7_9_3/rearranged_h_0156.sdf

> <i_m_source_file_index>
4

> <r_mmod_Potential_Energy-OPLS-2005>
192.156646728516

> <r_mmod_Stretch_Energy-OPLS-2005>
139.154220581055

> <r_mmod_Bend_Energy-OPLS-2005>
223.638763427734

> <r_mmod_Torsional_Energy-OPLS-2005>
203.363082885742

> <r_mmod_Improper_Torsional_Energy-OPLS-2005>
4.29552125930786

> <r_mmod_Van_der_Waal_Energy-OPLS-2005>
111.985481262207

> <r_mmod_Electrostatic_Energy-OPLS-2005>
-340.785949707031

> <r_mmod_Solvation_Energy-OPLS-2005>
-251.813903808594

> <b_mmod_Minimization_Converged-OPLS-2005>
0

> <r_mmod_RMS_Derivative-OPLS-2005>
1.73936688899994

$$$$
4
                    3D
 Structure written by MMmdl.
150159  0  0  1  0            999 V2000
  -30.6206  -14.7457   20.4400 C   0  0  0  0  0  0
  -30.4343  -12.4536   19.4723 C   0  0  0  0  0  0
  -29.5137  -12.5224   18.2339 C   0  0  0  0  0  0
  -28.0390  -12.3492   18.6445 C   0  0  0  0  0  0
  -27.6472  -13.2378   19.8553 C   0  0  2  0  0  0
  -28.6947  -13.1652   20.9893 C   0  0  0  0  0  0
  -25.2530  -13.8208   20.5692 C   0  0  0  0  0  0
  -24.1827  -13.0443   20.9200 C   0  0  0  0  0  0
  -24.6427  -11.6926   20.8744 C   0  0  0  0  0  0
  -23.9099  -10.4299   21.0398 C   0  0  0  0  0  0
  -24.3642   -9.4214   21.9178 C   0  0  0  0  0  0
  -23.6304   -8.2254   22.0754 C   0  0  0  0  0  0
  -22.4288   -8.0291   21.3544 C   0  0  0  0  0  0
  -21.9929   -9.0267   20.4647 C   0  0  0  0  0  0
  -22.7268  -10.2143   20.3050 C   0  0  0  0  0  0
  -21.6859   -6.0741   22.5278 C   0  0  0  0  0  0
  -21.4018   -6.5641   23.8212 C   0  0  0  0  0  0
  -21.3662   -5.6795   24.9175 C   0  0  0  0  0  0
  -21.6043   -4.3056   24.7221 C   0  0  0  0  0  0
  -21.8818   -3.8149   23.4339 C   0  0  0  0  0  0
  -21.9191   -4.6966   22.3396 C   0  0  0  0  0  0
  -22.7835  -13.5217   21.1842 C   0  0  0  0  0  0
  -22.1657   -4.2155   21.0971 F   0  0  0  0  0  0
  -21.5630   -3.4538   25.7727 F   0  0  0  0  0  0
  -29.9989  -13.5152   20.4119 N   0  0  0  0  0  0
  -26.2977  -12.9433   20.3301 N   0  0  0  0  0  0
  -25.9371  -11.6570   20.5760 N   0  0  0  0  0  0
  -22.0479  -12.8232   22.0408 N   0  0  0  0  0  0
  -25.4193  -15.1938   20.4111 N   0  0  0  0  0  0
  -31.8028  -14.8292   20.0919 O   0  0  0  0  0  0
  -21.6647   -6.8892   21.4245 O   0  0  0  0  0  0
  -22.3518  -14.5509   20.6667 O   0  0  0  0  0  0
  -24.6328  -31.8546   23.1985 C   0  0  0  0  0  0
  -25.9153  -32.4741   23.8342 C   0  0  1  0  0  0
  -27.2149  -27.2508   20.1198 C   0  0  0  0  0  0
  -25.5945  -33.8543   24.2266 N   0  0  0  0  0  0
  -23.4292  -30.4797   21.5426 C   0  0  2  0  0  0
  -24.8748  -28.9295   20.1079 C   0  0  0  0  0  0
  -22.7508  -29.4600   22.4906 C   0  0  0  0  0  0
  -18.0290  -28.1365   22.8483 C   0  0  0  0  0  0
  -24.1489  -36.7282   23.2644 C   0  0  0  0  0  0
  -25.9774  -30.7630   21.3812 C   0  0  0  0  0  0
  -26.0479  -29.3857   20.7219 C   0  0  0  0  0  0
  -27.2186  -28.5573   20.7220 C   0  0  0  0  0  0
  -26.0207  -26.8802   19.4571 C   0  0  0  0  0  0
  -24.8670  -27.6839   19.4667 C   0  0  0  0  0  0
  -23.6466  -29.8174   20.1578 C   0  0  0  0  0  0
  -25.4111  -36.3063   24.0335 C   0  0  1  0  0  0
  -20.5896  -28.3687   23.1256 C   0  0  2  0  0  0
  -20.6769  -26.9401   22.5403 C   0  0  0  0  0  0
  -19.5745  -26.6362   21.5205 C   0  0  0  0  0  0
  -18.1928  -26.7905   22.1621 C   0  0  0  0  0  0
  -19.1545  -28.8841   23.2862 C   0  0  0  0  0  0
  -18.9462  -30.1441   23.8891 C   0  0  0  0  0  0
  -17.6463  -30.6570   24.0552 C   0  0  0  0  0  0
  -25.9056  -34.9434   23.5105 C   0  0  0  0  0  0
  -16.5355  -29.9067   23.6316 C   0  0  0  0  0  0
  -16.7279  -28.6473   23.0357 C   0  0  0  0  0  0
  -26.4505  -31.6559   25.0735 C   0  0  0  0  0  0
  -25.3720  -31.3713   26.1450 C   0  0  0  0  0  0
  -27.0355  -30.2973   24.6230 C   0  0  0  0  0  0
  -27.6057  -32.4296   25.7513 C   0  0  0  0  0  0
  -27.5576  -37.1799   24.8465 C   0  0  0  0  0  0
  -21.4216  -29.3045   22.3655 N   0  0  0  0  0  0
  -26.4287  -37.3762   23.9411 N   0  0  0  0  0  0
  -24.6992  -31.0502   22.0970 N   0  0  0  0  0  0
  -23.4203  -28.8139   23.3003 O   0  0  0  0  0  0
  -28.2958  -26.3332   20.1989 O   0  0  0  0  0  0
  -26.5629  -34.8913   22.4672 O   0  0  0  0  0  0
  -23.5474  -32.1388   23.7267 O   0  0  0  0  0  0
  -30.5536  -19.3708   18.9724 C   0  0  0  0  0  0
  -29.7245  -19.6523   20.0354 C   0  0  0  0  0  0
  -30.0594  -17.2723   20.2379 C   0  0  0  0  0  0
  -29.2236  -21.0908   20.4057 C   0  0  0  0  0  0
  -29.0708  -22.3186   19.4518 C   0  0  0  0  0  0
  -28.5174  -22.9042   21.6355 C   0  0  0  0  0  0
  -28.9773  -23.6227   20.3390 C   0  0  2  0  0  0
  -28.0727  -24.8820   19.8396 C   0  0  0  0  0  0
  -29.4519  -18.4058   20.7381 N   0  0  0  0  0  0
  -28.9037  -21.4745   21.5802 N   0  0  0  0  0  0
  -29.8710  -15.8816   20.7164 N   0  0  0  0  0  0
  -31.0307  -17.6841   18.8288 S   0  0  0  0  0  0
  -31.4760  -12.5682   19.1671 H   0  0  0  0  0  0
  -30.3705  -11.4723   19.9449 H   0  0  0  0  0  0
  -29.7954  -11.7604   17.5060 H   0  0  0  0  0  0
  -29.6436  -13.4845   17.7349 H   0  0  0  0  0  0
  -27.8881  -11.2983   18.8921 H   0  0  0  0  0  0
  -27.3842  -12.5583   17.7982 H   0  0  0  0  0  0
  -27.6438  -14.2635   19.4857 H   0  0  0  0  0  0
  -28.7278  -12.1646   21.4209 H   0  0  0  0  0  0
  -28.4333  -13.8413   21.8048 H   0  0  0  0  0  0
  -25.2787   -9.5687   22.4758 H   0  0  0  0  0  0
  -24.0007   -7.4648   22.7481 H   0  0  0  0  0  0
  -21.0852   -8.8796   19.8958 H   0  0  0  0  0  0
  -22.3725  -10.9684   19.6156 H   0  0  0  0  0  0
  -21.2022   -7.6150   23.9721 H   0  0  0  0  0  0
  -21.1481   -6.0520   25.9078 H   0  0  0  0  0  0
  -22.0596   -2.7610   23.2835 H   0  0  0  0  0  0
  -22.4080  -11.9905   22.4835 H   0  0  0  0  0  0
  -21.1083  -13.1259   22.2571 H   0  0  0  0  0  0
  -24.6517  -15.8452   20.5307 H   0  0  0  0  0  0
  -26.2626  -15.6383   20.0706 H   0  0  0  0  0  0
  -26.7227  -32.5381   23.1088 H   0  0  0  0  0  0
  -25.0074  -33.9669   25.0402 H   0  0  0  0  0  0
  -22.7266  -31.3032   21.3981 H   0  0  0  0  0  0
  -23.3749  -35.9617   23.3294 H   0  0  0  0  0  0
  -24.3592  -36.8914   22.2064 H   0  0  0  0  0  0
  -23.7247  -37.6486   23.6667 H   0  0  0  0  0  0
  -26.1199  -31.5231   20.6117 H   0  0  0  0  0  0
  -26.8545  -30.8103   22.0150 H   0  0  0  0  0  0
  -28.1118  -28.8983   21.2271 H   0  0  0  0  0  0
  -25.9339  -25.9422   18.9305 H   0  0  0  0  0  0
  -23.9719  -27.3305   18.9737 H   0  0  0  0  0  0
  -23.7725  -30.5959   19.4043 H   0  0  0  0  0  0
  -22.7633  -29.2539   19.8507 H   0  0  0  0  0  0
  -25.1289  -36.1917   25.0829 H   0  0  0  0  0  0
  -20.9990  -28.3259   24.1375 H   0  0  0  0  0  0
  -20.5628  -26.2310   23.3616 H   0  0  0  0  0  0
  -21.6639  -26.7390   22.1221 H   0  0  0  0  0  0
  -19.6904  -25.6266   21.1241 H   0  0  0  0  0  0
  -19.6674  -27.3163   20.6724 H   0  0  0  0  0  0
  -17.4196  -26.6653   21.4025 H   0  0  0  0  0  0
  -18.0330  -26.0040   22.9009 H   0  0  0  0  0  0
  -19.7942  -30.7245   24.2264 H   0  0  0  0  0  0
  -17.5018  -31.6252   24.5150 H   0  0  0  0  0  0
  -15.5352  -30.2968   23.7632 H   0  0  0  0  0  0
  -15.8677  -28.0779   22.7095 H   0  0  0  0  0  0
  -24.5913  -30.7034   25.7789 H   0  0  0  0  0  0
  -24.8883  -32.2875   26.4841 H   0  0  0  0  0  0
  -25.8037  -30.8927   27.0250 H   0  0  0  0  0  0
  -26.2945  -29.6711   24.1242 H   0  0  0  0  0  0
  -27.4024  -29.7239   25.4754 H   0  0  0  0  0  0
  -27.8827  -30.4242   23.9488 H   0  0  0  0  0  0
  -27.2670  -33.3610   26.2059 H   0  0  0  0  0  0
  -28.3887  -32.6825   25.0352 H   0  0  0  0  0  0
  -28.0696  -31.8434   26.5456 H   0  0  0  0  0  0
  -28.2587  -38.0101   24.7505 H   0  0  0  0  0  0
  -28.1078  -36.2632   24.6287 H   0  0  0  0  0  0
  -27.2298  -37.1442   25.8871 H   0  0  0  0  0  0
  -20.9394  -29.8821   21.6914 H   0  0  0  0  0  0
  -26.0164  -38.2842   24.1390 H   0  0  0  0  0  0
  -30.9423  -20.0847   18.2591 H   0  0  0  0  0  0
  -28.1629  -22.1857   18.8635 H   0  0  0  0  0  0
  -29.9036  -22.3713   18.7507 H   0  0  0  0  0  0
  -27.4340  -22.9760   21.7504 H   0  0  0  0  0  0
  -28.9547  -23.3905   22.5087 H   0  0  0  0  0  0
  -29.9974  -23.9812   20.4841 H   0  0  0  0  0  0
  -27.0594  -24.6065   20.1279 H   0  0  0  0  0  0
  -28.0806  -24.8591   18.7495 H   0  0  0  0  0  0
  -28.9878  -15.7061   21.1676 H   0  0  0  0  0  0
  1 25  1  0  0  0
  1 30  2  0  0  0
  1 81  1  0  0  0
  2  3  1  0  0  0
  2 25  1  0  0  0
  2 83  1  0  0  0
  2 84  1  0  0  0
  3  4  1  0  0  0
  3 85  1  0  0  0
  3 86  1  0  0  0
  4  5  1  0  0  0
  4 87  1  0  0  0
  4 88  1  0  0  0
  5  6  1  0  0  0
  5 26  1  0  0  0
  5 89  1  0  0  0
  6 25  1  0  0  0
  6 90  1  0  0  0
  6 91  1  0  0  0
  7  8  2  0  0  0
  7 26  1  0  0  0
  7 29  1  0  0  0
  8  9  1  0  0  0
  8 22  1  0  0  0
  9 10  1  0  0  0
  9 27  2  0  0  0
 10 11  2  0  0  0
 10 15  1  0  0  0
 11 12  1  0  0  0
 11 92  1  0  0  0
 12 13  2  0  0  0
 12 93  1  0  0  0
 13 14  1  0  0  0
 13 31  1  0  0  0
 14 15  2  0  0  0
 14 94  1  0  0  0
 15 95  1  0  0  0
 16 17  2  0  0  0
 16 21  1  0  0  0
 16 31  1  0  0  0
 17 18  1  0  0  0
 17 96  1  0  0  0
 18 19  2  0  0  0
 18 97  1  0  0  0
 19 20  1  0  0  0
 19 24  1  0  0  0
 20 21  2  0  0  0
 20 98  1  0  0  0
 21 23  1  0  0  0
 22 28  1  0  0  0
 22 32  2  0  0  0
 26 27  1  0  0  0
 28 99  1  0  0  0
 28100  1  0  0  0
 29101  1  0  0  0
 29102  1  0  0  0
 33 34  1  0  0  0
 33 66  1  0  0  0
 33 70  2  0  0  0
 34 36  1  0  0  0
 34 59  1  0  0  0
 34103  1  0  0  0
 35 44  2  0  0  0
 35 45  1  0  0  0
 35 68  1  0  0  0
 36 56  1  0  0  0
 36104  1  0  0  0
 37 39  1  0  0  0
 37 47  1  0  0  0
 37 66  1  0  0  0
 37105  1  0  0  0
 38 43  2  0  0  0
 38 46  1  0  0  0
 38 47  1  0  0  0
 39 64  1  0  0  0
 39 67  2  0  0  0
 40 52  1  0  0  0
 40 53  2  0  0  0
 40 58  1  0  0  0
 41106  1  0  0  0
 41107  1  0  0  0
 41108  1  0  0  0
 41 48  1  0  0  0
 42 43  1  0  0  0
 42 66  1  0  0  0
 42109  1  0  0  0
 42110  1  0  0  0
 43 44  1  0  0  0
 44111  1  0  0  0
 45 46  2  0  0  0
 45112  1  0  0  0
 46113  1  0  0  0
 47114  1  0  0  0
 47115  1  0  0  0
 48 56  1  0  0  0
 48 65  1  0  0  0
 48116  1  0  0  0
 49 50  1  0  0  0
 49 53  1  0  0  0
 49 64  1  0  0  0
 49117  1  0  0  0
 50 51  1  0  0  0
 50118  1  0  0  0
 50119  1  0  0  0
 51 52  1  0  0  0
 51120  1  0  0  0
 51121  1  0  0  0
 52122  1  0  0  0
 52123  1  0  0  0
 53 54  1  0  0  0
 54 55  2  0  0  0
 54124  1  0  0  0
 55 57  1  0  0  0
 55125  1  0  0  0
 56 69  2  0  0  0
 57 58  2  0  0  0
 57126  1  0  0  0
 58127  1  0  0  0
 59 60  1  0  0  0
 59 61  1  0  0  0
 59 62  1  0  0  0
 60128  1  0  0  0
 60129  1  0  0  0
 60130  1  0  0  0
 61131  1  0  0  0
 61132  1  0  0  0
 61133  1  0  0  0
 62134  1  0  0  0
 62135  1  0  0  0
 62136  1  0  0  0
 63 65  1  0  0  0
 63137  1  0  0  0
 63138  1  0  0  0
 63139  1  0  0  0
 64140  1  0  0  0
 65141  1  0  0  0
 68 78  1  0  0  0
 71 72  2  0  0  0
 71 82  1  0  0  0
 71142  1  0  0  0
 72 74  1  0  0  0
 72 79  1  0  0  0
 73 79  2  0  0  0
 73 81  1  0  0  0
 73 82  1  0  0  0
 74 75  1  0  0  0
 74 80  2  0  0  0
 75 77  1  0  0  0
 75143  1  0  0  0
 75144  1  0  0  0
 76 77  1  0  0  0
 76 80  1  0  0  0
 76145  1  0  0  0
 76146  1  0  0  0
 77 78  1  0  0  0
 77147  1  0  0  0
 78148  1  0  0  0
 78149  1  0  0  0
 81150  1  0  0  0
M  ISO  4   1 100  68 101  78 101  81 100
M  END
> <chiral flag>
0

> <version>
0

> <s_m_source_file>
/data/baiqing/PycharmProjects/Reinvent-master-3.2/result/LINK_invent/BTK/process_docking_weight1_custom_product_contain_oxygen_bond_distance_aromatic_linkinvent_7_9_3/rearranged_h_0156.sdf

> <i_m_source_file_index>
5

> <r_mmod_Potential_Energy-OPLS-2005>
125.706565856934

> <r_mmod_Stretch_Energy-OPLS-2005>
120.079391479492

> <r_mmod_Bend_Energy-OPLS-2005>
192.244857788086

> <r_mmod_Torsional_Energy-OPLS-2005>
236.914627075195

> <r_mmod_Improper_Torsional_Energy-OPLS-2005>
4.01922416687012

> <r_mmod_Van_der_Waal_Energy-OPLS-2005>
119.634559631348

> <r_mmod_Electrostatic_Energy-OPLS-2005>
-398.740234375

> <r_mmod_Solvation_Energy-OPLS-2005>
-237.738479614258

> <b_mmod_Minimization_Converged-OPLS-2005>
0

> <r_mmod_RMS_Derivative-OPLS-2005>
1.38345384597778

$$$$
5
                    3D
 Structure written by MMmdl.
162171  0  0  1  0            999 V2000
  -30.6262  -14.7505   20.4108 C   0  0  0  0  0  0
  -30.4353  -12.4650   19.4306 C   0  0  0  0  0  0
  -29.4969  -12.4928   18.2042 C   0  0  0  0  0  0
  -28.0265  -12.3265   18.6400 C   0  0  0  0  0  0
  -27.6393  -13.2285   19.8415 C   0  0  2  0  0  0
  -28.7001  -13.1740   20.9598 C   0  0  0  0  0  0
  -25.2525  -13.8182   20.5733 C   0  0  0  0  0  0
  -24.1796  -13.0475   20.9209 C   0  0  0  0  0  0
  -24.6346  -11.6939   20.8728 C   0  0  0  0  0  0
  -23.9009  -10.4325   21.0366 C   0  0  0  0  0  0
  -24.3567   -9.4244   21.9148 C   0  0  0  0  0  0
  -23.6273   -8.2264   22.0738 C   0  0  0  0  0  0
  -22.4271   -8.0260   21.3514 C   0  0  0  0  0  0
  -21.9872   -9.0236   20.4635 C   0  0  0  0  0  0
  -22.7169  -10.2134   20.3041 C   0  0  0  0  0  0
  -21.6852   -6.0693   22.5252 C   0  0  0  0  0  0
  -21.4016   -6.5604   23.8185 C   0  0  0  0  0  0
  -21.3676   -5.6764   24.9166 C   0  0  0  0  0  0
  -21.6057   -4.3018   24.7213 C   0  0  0  0  0  0
  -21.8822   -3.8109   23.4341 C   0  0  0  0  0  0
  -21.9209   -4.6928   22.3394 C   0  0  0  0  0  0
  -22.7827  -13.5297   21.1850 C   0  0  0  0  0  0
  -22.1683   -4.2107   21.0968 F   0  0  0  0  0  0
  -21.5658   -3.4511   25.7731 F   0  0  0  0  0  0
  -29.9774  -13.5394   20.3398 N   0  0  0  0  0  0
  -26.2934  -12.9382   20.3289 N   0  0  0  0  0  0
  -25.9276  -11.6536   20.5741 N   0  0  0  0  0  0
  -22.0454  -12.8322   22.0395 N   0  0  0  0  0  0
  -25.4290  -15.1902   20.4194 N   0  0  0  0  0  0
  -31.8492  -14.7844   20.2740 O   0  0  0  0  0  0
  -21.6653   -6.8835   21.4211 O   0  0  0  0  0  0
  -22.3538  -14.5626   20.6693 O   0  0  0  0  0  0
  -24.6311  -31.8549   23.1979 C   0  0  0  0  0  0
  -25.9138  -32.4753   23.8333 C   0  0  1  0  0  0
  -27.2141  -27.2480   20.1202 C   0  0  0  0  0  0
  -25.5938  -33.8554   24.2244 N   0  0  0  0  0  0
  -23.4306  -30.4739   21.5419 C   0  0  2  0  0  0
  -24.8821  -28.9311   20.1019 C   0  0  0  0  0  0
  -22.7535  -29.4564   22.4903 C   0  0  0  0  0  0
  -18.0334  -28.1378   22.8501 C   0  0  0  0  0  0
  -24.1490  -36.7290   23.2628 C   0  0  0  0  0  0
  -25.9796  -30.7584   21.3883 C   0  0  0  0  0  0
  -26.0538  -29.3819   20.7263 C   0  0  0  0  0  0
  -27.2240  -28.5518   20.7261 C   0  0  0  0  0  0
  -26.0284  -26.8911   19.4371 C   0  0  0  0  0  0
  -24.8788  -27.6997   19.4373 C   0  0  0  0  0  0
  -23.6520  -29.8133   20.1568 C   0  0  0  0  0  0
  -25.4112  -36.3072   24.0317 C   0  0  1  0  0  0
  -20.5926  -28.3672   23.1265 C   0  0  2  0  0  0
  -20.6791  -26.9401   22.5389 C   0  0  0  0  0  0
  -19.5738  -26.6371   21.5198 C   0  0  0  0  0  0
  -18.1973  -26.7911   22.1709 C   0  0  0  0  0  0
  -19.1579  -28.8851   23.2883 C   0  0  0  0  0  0
  -18.9503  -30.1449   23.8903 C   0  0  0  0  0  0
  -17.6479  -30.6565   24.0568 C   0  0  0  0  0  0
  -25.9053  -34.9445   23.5087 C   0  0  0  0  0  0
  -16.5374  -29.9060   23.6324 C   0  0  0  0  0  0
  -16.7317  -28.6483   23.0352 C   0  0  0  0  0  0
  -26.4487  -31.6586   25.0731 C   0  0  0  0  0  0
  -25.3679  -31.3804   26.1429 C   0  0  0  0  0  0
  -27.0299  -30.2974   24.6258 C   0  0  0  0  0  0
  -27.6025  -32.4326   25.7510 C   0  0  0  0  0  0
  -27.5582  -37.1804   24.8455 C   0  0  0  0  0  0
  -21.4245  -29.2999   22.3658 N   0  0  0  0  0  0
  -26.4288  -37.3770   23.9400 N   0  0  0  0  0  0
  -24.6983  -31.0459   22.1003 N   0  0  0  0  0  0
  -23.4256  -28.8133   23.3012 O   0  0  0  0  0  0
  -28.2745  -26.3075   20.2076 O   0  0  0  0  0  0
  -26.5615  -34.8900   22.4651 O   0  0  0  0  0  0
  -23.5450  -32.1403   23.7246 O   0  0  0  0  0  0
  -27.7856  -18.0292   22.1937 C   0  0  0  0  0  0
  -28.1388  -19.3491   21.8493 C   0  0  0  0  0  0
  -28.4149  -16.9190   21.6013 C   0  0  0  0  0  0
  -29.7357  -18.4643   20.2567 C   0  0  0  0  0  0
  -29.1049  -19.6358   20.8564 C   0  0  0  0  0  0
  -29.4205  -17.0840   20.6314 C   0  0  0  0  0  0
  -29.9049  -23.9500   21.3217 C   0  0  0  0  0  0
  -28.8716  -23.6645   20.5152 C   0  0  0  0  0  0
  -30.8012  -22.9040   21.8370 C   0  0  0  0  0  0
  -30.4073  -21.4183   21.7295 C   0  0  0  0  0  0
  -28.6330  -22.1524   20.0395 C   0  0  2  0  0  0
  -26.8665  -20.8766   18.6850 C   0  0  0  0  0  0
  -27.9224  -24.8486   20.0300 C   0  0  0  0  0  0
  -27.1370  -21.7761   19.9006 C   0  0  0  0  0  0
  -29.4778  -21.0333   20.6545 N   0  0  0  0  0  0
  -29.9483  -15.8760   19.9641 N   0  0  0  0  0  0
  -31.8496  -23.1913   22.4185 O   0  0  0  0  0  0
  -31.4686  -12.6080   19.1121 H   0  0  0  0  0  0
  -30.4035  -11.4952   19.9279 H   0  0  0  0  0  0
  -29.7697  -11.7066   17.4969 H   0  0  0  0  0  0
  -29.6131  -13.4335   17.6652 H   0  0  0  0  0  0
  -27.8828  -11.2772   18.9003 H   0  0  0  0  0  0
  -27.3630  -12.5215   17.7986 H   0  0  0  0  0  0
  -27.6321  -14.2492   19.4577 H   0  0  0  0  0  0
  -28.7499  -12.1791   21.4057 H   0  0  0  0  0  0
  -28.4622  -13.8529   21.7749 H   0  0  0  0  0  0
  -25.2688   -9.5751   22.4749 H   0  0  0  0  0  0
  -23.9967   -7.4688   22.7497 H   0  0  0  0  0  0
  -21.0776   -8.8754   19.8981 H   0  0  0  0  0  0
  -22.3569  -10.9686   19.6199 H   0  0  0  0  0  0
  -21.1989   -7.6108   23.9659 H   0  0  0  0  0  0
  -21.1508   -6.0504   25.9058 H   0  0  0  0  0  0
  -22.0582   -2.7561   23.2860 H   0  0  0  0  0  0
  -22.4021  -11.9968   22.4769 H   0  0  0  0  0  0
  -21.1095  -13.1384   22.2591 H   0  0  0  0  0  0
  -24.6658  -15.8488   20.5310 H   0  0  0  0  0  0
  -26.2850  -15.6170   20.0884 H   0  0  0  0  0  0
  -26.7197  -32.5401   23.1067 H   0  0  0  0  0  0
  -25.0117  -33.9684   25.0405 H   0  0  0  0  0  0
  -22.7294  -31.2970   21.3909 H   0  0  0  0  0  0
  -23.3748  -35.9623   23.3293 H   0  0  0  0  0  0
  -24.3589  -36.8930   22.2047 H   0  0  0  0  0  0
  -23.7252  -37.6497   23.6649 H   0  0  0  0  0  0
  -26.1172  -31.5178   20.6159 H   0  0  0  0  0  0
  -26.8573  -30.8100   22.0218 H   0  0  0  0  0  0
  -28.1144  -28.8803   21.2462 H   0  0  0  0  0  0
  -25.9464  -25.9613   18.8952 H   0  0  0  0  0  0
  -23.9954  -27.3652   18.9100 H   0  0  0  0  0  0
  -23.7747  -30.5878   19.3996 H   0  0  0  0  0  0
  -22.7782  -29.2402   19.8484 H   0  0  0  0  0  0
  -25.1291  -36.1931   25.0808 H   0  0  0  0  0  0
  -21.0031  -28.3270   24.1388 H   0  0  0  0  0  0
  -20.5730  -26.2253   23.3574 H   0  0  0  0  0  0
  -21.6629  -26.7408   22.1097 H   0  0  0  0  0  0
  -19.6890  -25.6276   21.1236 H   0  0  0  0  0  0
  -19.6596  -27.3211   20.6741 H   0  0  0  0  0  0
  -17.4138  -26.6497   21.4241 H   0  0  0  0  0  0
  -18.0494  -26.0080   22.9179 H   0  0  0  0  0  0
  -19.7932  -30.7283   24.2287 H   0  0  0  0  0  0
  -17.5012  -31.6209   24.5224 H   0  0  0  0  0  0
  -15.5372  -30.2946   23.7650 H   0  0  0  0  0  0
  -15.8727  -28.0777   22.7086 H   0  0  0  0  0  0
  -24.5856  -30.7129   25.7805 H   0  0  0  0  0  0
  -24.8821  -32.2984   26.4750 H   0  0  0  0  0  0
  -25.7952  -30.9092   27.0286 H   0  0  0  0  0  0
  -26.2889  -29.6768   24.1191 H   0  0  0  0  0  0
  -27.3857  -29.7204   25.4818 H   0  0  0  0  0  0
  -27.8838  -30.4225   23.9584 H   0  0  0  0  0  0
  -27.2636  -33.3650   26.2045 H   0  0  0  0  0  0
  -28.3866  -32.6869   25.0361 H   0  0  0  0  0  0
  -28.0637  -31.8468   26.5484 H   0  0  0  0  0  0
  -28.2582  -38.0125   24.7489 H   0  0  0  0  0  0
  -28.1107  -36.2643   24.6279 H   0  0  0  0  0  0
  -27.2295  -37.1449   25.8864 H   0  0  0  0  0  0
  -20.9472  -29.8650   21.6776 H   0  0  0  0  0  0
  -26.0184  -38.2849   24.1405 H   0  0  0  0  0  0
  -27.0140  -17.8634   22.9341 H   0  0  0  0  0  0
  -27.6604  -20.1493   22.3938 H   0  0  0  0  0  0
  -28.0821  -15.9346   21.8882 H   0  0  0  0  0  0
  -30.4846  -18.6351   19.4960 H   0  0  0  0  0  0
  -30.0972  -24.9701   21.6156 H   0  0  0  0  0  0
  -29.9648  -21.1473   22.6879 H   0  0  0  0  0  0
  -31.3252  -20.8341   21.6405 H   0  0  0  0  0  0
  -29.0096  -22.2033   19.0164 H   0  0  0  0  0  0
  -25.9505  -20.2998   18.8153 H   0  0  0  0  0  0
  -27.6804  -20.1752   18.5040 H   0  0  0  0  0  0
  -26.7530  -21.4823   17.7852 H   0  0  0  0  0  0
  -26.9970  -24.6840   20.5846 H   0  0  0  0  0  0
  -27.7091  -24.6660   18.9772 H   0  0  0  0  0  0
  -26.5129  -22.6542   19.7610 H   0  0  0  0  0  0
  -26.7513  -21.3321   20.8142 H   0  0  0  0  0  0
  -30.4166  -16.1472   19.1118 H   0  0  0  0  0  0
  1 25  1  0  0  0
  1 30  2  0  0  0
  1 86  1  0  0  0
  2  3  1  0  0  0
  2 25  1  0  0  0
  2 88  1  0  0  0
  2 89  1  0  0  0
  3  4  1  0  0  0
  3 90  1  0  0  0
  3 91  1  0  0  0
  4  5  1  0  0  0
  4 92  1  0  0  0
  4 93  1  0  0  0
  5  6  1  0  0  0
  5 26  1  0  0  0
  5 94  1  0  0  0
  6 25  1  0  0  0
  6 95  1  0  0  0
  6 96  1  0  0  0
  7  8  2  0  0  0
  7 26  1  0  0  0
  7 29  1  0  0  0
  8  9  1  0  0  0
  8 22  1  0  0  0
  9 10  1  0  0  0
  9 27  2  0  0  0
 10 11  2  0  0  0
 10 15  1  0  0  0
 11 12  1  0  0  0
 11 97  1  0  0  0
 12 13  2  0  0  0
 12 98  1  0  0  0
 13 14  1  0  0  0
 13 31  1  0  0  0
 14 15  2  0  0  0
 14 99  1  0  0  0
 15100  1  0  0  0
 16 17  2  0  0  0
 16 21  1  0  0  0
 16 31  1  0  0  0
 17 18  1  0  0  0
 17101  1  0  0  0
 18 19  2  0  0  0
 18102  1  0  0  0
 19 20  1  0  0  0
 19 24  1  0  0  0
 20 21  2  0  0  0
 20103  1  0  0  0
 21 23  1  0  0  0
 22 28  1  0  0  0
 22 32  2  0  0  0
 26 27  1  0  0  0
 28104  1  0  0  0
 28105  1  0  0  0
 29106  1  0  0  0
 29107  1  0  0  0
 33 34  1  0  0  0
 33 66  1  0  0  0
 33 70  2  0  0  0
 34 36  1  0  0  0
 34 59  1  0  0  0
 34108  1  0  0  0
 35 44  2  0  0  0
 35 45  1  0  0  0
 35 68  1  0  0  0
 36 56  1  0  0  0
 36109  1  0  0  0
 37 39  1  0  0  0
 37 47  1  0  0  0
 37 66  1  0  0  0
 37110  1  0  0  0
 38 43  2  0  0  0
 38 46  1  0  0  0
 38 47  1  0  0  0
 39 64  1  0  0  0
 39 67  2  0  0  0
 40 52  1  0  0  0
 40 53  2  0  0  0
 40 58  1  0  0  0
 41111  1  0  0  0
 41112  1  0  0  0
 41113  1  0  0  0
 41 48  1  0  0  0
 42 43  1  0  0  0
 42 66  1  0  0  0
 42114  1  0  0  0
 42115  1  0  0  0
 43 44  1  0  0  0
 44116  1  0  0  0
 45 46  2  0  0  0
 45117  1  0  0  0
 46118  1  0  0  0
 47119  1  0  0  0
 47120  1  0  0  0
 48 56  1  0  0  0
 48 65  1  0  0  0
 48121  1  0  0  0
 49 50  1  0  0  0
 49 53  1  0  0  0
 49 64  1  0  0  0
 49122  1  0  0  0
 50 51  1  0  0  0
 50123  1  0  0  0
 50124  1  0  0  0
 51 52  1  0  0  0
 51125  1  0  0  0
 51126  1  0  0  0
 52127  1  0  0  0
 52128  1  0  0  0
 53 54  1  0  0  0
 54 55  2  0  0  0
 54129  1  0  0  0
 55 57  1  0  0  0
 55130  1  0  0  0
 56 69  2  0  0  0
 57 58  2  0  0  0
 57131  1  0  0  0
 58132  1  0  0  0
 59 60  1  0  0  0
 59 61  1  0  0  0
 59 62  1  0  0  0
 60133  1  0  0  0
 60134  1  0  0  0
 60135  1  0  0  0
 61136  1  0  0  0
 61137  1  0  0  0
 61138  1  0  0  0
 62139  1  0  0  0
 62140  1  0  0  0
 62141  1  0  0  0
 63 65  1  0  0  0
 63142  1  0  0  0
 63143  1  0  0  0
 63144  1  0  0  0
 64145  1  0  0  0
 65146  1  0  0  0
 68 83  1  0  0  0
 71 72  2  0  0  0
 71 73  1  0  0  0
 71147  1  0  0  0
 72 75  1  0  0  0
 72148  1  0  0  0
 73 76  2  0  0  0
 73149  1  0  0  0
 74 75  2  0  0  0
 74 76  1  0  0  0
 74150  1  0  0  0
 75 85  1  0  0  0
 76 86  1  0  0  0
 77 78  2  0  0  0
 77 79  1  0  0  0
 77151  1  0  0  0
 78 81  1  0  0  0
 78 83  1  0  0  0
 79 80  1  0  0  0
 79 87  2  0  0  0
 80 85  1  0  0  0
 80152  1  0  0  0
 80153  1  0  0  0
 81 84  1  0  0  0
 81 85  1  0  0  0
 81154  1  0  0  0
 82 84  1  0  0  0
 82155  1  0  0  0
 82156  1  0  0  0
 82157  1  0  0  0
 83158  1  0  0  0
 83159  1  0  0  0
 84160  1  0  0  0
 84161  1  0  0  0
 86162  1  0  0  0
M  ISO  4   1 100  68 101  83 101  86 100
M  END
> <chiral flag>
0

> <version>
0

> <s_m_source_file>
/data/baiqing/PycharmProjects/Reinvent-master-3.2/result/LINK_invent/BTK/process_docking_weight1_custom_product_contain_oxygen_bond_distance_aromatic_linkinvent_7_9_3/rearranged_h_0156.sdf

> <i_m_source_file_index>
6

> <r_mmod_Potential_Energy-OPLS-2005>
352.550201416016

> <r_mmod_Stretch_Energy-OPLS-2005>
130.114303588867

> <r_mmod_Bend_Energy-OPLS-2005>
203.577041625977

> <r_mmod_Torsional_Energy-OPLS-2005>
325.535278320312

> <r_mmod_Improper_Torsional_Energy-OPLS-2005>
32.3375549316406

> <r_mmod_Van_der_Waal_Energy-OPLS-2005>
143.92121887207

> <r_mmod_Electrostatic_Energy-OPLS-2005>
-366.246429443359

> <r_mmod_Solvation_Energy-OPLS-2005>
-219.743728637695

> <b_mmod_Minimization_Converged-OPLS-2005>
0

> <r_mmod_RMS_Derivative-OPLS-2005>
5.07220077514648

$$$$
6
                    3D
 Structure written by MMmdl.
156165  0  0  1  0            999 V2000
  -30.5450  -14.8240   20.3293 C   0  0  0  0  0  0
  -30.4256  -12.4428   19.5128 C   0  0  0  0  0  0
  -29.5331  -12.4421   18.2526 C   0  0  0  0  0  0
  -28.0418  -12.3450   18.6480 C   0  0  0  0  0  0
  -27.6434  -13.2221   19.8758 C   0  0  2  0  0  0
  -28.7001  -13.1844   20.9966 C   0  0  0  0  0  0
  -25.2556  -13.8167   20.5790 C   0  0  0  0  0  0
  -24.1809  -13.0418   20.9319 C   0  0  0  0  0  0
  -24.6386  -11.6891   20.8805 C   0  0  0  0  0  0
  -23.9025  -10.4296   21.0432 C   0  0  0  0  0  0
  -24.3583   -9.4196   21.9191 C   0  0  0  0  0  0
  -23.6309   -8.2187   22.0744 C   0  0  0  0  0  0
  -22.4289   -8.0236   21.3532 C   0  0  0  0  0  0
  -21.9899   -9.0207   20.4642 C   0  0  0  0  0  0
  -22.7209  -10.2109   20.3066 C   0  0  0  0  0  0
  -21.6807   -6.0722   22.5280 C   0  0  0  0  0  0
  -21.3957   -6.5624   23.8218 C   0  0  0  0  0  0
  -21.3695   -5.6810   24.9211 C   0  0  0  0  0  0
  -21.6069   -4.3059   24.7251 C   0  0  0  0  0  0
  -21.8814   -3.8123   23.4378 C   0  0  0  0  0  0
  -21.9174   -4.6944   22.3435 C   0  0  0  0  0  0
  -22.7798  -13.5189   21.2019 C   0  0  0  0  0  0
  -22.1651   -4.2133   21.0995 F   0  0  0  0  0  0
  -21.5706   -3.4561   25.7763 F   0  0  0  0  0  0
  -29.9676  -13.5651   20.3660 N   0  0  0  0  0  0
  -26.2962  -12.9315   20.3505 N   0  0  0  0  0  0
  -25.9321  -11.6458   20.5837 N   0  0  0  0  0  0
  -22.0414  -12.8146   22.0545 N   0  0  0  0  0  0
  -25.4400  -15.1884   20.4204 N   0  0  0  0  0  0
  -31.7735  -14.8902   20.2008 O   0  0  0  0  0  0
  -21.6645   -6.8831   21.4221 O   0  0  0  0  0  0
  -22.3460  -14.5533   20.6961 O   0  0  0  0  0  0
  -24.6446  -31.8509   23.2036 C   0  0  0  0  0  0
  -25.9237  -32.4743   23.8397 C   0  0  1  0  0  0
  -27.2033  -27.2333   20.0985 C   0  0  0  0  0  0
  -25.6013  -33.8553   24.2346 N   0  0  0  0  0  0
  -23.4446  -30.4864   21.5419 C   0  0  2  0  0  0
  -24.8802  -28.9285   20.1049 C   0  0  0  0  0  0
  -22.7552  -29.4631   22.4804 C   0  0  0  0  0  0
  -18.0290  -28.1415   22.8475 C   0  0  0  0  0  0
  -24.1495  -36.7245   23.2647 C   0  0  0  0  0  0
  -25.9978  -30.7576   21.3853 C   0  0  0  0  0  0
  -26.0593  -29.3821   20.7136 C   0  0  0  0  0  0
  -27.2263  -28.5487   20.6889 C   0  0  0  0  0  0
  -25.9996  -26.8539   19.4637 C   0  0  0  0  0  0
  -24.8542  -27.6740   19.4767 C   0  0  0  0  0  0
  -23.6712  -29.8433   20.1494 C   0  0  0  0  0  0
  -25.4117  -36.3068   24.0365 C   0  0  1  0  0  0
  -20.5920  -28.3766   23.1191 C   0  0  2  0  0  0
  -20.6767  -26.9451   22.5406 C   0  0  0  0  0  0
  -19.5733  -26.6385   21.5206 C   0  0  0  0  0  0
  -18.1920  -26.7959   22.1610 C   0  0  0  0  0  0
  -19.1551  -28.8896   23.2856 C   0  0  0  0  0  0
  -18.9467  -30.1475   23.8927 C   0  0  0  0  0  0
  -17.6464  -30.6599   24.0575 C   0  0  0  0  0  0
  -25.9071  -34.9438   23.5143 C   0  0  0  0  0  0
  -16.5365  -29.9134   23.6283 C   0  0  0  0  0  0
  -16.7284  -28.6545   23.0335 C   0  0  0  0  0  0
  -26.4597  -31.6539   25.0769 C   0  0  0  0  0  0
  -25.3830  -31.3643   26.1482 C   0  0  0  0  0  0
  -27.0437  -30.2957   24.6261 C   0  0  0  0  0  0
  -27.6190  -32.4233   25.7550 C   0  0  0  0  0  0
  -27.5579  -37.1788   24.8478 C   0  0  0  0  0  0
  -21.4242  -29.3140   22.3600 N   0  0  0  0  0  0
  -26.4279  -37.3774   23.9441 N   0  0  0  0  0  0
  -24.7180  -31.0483   22.0997 N   0  0  0  0  0  0
  -23.4224  -28.8068   23.2849 O   0  0  0  0  0  0
  -28.2808  -26.3077   20.1920 O   0  0  0  0  0  0
  -26.5600  -34.8916   22.4694 O   0  0  0  0  0  0
  -23.5568  -32.1343   23.7254 O   0  0  0  0  0  0
  -29.4694  -18.6233   20.7335 C   0  0  0  0  0  0
  -29.8349  -19.9325   18.6406 C   0  0  0  0  0  0
  -30.0182  -17.5525   18.5875 C   0  0  0  0  0  0
  -29.7958  -17.4063   19.9914 C   0  0  0  0  0  0
  -29.4444  -19.9325   20.0214 C   0  0  0  0  0  0
  -30.0795  -18.7591   17.8881 C   0  0  0  0  0  0
  -28.1933  -24.9357   19.7669 C   0  0  0  0  0  0
  -28.5671  -23.7791   20.4652 C   0  0  0  0  0  0
  -28.4969  -22.3778   19.8751 C   0  0  0  0  0  0
  -29.8858  -16.0822   18.3386 C   0  0  2  0  0  0
  -28.5976  -15.8385   17.5117 C   0  0  0  0  0  0
  -29.7431  -15.8927   19.8536 N   0  0  0  0  0  0
  -30.3238  -18.8171   16.5193 N   0  0  0  0  0  0
  -29.0649  -21.2902   20.5623 N   0  0  0  0  0  0
  -27.9114  -22.1731   18.8077 O   0  0  0  0  0  0
  -29.0151  -23.9164   21.7187 O   0  0  0  0  0  0
  -31.4843  -12.5105   19.2688 H   0  0  0  0  0  0
  -30.3069  -11.4878   20.0346 H   0  0  0  0  0  0
  -29.7926  -11.6062   17.5973 H   0  0  0  0  0  0
  -29.7376  -13.3360   17.6669 H   0  0  0  0  0  0
  -27.8619  -11.2988   18.8903 H   0  0  0  0  0  0
  -27.4015  -12.5757   17.7953 H   0  0  0  0  0  0
  -27.6144  -14.2470   19.5296 H   0  0  0  0  0  0
  -28.7478  -12.1919   21.4499 H   0  0  0  0  0  0
  -28.4549  -13.8704   21.8060 H   0  0  0  0  0  0
  -25.2720   -9.5648   22.4769 H   0  0  0  0  0  0
  -24.0037   -7.4553   22.7446 H   0  0  0  0  0  0
  -21.0831   -8.8706   19.8930 H   0  0  0  0  0  0
  -22.3681  -10.9637   19.6145 H   0  0  0  0  0  0
  -21.1870   -7.6098   23.9724 H   0  0  0  0  0  0
  -21.1565   -6.0542   25.9142 H   0  0  0  0  0  0
  -22.0553   -2.7568   23.2912 H   0  0  0  0  0  0
  -22.4014  -11.9675   22.4681 H   0  0  0  0  0  0
  -21.1045  -13.1160   22.2867 H   0  0  0  0  0  0
  -24.6811  -15.8570   20.5084 H   0  0  0  0  0  0
  -26.3286  -15.6063   20.1720 H   0  0  0  0  0  0
  -26.7314  -32.5359   23.1143 H   0  0  0  0  0  0
  -25.0247  -33.9732   25.0558 H   0  0  0  0  0  0
  -22.7465  -31.3155   21.4023 H   0  0  0  0  0  0
  -23.3781  -35.9539   23.3278 H   0  0  0  0  0  0
  -24.3591  -36.8866   22.2052 H   0  0  0  0  0  0
  -23.7198  -37.6437   23.6666 H   0  0  0  0  0  0
  -26.1548  -31.5206   20.6217 H   0  0  0  0  0  0
  -26.8705  -30.7892   22.0294 H   0  0  0  0  0  0
  -28.1428  -28.8941   21.1481 H   0  0  0  0  0  0
  -25.9102  -25.8969   18.9729 H   0  0  0  0  0  0
  -23.9468  -27.3323   19.0023 H   0  0  0  0  0  0
  -23.8588  -30.6450   19.4308 H   0  0  0  0  0  0
  -22.7779  -29.3327   19.7910 H   0  0  0  0  0  0
  -25.1289  -36.1952   25.0854 H   0  0  0  0  0  0
  -21.0040  -28.3380   24.1283 H   0  0  0  0  0  0
  -20.5593  -26.2411   23.3675 H   0  0  0  0  0  0
  -21.6640  -26.7403   22.1246 H   0  0  0  0  0  0
  -19.6889  -25.6291   21.1258 H   0  0  0  0  0  0
  -19.6650  -27.3166   20.6734 H   0  0  0  0  0  0
  -17.4201  -26.6726   21.4016 H   0  0  0  0  0  0
  -18.0265  -26.0115   22.9005 H   0  0  0  0  0  0
  -19.7952  -30.7265   24.2327 H   0  0  0  0  0  0
  -17.5036  -31.6254   24.5193 H   0  0  0  0  0  0
  -15.5382  -30.3055   23.7579 H   0  0  0  0  0  0
  -15.8683  -28.0887   22.7021 H   0  0  0  0  0  0
  -24.6155  -30.6823   25.7836 H   0  0  0  0  0  0
  -24.8856  -32.2741   26.4825 H   0  0  0  0  0  0
  -25.8180  -30.8958   27.0316 H   0  0  0  0  0  0
  -26.3013  -29.6683   24.1322 H   0  0  0  0  0  0
  -27.4139  -29.7261   25.4789 H   0  0  0  0  0  0
  -27.8889  -30.4239   23.9501 H   0  0  0  0  0  0
  -27.2922  -33.3591   26.2103 H   0  0  0  0  0  0
  -28.4042  -32.6647   25.0375 H   0  0  0  0  0  0
  -28.0813  -31.8332   26.5482 H   0  0  0  0  0  0
  -28.2596  -38.0101   24.7551 H   0  0  0  0  0  0
  -28.1082  -36.2613   24.6271 H   0  0  0  0  0  0
  -27.2295  -37.1404   25.8891 H   0  0  0  0  0  0
  -20.9413  -29.9065   21.6993 H   0  0  0  0  0  0
  -26.0147  -38.2846   24.1468 H   0  0  0  0  0  0
  -29.1558  -18.5582   21.7669 H   0  0  0  0  0  0
  -29.8884  -20.8674   18.1037 H   0  0  0  0  0  0
  -27.8243  -24.8729   18.7487 H   0  0  0  0  0  0
  -30.8065  -15.6882   17.8943 H   0  0  0  0  0  0
  -28.4252  -16.6772   16.8346 H   0  0  0  0  0  0
  -27.6798  -15.7615   18.0953 H   0  0  0  0  0  0
  -28.6670  -14.9649   16.8629 H   0  0  0  0  0  0
  -30.0737  -19.6642   16.0197 H   0  0  0  0  0  0
  -30.1823  -17.9861   15.9565 H   0  0  0  0  0  0
  -29.3381  -21.4981   21.5146 H   0  0  0  0  0  0
  -28.9568  -24.8399   21.9322 H   0  0  0  0  0  0
  1 25  1  0  0  0
  1 30  2  0  0  0
  1 82  1  0  0  0
  2  3  1  0  0  0
  2 25  1  0  0  0
  2 87  1  0  0  0
  2 88  1  0  0  0
  3  4  1  0  0  0
  3 89  1  0  0  0
  3 90  1  0  0  0
  4  5  1  0  0  0
  4 91  1  0  0  0
  4 92  1  0  0  0
  5  6  1  0  0  0
  5 26  1  0  0  0
  5 93  1  0  0  0
  6 25  1  0  0  0
  6 94  1  0  0  0
  6 95  1  0  0  0
  7  8  2  0  0  0
  7 26  1  0  0  0
  7 29  1  0  0  0
  8  9  1  0  0  0
  8 22  1  0  0  0
  9 10  1  0  0  0
  9 27  2  0  0  0
 10 11  2  0  0  0
 10 15  1  0  0  0
 11 12  1  0  0  0
 11 96  1  0  0  0
 12 13  2  0  0  0
 12 97  1  0  0  0
 13 14  1  0  0  0
 13 31  1  0  0  0
 14 15  2  0  0  0
 14 98  1  0  0  0
 15 99  1  0  0  0
 16 17  2  0  0  0
 16 21  1  0  0  0
 16 31  1  0  0  0
 17 18  1  0  0  0
 17100  1  0  0  0
 18 19  2  0  0  0
 18101  1  0  0  0
 19 20  1  0  0  0
 19 24  1  0  0  0
 20 21  2  0  0  0
 20102  1  0  0  0
 21 23  1  0  0  0
 22 28  1  0  0  0
 22 32  2  0  0  0
 26 27  1  0  0  0
 28103  1  0  0  0
 28104  1  0  0  0
 29105  1  0  0  0
 29106  1  0  0  0
 33 34  1  0  0  0
 33 66  1  0  0  0
 33 70  2  0  0  0
 34 36  1  0  0  0
 34 59  1  0  0  0
 34107  1  0  0  0
 35 44  2  0  0  0
 35 45  1  0  0  0
 35 68  1  0  0  0
 36 56  1  0  0  0
 36108  1  0  0  0
 37 39  1  0  0  0
 37 47  1  0  0  0
 37 66  1  0  0  0
 37109  1  0  0  0
 38 43  2  0  0  0
 38 46  1  0  0  0
 38 47  1  0  0  0
 39 64  1  0  0  0
 39 67  2  0  0  0
 40 52  1  0  0  0
 40 53  2  0  0  0
 40 58  1  0  0  0
 41110  1  0  0  0
 41111  1  0  0  0
 41112  1  0  0  0
 41 48  1  0  0  0
 42 43  1  0  0  0
 42 66  1  0  0  0
 42113  1  0  0  0
 42114  1  0  0  0
 43 44  1  0  0  0
 44115  1  0  0  0
 45 46  2  0  0  0
 45116  1  0  0  0
 46117  1  0  0  0
 47118  1  0  0  0
 47119  1  0  0  0
 48 56  1  0  0  0
 48 65  1  0  0  0
 48120  1  0  0  0
 49 50  1  0  0  0
 49 53  1  0  0  0
 49 64  1  0  0  0
 49121  1  0  0  0
 50 51  1  0  0  0
 50122  1  0  0  0
 50123  1  0  0  0
 51 52  1  0  0  0
 51124  1  0  0  0
 51125  1  0  0  0
 52126  1  0  0  0
 52127  1  0  0  0
 53 54  1  0  0  0
 54 55  2  0  0  0
 54128  1  0  0  0
 55 57  1  0  0  0
 55129  1  0  0  0
 56 69  2  0  0  0
 57 58  2  0  0  0
 57130  1  0  0  0
 58131  1  0  0  0
 59 60  1  0  0  0
 59 61  1  0  0  0
 59 62  1  0  0  0
 60132  1  0  0  0
 60133  1  0  0  0
 60134  1  0  0  0
 61135  1  0  0  0
 61136  1  0  0  0
 61137  1  0  0  0
 62138  1  0  0  0
 62139  1  0  0  0
 62140  1  0  0  0
 63 65  1  0  0  0
 63141  1  0  0  0
 63142  1  0  0  0
 63143  1  0  0  0
 64144  1  0  0  0
 65145  1  0  0  0
 68 77  1  0  0  0
 71 74  2  0  0  0
 71 75  1  0  0  0
 71146  1  0  0  0
 72 75  2  0  0  0
 72 76  1  0  0  0
 72147  1  0  0  0
 73 74  1  0  0  0
 73 76  2  0  0  0
 73 80  1  0  0  0
 74 82  1  0  0  0
 75 84  1  0  0  0
 76 83  1  0  0  0
 77 78  2  0  0  0
 77148  1  0  0  0
 78 79  1  0  0  0
 78 86  1  0  0  0
 79 84  1  0  0  0
 79 85  2  0  0  0
 80 81  1  0  0  0
 80 82  1  0  0  0
 80149  1  0  0  0
 81150  1  0  0  0
 81151  1  0  0  0
 81152  1  0  0  0
 83153  1  0  0  0
 83154  1  0  0  0
 84155  1  0  0  0
 86156  1  0  0  0
M  ISO  4   1 100  68 101  77 101  82 100
M  END
> <chiral flag>
0

> <version>
0

> <s_m_source_file>
/data/baiqing/PycharmProjects/Reinvent-master-3.2/result/LINK_invent/BTK/process_docking_weight1_custom_product_contain_oxygen_bond_distance_aromatic_linkinvent_7_9_3/rearranged_h_0156.sdf

> <i_m_source_file_index>
7

> <r_mmod_Potential_Energy-OPLS-2005>
861.891967773438

> <r_mmod_Stretch_Energy-OPLS-2005>
187.457305908203

> <r_mmod_Bend_Energy-OPLS-2005>
592.095825195312

> <r_mmod_Torsional_Energy-OPLS-2005>
330.017913818359

> <r_mmod_Improper_Torsional_Energy-OPLS-2005>
37.7294845581055

> <r_mmod_Van_der_Waal_Energy-OPLS-2005>
141.634552001953

> <r_mmod_Electrostatic_Energy-OPLS-2005>
-327.363525390625

> <r_mmod_Solvation_Energy-OPLS-2005>
-223.049652099609

> <b_mmod_Minimization_Converged-OPLS-2005>
0

> <r_mmod_RMS_Derivative-OPLS-2005>
8.74693775177002

$$$$
7
                    3D
 Structure written by MMmdl.
153162  0  0  1  0            999 V2000
  -30.5813  -14.7617   20.4070 C   0  0  0  0  0  0
  -30.4320  -12.4520   19.4636 C   0  0  0  0  0  0
  -29.5074  -12.5126   18.2269 C   0  0  0  0  0  0
  -28.0314  -12.3395   18.6395 C   0  0  0  0  0  0
  -27.6403  -13.2277   19.8509 C   0  0  2  0  0  0
  -28.6928  -13.1505   20.9809 C   0  0  0  0  0  0
  -25.2494  -13.8183   20.5705 C   0  0  0  0  0  0
  -24.1810  -13.0432   20.9226 C   0  0  0  0  0  0
  -24.6384  -11.6905   20.8772 C   0  0  0  0  0  0
  -23.9058  -10.4282   21.0394 C   0  0  0  0  0  0
  -24.3609   -9.4198   21.9170 C   0  0  0  0  0  0
  -23.6288   -8.2248   22.0754 C   0  0  0  0  0  0
  -22.4264   -8.0271   21.3551 C   0  0  0  0  0  0
  -21.9903   -9.0240   20.4658 C   0  0  0  0  0  0
  -22.7231  -10.2121   20.3060 C   0  0  0  0  0  0
  -21.6839   -6.0731   22.5279 C   0  0  0  0  0  0
  -21.4007   -6.5631   23.8220 C   0  0  0  0  0  0
  -21.3662   -5.6787   24.9178 C   0  0  0  0  0  0
  -21.6041   -4.3050   24.7224 C   0  0  0  0  0  0
  -21.8811   -3.8149   23.4347 C   0  0  0  0  0  0
  -21.9195   -4.6970   22.3409 C   0  0  0  0  0  0
  -22.7818  -13.5213   21.1870 C   0  0  0  0  0  0
  -22.1640   -4.2159   21.0988 F   0  0  0  0  0  0
  -21.5640   -3.4529   25.7738 F   0  0  0  0  0  0
  -29.9879  -13.5161   20.3925 N   0  0  0  0  0  0
  -26.2925  -12.9384   20.3304 N   0  0  0  0  0  0
  -25.9311  -11.6535   20.5780 N   0  0  0  0  0  0
  -22.0444  -12.8244   22.0432 N   0  0  0  0  0  0
  -25.4144  -15.1906   20.4097 N   0  0  0  0  0  0
  -31.7798  -14.8579   20.1216 O   0  0  0  0  0  0
  -21.6629   -6.8870   21.4245 O   0  0  0  0  0  0
  -22.3517  -14.5523   20.6687 O   0  0  0  0  0  0
  -24.6313  -31.8531   23.1977 C   0  0  0  0  0  0
  -25.9124  -32.4738   23.8321 C   0  0  1  0  0  0
  -27.1989  -27.2503   20.1454 C   0  0  0  0  0  0
  -25.5927  -33.8549   24.2248 N   0  0  0  0  0  0
  -23.4273  -30.4770   21.5392 C   0  0  2  0  0  0
  -24.8727  -28.9217   20.1114 C   0  0  0  0  0  0
  -22.7510  -29.4574   22.4872 C   0  0  0  0  0  0
  -18.0305  -28.1387   22.8483 C   0  0  0  0  0  0
  -24.1485  -36.7281   23.2636 C   0  0  0  0  0  0
  -25.9736  -30.7646   21.3774 C   0  0  0  0  0  0
  -26.0426  -29.3843   20.7262 C   0  0  0  0  0  0
  -27.2125  -28.5606   20.7334 C   0  0  0  0  0  0
  -26.0143  -26.8577   19.4924 C   0  0  0  0  0  0
  -24.8643  -27.6686   19.4766 C   0  0  0  0  0  0
  -23.6467  -29.8115   20.1554 C   0  0  0  0  0  0
  -25.4112  -36.3060   24.0320 C   0  0  1  0  0  0
  -20.5902  -28.3702   23.1272 C   0  0  2  0  0  0
  -20.6779  -26.9405   22.5416 C   0  0  0  0  0  0
  -19.5760  -26.6379   21.5212 C   0  0  0  0  0  0
  -18.1942  -26.7933   22.1621 C   0  0  0  0  0  0
  -19.1556  -28.8866   23.2875 C   0  0  0  0  0  0
  -18.9464  -30.1463   23.8881 C   0  0  0  0  0  0
  -17.6456  -30.6576   24.0560 C   0  0  0  0  0  0
  -25.9055  -34.9431   23.5093 C   0  0  0  0  0  0
  -16.5351  -29.9066   23.6331 C   0  0  0  0  0  0
  -16.7288  -28.6497   23.0344 C   0  0  0  0  0  0
  -26.4490  -31.6579   25.0718 C   0  0  0  0  0  0
  -25.3731  -31.3748   26.1457 C   0  0  0  0  0  0
  -27.0331  -30.2991   24.6223 C   0  0  0  0  0  0
  -27.6046  -32.4320   25.7492 C   0  0  0  0  0  0
  -27.5571  -37.1797   24.8462 C   0  0  0  0  0  0
  -21.4208  -29.3058   22.3659 N   0  0  0  0  0  0
  -26.4285  -37.3772   23.9406 N   0  0  0  0  0  0
  -24.6966  -31.0489   22.0955 N   0  0  0  0  0  0
  -23.4225  -28.8117   23.2968 O   0  0  0  0  0  0
  -28.2700  -26.3332   20.1767 O   0  0  0  0  0  0
  -26.5622  -34.8912   22.4655 O   0  0  0  0  0  0
  -23.5477  -32.1356   23.7276 O   0  0  0  0  0  0
  -28.9084  -18.3500   20.2548 C   0  0  0  0  0  0
  -29.5180  -19.5844   19.9993 C   0  0  0  0  0  0
  -29.9466  -17.3254   20.3089 C   0  0  0  0  0  0
  -27.7312  -21.3327   19.0067 C   0  0  0  0  0  0
  -27.4947  -22.8846   18.9790 C   0  0  0  0  0  0
  -29.1143  -22.3132   20.6627 C   0  0  0  0  0  0
  -29.1061  -21.0834   19.6509 C   0  0  1  0  0  0
  -28.5371  -23.5915   19.8879 C   0  0  2  0  0  0
  -28.0042  -24.9262   20.6572 C   0  0  0  0  0  0
  -31.1175  -17.9230   20.1216 N   0  0  0  0  0  0
  -29.7459  -15.8688   20.5275 N   0  0  0  0  0  0
  -30.8626  -19.3055   19.9538 O   0  0  0  0  0  0
  -31.4734  -12.5741   19.1621 H   0  0  0  0  0  0
  -30.3751  -11.4734   19.9440 H   0  0  0  0  0  0
  -29.7918  -11.7466   17.5056 H   0  0  0  0  0  0
  -29.6370  -13.4715   17.7216 H   0  0  0  0  0  0
  -27.8811  -11.2872   18.8892 H   0  0  0  0  0  0
  -27.3746  -12.5422   17.7924 H   0  0  0  0  0  0
  -27.6325  -14.2516   19.4770 H   0  0  0  0  0  0
  -28.7382  -12.1407   21.3942 H   0  0  0  0  0  0
  -28.4340  -13.8085   21.8121 H   0  0  0  0  0  0
  -25.2731   -9.5685   22.4766 H   0  0  0  0  0  0
  -23.9993   -7.4639   22.7457 H   0  0  0  0  0  0
  -21.0834   -8.8737   19.8963 H   0  0  0  0  0  0
  -22.3644  -10.9658   19.6195 H   0  0  0  0  0  0
  -21.1984   -7.6132   23.9731 H   0  0  0  0  0  0
  -21.1492   -6.0507   25.9081 H   0  0  0  0  0  0
  -22.0606   -2.7615   23.2840 H   0  0  0  0  0  0
  -22.4001  -11.9905   22.4877 H   0  0  0  0  0  0
  -21.1063  -13.1305   22.2621 H   0  0  0  0  0  0
  -24.6333  -15.8296   20.5152 H   0  0  0  0  0  0
  -26.2418  -15.6381   20.0373 H   0  0  0  0  0  0
  -26.7201  -32.5365   23.1072 H   0  0  0  0  0  0
  -25.0109  -33.9722   25.0418 H   0  0  0  0  0  0
  -22.7241  -31.2975   21.3899 H   0  0  0  0  0  0
  -23.3744  -35.9615   23.3296 H   0  0  0  0  0  0
  -24.3582  -36.8914   22.2052 H   0  0  0  0  0  0
  -23.7235  -37.6486   23.6665 H   0  0  0  0  0  0
  -26.1160  -31.5176   20.6025 H   0  0  0  0  0  0
  -26.8539  -30.8162   22.0087 H   0  0  0  0  0  0
  -28.1046  -28.9010   21.2410 H   0  0  0  0  0  0
  -25.9668  -25.8945   19.0052 H   0  0  0  0  0  0
  -23.9725  -27.3135   18.9795 H   0  0  0  0  0  0
  -23.7711  -30.5830   19.3944 H   0  0  0  0  0  0
  -22.7675  -29.2431   19.8513 H   0  0  0  0  0  0
  -25.1295  -36.1906   25.0816 H   0  0  0  0  0  0
  -21.0007  -28.3245   24.1384 H   0  0  0  0  0  0
  -20.5654  -26.2289   23.3617 H   0  0  0  0  0  0
  -21.6642  -26.7404   22.1200 H   0  0  0  0  0  0
  -19.6895  -25.6296   21.1235 H   0  0  0  0  0  0
  -19.6676  -27.3194   20.6741 H   0  0  0  0  0  0
  -17.4200  -26.6688   21.4025 H   0  0  0  0  0  0
  -18.0318  -26.0073   22.9014 H   0  0  0  0  0  0
  -19.7940  -30.7300   24.2207 H   0  0  0  0  0  0
  -17.5012  -31.6256   24.5179 H   0  0  0  0  0  0
  -15.5360  -30.2965   23.7680 H   0  0  0  0  0  0
  -15.8684  -28.0833   22.7045 H   0  0  0  0  0  0
  -24.5893  -30.7092   25.7803 H   0  0  0  0  0  0
  -24.8936  -32.2932   26.4848 H   0  0  0  0  0  0
  -25.8065  -30.8949   27.0242 H   0  0  0  0  0  0
  -26.2929  -29.6745   24.1222 H   0  0  0  0  0  0
  -27.3974  -29.7236   25.4737 H   0  0  0  0  0  0
  -27.8811  -30.4246   23.9503 H   0  0  0  0  0  0
  -27.2647  -33.3624   26.2061 H   0  0  0  0  0  0
  -28.3872  -32.6887   25.0331 H   0  0  0  0  0  0
  -28.0708  -31.8449   26.5429 H   0  0  0  0  0  0
  -28.2592  -38.0094   24.7503 H   0  0  0  0  0  0
  -28.1069  -36.2623   24.6288 H   0  0  0  0  0  0
  -27.2299  -37.1448   25.8874 H   0  0  0  0  0  0
  -20.9367  -29.8809   21.6912 H   0  0  0  0  0  0
  -26.0146  -38.2841   24.1418 H   0  0  0  0  0  0
  -27.8443  -18.1972   20.3496 H   0  0  0  0  0  0
  -27.6730  -20.8935   18.0092 H   0  0  0  0  0  0
  -26.9552  -20.8524   19.6043 H   0  0  0  0  0  0
  -26.4746  -23.1060   19.2952 H   0  0  0  0  0  0
  -27.5905  -23.2682   17.9609 H   0  0  0  0  0  0
  -30.1106  -22.5020   21.0626 H   0  0  0  0  0  0
  -28.4725  -22.0788   21.5130 H   0  0  0  0  0  0
  -29.8232  -21.3731   18.8801 H   0  0  0  0  0  0
  -29.3517  -23.9328   19.2489 H   0  0  0  0  0  0
  -28.4258  -24.9001   21.6629 H   0  0  0  0  0  0
  -26.9354  -24.7951   20.8458 H   0  0  0  0  0  0
  -28.7965  -15.6208   20.7478 H   0  0  0  0  0  0
  1 25  1  0  0  0
  1 30  2  0  0  0
  1 81  1  0  0  0
  2  3  1  0  0  0
  2 25  1  0  0  0
  2 83  1  0  0  0
  2 84  1  0  0  0
  3  4  1  0  0  0
  3 85  1  0  0  0
  3 86  1  0  0  0
  4  5  1  0  0  0
  4 87  1  0  0  0
  4 88  1  0  0  0
  5  6  1  0  0  0
  5 26  1  0  0  0
  5 89  1  0  0  0
  6 25  1  0  0  0
  6 90  1  0  0  0
  6 91  1  0  0  0
  7  8  2  0  0  0
  7 26  1  0  0  0
  7 29  1  0  0  0
  8  9  1  0  0  0
  8 22  1  0  0  0
  9 10  1  0  0  0
  9 27  2  0  0  0
 10 11  2  0  0  0
 10 15  1  0  0  0
 11 12  1  0  0  0
 11 92  1  0  0  0
 12 13  2  0  0  0
 12 93  1  0  0  0
 13 14  1  0  0  0
 13 31  1  0  0  0
 14 15  2  0  0  0
 14 94  1  0  0  0
 15 95  1  0  0  0
 16 17  2  0  0  0
 16 21  1  0  0  0
 16 31  1  0  0  0
 17 18  1  0  0  0
 17 96  1  0  0  0
 18 19  2  0  0  0
 18 97  1  0  0  0
 19 20  1  0  0  0
 19 24  1  0  0  0
 20 21  2  0  0  0
 20 98  1  0  0  0
 21 23  1  0  0  0
 22 28  1  0  0  0
 22 32  2  0  0  0
 26 27  1  0  0  0
 28 99  1  0  0  0
 28100  1  0  0  0
 29101  1  0  0  0
 29102  1  0  0  0
 33 34  1  0  0  0
 33 66  1  0  0  0
 33 70  2  0  0  0
 34 36  1  0  0  0
 34 59  1  0  0  0
 34103  1  0  0  0
 35 44  2  0  0  0
 35 45  1  0  0  0
 35 68  1  0  0  0
 36 56  1  0  0  0
 36104  1  0  0  0
 37 39  1  0  0  0
 37 47  1  0  0  0
 37 66  1  0  0  0
 37105  1  0  0  0
 38 43  2  0  0  0
 38 46  1  0  0  0
 38 47  1  0  0  0
 39 64  1  0  0  0
 39 67  2  0  0  0
 40 52  1  0  0  0
 40 53  2  0  0  0
 40 58  1  0  0  0
 41106  1  0  0  0
 41107  1  0  0  0
 41108  1  0  0  0
 41 48  1  0  0  0
 42 43  1  0  0  0
 42 66  1  0  0  0
 42109  1  0  0  0
 42110  1  0  0  0
 43 44  1  0  0  0
 44111  1  0  0  0
 45 46  2  0  0  0
 45112  1  0  0  0
 46113  1  0  0  0
 47114  1  0  0  0
 47115  1  0  0  0
 48 56  1  0  0  0
 48 65  1  0  0  0
 48116  1  0  0  0
 49 50  1  0  0  0
 49 53  1  0  0  0
 49 64  1  0  0  0
 49117  1  0  0  0
 50 51  1  0  0  0
 50118  1  0  0  0
 50119  1  0  0  0
 51 52  1  0  0  0
 51120  1  0  0  0
 51121  1  0  0  0
 52122  1  0  0  0
 52123  1  0  0  0
 53 54  1  0  0  0
 54 55  2  0  0  0
 54124  1  0  0  0
 55 57  1  0  0  0
 55125  1  0  0  0
 56 69  2  0  0  0
 57 58  2  0  0  0
 57126  1  0  0  0
 58127  1  0  0  0
 59 60  1  0  0  0
 59 61  1  0  0  0
 59 62  1  0  0  0
 60128  1  0  0  0
 60129  1  0  0  0
 60130  1  0  0  0
 61131  1  0  0  0
 61132  1  0  0  0
 61133  1  0  0  0
 62134  1  0  0  0
 62135  1  0  0  0
 62136  1  0  0  0
 63 65  1  0  0  0
 63137  1  0  0  0
 63138  1  0  0  0
 63139  1  0  0  0
 64140  1  0  0  0
 65141  1  0  0  0
 68 79  1  0  0  0
 71 72  2  0  0  0
 71 73  1  0  0  0
 71142  1  0  0  0
 72 82  1  0  0  0
 72 77  1  0  0  0
 73 80  2  0  0  0
 73 81  1  0  0  0
 74 75  1  0  0  0
 74 77  1  0  0  0
 74143  1  0  0  0
 74144  1  0  0  0
 75 78  1  0  0  0
 75145  1  0  0  0
 75146  1  0  0  0
 76 77  1  0  0  0
 76 78  1  0  0  0
 76147  1  0  0  0
 76148  1  0  0  0
 77149  1  0  0  0
 78 79  1  0  0  0
 78150  1  0  0  0
 79151  1  0  0  0
 79152  1  0  0  0
 80 82  1  0  0  0
 81153  1  0  0  0
M  ISO  4   1 100  68 101  79 101  81 100
M  END
> <chiral flag>
0

> <version>
0

> <s_m_source_file>
/data/baiqing/PycharmProjects/Reinvent-master-3.2/result/LINK_invent/BTK/process_docking_weight1_custom_product_contain_oxygen_bond_distance_aromatic_linkinvent_7_9_3/rearranged_h_0156.sdf

> <i_m_source_file_index>
8

> <r_mmod_Potential_Energy-OPLS-2005>
201.415023803711

> <r_mmod_Stretch_Energy-OPLS-2005>
116.884750366211

> <r_mmod_Bend_Energy-OPLS-2005>
210.111083984375

> <r_mmod_Torsional_Energy-OPLS-2005>
279.923797607422

> <r_mmod_Improper_Torsional_Energy-OPLS-2005>
5.734299659729

> <r_mmod_Van_der_Waal_Energy-OPLS-2005>
112.388580322266

> <r_mmod_Electrostatic_Energy-OPLS-2005>
-381.477813720703

> <r_mmod_Solvation_Energy-OPLS-2005>
-236.528549194336

> <b_mmod_Minimization_Converged-OPLS-2005>
0

> <r_mmod_RMS_Derivative-OPLS-2005>
4.44710493087769

$$$$
8
                    3D
 Structure written by MMmdl.
147155  0  0  1  0            999 V2000
  -30.5281  -14.8638   20.4258 C   0  0  0  0  0  0
  -30.4300  -12.5340   19.4872 C   0  0  0  0  0  0
  -29.5111  -12.5261   18.2435 C   0  0  0  0  0  0
  -28.0395  -12.3307   18.6534 C   0  0  0  0  0  0
  -27.6273  -13.2375   19.8437 C   0  0  2  0  0  0
  -28.6656  -13.2113   20.9834 C   0  0  0  0  0  0
  -25.2447  -13.8189   20.5767 C   0  0  0  0  0  0
  -24.1741  -13.0426   20.9231 C   0  0  0  0  0  0
  -24.6336  -11.6901   20.8733 C   0  0  0  0  0  0
  -23.9027  -10.4277   21.0410 C   0  0  0  0  0  0
  -24.3586   -9.4197   21.9192 C   0  0  0  0  0  0
  -23.6281   -8.2224   22.0750 C   0  0  0  0  0  0
  -22.4258   -8.0257   21.3551 C   0  0  0  0  0  0
  -21.9897   -9.0217   20.4640 C   0  0  0  0  0  0
  -22.7196  -10.2113   20.3063 C   0  0  0  0  0  0
  -21.6851   -6.0723   22.5282 C   0  0  0  0  0  0
  -21.3993   -6.5632   23.8205 C   0  0  0  0  0  0
  -21.3674   -5.6791   24.9179 C   0  0  0  0  0  0
  -21.6044   -4.3053   24.7234 C   0  0  0  0  0  0
  -21.8808   -3.8137   23.4345 C   0  0  0  0  0  0
  -21.9177   -4.6950   22.3408 C   0  0  0  0  0  0
  -22.7760  -13.5208   21.1869 C   0  0  0  0  0  0
  -22.1670   -4.2139   21.0982 F   0  0  0  0  0  0
  -21.5646   -3.4539   25.7746 F   0  0  0  0  0  0
  -29.9527  -13.6048   20.3991 N   0  0  0  0  0  0
  -26.2836  -12.9403   20.3242 N   0  0  0  0  0  0
  -25.9256  -11.6527   20.5686 N   0  0  0  0  0  0
  -22.0392  -12.8222   22.0421 N   0  0  0  0  0  0
  -25.4140  -15.1934   20.4312 N   0  0  0  0  0  0
  -31.7201  -14.9643   20.1071 O   0  0  0  0  0  0
  -21.6636   -6.8849   21.4235 O   0  0  0  0  0  0
  -22.3462  -14.5529   20.6702 O   0  0  0  0  0  0
  -24.6382  -31.8489   23.1940 C   0  0  0  0  0  0
  -25.9196  -32.4708   23.8285 C   0  0  1  0  0  0
  -27.1930  -27.1790   20.1569 C   0  0  0  0  0  0
  -25.5973  -33.8509   24.2209 N   0  0  0  0  0  0
  -23.4370  -30.4744   21.5360 C   0  0  2  0  0  0
  -24.8863  -28.9164   20.1007 C   0  0  0  0  0  0
  -22.7533  -29.4572   22.4833 C   0  0  0  0  0  0
  -18.0307  -28.1394   22.8482 C   0  0  0  0  0  0
  -24.1500  -36.7265   23.2640 C   0  0  0  0  0  0
  -25.9905  -30.7315   21.3921 C   0  0  0  0  0  0
  -26.0588  -29.3486   20.7356 C   0  0  0  0  0  0
  -27.2167  -28.4896   20.7638 C   0  0  0  0  0  0
  -26.0081  -26.8461   19.4667 C   0  0  0  0  0  0
  -24.8698  -27.6744   19.4498 C   0  0  0  0  0  0
  -23.6634  -29.8164   20.1484 C   0  0  0  0  0  0
  -25.4132  -36.3026   24.0308 C   0  0  1  0  0  0
  -20.5916  -28.3722   23.1226 C   0  0  2  0  0  0
  -20.6797  -26.9422   22.5387 C   0  0  0  0  0  0
  -19.5777  -26.6382   21.5199 C   0  0  0  0  0  0
  -18.1956  -26.7931   22.1620 C   0  0  0  0  0  0
  -19.1560  -28.8873   23.2857 C   0  0  0  0  0  0
  -18.9483  -30.1468   23.8881 C   0  0  0  0  0  0
  -17.6483  -30.6590   24.0562 C   0  0  0  0  0  0
  -25.9068  -34.9401   23.5048 C   0  0  0  0  0  0
  -16.5376  -29.9083   23.6332 C   0  0  0  0  0  0
  -16.7292  -28.6501   23.0345 C   0  0  0  0  0  0
  -26.4532  -31.6555   25.0701 C   0  0  0  0  0  0
  -25.3730  -31.3738   26.1403 C   0  0  0  0  0  0
  -27.0404  -30.2957   24.6262 C   0  0  0  0  0  0
  -27.6065  -32.4302   25.7490 C   0  0  0  0  0  0
  -27.5564  -37.1815   24.8477 C   0  0  0  0  0  0
  -21.4229  -29.3060   22.3600 N   0  0  0  0  0  0
  -26.4305  -37.3729   23.9371 N   0  0  0  0  0  0
  -24.7074  -31.0382   22.0956 N   0  0  0  0  0  0
  -23.4195  -28.8102   23.2948 O   0  0  0  0  0  0
  -28.1679  -26.1361   20.2498 O   0  0  0  0  0  0
  -26.5640  -34.8891   22.4619 O   0  0  0  0  0  0
  -23.5521  -32.1355   23.7202 O   0  0  0  0  0  0
  -28.9773  -18.5945   20.7383 C   0  0  0  0  0  0
  -30.9484  -17.9921   19.6640 C   0  0  0  0  0  0
  -29.8882  -17.4741   20.3640 C   0  0  0  0  0  0
  -29.3455  -19.9201   20.3689 C   0  0  0  0  0  0
  -27.6973  -24.9133   20.8616 C   0  0  0  0  0  0
  -27.9256  -23.5126   20.9043 C   0  0  0  0  0  0
  -28.8997  -22.5221   20.2681 C   0  0  0  0  0  0
  -29.7126  -15.9949   20.6341 N   0  0  0  0  0  0
  -28.7012  -21.1687   20.6231 N   0  0  0  0  0  0
  -29.7980  -22.8567   19.4959 O   0  0  0  0  0  0
  -27.0591  -22.8834   21.7221 O   0  0  0  0  0  0
  -30.8679  -19.7544   19.4984 S   0  0  0  0  0  0
  -31.4678  -12.6875   19.1848 H   0  0  0  0  0  0
  -30.4047  -11.5700   19.9965 H   0  0  0  0  0  0
  -29.8196  -11.7386   17.5533 H   0  0  0  0  0  0
  -29.6095  -13.4647   17.6956 H   0  0  0  0  0  0
  -27.9143  -11.2819   18.9247 H   0  0  0  0  0  0
  -27.3816  -12.5025   17.7994 H   0  0  0  0  0  0
  -27.6041  -14.2513   19.4430 H   0  0  0  0  0  0
  -28.7288  -12.2214   21.4367 H   0  0  0  0  0  0
  -28.3722  -13.8938   21.7823 H   0  0  0  0  0  0
  -25.2731   -9.5697   22.4769 H   0  0  0  0  0  0
  -24.0003   -7.4621   22.7472 H   0  0  0  0  0  0
  -21.0833   -8.8688   19.8958 H   0  0  0  0  0  0
  -22.3624  -10.9637   19.6178 H   0  0  0  0  0  0
  -21.1972   -7.6136   23.9703 H   0  0  0  0  0  0
  -21.1541   -6.0536   25.9091 H   0  0  0  0  0  0
  -22.0576   -2.7597   23.2847 H   0  0  0  0  0  0
  -22.4027  -11.9904   22.4838 H   0  0  0  0  0  0
  -21.1006  -13.1250   22.2600 H   0  0  0  0  0  0
  -24.6403  -15.8389   20.5452 H   0  0  0  0  0  0
  -26.2590  -15.6419   20.1061 H   0  0  0  0  0  0
  -26.7246  -32.5326   23.1001 H   0  0  0  0  0  0
  -25.0132  -33.9626   25.0359 H   0  0  0  0  0  0
  -22.7381  -31.3004   21.3910 H   0  0  0  0  0  0
  -23.3721  -35.9646   23.3359 H   0  0  0  0  0  0
  -24.3555  -36.8831   22.2039 H   0  0  0  0  0  0
  -23.7319  -37.6509   23.6638 H   0  0  0  0  0  0
  -26.1400  -31.4833   20.6185 H   0  0  0  0  0  0
  -26.8630  -30.7785   22.0313 H   0  0  0  0  0  0
  -28.0930  -28.7914   21.3211 H   0  0  0  0  0  0
  -25.9371  -25.8827   18.9829 H   0  0  0  0  0  0
  -23.9760  -27.3389   18.9389 H   0  0  0  0  0  0
  -23.8020  -30.5984   19.4012 H   0  0  0  0  0  0
  -22.7784  -29.2635   19.8282 H   0  0  0  0  0  0
  -25.1330  -36.1856   25.0806 H   0  0  0  0  0  0
  -21.0027  -28.3320   24.1343 H   0  0  0  0  0  0
  -20.5683  -26.2337   23.3610 H   0  0  0  0  0  0
  -21.6667  -26.7425   22.1205 H   0  0  0  0  0  0
  -19.6936  -25.6285   21.1247 H   0  0  0  0  0  0
  -19.6705  -27.3175   20.6718 H   0  0  0  0  0  0
  -17.4212  -26.6669   21.4028 H   0  0  0  0  0  0
  -18.0372  -26.0070   22.9023 H   0  0  0  0  0  0
  -19.7951  -30.7295   24.2238 H   0  0  0  0  0  0
  -17.5028  -31.6263   24.5176 H   0  0  0  0  0  0
  -15.5368  -30.2983   23.7660 H   0  0  0  0  0  0
  -15.8701  -28.0817   22.7060 H   0  0  0  0  0  0
  -24.5905  -30.7094   25.7706 H   0  0  0  0  0  0
  -24.8942  -32.2936   26.4778 H   0  0  0  0  0  0
  -25.8023  -30.8924   27.0203 H   0  0  0  0  0  0
  -26.3020  -29.6671   24.1278 H   0  0  0  0  0  0
  -27.4039  -29.7245   25.4813 H   0  0  0  0  0  0
  -27.8913  -30.4184   23.9559 H   0  0  0  0  0  0
  -27.2659  -33.3602   26.2051 H   0  0  0  0  0  0
  -28.3908  -32.6863   25.0350 H   0  0  0  0  0  0
  -28.0717  -31.8445   26.5435 H   0  0  0  0  0  0
  -28.2643  -38.0045   24.7397 H   0  0  0  0  0  0
  -28.0995  -36.2566   24.6472 H   0  0  0  0  0  0
  -27.2255  -37.1665   25.8878 H   0  0  0  0  0  0
  -20.9405  -29.8811   21.6836 H   0  0  0  0  0  0
  -26.0167  -38.2809   24.1305 H   0  0  0  0  0  0
  -28.0671  -18.3825   21.2797 H   0  0  0  0  0  0
  -31.7796  -17.4557   19.2242 H   0  0  0  0  0  0
  -26.8881  -25.2231   21.5126 H   0  0  0  0  0  0
  -28.7920  -15.7500   20.9683 H   0  0  0  0  0  0
  -27.8917  -21.1044   21.2307 H   0  0  0  0  0  0
  -26.4636  -23.5308   22.0738 H   0  0  0  0  0  0
  1 25  1  0  0  0
  1 30  2  0  0  0
  1 78  1  0  0  0
  2  3  1  0  0  0
  2 25  1  0  0  0
  2 83  1  0  0  0
  2 84  1  0  0  0
  3  4  1  0  0  0
  3 85  1  0  0  0
  3 86  1  0  0  0
  4  5  1  0  0  0
  4 87  1  0  0  0
  4 88  1  0  0  0
  5  6  1  0  0  0
  5 26  1  0  0  0
  5 89  1  0  0  0
  6 25  1  0  0  0
  6 90  1  0  0  0
  6 91  1  0  0  0
  7  8  2  0  0  0
  7 26  1  0  0  0
  7 29  1  0  0  0
  8  9  1  0  0  0
  8 22  1  0  0  0
  9 10  1  0  0  0
  9 27  2  0  0  0
 10 11  2  0  0  0
 10 15  1  0  0  0
 11 12  1  0  0  0
 11 92  1  0  0  0
 12 13  2  0  0  0
 12 93  1  0  0  0
 13 14  1  0  0  0
 13 31  1  0  0  0
 14 15  2  0  0  0
 14 94  1  0  0  0
 15 95  1  0  0  0
 16 17  2  0  0  0
 16 21  1  0  0  0
 16 31  1  0  0  0
 17 18  1  0  0  0
 17 96  1  0  0  0
 18 19  2  0  0  0
 18 97  1  0  0  0
 19 20  1  0  0  0
 19 24  1  0  0  0
 20 21  2  0  0  0
 20 98  1  0  0  0
 21 23  1  0  0  0
 22 28  1  0  0  0
 22 32  2  0  0  0
 26 27  1  0  0  0
 28 99  1  0  0  0
 28100  1  0  0  0
 29101  1  0  0  0
 29102  1  0  0  0
 33 34  1  0  0  0
 33 66  1  0  0  0
 33 70  2  0  0  0
 34 36  1  0  0  0
 34 59  1  0  0  0
 34103  1  0  0  0
 35 44  2  0  0  0
 35 45  1  0  0  0
 35 68  1  0  0  0
 36 56  1  0  0  0
 36104  1  0  0  0
 37 39  1  0  0  0
 37 47  1  0  0  0
 37 66  1  0  0  0
 37105  1  0  0  0
 38 43  2  0  0  0
 38 46  1  0  0  0
 38 47  1  0  0  0
 39 64  1  0  0  0
 39 67  2  0  0  0
 40 52  1  0  0  0
 40 53  2  0  0  0
 40 58  1  0  0  0
 41106  1  0  0  0
 41107  1  0  0  0
 41108  1  0  0  0
 41 48  1  0  0  0
 42 43  1  0  0  0
 42 66  1  0  0  0
 42109  1  0  0  0
 42110  1  0  0  0
 43 44  1  0  0  0
 44111  1  0  0  0
 45 46  2  0  0  0
 45112  1  0  0  0
 46113  1  0  0  0
 47114  1  0  0  0
 47115  1  0  0  0
 48 56  1  0  0  0
 48 65  1  0  0  0
 48116  1  0  0  0
 49 50  1  0  0  0
 49 53  1  0  0  0
 49 64  1  0  0  0
 49117  1  0  0  0
 50 51  1  0  0  0
 50118  1  0  0  0
 50119  1  0  0  0
 51 52  1  0  0  0
 51120  1  0  0  0
 51121  1  0  0  0
 52122  1  0  0  0
 52123  1  0  0  0
 53 54  1  0  0  0
 54 55  2  0  0  0
 54124  1  0  0  0
 55 57  1  0  0  0
 55125  1  0  0  0
 56 69  2  0  0  0
 57 58  2  0  0  0
 57126  1  0  0  0
 58127  1  0  0  0
 59 60  1  0  0  0
 59 61  1  0  0  0
 59 62  1  0  0  0
 60128  1  0  0  0
 60129  1  0  0  0
 60130  1  0  0  0
 61131  1  0  0  0
 61132  1  0  0  0
 61133  1  0  0  0
 62134  1  0  0  0
 62135  1  0  0  0
 62136  1  0  0  0
 63 65  1  0  0  0
 63137  1  0  0  0
 63138  1  0  0  0
 63139  1  0  0  0
 64140  1  0  0  0
 65141  1  0  0  0
 68 75  1  0  0  0
 71 73  1  0  0  0
 71 74  2  0  0  0
 71142  1  0  0  0
 72 73  2  0  0  0
 72 82  1  0  0  0
 72143  1  0  0  0
 73 78  1  0  0  0
 74 79  1  0  0  0
 74 82  1  0  0  0
 75 76  2  0  0  0
 75144  1  0  0  0
 76 77  1  0  0  0
 76 81  1  0  0  0
 77 79  1  0  0  0
 77 80  2  0  0  0
 78145  1  0  0  0
 79146  1  0  0  0
 81147  1  0  0  0
M  ISO  4   1 100  68 101  75 101  78 100
M  END
> <chiral flag>
0

> <version>
0

> <s_m_source_file>
/data/baiqing/PycharmProjects/Reinvent-master-3.2/result/LINK_invent/BTK/process_docking_weight1_custom_product_contain_oxygen_bond_distance_aromatic_linkinvent_7_9_3/rearranged_h_0156.sdf

> <i_m_source_file_index>
9

> <r_mmod_Potential_Energy-OPLS-2005>
312.828521728516

> <r_mmod_Stretch_Energy-OPLS-2005>
163.02116394043

> <r_mmod_Bend_Energy-OPLS-2005>
265.607421875

> <r_mmod_Torsional_Energy-OPLS-2005>
210.182006835938

> <r_mmod_Improper_Torsional_Energy-OPLS-2005>
4.39874744415283

> <r_mmod_Van_der_Waal_Energy-OPLS-2005>
126.869018554688

> <r_mmod_Electrostatic_Energy-OPLS-2005>
-375.425689697266

> <r_mmod_Solvation_Energy-OPLS-2005>
-245.200790405273

> <b_mmod_Minimization_Converged-OPLS-2005>
0

> <r_mmod_RMS_Derivative-OPLS-2005>
3.82250618934631

$$$$
9
                    3D
 Structure written by MMmdl.
153162  0  0  1  0            999 V2000
  -30.5893  -14.7484   20.4741 C   0  0  0  0  0  0
  -30.4421  -12.4582   19.4757 C   0  0  0  0  0  0
  -29.5142  -12.5175   18.2401 C   0  0  0  0  0  0
  -28.0400  -12.3357   18.6521 C   0  0  0  0  0  0
  -27.6478  -13.2274   19.8597 C   0  0  2  0  0  0
  -28.6917  -13.1361   20.9958 C   0  0  0  0  0  0
  -25.2538  -13.8186   20.5698 C   0  0  0  0  0  0
  -24.1814  -13.0439   20.9193 C   0  0  0  0  0  0
  -24.6392  -11.6914   20.8732 C   0  0  0  0  0  0
  -23.9061  -10.4293   21.0392 C   0  0  0  0  0  0
  -24.3612   -9.4211   21.9174 C   0  0  0  0  0  0
  -23.6288   -8.2246   22.0749 C   0  0  0  0  0  0
  -22.4271   -8.0276   21.3540 C   0  0  0  0  0  0
  -21.9904   -9.0248   20.4642 C   0  0  0  0  0  0
  -22.7230  -10.2129   20.3049 C   0  0  0  0  0  0
  -21.6854   -6.0729   22.5275 C   0  0  0  0  0  0
  -21.4013   -6.5635   23.8205 C   0  0  0  0  0  0
  -21.3659   -5.6789   24.9169 C   0  0  0  0  0  0
  -21.6045   -4.3051   24.7222 C   0  0  0  0  0  0
  -21.8821   -3.8143   23.4343 C   0  0  0  0  0  0
  -21.9194   -4.6958   22.3400 C   0  0  0  0  0  0
  -22.7835  -13.5227   21.1852 C   0  0  0  0  0  0
  -22.1664   -4.2145   21.0977 F   0  0  0  0  0  0
  -21.5629   -3.4538   25.7735 F   0  0  0  0  0  0
  -29.9976  -13.5035   20.4287 N   0  0  0  0  0  0
  -26.2965  -12.9383   20.3312 N   0  0  0  0  0  0
  -25.9328  -11.6528   20.5754 N   0  0  0  0  0  0
  -22.0484  -12.8218   22.0412 N   0  0  0  0  0  0
  -25.4252  -15.1910   20.4127 N   0  0  0  0  0  0
  -31.7509  -14.8923   20.0792 O   0  0  0  0  0  0
  -21.6640   -6.8871   21.4235 O   0  0  0  0  0  0
  -22.3520  -14.5534   20.6701 O   0  0  0  0  0  0
  -24.6321  -31.8545   23.1983 C   0  0  0  0  0  0
  -25.9141  -32.4752   23.8332 C   0  0  1  0  0  0
  -27.2171  -27.2483   20.1353 C   0  0  0  0  0  0
  -25.5932  -33.8556   24.2250 N   0  0  0  0  0  0
  -23.4297  -30.4773   21.5409 C   0  0  2  0  0  0
  -24.8784  -28.9265   20.1068 C   0  0  0  0  0  0
  -22.7514  -29.4592   22.4898 C   0  0  0  0  0  0
  -18.0291  -28.1396   22.8482 C   0  0  0  0  0  0
  -24.1484  -36.7275   23.2643 C   0  0  0  0  0  0
  -25.9770  -30.7629   21.3828 C   0  0  0  0  0  0
  -26.0488  -29.3852   20.7240 C   0  0  0  0  0  0
  -27.2195  -28.5581   20.7288 C   0  0  0  0  0  0
  -26.0303  -26.8744   19.4641 C   0  0  0  0  0  0
  -24.8759  -27.6807   19.4632 C   0  0  0  0  0  0
  -23.6496  -29.8142   20.1558 C   0  0  0  0  0  0
  -25.4113  -36.3066   24.0328 C   0  0  1  0  0  0
  -20.5900  -28.3703   23.1265 C   0  0  2  0  0  0
  -20.6783  -26.9419   22.5407 C   0  0  0  0  0  0
  -19.5753  -26.6383   21.5218 C   0  0  0  0  0  0
  -18.1931  -26.7936   22.1627 C   0  0  0  0  0  0
  -19.1548  -28.8867   23.2867 C   0  0  0  0  0  0
  -18.9472  -30.1466   23.8888 C   0  0  0  0  0  0
  -17.6475  -30.6596   24.0564 C   0  0  0  0  0  0
  -25.9054  -34.9440   23.5093 C   0  0  0  0  0  0
  -16.5362  -29.9093   23.6344 C   0  0  0  0  0  0
  -16.7280  -28.6512   23.0358 C   0  0  0  0  0  0
  -26.4503  -31.6592   25.0731 C   0  0  0  0  0  0
  -25.3714  -31.3755   26.1442 C   0  0  0  0  0  0
  -27.0362  -30.3009   24.6239 C   0  0  0  0  0  0
  -27.6044  -32.4347   25.7507 C   0  0  0  0  0  0
  -27.5571  -37.1793   24.8469 C   0  0  0  0  0  0
  -21.4218  -29.3046   22.3652 N   0  0  0  0  0  0
  -26.4284  -37.3768   23.9413 N   0  0  0  0  0  0
  -24.6985  -31.0499   22.0966 N   0  0  0  0  0  0
  -23.4209  -28.8130   23.3003 O   0  0  0  0  0  0
  -28.2990  -26.3343   20.2270 O   0  0  0  0  0  0
  -26.5628  -34.8917   22.4663 O   0  0  0  0  0  0
  -23.5468  -32.1372   23.7270 O   0  0  0  0  0  0
  -30.5595  -17.9586   19.6604 C   0  0  0  0  0  0
  -30.3597  -19.4030   19.7084 C   0  0  0  0  0  0
  -29.5531  -19.8932   20.7153 C   0  0  0  0  0  0
  -29.8878  -17.2207   20.6231 C   0  0  0  0  0  0
  -28.7389  -23.8522   21.1092 C   0  0  0  0  0  0
  -29.2869  -21.3013   21.2250 C   0  0  0  0  0  0
  -28.4557  -24.1584   18.7828 C   0  0  0  0  0  0
  -28.6687  -22.6368   19.0936 C   0  0  0  0  0  0
  -28.0488  -24.8413   20.1002 C   0  0  2  0  0  0
  -28.9542  -22.4904   20.5340 N   0  0  0  0  0  0
  -29.8013  -15.8295   20.8475 N   0  0  0  0  0  0
  -29.4020  -21.3866   22.5664 N   0  3  0  0  0  0
  -28.9920  -24.1377   22.2897 O   0  0  0  0  0  0
  -30.9812  -20.1934   18.8634 F   0  0  0  0  0  0
  -28.9793  -18.4329   21.5881 S   0  0  0  0  0  0
  -31.4809  -12.5953   19.1708 H   0  0  0  0  0  0
  -30.3978  -11.4742   19.9448 H   0  0  0  0  0  0
  -29.7968  -11.7507   17.5175 H   0  0  0  0  0  0
  -29.6365  -13.4761   17.7332 H   0  0  0  0  0  0
  -27.8978  -11.2852   18.9079 H   0  0  0  0  0  0
  -27.3820  -12.5335   17.8051 H   0  0  0  0  0  0
  -27.6497  -14.2536   19.4918 H   0  0  0  0  0  0
  -28.7271  -12.1256   21.4066 H   0  0  0  0  0  0
  -28.4204  -13.7885   21.8269 H   0  0  0  0  0  0
  -25.2755   -9.5692   22.4747 H   0  0  0  0  0  0
  -23.9998   -7.4642   22.7474 H   0  0  0  0  0  0
  -21.0833   -8.8758   19.8952 H   0  0  0  0  0  0
  -22.3675  -10.9662   19.6160 H   0  0  0  0  0  0
  -21.2001   -7.6142   23.9705 H   0  0  0  0  0  0
  -21.1480   -6.0521   25.9070 H   0  0  0  0  0  0
  -22.0601   -2.7605   23.2845 H   0  0  0  0  0  0
  -22.4107  -11.9884   22.4805 H   0  0  0  0  0  0
  -21.1101  -13.1237   22.2619 H   0  0  0  0  0  0
  -24.6577  -15.8453   20.5192 H   0  0  0  0  0  0
  -26.2730  -15.6284   20.0743 H   0  0  0  0  0  0
  -26.7202  -32.5400   23.1067 H   0  0  0  0  0  0
  -25.0082  -33.9699   25.0397 H   0  0  0  0  0  0
  -22.7263  -31.2998   21.3948 H   0  0  0  0  0  0
  -23.3753  -35.9600   23.3308 H   0  0  0  0  0  0
  -24.3565  -36.8899   22.2056 H   0  0  0  0  0  0
  -23.7233  -37.6473   23.6671 H   0  0  0  0  0  0
  -26.1196  -31.5245   20.6146 H   0  0  0  0  0  0
  -26.8533  -30.8092   22.0179 H   0  0  0  0  0  0
  -28.1103  -28.9004   21.2369 H   0  0  0  0  0  0
  -25.9618  -25.9339   18.9388 H   0  0  0  0  0  0
  -23.9852  -27.3310   18.9596 H   0  0  0  0  0  0
  -23.7757  -30.5924   19.4021 H   0  0  0  0  0  0
  -22.7681  -29.2487   19.8483 H   0  0  0  0  0  0
  -25.1297  -36.1905   25.0822 H   0  0  0  0  0  0
  -20.9986  -28.3280   24.1388 H   0  0  0  0  0  0
  -20.5695  -26.2314   23.3614 H   0  0  0  0  0  0
  -21.6647  -26.7443   22.1193 H   0  0  0  0  0  0
  -19.6915  -25.6290   21.1256 H   0  0  0  0  0  0
  -19.6695  -27.3188   20.6744 H   0  0  0  0  0  0
  -17.4204  -26.6691   21.4024 H   0  0  0  0  0  0
  -18.0318  -26.0078   22.9023 H   0  0  0  0  0  0
  -19.7947  -30.7284   24.2254 H   0  0  0  0  0  0
  -17.5028  -31.6278   24.5160 H   0  0  0  0  0  0
  -15.5364  -30.2994   23.7677 H   0  0  0  0  0  0
  -15.8676  -28.0833   22.7084 H   0  0  0  0  0  0
  -24.5883  -30.7115   25.7766 H   0  0  0  0  0  0
  -24.8912  -32.2932   26.4848 H   0  0  0  0  0  0
  -25.8008  -30.8938   27.0233 H   0  0  0  0  0  0
  -26.2960  -29.6745   24.1247 H   0  0  0  0  0  0
  -27.4023  -29.7285   25.4771 H   0  0  0  0  0  0
  -27.8841  -30.4289   23.9507 H   0  0  0  0  0  0
  -27.2644  -33.3661   26.2047 H   0  0  0  0  0  0
  -28.3868  -32.6891   25.0344 H   0  0  0  0  0  0
  -28.0694  -31.8501   26.5453 H   0  0  0  0  0  0
  -28.2591  -38.0087   24.7508 H   0  0  0  0  0  0
  -28.1066  -36.2618   24.6306 H   0  0  0  0  0  0
  -27.2287  -37.1450   25.8872 H   0  0  0  0  0  0
  -20.9410  -29.8772   21.6854 H   0  0  0  0  0  0
  -26.0161  -38.2839   24.1420 H   0  0  0  0  0  0
  -31.1972  -17.5214   18.9059 H   0  0  0  0  0  0
  -27.6883  -24.2990   18.0217 H   0  0  0  0  0  0
  -29.3767  -24.5966   18.3962 H   0  0  0  0  0  0
  -29.4784  -22.2240   18.4929 H   0  0  0  0  0  0
  -27.7663  -22.0684   18.8661 H   0  0  0  0  0  0
  -26.9962  -24.6370   20.2934 H   0  0  0  0  0  0
  -28.9509  -15.5389   21.3071 H   0  0  0  0  0  0
  -29.6467  -20.5832   23.1256 H   0  0  0  0  0  0
  -29.2965  -22.2820   23.0336 H   0  0  0  0  0  0
  1 25  1  0  0  0
  1 30  2  0  0  0
  1 81  1  0  0  0
  2  3  1  0  0  0
  2 25  1  0  0  0
  2 86  1  0  0  0
  2 87  1  0  0  0
  3  4  1  0  0  0
  3 88  1  0  0  0
  3 89  1  0  0  0
  4  5  1  0  0  0
  4 90  1  0  0  0
  4 91  1  0  0  0
  5  6  1  0  0  0
  5 26  1  0  0  0
  5 92  1  0  0  0
  6 25  1  0  0  0
  6 93  1  0  0  0
  6 94  1  0  0  0
  7  8  2  0  0  0
  7 26  1  0  0  0
  7 29  1  0  0  0
  8  9  1  0  0  0
  8 22  1  0  0  0
  9 10  1  0  0  0
  9 27  2  0  0  0
 10 11  2  0  0  0
 10 15  1  0  0  0
 11 12  1  0  0  0
 11 95  1  0  0  0
 12 13  2  0  0  0
 12 96  1  0  0  0
 13 14  1  0  0  0
 13 31  1  0  0  0
 14 15  2  0  0  0
 14 97  1  0  0  0
 15 98  1  0  0  0
 16 17  2  0  0  0
 16 21  1  0  0  0
 16 31  1  0  0  0
 17 18  1  0  0  0
 17 99  1  0  0  0
 18 19  2  0  0  0
 18100  1  0  0  0
 19 20  1  0  0  0
 19 24  1  0  0  0
 20 21  2  0  0  0
 20101  1  0  0  0
 21 23  1  0  0  0
 22 28  1  0  0  0
 22 32  2  0  0  0
 26 27  1  0  0  0
 28102  1  0  0  0
 28103  1  0  0  0
 29104  1  0  0  0
 29105  1  0  0  0
 33 34  1  0  0  0
 33 66  1  0  0  0
 33 70  2  0  0  0
 34 36  1  0  0  0
 34 59  1  0  0  0
 34106  1  0  0  0
 35 44  2  0  0  0
 35 45  1  0  0  0
 35 68  1  0  0  0
 36 56  1  0  0  0
 36107  1  0  0  0
 37 39  1  0  0  0
 37 47  1  0  0  0
 37 66  1  0  0  0
 37108  1  0  0  0
 38 43  2  0  0  0
 38 46  1  0  0  0
 38 47  1  0  0  0
 39 64  1  0  0  0
 39 67  2  0  0  0
 40 52  1  0  0  0
 40 53  2  0  0  0
 40 58  1  0  0  0
 41109  1  0  0  0
 41110  1  0  0  0
 41111  1  0  0  0
 41 48  1  0  0  0
 42 43  1  0  0  0
 42 66  1  0  0  0
 42112  1  0  0  0
 42113  1  0  0  0
 43 44  1  0  0  0
 44114  1  0  0  0
 45 46  2  0  0  0
 45115  1  0  0  0
 46116  1  0  0  0
 47117  1  0  0  0
 47118  1  0  0  0
 48 56  1  0  0  0
 48 65  1  0  0  0
 48119  1  0  0  0
 49 50  1  0  0  0
 49 53  1  0  0  0
 49 64  1  0  0  0
 49120  1  0  0  0
 50 51  1  0  0  0
 50121  1  0  0  0
 50122  1  0  0  0
 51 52  1  0  0  0
 51123  1  0  0  0
 51124  1  0  0  0
 52125  1  0  0  0
 52126  1  0  0  0
 53 54  1  0  0  0
 54 55  2  0  0  0
 54127  1  0  0  0
 55 57  1  0  0  0
 55128  1  0  0  0
 56 69  2  0  0  0
 57 58  2  0  0  0
 57129  1  0  0  0
 58130  1  0  0  0
 59 60  1  0  0  0
 59 61  1  0  0  0
 59 62  1  0  0  0
 60131  1  0  0  0
 60132  1  0  0  0
 60133  1  0  0  0
 61134  1  0  0  0
 61135  1  0  0  0
 61136  1  0  0  0
 62137  1  0  0  0
 62138  1  0  0  0
 62139  1  0  0  0
 63 65  1  0  0  0
 63140  1  0  0  0
 63141  1  0  0  0
 63142  1  0  0  0
 64143  1  0  0  0
 65144  1  0  0  0
 68 79  1  0  0  0
 71 72  1  0  0  0
 71 74  2  0  0  0
 71145  1  0  0  0
 72 73  2  0  0  0
 72 84  1  0  0  0
 73 76  1  0  0  0
 73 85  1  0  0  0
 74 81  1  0  0  0
 74 85  1  0  0  0
 75 79  1  0  0  0
 75 80  1  0  0  0
 75 83  2  0  0  0
 76 80  1  0  0  0
 76 82  2  0  0  0
 77 78  1  0  0  0
 77 79  1  0  0  0
 77146  1  0  0  0
 77147  1  0  0  0
 78 80  1  0  0  0
 78148  1  0  0  0
 78149  1  0  0  0
 79150  1  0  0  0
 81151  1  0  0  0
 82152  1  0  0  0
 82153  1  0  0  0
M  CHG  1  82   1
M  ISO  4   1 100  68 101  79 101  81 100
M  END
> <chiral flag>
0

> <version>
0

> <s_m_source_file>
/data/baiqing/PycharmProjects/Reinvent-master-3.2/result/LINK_invent/BTK/process_docking_weight1_custom_product_contain_oxygen_bond_distance_aromatic_linkinvent_7_9_3/rearranged_h_0156.sdf

> <i_m_source_file_index>
10

> <r_mmod_Potential_Energy-OPLS-2005>
126.112350463867

> <r_mmod_Stretch_Energy-OPLS-2005>
119.975486755371

> <r_mmod_Bend_Energy-OPLS-2005>
210.279556274414

> <r_mmod_Torsional_Energy-OPLS-2005>
253.125946044922

> <r_mmod_Improper_Torsional_Energy-OPLS-2005>
4.68251514434814

> <r_mmod_Van_der_Waal_Energy-OPLS-2005>
122.713333129883

> <r_mmod_Electrostatic_Energy-OPLS-2005>
-213.745422363281

> <r_mmod_Solvation_Energy-OPLS-2005>
-462.105010986328

> <b_mmod_Minimization_Converged-OPLS-2005>
0

> <r_mmod_RMS_Derivative-OPLS-2005>
0.718101918697357

$$$$
10
                    3D
 Structure written by MMmdl.
154162  0  0  1  0            999 V2000
  -30.5914  -14.7605   20.4721 C   0  0  0  0  0  0
  -30.4408  -12.4671   19.4707 C   0  0  0  0  0  0
  -29.5167  -12.5083   18.2333 C   0  0  0  0  0  0
  -28.0403  -12.3347   18.6434 C   0  0  0  0  0  0
  -27.6436  -13.2287   19.8486 C   0  0  2  0  0  0
  -28.6885  -13.1560   20.9826 C   0  0  0  0  0  0
  -25.2529  -13.8183   20.5682 C   0  0  0  0  0  0
  -24.1820  -13.0435   20.9215 C   0  0  0  0  0  0
  -24.6403  -11.6909   20.8743 C   0  0  0  0  0  0
  -23.9078  -10.4286   21.0388 C   0  0  0  0  0  0
  -24.3631   -9.4205   21.9178 C   0  0  0  0  0  0
  -23.6303   -8.2241   22.0750 C   0  0  0  0  0  0
  -22.4284   -8.0280   21.3540 C   0  0  0  0  0  0
  -21.9918   -9.0249   20.4643 C   0  0  0  0  0  0
  -22.7241  -10.2127   20.3045 C   0  0  0  0  0  0
  -21.6862   -6.0730   22.5279 C   0  0  0  0  0  0
  -21.4015   -6.5632   23.8209 C   0  0  0  0  0  0
  -21.3659   -5.6785   24.9169 C   0  0  0  0  0  0
  -21.6049   -4.3049   24.7219 C   0  0  0  0  0  0
  -21.8827   -3.8141   23.4339 C   0  0  0  0  0  0
  -21.9193   -4.6960   22.3399 C   0  0  0  0  0  0
  -22.7839  -13.5227   21.1855 C   0  0  0  0  0  0
  -22.1665   -4.2146   21.0977 F   0  0  0  0  0  0
  -21.5625   -3.4536   25.7731 F   0  0  0  0  0  0
  -29.9845  -13.5249   20.4010 N   0  0  0  0  0  0
  -26.2952  -12.9379   20.3257 N   0  0  0  0  0  0
  -25.9338  -11.6525   20.5738 N   0  0  0  0  0  0
  -22.0476  -12.8218   22.0407 N   0  0  0  0  0  0
  -25.4216  -15.1909   20.4058 N   0  0  0  0  0  0
  -31.7886  -14.8652   20.1825 O   0  0  0  0  0  0
  -21.6648   -6.8875   21.4241 O   0  0  0  0  0  0
  -22.3529  -14.5529   20.6683 O   0  0  0  0  0  0
  -24.6307  -31.8539   23.1973 C   0  0  0  0  0  0
  -25.9130  -32.4743   23.8327 C   0  0  1  0  0  0
  -27.2212  -27.2542   20.1486 C   0  0  0  0  0  0
  -25.5925  -33.8553   24.2260 N   0  0  0  0  0  0
  -23.4280  -30.4744   21.5391 C   0  0  2  0  0  0
  -24.8776  -28.9107   20.1184 C   0  0  0  0  0  0
  -22.7492  -29.4603   22.4909 C   0  0  0  0  0  0
  -18.0290  -28.1376   22.8479 C   0  0  0  0  0  0
  -24.1495  -36.7278   23.2644 C   0  0  0  0  0  0
  -25.9743  -30.7635   21.3802 C   0  0  0  0  0  0
  -26.0478  -29.3828   20.7283 C   0  0  0  0  0  0
  -27.2253  -28.5680   20.7282 C   0  0  0  0  0  0
  -26.0332  -26.8454   19.5110 C   0  0  0  0  0  0
  -24.8748  -27.6490   19.4995 C   0  0  0  0  0  0
  -23.6489  -29.8000   20.1586 C   0  0  0  0  0  0
  -25.4122  -36.3070   24.0336 C   0  0  1  0  0  0
  -20.5890  -28.3695   23.1254 C   0  0  2  0  0  0
  -20.6780  -26.9411   22.5402 C   0  0  0  0  0  0
  -19.5761  -26.6374   21.5205 C   0  0  0  0  0  0
  -18.1935  -26.7915   22.1612 C   0  0  0  0  0  0
  -19.1544  -28.8854   23.2860 C   0  0  0  0  0  0
  -18.9469  -30.1451   23.8883 C   0  0  0  0  0  0
  -17.6472  -30.6582   24.0555 C   0  0  0  0  0  0
  -25.9056  -34.9440   23.5105 C   0  0  0  0  0  0
  -16.5361  -29.9079   23.6330 C   0  0  0  0  0  0
  -16.7277  -28.6492   23.0353 C   0  0  0  0  0  0
  -26.4500  -31.6557   25.0712 C   0  0  0  0  0  0
  -25.3726  -31.3720   26.1438 C   0  0  0  0  0  0
  -27.0354  -30.2965   24.6220 C   0  0  0  0  0  0
  -27.6050  -32.4299   25.7488 C   0  0  0  0  0  0
  -27.5590  -37.1793   24.8462 C   0  0  0  0  0  0
  -21.4201  -29.3044   22.3643 N   0  0  0  0  0  0
  -26.4294  -37.3772   23.9413 N   0  0  0  0  0  0
  -24.6965  -31.0500   22.0943 N   0  0  0  0  0  0
  -23.4187  -28.8155   23.3025 O   0  0  0  0  0  0
  -28.3312  -26.3808   20.1046 O   0  0  0  0  0  0
  -26.5636  -34.8915   22.4682 O   0  0  0  0  0  0
  -23.5452  -32.1371   23.7255 O   0  0  0  0  0  0
  -29.0978  -18.4444   20.4200 C   0  0  0  0  0  0
  -31.2578  -17.8674   21.0821 C   0  0  0  0  0  0
  -30.0513  -17.3454   20.6940 C   0  0  0  0  0  0
  -29.5702  -19.7693   20.5863 C   0  0  0  0  0  0
  -29.2246  -22.2998   20.7960 C   0  0  0  0  0  0
  -29.6925  -25.4593   21.7096 C   0  0  0  0  0  0
  -27.2560  -24.9404   21.8758 C   0  0  0  0  0  0
  -28.6548  -23.6570   20.1057 C   0  0  0  0  0  0
  -28.4376  -25.0919   20.8932 C   0  0  0  0  0  0
  -29.7735  -15.8785   20.6325 N   0  0  0  0  0  0
  -28.9594  -21.0170   20.3141 N   0  0  0  0  0  0
  -29.9275  -22.4203   21.8002 O   0  0  0  0  0  0
  -31.2397  -19.6285   21.1313 S   0  0  0  0  0  0
  -31.4799  -12.6057   19.1668 H   0  0  0  0  0  0
  -30.3980  -11.4898   19.9539 H   0  0  0  0  0  0
  -29.7998  -11.7271   17.5256 H   0  0  0  0  0  0
  -29.6464  -13.4577   17.7106 H   0  0  0  0  0  0
  -27.8927  -11.2842   18.8972 H   0  0  0  0  0  0
  -27.3877  -12.5340   17.7928 H   0  0  0  0  0  0
  -27.6373  -14.2523   19.4743 H   0  0  0  0  0  0
  -28.7313  -12.1516   21.4051 H   0  0  0  0  0  0
  -28.4212  -13.8217   21.8044 H   0  0  0  0  0  0
  -25.2772   -9.5688   22.4753 H   0  0  0  0  0  0
  -24.0010   -7.4635   22.7478 H   0  0  0  0  0  0
  -21.0841   -8.8767   19.8958 H   0  0  0  0  0  0
  -22.3694  -10.9665   19.6155 H   0  0  0  0  0  0
  -21.2012   -7.6142   23.9713 H   0  0  0  0  0  0
  -21.1476   -6.0513   25.9072 H   0  0  0  0  0  0
  -22.0609   -2.7606   23.2843 H   0  0  0  0  0  0
  -22.4094  -11.9892   22.4825 H   0  0  0  0  0  0
  -21.1087  -13.1244   22.2578 H   0  0  0  0  0  0
  -24.6508  -15.8409   20.5157 H   0  0  0  0  0  0
  -26.2494  -15.6242   20.0203 H   0  0  0  0  0  0
  -26.7196  -32.5387   23.1067 H   0  0  0  0  0  0
  -25.0049  -33.9690   25.0389 H   0  0  0  0  0  0
  -22.7253  -31.2963   21.3871 H   0  0  0  0  0  0
  -23.3771  -35.9591   23.3290 H   0  0  0  0  0  0
  -24.3580  -36.8920   22.2057 H   0  0  0  0  0  0
  -23.7229  -37.6473   23.6672 H   0  0  0  0  0  0
  -26.1186  -31.5231   20.6107 H   0  0  0  0  0  0
  -26.8489  -30.8092   22.0177 H   0  0  0  0  0  0
  -28.1277  -28.9290   21.2002 H   0  0  0  0  0  0
  -26.0014  -25.8780   19.0297 H   0  0  0  0  0  0
  -23.9796  -27.2823   19.0156 H   0  0  0  0  0  0
  -23.7734  -30.5714   19.3978 H   0  0  0  0  0  0
  -22.7676  -29.2313   19.8555 H   0  0  0  0  0  0
  -25.1305  -36.1923   25.0826 H   0  0  0  0  0  0
  -20.9977  -28.3278   24.1375 H   0  0  0  0  0  0
  -20.5657  -26.2316   23.3613 H   0  0  0  0  0  0
  -21.6649  -26.7419   22.1206 H   0  0  0  0  0  0
  -19.6921  -25.6282   21.1243 H   0  0  0  0  0  0
  -19.6696  -27.3176   20.6725 H   0  0  0  0  0  0
  -17.4201  -26.6658   21.4015 H   0  0  0  0  0  0
  -18.0337  -26.0056   22.9009 H   0  0  0  0  0  0
  -19.7952  -30.7262   24.2242 H   0  0  0  0  0  0
  -17.5032  -31.6260   24.5159 H   0  0  0  0  0  0
  -15.5362  -30.2981   23.7659 H   0  0  0  0  0  0
  -15.8671  -28.0808   22.7078 H   0  0  0  0  0  0
  -24.5853  -30.7134   25.7762 H   0  0  0  0  0  0
  -24.8974  -32.2896   26.4912 H   0  0  0  0  0  0
  -25.8022  -30.8837   27.0193 H   0  0  0  0  0  0
  -26.2945  -29.6702   24.1232 H   0  0  0  0  0  0
  -27.4018  -29.7244   25.4759 H   0  0  0  0  0  0
  -27.8836  -30.4246   23.9489 H   0  0  0  0  0  0
  -27.2644  -33.3587   26.2090 H   0  0  0  0  0  0
  -28.3839  -32.6888   25.0298 H   0  0  0  0  0  0
  -28.0742  -31.8410   26.5386 H   0  0  0  0  0  0
  -28.2591  -38.0109   24.7529 H   0  0  0  0  0  0
  -28.1107  -36.2639   24.6260 H   0  0  0  0  0  0
  -27.2306  -37.1405   25.8865 H   0  0  0  0  0  0
  -20.9385  -29.8769   21.6852 H   0  0  0  0  0  0
  -26.0183  -38.2849   24.1417 H   0  0  0  0  0  0
  -28.0909  -18.2213   20.0977 H   0  0  0  0  0  0
  -32.1634  -17.3414   21.3608 H   0  0  0  0  0  0
  -29.8665  -24.7813   22.5428 H   0  0  0  0  0  0
  -29.6074  -26.4588   22.1385 H   0  0  0  0  0  0
  -30.5840  -25.4542   21.0831 H   0  0  0  0  0  0
  -26.3195  -24.7494   21.3524 H   0  0  0  0  0  0
  -27.1185  -25.8295   22.4931 H   0  0  0  0  0  0
  -27.4172  -24.1021   22.5553 H   0  0  0  0  0  0
  -27.7178  -23.3983   19.6133 H   0  0  0  0  0  0
  -29.3494  -23.8561   19.2904 H   0  0  0  0  0  0
  -28.7965  -15.6349   20.6898 H   0  0  0  0  0  0
  -28.2383  -20.9844   19.6055 H   0  0  0  0  0  0
  1 25  1  0  0  0
  1 30  2  0  0  0
  1 80  1  0  0  0
  2  3  1  0  0  0
  2 25  1  0  0  0
  2 84  1  0  0  0
  2 85  1  0  0  0
  3  4  1  0  0  0
  3 86  1  0  0  0
  3 87  1  0  0  0
  4  5  1  0  0  0
  4 88  1  0  0  0
  4 89  1  0  0  0
  5  6  1  0  0  0
  5 26  1  0  0  0
  5 90  1  0  0  0
  6 25  1  0  0  0
  6 91  1  0  0  0
  6 92  1  0  0  0
  7  8  2  0  0  0
  7 26  1  0  0  0
  7 29  1  0  0  0
  8  9  1  0  0  0
  8 22  1  0  0  0
  9 10  1  0  0  0
  9 27  2  0  0  0
 10 11  2  0  0  0
 10 15  1  0  0  0
 11 12  1  0  0  0
 11 93  1  0  0  0
 12 13  2  0  0  0
 12 94  1  0  0  0
 13 14  1  0  0  0
 13 31  1  0  0  0
 14 15  2  0  0  0
 14 95  1  0  0  0
 15 96  1  0  0  0
 16 17  2  0  0  0
 16 21  1  0  0  0
 16 31  1  0  0  0
 17 18  1  0  0  0
 17 97  1  0  0  0
 18 19  2  0  0  0
 18 98  1  0  0  0
 19 20  1  0  0  0
 19 24  1  0  0  0
 20 21  2  0  0  0
 20 99  1  0  0  0
 21 23  1  0  0  0
 22 28  1  0  0  0
 22 32  2  0  0  0
 26 27  1  0  0  0
 28100  1  0  0  0
 28101  1  0  0  0
 29102  1  0  0  0
 29103  1  0  0  0
 33 34  1  0  0  0
 33 66  1  0  0  0
 33 70  2  0  0  0
 34 36  1  0  0  0
 34 59  1  0  0  0
 34104  1  0  0  0
 35 44  2  0  0  0
 35 45  1  0  0  0
 35 68  1  0  0  0
 36 56  1  0  0  0
 36105  1  0  0  0
 37 39  1  0  0  0
 37 47  1  0  0  0
 37 66  1  0  0  0
 37106  1  0  0  0
 38 43  2  0  0  0
 38 46  1  0  0  0
 38 47  1  0  0  0
 39 64  1  0  0  0
 39 67  2  0  0  0
 40 52  1  0  0  0
 40 53  2  0  0  0
 40 58  1  0  0  0
 41107  1  0  0  0
 41108  1  0  0  0
 41109  1  0  0  0
 41 48  1  0  0  0
 42 43  1  0  0  0
 42 66  1  0  0  0
 42110  1  0  0  0
 42111  1  0  0  0
 43 44  1  0  0  0
 44112  1  0  0  0
 45 46  2  0  0  0
 45113  1  0  0  0
 46114  1  0  0  0
 47115  1  0  0  0
 47116  1  0  0  0
 48 56  1  0  0  0
 48 65  1  0  0  0
 48117  1  0  0  0
 49 50  1  0  0  0
 49 53  1  0  0  0
 49 64  1  0  0  0
 49118  1  0  0  0
 50 51  1  0  0  0
 50119  1  0  0  0
 50120  1  0  0  0
 51 52  1  0  0  0
 51121  1  0  0  0
 51122  1  0  0  0
 52123  1  0  0  0
 52124  1  0  0  0
 53 54  1  0  0  0
 54 55  2  0  0  0
 54125  1  0  0  0
 55 57  1  0  0  0
 55126  1  0  0  0
 56 69  2  0  0  0
 57 58  2  0  0  0
 57127  1  0  0  0
 58128  1  0  0  0
 59 60  1  0  0  0
 59 61  1  0  0  0
 59 62  1  0  0  0
 60129  1  0  0  0
 60130  1  0  0  0
 60131  1  0  0  0
 61132  1  0  0  0
 61133  1  0  0  0
 61134  1  0  0  0
 62135  1  0  0  0
 62136  1  0  0  0
 62137  1  0  0  0
 63 65  1  0  0  0
 63138  1  0  0  0
 63139  1  0  0  0
 63140  1  0  0  0
 64141  1  0  0  0
 65142  1  0  0  0
 68 79  1  0  0  0
 71 73  1  0  0  0
 71 74  2  0  0  0
 71143  1  0  0  0
 72 73  2  0  0  0
 72 83  1  0  0  0
 72144  1  0  0  0
 73 80  1  0  0  0
 74 81  1  0  0  0
 74 83  1  0  0  0
 75 78  1  0  0  0
 75 81  1  0  0  0
 75 82  2  0  0  0
 76145  1  0  0  0
 76146  1  0  0  0
 76147  1  0  0  0
 76 79  1  0  0  0
 77 79  1  0  0  0
 77148  1  0  0  0
 77149  1  0  0  0
 77150  1  0  0  0
 78 79  1  0  0  0
 78151  1  0  0  0
 78152  1  0  0  0
 80153  1  0  0  0
 81154  1  0  0  0
M  ISO  4   1 100  68 101  79 101  80 100
M  END
> <chiral flag>
0

> <version>
0

> <s_m_source_file>
/data/baiqing/PycharmProjects/Reinvent-master-3.2/result/LINK_invent/BTK/process_docking_weight1_custom_product_contain_oxygen_bond_distance_aromatic_linkinvent_7_9_3/rearranged_h_0156.sdf

> <i_m_source_file_index>
11

> <r_mmod_Potential_Energy-OPLS-2005>
171.39811706543

> <r_mmod_Stretch_Energy-OPLS-2005>
136.484222412109

> <r_mmod_Bend_Energy-OPLS-2005>
190.731842041016

> <r_mmod_Torsional_Energy-OPLS-2005>
234.199310302734

> <r_mmod_Improper_Torsional_Energy-OPLS-2005>
5.96857738494873

> <r_mmod_Van_der_Waal_Energy-OPLS-2005>
116.965103149414

> <r_mmod_Electrostatic_Energy-OPLS-2005>
-364.138885498047

> <r_mmod_Solvation_Energy-OPLS-2005>
-235.777709960938

> <b_mmod_Minimization_Converged-OPLS-2005>
0

> <r_mmod_RMS_Derivative-OPLS-2005>
1.82123589515686

$$$$
11
                    3D
 Structure written by MMmdl.
151159  0  0  1  0            999 V2000
  -30.5204  -14.7778   20.4967 C   0  0  0  0  0  0
  -30.4619  -12.4851   19.4625 C   0  0  0  0  0  0
  -29.5199  -12.5307   18.2343 C   0  0  0  0  0  0
  -28.0461  -12.3343   18.6477 C   0  0  0  0  0  0
  -27.6511  -13.2142   19.8616 C   0  0  2  0  0  0
  -28.6961  -13.0867   20.9920 C   0  0  0  0  0  0
  -25.2563  -13.8136   20.5668 C   0  0  0  0  0  0
  -24.1829  -13.0421   20.9187 C   0  0  0  0  0  0
  -24.6385  -11.6891   20.8729 C   0  0  0  0  0  0
  -23.9049  -10.4285   21.0395 C   0  0  0  0  0  0
  -24.3599   -9.4206   21.9179 C   0  0  0  0  0  0
  -23.6276   -8.2244   22.0752 C   0  0  0  0  0  0
  -22.4261   -8.0279   21.3543 C   0  0  0  0  0  0
  -21.9881   -9.0248   20.4647 C   0  0  0  0  0  0
  -22.7214  -10.2127   20.3056 C   0  0  0  0  0  0
  -21.6855   -6.0725   22.5273 C   0  0  0  0  0  0
  -21.4013   -6.5622   23.8205 C   0  0  0  0  0  0
  -21.3663   -5.6782   24.9170 C   0  0  0  0  0  0
  -21.6041   -4.3044   24.7218 C   0  0  0  0  0  0
  -21.8823   -3.8139   23.4340 C   0  0  0  0  0  0
  -21.9193   -4.6955   22.3396 C   0  0  0  0  0  0
  -22.7858  -13.5237   21.1839 C   0  0  0  0  0  0
  -22.1668   -4.2136   21.0974 F   0  0  0  0  0  0
  -21.5625   -3.4535   25.7737 F   0  0  0  0  0  0
  -29.9974  -13.5010   20.4358 N   0  0  0  0  0  0
  -26.2979  -12.9313   20.3288 N   0  0  0  0  0  0
  -25.9314  -11.6472   20.5730 N   0  0  0  0  0  0
  -22.0491  -12.8257   22.0405 N   0  0  0  0  0  0
  -25.4276  -15.1844   20.4065 N   0  0  0  0  0  0
  -31.6664  -15.0070   20.0918 O   0  0  0  0  0  0
  -21.6634   -6.8869   21.4235 O   0  0  0  0  0  0
  -22.3557  -14.5551   20.6687 O   0  0  0  0  0  0
  -24.6327  -31.8532   23.1953 C   0  0  0  0  0  0
  -25.9142  -32.4750   23.8322 C   0  0  1  0  0  0
  -27.2265  -27.2439   20.1489 C   0  0  0  0  0  0
  -25.5924  -33.8551   24.2247 N   0  0  0  0  0  0
  -23.4320  -30.4725   21.5396 C   0  0  2  0  0  0
  -24.8833  -28.9133   20.1148 C   0  0  0  0  0  0
  -22.7515  -29.4584   22.4908 C   0  0  0  0  0  0
  -18.0296  -28.1381   22.8485 C   0  0  0  0  0  0
  -24.1491  -36.7283   23.2641 C   0  0  0  0  0  0
  -25.9780  -30.7631   21.3767 C   0  0  0  0  0  0
  -26.0553  -29.3812   20.7242 C   0  0  0  0  0  0
  -27.2328  -28.5623   20.7237 C   0  0  0  0  0  0
  -26.0336  -26.8454   19.5099 C   0  0  0  0  0  0
  -24.8791  -27.6542   19.4932 C   0  0  0  0  0  0
  -23.6536  -29.8021   20.1578 C   0  0  0  0  0  0
  -25.4115  -36.3067   24.0326 C   0  0  1  0  0  0
  -20.5902  -28.3698   23.1265 C   0  0  2  0  0  0
  -20.6783  -26.9415   22.5404 C   0  0  0  0  0  0
  -19.5755  -26.6379   21.5211 C   0  0  0  0  0  0
  -18.1938  -26.7923   22.1630 C   0  0  0  0  0  0
  -19.1549  -28.8854   23.2870 C   0  0  0  0  0  0
  -18.9470  -30.1454   23.8893 C   0  0  0  0  0  0
  -17.6467  -30.6584   24.0557 C   0  0  0  0  0  0
  -25.9052  -34.9440   23.5093 C   0  0  0  0  0  0
  -16.5359  -29.9080   23.6327 C   0  0  0  0  0  0
  -16.7280  -28.6493   23.0357 C   0  0  0  0  0  0
  -26.4506  -31.6578   25.0717 C   0  0  0  0  0  0
  -25.3721  -31.3741   26.1436 C   0  0  0  0  0  0
  -27.0347  -30.2989   24.6211 C   0  0  0  0  0  0
  -27.6058  -32.4321   25.7488 C   0  0  0  0  0  0
  -27.5578  -37.1790   24.8464 C   0  0  0  0  0  0
  -21.4219  -29.3038   22.3648 N   0  0  0  0  0  0
  -26.4287  -37.3765   23.9412 N   0  0  0  0  0  0
  -24.7001  -31.0482   22.0937 N   0  0  0  0  0  0
  -23.4200  -28.8129   23.3024 O   0  0  0  0  0  0
  -28.3095  -26.3304   20.1691 O   0  0  0  0  0  0
  -26.5632  -34.8916   22.4669 O   0  0  0  0  0  0
  -23.5471  -32.1361   23.7234 O   0  0  0  0  0  0
  -27.9067  -19.1894   21.3790 C   0  0  0  0  0  0
  -29.8659  -18.3470   20.4393 C   0  0  0  0  0  0
  -29.0367  -19.5751   20.7025 C   0  0  0  0  0  0
  -29.3472  -17.1203   20.9291 C   0  0  0  0  0  0
  -28.8208  -23.6432   20.1613 C   0  0  0  0  0  0
  -28.7544  -22.1604   20.8598 C   0  0  0  0  0  0
  -28.0545  -24.9472   20.7359 C   0  0  0  0  0  0
  -31.0696  -18.3937   19.7233 N   0  0  0  0  0  0
  -28.1955  -22.1351   22.1024 N   0  0  0  0  0  0
  -29.6306  -15.7389   20.9495 N   0  0  0  0  0  0
  -29.2394  -20.9771   20.2662 N   0  3  0  0  0  0
  -29.4869  -23.7477   19.1261 O   0  0  0  0  0  0
  -27.8427  -17.4878   21.7384 S   0  0  0  0  0  0
  -31.4925  -12.6669   19.1525 H   0  0  0  0  0  0
  -30.4558  -11.4932   19.9168 H   0  0  0  0  0  0
  -29.8078  -11.7714   17.5059 H   0  0  0  0  0  0
  -29.6294  -13.4916   17.7291 H   0  0  0  0  0  0
  -27.9096  -11.2820   18.8999 H   0  0  0  0  0  0
  -27.3862  -12.5316   17.8024 H   0  0  0  0  0  0
  -27.6587  -14.2444   19.5052 H   0  0  0  0  0  0
  -28.7467  -12.0571   21.3497 H   0  0  0  0  0  0
  -28.4100  -13.6806   21.8618 H   0  0  0  0  0  0
  -25.2741   -9.5683   22.4757 H   0  0  0  0  0  0
  -23.9982   -7.4632   22.7473 H   0  0  0  0  0  0
  -21.0802   -8.8763   19.8958 H   0  0  0  0  0  0
  -22.3659  -10.9662   19.6169 H   0  0  0  0  0  0
  -21.2012   -7.6130   23.9698 H   0  0  0  0  0  0
  -21.1480   -6.0516   25.9067 H   0  0  0  0  0  0
  -22.0601   -2.7599   23.2845 H   0  0  0  0  0  0
  -22.4090  -11.9923   22.4810 H   0  0  0  0  0  0
  -21.1112  -13.1309   22.2608 H   0  0  0  0  0  0
  -24.6573  -15.8364   20.5092 H   0  0  0  0  0  0
  -26.2707  -15.6200   20.0564 H   0  0  0  0  0  0
  -26.7211  -32.5408   23.1067 H   0  0  0  0  0  0
  -25.0047  -33.9683   25.0377 H   0  0  0  0  0  0
  -22.7287  -31.2940   21.3899 H   0  0  0  0  0  0
  -23.3743  -35.9624   23.3304 H   0  0  0  0  0  0
  -24.3579  -36.8900   22.2052 H   0  0  0  0  0  0
  -23.7251  -37.6491   23.6658 H   0  0  0  0  0  0
  -26.1145  -31.5199   20.6032 H   0  0  0  0  0  0
  -26.8559  -30.8184   22.0088 H   0  0  0  0  0  0
  -28.1315  -28.9184   21.2090 H   0  0  0  0  0  0
  -25.9845  -25.8792   19.0292 H   0  0  0  0  0  0
  -23.9849  -27.2910   19.0065 H   0  0  0  0  0  0
  -23.7775  -30.5766   19.3994 H   0  0  0  0  0  0
  -22.7728  -29.2337   19.8541 H   0  0  0  0  0  0
  -25.1294  -36.1911   25.0815 H   0  0  0  0  0  0
  -20.9989  -28.3278   24.1388 H   0  0  0  0  0  0
  -20.5683  -26.2306   23.3610 H   0  0  0  0  0  0
  -21.6651  -26.7440   22.1196 H   0  0  0  0  0  0
  -19.6915  -25.6287   21.1248 H   0  0  0  0  0  0
  -19.6682  -27.3183   20.6735 H   0  0  0  0  0  0
  -17.4200  -26.6659   21.4043 H   0  0  0  0  0  0
  -18.0348  -26.0071   22.9035 H   0  0  0  0  0  0
  -19.7944  -30.7276   24.2263 H   0  0  0  0  0  0
  -17.5019  -31.6269   24.5155 H   0  0  0  0  0  0
  -15.5355  -30.2982   23.7648 H   0  0  0  0  0  0
  -15.8681  -28.0805   22.7084 H   0  0  0  0  0  0
  -24.5872  -30.7121   25.7760 H   0  0  0  0  0  0
  -24.8941  -32.2919   26.4871 H   0  0  0  0  0  0
  -25.8024  -30.8896   27.0212 H   0  0  0  0  0  0
  -26.2929  -29.6733   24.1229 H   0  0  0  0  0  0
  -27.4016  -29.7257   25.4736 H   0  0  0  0  0  0
  -27.8817  -30.4256   23.9463 H   0  0  0  0  0  0
  -27.2667  -33.3628   26.2054 H   0  0  0  0  0  0
  -28.3871  -32.6874   25.0313 H   0  0  0  0  0  0
  -28.0727  -31.8454   26.5412 H   0  0  0  0  0  0
  -28.2589  -38.0093   24.7517 H   0  0  0  0  0  0
  -28.1080  -36.2624   24.6280 H   0  0  0  0  0  0
  -27.2301  -37.1434   25.8869 H   0  0  0  0  0  0
  -20.9403  -29.8759   21.6852 H   0  0  0  0  0  0
  -26.0167  -38.2840   24.1404 H   0  0  0  0  0  0
  -27.0752  -19.8117   21.6808 H   0  0  0  0  0  0
  -28.2956  -25.0046   21.7974 H   0  0  0  0  0  0
  -26.9890  -24.7245   20.6997 H   0  0  0  0  0  0
  -31.7077  -19.1503   19.9481 H   0  0  0  0  0  0
  -31.5706  -17.5096   19.7021 H   0  0  0  0  0  0
  -27.8697  -22.9887   22.5399 H   0  0  0  0  0  0
  -28.2366  -21.2985   22.6742 H   0  0  0  0  0  0
  -28.8484  -15.2392   21.3439 H   0  0  0  0  0  0
  -29.8765  -21.0567   19.4904 H   0  0  0  0  0  0
  1 25  1  0  0  0
  1 30  2  0  0  0
  1 80  1  0  0  0
  2  3  1  0  0  0
  2 25  1  0  0  0
  2 84  1  0  0  0
  2 85  1  0  0  0
  3  4  1  0  0  0
  3 86  1  0  0  0
  3 87  1  0  0  0
  4  5  1  0  0  0
  4 88  1  0  0  0
  4 89  1  0  0  0
  5  6  1  0  0  0
  5 26  1  0  0  0
  5 90  1  0  0  0
  6 25  1  0  0  0
  6 91  1  0  0  0
  6 92  1  0  0  0
  7  8  2  0  0  0
  7 26  1  0  0  0
  7 29  1  0  0  0
  8  9  1  0  0  0
  8 22  1  0  0  0
  9 10  1  0  0  0
  9 27  2  0  0  0
 10 11  2  0  0  0
 10 15  1  0  0  0
 11 12  1  0  0  0
 11 93  1  0  0  0
 12 13  2  0  0  0
 12 94  1  0  0  0
 13 14  1  0  0  0
 13 31  1  0  0  0
 14 15  2  0  0  0
 14 95  1  0  0  0
 15 96  1  0  0  0
 16 17  2  0  0  0
 16 21  1  0  0  0
 16 31  1  0  0  0
 17 18  1  0  0  0
 17 97  1  0  0  0
 18 19  2  0  0  0
 18 98  1  0  0  0
 19 20  1  0  0  0
 19 24  1  0  0  0
 20 21  2  0  0  0
 20 99  1  0  0  0
 21 23  1  0  0  0
 22 28  1  0  0  0
 22 32  2  0  0  0
 26 27  1  0  0  0
 28100  1  0  0  0
 28101  1  0  0  0
 29102  1  0  0  0
 29103  1  0  0  0
 33 34  1  0  0  0
 33 66  1  0  0  0
 33 70  2  0  0  0
 34 36  1  0  0  0
 34 59  1  0  0  0
 34104  1  0  0  0
 35 44  2  0  0  0
 35 45  1  0  0  0
 35 68  1  0  0  0
 36 56  1  0  0  0
 36105  1  0  0  0
 37 39  1  0  0  0
 37 47  1  0  0  0
 37 66  1  0  0  0
 37106  1  0  0  0
 38 43  2  0  0  0
 38 46  1  0  0  0
 38 47  1  0  0  0
 39 64  1  0  0  0
 39 67  2  0  0  0
 40 52  1  0  0  0
 40 53  2  0  0  0
 40 58  1  0  0  0
 41107  1  0  0  0
 41108  1  0  0  0
 41109  1  0  0  0
 41 48  1  0  0  0
 42 43  1  0  0  0
 42 66  1  0  0  0
 42110  1  0  0  0
 42111  1  0  0  0
 43 44  1  0  0  0
 44112  1  0  0  0
 45 46  2  0  0  0
 45113  1  0  0  0
 46114  1  0  0  0
 47115  1  0  0  0
 47116  1  0  0  0
 48 56  1  0  0  0
 48 65  1  0  0  0
 48117  1  0  0  0
 49 50  1  0  0  0
 49 53  1  0  0  0
 49 64  1  0  0  0
 49118  1  0  0  0
 50 51  1  0  0  0
 50119  1  0  0  0
 50120  1  0  0  0
 51 52  1  0  0  0
 51121  1  0  0  0
 51122  1  0  0  0
 52123  1  0  0  0
 52124  1  0  0  0
 53 54  1  0  0  0
 54 55  2  0  0  0
 54125  1  0  0  0
 55 57  1  0  0  0
 55126  1  0  0  0
 56 69  2  0  0  0
 57 58  2  0  0  0
 57127  1  0  0  0
 58128  1  0  0  0
 59 60  1  0  0  0
 59 61  1  0  0  0
 59 62  1  0  0  0
 60129  1  0  0  0
 60130  1  0  0  0
 60131  1  0  0  0
 61132  1  0  0  0
 61133  1  0  0  0
 61134  1  0  0  0
 62135  1  0  0  0
 62136  1  0  0  0
 62137  1  0  0  0
 63 65  1  0  0  0
 63138  1  0  0  0
 63139  1  0  0  0
 63140  1  0  0  0
 64141  1  0  0  0
 65142  1  0  0  0
 68 77  1  0  0  0
 71 73  2  0  0  0
 71 83  1  0  0  0
 71143  1  0  0  0
 72 73  1  0  0  0
 72 74  2  0  0  0
 72 78  1  0  0  0
 73 81  1  0  0  0
 74 80  1  0  0  0
 74 83  1  0  0  0
 75 76  1  0  0  0
 75 77  1  0  0  0
 75 82  2  0  0  0
 76 79  1  0  0  0
 76 81  2  0  0  0
 77144  1  0  0  0
 77145  1  0  0  0
 78146  1  0  0  0
 78147  1  0  0  0
 79148  1  0  0  0
 79149  1  0  0  0
 80150  1  0  0  0
 81151  1  0  0  0
M  CHG  1  81   1
M  ISO  4   1 100  68 101  77 101  80 100
M  END
> <chiral flag>
0

> <version>
0

> <s_m_source_file>
/data/baiqing/PycharmProjects/Reinvent-master-3.2/result/LINK_invent/BTK/process_docking_weight1_custom_product_contain_oxygen_bond_distance_aromatic_linkinvent_7_9_3/rearranged_h_0156.sdf

> <i_m_source_file_index>
12

> <r_mmod_Potential_Energy-OPLS-2005>
11.0045080184937

> <r_mmod_Stretch_Energy-OPLS-2005>
142.955047607422

> <r_mmod_Bend_Energy-OPLS-2005>
219.884368896484

> <r_mmod_Torsional_Energy-OPLS-2005>
235.412185668945

> <r_mmod_Improper_Torsional_Energy-OPLS-2005>
8.64557361602783

> <r_mmod_Van_der_Waal_Energy-OPLS-2005>
113.600639343262

> <r_mmod_Electrostatic_Energy-OPLS-2005>
-288.926910400391

> <r_mmod_Solvation_Energy-OPLS-2005>
-521.970397949219

> <b_mmod_Minimization_Converged-OPLS-2005>
0

> <r_mmod_RMS_Derivative-OPLS-2005>
1.56426334381104

$$$$
12
                    3D
 Structure written by MMmdl.
153161  0  0  1  0            999 V2000
  -30.6977  -14.6376   20.5152 C   0  0  0  0  0  0
  -30.4184  -12.3998   19.4753 C   0  0  0  0  0  0
  -29.5068  -12.5035   18.2357 C   0  0  0  0  0  0
  -28.0342  -12.3303   18.6477 C   0  0  0  0  0  0
  -27.6436  -13.2320   19.8503 C   0  0  2  0  0  0
  -28.6855  -13.1514   20.9908 C   0  0  0  0  0  0
  -25.2517  -13.8219   20.5689 C   0  0  0  0  0  0
  -24.1797  -13.0459   20.9173 C   0  0  0  0  0  0
  -24.6392  -11.6936   20.8723 C   0  0  0  0  0  0
  -23.9070  -10.4303   21.0380 C   0  0  0  0  0  0
  -24.3611   -9.4218   21.9155 C   0  0  0  0  0  0
  -23.6293   -8.2249   22.0740 C   0  0  0  0  0  0
  -22.4284   -8.0268   21.3528 C   0  0  0  0  0  0
  -21.9907   -9.0244   20.4633 C   0  0  0  0  0  0
  -22.7232  -10.2125   20.3031 C   0  0  0  0  0  0
  -21.6867   -6.0724   22.5279 C   0  0  0  0  0  0
  -21.4029   -6.5630   23.8201 C   0  0  0  0  0  0
  -21.3668   -5.6780   24.9171 C   0  0  0  0  0  0
  -21.6051   -4.3048   24.7223 C   0  0  0  0  0  0
  -21.8814   -3.8130   23.4341 C   0  0  0  0  0  0
  -21.9197   -4.6951   22.3401 C   0  0  0  0  0  0
  -22.7812  -13.5233   21.1844 C   0  0  0  0  0  0
  -22.1649   -4.2129   21.0976 F   0  0  0  0  0  0
  -21.5636   -3.4535   25.7735 F   0  0  0  0  0  0
  -30.0038  -13.4590   20.4199 N   0  0  0  0  0  0
  -26.2945  -12.9429   20.3268 N   0  0  0  0  0  0
  -25.9327  -11.6561   20.5735 N   0  0  0  0  0  0
  -22.0469  -12.8219   22.0415 N   0  0  0  0  0  0
  -25.4219  -15.1935   20.4136 N   0  0  0  0  0  0
  -31.8667  -14.7047   20.1313 O   0  0  0  0  0  0
  -21.6645   -6.8869   21.4233 O   0  0  0  0  0  0
  -22.3475  -14.5515   20.6678 O   0  0  0  0  0  0
  -24.6287  -31.8592   23.2014 C   0  0  0  0  0  0
  -25.9126  -32.4781   23.8346 C   0  0  1  0  0  0
  -27.2296  -27.3216   20.1038 C   0  0  0  0  0  0
  -25.5931  -33.8576   24.2279 N   0  0  0  0  0  0
  -23.4230  -30.4840   21.5441 C   0  0  2  0  0  0
  -24.8691  -28.9418   20.1092 C   0  0  0  0  0  0
  -22.7487  -29.4633   22.4929 C   0  0  0  0  0  0
  -18.0287  -28.1382   22.8489 C   0  0  0  0  0  0
  -24.1479  -36.7298   23.2637 C   0  0  0  0  0  0
  -25.9638  -30.7910   21.3722 C   0  0  0  0  0  0
  -26.0382  -29.4182   20.7146 C   0  0  0  0  0  0
  -27.2199  -28.6185   20.7056 C   0  0  0  0  0  0
  -26.0379  -26.9117   19.4584 C   0  0  0  0  0  0
  -24.8702  -27.6935   19.4734 C   0  0  0  0  0  0
  -23.6372  -29.8184   20.1598 C   0  0  0  0  0  0
  -25.4106  -36.3085   24.0329 C   0  0  1  0  0  0
  -20.5892  -28.3694   23.1274 C   0  0  2  0  0  0
  -20.6767  -26.9419   22.5399 C   0  0  0  0  0  0
  -19.5738  -26.6385   21.5207 C   0  0  0  0  0  0
  -18.1924  -26.7928   22.1629 C   0  0  0  0  0  0
  -19.1540  -28.8858   23.2876 C   0  0  0  0  0  0
  -18.9466  -30.1460   23.8900 C   0  0  0  0  0  0
  -17.6463  -30.6583   24.0570 C   0  0  0  0  0  0
  -25.9054  -34.9456   23.5109 C   0  0  0  0  0  0
  -16.5355  -29.9085   23.6326 C   0  0  0  0  0  0
  -16.7279  -28.6502   23.0358 C   0  0  0  0  0  0
  -26.4503  -31.6586   25.0715 C   0  0  0  0  0  0
  -25.3744  -31.3732   26.1451 C   0  0  0  0  0  0
  -27.0334  -30.3007   24.6163 C   0  0  0  0  0  0
  -27.6047  -32.4327   25.7493 C   0  0  0  0  0  0
  -27.5580  -37.1802   24.8469 C   0  0  0  0  0  0
  -21.4199  -29.3049   22.3662 N   0  0  0  0  0  0
  -26.4288  -37.3782   23.9416 N   0  0  0  0  0  0
  -24.6909  -31.0616   22.0965 N   0  0  0  0  0  0
  -23.4210  -28.8171   23.3010 O   0  0  0  0  0  0
  -28.3426  -26.4610   20.1634 O   0  0  0  0  0  0
  -26.5616  -34.8927   22.4671 O   0  0  0  0  0  0
  -23.5451  -32.1373   23.7348 O   0  0  0  0  0  0
  -30.8736  -19.6900   21.1754 C   0  0  0  0  0  0
  -30.4318  -21.0197   20.9290 C   0  0  0  0  0  0
  -30.0956  -18.5538   20.8108 C   0  0  0  0  0  0
  -29.1812  -21.2268   20.3176 C   0  0  0  0  0  0
  -28.8695  -18.8767   20.1816 C   0  0  0  0  0  0
  -30.7043  -17.1238   21.1203 C   0  0  0  0  0  0
  -29.1189  -23.8728   20.3465 C   0  0  0  0  0  0
  -28.1221  -25.0232   19.8739 C   0  0  0  0  0  0
  -28.4328  -20.1502   19.9597 N   0  0  0  0  0  0
  -28.0249  -17.8841   19.7165 N   0  0  0  0  0  0
  -28.6232  -22.5014   20.0090 N   0  0  0  0  0  0
  -30.0388  -15.7831   20.8906 N   0  0  0  0  0  0
  -31.4659  -12.4846   19.1836 H   0  0  0  0  0  0
  -30.3242  -11.4213   19.9465 H   0  0  0  0  0  0
  -29.7827  -11.7427   17.5050 H   0  0  0  0  0  0
  -29.6450  -13.4689   17.7449 H   0  0  0  0  0  0
  -27.8946  -11.2824   18.9163 H   0  0  0  0  0  0
  -27.3773  -12.5141   17.7969 H   0  0  0  0  0  0
  -27.6438  -14.2557   19.4732 H   0  0  0  0  0  0
  -28.6908  -12.1573   21.4410 H   0  0  0  0  0  0
  -28.4269  -13.8449   21.7926 H   0  0  0  0  0  0
  -25.2756   -9.5702   22.4736 H   0  0  0  0  0  0
  -24.0000   -7.4652   22.7474 H   0  0  0  0  0  0
  -21.0838   -8.8768   19.8945 H   0  0  0  0  0  0
  -22.3690  -10.9656   19.6135 H   0  0  0  0  0  0
  -21.2014   -7.6137   23.9708 H   0  0  0  0  0  0
  -21.1505   -6.0511   25.9076 H   0  0  0  0  0  0
  -22.0588   -2.7593   23.2849 H   0  0  0  0  0  0
  -22.4101  -11.9905   22.4834 H   0  0  0  0  0  0
  -21.1076  -13.1219   22.2607 H   0  0  0  0  0  0
  -24.6611  -15.8527   20.5358 H   0  0  0  0  0  0
  -26.2870  -15.6441   20.1426 H   0  0  0  0  0  0
  -26.7203  -32.5461   23.1102 H   0  0  0  0  0  0
  -25.0061  -33.9699   25.0419 H   0  0  0  0  0  0
  -22.7187  -31.3054   21.4003 H   0  0  0  0  0  0
  -23.3735  -35.9641   23.3301 H   0  0  0  0  0  0
  -24.3569  -36.8913   22.2054 H   0  0  0  0  0  0
  -23.7243  -37.6505   23.6656 H   0  0  0  0  0  0
  -26.0931  -31.5520   20.6011 H   0  0  0  0  0  0
  -26.8481  -30.8440   21.9966 H   0  0  0  0  0  0
  -28.1175  -28.9811   21.1873 H   0  0  0  0  0  0
  -25.9727  -25.9684   18.9382 H   0  0  0  0  0  0
  -23.9779  -27.3272   18.9853 H   0  0  0  0  0  0
  -23.7551  -30.5935   19.4013 H   0  0  0  0  0  0
  -22.7589  -29.2426   19.8612 H   0  0  0  0  0  0
  -25.1283  -36.1930   25.0824 H   0  0  0  0  0  0
  -20.9991  -28.3268   24.1392 H   0  0  0  0  0  0
  -20.5652  -26.2319   23.3602 H   0  0  0  0  0  0
  -21.6641  -26.7424   22.1211 H   0  0  0  0  0  0
  -19.6897  -25.6296   21.1235 H   0  0  0  0  0  0
  -19.6670  -27.3198   20.6740 H   0  0  0  0  0  0
  -17.4192  -26.6679   21.4029 H   0  0  0  0  0  0
  -18.0331  -26.0059   22.9021 H   0  0  0  0  0  0
  -19.7945  -30.7272   24.2267 H   0  0  0  0  0  0
  -17.5024  -31.6264   24.5178 H   0  0  0  0  0  0
  -15.5360  -30.2999   23.7641 H   0  0  0  0  0  0
  -15.8674  -28.0822   22.7075 H   0  0  0  0  0  0
  -24.5914  -30.7074   25.7804 H   0  0  0  0  0  0
  -24.8943  -32.2907   26.4871 H   0  0  0  0  0  0
  -25.8085  -30.8927   27.0230 H   0  0  0  0  0  0
  -26.2900  -29.6761   24.1196 H   0  0  0  0  0  0
  -27.4038  -29.7254   25.4657 H   0  0  0  0  0  0
  -27.8770  -30.4275   23.9372 H   0  0  0  0  0  0
  -27.2631  -33.3619   26.2067 H   0  0  0  0  0  0
  -28.3866  -32.6907   25.0337 H   0  0  0  0  0  0
  -28.0710  -31.8461   26.5417 H   0  0  0  0  0  0
  -28.2603  -38.0091   24.7507 H   0  0  0  0  0  0
  -28.1057  -36.2622   24.6294 H   0  0  0  0  0  0
  -27.2295  -37.1470   25.8869 H   0  0  0  0  0  0
  -20.9380  -29.8799   21.6892 H   0  0  0  0  0  0
  -26.0159  -38.2855   24.1411 H   0  0  0  0  0  0
  -31.8360  -19.5425   21.6438 H   0  0  0  0  0  0
  -31.0624  -21.8537   21.2036 H   0  0  0  0  0  0
  -31.6722  -17.1221   20.6144 H   0  0  0  0  0  0
  -30.9487  -17.1444   22.1834 H   0  0  0  0  0  0
  -29.2604  -23.9358   21.4266 H   0  0  0  0  0  0
  -30.1015  -24.0203   19.8954 H   0  0  0  0  0  0
  -27.1611  -24.7386   20.3041 H   0  0  0  0  0  0
  -28.0146  -24.9371   18.7914 H   0  0  0  0  0  0
  -28.4833  -17.0162   19.4779 H   0  0  0  0  0  0
  -27.3510  -18.1754   19.0200 H   0  0  0  0  0  0
  -27.7297  -22.4683   19.5302 H   0  0  0  0  0  0
  -29.0865  -15.6756   21.2049 H   0  0  0  0  0  0
  1 25  1  0  0  0
  1 30  2  0  0  0
  1 82  1  0  0  0
  2  3  1  0  0  0
  2 25  1  0  0  0
  2 83  1  0  0  0
  2 84  1  0  0  0
  3  4  1  0  0  0
  3 85  1  0  0  0
  3 86  1  0  0  0
  4  5  1  0  0  0
  4 87  1  0  0  0
  4 88  1  0  0  0
  5  6  1  0  0  0
  5 26  1  0  0  0
  5 89  1  0  0  0
  6 25  1  0  0  0
  6 90  1  0  0  0
  6 91  1  0  0  0
  7  8  2  0  0  0
  7 26  1  0  0  0
  7 29  1  0  0  0
  8  9  1  0  0  0
  8 22  1  0  0  0
  9 10  1  0  0  0
  9 27  2  0  0  0
 10 11  2  0  0  0
 10 15  1  0  0  0
 11 12  1  0  0  0
 11 92  1  0  0  0
 12 13  2  0  0  0
 12 93  1  0  0  0
 13 14  1  0  0  0
 13 31  1  0  0  0
 14 15  2  0  0  0
 14 94  1  0  0  0
 15 95  1  0  0  0
 16 17  2  0  0  0
 16 21  1  0  0  0
 16 31  1  0  0  0
 17 18  1  0  0  0
 17 96  1  0  0  0
 18 19  2  0  0  0
 18 97  1  0  0  0
 19 20  1  0  0  0
 19 24  1  0  0  0
 20 21  2  0  0  0
 20 98  1  0  0  0
 21 23  1  0  0  0
 22 28  1  0  0  0
 22 32  2  0  0  0
 26 27  1  0  0  0
 28 99  1  0  0  0
 28100  1  0  0  0
 29101  1  0  0  0
 29102  1  0  0  0
 33 34  1  0  0  0
 33 66  1  0  0  0
 33 70  2  0  0  0
 34 36  1  0  0  0
 34 59  1  0  0  0
 34103  1  0  0  0
 35 44  2  0  0  0
 35 45  1  0  0  0
 35 68  1  0  0  0
 36 56  1  0  0  0
 36104  1  0  0  0
 37 39  1  0  0  0
 37 47  1  0  0  0
 37 66  1  0  0  0
 37105  1  0  0  0
 38 43  2  0  0  0
 38 46  1  0  0  0
 38 47  1  0  0  0
 39 64  1  0  0  0
 39 67  2  0  0  0
 40 52  1  0  0  0
 40 53  2  0  0  0
 40 58  1  0  0  0
 41106  1  0  0  0
 41107  1  0  0  0
 41108  1  0  0  0
 41 48  1  0  0  0
 42 43  1  0  0  0
 42 66  1  0  0  0
 42109  1  0  0  0
 42110  1  0  0  0
 43 44  1  0  0  0
 44111  1  0  0  0
 45 46  2  0  0  0
 45112  1  0  0  0
 46113  1  0  0  0
 47114  1  0  0  0
 47115  1  0  0  0
 48 56  1  0  0  0
 48 65  1  0  0  0
 48116  1  0  0  0
 49 50  1  0  0  0
 49 53  1  0  0  0
 49 64  1  0  0  0
 49117  1  0  0  0
 50 51  1  0  0  0
 50118  1  0  0  0
 50119  1  0  0  0
 51 52  1  0  0  0
 51120  1  0  0  0
 51121  1  0  0  0
 52122  1  0  0  0
 52123  1  0  0  0
 53 54  1  0  0  0
 54 55  2  0  0  0
 54124  1  0  0  0
 55 57  1  0  0  0
 55125  1  0  0  0
 56 69  2  0  0  0
 57 58  2  0  0  0
 57126  1  0  0  0
 58127  1  0  0  0
 59 60  1  0  0  0
 59 61  1  0  0  0
 59 62  1  0  0  0
 60128  1  0  0  0
 60129  1  0  0  0
 60130  1  0  0  0
 61131  1  0  0  0
 61132  1  0  0  0
 61133  1  0  0  0
 62134  1  0  0  0
 62135  1  0  0  0
 62136  1  0  0  0
 63 65  1  0  0  0
 63137  1  0  0  0
 63138  1  0  0  0
 63139  1  0  0  0
 64140  1  0  0  0
 65141  1  0  0  0
 68 78  1  0  0  0
 71 72  2  0  0  0
 71 73  1  0  0  0
 71142  1  0  0  0
 72 74  1  0  0  0
 72143  1  0  0  0
 73 75  2  0  0  0
 73 76  1  0  0  0
 74 79  2  0  0  0
 74 81  1  0  0  0
 75 79  1  0  0  0
 75 80  1  0  0  0
 76 82  1  0  0  0
 76144  1  0  0  0
 76145  1  0  0  0
 77 78  1  0  0  0
 77 81  1  0  0  0
 77146  1  0  0  0
 77147  1  0  0  0
 78148  1  0  0  0
 78149  1  0  0  0
 80150  1  0  0  0
 80151  1  0  0  0
 81152  1  0  0  0
 82153  1  0  0  0
M  ISO  4   1 100  68 101  78 101  82 100
M  END
> <chiral flag>
0

> <version>
0

> <s_m_source_file>
/data/baiqing/PycharmProjects/Reinvent-master-3.2/result/LINK_invent/BTK/process_docking_weight1_custom_product_contain_oxygen_bond_distance_aromatic_linkinvent_7_9_3/rearranged_h_0156.sdf

> <i_m_source_file_index>
13

> <r_mmod_Potential_Energy-OPLS-2005>
-231.570907592773

> <r_mmod_Stretch_Energy-OPLS-2005>
77.4621658325195

> <r_mmod_Bend_Energy-OPLS-2005>
177.365295410156

> <r_mmod_Torsional_Energy-OPLS-2005>
189.496856689453

> <r_mmod_Improper_Torsional_Energy-OPLS-2005>
7.87286329269409

> <r_mmod_Van_der_Waal_Energy-OPLS-2005>
150.795593261719

> <r_mmod_Electrostatic_Energy-OPLS-2005>
-648.291259765625

> <r_mmod_Solvation_Energy-OPLS-2005>
-238.445373535156

> <b_mmod_Minimization_Converged-OPLS-2005>
0

> <r_mmod_RMS_Derivative-OPLS-2005>
2.50643038749695

$$$$
13
                    3D
 Structure written by MMmdl.
148156  0  0  1  0            999 V2000
  -30.5902  -14.7894   20.4505 C   0  0  0  0  0  0
  -30.4374  -12.4795   19.4876 C   0  0  0  0  0  0
  -29.5167  -12.5175   18.2464 C   0  0  0  0  0  0
  -28.0433  -12.3330   18.6570 C   0  0  0  0  0  0
  -27.6433  -13.2352   19.8545 C   0  0  2  0  0  0
  -28.6864  -13.1786   20.9932 C   0  0  0  0  0  0
  -25.2514  -13.8200   20.5697 C   0  0  0  0  0  0
  -24.1807  -13.0440   20.9205 C   0  0  0  0  0  0
  -24.6400  -11.6920   20.8745 C   0  0  0  0  0  0
  -23.9073  -10.4295   21.0406 C   0  0  0  0  0  0
  -24.3625   -9.4207   21.9183 C   0  0  0  0  0  0
  -23.6299   -8.2243   22.0753 C   0  0  0  0  0  0
  -22.4279   -8.0282   21.3543 C   0  0  0  0  0  0
  -21.9915   -9.0257   20.4648 C   0  0  0  0  0  0
  -22.7245  -10.2137   20.3056 C   0  0  0  0  0  0
  -21.6853   -6.0739   22.5281 C   0  0  0  0  0  0
  -21.4015   -6.5641   23.8215 C   0  0  0  0  0  0
  -21.3659   -5.6792   24.9175 C   0  0  0  0  0  0
  -21.6046   -4.3057   24.7225 C   0  0  0  0  0  0
  -21.8818   -3.8148   23.4345 C   0  0  0  0  0  0
  -21.9193   -4.6966   22.3403 C   0  0  0  0  0  0
  -22.7827  -13.5221   21.1868 C   0  0  0  0  0  0
  -22.1660   -4.2151   21.0980 F   0  0  0  0  0  0
  -21.5630   -3.4538   25.7737 F   0  0  0  0  0  0
  -29.9875  -13.5454   20.4177 N   0  0  0  0  0  0
  -26.2947  -12.9413   20.3294 N   0  0  0  0  0  0
  -25.9335  -11.6552   20.5757 N   0  0  0  0  0  0
  -22.0476  -12.8215   22.0428 N   0  0  0  0  0  0
  -25.4195  -15.1925   20.4109 N   0  0  0  0  0  0
  -31.7691  -14.8895   20.0937 O   0  0  0  0  0  0
  -21.6642   -6.8881   21.4241 O   0  0  0  0  0  0
  -22.3510  -14.5522   20.6710 O   0  0  0  0  0  0
  -24.6348  -31.8525   23.1971 C   0  0  0  0  0  0
  -25.9160  -32.4737   23.8327 C   0  0  1  0  0  0
  -27.2160  -27.2220   20.1298 C   0  0  0  0  0  0
  -25.5945  -33.8544   24.2243 N   0  0  0  0  0  0
  -23.4336  -30.4757   21.5408 C   0  0  2  0  0  0
  -24.8813  -28.9210   20.1073 C   0  0  0  0  0  0
  -22.7524  -29.4590   22.4892 C   0  0  0  0  0  0
  -18.0297  -28.1391   22.8480 C   0  0  0  0  0  0
  -24.1492  -36.7276   23.2640 C   0  0  0  0  0  0
  -25.9837  -30.7502   21.3873 C   0  0  0  0  0  0
  -26.0535  -29.3705   20.7275 C   0  0  0  0  0  0
  -27.2197  -28.5316   20.7332 C   0  0  0  0  0  0
  -26.0245  -26.8659   19.4548 C   0  0  0  0  0  0
  -24.8748  -27.6786   19.4593 C   0  0  0  0  0  0
  -23.6547  -29.8125   20.1563 C   0  0  0  0  0  0
  -25.4120  -36.3061   24.0323 C   0  0  1  0  0  0
  -20.5905  -28.3710   23.1255 C   0  0  2  0  0  0
  -20.6784  -26.9422   22.5406 C   0  0  0  0  0  0
  -19.5758  -26.6383   21.5212 C   0  0  0  0  0  0
  -18.1939  -26.7931   22.1625 C   0  0  0  0  0  0
  -19.1552  -28.8867   23.2862 C   0  0  0  0  0  0
  -18.9470  -30.1464   23.8885 C   0  0  0  0  0  0
  -17.6468  -30.6590   24.0561 C   0  0  0  0  0  0
  -25.9065  -34.9431   23.5087 C   0  0  0  0  0  0
  -16.5359  -29.9085   23.6332 C   0  0  0  0  0  0
  -16.7283  -28.6504   23.0353 C   0  0  0  0  0  0
  -26.4511  -31.6578   25.0735 C   0  0  0  0  0  0
  -25.3720  -31.3748   26.1448 C   0  0  0  0  0  0
  -27.0363  -30.2982   24.6266 C   0  0  0  0  0  0
  -27.6059  -32.4330   25.7507 C   0  0  0  0  0  0
  -27.5580  -37.1794   24.8464 C   0  0  0  0  0  0
  -21.4227  -29.3050   22.3638 N   0  0  0  0  0  0
  -26.4291  -37.3763   23.9408 N   0  0  0  0  0  0
  -24.7029  -31.0454   22.0971 N   0  0  0  0  0  0
  -23.4206  -28.8128   23.3004 O   0  0  0  0  0  0
  -28.2890  -26.2886   20.2247 O   0  0  0  0  0  0
  -26.5640  -34.8910   22.4658 O   0  0  0  0  0  0
  -23.5488  -32.1371   23.7238 O   0  0  0  0  0  0
  -30.7933  -17.8575   19.5119 C   0  0  0  0  0  0
  -30.5476  -19.2830   19.4765 C   0  0  0  0  0  0
  -29.9596  -17.2913   20.4495 C   0  0  0  0  0  0
  -29.5756  -19.5691   20.3999 C   0  0  0  0  0  0
  -28.8361  -23.6261   20.5672 C   0  0  0  0  0  0
  -28.9935  -22.1466   19.9162 C   0  0  0  0  0  0
  -28.1000  -24.8393   19.7919 C   0  0  0  0  0  0
  -29.8123  -15.9128   20.7439 N   0  0  0  0  0  0
  -29.0558  -20.8816   20.7809 N   0  0  0  0  0  0
  -29.2768  -23.8150   21.7060 O   0  0  0  0  0  0
  -29.1959  -18.3492   21.0088 O   0  0  0  0  0  0
  -31.4782  -12.6063   19.1860 H   0  0  0  0  0  0
  -30.3883  -11.5044   19.9747 H   0  0  0  0  0  0
  -29.8074  -11.7426   17.5358 H   0  0  0  0  0  0
  -29.6371  -13.4698   17.7275 H   0  0  0  0  0  0
  -27.9066  -11.2845   18.9245 H   0  0  0  0  0  0
  -27.3859  -12.5181   17.8065 H   0  0  0  0  0  0
  -27.6350  -14.2556   19.4706 H   0  0  0  0  0  0
  -28.7296  -12.1810   21.4326 H   0  0  0  0  0  0
  -28.4109  -13.8547   21.8039 H   0  0  0  0  0  0
  -25.2771   -9.5683   22.4759 H   0  0  0  0  0  0
  -24.0009   -7.4631   22.7471 H   0  0  0  0  0  0
  -21.0845   -8.8776   19.8956 H   0  0  0  0  0  0
  -22.3700  -10.9677   19.6168 H   0  0  0  0  0  0
  -21.2007   -7.6149   23.9717 H   0  0  0  0  0  0
  -21.1485   -6.0524   25.9079 H   0  0  0  0  0  0
  -22.0597   -2.7609   23.2843 H   0  0  0  0  0  0
  -22.4095  -11.9877   22.4823 H   0  0  0  0  0  0
  -21.1093  -13.1239   22.2636 H   0  0  0  0  0  0
  -24.6489  -15.8433   20.5168 H   0  0  0  0  0  0
  -26.2630  -15.6334   20.0672 H   0  0  0  0  0  0
  -26.7225  -32.5369   23.1062 H   0  0  0  0  0  0
  -25.0083  -33.9677   25.0383 H   0  0  0  0  0  0
  -22.7320  -31.2995   21.3940 H   0  0  0  0  0  0
  -23.3756  -35.9607   23.3297 H   0  0  0  0  0  0
  -24.3580  -36.8908   22.2056 H   0  0  0  0  0  0
  -23.7244  -37.6473   23.6672 H   0  0  0  0  0  0
  -26.1328  -31.5091   20.6179 H   0  0  0  0  0  0
  -26.8577  -30.7959   22.0257 H   0  0  0  0  0  0
  -28.1101  -28.8654   21.2474 H   0  0  0  0  0  0
  -25.9357  -25.9340   18.9192 H   0  0  0  0  0  0
  -23.9821  -27.3354   18.9548 H   0  0  0  0  0  0
  -23.7845  -30.5904   19.4031 H   0  0  0  0  0  0
  -22.7716  -29.2503   19.8472 H   0  0  0  0  0  0
  -25.1302  -36.1902   25.0815 H   0  0  0  0  0  0
  -20.9996  -28.3293   24.1377 H   0  0  0  0  0  0
  -20.5682  -26.2324   23.3617 H   0  0  0  0  0  0
  -21.6651  -26.7441   22.1202 H   0  0  0  0  0  0
  -19.6921  -25.6290   21.1251 H   0  0  0  0  0  0
  -19.6693  -27.3185   20.6734 H   0  0  0  0  0  0
  -17.4208  -26.6674   21.4029 H   0  0  0  0  0  0
  -18.0343  -26.0076   22.9026 H   0  0  0  0  0  0
  -19.7946  -30.7283   24.2250 H   0  0  0  0  0  0
  -17.5023  -31.6268   24.5167 H   0  0  0  0  0  0
  -15.5360  -30.2984   23.7661 H   0  0  0  0  0  0
  -15.8684  -28.0818   22.7075 H   0  0  0  0  0  0
  -24.5895  -30.7098   25.7775 H   0  0  0  0  0  0
  -24.8914  -32.2924   26.4850 H   0  0  0  0  0  0
  -25.8023  -30.8938   27.0241 H   0  0  0  0  0  0
  -26.2962  -29.6721   24.1269 H   0  0  0  0  0  0
  -27.3992  -29.7260   25.4814 H   0  0  0  0  0  0
  -27.8865  -30.4232   23.9558 H   0  0  0  0  0  0
  -27.2663  -33.3637   26.2062 H   0  0  0  0  0  0
  -28.3878  -32.6878   25.0342 H   0  0  0  0  0  0
  -28.0719  -31.8473   26.5441 H   0  0  0  0  0  0
  -28.2593  -38.0096   24.7513 H   0  0  0  0  0  0
  -28.1081  -36.2627   24.6286 H   0  0  0  0  0  0
  -27.2300  -37.1438   25.8868 H   0  0  0  0  0  0
  -20.9420  -29.8775   21.6839 H   0  0  0  0  0  0
  -26.0166  -38.2835   24.1408 H   0  0  0  0  0  0
  -31.5015  -17.3181   18.8987 H   0  0  0  0  0  0
  -31.0489  -20.0075   18.8510 H   0  0  0  0  0  0
  -29.8922  -22.1766   19.2996 H   0  0  0  0  0  0
  -28.1664  -22.0248   19.2159 H   0  0  0  0  0  0
  -27.0496  -24.5720   19.8791 H   0  0  0  0  0  0
  -28.3497  -24.7657   18.7337 H   0  0  0  0  0  0
  -28.9279  -15.6770   21.1667 H   0  0  0  0  0  0
  -28.3997  -20.8953   21.5581 H   0  0  0  0  0  0
  1 25  1  0  0  0
  1 30  2  0  0  0
  1 78  1  0  0  0
  2  3  1  0  0  0
  2 25  1  0  0  0
  2 82  1  0  0  0
  2 83  1  0  0  0
  3  4  1  0  0  0
  3 84  1  0  0  0
  3 85  1  0  0  0
  4  5  1  0  0  0
  4 86  1  0  0  0
  4 87  1  0  0  0
  5  6  1  0  0  0
  5 26  1  0  0  0
  5 88  1  0  0  0
  6 25  1  0  0  0
  6 89  1  0  0  0
  6 90  1  0  0  0
  7  8  2  0  0  0
  7 26  1  0  0  0
  7 29  1  0  0  0
  8  9  1  0  0  0
  8 22  1  0  0  0
  9 10  1  0  0  0
  9 27  2  0  0  0
 10 11  2  0  0  0
 10 15  1  0  0  0
 11 12  1  0  0  0
 11 91  1  0  0  0
 12 13  2  0  0  0
 12 92  1  0  0  0
 13 14  1  0  0  0
 13 31  1  0  0  0
 14 15  2  0  0  0
 14 93  1  0  0  0
 15 94  1  0  0  0
 16 17  2  0  0  0
 16 21  1  0  0  0
 16 31  1  0  0  0
 17 18  1  0  0  0
 17 95  1  0  0  0
 18 19  2  0  0  0
 18 96  1  0  0  0
 19 20  1  0  0  0
 19 24  1  0  0  0
 20 21  2  0  0  0
 20 97  1  0  0  0
 21 23  1  0  0  0
 22 28  1  0  0  0
 22 32  2  0  0  0
 26 27  1  0  0  0
 28 98  1  0  0  0
 28 99  1  0  0  0
 29100  1  0  0  0
 29101  1  0  0  0
 33 34  1  0  0  0
 33 66  1  0  0  0
 33 70  2  0  0  0
 34 36  1  0  0  0
 34 59  1  0  0  0
 34102  1  0  0  0
 35 44  2  0  0  0
 35 45  1  0  0  0
 35 68  1  0  0  0
 36 56  1  0  0  0
 36103  1  0  0  0
 37 39  1  0  0  0
 37 47  1  0  0  0
 37 66  1  0  0  0
 37104  1  0  0  0
 38 43  2  0  0  0
 38 46  1  0  0  0
 38 47  1  0  0  0
 39 64  1  0  0  0
 39 67  2  0  0  0
 40 52  1  0  0  0
 40 53  2  0  0  0
 40 58  1  0  0  0
 41105  1  0  0  0
 41106  1  0  0  0
 41107  1  0  0  0
 41 48  1  0  0  0
 42 43  1  0  0  0
 42 66  1  0  0  0
 42108  1  0  0  0
 42109  1  0  0  0
 43 44  1  0  0  0
 44110  1  0  0  0
 45 46  2  0  0  0
 45111  1  0  0  0
 46112  1  0  0  0
 47113  1  0  0  0
 47114  1  0  0  0
 48 56  1  0  0  0
 48 65  1  0  0  0
 48115  1  0  0  0
 49 50  1  0  0  0
 49 53  1  0  0  0
 49 64  1  0  0  0
 49116  1  0  0  0
 50 51  1  0  0  0
 50117  1  0  0  0
 50118  1  0  0  0
 51 52  1  0  0  0
 51119  1  0  0  0
 51120  1  0  0  0
 52121  1  0  0  0
 52122  1  0  0  0
 53 54  1  0  0  0
 54 55  2  0  0  0
 54123  1  0  0  0
 55 57  1  0  0  0
 55124  1  0  0  0
 56 69  2  0  0  0
 57 58  2  0  0  0
 57125  1  0  0  0
 58126  1  0  0  0
 59 60  1  0  0  0
 59 61  1  0  0  0
 59 62  1  0  0  0
 60127  1  0  0  0
 60128  1  0  0  0
 60129  1  0  0  0
 61130  1  0  0  0
 61131  1  0  0  0
 61132  1  0  0  0
 62133  1  0  0  0
 62134  1  0  0  0
 62135  1  0  0  0
 63 65  1  0  0  0
 63136  1  0  0  0
 63137  1  0  0  0
 63138  1  0  0  0
 64139  1  0  0  0
 65140  1  0  0  0
 68 77  1  0  0  0
 71 72  1  0  0  0
 71 73  2  0  0  0
 71141  1  0  0  0
 72 74  2  0  0  0
 72142  1  0  0  0
 73 78  1  0  0  0
 73 81  1  0  0  0
 74 79  1  0  0  0
 74 81  1  0  0  0
 75 76  1  0  0  0
 75 77  1  0  0  0
 75 80  2  0  0  0
 76 79  1  0  0  0
 76143  1  0  0  0
 76144  1  0  0  0
 77145  1  0  0  0
 77146  1  0  0  0
 78147  1  0  0  0
 79148  1  0  0  0
M  ISO  4   1 100  68 101  77 101  78 100
M  END
> <chiral flag>
0

> <version>
0

> <s_m_source_file>
/data/baiqing/PycharmProjects/Reinvent-master-3.2/result/LINK_invent/BTK/process_docking_weight1_custom_product_contain_oxygen_bond_distance_aromatic_linkinvent_7_9_3/rearranged_h_0156.sdf

> <i_m_source_file_index>
14

> <r_mmod_Potential_Energy-OPLS-2005>
193.042266845703

> <r_mmod_Stretch_Energy-OPLS-2005>
142.704147338867

> <r_mmod_Bend_Energy-OPLS-2005>
192.762298583984

> <r_mmod_Torsional_Energy-OPLS-2005>
216.503204345703

> <r_mmod_Improper_Torsional_Energy-OPLS-2005>
4.95895957946777

> <r_mmod_Van_der_Waal_Energy-OPLS-2005>
120.631721496582

> <r_mmod_Electrostatic_Energy-OPLS-2005>
-340.916717529297

> <r_mmod_Solvation_Energy-OPLS-2005>
-253.150100708008

> <b_mmod_Minimization_Converged-OPLS-2005>
0

> <r_mmod_RMS_Derivative-OPLS-2005>
0.500250220298767

$$$$
14
                    3D
 Structure written by MMmdl.
153161  0  0  1  0            999 V2000
  -30.6350  -14.6355   20.4703 C   0  0  0  0  0  0
  -30.4319  -12.3830   19.4508 C   0  0  0  0  0  0
  -29.5040  -12.4804   18.2207 C   0  0  0  0  0  0
  -28.0286  -12.3182   18.6380 C   0  0  0  0  0  0
  -27.6455  -13.2124   19.8481 C   0  0  2  0  0  0
  -28.6909  -13.1020   20.9797 C   0  0  0  0  0  0
  -25.2539  -13.8166   20.5655 C   0  0  0  0  0  0
  -24.1815  -13.0433   20.9188 C   0  0  0  0  0  0
  -24.6384  -11.6900   20.8748 C   0  0  0  0  0  0
  -23.9062  -10.4283   21.0414 C   0  0  0  0  0  0
  -24.3615   -9.4202   21.9193 C   0  0  0  0  0  0
  -23.6288   -8.2241   22.0771 C   0  0  0  0  0  0
  -22.4272   -8.0282   21.3557 C   0  0  0  0  0  0
  -21.9904   -9.0254   20.4659 C   0  0  0  0  0  0
  -22.7237  -10.2126   20.3063 C   0  0  0  0  0  0
  -21.6845   -6.0734   22.5285 C   0  0  0  0  0  0
  -21.4012   -6.5640   23.8218 C   0  0  0  0  0  0
  -21.3661   -5.6795   24.9181 C   0  0  0  0  0  0
  -21.6041   -4.3060   24.7229 C   0  0  0  0  0  0
  -21.8821   -3.8148   23.4353 C   0  0  0  0  0  0
  -21.9193   -4.6961   22.3408 C   0  0  0  0  0  0
  -22.7841  -13.5231   21.1840 C   0  0  0  0  0  0
  -22.1658   -4.2152   21.0982 F   0  0  0  0  0  0
  -21.5630   -3.4537   25.7738 F   0  0  0  0  0  0
  -30.0013  -13.4254   20.4016 N   0  0  0  0  0  0
  -26.2952  -12.9334   20.3254 N   0  0  0  0  0  0
  -25.9309  -11.6500   20.5755 N   0  0  0  0  0  0
  -22.0468  -12.8241   22.0393 N   0  0  0  0  0  0
  -25.4204  -15.1893   20.4051 N   0  0  0  0  0  0
  -31.8274  -14.7418   20.1664 O   0  0  0  0  0  0
  -21.6640   -6.8877   21.4249 O   0  0  0  0  0  0
  -22.3542  -14.5539   20.6684 O   0  0  0  0  0  0
  -24.6267  -31.8594   23.2012 C   0  0  0  0  0  0
  -25.9108  -32.4774   23.8355 C   0  0  1  0  0  0
  -27.2299  -27.3240   20.1030 C   0  0  0  0  0  0
  -25.5936  -33.8578   24.2271 N   0  0  0  0  0  0
  -23.4204  -30.4824   21.5433 C   0  0  2  0  0  0
  -24.8645  -28.9353   20.1110 C   0  0  0  0  0  0
  -22.7486  -29.4624   22.4927 C   0  0  0  0  0  0
  -18.0293  -28.1386   22.8495 C   0  0  0  0  0  0
  -24.1489  -36.7281   23.2639 C   0  0  0  0  0  0
  -25.9597  -30.7905   21.3695 C   0  0  0  0  0  0
  -26.0323  -29.4180   20.7120 C   0  0  0  0  0  0
  -27.2146  -28.6236   20.6977 C   0  0  0  0  0  0
  -26.0256  -26.8774   19.5087 C   0  0  0  0  0  0
  -24.8622  -27.6687   19.5074 C   0  0  0  0  0  0
  -23.6348  -29.8169   20.1591 C   0  0  0  0  0  0
  -25.4117  -36.3077   24.0324 C   0  0  1  0  0  0
  -20.5898  -28.3691   23.1267 C   0  0  2  0  0  0
  -20.6784  -26.9419   22.5390 C   0  0  0  0  0  0
  -19.5749  -26.6382   21.5209 C   0  0  0  0  0  0
  -18.1930  -26.7927   22.1623 C   0  0  0  0  0  0
  -19.1543  -28.8851   23.2884 C   0  0  0  0  0  0
  -18.9474  -30.1462   23.8890 C   0  0  0  0  0  0
  -17.6473  -30.6590   24.0576 C   0  0  0  0  0  0
  -25.9053  -34.9450   23.5089 C   0  0  0  0  0  0
  -16.5365  -29.9097   23.6334 C   0  0  0  0  0  0
  -16.7273  -28.6517   23.0357 C   0  0  0  0  0  0
  -26.4503  -31.6605   25.0729 C   0  0  0  0  0  0
  -25.3747  -31.3764   26.1472 C   0  0  0  0  0  0
  -27.0352  -30.3025   24.6179 C   0  0  0  0  0  0
  -27.6054  -32.4356   25.7504 C   0  0  0  0  0  0
  -27.5579  -37.1798   24.8474 C   0  0  0  0  0  0
  -21.4198  -29.3056   22.3669 N   0  0  0  0  0  0
  -26.4297  -37.3769   23.9416 N   0  0  0  0  0  0
  -24.6887  -31.0612   22.0959 N   0  0  0  0  0  0
  -23.4212  -28.8145   23.2991 O   0  0  0  0  0  0
  -28.3821  -26.5251   20.1542 O   0  0  0  0  0  0
  -26.5605  -34.8927   22.4648 O   0  0  0  0  0  0
  -23.5429  -32.1389   23.7320 O   0  0  0  0  0  0
  -31.2191  -19.0396   21.0617 C   0  0  0  0  0  0
  -31.3617  -17.6154   21.0419 C   0  0  0  0  0  0
  -29.9321  -19.3092   20.6857 C   0  0  0  0  0  0
  -30.1452  -17.0881   20.6856 C   0  0  0  0  0  0
  -28.8990  -21.2785   19.5388 C   0  0  0  0  0  0
  -28.7080  -20.4585   18.2943 C   0  0  0  0  0  0
  -28.6156  -23.8532   20.2923 C   0  0  0  0  0  0
  -28.4957  -25.2182   19.4723 C   0  0  0  0  0  0
  -29.4026  -20.6408   20.6436 N   0  0  0  0  0  0
  -29.8291  -15.7370   20.6295 N   0  0  0  0  0  0
  -28.5903  -22.6214   19.4158 N   0  3  0  0  0  0
  -29.2315  -18.1261   20.4598 O   0  0  0  0  0  0
  -31.4736  -12.5023   19.1476 H   0  0  0  0  0  0
  -30.3670  -11.3965   19.9130 H   0  0  0  0  0  0
  -29.7701  -11.7157   17.4895 H   0  0  0  0  0  0
  -29.6457  -13.4426   17.7244 H   0  0  0  0  0  0
  -27.8775  -11.2687   18.8959 H   0  0  0  0  0  0
  -27.3713  -12.5194   17.7915 H   0  0  0  0  0  0
  -27.6523  -14.2374   19.4777 H   0  0  0  0  0  0
  -28.7041  -12.0959   21.4030 H   0  0  0  0  0  0
  -28.4438  -13.7738   21.8034 H   0  0  0  0  0  0
  -25.2756   -9.5679   22.4773 H   0  0  0  0  0  0
  -23.9994   -7.4636   22.7496 H   0  0  0  0  0  0
  -21.0839   -8.8781   19.8960 H   0  0  0  0  0  0
  -22.3711  -10.9670   19.6176 H   0  0  0  0  0  0
  -21.2003   -7.6149   23.9726 H   0  0  0  0  0  0
  -21.1477   -6.0521   25.9086 H   0  0  0  0  0  0
  -22.0596   -2.7610   23.2851 H   0  0  0  0  0  0
  -22.4056  -11.9890   22.4777 H   0  0  0  0  0  0
  -21.1105  -13.1315   22.2598 H   0  0  0  0  0  0
  -24.6424  -15.8310   20.5094 H   0  0  0  0  0  0
  -26.2548  -15.6389   20.0510 H   0  0  0  0  0  0
  -26.7171  -32.5433   23.1100 H   0  0  0  0  0  0
  -25.0191  -33.9726   25.0486 H   0  0  0  0  0  0
  -22.7139  -31.3020   21.3972 H   0  0  0  0  0  0
  -23.3759  -35.9613   23.3314 H   0  0  0  0  0  0
  -24.3574  -36.8870   22.2051 H   0  0  0  0  0  0
  -23.7230  -37.6485   23.6647 H   0  0  0  0  0  0
  -26.0900  -31.5527   20.5999 H   0  0  0  0  0  0
  -26.8413  -30.8365   21.9975 H   0  0  0  0  0  0
  -28.1150  -28.9970   21.1648 H   0  0  0  0  0  0
  -25.9332  -25.9001   19.0637 H   0  0  0  0  0  0
  -23.9601  -27.2826   19.0529 H   0  0  0  0  0  0
  -23.7537  -30.5935   19.4018 H   0  0  0  0  0  0
  -22.7540  -29.2457   19.8604 H   0  0  0  0  0  0
  -25.1286  -36.1934   25.0812 H   0  0  0  0  0  0
  -20.9991  -28.3258   24.1384 H   0  0  0  0  0  0
  -20.5694  -26.2309   23.3593 H   0  0  0  0  0  0
  -21.6651  -26.7441   22.1169 H   0  0  0  0  0  0
  -19.6928  -25.6304   21.1224 H   0  0  0  0  0  0
  -19.6681  -27.3216   20.6760 H   0  0  0  0  0  0
  -17.4203  -26.6693   21.4014 H   0  0  0  0  0  0
  -18.0315  -26.0066   22.9005 H   0  0  0  0  0  0
  -19.7960  -30.7280   24.2239 H   0  0  0  0  0  0
  -17.5041  -31.6263   24.5187 H   0  0  0  0  0  0
  -15.5370  -30.3000   23.7668 H   0  0  0  0  0  0
  -15.8676  -28.0834   22.7063 H   0  0  0  0  0  0
  -24.5911  -30.7107   25.7834 H   0  0  0  0  0  0
  -24.8973  -32.2955   26.4881 H   0  0  0  0  0  0
  -25.8074  -30.8976   27.0259 H   0  0  0  0  0  0
  -26.2928  -29.6775   24.1200 H   0  0  0  0  0  0
  -27.4067  -29.7265   25.4663 H   0  0  0  0  0  0
  -27.8787  -30.4321   23.9392 H   0  0  0  0  0  0
  -27.2645  -33.3655   26.2070 H   0  0  0  0  0  0
  -28.3883  -32.6914   25.0353 H   0  0  0  0  0  0
  -28.0727  -31.8510   26.5443 H   0  0  0  0  0  0
  -28.2595  -38.0097   24.7496 H   0  0  0  0  0  0
  -28.1058  -36.2604   24.6314 H   0  0  0  0  0  0
  -27.2281  -37.1460   25.8876 H   0  0  0  0  0  0
  -20.9372  -29.8811   21.6913 H   0  0  0  0  0  0
  -26.0167  -38.2842   24.1430 H   0  0  0  0  0  0
  -31.9709  -19.7724   21.3194 H   0  0  0  0  0  0
  -32.2527  -17.0531   21.2868 H   0  0  0  0  0  0
  -29.6738  -20.1174   17.9196 H   0  0  0  0  0  0
  -28.2313  -21.0363   17.5030 H   0  0  0  0  0  0
  -28.0857  -19.5853   18.4917 H   0  0  0  0  0  0
  -27.7936  -23.7782   21.0030 H   0  0  0  0  0  0
  -29.5351  -23.8543   20.8765 H   0  0  0  0  0  0
  -27.7681  -25.0987   18.6741 H   0  0  0  0  0  0
  -29.4310  -25.3085   18.9188 H   0  0  0  0  0  0
  -29.7481  -21.1914   21.4167 H   0  0  0  0  0  0
  -28.8463  -15.5228   20.6692 H   0  0  0  0  0  0
  -28.2183  -22.8526   18.5037 H   0  0  0  0  0  0
  1 25  1  0  0  0
  1 30  2  0  0  0
  1 80  1  0  0  0
  2  3  1  0  0  0
  2 25  1  0  0  0
  2 83  1  0  0  0
  2 84  1  0  0  0
  3  4  1  0  0  0
  3 85  1  0  0  0
  3 86  1  0  0  0
  4  5  1  0  0  0
  4 87  1  0  0  0
  4 88  1  0  0  0
  5  6  1  0  0  0
  5 26  1  0  0  0
  5 89  1  0  0  0
  6 25  1  0  0  0
  6 90  1  0  0  0
  6 91  1  0  0  0
  7  8  2  0  0  0
  7 26  1  0  0  0
  7 29  1  0  0  0
  8  9  1  0  0  0
  8 22  1  0  0  0
  9 10  1  0  0  0
  9 27  2  0  0  0
 10 11  2  0  0  0
 10 15  1  0  0  0
 11 12  1  0  0  0
 11 92  1  0  0  0
 12 13  2  0  0  0
 12 93  1  0  0  0
 13 14  1  0  0  0
 13 31  1  0  0  0
 14 15  2  0  0  0
 14 94  1  0  0  0
 15 95  1  0  0  0
 16 17  2  0  0  0
 16 21  1  0  0  0
 16 31  1  0  0  0
 17 18  1  0  0  0
 17 96  1  0  0  0
 18 19  2  0  0  0
 18 97  1  0  0  0
 19 20  1  0  0  0
 19 24  1  0  0  0
 20 21  2  0  0  0
 20 98  1  0  0  0
 21 23  1  0  0  0
 22 28  1  0  0  0
 22 32  2  0  0  0
 26 27  1  0  0  0
 28 99  1  0  0  0
 28100  1  0  0  0
 29101  1  0  0  0
 29102  1  0  0  0
 33 34  1  0  0  0
 33 66  1  0  0  0
 33 70  2  0  0  0
 34 36  1  0  0  0
 34 59  1  0  0  0
 34103  1  0  0  0
 35 44  2  0  0  0
 35 45  1  0  0  0
 35 68  1  0  0  0
 36 56  1  0  0  0
 36104  1  0  0  0
 37 39  1  0  0  0
 37 47  1  0  0  0
 37 66  1  0  0  0
 37105  1  0  0  0
 38 43  2  0  0  0
 38 46  1  0  0  0
 38 47  1  0  0  0
 39 64  1  0  0  0
 39 67  2  0  0  0
 40 52  1  0  0  0
 40 53  2  0  0  0
 40 58  1  0  0  0
 41106  1  0  0  0
 41107  1  0  0  0
 41108  1  0  0  0
 41 48  1  0  0  0
 42 43  1  0  0  0
 42 66  1  0  0  0
 42109  1  0  0  0
 42110  1  0  0  0
 43 44  1  0  0  0
 44111  1  0  0  0
 45 46  2  0  0  0
 45112  1  0  0  0
 46113  1  0  0  0
 47114  1  0  0  0
 47115  1  0  0  0
 48 56  1  0  0  0
 48 65  1  0  0  0
 48116  1  0  0  0
 49 50  1  0  0  0
 49 53  1  0  0  0
 49 64  1  0  0  0
 49117  1  0  0  0
 50 51  1  0  0  0
 50118  1  0  0  0
 50119  1  0  0  0
 51 52  1  0  0  0
 51120  1  0  0  0
 51121  1  0  0  0
 52122  1  0  0  0
 52123  1  0  0  0
 53 54  1  0  0  0
 54 55  2  0  0  0
 54124  1  0  0  0
 55 57  1  0  0  0
 55125  1  0  0  0
 56 69  2  0  0  0
 57 58  2  0  0  0
 57126  1  0  0  0
 58127  1  0  0  0
 59 60  1  0  0  0
 59 61  1  0  0  0
 59 62  1  0  0  0
 60128  1  0  0  0
 60129  1  0  0  0
 60130  1  0  0  0
 61131  1  0  0  0
 61132  1  0  0  0
 61133  1  0  0  0
 62134  1  0  0  0
 62135  1  0  0  0
 62136  1  0  0  0
 63 65  1  0  0  0
 63137  1  0  0  0
 63138  1  0  0  0
 63139  1  0  0  0
 64140  1  0  0  0
 65141  1  0  0  0
 68 78  1  0  0  0
 71 72  1  0  0  0
 71 73  2  0  0  0
 71142  1  0  0  0
 72 74  2  0  0  0
 72143  1  0  0  0
 73 79  1  0  0  0
 73 82  1  0  0  0
 74 80  1  0  0  0
 74 82  1  0  0  0
 75 76  1  0  0  0
 75 79  1  0  0  0
 75 81  2  0  0  0
 76144  1  0  0  0
 76145  1  0  0  0
 76146  1  0  0  0
 77 78  1  0  0  0
 77 81  1  0  0  0
 77147  1  0  0  0
 77148  1  0  0  0
 78149  1  0  0  0
 78150  1  0  0  0
 79151  1  0  0  0
 80152  1  0  0  0
 81153  1  0  0  0
M  CHG  1  81   1
M  ISO  4   1 100  68 101  78 101  80 100
M  END
> <chiral flag>
0

> <version>
0

> <s_m_source_file>
/data/baiqing/PycharmProjects/Reinvent-master-3.2/result/LINK_invent/BTK/process_docking_weight1_custom_product_contain_oxygen_bond_distance_aromatic_linkinvent_7_9_3/rearranged_h_0156.sdf

> <i_m_source_file_index>
15

> <r_mmod_Potential_Energy-OPLS-2005>
13.5919914245605

> <r_mmod_Stretch_Energy-OPLS-2005>
72.0643081665039

> <r_mmod_Bend_Energy-OPLS-2005>
173.431076049805

> <r_mmod_Torsional_Energy-OPLS-2005>
221.406936645508

> <r_mmod_Improper_Torsional_Energy-OPLS-2005>
7.93678760528564

> <r_mmod_Van_der_Waal_Energy-OPLS-2005>
128.898864746094

> <r_mmod_Electrostatic_Energy-OPLS-2005>
-211.599563598633

> <r_mmod_Solvation_Energy-OPLS-2005>
-426.345855712891

> <b_mmod_Minimization_Converged-OPLS-2005>
0

> <r_mmod_RMS_Derivative-OPLS-2005>
2.48125767707825

$$$$
15
                    3D
 Structure written by MMmdl.
156165  0  0  1  0            999 V2000
  -30.6131  -14.7626   20.4432 C   0  0  0  0  0  0
  -30.4296  -12.4620   19.4871 C   0  0  0  0  0  0
  -29.5130  -12.5076   18.2442 C   0  0  0  0  0  0
  -28.0392  -12.3306   18.6551 C   0  0  0  0  0  0
  -27.6410  -13.2359   19.8516 C   0  0  2  0  0  0
  -28.6834  -13.1842   20.9907 C   0  0  0  0  0  0
  -25.2506  -13.8207   20.5706 C   0  0  0  0  0  0
  -24.1801  -13.0444   20.9212 C   0  0  0  0  0  0
  -24.6398  -11.6925   20.8752 C   0  0  0  0  0  0
  -23.9076  -10.4298   21.0408 C   0  0  0  0  0  0
  -24.3626   -9.4212   21.9186 C   0  0  0  0  0  0
  -23.6299   -8.2246   22.0755 C   0  0  0  0  0  0
  -22.4279   -8.0286   21.3545 C   0  0  0  0  0  0
  -21.9919   -9.0260   20.4646 C   0  0  0  0  0  0
  -22.7249  -10.2138   20.3057 C   0  0  0  0  0  0
  -21.6856   -6.0741   22.5278 C   0  0  0  0  0  0
  -21.4014   -6.5644   23.8212 C   0  0  0  0  0  0
  -21.3658   -5.6795   24.9174 C   0  0  0  0  0  0
  -21.6046   -4.3059   24.7223 C   0  0  0  0  0  0
  -21.8818   -3.8151   23.4344 C   0  0  0  0  0  0
  -21.9192   -4.6967   22.3401 C   0  0  0  0  0  0
  -22.7822  -13.5223   21.1871 C   0  0  0  0  0  0
  -22.1662   -4.2155   21.0979 F   0  0  0  0  0  0
  -21.5627   -3.4540   25.7735 F   0  0  0  0  0  0
  -29.9862  -13.5339   20.4123 N   0  0  0  0  0  0
  -26.2934  -12.9421   20.3287 N   0  0  0  0  0  0
  -25.9329  -11.6559   20.5757 N   0  0  0  0  0  0
  -22.0466  -12.8210   22.0422 N   0  0  0  0  0  0
  -25.4199  -15.1934   20.4127 N   0  0  0  0  0  0
  -31.8019  -14.8332   20.1186 O   0  0  0  0  0  0
  -21.6642   -6.8884   21.4241 O   0  0  0  0  0  0
  -22.3509  -14.5532   20.6722 O   0  0  0  0  0  0
  -24.6337  -31.8542   23.1977 C   0  0  0  0  0  0
  -25.9154  -32.4748   23.8328 C   0  0  1  0  0  0
  -27.2124  -27.2395   20.1332 C   0  0  0  0  0  0
  -25.5947  -33.8552   24.2252 N   0  0  0  0  0  0
  -23.4306  -30.4780   21.5412 C   0  0  2  0  0  0
  -24.8775  -28.9265   20.1060 C   0  0  0  0  0  0
  -22.7516  -29.4599   22.4898 C   0  0  0  0  0  0
  -18.0296  -28.1391   22.8485 C   0  0  0  0  0  0
  -24.1490  -36.7275   23.2640 C   0  0  0  0  0  0
  -25.9791  -30.7595   21.3826 C   0  0  0  0  0  0
  -26.0493  -29.3812   20.7234 C   0  0  0  0  0  0
  -27.2181  -28.5494   20.7284 C   0  0  0  0  0  0
  -26.0240  -26.8739   19.4600 C   0  0  0  0  0  0
  -24.8719  -27.6822   19.4612 C   0  0  0  0  0  0
  -23.6491  -29.8149   20.1561 C   0  0  0  0  0  0
  -25.4116  -36.3060   24.0323 C   0  0  1  0  0  0
  -20.5903  -28.3704   23.1263 C   0  0  2  0  0  0
  -20.6783  -26.9419   22.5406 C   0  0  0  0  0  0
  -19.5755  -26.6383   21.5215 C   0  0  0  0  0  0
  -18.1935  -26.7935   22.1624 C   0  0  0  0  0  0
  -19.1551  -28.8864   23.2870 C   0  0  0  0  0  0
  -18.9471  -30.1466   23.8887 C   0  0  0  0  0  0
  -17.6469  -30.6591   24.0564 C   0  0  0  0  0  0
  -25.9059  -34.9434   23.5086 C   0  0  0  0  0  0
  -16.5360  -29.9086   23.6336 C   0  0  0  0  0  0
  -16.7281  -28.6504   23.0355 C   0  0  0  0  0  0
  -26.4512  -31.6578   25.0724 C   0  0  0  0  0  0
  -25.3723  -31.3741   26.1438 C   0  0  0  0  0  0
  -27.0367  -30.2992   24.6231 C   0  0  0  0  0  0
  -27.6065  -32.4323   25.7495 C   0  0  0  0  0  0
  -27.5574  -37.1794   24.8468 C   0  0  0  0  0  0
  -21.4221  -29.3049   22.3650 N   0  0  0  0  0  0
  -26.4288  -37.3763   23.9408 N   0  0  0  0  0  0
  -24.7002  -31.0494   22.0963 N   0  0  0  0  0  0
  -23.4213  -28.8138   23.2999 O   0  0  0  0  0  0
  -28.2858  -26.3129   20.2271 O   0  0  0  0  0  0
  -26.5632  -34.8912   22.4655 O   0  0  0  0  0  0
  -23.5482  -32.1372   23.7260 O   0  0  0  0  0  0
  -29.4989  -18.5385   20.7670 C   0  0  0  0  0  0
  -30.6182  -19.9802   19.1537 C   0  0  0  0  0  0
  -30.9237  -17.5416   19.0716 C   0  0  0  0  0  0
  -29.7518  -19.8925   20.2624 C   0  0  0  0  0  0
  -30.0954  -17.3260   20.2005 C   0  0  0  0  0  0
  -31.1797  -18.8320   18.5651 C   0  0  0  0  0  0
  -28.7271  -23.7761   20.9948 C   0  0  0  0  0  0
  -29.3341  -21.2196   20.9301 C   0  0  0  0  0  0
  -28.3955  -24.2128   18.6966 C   0  0  0  0  0  0
  -28.5872  -22.6793   18.9233 C   0  0  0  0  0  0
  -28.0211  -24.8262   20.0514 C   0  0  2  0  0  0
  -28.9437  -22.4471   20.3452 N   0  0  0  0  0  0
  -29.8638  -15.9195   20.6689 N   0  0  0  0  0  0
  -29.4212  -21.1842   22.2605 N   0  3  0  0  0  0
  -29.0090  -23.9965   22.1780 O   0  0  0  0  0  0
  -32.0020  -18.9751   17.4980 F   0  0  0  0  0  0
  -31.4726  -12.5762   19.1866 H   0  0  0  0  0  0
  -30.3679  -11.4887   19.9762 H   0  0  0  0  0  0
  -29.7991  -11.7296   17.5350 H   0  0  0  0  0  0
  -29.6395  -13.4586   17.7244 H   0  0  0  0  0  0
  -27.8996  -11.2830   18.9239 H   0  0  0  0  0  0
  -27.3823  -12.5156   17.8043 H   0  0  0  0  0  0
  -27.6323  -14.2551   19.4647 H   0  0  0  0  0  0
  -28.7192  -12.1913   21.4418 H   0  0  0  0  0  0
  -28.4140  -13.8742   21.7918 H   0  0  0  0  0  0
  -25.2770   -9.5687   22.4763 H   0  0  0  0  0  0
  -24.0007   -7.4637   22.7476 H   0  0  0  0  0  0
  -21.0853   -8.8781   19.8949 H   0  0  0  0  0  0
  -22.3712  -10.9678   19.6168 H   0  0  0  0  0  0
  -21.2007   -7.6152   23.9719 H   0  0  0  0  0  0
  -21.1480   -6.0525   25.9078 H   0  0  0  0  0  0
  -22.0597   -2.7614   23.2841 H   0  0  0  0  0  0
  -22.4078  -11.9864   22.4800 H   0  0  0  0  0  0
  -21.1081  -13.1230   22.2627 H   0  0  0  0  0  0
  -24.6503  -15.8450   20.5209 H   0  0  0  0  0  0
  -26.2635  -15.6326   20.0668 H   0  0  0  0  0  0
  -26.7218  -32.5398   23.1065 H   0  0  0  0  0  0
  -25.0106  -33.9693   25.0406 H   0  0  0  0  0  0
  -22.7280  -31.3011   21.3953 H   0  0  0  0  0  0
  -23.3757  -35.9604   23.3303 H   0  0  0  0  0  0
  -24.3583  -36.8900   22.2056 H   0  0  0  0  0  0
  -23.7243  -37.6473   23.6668 H   0  0  0  0  0  0
  -26.1221  -31.5191   20.6128 H   0  0  0  0  0  0
  -26.8555  -30.8074   22.0169 H   0  0  0  0  0  0
  -28.1092  -28.8872   21.2385 H   0  0  0  0  0  0
  -25.9480  -25.9356   18.9329 H   0  0  0  0  0  0
  -23.9792  -27.3352   18.9589 H   0  0  0  0  0  0
  -23.7745  -30.5926   19.4021 H   0  0  0  0  0  0
  -22.7670  -29.2500   19.8493 H   0  0  0  0  0  0
  -25.1300  -36.1896   25.0815 H   0  0  0  0  0  0
  -20.9997  -28.3286   24.1382 H   0  0  0  0  0  0
  -20.5688  -26.2318   23.3616 H   0  0  0  0  0  0
  -21.6649  -26.7442   22.1195 H   0  0  0  0  0  0
  -19.6919  -25.6293   21.1247 H   0  0  0  0  0  0
  -19.6688  -27.3194   20.6747 H   0  0  0  0  0  0
  -17.4204  -26.6689   21.4025 H   0  0  0  0  0  0
  -18.0329  -26.0078   22.9019 H   0  0  0  0  0  0
  -19.7948  -30.7287   24.2246 H   0  0  0  0  0  0
  -17.5021  -31.6269   24.5169 H   0  0  0  0  0  0
  -15.5361  -30.2983   23.7664 H   0  0  0  0  0  0
  -15.8683  -28.0819   22.7073 H   0  0  0  0  0  0
  -24.5913  -30.7072   25.7770 H   0  0  0  0  0  0
  -24.8898  -32.2914   26.4821 H   0  0  0  0  0  0
  -25.8032  -30.8952   27.0240 H   0  0  0  0  0  0
  -26.2960  -29.6727   24.1249 H   0  0  0  0  0  0
  -27.4039  -29.7267   25.4759 H   0  0  0  0  0  0
  -27.8843  -30.4266   23.9493 H   0  0  0  0  0  0
  -27.2683  -33.3654   26.2015 H   0  0  0  0  0  0
  -28.3905  -32.6830   25.0336 H   0  0  0  0  0  0
  -28.0694  -31.8477   26.5456 H   0  0  0  0  0  0
  -28.2590  -38.0092   24.7508 H   0  0  0  0  0  0
  -28.1069  -36.2621   24.6297 H   0  0  0  0  0  0
  -27.2294  -37.1442   25.8872 H   0  0  0  0  0  0
  -20.9405  -29.8777   21.6860 H   0  0  0  0  0  0
  -26.0162  -38.2834   24.1409 H   0  0  0  0  0  0
  -28.8587  -18.4335   21.6319 H   0  0  0  0  0  0
  -30.9171  -20.9403   18.7629 H   0  0  0  0  0  0
  -31.3871  -16.7151   18.5567 H   0  0  0  0  0  0
  -27.6217  -24.4044   17.9534 H   0  0  0  0  0  0
  -29.3192  -24.6547   18.3215 H   0  0  0  0  0  0
  -29.3316  -22.2963   18.2284 H   0  0  0  0  0  0
  -27.6548  -22.1526   18.7121 H   0  0  0  0  0  0
  -26.9718  -24.6210   20.2598 H   0  0  0  0  0  0
  -28.9668  -15.7525   21.0994 H   0  0  0  0  0  0
  -29.7614  -20.3592   22.7276 H   0  0  0  0  0  0
  -29.2710  -22.0338   22.7889 H   0  0  0  0  0  0
  1 25  1  0  0  0
  1 30  2  0  0  0
  1 83  1  0  0  0
  2  3  1  0  0  0
  2 25  1  0  0  0
  2 87  1  0  0  0
  2 88  1  0  0  0
  3  4  1  0  0  0
  3 89  1  0  0  0
  3 90  1  0  0  0
  4  5  1  0  0  0
  4 91  1  0  0  0
  4 92  1  0  0  0
  5  6  1  0  0  0
  5 26  1  0  0  0
  5 93  1  0  0  0
  6 25  1  0  0  0
  6 94  1  0  0  0
  6 95  1  0  0  0
  7  8  2  0  0  0
  7 26  1  0  0  0
  7 29  1  0  0  0
  8  9  1  0  0  0
  8 22  1  0  0  0
  9 10  1  0  0  0
  9 27  2  0  0  0
 10 11  2  0  0  0
 10 15  1  0  0  0
 11 12  1  0  0  0
 11 96  1  0  0  0
 12 13  2  0  0  0
 12 97  1  0  0  0
 13 14  1  0  0  0
 13 31  1  0  0  0
 14 15  2  0  0  0
 14 98  1  0  0  0
 15 99  1  0  0  0
 16 17  2  0  0  0
 16 21  1  0  0  0
 16 31  1  0  0  0
 17 18  1  0  0  0
 17100  1  0  0  0
 18 19  2  0  0  0
 18101  1  0  0  0
 19 20  1  0  0  0
 19 24  1  0  0  0
 20 21  2  0  0  0
 20102  1  0  0  0
 21 23  1  0  0  0
 22 28  1  0  0  0
 22 32  2  0  0  0
 26 27  1  0  0  0
 28103  1  0  0  0
 28104  1  0  0  0
 29105  1  0  0  0
 29106  1  0  0  0
 33 34  1  0  0  0
 33 66  1  0  0  0
 33 70  2  0  0  0
 34 36  1  0  0  0
 34 59  1  0  0  0
 34107  1  0  0  0
 35 44  2  0  0  0
 35 45  1  0  0  0
 35 68  1  0  0  0
 36 56  1  0  0  0
 36108  1  0  0  0
 37 39  1  0  0  0
 37 47  1  0  0  0
 37 66  1  0  0  0
 37109  1  0  0  0
 38 43  2  0  0  0
 38 46  1  0  0  0
 38 47  1  0  0  0
 39 64  1  0  0  0
 39 67  2  0  0  0
 40 52  1  0  0  0
 40 53  2  0  0  0
 40 58  1  0  0  0
 41110  1  0  0  0
 41111  1  0  0  0
 41112  1  0  0  0
 41 48  1  0  0  0
 42 43  1  0  0  0
 42 66  1  0  0  0
 42113  1  0  0  0
 42114  1  0  0  0
 43 44  1  0  0  0
 44115  1  0  0  0
 45 46  2  0  0  0
 45116  1  0  0  0
 46117  1  0  0  0
 47118  1  0  0  0
 47119  1  0  0  0
 48 56  1  0  0  0
 48 65  1  0  0  0
 48120  1  0  0  0
 49 50  1  0  0  0
 49 53  1  0  0  0
 49 64  1  0  0  0
 49121  1  0  0  0
 50 51  1  0  0  0
 50122  1  0  0  0
 50123  1  0  0  0
 51 52  1  0  0  0
 51124  1  0  0  0
 51125  1  0  0  0
 52126  1  0  0  0
 52127  1  0  0  0
 53 54  1  0  0  0
 54 55  2  0  0  0
 54128  1  0  0  0
 55 57  1  0  0  0
 55129  1  0  0  0
 56 69  2  0  0  0
 57 58  2  0  0  0
 57130  1  0  0  0
 58131  1  0  0  0
 59 60  1  0  0  0
 59 61  1  0  0  0
 59 62  1  0  0  0
 60132  1  0  0  0
 60133  1  0  0  0
 60134  1  0  0  0
 61135  1  0  0  0
 61136  1  0  0  0
 61137  1  0  0  0
 62138  1  0  0  0
 62139  1  0  0  0
 62140  1  0  0  0
 63 65  1  0  0  0
 63141  1  0  0  0
 63142  1  0  0  0
 63143  1  0  0  0
 64144  1  0  0  0
 65145  1  0  0  0
 68 81  1  0  0  0
 71 74  2  0  0  0
 71 75  1  0  0  0
 71146  1  0  0  0
 72 74  1  0  0  0
 72 76  2  0  0  0
 72147  1  0  0  0
 73 75  2  0  0  0
 73 76  1  0  0  0
 73148  1  0  0  0
 74 78  1  0  0  0
 75 83  1  0  0  0
 76 86  1  0  0  0
 77 81  1  0  0  0
 77 82  1  0  0  0
 77 85  2  0  0  0
 78 82  1  0  0  0
 78 84  2  0  0  0
 79 80  1  0  0  0
 79 81  1  0  0  0
 79149  1  0  0  0
 79150  1  0  0  0
 80 82  1  0  0  0
 80151  1  0  0  0
 80152  1  0  0  0
 81153  1  0  0  0
 83154  1  0  0  0
 84155  1  0  0  0
 84156  1  0  0  0
M  CHG  1  84   1
M  ISO  4   1 100  68 101  81 101  83 100
M  END
> <chiral flag>
0

> <version>
0

> <s_m_source_file>
/data/baiqing/PycharmProjects/Reinvent-master-3.2/result/LINK_invent/BTK/process_docking_weight1_custom_product_contain_oxygen_bond_distance_aromatic_linkinvent_7_9_3/rearranged_h_0156.sdf

> <i_m_source_file_index>
16

> <r_mmod_Potential_Energy-OPLS-2005>
-6.39928865432739

> <r_mmod_Stretch_Energy-OPLS-2005>
138.715606689453

> <r_mmod_Bend_Energy-OPLS-2005>
205.215957641602

> <r_mmod_Torsional_Energy-OPLS-2005>
257.478759765625

> <r_mmod_Improper_Torsional_Energy-OPLS-2005>
5.89092826843262

> <r_mmod_Van_der_Waal_Energy-OPLS-2005>
147.979522705078

> <r_mmod_Electrostatic_Energy-OPLS-2005>
-425.472351074219

> <r_mmod_Solvation_Energy-OPLS-2005>
-435.077484130859

> <b_mmod_Minimization_Converged-OPLS-2005>
0

> <r_mmod_RMS_Derivative-OPLS-2005>
0.568199276924133

$$$$
16
                    3D
 Structure written by MMmdl.
161169  0  0  1  0            999 V2000
  -30.6662  -14.5995   20.5326 C   0  0  0  0  0  0
  -30.4231  -12.3751   19.4537 C   0  0  0  0  0  0
  -29.5035  -12.5042   18.2210 C   0  0  0  0  0  0
  -28.0267  -12.3436   18.6313 C   0  0  0  0  0  0
  -27.6495  -13.2161   19.8595 C   0  0  2  0  0  0
  -28.6912  -13.0793   20.9942 C   0  0  0  0  0  0
  -25.2544  -13.8171   20.5658 C   0  0  0  0  0  0
  -24.1816  -13.0437   20.9172 C   0  0  0  0  0  0
  -24.6376  -11.6905   20.8721 C   0  0  0  0  0  0
  -23.9049  -10.4290   21.0389 C   0  0  0  0  0  0
  -24.3604   -9.4205   21.9168 C   0  0  0  0  0  0
  -23.6277   -8.2246   22.0745 C   0  0  0  0  0  0
  -22.4262   -8.0279   21.3534 C   0  0  0  0  0  0
  -21.9888   -9.0252   20.4642 C   0  0  0  0  0  0
  -22.7220  -10.2130   20.3043 C   0  0  0  0  0  0
  -21.6853   -6.0727   22.5275 C   0  0  0  0  0  0
  -21.4029   -6.5629   23.8211 C   0  0  0  0  0  0
  -21.3651   -5.6782   24.9171 C   0  0  0  0  0  0
  -21.6039   -4.3044   24.7227 C   0  0  0  0  0  0
  -21.8816   -3.8135   23.4351 C   0  0  0  0  0  0
  -21.9197   -4.6953   22.3402 C   0  0  0  0  0  0
  -22.7845  -13.5232   21.1839 C   0  0  0  0  0  0
  -22.1669   -4.2133   21.0985 F   0  0  0  0  0  0
  -21.5618   -3.4531   25.7741 F   0  0  0  0  0  0
  -30.0087  -13.4034   20.4292 N   0  0  0  0  0  0
  -26.2960  -12.9345   20.3282 N   0  0  0  0  0  0
  -25.9300  -11.6500   20.5725 N   0  0  0  0  0  0
  -22.0487  -12.8242   22.0412 N   0  0  0  0  0  0
  -25.4251  -15.1898   20.4047 N   0  0  0  0  0  0
  -31.8315  -14.7104   20.1364 O   0  0  0  0  0  0
  -21.6637   -6.8871   21.4237 O   0  0  0  0  0  0
  -22.3531  -14.5536   20.6684 O   0  0  0  0  0  0
  -24.6205  -31.8645   23.2104 C   0  0  0  0  0  0
  -25.9086  -32.4802   23.8399 C   0  0  1  0  0  0
  -27.2198  -27.3715   20.1183 C   0  0  0  0  0  0
  -25.5927  -33.8608   24.2317 N   0  0  0  0  0  0
  -23.4102  -30.4904   21.5513 C   0  0  2  0  0  0
  -24.8594  -28.9452   20.1209 C   0  0  0  0  0  0
  -22.7429  -29.4660   22.4970 C   0  0  0  0  0  0
  -18.0290  -28.1305   22.8577 C   0  0  0  0  0  0
  -24.1499  -36.7299   23.2623 C   0  0  0  0  0  0
  -25.9448  -30.8053   21.3787 C   0  0  0  0  0  0
  -26.0221  -29.4330   20.7332 C   0  0  0  0  0  0
  -27.2096  -28.6527   20.7368 C   0  0  0  0  0  0
  -26.0474  -26.9197   19.4862 C   0  0  0  0  0  0
  -24.8685  -27.6888   19.4930 C   0  0  0  0  0  0
  -23.6270  -29.8236   20.1665 C   0  0  0  0  0  0
  -25.4124  -36.3093   24.0319 C   0  0  1  0  0  0
  -20.5885  -28.3668   23.1242 C   0  0  2  0  0  0
  -20.6839  -26.9466   22.5215 C   0  0  0  0  0  0
  -19.5665  -26.6343   21.5207 C   0  0  0  0  0  0
  -18.1965  -26.7755   22.1898 C   0  0  0  0  0  0
  -19.1535  -28.8819   23.2874 C   0  0  0  0  0  0
  -18.9461  -30.1462   23.8808 C   0  0  0  0  0  0
  -17.6471  -30.6616   24.0456 C   0  0  0  0  0  0
  -25.9053  -34.9461   23.5114 C   0  0  0  0  0  0
  -16.5356  -29.9077   23.6297 C   0  0  0  0  0  0
  -16.7279  -28.6436   23.0428 C   0  0  0  0  0  0
  -26.4508  -31.6591   25.0739 C   0  0  0  0  0  0
  -25.3732  -31.3742   26.1454 C   0  0  0  0  0  0
  -27.0335  -30.3004   24.6173 C   0  0  0  0  0  0
  -27.6081  -32.4318   25.7499 C   0  0  0  0  0  0
  -27.5584  -37.1797   24.8457 C   0  0  0  0  0  0
  -21.4154  -29.3084   22.3717 N   0  0  0  0  0  0
  -26.4297  -37.3786   23.9402 N   0  0  0  0  0  0
  -24.6763  -31.0700   22.1040 N   0  0  0  0  0  0
  -23.4172  -28.8162   23.3007 O   0  0  0  0  0  0
  -28.3312  -26.5497   20.0254 O   0  0  0  0  0  0
  -26.5618  -34.8915   22.4677 O   0  0  0  0  0  0
  -23.5394  -32.1422   23.7483 O   0  0  0  0  0  0
  -31.6218  -17.4555   21.4100 C   0  0  0  0  0  0
  -29.4189  -18.1846   20.7676 C   0  0  0  0  0  0
  -31.9811  -18.8089   21.5286 C   0  0  0  0  0  0
  -30.3180  -17.0936   21.0050 C   0  0  0  0  0  0
  -29.8741  -19.5376   20.9009 C   0  0  0  0  0  0
  -29.0715  -20.7755   20.5913 C   0  0  0  0  0  0
  -27.1250  -24.0092   21.5502 C   0  0  0  0  0  0
  -29.2931  -24.0444   22.8049 C   0  0  0  0  0  0
  -29.2864  -23.4190   20.3383 C   0  0  0  0  0  0
  -28.8142  -25.9043   21.2210 C   0  0  0  0  0  0
  -28.6257  -24.3380   21.4398 C   0  0  0  0  0  0
  -31.1396  -19.8298   21.2777 N   0  0  0  0  0  0
  -27.8132  -20.6727   20.1509 N   0  0  0  0  0  0
  -29.9225  -15.6928   20.8944 N   0  0  0  0  0  0
  -29.6458  -22.0065   20.7313 N   0  3  0  0  0  0
  -31.4682  -12.4742   19.1573 H   0  0  0  0  0  0
  -30.3325  -11.3803   19.8925 H   0  0  0  0  0  0
  -29.7671  -11.7551   17.4729 H   0  0  0  0  0  0
  -29.6529  -13.4743   17.7438 H   0  0  0  0  0  0
  -27.8623  -11.2901   18.8645 H   0  0  0  0  0  0
  -27.3749  -12.5727   17.7871 H   0  0  0  0  0  0
  -27.6657  -14.2492   19.5130 H   0  0  0  0  0  0
  -28.6958  -12.0621   21.3884 H   0  0  0  0  0  0
  -28.4381  -13.7220   21.8395 H   0  0  0  0  0  0
  -25.2744   -9.5684   22.4746 H   0  0  0  0  0  0
  -23.9971   -7.4638   22.7464 H   0  0  0  0  0  0
  -21.0810   -8.8780   19.8960 H   0  0  0  0  0  0
  -22.3663  -10.9672   19.6159 H   0  0  0  0  0  0
  -21.2042   -7.6139   23.9711 H   0  0  0  0  0  0
  -21.1463   -6.0515   25.9071 H   0  0  0  0  0  0
  -22.0600   -2.7598   23.2861 H   0  0  0  0  0  0
  -22.4098  -11.9913   22.4820 H   0  0  0  0  0  0
  -21.1106  -13.1294   22.2595 H   0  0  0  0  0  0
  -24.6527  -15.8412   20.4971 H   0  0  0  0  0  0
  -26.2625  -15.6241   20.0400 H   0  0  0  0  0  0
  -26.7136  -32.5530   23.1141 H   0  0  0  0  0  0
  -25.0104  -33.9781   25.0472 H   0  0  0  0  0  0
  -22.7019  -31.3111   21.4093 H   0  0  0  0  0  0
  -23.3757  -35.9635   23.3300 H   0  0  0  0  0  0
  -24.3566  -36.8925   22.2033 H   0  0  0  0  0  0
  -23.7272  -37.6507   23.6643 H   0  0  0  0  0  0
  -26.0726  -31.5649   20.6067 H   0  0  0  0  0  0
  -26.8262  -30.8572   22.0067 H   0  0  0  0  0  0
  -28.1117  -29.0268   21.2025 H   0  0  0  0  0  0
  -26.0484  -25.9606   18.9864 H   0  0  0  0  0  0
  -23.9788  -27.3138   19.0063 H   0  0  0  0  0  0
  -23.7419  -30.5960   19.4055 H   0  0  0  0  0  0
  -22.7484  -29.2503   19.8683 H   0  0  0  0  0  0
  -25.1301  -36.1943   25.0811 H   0  0  0  0  0  0
  -20.9978  -28.3108   24.1355 H   0  0  0  0  0  0
  -20.6026  -26.2270   23.3374 H   0  0  0  0  0  0
  -21.6635  -26.7684   22.0769 H   0  0  0  0  0  0
  -19.6896  -25.6253   21.1261 H   0  0  0  0  0  0
  -19.6366  -27.3126   20.6688 H   0  0  0  0  0  0
  -17.4020  -26.6148   21.4600 H   0  0  0  0  0  0
  -18.0773  -26.0061   22.9545 H   0  0  0  0  0  0
  -19.7954  -30.7299   24.2096 H   0  0  0  0  0  0
  -17.5054  -31.6350   24.4963 H   0  0  0  0  0  0
  -15.5355  -30.2990   23.7608 H   0  0  0  0  0  0
  -15.8662  -28.0712   22.7275 H   0  0  0  0  0  0
  -24.5893  -30.7118   25.7750 H   0  0  0  0  0  0
  -24.8935  -32.2925   26.4856 H   0  0  0  0  0  0
  -25.8024  -30.8901   27.0234 H   0  0  0  0  0  0
  -26.2891  -29.6768   24.1192 H   0  0  0  0  0  0
  -27.4019  -29.7259   25.4687 H   0  0  0  0  0  0
  -27.8790  -30.4284   23.9404 H   0  0  0  0  0  0
  -27.2686  -33.3605   26.2110 H   0  0  0  0  0  0
  -28.3864  -32.6908   25.0296 H   0  0  0  0  0  0
  -28.0772  -31.8415   26.5383 H   0  0  0  0  0  0
  -28.2594  -38.0098   24.7498 H   0  0  0  0  0  0
  -28.1091  -36.2625   24.6295 H   0  0  0  0  0  0
  -27.2291  -37.1471   25.8858 H   0  0  0  0  0  0
  -20.9306  -29.8892   21.7015 H   0  0  0  0  0  0
  -26.0187  -38.2863   24.1403 H   0  0  0  0  0  0
  -32.3661  -16.7072   21.6405 H   0  0  0  0  0  0
  -28.4015  -17.9881   20.4633 H   0  0  0  0  0  0
  -32.9796  -19.0838   21.8368 H   0  0  0  0  0  0
  -26.9674  -22.9798   21.8730 H   0  0  0  0  0  0
  -26.6219  -24.1375   20.5909 H   0  0  0  0  0  0
  -26.6235  -24.6576   22.2699 H   0  0  0  0  0  0
  -29.1613  -23.0092   23.1203 H   0  0  0  0  0  0
  -28.8714  -24.6658   23.5969 H   0  0  0  0  0  0
  -30.3658  -24.2411   22.7727 H   0  0  0  0  0  0
  -30.2210  -23.8873   20.0253 H   0  0  0  0  0  0
  -28.6665  -23.4019   19.4411 H   0  0  0  0  0  0
  -29.8816  -26.1262   21.2510 H   0  0  0  0  0  0
  -28.4056  -26.4252   22.0884 H   0  0  0  0  0  0
  -27.3910  -19.7608   20.0835 H   0  0  0  0  0  0
  -27.2575  -21.4719   19.9075 H   0  0  0  0  0  0
  -28.9474  -15.4981   21.0544 H   0  0  0  0  0  0
  -30.5879  -21.8932   21.0920 H   0  0  0  0  0  0
  1 25  1  0  0  0
  1 30  2  0  0  0
  1 84  1  0  0  0
  2  3  1  0  0  0
  2 25  1  0  0  0
  2 86  1  0  0  0
  2 87  1  0  0  0
  3  4  1  0  0  0
  3 88  1  0  0  0
  3 89  1  0  0  0
  4  5  1  0  0  0
  4 90  1  0  0  0
  4 91  1  0  0  0
  5  6  1  0  0  0
  5 26  1  0  0  0
  5 92  1  0  0  0
  6 25  1  0  0  0
  6 93  1  0  0  0
  6 94  1  0  0  0
  7  8  2  0  0  0
  7 26  1  0  0  0
  7 29  1  0  0  0
  8  9  1  0  0  0
  8 22  1  0  0  0
  9 10  1  0  0  0
  9 27  2  0  0  0
 10 11  2  0  0  0
 10 15  1  0  0  0
 11 12  1  0  0  0
 11 95  1  0  0  0
 12 13  2  0  0  0
 12 96  1  0  0  0
 13 14  1  0  0  0
 13 31  1  0  0  0
 14 15  2  0  0  0
 14 97  1  0  0  0
 15 98  1  0  0  0
 16 17  2  0  0  0
 16 21  1  0  0  0
 16 31  1  0  0  0
 17 18  1  0  0  0
 17 99  1  0  0  0
 18 19  2  0  0  0
 18100  1  0  0  0
 19 20  1  0  0  0
 19 24  1  0  0  0
 20 21  2  0  0  0
 20101  1  0  0  0
 21 23  1  0  0  0
 22 28  1  0  0  0
 22 32  2  0  0  0
 26 27  1  0  0  0
 28102  1  0  0  0
 28103  1  0  0  0
 29104  1  0  0  0
 29105  1  0  0  0
 33 34  1  0  0  0
 33 66  1  0  0  0
 33 70  2  0  0  0
 34 36  1  0  0  0
 34 59  1  0  0  0
 34106  1  0  0  0
 35 44  2  0  0  0
 35 45  1  0  0  0
 35 68  1  0  0  0
 36 56  1  0  0  0
 36107  1  0  0  0
 37 39  1  0  0  0
 37 47  1  0  0  0
 37 66  1  0  0  0
 37108  1  0  0  0
 38 43  2  0  0  0
 38 46  1  0  0  0
 38 47  1  0  0  0
 39 64  1  0  0  0
 39 67  2  0  0  0
 40 52  1  0  0  0
 40 53  2  0  0  0
 40 58  1  0  0  0
 41109  1  0  0  0
 41110  1  0  0  0
 41111  1  0  0  0
 41 48  1  0  0  0
 42 43  1  0  0  0
 42 66  1  0  0  0
 42112  1  0  0  0
 42113  1  0  0  0
 43 44  1  0  0  0
 44114  1  0  0  0
 45 46  2  0  0  0
 45115  1  0  0  0
 46116  1  0  0  0
 47117  1  0  0  0
 47118  1  0  0  0
 48 56  1  0  0  0
 48 65  1  0  0  0
 48119  1  0  0  0
 49 50  1  0  0  0
 49 53  1  0  0  0
 49 64  1  0  0  0
 49120  1  0  0  0
 50 51  1  0  0  0
 50121  1  0  0  0
 50122  1  0  0  0
 51 52  1  0  0  0
 51123  1  0  0  0
 51124  1  0  0  0
 52125  1  0  0  0
 52126  1  0  0  0
 53 54  1  0  0  0
 54 55  2  0  0  0
 54127  1  0  0  0
 55 57  1  0  0  0
 55128  1  0  0  0
 56 69  2  0  0  0
 57 58  2  0  0  0
 57129  1  0  0  0
 58130  1  0  0  0
 59 60  1  0  0  0
 59 61  1  0  0  0
 59 62  1  0  0  0
 60131  1  0  0  0
 60132  1  0  0  0
 60133  1  0  0  0
 61134  1  0  0  0
 61135  1  0  0  0
 61136  1  0  0  0
 62137  1  0  0  0
 62138  1  0  0  0
 62139  1  0  0  0
 63 65  1  0  0  0
 63140  1  0  0  0
 63141  1  0  0  0
 63142  1  0  0  0
 64143  1  0  0  0
 65144  1  0  0  0
 68 80  1  0  0  0
 71 73  2  0  0  0
 71 74  1  0  0  0
 71145  1  0  0  0
 72 74  2  0  0  0
 72 75  1  0  0  0
 72146  1  0  0  0
 73 82  1  0  0  0
 73147  1  0  0  0
 74 84  1  0  0  0
 75 76  1  0  0  0
 75 82  2  0  0  0
 76 83  1  0  0  0
 76 85  2  0  0  0
 77148  1  0  0  0
 77149  1  0  0  0
 77150  1  0  0  0
 77 81  1  0  0  0
 78 81  1  0  0  0
 78151  1  0  0  0
 78152  1  0  0  0
 78153  1  0  0  0
 79 81  1  0  0  0
 79 85  1  0  0  0
 79154  1  0  0  0
 79155  1  0  0  0
 80 81  1  0  0  0
 80156  1  0  0  0
 80157  1  0  0  0
 83158  1  0  0  0
 83159  1  0  0  0
 84160  1  0  0  0
 85161  1  0  0  0
M  CHG  1  85   1
M  ISO  4   1 100  68 101  80 101  84 100
M  END
> <chiral flag>
0

> <version>
0

> <s_m_source_file>
/data/baiqing/PycharmProjects/Reinvent-master-3.2/result/LINK_invent/BTK/process_docking_weight1_custom_product_contain_oxygen_bond_distance_aromatic_linkinvent_7_9_3/rearranged_h_0156.sdf

> <i_m_source_file_index>
17

> <r_mmod_Potential_Energy-OPLS-2005>
-316.014801025391

> <r_mmod_Stretch_Energy-OPLS-2005>
62.9298820495605

> <r_mmod_Bend_Energy-OPLS-2005>
144.555618286133

> <r_mmod_Torsional_Energy-OPLS-2005>
274.543090820312

> <r_mmod_Improper_Torsional_Energy-OPLS-2005>
4.95138263702393

> <r_mmod_Van_der_Waal_Energy-OPLS-2005>
152.584091186523

> <r_mmod_Electrostatic_Energy-OPLS-2005>
-538.663024902344

> <r_mmod_Solvation_Energy-OPLS-2005>
-449.539886474609

> <b_mmod_Minimization_Converged-OPLS-2005>
0

> <r_mmod_RMS_Derivative-OPLS-2005>
2.5816924571991

$$$$
17
                    3D
 Structure written by MMmdl.
156164  0  0  1  0            999 V2000
  -30.6870  -14.5251   20.5467 C   0  0  0  0  0  0
  -30.4296  -12.3281   19.4492 C   0  0  0  0  0  0
  -29.5123  -12.5327   18.2237 C   0  0  0  0  0  0
  -28.0288  -12.3901   18.6180 C   0  0  0  0  0  0
  -27.6632  -13.2193   19.8790 C   0  0  2  0  0  0
  -28.7035  -13.0187   21.0073 C   0  0  0  0  0  0
  -25.2558  -13.8174   20.5641 C   0  0  0  0  0  0
  -24.1834  -13.0441   20.9122 C   0  0  0  0  0  0
  -24.6419  -11.6912   20.8718 C   0  0  0  0  0  0
  -23.9091  -10.4298   21.0408 C   0  0  0  0  0  0
  -24.3632   -9.4206   21.9188 C   0  0  0  0  0  0
  -23.6293   -8.2252   22.0759 C   0  0  0  0  0  0
  -22.4265   -8.0311   21.3555 C   0  0  0  0  0  0
  -21.9926   -9.0285   20.4653 C   0  0  0  0  0  0
  -22.7268  -10.2150   20.3060 C   0  0  0  0  0  0
  -21.6860   -6.0756   22.5281 C   0  0  0  0  0  0
  -21.4037   -6.5655   23.8220 C   0  0  0  0  0  0
  -21.3664   -5.6801   24.9167 C   0  0  0  0  0  0
  -21.6024   -4.3056   24.7209 C   0  0  0  0  0  0
  -21.8828   -3.8151   23.4332 C   0  0  0  0  0  0
  -21.9195   -4.6980   22.3390 C   0  0  0  0  0  0
  -22.7846  -13.5220   21.1799 C   0  0  0  0  0  0
  -22.1660   -4.2180   21.0965 F   0  0  0  0  0  0
  -21.5627   -3.4534   25.7705 F   0  0  0  0  0  0
  -30.0382  -13.3255   20.4594 N   0  0  0  0  0  0
  -26.3028  -12.9379   20.3346 N   0  0  0  0  0  0
  -25.9349  -11.6528   20.5729 N   0  0  0  0  0  0
  -22.0511  -12.8219   22.0392 N   0  0  0  0  0  0
  -25.4234  -15.1922   20.4083 N   0  0  0  0  0  0
  -31.8243  -14.6854   20.0934 O   0  0  0  0  0  0
  -21.6629   -6.8902   21.4250 O   0  0  0  0  0  0
  -22.3516  -14.5549   20.6680 O   0  0  0  0  0  0
  -24.6176  -31.8696   23.2062 C   0  0  0  0  0  0
  -25.9060  -32.4822   23.8380 C   0  0  1  0  0  0
  -27.2484  -27.4392   20.0840 C   0  0  0  0  0  0
  -25.5900  -33.8609   24.2317 N   0  0  0  0  0  0
  -23.4075  -30.4885   21.5458 C   0  0  2  0  0  0
  -24.8572  -28.9538   20.1107 C   0  0  0  0  0  0
  -22.7451  -29.4683   22.4984 C   0  0  0  0  0  0
  -18.0274  -28.1249   22.8662 C   0  0  0  0  0  0
  -24.1486  -36.7314   23.2624 C   0  0  0  0  0  0
  -25.9340  -30.8346   21.3576 C   0  0  0  0  0  0
  -26.0181  -29.4697   20.7039 C   0  0  0  0  0  0
  -27.2188  -28.7179   20.6886 C   0  0  0  0  0  0
  -26.0709  -26.9399   19.4841 C   0  0  0  0  0  0
  -24.8780  -27.6889   19.4967 C   0  0  0  0  0  0
  -23.6155  -29.8144   20.1633 C   0  0  0  0  0  0
  -25.4099  -36.3091   24.0321 C   0  0  1  0  0  0
  -20.5871  -28.3682   23.1217 C   0  0  2  0  0  0
  -20.6851  -26.9511   22.5069 C   0  0  0  0  0  0
  -19.5534  -26.6300   21.5258 C   0  0  0  0  0  0
  -18.1981  -26.7578   22.2251 C   0  0  0  0  0  0
  -19.1536  -28.8833   23.2821 C   0  0  0  0  0  0
  -18.9456  -30.1534   23.8643 C   0  0  0  0  0  0
  -17.6462  -30.6644   24.0314 C   0  0  0  0  0  0
  -25.9034  -34.9474   23.5126 C   0  0  0  0  0  0
  -16.5344  -29.9030   23.6304 C   0  0  0  0  0  0
  -16.7267  -28.6355   23.0499 C   0  0  0  0  0  0
  -26.4469  -31.6587   25.0711 C   0  0  0  0  0  0
  -25.3725  -31.3719   26.1462 C   0  0  0  0  0  0
  -27.0315  -30.3031   24.6104 C   0  0  0  0  0  0
  -27.6068  -32.4289   25.7457 C   0  0  0  0  0  0
  -27.5573  -37.1800   24.8451 C   0  0  0  0  0  0
  -21.4173  -29.3145   22.3788 N   0  0  0  0  0  0
  -26.4296  -37.3771   23.9394 N   0  0  0  0  0  0
  -24.6705  -31.0789   22.0952 N   0  0  0  0  0  0
  -23.4215  -28.8166   23.2976 O   0  0  0  0  0  0
  -28.4038  -26.6841   20.0560 O   0  0  0  0  0  0
  -26.5601  -34.8939   22.4684 O   0  0  0  0  0  0
  -23.5370  -32.1447   23.7465 O   0  0  0  0  0  0
  -28.9907  -17.8429   21.1476 C   0  0  0  0  0  0
  -30.0573  -16.9516   20.8222 C   0  0  0  0  0  0
  -29.4319  -19.0787   20.7538 C   0  0  0  0  0  0
  -28.9918  -24.2392   20.2295 C   0  0  0  0  0  0
  -27.0732  -22.6576   20.0272 C   0  0  0  0  0  0
  -28.3141  -22.8681   22.2366 C   0  0  0  0  0  0
  -28.3232  -25.4953   20.8603 C   0  0  0  0  0  0
  -29.3749  -21.6065   20.3258 C   0  0  0  0  0  0
  -28.4574  -22.8406   20.6948 C   0  0  0  0  0  0
  -31.0802  -17.6123   20.2851 N   0  0  0  0  0  0
  -29.9496  -15.5394   21.0513 N   0  0  0  0  0  0
  -28.8025  -20.3310   20.8045 N   0  0  0  0  0  0
  -29.8903  -24.3438   19.3888 O   0  0  0  0  0  0
  -30.6882  -18.9649   20.2391 O   0  0  0  0  0  0
  -31.4821  -12.4107   19.1672 H   0  0  0  0  0  0
  -30.3096  -11.3222   19.8558 H   0  0  0  0  0  0
  -29.7615  -11.8178   17.4404 H   0  0  0  0  0  0
  -29.6872  -13.5234   17.7999 H   0  0  0  0  0  0
  -27.8270  -11.3314   18.7908 H   0  0  0  0  0  0
  -27.3950  -12.6912   17.7829 H   0  0  0  0  0  0
  -27.6964  -14.2669   19.5789 H   0  0  0  0  0  0
  -28.6759  -11.9900   21.3711 H   0  0  0  0  0  0
  -28.4583  -13.6346   21.8746 H   0  0  0  0  0  0
  -25.2785   -9.5662   22.4759 H   0  0  0  0  0  0
  -24.0004   -7.4647   22.7484 H   0  0  0  0  0  0
  -21.0863   -8.8825   19.8951 H   0  0  0  0  0  0
  -22.3756  -10.9705   19.6172 H   0  0  0  0  0  0
  -21.2057   -7.6174   23.9730 H   0  0  0  0  0  0
  -21.1464   -6.0527   25.9071 H   0  0  0  0  0  0
  -22.0588   -2.7619   23.2825 H   0  0  0  0  0  0
  -22.4131  -11.9876   22.4765 H   0  0  0  0  0  0
  -21.1169  -13.1306   22.2671 H   0  0  0  0  0  0
  -24.6448  -15.8355   20.5020 H   0  0  0  0  0  0
  -26.2581  -15.6379   20.0515 H   0  0  0  0  0  0
  -26.7155  -32.5548   23.1175 H   0  0  0  0  0  0
  -25.0025  -33.9742   25.0445 H   0  0  0  0  0  0
  -22.6961  -31.3035   21.3987 H   0  0  0  0  0  0
  -23.3749  -35.9650   23.3290 H   0  0  0  0  0  0
  -24.3588  -36.8925   22.2046 H   0  0  0  0  0  0
  -23.7289  -37.6524   23.6658 H   0  0  0  0  0  0
  -26.0504  -31.6055   20.5939 H   0  0  0  0  0  0
  -26.8190  -30.8897   21.9800 H   0  0  0  0  0  0
  -28.1167  -29.1121   21.1446 H   0  0  0  0  0  0
  -26.0804  -25.9739   18.9962 H   0  0  0  0  0  0
  -23.9853  -27.2904   19.0301 H   0  0  0  0  0  0
  -23.7140  -30.5797   19.3941 H   0  0  0  0  0  0
  -22.7427  -29.2234   19.8776 H   0  0  0  0  0  0
  -25.1288  -36.1933   25.0817 H   0  0  0  0  0  0
  -20.9895  -28.3100   24.1352 H   0  0  0  0  0  0
  -21.6545  -26.7872   22.0346 H   0  0  0  0  0  0
  -20.6313  -26.2283   23.3211 H   0  0  0  0  0  0
  -19.6768  -25.6234   21.1247 H   0  0  0  0  0  0
  -19.5968  -27.3103   20.6759 H   0  0  0  0  0  0
  -17.3843  -26.5575   21.5247 H   0  0  0  0  0  0
  -18.1217  -26.0060   23.0146 H   0  0  0  0  0  0
  -19.7974  -30.7424   24.1751 H   0  0  0  0  0  0
  -17.5065  -31.6454   24.4646 H   0  0  0  0  0  0
  -15.5345  -30.2929   23.7622 H   0  0  0  0  0  0
  -15.8672  -28.0529   22.7464 H   0  0  0  0  0  0
  -24.5878  -30.7091   25.7790 H   0  0  0  0  0  0
  -24.8951  -32.2901   26.4915 H   0  0  0  0  0  0
  -25.8071  -30.8876   27.0225 H   0  0  0  0  0  0
  -26.2887  -29.6775   24.1163 H   0  0  0  0  0  0
  -27.4082  -29.7277   25.4562 H   0  0  0  0  0  0
  -27.8702  -30.4312   23.9263 H   0  0  0  0  0  0
  -27.2705  -33.3562   26.2109 H   0  0  0  0  0  0
  -28.3848  -32.6900   25.0266 H   0  0  0  0  0  0
  -28.0803  -31.8388   26.5315 H   0  0  0  0  0  0
  -28.2583  -38.0094   24.7485 H   0  0  0  0  0  0
  -28.1077  -36.2639   24.6291 H   0  0  0  0  0  0
  -27.2288  -37.1450   25.8847 H   0  0  0  0  0  0
  -20.9396  -29.9075   21.7147 H   0  0  0  0  0  0
  -26.0179  -38.2834   24.1435 H   0  0  0  0  0  0
  -28.0328  -17.6067   21.5861 H   0  0  0  0  0  0
  -26.4271  -23.5275   20.1439 H   0  0  0  0  0  0
  -26.5309  -21.8131   20.4522 H   0  0  0  0  0  0
  -27.1697  -22.4806   18.9544 H   0  0  0  0  0  0
  -27.6713  -23.6699   22.5974 H   0  0  0  0  0  0
  -29.2877  -22.9932   22.7120 H   0  0  0  0  0  0
  -27.8770  -21.9503   22.6231 H   0  0  0  0  0  0
  -28.8090  -25.7034   21.8144 H   0  0  0  0  0  0
  -27.2855  -25.2617   21.0947 H   0  0  0  0  0  0
  -30.3697  -21.7341   20.7570 H   0  0  0  0  0  0
  -29.5200  -21.5404   19.2458 H   0  0  0  0  0  0
  -29.0856  -15.2432   21.4717 H   0  0  0  0  0  0
  -27.9021  -20.3922   21.2642 H   0  0  0  0  0  0
  1 25  1  0  0  0
  1 30  2  0  0  0
  1 81  1  0  0  0
  2  3  1  0  0  0
  2 25  1  0  0  0
  2 85  1  0  0  0
  2 86  1  0  0  0
  3  4  1  0  0  0
  3 87  1  0  0  0
  3 88  1  0  0  0
  4  5  1  0  0  0
  4 89  1  0  0  0
  4 90  1  0  0  0
  5  6  1  0  0  0
  5 26  1  0  0  0
  5 91  1  0  0  0
  6 25  1  0  0  0
  6 92  1  0  0  0
  6 93  1  0  0  0
  7  8  2  0  0  0
  7 26  1  0  0  0
  7 29  1  0  0  0
  8  9  1  0  0  0
  8 22  1  0  0  0
  9 10  1  0  0  0
  9 27  2  0  0  0
 10 11  2  0  0  0
 10 15  1  0  0  0
 11 12  1  0  0  0
 11 94  1  0  0  0
 12 13  2  0  0  0
 12 95  1  0  0  0
 13 14  1  0  0  0
 13 31  1  0  0  0
 14 15  2  0  0  0
 14 96  1  0  0  0
 15 97  1  0  0  0
 16 17  2  0  0  0
 16 21  1  0  0  0
 16 31  1  0  0  0
 17 18  1  0  0  0
 17 98  1  0  0  0
 18 19  2  0  0  0
 18 99  1  0  0  0
 19 20  1  0  0  0
 19 24  1  0  0  0
 20 21  2  0  0  0
 20100  1  0  0  0
 21 23  1  0  0  0
 22 28  1  0  0  0
 22 32  2  0  0  0
 26 27  1  0  0  0
 28101  1  0  0  0
 28102  1  0  0  0
 29103  1  0  0  0
 29104  1  0  0  0
 33 34  1  0  0  0
 33 66  1  0  0  0
 33 70  2  0  0  0
 34 36  1  0  0  0
 34 59  1  0  0  0
 34105  1  0  0  0
 35 44  2  0  0  0
 35 45  1  0  0  0
 35 68  1  0  0  0
 36 56  1  0  0  0
 36106  1  0  0  0
 37 39  1  0  0  0
 37 47  1  0  0  0
 37 66  1  0  0  0
 37107  1  0  0  0
 38 43  2  0  0  0
 38 46  1  0  0  0
 38 47  1  0  0  0
 39 64  1  0  0  0
 39 67  2  0  0  0
 40 52  1  0  0  0
 40 53  2  0  0  0
 40 58  1  0  0  0
 41108  1  0  0  0
 41109  1  0  0  0
 41110  1  0  0  0
 41 48  1  0  0  0
 42 43  1  0  0  0
 42 66  1  0  0  0
 42111  1  0  0  0
 42112  1  0  0  0
 43 44  1  0  0  0
 44113  1  0  0  0
 45 46  2  0  0  0
 45114  1  0  0  0
 46115  1  0  0  0
 47116  1  0  0  0
 47117  1  0  0  0
 48 56  1  0  0  0
 48 65  1  0  0  0
 48118  1  0  0  0
 49 50  1  0  0  0
 49 53  1  0  0  0
 49 64  1  0  0  0
 49119  1  0  0  0
 50 51  1  0  0  0
 50120  1  0  0  0
 50121  1  0  0  0
 51 52  1  0  0  0
 51122  1  0  0  0
 51123  1  0  0  0
 52124  1  0  0  0
 52125  1  0  0  0
 53 54  1  0  0  0
 54 55  2  0  0  0
 54126  1  0  0  0
 55 57  1  0  0  0
 55127  1  0  0  0
 56 69  2  0  0  0
 57 58  2  0  0  0
 57128  1  0  0  0
 58129  1  0  0  0
 59 60  1  0  0  0
 59 61  1  0  0  0
 59 62  1  0  0  0
 60130  1  0  0  0
 60131  1  0  0  0
 60132  1  0  0  0
 61133  1  0  0  0
 61134  1  0  0  0
 61135  1  0  0  0
 62136  1  0  0  0
 62137  1  0  0  0
 62138  1  0  0  0
 63 65  1  0  0  0
 63139  1  0  0  0
 63140  1  0  0  0
 63141  1  0  0  0
 64142  1  0  0  0
 65143  1  0  0  0
 68 77  1  0  0  0
 71 72  1  0  0  0
 71 73  2  0  0  0
 71144  1  0  0  0
 72 80  2  0  0  0
 72 81  1  0  0  0
 73 82  1  0  0  0
 73 84  1  0  0  0
 74 77  1  0  0  0
 74 79  1  0  0  0
 74 83  2  0  0  0
 75145  1  0  0  0
 75146  1  0  0  0
 75147  1  0  0  0
 75 79  1  0  0  0
 76 79  1  0  0  0
 76148  1  0  0  0
 76149  1  0  0  0
 76150  1  0  0  0
 77151  1  0  0  0
 77152  1  0  0  0
 78 79  1  0  0  0
 78 82  1  0  0  0
 78153  1  0  0  0
 78154  1  0  0  0
 80 84  1  0  0  0
 81155  1  0  0  0
 82156  1  0  0  0
M  ISO  4   1 100  68 101  77 101  81 100
M  END
> <chiral flag>
0

> <version>
0

> <s_m_source_file>
/data/baiqing/PycharmProjects/Reinvent-master-3.2/result/LINK_invent/BTK/process_docking_weight1_custom_product_contain_oxygen_bond_distance_aromatic_linkinvent_7_9_3/rearranged_h_0156.sdf

> <i_m_source_file_index>
18

> <r_mmod_Potential_Energy-OPLS-2005>
-81.1909484863281

> <r_mmod_Stretch_Energy-OPLS-2005>
44.9494438171387

> <r_mmod_Bend_Energy-OPLS-2005>
116.868217468262

> <r_mmod_Torsional_Energy-OPLS-2005>
244.327941894531

> <r_mmod_Improper_Torsional_Energy-OPLS-2005>
3.88721299171448

> <r_mmod_Van_der_Waal_Energy-OPLS-2005>
134.007781982422

> <r_mmod_Electrostatic_Energy-OPLS-2005>
-380.233825683594

> <r_mmod_Solvation_Energy-OPLS-2005>
-261.255523681641

> <b_mmod_Minimization_Converged-OPLS-2005>
0

> <r_mmod_RMS_Derivative-OPLS-2005>
4.30594301223755

$$$$
18
                    3D
 Structure written by MMmdl.
157166  0  0  1  0            999 V2000
  -30.5306  -14.8837   20.4413 C   0  0  0  0  0  0
  -30.4538  -12.5466   19.4838 C   0  0  0  0  0  0
  -29.5244  -12.5308   18.2470 C   0  0  0  0  0  0
  -28.0545  -12.3225   18.6630 C   0  0  0  0  0  0
  -27.6376  -13.2358   19.8445 C   0  0  2  0  0  0
  -28.6830  -13.2107   20.9811 C   0  0  0  0  0  0
  -25.2488  -13.8191   20.5694 C   0  0  0  0  0  0
  -24.1788  -13.0436   20.9215 C   0  0  0  0  0  0
  -24.6387  -11.6912   20.8735 C   0  0  0  0  0  0
  -23.9071  -10.4291   21.0401 C   0  0  0  0  0  0
  -24.3614   -9.4203   21.9176 C   0  0  0  0  0  0
  -23.6284   -8.2241   22.0752 C   0  0  0  0  0  0
  -22.4265   -8.0284   21.3548 C   0  0  0  0  0  0
  -21.9901   -9.0258   20.4653 C   0  0  0  0  0  0
  -22.7242  -10.2129   20.3054 C   0  0  0  0  0  0
  -21.6855   -6.0719   22.5272 C   0  0  0  0  0  0
  -21.4019   -6.5618   23.8208 C   0  0  0  0  0  0
  -21.3664   -5.6773   24.9168 C   0  0  0  0  0  0
  -21.6044   -4.3039   24.7222 C   0  0  0  0  0  0
  -21.8821   -3.8132   23.4347 C   0  0  0  0  0  0
  -21.9194   -4.6945   22.3399 C   0  0  0  0  0  0
  -22.7812  -13.5221   21.1882 C   0  0  0  0  0  0
  -22.1661   -4.2129   21.0977 F   0  0  0  0  0  0
  -21.5634   -3.4522   25.7739 F   0  0  0  0  0  0
  -29.9712  -13.6139   20.3974 N   0  0  0  0  0  0
  -26.2914  -12.9399   20.3245 N   0  0  0  0  0  0
  -25.9313  -11.6542   20.5710 N   0  0  0  0  0  0
  -22.0456  -12.8212   22.0437 N   0  0  0  0  0  0
  -25.4165  -15.1914   20.4103 N   0  0  0  0  0  0
  -31.7262  -15.0163   20.1603 O   0  0  0  0  0  0
  -21.6641   -6.8868   21.4238 O   0  0  0  0  0  0
  -22.3497  -14.5520   20.6725 O   0  0  0  0  0  0
  -24.6374  -31.8476   23.1930 C   0  0  0  0  0  0
  -25.9171  -32.4699   23.8296 C   0  0  1  0  0  0
  -27.2203  -27.1922   20.1392 C   0  0  0  0  0  0
  -25.5956  -33.8511   24.2222 N   0  0  0  0  0  0
  -23.4390  -30.4702   21.5358 C   0  0  2  0  0  0
  -24.8892  -28.9053   20.1107 C   0  0  0  0  0  0
  -22.7531  -29.4561   22.4856 C   0  0  0  0  0  0
  -18.0302  -28.1382   22.8466 C   0  0  0  0  0  0
  -24.1499  -36.7256   23.2642 C   0  0  0  0  0  0
  -25.9907  -30.7383   21.3861 C   0  0  0  0  0  0
  -26.0634  -29.3547   20.7280 C   0  0  0  0  0  0
  -27.2332  -28.5134   20.7263 C   0  0  0  0  0  0
  -26.0253  -26.8343   19.4797 C   0  0  0  0  0  0
  -24.8786  -27.6557   19.4722 C   0  0  0  0  0  0
  -23.6655  -29.8050   20.1529 C   0  0  0  0  0  0
  -25.4120  -36.3033   24.0325 C   0  0  1  0  0  0
  -20.5910  -28.3702   23.1233 C   0  0  2  0  0  0
  -20.6787  -26.9405   22.5401 C   0  0  0  0  0  0
  -19.5767  -26.6376   21.5194 C   0  0  0  0  0  0
  -18.1948  -26.7921   22.1608 C   0  0  0  0  0  0
  -19.1560  -28.8856   23.2850 C   0  0  0  0  0  0
  -18.9482  -30.1452   23.8878 C   0  0  0  0  0  0
  -17.6483  -30.6571   24.0563 C   0  0  0  0  0  0
  -25.9070  -34.9408   23.5079 C   0  0  0  0  0  0
  -16.5374  -29.9070   23.6323 C   0  0  0  0  0  0
  -16.7292  -28.6493   23.0330 C   0  0  0  0  0  0
  -26.4531  -31.6532   25.0700 C   0  0  0  0  0  0
  -25.3757  -31.3694   26.1421 C   0  0  0  0  0  0
  -27.0377  -30.2926   24.6242 C   0  0  0  0  0  0
  -27.6084  -32.4272   25.7476 C   0  0  0  0  0  0
  -27.5578  -37.1779   24.8459 C   0  0  0  0  0  0
  -21.4226  -29.3042   22.3612 N   0  0  0  0  0  0
  -26.4281  -37.3749   23.9416 N   0  0  0  0  0  0
  -24.7079  -31.0384   22.0944 N   0  0  0  0  0  0
  -23.4199  -28.8105   23.2984 O   0  0  0  0  0  0
  -28.2927  -26.2451   20.1517 O   0  0  0  0  0  0
  -26.5637  -34.8911   22.4646 O   0  0  0  0  0  0
  -23.5498  -32.1343   23.7170 O   0  0  0  0  0  0
  -28.2661  -19.6227   20.2131 C   0  0  0  0  0  0
  -28.4422  -18.1884   20.1703 C   0  0  0  0  0  0
  -30.6904  -18.4150   20.8616 C   0  0  0  0  0  0
  -29.2785  -20.5443   20.6218 C   0  0  0  0  0  0
  -29.6493  -17.4922   20.5136 C   0  0  0  0  0  0
  -30.5127  -19.8599   20.9217 C   0  0  0  0  0  0
  -27.6087  -23.4933   22.7596 C   0  0  0  0  0  0
  -27.7641  -22.1681   21.9699 C   0  0  0  0  0  0
  -28.1748  -24.7701   22.0967 C   0  0  0  0  0  0
  -28.8343  -23.4280   20.0200 C   0  0  0  0  0  0
  -28.9723  -22.1114   21.0147 C   0  0  2  0  0  0
  -28.0460  -24.7849   20.5694 C   0  0  2  0  0  0
  -29.6468  -15.9707   20.5878 N   0  0  0  0  0  0
  -31.5637  -20.6017   21.3470 F   0  0  0  0  0  0
  -31.4868  -12.7165   19.1752 H   0  0  0  0  0  0
  -30.4464  -11.5797   19.9880 H   0  0  0  0  0  0
  -29.8295  -11.7484   17.5514 H   0  0  0  0  0  0
  -29.6210  -13.4741   17.7068 H   0  0  0  0  0  0
  -27.9381  -11.2765   18.9492 H   0  0  0  0  0  0
  -27.3953  -12.4797   17.8083 H   0  0  0  0  0  0
  -27.6128  -14.2466   19.4372 H   0  0  0  0  0  0
  -28.7500  -12.2182   21.4273 H   0  0  0  0  0  0
  -28.3922  -13.8861   21.7880 H   0  0  0  0  0  0
  -25.2754   -9.5668   22.4758 H   0  0  0  0  0  0
  -23.9986   -7.4625   22.7469 H   0  0  0  0  0  0
  -21.0830   -8.8789   19.8961 H   0  0  0  0  0  0
  -22.3706  -10.9666   19.6167 H   0  0  0  0  0  0
  -21.2014   -7.6125   23.9697 H   0  0  0  0  0  0
  -21.1486   -6.0509   25.9069 H   0  0  0  0  0  0
  -22.0597   -2.7590   23.2855 H   0  0  0  0  0  0
  -22.4060  -11.9874   22.4833 H   0  0  0  0  0  0
  -21.1081  -13.1255   22.2643 H   0  0  0  0  0  0
  -24.6403  -15.8372   20.5122 H   0  0  0  0  0  0
  -26.2405  -15.6228   20.0147 H   0  0  0  0  0  0
  -26.7231  -32.5332   23.1024 H   0  0  0  0  0  0
  -25.0102  -33.9616   25.0369 H   0  0  0  0  0  0
  -22.7400  -31.2959   21.3844 H   0  0  0  0  0  0
  -23.3765  -35.9579   23.3272 H   0  0  0  0  0  0
  -24.3609  -36.8909   22.2065 H   0  0  0  0  0  0
  -23.7249  -37.6449   23.6689 H   0  0  0  0  0  0
  -26.1405  -31.4974   20.6179 H   0  0  0  0  0  0
  -26.8634  -30.7872   22.0255 H   0  0  0  0  0  0
  -28.1320  -28.8542   21.2208 H   0  0  0  0  0  0
  -25.9650  -25.8881   18.9613 H   0  0  0  0  0  0
  -23.9859  -27.3132   18.9670 H   0  0  0  0  0  0
  -23.8054  -30.5838   19.4019 H   0  0  0  0  0  0
  -22.7815  -29.2489   19.8361 H   0  0  0  0  0  0
  -25.1298  -36.1873   25.0814 H   0  0  0  0  0  0
  -21.0000  -28.3294   24.1352 H   0  0  0  0  0  0
  -20.5641  -26.2311   23.3614 H   0  0  0  0  0  0
  -21.6663  -26.7397   22.1227 H   0  0  0  0  0  0
  -19.6931  -25.6281   21.1227 H   0  0  0  0  0  0
  -19.6707  -27.3181   20.6721 H   0  0  0  0  0  0
  -17.4206  -26.6644   21.4026 H   0  0  0  0  0  0
  -18.0373  -26.0072   22.9018 H   0  0  0  0  0  0
  -19.7961  -30.7275   24.2239 H   0  0  0  0  0  0
  -17.5036  -31.6245   24.5172 H   0  0  0  0  0  0
  -15.5377  -30.2970   23.7658 H   0  0  0  0  0  0
  -15.8688  -28.0825   22.7026 H   0  0  0  0  0  0
  -24.5951  -30.7012   25.7760 H   0  0  0  0  0  0
  -24.8933  -32.2859   26.4824 H   0  0  0  0  0  0
  -25.8093  -30.8901   27.0207 H   0  0  0  0  0  0
  -26.2964  -29.6649   24.1279 H   0  0  0  0  0  0
  -27.4025  -29.7222   25.4795 H   0  0  0  0  0  0
  -27.8870  -30.4145   23.9518 H   0  0  0  0  0  0
  -27.2698  -33.3582   26.2035 H   0  0  0  0  0  0
  -28.3917  -32.6802   25.0316 H   0  0  0  0  0  0
  -28.0730  -31.8402   26.5408 H   0  0  0  0  0  0
  -28.2566  -38.0105   24.7526 H   0  0  0  0  0  0
  -28.1105  -36.2634   24.6250 H   0  0  0  0  0  0
  -27.2304  -37.1383   25.8865 H   0  0  0  0  0  0
  -20.9399  -29.8788   21.6844 H   0  0  0  0  0  0
  -26.0145  -38.2812   24.1444 H   0  0  0  0  0  0
  -27.2835  -20.0137   19.9882 H   0  0  0  0  0  0
  -27.5793  -17.6026   19.8908 H   0  0  0  0  0  0
  -31.6494  -18.0163   21.1580 H   0  0  0  0  0  0
  -28.0700  -23.3911   23.7429 H   0  0  0  0  0  0
  -26.5458  -23.6430   22.9538 H   0  0  0  0  0  0
  -26.8543  -21.9780   21.3988 H   0  0  0  0  0  0
  -27.8349  -21.3553   22.6956 H   0  0  0  0  0  0
  -29.2272  -24.8865   22.3575 H   0  0  0  0  0  0
  -27.6674  -25.6351   22.5266 H   0  0  0  0  0  0
  -28.3266  -23.1147   19.1075 H   0  0  0  0  0  0
  -29.8372  -23.7113   19.7002 H   0  0  0  0  0  0
  -29.8288  -22.3607   21.6425 H   0  0  0  0  0  0
  -26.9961  -24.5757   20.3687 H   0  0  0  0  0  0
  -28.7142  -15.6075   20.7048 H   0  0  0  0  0  0
  1 25  1  0  0  0
  1 30  2  0  0  0
  1 83  1  0  0  0
  2  3  1  0  0  0
  2 25  1  0  0  0
  2 85  1  0  0  0
  2 86  1  0  0  0
  3  4  1  0  0  0
  3 87  1  0  0  0
  3 88  1  0  0  0
  4  5  1  0  0  0
  4 89  1  0  0  0
  4 90  1  0  0  0
  5  6  1  0  0  0
  5 26  1  0  0  0
  5 91  1  0  0  0
  6 25  1  0  0  0
  6 92  1  0  0  0
  6 93  1  0  0  0
  7  8  2  0  0  0
  7 26  1  0  0  0
  7 29  1  0  0  0
  8  9  1  0  0  0
  8 22  1  0  0  0
  9 10  1  0  0  0
  9 27  2  0  0  0
 10 11  2  0  0  0
 10 15  1  0  0  0
 11 12  1  0  0  0
 11 94  1  0  0  0
 12 13  2  0  0  0
 12 95  1  0  0  0
 13 14  1  0  0  0
 13 31  1  0  0  0
 14 15  2  0  0  0
 14 96  1  0  0  0
 15 97  1  0  0  0
 16 17  2  0  0  0
 16 21  1  0  0  0
 16 31  1  0  0  0
 17 18  1  0  0  0
 17 98  1  0  0  0
 18 19  2  0  0  0
 18 99  1  0  0  0
 19 20  1  0  0  0
 19 24  1  0  0  0
 20 21  2  0  0  0
 20100  1  0  0  0
 21 23  1  0  0  0
 22 28  1  0  0  0
 22 32  2  0  0  0
 26 27  1  0  0  0
 28101  1  0  0  0
 28102  1  0  0  0
 29103  1  0  0  0
 29104  1  0  0  0
 33 34  1  0  0  0
 33 66  1  0  0  0
 33 70  2  0  0  0
 34 36  1  0  0  0
 34 59  1  0  0  0
 34105  1  0  0  0
 35 44  2  0  0  0
 35 45  1  0  0  0
 35 68  1  0  0  0
 36 56  1  0  0  0
 36106  1  0  0  0
 37 39  1  0  0  0
 37 47  1  0  0  0
 37 66  1  0  0  0
 37107  1  0  0  0
 38 43  2  0  0  0
 38 46  1  0  0  0
 38 47  1  0  0  0
 39 64  1  0  0  0
 39 67  2  0  0  0
 40 52  1  0  0  0
 40 53  2  0  0  0
 40 58  1  0  0  0
 41108  1  0  0  0
 41109  1  0  0  0
 41110  1  0  0  0
 41 48  1  0  0  0
 42 43  1  0  0  0
 42 66  1  0  0  0
 42111  1  0  0  0
 42112  1  0  0  0
 43 44  1  0  0  0
 44113  1  0  0  0
 45 46  2  0  0  0
 45114  1  0  0  0
 46115  1  0  0  0
 47116  1  0  0  0
 47117  1  0  0  0
 48 56  1  0  0  0
 48 65  1  0  0  0
 48118  1  0  0  0
 49 50  1  0  0  0
 49 53  1  0  0  0
 49 64  1  0  0  0
 49119  1  0  0  0
 50 51  1  0  0  0
 50120  1  0  0  0
 50121  1  0  0  0
 51 52  1  0  0  0
 51122  1  0  0  0
 51123  1  0  0  0
 52124  1  0  0  0
 52125  1  0  0  0
 53 54  1  0  0  0
 54 55  2  0  0  0
 54126  1  0  0  0
 55 57  1  0  0  0
 55127  1  0  0  0
 56 69  2  0  0  0
 57 58  2  0  0  0
 57128  1  0  0  0
 58129  1  0  0  0
 59 60  1  0  0  0
 59 61  1  0  0  0
 59 62  1  0  0  0
 60130  1  0  0  0
 60131  1  0  0  0
 60132  1  0  0  0
 61133  1  0  0  0
 61134  1  0  0  0
 61135  1  0  0  0
 62136  1  0  0  0
 62137  1  0  0  0
 62138  1  0  0  0
 63 65  1  0  0  0
 63139  1  0  0  0
 63140  1  0  0  0
 63141  1  0  0  0
 64142  1  0  0  0
 65143  1  0  0  0
 68 82  1  0  0  0
 71 72  2  0  0  0
 71 74  1  0  0  0
 71144  1  0  0  0
 72 75  1  0  0  0
 72145  1  0  0  0
 73 75  2  0  0  0
 73 76  1  0  0  0
 73146  1  0  0  0
 74 76  2  0  0  0
 74 81  1  0  0  0
 75 83  1  0  0  0
 76 84  1  0  0  0
 77 78  1  0  0  0
 77 79  1  0  0  0
 77147  1  0  0  0
 77148  1  0  0  0
 78 81  1  0  0  0
 78149  1  0  0  0
 78150  1  0  0  0
 79 82  1  0  0  0
 79151  1  0  0  0
 79152  1  0  0  0
 80 81  1  0  0  0
 80 82  1  0  0  0
 80153  1  0  0  0
 80154  1  0  0  0
 81155  1  0  0  0
 82156  1  0  0  0
 83157  1  0  0  0
M  ISO  4   1 100  68 101  82 101  83 100
M  END
> <chiral flag>
0

> <version>
0

> <s_m_source_file>
/data/baiqing/PycharmProjects/Reinvent-master-3.2/result/LINK_invent/BTK/process_docking_weight1_custom_product_contain_oxygen_bond_distance_aromatic_linkinvent_7_9_3/rearranged_h_0156.sdf

> <i_m_source_file_index>
19

> <r_mmod_Potential_Energy-OPLS-2005>
457.030670166016

> <r_mmod_Stretch_Energy-OPLS-2005>
190.953811645508

> <r_mmod_Bend_Energy-OPLS-2005>
242.61865234375

> <r_mmod_Torsional_Energy-OPLS-2005>
282.360473632812

> <r_mmod_Improper_Torsional_Energy-OPLS-2005>
7.84505701065063

> <r_mmod_Van_der_Waal_Energy-OPLS-2005>
132.045974731445

> <r_mmod_Electrostatic_Energy-OPLS-2005>
-345.225006103516

> <r_mmod_Solvation_Energy-OPLS-2005>
-200.964416503906

> <b_mmod_Minimization_Converged-OPLS-2005>
0

> <r_mmod_RMS_Derivative-OPLS-2005>
2.06346797943115

$$$$
19
                    3D
 Structure written by MMmdl.
148156  0  0  1  0            999 V2000
  -30.6013  -14.7255   20.4716 C   0  0  0  0  0  0
  -30.4301  -12.4488   19.4594 C   0  0  0  0  0  0
  -29.5033  -12.5006   18.2252 C   0  0  0  0  0  0
  -28.0277  -12.3341   18.6393 C   0  0  0  0  0  0
  -27.6395  -13.2275   19.8480 C   0  0  2  0  0  0
  -28.6845  -13.1457   20.9805 C   0  0  0  0  0  0
  -25.2510  -13.8193   20.5682 C   0  0  0  0  0  0
  -24.1799  -13.0439   20.9203 C   0  0  0  0  0  0
  -24.6388  -11.6919   20.8762 C   0  0  0  0  0  0
  -23.9074  -10.4295   21.0427 C   0  0  0  0  0  0
  -24.3630   -9.4204   21.9204 C   0  0  0  0  0  0
  -23.6298   -8.2235   22.0759 C   0  0  0  0  0  0
  -22.4286   -8.0280   21.3544 C   0  0  0  0  0  0
  -21.9924   -9.0260   20.4649 C   0  0  0  0  0  0
  -22.7250  -10.2137   20.3067 C   0  0  0  0  0  0
  -21.6854   -6.0742   22.5286 C   0  0  0  0  0  0
  -21.4003   -6.5645   23.8217 C   0  0  0  0  0  0
  -21.3645   -5.6796   24.9181 C   0  0  0  0  0  0
  -21.6049   -4.3061   24.7230 C   0  0  0  0  0  0
  -21.8818   -3.8156   23.4343 C   0  0  0  0  0  0
  -21.9188   -4.6972   22.3404 C   0  0  0  0  0  0
  -22.7823  -13.5230   21.1878 C   0  0  0  0  0  0
  -22.1663   -4.2159   21.0982 F   0  0  0  0  0  0
  -21.5627   -3.4548   25.7741 F   0  0  0  0  0  0
  -29.9797  -13.5044   20.3933 N   0  0  0  0  0  0
  -26.2927  -12.9385   20.3274 N   0  0  0  0  0  0
  -25.9321  -11.6535   20.5765 N   0  0  0  0  0  0
  -22.0462  -12.8211   22.0419 N   0  0  0  0  0  0
  -25.4212  -15.1908   20.4061 N   0  0  0  0  0  0
  -31.7981  -14.8232   20.1838 O   0  0  0  0  0  0
  -21.6632   -6.8883   21.4246 O   0  0  0  0  0  0
  -22.3499  -14.5535   20.6724 O   0  0  0  0  0  0
  -24.6313  -31.8550   23.1972 C   0  0  0  0  0  0
  -25.9129  -32.4756   23.8337 C   0  0  1  0  0  0
  -27.2188  -27.2688   20.1328 C   0  0  0  0  0  0
  -25.5927  -33.8558   24.2276 N   0  0  0  0  0  0
  -23.4284  -30.4764   21.5404 C   0  0  2  0  0  0
  -24.8752  -28.9152   20.1213 C   0  0  0  0  0  0
  -22.7495  -29.4621   22.4911 C   0  0  0  0  0  0
  -18.0286  -28.1382   22.8494 C   0  0  0  0  0  0
  -24.1482  -36.7265   23.2671 C   0  0  0  0  0  0
  -25.9736  -30.7714   21.3738 C   0  0  0  0  0  0
  -26.0492  -29.3932   20.7188 C   0  0  0  0  0  0
  -27.2300  -28.5833   20.7084 C   0  0  0  0  0  0
  -26.0219  -26.8467   19.5221 C   0  0  0  0  0  0
  -24.8631  -27.6464   19.5192 C   0  0  0  0  0  0
  -23.6460  -29.8032   20.1604 C   0  0  0  0  0  0
  -25.4126  -36.3069   24.0337 C   0  0  1  0  0  0
  -20.5896  -28.3701   23.1255 C   0  0  2  0  0  0
  -20.6774  -26.9411   22.5403 C   0  0  0  0  0  0
  -19.5741  -26.6376   21.5214 C   0  0  0  0  0  0
  -18.1924  -26.7929   22.1631 C   0  0  0  0  0  0
  -19.1545  -28.8862   23.2869 C   0  0  0  0  0  0
  -18.9473  -30.1466   23.8880 C   0  0  0  0  0  0
  -17.6479  -30.6598   24.0567 C   0  0  0  0  0  0
  -25.9035  -34.9434   23.5107 C   0  0  0  0  0  0
  -16.5374  -29.9085   23.6348 C   0  0  0  0  0  0
  -16.7281  -28.6503   23.0364 C   0  0  0  0  0  0
  -26.4489  -31.6589   25.0728 C   0  0  0  0  0  0
  -25.3711  -31.3749   26.1456 C   0  0  0  0  0  0
  -27.0355  -30.3007   24.6226 C   0  0  0  0  0  0
  -27.6042  -32.4345   25.7486 C   0  0  0  0  0  0
  -27.5512  -37.1890   24.8540 C   0  0  0  0  0  0
  -21.4203  -29.3052   22.3646 N   0  0  0  0  0  0
  -26.4345  -37.3719   23.9300 N   0  0  0  0  0  0
  -24.6971  -31.0524   22.0942 N   0  0  0  0  0  0
  -23.4177  -28.8160   23.3034 O   0  0  0  0  0  0
  -28.3012  -26.3709   20.1291 O   0  0  0  0  0  0
  -26.5581  -34.8905   22.4661 O   0  0  0  0  0  0
  -23.5454  -32.1354   23.7275 O   0  0  0  0  0  0
  -28.7899  -18.9760   19.4775 C   0  0  0  0  0  0
  -28.3912  -20.3801   19.4312 C   0  0  0  0  0  0
  -29.5333  -18.6011   20.5788 C   0  0  0  0  0  0
  -28.7928  -21.1636   20.4989 C   0  0  0  0  0  0
  -28.4110  -23.6721   20.0671 C   0  0  0  0  0  0
  -30.3280  -17.2797   20.9270 C   0  0  0  0  0  0
  -28.1189  -25.0558   20.8297 C   0  0  0  0  0  0
  -28.5601  -22.5129   20.8154 N   0  0  0  0  0  0
  -29.8306  -15.8592   20.6912 N   0  0  0  0  0  0
  -28.4995  -23.6621   18.8358 O   0  0  0  0  0  0
  -29.6601  -20.0597   21.6016 S   0  0  0  0  0  0
  -31.4702  -12.5796   19.1556 H   0  0  0  0  0  0
  -30.3788  -11.4697   19.9389 H   0  0  0  0  0  0
  -29.7799  -11.7220   17.5136 H   0  0  0  0  0  0
  -29.6338  -13.4505   17.7037 H   0  0  0  0  0  0
  -27.8751  -11.2843   18.8922 H   0  0  0  0  0  0
  -27.3716  -12.5401   17.7928 H   0  0  0  0  0  0
  -27.6374  -14.2527   19.4769 H   0  0  0  0  0  0
  -28.7218  -12.1400   21.4018 H   0  0  0  0  0  0
  -28.4244  -13.8137   21.8039 H   0  0  0  0  0  0
  -25.2781   -9.5671   22.4777 H   0  0  0  0  0  0
  -24.0014   -7.4619   22.7475 H   0  0  0  0  0  0
  -21.0856   -8.8786   19.8949 H   0  0  0  0  0  0
  -22.3730  -10.9685   19.6168 H   0  0  0  0  0  0
  -21.1986   -7.6147   23.9725 H   0  0  0  0  0  0
  -21.1467   -6.0527   25.9084 H   0  0  0  0  0  0
  -22.0604   -2.7623   23.2853 H   0  0  0  0  0  0
  -22.4085  -11.9864   22.4796 H   0  0  0  0  0  0
  -21.1083  -13.1235   22.2641 H   0  0  0  0  0  0
  -24.6522  -15.8451   20.5021 H   0  0  0  0  0  0
  -26.2652  -15.6271   20.0595 H   0  0  0  0  0  0
  -26.7204  -32.5390   23.1082 H   0  0  0  0  0  0
  -25.0144  -33.9695   25.0475 H   0  0  0  0  0  0
  -22.7279  -31.3001   21.3894 H   0  0  0  0  0  0
  -23.3636  -35.9743   23.3676 H   0  0  0  0  0  0
  -24.3465  -36.8493   22.2013 H   0  0  0  0  0  0
  -23.7421  -37.6663   23.6434 H   0  0  0  0  0  0
  -26.1116  -31.5323   20.6045 H   0  0  0  0  0  0
  -26.8512  -30.8213   22.0058 H   0  0  0  0  0  0
  -28.1350  -28.9472   21.1742 H   0  0  0  0  0  0
  -25.9782  -25.8682   19.0641 H   0  0  0  0  0  0
  -23.9594  -27.2639   19.0645 H   0  0  0  0  0  0
  -23.7742  -30.5750   19.4008 H   0  0  0  0  0  0
  -22.7631  -29.2371   19.8557 H   0  0  0  0  0  0
  -25.1349  -36.1991   25.0842 H   0  0  0  0  0  0
  -21.0011  -28.3287   24.1370 H   0  0  0  0  0  0
  -20.5671  -26.2312   23.3618 H   0  0  0  0  0  0
  -21.6639  -26.7417   22.1201 H   0  0  0  0  0  0
  -19.6899  -25.6284   21.1248 H   0  0  0  0  0  0
  -19.6675  -27.3187   20.6751 H   0  0  0  0  0  0
  -17.4192  -26.6693   21.4031 H   0  0  0  0  0  0
  -18.0318  -26.0059   22.9010 H   0  0  0  0  0  0
  -19.7957  -30.7295   24.2218 H   0  0  0  0  0  0
  -17.5032  -31.6276   24.5170 H   0  0  0  0  0  0
  -15.5373  -30.2986   23.7683 H   0  0  0  0  0  0
  -15.8669  -28.0818   22.7099 H   0  0  0  0  0  0
  -24.5908  -30.7053   25.7811 H   0  0  0  0  0  0
  -24.8870  -32.2920   26.4830 H   0  0  0  0  0  0
  -25.8032  -30.8991   27.0267 H   0  0  0  0  0  0
  -26.2967  -29.6748   24.1207 H   0  0  0  0  0  0
  -27.4000  -29.7270   25.4761 H   0  0  0  0  0  0
  -27.8840  -30.4289   23.9498 H   0  0  0  0  0  0
  -27.2652  -33.3653   26.2046 H   0  0  0  0  0  0
  -28.3850  -32.6906   25.0307 H   0  0  0  0  0  0
  -28.0713  -31.8486   26.5408 H   0  0  0  0  0  0
  -28.2883  -37.9811   24.7093 H   0  0  0  0  0  0
  -28.0638  -36.2368   24.7069 H   0  0  0  0  0  0
  -27.2147  -37.2394   25.8917 H   0  0  0  0  0  0
  -20.9392  -29.8750   21.6820 H   0  0  0  0  0  0
  -26.0259  -38.2870   24.0987 H   0  0  0  0  0  0
  -28.5464  -18.2997   18.6703 H   0  0  0  0  0  0
  -27.8109  -20.7574   18.6011 H   0  0  0  0  0  0
  -30.5667  -17.3183   21.9915 H   0  0  0  0  0  0
  -31.2990  -17.3659   20.4367 H   0  0  0  0  0  0
  -28.8085  -25.0767   21.6722 H   0  0  0  0  0  0
  -27.1266  -24.9943   21.2803 H   0  0  0  0  0  0
  -28.5284  -22.6968   21.8107 H   0  0  0  0  0  0
  -28.8445  -15.7037   20.8323 H   0  0  0  0  0  0
  1 25  1  0  0  0
  1 30  2  0  0  0
  1 79  1  0  0  0
  2  3  1  0  0  0
  2 25  1  0  0  0
  2 82  1  0  0  0
  2 83  1  0  0  0
  3  4  1  0  0  0
  3 84  1  0  0  0
  3 85  1  0  0  0
  4  5  1  0  0  0
  4 86  1  0  0  0
  4 87  1  0  0  0
  5  6  1  0  0  0
  5 26  1  0  0  0
  5 88  1  0  0  0
  6 25  1  0  0  0
  6 89  1  0  0  0
  6 90  1  0  0  0
  7  8  2  0  0  0
  7 26  1  0  0  0
  7 29  1  0  0  0
  8  9  1  0  0  0
  8 22  1  0  0  0
  9 10  1  0  0  0
  9 27  2  0  0  0
 10 11  2  0  0  0
 10 15  1  0  0  0
 11 12  1  0  0  0
 11 91  1  0  0  0
 12 13  2  0  0  0
 12 92  1  0  0  0
 13 14  1  0  0  0
 13 31  1  0  0  0
 14 15  2  0  0  0
 14 93  1  0  0  0
 15 94  1  0  0  0
 16 17  2  0  0  0
 16 21  1  0  0  0
 16 31  1  0  0  0
 17 18  1  0  0  0
 17 95  1  0  0  0
 18 19  2  0  0  0
 18 96  1  0  0  0
 19 20  1  0  0  0
 19 24  1  0  0  0
 20 21  2  0  0  0
 20 97  1  0  0  0
 21 23  1  0  0  0
 22 28  1  0  0  0
 22 32  2  0  0  0
 26 27  1  0  0  0
 28 98  1  0  0  0
 28 99  1  0  0  0
 29100  1  0  0  0
 29101  1  0  0  0
 33 34  1  0  0  0
 33 66  1  0  0  0
 33 70  2  0  0  0
 34 36  1  0  0  0
 34 59  1  0  0  0
 34102  1  0  0  0
 35 44  2  0  0  0
 35 45  1  0  0  0
 35 68  1  0  0  0
 36 56  1  0  0  0
 36103  1  0  0  0
 37 39  1  0  0  0
 37 47  1  0  0  0
 37 66  1  0  0  0
 37104  1  0  0  0
 38 43  2  0  0  0
 38 46  1  0  0  0
 38 47  1  0  0  0
 39 64  1  0  0  0
 39 67  2  0  0  0
 40 52  1  0  0  0
 40 53  2  0  0  0
 40 58  1  0  0  0
 41105  1  0  0  0
 41106  1  0  0  0
 41107  1  0  0  0
 41 48  1  0  0  0
 42 43  1  0  0  0
 42 66  1  0  0  0
 42108  1  0  0  0
 42109  1  0  0  0
 43 44  1  0  0  0
 44110  1  0  0  0
 45 46  2  0  0  0
 45111  1  0  0  0
 46112  1  0  0  0
 47113  1  0  0  0
 47114  1  0  0  0
 48 56  1  0  0  0
 48 65  1  0  0  0
 48115  1  0  0  0
 49 50  1  0  0  0
 49 53  1  0  0  0
 49 64  1  0  0  0
 49116  1  0  0  0
 50 51  1  0  0  0
 50117  1  0  0  0
 50118  1  0  0  0
 51 52  1  0  0  0
 51119  1  0  0  0
 51120  1  0  0  0
 52121  1  0  0  0
 52122  1  0  0  0
 53 54  1  0  0  0
 54 55  2  0  0  0
 54123  1  0  0  0
 55 57  1  0  0  0
 55124  1  0  0  0
 56 69  2  0  0  0
 57 58  2  0  0  0
 57125  1  0  0  0
 58126  1  0  0  0
 59 60  1  0  0  0
 59 61  1  0  0  0
 59 62  1  0  0  0
 60127  1  0  0  0
 60128  1  0  0  0
 60129  1  0  0  0
 61130  1  0  0  0
 61131  1  0  0  0
 61132  1  0  0  0
 62133  1  0  0  0
 62134  1  0  0  0
 62135  1  0  0  0
 63 65  1  0  0  0
 63136  1  0  0  0
 63137  1  0  0  0
 63138  1  0  0  0
 64139  1  0  0  0
 65140  1  0  0  0
 68 77  1  0  0  0
 71 72  1  0  0  0
 71 73  2  0  0  0
 71141  1  0  0  0
 72 74  2  0  0  0
 72142  1  0  0  0
 73 76  1  0  0  0
 73 81  1  0  0  0
 74 78  1  0  0  0
 74 81  1  0  0  0
 75 77  1  0  0  0
 75 78  1  0  0  0
 75 80  2  0  0  0
 76 79  1  0  0  0
 76143  1  0  0  0
 76144  1  0  0  0
 77145  1  0  0  0
 77146  1  0  0  0
 78147  1  0  0  0
 79148  1  0  0  0
M  ISO  4   1 100  68 101  77 101  79 100
M  END
> <chiral flag>
0

> <version>
0

> <s_m_source_file>
/data/baiqing/PycharmProjects/Reinvent-master-3.2/result/LINK_invent/BTK/process_docking_weight1_custom_product_contain_oxygen_bond_distance_aromatic_linkinvent_7_9_3/rearranged_h_0156.sdf

> <i_m_source_file_index>
20

> <r_mmod_Potential_Energy-OPLS-2005>
65.9956207275391

> <r_mmod_Stretch_Energy-OPLS-2005>
103.956047058105

> <r_mmod_Bend_Energy-OPLS-2005>
173.040939331055

> <r_mmod_Torsional_Energy-OPLS-2005>
238.459716796875

> <r_mmod_Improper_Torsional_Energy-OPLS-2005>
4.65559244155884

> <r_mmod_Van_der_Waal_Energy-OPLS-2005>
112.999862670898

> <r_mmod_Electrostatic_Energy-OPLS-2005>
-405.581939697266

> <r_mmod_Solvation_Energy-OPLS-2005>
-241.360015869141

> <b_mmod_Minimization_Converged-OPLS-2005>
0

> <r_mmod_RMS_Derivative-OPLS-2005>
2.90943837165833

$$$$
20
                    3D
 Structure written by MMmdl.
163172  0  0  1  0            999 V2000
  -30.6752  -14.5236   20.4857 C   0  0  0  0  0  0
  -30.4323  -12.3025   19.4727 C   0  0  0  0  0  0
  -29.5488  -12.5062   18.2226 C   0  0  0  0  0  0
  -28.0515  -12.3809   18.5921 C   0  0  0  0  0  0
  -27.6632  -13.2195   19.8447 C   0  0  2  0  0  0
  -28.6893  -13.0362   20.9866 C   0  0  0  0  0  0
  -25.2605  -13.8170   20.5530 C   0  0  0  0  0  0
  -24.1857  -13.0457   20.9132 C   0  0  0  0  0  0
  -24.6483  -11.6919   20.8709 C   0  0  0  0  0  0
  -23.9174  -10.4315   21.0449 C   0  0  0  0  0  0
  -24.3707   -9.4243   21.9254 C   0  0  0  0  0  0
  -23.6371   -8.2275   22.0787 C   0  0  0  0  0  0
  -22.4371   -8.0339   21.3571 C   0  0  0  0  0  0
  -22.0021   -9.0356   20.4687 C   0  0  0  0  0  0
  -22.7380  -10.2209   20.3110 C   0  0  0  0  0  0
  -21.6858   -6.0848   22.5324 C   0  0  0  0  0  0
  -21.3996   -6.5706   23.8275 C   0  0  0  0  0  0
  -21.3630   -5.6819   24.9196 C   0  0  0  0  0  0
  -21.6042   -4.3092   24.7221 C   0  0  0  0  0  0
  -21.8805   -3.8233   23.4306 C   0  0  0  0  0  0
  -21.9182   -4.7062   22.3392 C   0  0  0  0  0  0
  -22.7873  -13.5313   21.1834 C   0  0  0  0  0  0
  -22.1655   -4.2278   21.0958 F   0  0  0  0  0  0
  -21.5659   -3.4564   25.7708 F   0  0  0  0  0  0
  -30.0205  -13.3282   20.4422 N   0  0  0  0  0  0
  -26.3041  -12.9361   20.3088 N   0  0  0  0  0  0
  -25.9395  -11.6518   20.5538 N   0  0  0  0  0  0
  -22.0401  -12.8372   22.0343 N   0  0  0  0  0  0
  -25.4288  -15.1892   20.3926 N   0  0  0  0  0  0
  -31.8610  -14.6102   20.1582 O   0  0  0  0  0  0
  -21.6639   -6.8996   21.4291 O   0  0  0  0  0  0
  -22.3611  -14.5684   20.6697 O   0  0  0  0  0  0
  -24.6202  -31.8651   23.2087 C   0  0  0  0  0  0
  -25.9082  -32.4772   23.8362 C   0  0  1  0  0  0
  -27.2267  -27.3958   20.1110 C   0  0  0  0  0  0
  -25.5881  -33.8562   24.2279 N   0  0  0  0  0  0
  -23.4070  -30.4883   21.5557 C   0  0  2  0  0  0
  -24.8485  -28.9438   20.1214 C   0  0  0  0  0  0
  -22.7437  -29.4633   22.5044 C   0  0  0  0  0  0
  -18.0267  -28.1388   22.8526 C   0  0  0  0  0  0
  -24.1484  -36.7313   23.2643 C   0  0  0  0  0  0
  -25.9419  -30.8105   21.3712 C   0  0  0  0  0  0
  -26.0122  -29.4473   20.7115 C   0  0  0  0  0  0
  -27.2073  -28.6840   20.6968 C   0  0  0  0  0  0
  -26.0429  -26.9103   19.5134 C   0  0  0  0  0  0
  -24.8568  -27.6717   19.5233 C   0  0  0  0  0  0
  -23.6170  -29.8221   20.1721 C   0  0  0  0  0  0
  -25.4090  -36.3053   24.0337 C   0  0  1  0  0  0
  -20.5863  -28.3654   23.1355 C   0  0  2  0  0  0
  -20.6753  -26.9396   22.5444 C   0  0  0  0  0  0
  -19.5721  -26.6390   21.5246 C   0  0  0  0  0  0
  -18.1901  -26.7945   22.1653 C   0  0  0  0  0  0
  -19.1526  -28.8834   23.2927 C   0  0  0  0  0  0
  -18.9433  -30.1472   23.8895 C   0  0  0  0  0  0
  -17.6434  -30.6595   24.0550 C   0  0  0  0  0  0
  -25.9033  -34.9443   23.5110 C   0  0  0  0  0  0
  -16.5329  -29.9084   23.6332 C   0  0  0  0  0  0
  -16.7260  -28.6499   23.0359 C   0  0  0  0  0  0
  -26.4473  -31.6538   25.0713 C   0  0  0  0  0  0
  -25.3752  -31.3613   26.1470 C   0  0  0  0  0  0
  -27.0262  -30.2945   24.6105 C   0  0  0  0  0  0
  -27.6014  -32.4290   25.7494 C   0  0  0  0  0  0
  -27.5577  -37.1775   24.8436 C   0  0  0  0  0  0
  -21.4166  -29.3020   22.3780 N   0  0  0  0  0  0
  -26.4254  -37.3767   23.9430 N   0  0  0  0  0  0
  -24.6741  -31.0700   22.1012 N   0  0  0  0  0  0
  -23.4197  -28.8206   23.3103 O   0  0  0  0  0  0
  -28.3699  -26.6145   20.1159 O   0  0  0  0  0  0
  -26.5644  -34.8907   22.4695 O   0  0  0  0  0  0
  -23.5384  -32.1443   23.7438 O   0  0  0  0  0  0
  -31.5117  -17.4713   20.0524 C   0  0  0  0  0  0
  -30.2667  -17.0167   20.4413 C   0  0  0  0  0  0
  -29.8717  -19.2934   20.3347 C   0  0  0  0  0  0
  -28.8165  -25.8021   22.3945 C   0  0  0  0  0  0
  -29.2527  -24.2942   20.4499 C   0  0  0  0  0  0
  -28.0041  -20.8359   21.2769 C   0  0  0  0  0  0
  -27.7298  -22.3534   21.1740 C   0  0  0  0  0  0
  -29.9173  -21.8940   20.3284 C   0  0  0  0  0  0
  -29.0876  -20.5916   20.2273 C   0  0  1  0  0  0
  -28.5567  -24.0940   24.2901 C   0  0  0  0  0  0
  -27.9643  -25.3294   23.5662 C   0  0  0  0  0  0
  -28.3284  -25.4377   20.9796 C   0  0  2  0  0  0
  -29.3303  -18.0743   20.5531 N   0  0  0  0  0  0
  -29.8754  -26.4802   22.6015 N   0  0  0  0  0  0
  -28.9781  -22.9745   20.6890 N   0  0  0  0  0  0
  -29.9139  -15.6345   20.6924 N   0  0  0  0  0  0
  -30.2848  -24.6133   19.8378 O   0  0  0  0  0  0
  -31.6012  -19.2153   19.9767 S   0  0  0  0  0  0
  -31.4933  -12.3604   19.2242 H   0  0  0  0  0  0
  -30.2837  -11.3033   19.8894 H   0  0  0  0  0  0
  -29.8258  -11.7874   17.4556 H   0  0  0  0  0  0
  -29.7451  -13.4975   17.8004 H   0  0  0  0  0  0
  -27.8446  -11.3248   18.7690 H   0  0  0  0  0  0
  -27.4341  -12.6699   17.7384 H   0  0  0  0  0  0
  -27.7043  -14.2638   19.5313 H   0  0  0  0  0  0
  -28.6531  -12.0119   21.3623 H   0  0  0  0  0  0
  -28.4532  -13.6711   21.8408 H   0  0  0  0  0  0
  -25.2846   -9.5781   22.4834 H   0  0  0  0  0  0
  -24.0147   -7.4668   22.7525 H   0  0  0  0  0  0
  -21.0957   -8.8911   19.8976 H   0  0  0  0  0  0
  -22.3915  -10.9762   19.6186 H   0  0  0  0  0  0
  -21.1963   -7.6216   23.9847 H   0  0  0  0  0  0
  -21.1462   -6.0493   25.9109 H   0  0  0  0  0  0
  -22.0620   -2.7718   23.2722 H   0  0  0  0  0  0
  -22.3840  -11.9909   22.4673 H   0  0  0  0  0  0
  -21.1048  -13.1586   22.2510 H   0  0  0  0  0  0
  -24.6606  -15.8392   20.5135 H   0  0  0  0  0  0
  -26.2880  -15.6413   20.1043 H   0  0  0  0  0  0
  -26.7145  -32.5437   23.1100 H   0  0  0  0  0  0
  -24.9799  -33.9661   25.0257 H   0  0  0  0  0  0
  -22.6967  -31.3079   21.4210 H   0  0  0  0  0  0
  -23.3729  -35.9658   23.3235 H   0  0  0  0  0  0
  -24.3602  -36.9021   22.2077 H   0  0  0  0  0  0
  -23.7266  -37.6499   23.6734 H   0  0  0  0  0  0
  -26.0692  -31.5707   20.6005 H   0  0  0  0  0  0
  -26.8269  -30.8509   21.9959 H   0  0  0  0  0  0
  -28.1071  -29.0701   21.1516 H   0  0  0  0  0  0
  -26.0276  -25.9335   19.0529 H   0  0  0  0  0  0
  -23.9537  -27.2677   19.0879 H   0  0  0  0  0  0
  -23.7473  -30.6018   19.4214 H   0  0  0  0  0  0
  -22.7345  -29.2598   19.8659 H   0  0  0  0  0  0
  -25.1256  -36.1863   25.0827 H   0  0  0  0  0  0
  -20.9930  -28.3206   24.1486 H   0  0  0  0  0  0
  -20.5717  -26.2245   23.3623 H   0  0  0  0  0  0
  -21.6629  -26.7496   22.1198 H   0  0  0  0  0  0
  -19.6864  -25.6309   21.1260 H   0  0  0  0  0  0
  -19.6652  -27.3226   20.6801 H   0  0  0  0  0  0
  -17.4206  -26.6787   21.4017 H   0  0  0  0  0  0
  -18.0230  -26.0086   22.9017 H   0  0  0  0  0  0
  -19.7891  -30.7323   24.2253 H   0  0  0  0  0  0
  -17.4961  -31.6279   24.5147 H   0  0  0  0  0  0
  -15.5318  -30.2957   23.7647 H   0  0  0  0  0  0
  -15.8683  -28.0809   22.7046 H   0  0  0  0  0  0
  -24.5918  -30.6979   25.7781 H   0  0  0  0  0  0
  -24.8965  -32.2756   26.4994 H   0  0  0  0  0  0
  -25.8143  -30.8708   27.0179 H   0  0  0  0  0  0
  -26.2758  -29.6764   24.1170 H   0  0  0  0  0  0
  -27.3962  -29.7113   25.4545 H   0  0  0  0  0  0
  -27.8655  -30.4154   23.9261 H   0  0  0  0  0  0
  -27.2551  -33.3544   26.2110 H   0  0  0  0  0  0
  -28.3809  -32.6962   25.0349 H   0  0  0  0  0  0
  -28.0740  -31.8444   26.5395 H   0  0  0  0  0  0
  -28.2502  -38.0158   24.7577 H   0  0  0  0  0  0
  -28.1168  -36.2694   24.6110 H   0  0  0  0  0  0
  -27.2341  -37.1252   25.8847 H   0  0  0  0  0  0
  -20.9356  -29.8682   21.6949 H   0  0  0  0  0  0
  -26.0116  -38.2829   24.1454 H   0  0  0  0  0  0
  -32.4180  -16.9187   19.8308 H   0  0  0  0  0  0
  -27.1158  -20.2274   21.0866 H   0  0  0  0  0  0
  -28.3686  -20.5586   22.2693 H   0  0  0  0  0  0
  -27.3384  -22.7303   22.1197 H   0  0  0  0  0  0
  -26.9524  -22.5388   20.4332 H   0  0  0  0  0  0
  -30.4587  -22.0992   19.3988 H   0  0  0  0  0  0
  -30.6571  -21.8213   21.1344 H   0  0  0  0  0  0
  -28.6010  -20.5879   19.2499 H   0  0  0  0  0  0
  -27.9331  -23.8181   25.1426 H   0  0  0  0  0  0
  -29.5598  -24.2888   24.6682 H   0  0  0  0  0  0
  -28.6529  -23.2073   23.6643 H   0  0  0  0  0  0
  -26.9400  -25.1460   23.2380 H   0  0  0  0  0  0
  -27.8659  -26.1552   24.2738 H   0  0  0  0  0  0
  -27.3078  -25.0560   21.0163 H   0  0  0  0  0  0
  -30.0583  -26.6174   23.5891 H   0  0  0  0  0  0
  -28.9569  -15.4545   20.9635 H   0  0  0  0  0  0
  1 25  1  0  0  0
  1 30  2  0  0  0
  1 86  1  0  0  0
  2  3  1  0  0  0
  2 25  1  0  0  0
  2 89  1  0  0  0
  2 90  1  0  0  0
  3  4  1  0  0  0
  3 91  1  0  0  0
  3 92  1  0  0  0
  4  5  1  0  0  0
  4 93  1  0  0  0
  4 94  1  0  0  0
  5  6  1  0  0  0
  5 26  1  0  0  0
  5 95  1  0  0  0
  6 25  1  0  0  0
  6 96  1  0  0  0
  6 97  1  0  0  0
  7  8  2  0  0  0
  7 26  1  0  0  0
  7 29  1  0  0  0
  8  9  1  0  0  0
  8 22  1  0  0  0
  9 10  1  0  0  0
  9 27  2  0  0  0
 10 11  2  0  0  0
 10 15  1  0  0  0
 11 12  1  0  0  0
 11 98  1  0  0  0
 12 13  2  0  0  0
 12 99  1  0  0  0
 13 14  1  0  0  0
 13 31  1  0  0  0
 14 15  2  0  0  0
 14100  1  0  0  0
 15101  1  0  0  0
 16 17  2  0  0  0
 16 21  1  0  0  0
 16 31  1  0  0  0
 17 18  1  0  0  0
 17102  1  0  0  0
 18 19  2  0  0  0
 18103  1  0  0  0
 19 20  1  0  0  0
 19 24  1  0  0  0
 20 21  2  0  0  0
 20104  1  0  0  0
 21 23  1  0  0  0
 22 28  1  0  0  0
 22 32  2  0  0  0
 26 27  1  0  0  0
 28105  1  0  0  0
 28106  1  0  0  0
 29107  1  0  0  0
 29108  1  0  0  0
 33 34  1  0  0  0
 33 66  1  0  0  0
 33 70  2  0  0  0
 34 36  1  0  0  0
 34 59  1  0  0  0
 34109  1  0  0  0
 35 44  2  0  0  0
 35 45  1  0  0  0
 35 68  1  0  0  0
 36 56  1  0  0  0
 36110  1  0  0  0
 37 39  1  0  0  0
 37 47  1  0  0  0
 37 66  1  0  0  0
 37111  1  0  0  0
 38 43  2  0  0  0
 38 46  1  0  0  0
 38 47  1  0  0  0
 39 64  1  0  0  0
 39 67  2  0  0  0
 40 52  1  0  0  0
 40 53  2  0  0  0
 40 58  1  0  0  0
 41112  1  0  0  0
 41113  1  0  0  0
 41114  1  0  0  0
 41 48  1  0  0  0
 42 43  1  0  0  0
 42 66  1  0  0  0
 42115  1  0  0  0
 42116  1  0  0  0
 43 44  1  0  0  0
 44117  1  0  0  0
 45 46  2  0  0  0
 45118  1  0  0  0
 46119  1  0  0  0
 47120  1  0  0  0
 47121  1  0  0  0
 48 56  1  0  0  0
 48 65  1  0  0  0
 48122  1  0  0  0
 49 50  1  0  0  0
 49 53  1  0  0  0
 49 64  1  0  0  0
 49123  1  0  0  0
 50 51  1  0  0  0
 50124  1  0  0  0
 50125  1  0  0  0
 51 52  1  0  0  0
 51126  1  0  0  0
 51127  1  0  0  0
 52128  1  0  0  0
 52129  1  0  0  0
 53 54  1  0  0  0
 54 55  2  0  0  0
 54130  1  0  0  0
 55 57  1  0  0  0
 55131  1  0  0  0
 56 69  2  0  0  0
 57 58  2  0  0  0
 57132  1  0  0  0
 58133  1  0  0  0
 59 60  1  0  0  0
 59 61  1  0  0  0
 59 62  1  0  0  0
 60134  1  0  0  0
 60135  1  0  0  0
 60136  1  0  0  0
 61137  1  0  0  0
 61138  1  0  0  0
 61139  1  0  0  0
 62140  1  0  0  0
 62141  1  0  0  0
 62142  1  0  0  0
 63 65  1  0  0  0
 63143  1  0  0  0
 63144  1  0  0  0
 63145  1  0  0  0
 64146  1  0  0  0
 65147  1  0  0  0
 68 82  1  0  0  0
 71 72  2  0  0  0
 71 88  1  0  0  0
 71148  1  0  0  0
 72 83  1  0  0  0
 72 86  1  0  0  0
 73 83  2  0  0  0
 73 88  1  0  0  0
 73 79  1  0  0  0
 74 81  1  0  0  0
 74 82  1  0  0  0
 74 84  2  0  0  0
 75 82  1  0  0  0
 75 85  1  0  0  0
 75 87  2  0  0  0
 76 77  1  0  0  0
 76 79  1  0  0  0
 76149  1  0  0  0
 76150  1  0  0  0
 77 85  1  0  0  0
 77151  1  0  0  0
 77152  1  0  0  0
 78 79  1  0  0  0
 78 85  1  0  0  0
 78153  1  0  0  0
 78154  1  0  0  0
 79155  1  0  0  0
 80 81  1  0  0  0
 80156  1  0  0  0
 80157  1  0  0  0
 80158  1  0  0  0
 81159  1  0  0  0
 81160  1  0  0  0
 82161  1  0  0  0
 84162  1  0  0  0
 86163  1  0  0  0
M  ISO  4   1 100  68 101  82 101  86 100
M  END
> <chiral flag>
0

> <version>
0

> <s_m_source_file>
/data/baiqing/PycharmProjects/Reinvent-master-3.2/result/LINK_invent/BTK/process_docking_weight1_custom_product_contain_oxygen_bond_distance_aromatic_linkinvent_7_9_3/rearranged_h_0156.sdf

> <i_m_source_file_index>
21

> <r_mmod_Potential_Energy-OPLS-2005>
95.9662094116211

> <r_mmod_Stretch_Energy-OPLS-2005>
52.5188674926758

> <r_mmod_Bend_Energy-OPLS-2005>
139.993103027344

> <r_mmod_Torsional_Energy-OPLS-2005>
295.267761230469

> <r_mmod_Improper_Torsional_Energy-OPLS-2005>
6.03771352767944

> <r_mmod_Van_der_Waal_Energy-OPLS-2005>
123.450866699219

> <r_mmod_Electrostatic_Energy-OPLS-2005>
-297.540710449219

> <r_mmod_Solvation_Energy-OPLS-2005>
-249.253372192383

> <b_mmod_Minimization_Converged-OPLS-2005>
0

> <r_mmod_RMS_Derivative-OPLS-2005>
8.94980525970459

$$$$
21
                    3D
 Structure written by MMmdl.
157166  0  0  1  0            999 V2000
  -30.6274  -14.7375   20.4268 C   0  0  0  0  0  0
  -30.4224  -12.4568   19.4372 C   0  0  0  0  0  0
  -29.4837  -12.5290   18.2116 C   0  0  0  0  0  0
  -28.0184  -12.3457   18.6410 C   0  0  0  0  0  0
  -27.6443  -13.2345   19.8592 C   0  0  2  0  0  0
  -28.6999  -13.1585   20.9862 C   0  0  0  0  0  0
  -25.2546  -13.8224   20.5745 C   0  0  0  0  0  0
  -24.1800  -13.0453   20.9204 C   0  0  0  0  0  0
  -24.6383  -11.6942   20.8741 C   0  0  0  0  0  0
  -23.9039  -10.4317   21.0422 C   0  0  0  0  0  0
  -24.3609   -9.4224   21.9168 C   0  0  0  0  0  0
  -23.6303   -8.2248   22.0762 C   0  0  0  0  0  0
  -22.4291   -8.0281   21.3535 C   0  0  0  0  0  0
  -21.9908   -9.0238   20.4609 C   0  0  0  0  0  0
  -22.7231  -10.2127   20.3039 C   0  0  0  0  0  0
  -21.6845   -6.0715   22.5260 C   0  0  0  0  0  0
  -21.4020   -6.5648   23.8179 C   0  0  0  0  0  0
  -21.3661   -5.6812   24.9149 C   0  0  0  0  0  0
  -21.6049   -4.3066   24.7209 C   0  0  0  0  0  0
  -21.8833   -3.8126   23.4343 C   0  0  0  0  0  0
  -21.9208   -4.6939   22.3401 C   0  0  0  0  0  0
  -22.7819  -13.5217   21.1810 C   0  0  0  0  0  0
  -22.1691   -4.2123   21.0987 F   0  0  0  0  0  0
  -21.5611   -3.4565   25.7731 F   0  0  0  0  0  0
  -30.0038  -13.5057   20.3989 N   0  0  0  0  0  0
  -26.2962  -12.9415   20.3379 N   0  0  0  0  0  0
  -25.9326  -11.6557   20.5771 N   0  0  0  0  0  0
  -22.0480  -12.8158   22.0339 N   0  0  0  0  0  0
  -25.4302  -15.1914   20.4235 N   0  0  0  0  0  0
  -31.7899  -14.8489   20.0291 O   0  0  0  0  0  0
  -21.6663   -6.8861   21.4241 O   0  0  0  0  0  0
  -22.3484  -14.5500   20.6660 O   0  0  0  0  0  0
  -24.6334  -31.8522   23.1936 C   0  0  0  0  0  0
  -25.9155  -32.4732   23.8274 C   0  0  1  0  0  0
  -27.2431  -27.2547   20.0793 C   0  0  0  0  0  0
  -25.5964  -33.8538   24.2215 N   0  0  0  0  0  0
  -23.4293  -30.4770   21.5378 C   0  0  2  0  0  0
  -24.8811  -28.9257   20.1026 C   0  0  0  0  0  0
  -22.7457  -29.4648   22.4895 C   0  0  0  0  0  0
  -18.0280  -28.1376   22.8490 C   0  0  0  0  0  0
  -24.1516  -36.7242   23.2641 C   0  0  0  0  0  0
  -25.9805  -30.7610   21.3779 C   0  0  0  0  0  0
  -26.0569  -29.3848   20.7138 C   0  0  0  0  0  0
  -27.2370  -28.5629   20.6914 C   0  0  0  0  0  0
  -26.0480  -26.8911   19.4145 C   0  0  0  0  0  0
  -24.8862  -27.6873   19.4429 C   0  0  0  0  0  0
  -23.6444  -29.8044   20.1583 C   0  0  0  0  0  0
  -25.4133  -36.3033   24.0324 C   0  0  1  0  0  0
  -20.5894  -28.3732   23.1239 C   0  0  2  0  0  0
  -20.6796  -26.9462   22.5392 C   0  0  0  0  0  0
  -19.5776  -26.6414   21.5189 C   0  0  0  0  0  0
  -18.1947  -26.7931   22.1600 C   0  0  0  0  0  0
  -19.1532  -28.8858   23.2876 C   0  0  0  0  0  0
  -18.9453  -30.1446   23.8928 C   0  0  0  0  0  0
  -17.6466  -30.6607   24.0523 C   0  0  0  0  0  0
  -25.9090  -34.9424   23.5061 C   0  0  0  0  0  0
  -16.5358  -29.9101   23.6317 C   0  0  0  0  0  0
  -16.7272  -28.6485   23.0400 C   0  0  0  0  0  0
  -26.4530  -31.6546   25.0648 C   0  0  0  0  0  0
  -25.3753  -31.3626   26.1335 C   0  0  0  0  0  0
  -27.0379  -30.2956   24.6152 C   0  0  0  0  0  0
  -27.6073  -32.4267   25.7449 C   0  0  0  0  0  0
  -27.5592  -37.1762   24.8443 C   0  0  0  0  0  0
  -21.4171  -29.3076   22.3600 N   0  0  0  0  0  0
  -26.4280  -37.3755   23.9429 N   0  0  0  0  0  0
  -24.7005  -31.0467   22.0925 N   0  0  0  0  0  0
  -23.4118  -28.8202   23.3038 O   0  0  0  0  0  0
  -28.3370  -26.3369   20.1273 O   0  0  0  0  0  0
  -26.5652  -34.8900   22.4620 O   0  0  0  0  0  0
  -23.5495  -32.1381   23.7236 O   0  0  0  0  0  0
  -29.9426  -18.4392   20.7236 C   0  0  0  0  0  0
  -29.5584  -19.5784   19.8441 C   0  0  0  0  0  0
  -29.1374  -19.0430   18.6305 C   0  0  0  0  0  0
  -29.8131  -17.1241   20.2185 C   0  0  0  0  0  0
  -30.2343  -23.8943   20.8401 C   0  0  0  0  0  0
  -29.0986  -23.6888   20.1520 C   0  0  0  0  0  0
  -28.6817  -19.6849   17.3969 C   0  0  0  0  0  0
  -31.1637  -22.7581   21.2671 C   0  0  0  0  0  0
  -28.7601  -22.1807   19.7416 C   0  0  0  0  0  0
  -30.4742  -21.3733   21.3815 C   0  0  0  0  0  0
  -28.1414  -24.8939   19.6948 C   0  0  0  0  0  0
  -27.9901  -19.1399   16.4820 N   0  0  0  0  0  0
  -29.6346  -21.0234   20.2271 N   0  0  0  0  0  0
  -29.9003  -15.8529   20.8115 N   0  0  0  0  0  0
  -29.2420  -17.2752   18.5845 S   0  0  0  0  0  0
  -31.4576  -12.5802   19.1081 H   0  0  0  0  0  0
  -30.3712  -11.4727   19.9033 H   0  0  0  0  0  0
  -29.7463  -11.7641   17.4799 H   0  0  0  0  0  0
  -29.6004  -13.4839   17.6963 H   0  0  0  0  0  0
  -27.8621  -11.2879   18.8728 H   0  0  0  0  0  0
  -27.3551  -12.5665   17.8016 H   0  0  0  0  0  0
  -27.6367  -14.2589   19.4872 H   0  0  0  0  0  0
  -28.7344  -12.1577   21.4218 H   0  0  0  0  0  0
  -28.4381  -13.8361   21.8002 H   0  0  0  0  0  0
  -25.2771   -9.5696   22.4668 H   0  0  0  0  0  0
  -23.9998   -7.4650   22.7518 H   0  0  0  0  0  0
  -21.0839   -8.8756   19.8884 H   0  0  0  0  0  0
  -22.3715  -10.9651   19.6115 H   0  0  0  0  0  0
  -21.2039   -7.6150   23.9662 H   0  0  0  0  0  0
  -21.1466   -6.0550   25.9044 H   0  0  0  0  0  0
  -22.0609   -2.7577   23.2861 H   0  0  0  0  0  0
  -22.4242  -11.9907   22.4782 H   0  0  0  0  0  0
  -21.1029  -13.1031   22.2466 H   0  0  0  0  0  0
  -24.6696  -15.8536   20.5229 H   0  0  0  0  0  0
  -26.2916  -15.6227   20.1098 H   0  0  0  0  0  0
  -26.7198  -32.5391   23.0997 H   0  0  0  0  0  0
  -25.0028  -33.9667   25.0306 H   0  0  0  0  0  0
  -22.7286  -31.3008   21.3908 H   0  0  0  0  0  0
  -23.3809  -35.9541   23.3210 H   0  0  0  0  0  0
  -24.3611  -36.8969   22.2076 H   0  0  0  0  0  0
  -23.7252  -37.6399   23.6741 H   0  0  0  0  0  0
  -26.1239  -31.5301   20.6181 H   0  0  0  0  0  0
  -26.8520  -30.8038   22.0164 H   0  0  0  0  0  0
  -28.1368  -28.9234   21.1703 H   0  0  0  0  0  0
  -25.9769  -25.9739   18.8486 H   0  0  0  0  0  0
  -23.9980  -27.3401   18.9316 H   0  0  0  0  0  0
  -23.7447  -30.5776   19.3989 H   0  0  0  0  0  0
  -22.7656  -29.2283   19.8662 H   0  0  0  0  0  0
  -25.1335  -36.1832   25.0828 H   0  0  0  0  0  0
  -20.9991  -28.3366   24.1350 H   0  0  0  0  0  0
  -20.5686  -26.2371   23.3597 H   0  0  0  0  0  0
  -21.6667  -26.7492   22.1208 H   0  0  0  0  0  0
  -19.6964  -25.6317   21.1231 H   0  0  0  0  0  0
  -19.6723  -27.3177   20.6667 H   0  0  0  0  0  0
  -17.4231  -26.6672   21.4000 H   0  0  0  0  0  0
  -18.0358  -26.0067   22.8979 H   0  0  0  0  0  0
  -19.7933  -30.7209   24.2395 H   0  0  0  0  0  0
  -17.5028  -31.6301   24.5081 H   0  0  0  0  0  0
  -15.5359  -30.2996   23.7645 H   0  0  0  0  0  0
  -15.8658  -28.0749   22.7202 H   0  0  0  0  0  0
  -24.5972  -30.6955   25.7574 H   0  0  0  0  0  0
  -24.8890  -32.2771   26.4742 H   0  0  0  0  0  0
  -25.8075  -30.8770   27.0098 H   0  0  0  0  0  0
  -26.2938  -29.6664   24.1241 H   0  0  0  0  0  0
  -27.4104  -29.7245   25.4670 H   0  0  0  0  0  0
  -27.8811  -30.4153   23.9334 H   0  0  0  0  0  0
  -27.2674  -33.3571   26.1985 H   0  0  0  0  0  0
  -28.3915  -32.6810   25.0311 H   0  0  0  0  0  0
  -28.0697  -31.8406   26.5408 H   0  0  0  0  0  0
  -28.2514  -38.0153   24.7610 H   0  0  0  0  0  0
  -28.1215  -36.2694   24.6143 H   0  0  0  0  0  0
  -27.2314  -37.1195   25.8839 H   0  0  0  0  0  0
  -20.9349  -29.8711   21.6736 H   0  0  0  0  0  0
  -26.0142  -38.2815   24.1485 H   0  0  0  0  0  0
  -30.2819  -18.6209   21.7330 H   0  0  0  0  0  0
  -30.5398  -24.9031   21.0940 H   0  0  0  0  0  0
  -28.9890  -20.7208   17.2453 H   0  0  0  0  0  0
  -31.6012  -23.0062   22.2366 H   0  0  0  0  0  0
  -31.9968  -22.7057   20.5619 H   0  0  0  0  0  0
  -28.7447  -22.1897   18.6554 H   0  0  0  0  0  0
  -27.7319  -21.9713   20.0416 H   0  0  0  0  0  0
  -29.8517  -21.3606   22.2760 H   0  0  0  0  0  0
  -31.2518  -20.6208   21.5409 H   0  0  0  0  0  0
  -27.1461  -24.5644   19.9948 H   0  0  0  0  0  0
  -28.1483  -24.8866   18.6038 H   0  0  0  0  0  0
  -27.7584  -18.1738   16.6917 H   0  0  0  0  0  0
  -29.0573  -15.5887   21.3010 H   0  0  0  0  0  0
  1 25  1  0  0  0
  1 30  2  0  0  0
  1 84  1  0  0  0
  2  3  1  0  0  0
  2 25  1  0  0  0
  2 86  1  0  0  0
  2 87  1  0  0  0
  3  4  1  0  0  0
  3 88  1  0  0  0
  3 89  1  0  0  0
  4  5  1  0  0  0
  4 90  1  0  0  0
  4 91  1  0  0  0
  5  6  1  0  0  0
  5 26  1  0  0  0
  5 92  1  0  0  0
  6 25  1  0  0  0
  6 93  1  0  0  0
  6 94  1  0  0  0
  7  8  2  0  0  0
  7 26  1  0  0  0
  7 29  1  0  0  0
  8  9  1  0  0  0
  8 22  1  0  0  0
  9 10  1  0  0  0
  9 27  2  0  0  0
 10 11  2  0  0  0
 10 15  1  0  0  0
 11 12  1  0  0  0
 11 95  1  0  0  0
 12 13  2  0  0  0
 12 96  1  0  0  0
 13 14  1  0  0  0
 13 31  1  0  0  0
 14 15  2  0  0  0
 14 97  1  0  0  0
 15 98  1  0  0  0
 16 17  2  0  0  0
 16 21  1  0  0  0
 16 31  1  0  0  0
 17 18  1  0  0  0
 17 99  1  0  0  0
 18 19  2  0  0  0
 18100  1  0  0  0
 19 20  1  0  0  0
 19 24  1  0  0  0
 20 21  2  0  0  0
 20101  1  0  0  0
 21 23  1  0  0  0
 22 28  1  0  0  0
 22 32  2  0  0  0
 26 27  1  0  0  0
 28102  1  0  0  0
 28103  1  0  0  0
 29104  1  0  0  0
 29105  1  0  0  0
 33 34  1  0  0  0
 33 66  1  0  0  0
 33 70  2  0  0  0
 34 36  1  0  0  0
 34 59  1  0  0  0
 34106  1  0  0  0
 35 44  2  0  0  0
 35 45  1  0  0  0
 35 68  1  0  0  0
 36 56  1  0  0  0
 36107  1  0  0  0
 37 39  1  0  0  0
 37 47  1  0  0  0
 37 66  1  0  0  0
 37108  1  0  0  0
 38 43  2  0  0  0
 38 46  1  0  0  0
 38 47  1  0  0  0
 39 64  1  0  0  0
 39 67  2  0  0  0
 40 52  1  0  0  0
 40 53  2  0  0  0
 40 58  1  0  0  0
 41109  1  0  0  0
 41110  1  0  0  0
 41111  1  0  0  0
 41 48  1  0  0  0
 42 43  1  0  0  0
 42 66  1  0  0  0
 42112  1  0  0  0
 42113  1  0  0  0
 43 44  1  0  0  0
 44114  1  0  0  0
 45 46  2  0  0  0
 45115  1  0  0  0
 46116  1  0  0  0
 47117  1  0  0  0
 47118  1  0  0  0
 48 56  1  0  0  0
 48 65  1  0  0  0
 48119  1  0  0  0
 49 50  1  0  0  0
 49 53  1  0  0  0
 49 64  1  0  0  0
 49120  1  0  0  0
 50 51  1  0  0  0
 50121  1  0  0  0
 50122  1  0  0  0
 51 52  1  0  0  0
 51123  1  0  0  0
 51124  1  0  0  0
 52125  1  0  0  0
 52126  1  0  0  0
 53 54  1  0  0  0
 54 55  2  0  0  0
 54127  1  0  0  0
 55 57  1  0  0  0
 55128  1  0  0  0
 56 69  2  0  0  0
 57 58  2  0  0  0
 57129  1  0  0  0
 58130  1  0  0  0
 59 60  1  0  0  0
 59 61  1  0  0  0
 59 62  1  0  0  0
 60131  1  0  0  0
 60132  1  0  0  0
 60133  1  0  0  0
 61134  1  0  0  0
 61135  1  0  0  0
 61136  1  0  0  0
 62137  1  0  0  0
 62138  1  0  0  0
 62139  1  0  0  0
 63 65  1  0  0  0
 63140  1  0  0  0
 63141  1  0  0  0
 63142  1  0  0  0
 64143  1  0  0  0
 65144  1  0  0  0
 68 81  1  0  0  0
 71 72  1  0  0  0
 71 74  2  0  0  0
 71145  1  0  0  0
 72 73  2  0  0  0
 72 83  1  0  0  0
 73 77  1  0  0  0
 73 85  1  0  0  0
 74 84  1  0  0  0
 74 85  1  0  0  0
 75 76  2  0  0  0
 75 78  1  0  0  0
 75146  1  0  0  0
 76 79  1  0  0  0
 76 81  1  0  0  0
 77 82  2  0  0  0
 77147  1  0  0  0
 78 80  1  0  0  0
 78148  1  0  0  0
 78149  1  0  0  0
 79 83  1  0  0  0
 79150  1  0  0  0
 79151  1  0  0  0
 80 83  1  0  0  0
 80152  1  0  0  0
 80153  1  0  0  0
 81154  1  0  0  0
 81155  1  0  0  0
 82156  1  0  0  0
 84157  1  0  0  0
M  ISO  4   1 100  68 101  81 101  84 100
M  END
> <chiral flag>
0

> <version>
0

> <s_m_source_file>
/data/baiqing/PycharmProjects/Reinvent-master-3.2/result/LINK_invent/BTK/process_docking_weight1_custom_product_contain_oxygen_bond_distance_aromatic_linkinvent_7_9_3/rearranged_h_0156.sdf

> <i_m_source_file_index>
22

> <r_mmod_Potential_Energy-OPLS-2005>
260.607971191406

> <r_mmod_Stretch_Energy-OPLS-2005>
142.790283203125

> <r_mmod_Bend_Energy-OPLS-2005>
178.042739868164

> <r_mmod_Torsional_Energy-OPLS-2005>
257.368804931641

> <r_mmod_Improper_Torsional_Energy-OPLS-2005>
5.61725187301636

> <r_mmod_Van_der_Waal_Energy-OPLS-2005>
126.563949584961

> <r_mmod_Electrostatic_Energy-OPLS-2005>
-290.898712158203

> <r_mmod_Solvation_Energy-OPLS-2005>
-244.425994873047

> <b_mmod_Minimization_Converged-OPLS-2005>
0

> <r_mmod_RMS_Derivative-OPLS-2005>
5.85623645782471

$$$$
22
                    3D
 Structure written by MMmdl.
156165  0  0  1  0            999 V2000
  -30.5663  -14.7927   20.4695 C   0  0  0  0  0  0
  -30.4497  -12.4841   19.4859 C   0  0  0  0  0  0
  -29.5234  -12.5247   18.2478 C   0  0  0  0  0  0
  -28.0481  -12.3377   18.6548 C   0  0  0  0  0  0
  -27.6477  -13.2301   19.8594 C   0  0  2  0  0  0
  -28.6914  -13.1491   20.9970 C   0  0  0  0  0  0
  -25.2519  -13.8176   20.5709 C   0  0  0  0  0  0
  -24.1804  -13.0428   20.9192 C   0  0  0  0  0  0
  -24.6388  -11.6905   20.8724 C   0  0  0  0  0  0
  -23.9060  -10.4281   21.0392 C   0  0  0  0  0  0
  -24.3608   -9.4200   21.9181 C   0  0  0  0  0  0
  -23.6279   -8.2235   22.0754 C   0  0  0  0  0  0
  -22.4257   -8.0266   21.3548 C   0  0  0  0  0  0
  -21.9893   -9.0236   20.4651 C   0  0  0  0  0  0
  -22.7220  -10.2114   20.3056 C   0  0  0  0  0  0
  -21.6842   -6.0735   22.5279 C   0  0  0  0  0  0
  -21.4013   -6.5642   23.8211 C   0  0  0  0  0  0
  -21.3663   -5.6793   24.9170 C   0  0  0  0  0  0
  -21.6050   -4.3054   24.7218 C   0  0  0  0  0  0
  -21.8819   -3.8148   23.4337 C   0  0  0  0  0  0
  -21.9195   -4.6966   22.3399 C   0  0  0  0  0  0
  -22.7826  -13.5220   21.1859 C   0  0  0  0  0  0
  -22.1662   -4.2165   21.0967 F   0  0  0  0  0  0
  -21.5628   -3.4535   25.7730 F   0  0  0  0  0  0
  -29.9947  -13.5333   20.4320 N   0  0  0  0  0  0
  -26.2963  -12.9390   20.3298 N   0  0  0  0  0  0
  -25.9326  -11.6537   20.5731 N   0  0  0  0  0  0
  -22.0464  -12.8236   22.0415 N   0  0  0  0  0  0
  -25.4186  -15.1908   20.4160 N   0  0  0  0  0  0
  -31.7258  -14.9455   20.0672 O   0  0  0  0  0  0
  -21.6617   -6.8871   21.4240 O   0  0  0  0  0  0
  -22.3518  -14.5537   20.6710 O   0  0  0  0  0  0
  -24.6350  -31.8517   23.1959 C   0  0  0  0  0  0
  -25.9162  -32.4731   23.8313 C   0  0  1  0  0  0
  -27.2136  -27.2195   20.1371 C   0  0  0  0  0  0
  -25.5945  -33.8538   24.2236 N   0  0  0  0  0  0
  -23.4334  -30.4756   21.5396 C   0  0  2  0  0  0
  -24.8815  -28.9199   20.1060 C   0  0  0  0  0  0
  -22.7522  -29.4588   22.4888 C   0  0  0  0  0  0
  -18.0295  -28.1382   22.8476 C   0  0  0  0  0  0
  -24.1496  -36.7277   23.2636 C   0  0  0  0  0  0
  -25.9830  -30.7518   21.3834 C   0  0  0  0  0  0
  -26.0540  -29.3715   20.7241 C   0  0  0  0  0  0
  -27.2207  -28.5337   20.7303 C   0  0  0  0  0  0
  -26.0223  -26.8598   19.4647 C   0  0  0  0  0  0
  -24.8739  -27.6742   19.4633 C   0  0  0  0  0  0
  -23.6540  -29.8112   20.1550 C   0  0  0  0  0  0
  -25.4121  -36.3057   24.0320 C   0  0  1  0  0  0
  -20.5901  -28.3704   23.1248 C   0  0  2  0  0  0
  -20.6780  -26.9421   22.5399 C   0  0  0  0  0  0
  -19.5757  -26.6382   21.5202 C   0  0  0  0  0  0
  -18.1940  -26.7925   22.1620 C   0  0  0  0  0  0
  -19.1549  -28.8857   23.2857 C   0  0  0  0  0  0
  -18.9471  -30.1456   23.8884 C   0  0  0  0  0  0
  -17.6470  -30.6587   24.0556 C   0  0  0  0  0  0
  -25.9060  -34.9429   23.5082 C   0  0  0  0  0  0
  -16.5359  -29.9084   23.6330 C   0  0  0  0  0  0
  -16.7282  -28.6497   23.0355 C   0  0  0  0  0  0
  -26.4512  -31.6566   25.0720 C   0  0  0  0  0  0
  -25.3721  -31.3739   26.1433 C   0  0  0  0  0  0
  -27.0347  -30.2965   24.6246 C   0  0  0  0  0  0
  -27.6067  -32.4305   25.7496 C   0  0  0  0  0  0
  -27.5582  -37.1790   24.8462 C   0  0  0  0  0  0
  -21.4225  -29.3047   22.3633 N   0  0  0  0  0  0
  -26.4289  -37.3763   23.9410 N   0  0  0  0  0  0
  -24.7031  -31.0451   22.0957 N   0  0  0  0  0  0
  -23.4205  -28.8126   23.2997 O   0  0  0  0  0  0
  -28.2858  -26.2843   20.2339 O   0  0  0  0  0  0
  -26.5645  -34.8918   22.4662 O   0  0  0  0  0  0
  -23.5493  -32.1362   23.7230 O   0  0  0  0  0  0
  -28.2780  -18.9134   19.6291 C   0  0  0  0  0  0
  -28.4293  -17.4811   19.6717 C   0  0  0  0  0  0
  -29.3041  -19.4657   20.3475 C   0  0  0  0  0  0
  -29.5474  -17.1679   20.4081 C   0  0  0  0  0  0
  -30.9538  -21.3075   20.5760 C   0  0  0  0  0  0
  -28.6005  -22.0091   20.0969 C   0  0  0  0  0  0
  -31.1819  -22.7353   21.1360 C   0  0  0  0  0  0
  -28.9124  -23.5495   20.5651 C   0  0  2  0  0  0
  -28.0550  -24.8053   19.9387 C   0  0  0  0  0  0
  -29.5477  -20.8989   20.5521 N   0  0  0  0  0  0
  -29.7728  -15.8572   20.8892 N   0  0  0  0  0  0
  -30.3711  -23.7685   20.4423 N   0  3  0  0  0  0
  -30.1065  -18.3995   20.8497 O   0  0  0  0  0  0
  -31.4871  -12.6316   19.1801 H   0  0  0  0  0  0
  -30.4167  -11.5014   19.9587 H   0  0  0  0  0  0
  -29.8149  -11.7542   17.5319 H   0  0  0  0  0  0
  -29.6420  -13.4803   17.7347 H   0  0  0  0  0  0
  -27.9080  -11.2869   18.9113 H   0  0  0  0  0  0
  -27.3935  -12.5341   17.8046 H   0  0  0  0  0  0
  -27.6453  -14.2537   19.4867 H   0  0  0  0  0  0
  -28.7361  -12.1403   21.4105 H   0  0  0  0  0  0
  -28.4104  -13.7975   21.8274 H   0  0  0  0  0  0
  -25.2742   -9.5686   22.4762 H   0  0  0  0  0  0
  -23.9995   -7.4630   22.7475 H   0  0  0  0  0  0
  -21.0825   -8.8739   19.8961 H   0  0  0  0  0  0
  -22.3658  -10.9642   19.6170 H   0  0  0  0  0  0
  -21.1998   -7.6146   23.9716 H   0  0  0  0  0  0
  -21.1489   -6.0520   25.9076 H   0  0  0  0  0  0
  -22.0602   -2.7620   23.2816 H   0  0  0  0  0  0
  -22.4038  -11.9876   22.4797 H   0  0  0  0  0  0
  -21.1094  -13.1312   22.2621 H   0  0  0  0  0  0
  -24.6494  -15.8411   20.5334 H   0  0  0  0  0  0
  -26.2658  -15.6373   20.0947 H   0  0  0  0  0  0
  -26.7227  -32.5372   23.1051 H   0  0  0  0  0  0
  -25.0076  -33.9660   25.0374 H   0  0  0  0  0  0
  -22.7320  -31.2997   21.3928 H   0  0  0  0  0  0
  -23.3757  -35.9608   23.3283 H   0  0  0  0  0  0
  -24.3596  -36.8921   22.2060 H   0  0  0  0  0  0
  -23.7251  -37.6475   23.6673 H   0  0  0  0  0  0
  -26.1280  -31.5114   20.6141 H   0  0  0  0  0  0
  -26.8575  -30.7990   22.0198 H   0  0  0  0  0  0
  -28.1122  -28.8713   21.2390 H   0  0  0  0  0  0
  -25.9372  -25.9185   18.9429 H   0  0  0  0  0  0
  -23.9807  -27.3287   18.9609 H   0  0  0  0  0  0
  -23.7822  -30.5883   19.4009 H   0  0  0  0  0  0
  -22.7708  -29.2483   19.8479 H   0  0  0  0  0  0
  -25.1301  -36.1894   25.0814 H   0  0  0  0  0  0
  -20.9990  -28.3287   24.1369 H   0  0  0  0  0  0
  -20.5662  -26.2324   23.3610 H   0  0  0  0  0  0
  -21.6652  -26.7429   22.1211 H   0  0  0  0  0  0
  -19.6923  -25.6286   21.1249 H   0  0  0  0  0  0
  -19.6693  -27.3175   20.6716 H   0  0  0  0  0  0
  -17.4208  -26.6656   21.4026 H   0  0  0  0  0  0
  -18.0354  -26.0068   22.9021 H   0  0  0  0  0  0
  -19.7950  -30.7271   24.2258 H   0  0  0  0  0  0
  -17.5028  -31.6267   24.5152 H   0  0  0  0  0  0
  -15.5359  -30.2980   23.7655 H   0  0  0  0  0  0
  -15.8682  -28.0807   22.7080 H   0  0  0  0  0  0
  -24.5898  -30.7084   25.7766 H   0  0  0  0  0  0
  -24.8912  -32.2915   26.4827 H   0  0  0  0  0  0
  -25.8027  -30.8940   27.0227 H   0  0  0  0  0  0
  -26.2934  -29.6712   24.1255 H   0  0  0  0  0  0
  -27.3974  -29.7240   25.4790 H   0  0  0  0  0  0
  -27.8846  -30.4204   23.9531 H   0  0  0  0  0  0
  -27.2677  -33.3612   26.2058 H   0  0  0  0  0  0
  -28.3887  -32.6846   25.0328 H   0  0  0  0  0  0
  -28.0720  -31.8435   26.5423 H   0  0  0  0  0  0
  -28.2579  -38.0109   24.7527 H   0  0  0  0  0  0
  -28.1096  -36.2636   24.6249 H   0  0  0  0  0  0
  -27.2307  -37.1407   25.8868 H   0  0  0  0  0  0
  -20.9412  -29.8782   21.6850 H   0  0  0  0  0  0
  -26.0158  -38.2833   24.1410 H   0  0  0  0  0  0
  -27.4915  -19.4626   19.1322 H   0  0  0  0  0  0
  -27.7521  -16.7623   19.2341 H   0  0  0  0  0  0
  -31.5306  -20.5975   21.1705 H   0  0  0  0  0  0
  -31.3494  -21.2449   19.5608 H   0  0  0  0  0  0
  -28.5726  -21.9799   19.0063 H   0  0  0  0  0  0
  -27.5889  -21.7493   20.4147 H   0  0  0  0  0  0
  -32.2369  -22.9964   21.0432 H   0  0  0  0  0  0
  -30.9590  -22.7566   22.2034 H   0  0  0  0  0  0
  -28.7065  -23.5793   21.6360 H   0  0  0  0  0  0
  -27.0314  -24.5742   20.2332 H   0  0  0  0  0  0
  -28.0731  -24.7050   18.8532 H   0  0  0  0  0  0
  -28.9412  -15.4778   21.3155 H   0  0  0  0  0  0
  -30.6338  -23.7896   19.4703 H   0  0  0  0  0  0
  -30.6009  -24.6676   20.8359 H   0  0  0  0  0  0
  1 25  1  0  0  0
  1 30  2  0  0  0
  1 81  1  0  0  0
  2  3  1  0  0  0
  2 25  1  0  0  0
  2 84  1  0  0  0
  2 85  1  0  0  0
  3  4  1  0  0  0
  3 86  1  0  0  0
  3 87  1  0  0  0
  4  5  1  0  0  0
  4 88  1  0  0  0
  4 89  1  0  0  0
  5  6  1  0  0  0
  5 26  1  0  0  0
  5 90  1  0  0  0
  6 25  1  0  0  0
  6 91  1  0  0  0
  6 92  1  0  0  0
  7  8  2  0  0  0
  7 26  1  0  0  0
  7 29  1  0  0  0
  8  9  1  0  0  0
  8 22  1  0  0  0
  9 10  1  0  0  0
  9 27  2  0  0  0
 10 11  2  0  0  0
 10 15  1  0  0  0
 11 12  1  0  0  0
 11 93  1  0  0  0
 12 13  2  0  0  0
 12 94  1  0  0  0
 13 14  1  0  0  0
 13 31  1  0  0  0
 14 15  2  0  0  0
 14 95  1  0  0  0
 15 96  1  0  0  0
 16 17  2  0  0  0
 16 21  1  0  0  0
 16 31  1  0  0  0
 17 18  1  0  0  0
 17 97  1  0  0  0
 18 19  2  0  0  0
 18 98  1  0  0  0
 19 20  1  0  0  0
 19 24  1  0  0  0
 20 21  2  0  0  0
 20 99  1  0  0  0
 21 23  1  0  0  0
 22 28  1  0  0  0
 22 32  2  0  0  0
 26 27  1  0  0  0
 28100  1  0  0  0
 28101  1  0  0  0
 29102  1  0  0  0
 29103  1  0  0  0
 33 34  1  0  0  0
 33 66  1  0  0  0
 33 70  2  0  0  0
 34 36  1  0  0  0
 34 59  1  0  0  0
 34104  1  0  0  0
 35 44  2  0  0  0
 35 45  1  0  0  0
 35 68  1  0  0  0
 36 56  1  0  0  0
 36105  1  0  0  0
 37 39  1  0  0  0
 37 47  1  0  0  0
 37 66  1  0  0  0
 37106  1  0  0  0
 38 43  2  0  0  0
 38 46  1  0  0  0
 38 47  1  0  0  0
 39 64  1  0  0  0
 39 67  2  0  0  0
 40 52  1  0  0  0
 40 53  2  0  0  0
 40 58  1  0  0  0
 41107  1  0  0  0
 41108  1  0  0  0
 41109  1  0  0  0
 41 48  1  0  0  0
 42 43  1  0  0  0
 42 66  1  0  0  0
 42110  1  0  0  0
 42111  1  0  0  0
 43 44  1  0  0  0
 44112  1  0  0  0
 45 46  2  0  0  0
 45113  1  0  0  0
 46114  1  0  0  0
 47115  1  0  0  0
 47116  1  0  0  0
 48 56  1  0  0  0
 48 65  1  0  0  0
 48117  1  0  0  0
 49 50  1  0  0  0
 49 53  1  0  0  0
 49 64  1  0  0  0
 49118  1  0  0  0
 50 51  1  0  0  0
 50119  1  0  0  0
 50120  1  0  0  0
 51 52  1  0  0  0
 51121  1  0  0  0
 51122  1  0  0  0
 52123  1  0  0  0
 52124  1  0  0  0
 53 54  1  0  0  0
 54 55  2  0  0  0
 54125  1  0  0  0
 55 57  1  0  0  0
 55126  1  0  0  0
 56 69  2  0  0  0
 57 58  2  0  0  0
 57127  1  0  0  0
 58128  1  0  0  0
 59 60  1  0  0  0
 59 61  1  0  0  0
 59 62  1  0  0  0
 60129  1  0  0  0
 60130  1  0  0  0
 60131  1  0  0  0
 61132  1  0  0  0
 61133  1  0  0  0
 61134  1  0  0  0
 62135  1  0  0  0
 62136  1  0  0  0
 62137  1  0  0  0
 63 65  1  0  0  0
 63138  1  0  0  0
 63139  1  0  0  0
 63140  1  0  0  0
 64141  1  0  0  0
 65142  1  0  0  0
 68 79  1  0  0  0
 71 72  1  0  0  0
 71 73  2  0  0  0
 71143  1  0  0  0
 72 74  2  0  0  0
 72144  1  0  0  0
 73 80  1  0  0  0
 73 83  1  0  0  0
 74 81  1  0  0  0
 74 83  1  0  0  0
 75 77  1  0  0  0
 75 80  1  0  0  0
 75145  1  0  0  0
 75146  1  0  0  0
 76 78  1  0  0  0
 76 80  1  0  0  0
 76147  1  0  0  0
 76148  1  0  0  0
 77 82  1  0  0  0
 77149  1  0  0  0
 77150  1  0  0  0
 78 79  1  0  0  0
 78 82  1  0  0  0
 78151  1  0  0  0
 79152  1  0  0  0
 79153  1  0  0  0
 81154  1  0  0  0
 82155  1  0  0  0
 82156  1  0  0  0
M  CHG  1  82   1
M  ISO  4   1 100  68 101  79 101  81 100
M  END
> <chiral flag>
0

> <version>
0

> <s_m_source_file>
/data/baiqing/PycharmProjects/Reinvent-master-3.2/result/LINK_invent/BTK/process_docking_weight1_custom_product_contain_oxygen_bond_distance_aromatic_linkinvent_7_9_3/rearranged_h_0156.sdf

> <i_m_source_file_index>
23

> <r_mmod_Potential_Energy-OPLS-2005>
140.021423339844

> <r_mmod_Stretch_Energy-OPLS-2005>
148.057373046875

> <r_mmod_Bend_Energy-OPLS-2005>
196.504364013672

> <r_mmod_Torsional_Energy-OPLS-2005>
314.173187255859

> <r_mmod_Improper_Torsional_Energy-OPLS-2005>
10.0377674102783

> <r_mmod_Van_der_Waal_Energy-OPLS-2005>
119.623077392578

> <r_mmod_Electrostatic_Energy-OPLS-2005>
-287.733306884766

> <r_mmod_Solvation_Energy-OPLS-2005>
-472.388641357422

> <b_mmod_Minimization_Converged-OPLS-2005>
0

> <r_mmod_RMS_Derivative-OPLS-2005>
1.56253504753113

$$$$
23
                    3D
 Structure written by MMmdl.
153162  0  0  1  0            999 V2000
  -30.6014  -14.7834   20.4528 C   0  0  0  0  0  0
  -30.4345  -12.4758   19.4847 C   0  0  0  0  0  0
  -29.5107  -12.5110   18.2455 C   0  0  0  0  0  0
  -28.0398  -12.3255   18.6605 C   0  0  0  0  0  0
  -27.6415  -13.2344   19.8529 C   0  0  2  0  0  0
  -28.6865  -13.1815   20.9912 C   0  0  0  0  0  0
  -25.2511  -13.8205   20.5718 C   0  0  0  0  0  0
  -24.1800  -13.0444   20.9219 C   0  0  0  0  0  0
  -24.6397  -11.6926   20.8758 C   0  0  0  0  0  0
  -23.9067  -10.4304   21.0420 C   0  0  0  0  0  0
  -24.3625   -9.4205   21.9181 C   0  0  0  0  0  0
  -23.6303   -8.2238   22.0749 C   0  0  0  0  0  0
  -22.4286   -8.0278   21.3543 C   0  0  0  0  0  0
  -21.9919   -9.0253   20.4643 C   0  0  0  0  0  0
  -22.7244  -10.2139   20.3059 C   0  0  0  0  0  0
  -21.6852   -6.0735   22.5280 C   0  0  0  0  0  0
  -21.4011   -6.5641   23.8214 C   0  0  0  0  0  0
  -21.3665   -5.6795   24.9177 C   0  0  0  0  0  0
  -21.6048   -4.3059   24.7220 C   0  0  0  0  0  0
  -21.8823   -3.8144   23.4342 C   0  0  0  0  0  0
  -21.9195   -4.6963   22.3396 C   0  0  0  0  0  0
  -22.7820  -13.5212   21.1874 C   0  0  0  0  0  0
  -22.1665   -4.2156   21.0970 F   0  0  0  0  0  0
  -21.5632   -3.4538   25.7728 F   0  0  0  0  0  0
  -29.9880  -13.5447   20.4132 N   0  0  0  0  0  0
  -26.2939  -12.9415   20.3306 N   0  0  0  0  0  0
  -25.9328  -11.6555   20.5773 N   0  0  0  0  0  0
  -22.0481  -12.8200   22.0438 N   0  0  0  0  0  0
  -25.4212  -15.1926   20.4146 N   0  0  0  0  0  0
  -31.7815  -14.8763   20.0984 O   0  0  0  0  0  0
  -21.6645   -6.8881   21.4240 O   0  0  0  0  0  0
  -22.3502  -14.5514   20.6722 O   0  0  0  0  0  0
  -24.6352  -31.8522   23.1967 C   0  0  0  0  0  0
  -25.9168  -32.4736   23.8314 C   0  0  1  0  0  0
  -27.2141  -27.2163   20.1356 C   0  0  0  0  0  0
  -25.5960  -33.8544   24.2239 N   0  0  0  0  0  0
  -23.4340  -30.4752   21.5405 C   0  0  2  0  0  0
  -24.8806  -28.9184   20.1104 C   0  0  0  0  0  0
  -22.7522  -29.4594   22.4894 C   0  0  0  0  0  0
  -18.0298  -28.1389   22.8482 C   0  0  0  0  0  0
  -24.1487  -36.7254   23.2607 C   0  0  0  0  0  0
  -25.9852  -30.7484   21.3879 C   0  0  0  0  0  0
  -26.0538  -29.3690   20.7271 C   0  0  0  0  0  0
  -27.2200  -28.5299   20.7303 C   0  0  0  0  0  0
  -26.0211  -26.8602   19.4630 C   0  0  0  0  0  0
  -24.8717  -27.6734   19.4679 C   0  0  0  0  0  0
  -23.6550  -29.8114   20.1564 C   0  0  0  0  0  0
  -25.4097  -36.3051   24.0325 C   0  0  1  0  0  0
  -20.5906  -28.3709   23.1253 C   0  0  2  0  0  0
  -20.6778  -26.9419   22.5408 C   0  0  0  0  0  0
  -19.5759  -26.6384   21.5208 C   0  0  0  0  0  0
  -18.1937  -26.7934   22.1620 C   0  0  0  0  0  0
  -19.1553  -28.8863   23.2864 C   0  0  0  0  0  0
  -18.9474  -30.1464   23.8887 C   0  0  0  0  0  0
  -17.6474  -30.6590   24.0560 C   0  0  0  0  0  0
  -25.9083  -34.9436   23.5089 C   0  0  0  0  0  0
  -16.5365  -29.9087   23.6338 C   0  0  0  0  0  0
  -16.7288  -28.6501   23.0366 C   0  0  0  0  0  0
  -26.4516  -31.6582   25.0728 C   0  0  0  0  0  0
  -25.3733  -31.3741   26.1447 C   0  0  0  0  0  0
  -27.0369  -30.2983   24.6272 C   0  0  0  0  0  0
  -27.6074  -32.4322   25.7493 C   0  0  0  0  0  0
  -27.5649  -37.1664   24.8376 C   0  0  0  0  0  0
  -21.4224  -29.3052   22.3634 N   0  0  0  0  0  0
  -26.4216  -37.3818   23.9547 N   0  0  0  0  0  0
  -24.7039  -31.0445   22.0968 N   0  0  0  0  0  0
  -23.4198  -28.8140   23.3013 O   0  0  0  0  0  0
  -28.2974  -26.2934   20.2294 O   0  0  0  0  0  0
  -26.5669  -34.8927   22.4670 O   0  0  0  0  0  0
  -23.5494  -32.1378   23.7233 O   0  0  0  0  0  0
  -29.2430  -18.4978   21.0180 C   0  0  0  0  0  0
  -30.9872  -17.8784   19.6069 C   0  0  0  0  0  0
  -30.0360  -17.3789   20.4650 C   0  0  0  0  0  0
  -29.6037  -19.8080   20.6175 C   0  0  0  0  0  0
  -28.5576  -23.7337   21.0563 C   0  0  0  0  0  0
  -29.1635  -21.1756   21.1373 C   0  0  0  0  0  0
  -28.8790  -24.2044   18.7655 C   0  0  0  0  0  0
  -29.0469  -22.6657   19.0184 C   0  0  0  0  0  0
  -28.1217  -24.7948   19.9683 C   0  0  2  0  0  0
  -28.9588  -22.4136   20.4698 N   0  0  0  0  0  0
  -29.8331  -15.9158   20.7366 N   0  0  0  0  0  0
  -28.9667  -21.1566   22.4684 N   0  3  0  0  0  0
  -28.4859  -23.9337   22.2790 O   0  0  0  0  0  0
  -30.9234  -19.6439   19.4730 S   0  0  0  0  0  0
  -31.4740  -12.6001   19.1766 H   0  0  0  0  0  0
  -30.3841  -11.5037   19.9762 H   0  0  0  0  0  0
  -29.7974  -11.7360   17.5335 H   0  0  0  0  0  0
  -29.6266  -13.4630   17.7236 H   0  0  0  0  0  0
  -27.9068  -11.2781   18.9339 H   0  0  0  0  0  0
  -27.3806  -12.5011   17.8091 H   0  0  0  0  0  0
  -27.6319  -14.2512   19.4605 H   0  0  0  0  0  0
  -28.7291  -12.1850   21.4343 H   0  0  0  0  0  0
  -28.4140  -13.8613   21.8008 H   0  0  0  0  0  0
  -25.2785   -9.5669   22.4742 H   0  0  0  0  0  0
  -24.0018   -7.4627   22.7461 H   0  0  0  0  0  0
  -21.0846   -8.8769   19.8937 H   0  0  0  0  0  0
  -22.3705  -10.9674   19.6164 H   0  0  0  0  0  0
  -21.1998   -7.6153   23.9716 H   0  0  0  0  0  0
  -21.1491   -6.0528   25.9081 H   0  0  0  0  0  0
  -22.0596   -2.7603   23.2850 H   0  0  0  0  0  0
  -22.4139  -11.9867   22.4811 H   0  0  0  0  0  0
  -21.1090  -13.1190   22.2654 H   0  0  0  0  0  0
  -24.6530  -15.8456   20.5210 H   0  0  0  0  0  0
  -26.2638  -15.6289   20.0634 H   0  0  0  0  0  0
  -26.7233  -32.5364   23.1048 H   0  0  0  0  0  0
  -25.0081  -33.9677   25.0365 H   0  0  0  0  0  0
  -22.7329  -31.2993   21.3921 H   0  0  0  0  0  0
  -23.3873  -35.9441   23.2963 H   0  0  0  0  0  0
  -24.3673  -36.9201   22.2094 H   0  0  0  0  0  0
  -23.7034  -37.6267   23.6829 H   0  0  0  0  0  0
  -26.1384  -31.5092   20.6218 H   0  0  0  0  0  0
  -26.8564  -30.7903   22.0299 H   0  0  0  0  0  0
  -28.1138  -28.8655   21.2383 H   0  0  0  0  0  0
  -25.9281  -25.9317   18.9241 H   0  0  0  0  0  0
  -23.9769  -27.3273   18.9686 H   0  0  0  0  0  0
  -23.7870  -30.5883   19.4017 H   0  0  0  0  0  0
  -22.7710  -29.2513   19.8462 H   0  0  0  0  0  0
  -25.1220  -36.1833   25.0792 H   0  0  0  0  0  0
  -20.9999  -28.3294   24.1374 H   0  0  0  0  0  0
  -20.5674  -26.2319   23.3617 H   0  0  0  0  0  0
  -21.6652  -26.7431   22.1214 H   0  0  0  0  0  0
  -19.6920  -25.6290   21.1254 H   0  0  0  0  0  0
  -19.6696  -27.3181   20.6726 H   0  0  0  0  0  0
  -17.4206  -26.6686   21.4027 H   0  0  0  0  0  0
  -18.0340  -26.0078   22.9012 H   0  0  0  0  0  0
  -19.7949  -30.7286   24.2261 H   0  0  0  0  0  0
  -17.5026  -31.6275   24.5158 H   0  0  0  0  0  0
  -15.5367  -30.2987   23.7662 H   0  0  0  0  0  0
  -15.8684  -28.0812   22.7099 H   0  0  0  0  0  0
  -24.5891  -30.7116   25.7763 H   0  0  0  0  0  0
  -24.8951  -32.2918   26.4879 H   0  0  0  0  0  0
  -25.8044  -30.8895   27.0217 H   0  0  0  0  0  0
  -26.2967  -29.6715   24.1288 H   0  0  0  0  0  0
  -27.4005  -29.7268   25.4821 H   0  0  0  0  0  0
  -27.8871  -30.4222   23.9561 H   0  0  0  0  0  0
  -27.2685  -33.3605   26.2097 H   0  0  0  0  0  0
  -28.3862  -32.6913   25.0312 H   0  0  0  0  0  0
  -28.0776  -31.8442   26.5387 H   0  0  0  0  0  0
  -28.2279  -38.0321   24.8063 H   0  0  0  0  0  0
  -28.1528  -36.2968   24.5394 H   0  0  0  0  0  0
  -27.2513  -37.0297   25.8741 H   0  0  0  0  0  0
  -20.9415  -29.8763   21.6825 H   0  0  0  0  0  0
  -26.0065  -38.2781   24.1945 H   0  0  0  0  0  0
  -28.4512  -18.3077   21.7275 H   0  0  0  0  0  0
  -31.7253  -17.3331   19.0295 H   0  0  0  0  0  0
  -28.3367  -24.3883   17.8385 H   0  0  0  0  0  0
  -29.8565  -24.6768   18.6661 H   0  0  0  0  0  0
  -29.9950  -22.3076   18.6199 H   0  0  0  0  0  0
  -28.2505  -22.1038   18.5304 H   0  0  0  0  0  0
  -27.0697  -24.5473   19.8617 H   0  0  0  0  0  0
  -28.9293  -15.6855   21.1225 H   0  0  0  0  0  0
  -29.1639  -20.3302   23.0107 H   0  0  0  0  0  0
  -28.7105  -22.0064   22.9597 H   0  0  0  0  0  0
  1 25  1  0  0  0
  1 30  2  0  0  0
  1 81  1  0  0  0
  2  3  1  0  0  0
  2 25  1  0  0  0
  2 85  1  0  0  0
  2 86  1  0  0  0
  3  4  1  0  0  0
  3 87  1  0  0  0
  3 88  1  0  0  0
  4  5  1  0  0  0
  4 89  1  0  0  0
  4 90  1  0  0  0
  5  6  1  0  0  0
  5 26  1  0  0  0
  5 91  1  0  0  0
  6 25  1  0  0  0
  6 92  1  0  0  0
  6 93  1  0  0  0
  7  8  2  0  0  0
  7 26  1  0  0  0
  7 29  1  0  0  0
  8  9  1  0  0  0
  8 22  1  0  0  0
  9 10  1  0  0  0
  9 27  2  0  0  0
 10 11  2  0  0  0
 10 15  1  0  0  0
 11 12  1  0  0  0
 11 94  1  0  0  0
 12 13  2  0  0  0
 12 95  1  0  0  0
 13 14  1  0  0  0
 13 31  1  0  0  0
 14 15  2  0  0  0
 14 96  1  0  0  0
 15 97  1  0  0  0
 16 17  2  0  0  0
 16 21  1  0  0  0
 16 31  1  0  0  0
 17 18  1  0  0  0
 17 98  1  0  0  0
 18 19  2  0  0  0
 18 99  1  0  0  0
 19 20  1  0  0  0
 19 24  1  0  0  0
 20 21  2  0  0  0
 20100  1  0  0  0
 21 23  1  0  0  0
 22 28  1  0  0  0
 22 32  2  0  0  0
 26 27  1  0  0  0
 28101  1  0  0  0
 28102  1  0  0  0
 29103  1  0  0  0
 29104  1  0  0  0
 33 34  1  0  0  0
 33 66  1  0  0  0
 33 70  2  0  0  0
 34 36  1  0  0  0
 34 59  1  0  0  0
 34105  1  0  0  0
 35 44  2  0  0  0
 35 45  1  0  0  0
 35 68  1  0  0  0
 36 56  1  0  0  0
 36106  1  0  0  0
 37 39  1  0  0  0
 37 47  1  0  0  0
 37 66  1  0  0  0
 37107  1  0  0  0
 38 43  2  0  0  0
 38 46  1  0  0  0
 38 47  1  0  0  0
 39 64  1  0  0  0
 39 67  2  0  0  0
 40 52  1  0  0  0
 40 53  2  0  0  0
 40 58  1  0  0  0
 41108  1  0  0  0
 41109  1  0  0  0
 41110  1  0  0  0
 41 48  1  0  0  0
 42 43  1  0  0  0
 42 66  1  0  0  0
 42111  1  0  0  0
 42112  1  0  0  0
 43 44  1  0  0  0
 44113  1  0  0  0
 45 46  2  0  0  0
 45114  1  0  0  0
 46115  1  0  0  0
 47116  1  0  0  0
 47117  1  0  0  0
 48 56  1  0  0  0
 48 65  1  0  0  0
 48118  1  0  0  0
 49 50  1  0  0  0
 49 53  1  0  0  0
 49 64  1  0  0  0
 49119  1  0  0  0
 50 51  1  0  0  0
 50120  1  0  0  0
 50121  1  0  0  0
 51 52  1  0  0  0
 51122  1  0  0  0
 51123  1  0  0  0
 52124  1  0  0  0
 52125  1  0  0  0
 53 54  1  0  0  0
 54 55  2  0  0  0
 54126  1  0  0  0
 55 57  1  0  0  0
 55127  1  0  0  0
 56 69  2  0  0  0
 57 58  2  0  0  0
 57128  1  0  0  0
 58129  1  0  0  0
 59 60  1  0  0  0
 59 61  1  0  0  0
 59 62  1  0  0  0
 60130  1  0  0  0
 60131  1  0  0  0
 60132  1  0  0  0
 61133  1  0  0  0
 61134  1  0  0  0
 61135  1  0  0  0
 62136  1  0  0  0
 62137  1  0  0  0
 62138  1  0  0  0
 63 65  1  0  0  0
 63139  1  0  0  0
 63140  1  0  0  0
 63141  1  0  0  0
 64142  1  0  0  0
 65143  1  0  0  0
 68 79  1  0  0  0
 71 73  1  0  0  0
 71 74  2  0  0  0
 71144  1  0  0  0
 72 73  2  0  0  0
 72 84  1  0  0  0
 72145  1  0  0  0
 73 81  1  0  0  0
 74 76  1  0  0  0
 74 84  1  0  0  0
 75 79  1  0  0  0
 75 80  1  0  0  0
 75 83  2  0  0  0
 76 80  1  0  0  0
 76 82  2  0  0  0
 77 78  1  0  0  0
 77 79  1  0  0  0
 77146  1  0  0  0
 77147  1  0  0  0
 78 80  1  0  0  0
 78148  1  0  0  0
 78149  1  0  0  0
 79150  1  0  0  0
 81151  1  0  0  0
 82152  1  0  0  0
 82153  1  0  0  0
M  CHG  1  82   1
M  ISO  4   1 100  68 101  79 101  81 100
M  END
> <chiral flag>
0

> <version>
0

> <s_m_source_file>
/data/baiqing/PycharmProjects/Reinvent-master-3.2/result/LINK_invent/BTK/process_docking_weight1_custom_product_contain_oxygen_bond_distance_aromatic_linkinvent_7_9_3/rearranged_h_0156.sdf

> <i_m_source_file_index>
24

> <r_mmod_Potential_Energy-OPLS-2005>
167.29753112793

> <r_mmod_Stretch_Energy-OPLS-2005>
143.683639526367

> <r_mmod_Bend_Energy-OPLS-2005>
221.305541992188

> <r_mmod_Torsional_Energy-OPLS-2005>
247.180450439453

> <r_mmod_Improper_Torsional_Energy-OPLS-2005>
5.04527902603149

> <r_mmod_Van_der_Waal_Energy-OPLS-2005>
122.598922729492

> <r_mmod_Electrostatic_Energy-OPLS-2005>
-216.656661987305

> <r_mmod_Solvation_Energy-OPLS-2005>
-464.477172851562

> <b_mmod_Minimization_Converged-OPLS-2005>
0

> <r_mmod_RMS_Derivative-OPLS-2005>
1.80706918239594

$$$$
24
                    3D
 Structure written by MMmdl.
151159  0  0  1  0            999 V2000
  -30.5573  -14.8114   20.4352 C   0  0  0  0  0  0
  -30.4413  -12.4913   19.4920 C   0  0  0  0  0  0
  -29.5227  -12.5226   18.2479 C   0  0  0  0  0  0
  -28.0473  -12.3391   18.6534 C   0  0  0  0  0  0
  -27.6426  -13.2359   19.8530 C   0  0  2  0  0  0
  -28.6812  -13.1782   20.9940 C   0  0  0  0  0  0
  -25.2514  -13.8203   20.5691 C   0  0  0  0  0  0
  -24.1806  -13.0454   20.9207 C   0  0  0  0  0  0
  -24.6391  -11.6929   20.8763 C   0  0  0  0  0  0
  -23.9078  -10.4308   21.0431 C   0  0  0  0  0  0
  -24.3626   -9.4227   21.9202 C   0  0  0  0  0  0
  -23.6303   -8.2256   22.0756 C   0  0  0  0  0  0
  -22.4276   -8.0292   21.3557 C   0  0  0  0  0  0
  -21.9918   -9.0274   20.4664 C   0  0  0  0  0  0
  -22.7258  -10.2143   20.3089 C   0  0  0  0  0  0
  -21.6845   -6.0753   22.5276 C   0  0  0  0  0  0
  -21.4020   -6.5656   23.8214 C   0  0  0  0  0  0
  -21.3664   -5.6803   24.9174 C   0  0  0  0  0  0
  -21.6027   -4.3065   24.7221 C   0  0  0  0  0  0
  -21.8825   -3.8166   23.4340 C   0  0  0  0  0  0
  -21.9187   -4.6985   22.3398 C   0  0  0  0  0  0
  -22.7822  -13.5260   21.1842 C   0  0  0  0  0  0
  -22.1660   -4.2190   21.0972 F   0  0  0  0  0  0
  -21.5613   -3.4539   25.7724 F   0  0  0  0  0  0
  -29.9781  -13.5550   20.4198 N   0  0  0  0  0  0
  -26.2936  -12.9420   20.3266 N   0  0  0  0  0  0
  -25.9316  -11.6562   20.5728 N   0  0  0  0  0  0
  -22.0434  -12.8288   22.0396 N   0  0  0  0  0  0
  -25.4223  -15.1911   20.4130 N   0  0  0  0  0  0
  -31.7366  -14.9265   20.0824 O   0  0  0  0  0  0
  -21.6631   -6.8893   21.4243 O   0  0  0  0  0  0
  -22.3523  -14.5578   20.6686 O   0  0  0  0  0  0
  -24.6357  -31.8517   23.1967 C   0  0  0  0  0  0
  -25.9165  -32.4744   23.8307 C   0  0  1  0  0  0
  -27.2089  -27.2158   20.1349 C   0  0  0  0  0  0
  -25.5931  -33.8540   24.2232 N   0  0  0  0  0  0
  -23.4325  -30.4771   21.5396 C   0  0  2  0  0  0
  -24.8793  -28.9213   20.1067 C   0  0  0  0  0  0
  -22.7526  -29.4577   22.4881 C   0  0  0  0  0  0
  -18.0299  -28.1383   22.8481 C   0  0  0  0  0  0
  -24.1489  -36.7286   23.2636 C   0  0  0  0  0  0
  -25.9844  -30.7510   21.3839 C   0  0  0  0  0  0
  -26.0516  -29.3700   20.7252 C   0  0  0  0  0  0
  -27.2176  -28.5314   20.7290 C   0  0  0  0  0  0
  -26.0183  -26.8609   19.4610 C   0  0  0  0  0  0
  -24.8699  -27.6761   19.4621 C   0  0  0  0  0  0
  -23.6537  -29.8135   20.1555 C   0  0  0  0  0  0
  -25.4117  -36.3066   24.0321 C   0  0  1  0  0  0
  -20.5897  -28.3696   23.1250 C   0  0  2  0  0  0
  -20.6779  -26.9408   22.5395 C   0  0  0  0  0  0
  -19.5756  -26.6372   21.5200 C   0  0  0  0  0  0
  -18.1940  -26.7923   22.1620 C   0  0  0  0  0  0
  -19.1552  -28.8858   23.2856 C   0  0  0  0  0  0
  -18.9476  -30.1456   23.8885 C   0  0  0  0  0  0
  -17.6472  -30.6576   24.0563 C   0  0  0  0  0  0
  -25.9055  -34.9433   23.5084 C   0  0  0  0  0  0
  -16.5363  -29.9075   23.6327 C   0  0  0  0  0  0
  -16.7285  -28.6490   23.0354 C   0  0  0  0  0  0
  -26.4489  -31.6587   25.0721 C   0  0  0  0  0  0
  -25.3688  -31.3774   26.1430 C   0  0  0  0  0  0
  -27.0344  -30.2996   24.6257 C   0  0  0  0  0  0
  -27.6028  -32.4338   25.7507 C   0  0  0  0  0  0
  -27.5587  -37.1790   24.8458 C   0  0  0  0  0  0
  -21.4224  -29.3039   22.3641 N   0  0  0  0  0  0
  -26.4289  -37.3773   23.9408 N   0  0  0  0  0  0
  -24.7036  -31.0459   22.0959 N   0  0  0  0  0  0
  -23.4219  -28.8103   23.2979 O   0  0  0  0  0  0
  -28.2792  -26.2776   20.2314 O   0  0  0  0  0  0
  -26.5648  -34.8913   22.4671 O   0  0  0  0  0  0
  -23.5499  -32.1333   23.7262 O   0  0  0  0  0  0
  -30.1277  -19.2121   19.1190 C   0  0  0  0  0  0
  -30.3772  -17.7892   19.1722 C   0  0  0  0  0  0
  -29.4602  -19.5844   20.2612 C   0  0  0  0  0  0
  -29.8449  -17.2928   20.3401 C   0  0  0  0  0  0
  -28.9551  -22.0932   19.9294 C   0  0  0  0  0  0
  -28.0793  -24.7988   19.8948 C   0  0  0  0  0  0
  -28.9072  -23.5702   20.6025 C   0  0  2  0  0  0
  -29.1285  -20.9084   20.6577 N   0  0  0  0  0  0
  -29.7586  -15.9287   20.7141 N   0  0  0  0  0  0
  -30.3058  -24.0067   20.7652 N   0  3  0  0  0  0
  -28.8784  -22.0463   18.7009 O   0  0  0  0  0  0
  -29.2661  -18.3983   21.0216 O   0  0  0  0  0  0
  -31.4827  -12.6338   19.1931 H   0  0  0  0  0  0
  -30.4024  -11.5168   19.9822 H   0  0  0  0  0  0
  -29.8148  -11.7484   17.5375 H   0  0  0  0  0  0
  -29.6412  -13.4743   17.7267 H   0  0  0  0  0  0
  -27.9090  -11.2901   18.9155 H   0  0  0  0  0  0
  -27.3958  -12.5284   17.7992 H   0  0  0  0  0  0
  -27.6347  -14.2564   19.4684 H   0  0  0  0  0  0
  -28.7281  -12.1800   21.4343 H   0  0  0  0  0  0
  -28.4039  -13.8514   21.8060 H   0  0  0  0  0  0
  -25.2775   -9.5692   22.4780 H   0  0  0  0  0  0
  -24.0023   -7.4638   22.7468 H   0  0  0  0  0  0
  -21.0860   -8.8820   19.8963 H   0  0  0  0  0  0
  -22.3747  -10.9694   19.6201 H   0  0  0  0  0  0
  -21.2036   -7.6164   23.9753 H   0  0  0  0  0  0
  -21.1464   -6.0509   25.9077 H   0  0  0  0  0  0
  -22.0597   -2.7632   23.2811 H   0  0  0  0  0  0
  -22.4027  -11.9989   22.4844 H   0  0  0  0  0  0
  -21.1053  -13.1341   22.2550 H   0  0  0  0  0  0
  -24.6552  -15.8458   20.5271 H   0  0  0  0  0  0
  -26.2668  -15.6297   20.0679 H   0  0  0  0  0  0
  -26.7243  -32.5383   23.1045 H   0  0  0  0  0  0
  -25.0050  -33.9654   25.0360 H   0  0  0  0  0  0
  -22.7287  -31.3009   21.3941 H   0  0  0  0  0  0
  -23.3759  -35.9606   23.3276 H   0  0  0  0  0  0
  -24.3590  -36.8947   22.2057 H   0  0  0  0  0  0
  -23.7221  -37.6467   23.6687 H   0  0  0  0  0  0
  -26.1311  -31.5088   20.6135 H   0  0  0  0  0  0
  -26.8597  -30.7973   22.0193 H   0  0  0  0  0  0
  -28.1094  -28.8693   21.2369 H   0  0  0  0  0  0
  -25.9298  -25.9223   18.9369 H   0  0  0  0  0  0
  -23.9753  -27.3320   18.9618 H   0  0  0  0  0  0
  -23.7854  -30.5896   19.4010 H   0  0  0  0  0  0
  -22.7702  -29.2494   19.8497 H   0  0  0  0  0  0
  -25.1287  -36.1912   25.0812 H   0  0  0  0  0  0
  -20.9993  -28.3294   24.1369 H   0  0  0  0  0  0
  -20.5665  -26.2310   23.3610 H   0  0  0  0  0  0
  -21.6654  -26.7412   22.1208 H   0  0  0  0  0  0
  -19.6912  -25.6274   21.1253 H   0  0  0  0  0  0
  -19.6702  -27.3168   20.6723 H   0  0  0  0  0  0
  -17.4202  -26.6670   21.4032 H   0  0  0  0  0  0
  -18.0348  -26.0056   22.9014 H   0  0  0  0  0  0
  -19.7955  -30.7283   24.2245 H   0  0  0  0  0  0
  -17.5024  -31.6266   24.5162 H   0  0  0  0  0  0
  -15.5363  -30.2983   23.7637 H   0  0  0  0  0  0
  -15.8685  -28.0803   22.7075 H   0  0  0  0  0  0
  -24.5842  -30.7146   25.7755 H   0  0  0  0  0  0
  -24.8896  -32.2962   26.4823 H   0  0  0  0  0  0
  -25.7964  -30.8956   27.0231 H   0  0  0  0  0  0
  -26.2947  -29.6735   24.1252 H   0  0  0  0  0  0
  -27.3971  -29.7275   25.4805 H   0  0  0  0  0  0
  -27.8849  -30.4264   23.9556 H   0  0  0  0  0  0
  -27.2619  -33.3648   26.2055 H   0  0  0  0  0  0
  -28.3851  -32.6889   25.0344 H   0  0  0  0  0  0
  -28.0675  -31.8479   26.5446 H   0  0  0  0  0  0
  -28.2571  -38.0116   24.7544 H   0  0  0  0  0  0
  -28.1111  -36.2649   24.6232 H   0  0  0  0  0  0
  -27.2315  -37.1395   25.8860 H   0  0  0  0  0  0
  -20.9413  -29.8796   21.6874 H   0  0  0  0  0  0
  -26.0169  -38.2844   24.1417 H   0  0  0  0  0  0
  -30.4251  -19.8849   18.3254 H   0  0  0  0  0  0
  -30.8730  -17.2021   18.4127 H   0  0  0  0  0  0
  -27.0369  -24.5375   20.0710 H   0  0  0  0  0  0
  -28.2170  -24.7231   18.8154 H   0  0  0  0  0  0
  -28.4947  -23.4475   21.6047 H   0  0  0  0  0  0
  -29.0163  -21.0198   21.6568 H   0  0  0  0  0  0
  -28.8932  -15.6897   21.1753 H   0  0  0  0  0  0
  -30.7323  -24.1177   19.8615 H   0  0  0  0  0  0
  -30.8331  -23.3224   21.2769 H   0  0  0  0  0  0
  -30.3504  -24.8812   21.2578 H   0  0  0  0  0  0
  1 25  1  0  0  0
  1 30  2  0  0  0
  1 79  1  0  0  0
  2  3  1  0  0  0
  2 25  1  0  0  0
  2 83  1  0  0  0
  2 84  1  0  0  0
  3  4  1  0  0  0
  3 85  1  0  0  0
  3 86  1  0  0  0
  4  5  1  0  0  0
  4 87  1  0  0  0
  4 88  1  0  0  0
  5  6  1  0  0  0
  5 26  1  0  0  0
  5 89  1  0  0  0
  6 25  1  0  0  0
  6 90  1  0  0  0
  6 91  1  0  0  0
  7  8  2  0  0  0
  7 26  1  0  0  0
  7 29  1  0  0  0
  8  9  1  0  0  0
  8 22  1  0  0  0
  9 10  1  0  0  0
  9 27  2  0  0  0
 10 11  2  0  0  0
 10 15  1  0  0  0
 11 12  1  0  0  0
 11 92  1  0  0  0
 12 13  2  0  0  0
 12 93  1  0  0  0
 13 14  1  0  0  0
 13 31  1  0  0  0
 14 15  2  0  0  0
 14 94  1  0  0  0
 15 95  1  0  0  0
 16 17  2  0  0  0
 16 21  1  0  0  0
 16 31  1  0  0  0
 17 18  1  0  0  0
 17 96  1  0  0  0
 18 19  2  0  0  0
 18 97  1  0  0  0
 19 20  1  0  0  0
 19 24  1  0  0  0
 20 21  2  0  0  0
 20 98  1  0  0  0
 21 23  1  0  0  0
 22 28  1  0  0  0
 22 32  2  0  0  0
 26 27  1  0  0  0
 28 99  1  0  0  0
 28100  1  0  0  0
 29101  1  0  0  0
 29102  1  0  0  0
 33 34  1  0  0  0
 33 66  1  0  0  0
 33 70  2  0  0  0
 34 36  1  0  0  0
 34 59  1  0  0  0
 34103  1  0  0  0
 35 44  2  0  0  0
 35 45  1  0  0  0
 35 68  1  0  0  0
 36 56  1  0  0  0
 36104  1  0  0  0
 37 39  1  0  0  0
 37 47  1  0  0  0
 37 66  1  0  0  0
 37105  1  0  0  0
 38 43  2  0  0  0
 38 46  1  0  0  0
 38 47  1  0  0  0
 39 64  1  0  0  0
 39 67  2  0  0  0
 40 52  1  0  0  0
 40 53  2  0  0  0
 40 58  1  0  0  0
 41106  1  0  0  0
 41107  1  0  0  0
 41108  1  0  0  0
 41 48  1  0  0  0
 42 43  1  0  0  0
 42 66  1  0  0  0
 42109  1  0  0  0
 42110  1  0  0  0
 43 44  1  0  0  0
 44111  1  0  0  0
 45 46  2  0  0  0
 45112  1  0  0  0
 46113  1  0  0  0
 47114  1  0  0  0
 47115  1  0  0  0
 48 56  1  0  0  0
 48 65  1  0  0  0
 48116  1  0  0  0
 49 50  1  0  0  0
 49 53  1  0  0  0
 49 64  1  0  0  0
 49117  1  0  0  0
 50 51  1  0  0  0
 50118  1  0  0  0
 50119  1  0  0  0
 51 52  1  0  0  0
 51120  1  0  0  0
 51121  1  0  0  0
 52122  1  0  0  0
 52123  1  0  0  0
 53 54  1  0  0  0
 54 55  2  0  0  0
 54124  1  0  0  0
 55 57  1  0  0  0
 55125  1  0  0  0
 56 69  2  0  0  0
 57 58  2  0  0  0
 57126  1  0  0  0
 58127  1  0  0  0
 59 60  1  0  0  0
 59 61  1  0  0  0
 59 62  1  0  0  0
 60128  1  0  0  0
 60129  1  0  0  0
 60130  1  0  0  0
 61131  1  0  0  0
 61132  1  0  0  0
 61133  1  0  0  0
 62134  1  0  0  0
 62135  1  0  0  0
 62136  1  0  0  0
 63 65  1  0  0  0
 63137  1  0  0  0
 63138  1  0  0  0
 63139  1  0  0  0
 64140  1  0  0  0
 65141  1  0  0  0
 68 76  1  0  0  0
 71 72  1  0  0  0
 71 73  2  0  0  0
 71142  1  0  0  0
 72 74  2  0  0  0
 72143  1  0  0  0
 73 78  1  0  0  0
 73 82  1  0  0  0
 74 79  1  0  0  0
 74 82  1  0  0  0
 75 77  1  0  0  0
 75 78  1  0  0  0
 75 81  2  0  0  0
 76 77  1  0  0  0
 76144  1  0  0  0
 76145  1  0  0  0
 77 80  1  0  0  0
 77146  1  0  0  0
 78147  1  0  0  0
 79148  1  0  0  0
 80149  1  0  0  0
 80150  1  0  0  0
 80151  1  0  0  0
M  CHG  1  80   1
M  ISO  4   1 100  68 101  76 101  79 100
M  END
> <chiral flag>
0

> <version>
0

> <s_m_source_file>
/data/baiqing/PycharmProjects/Reinvent-master-3.2/result/LINK_invent/BTK/process_docking_weight1_custom_product_contain_oxygen_bond_distance_aromatic_linkinvent_7_9_3/rearranged_h_0156.sdf

> <i_m_source_file_index>
25

> <r_mmod_Potential_Energy-OPLS-2005>
-118.192596435547

> <r_mmod_Stretch_Energy-OPLS-2005>
148.888916015625

> <r_mmod_Bend_Energy-OPLS-2005>
194.082794189453

> <r_mmod_Torsional_Energy-OPLS-2005>
260.855529785156

> <r_mmod_Improper_Torsional_Energy-OPLS-2005>
4.34348154067993

> <r_mmod_Van_der_Waal_Energy-OPLS-2005>
120.983726501465

> <r_mmod_Electrostatic_Energy-OPLS-2005>
-454.988616943359

> <r_mmod_Solvation_Energy-OPLS-2005>
-511.106262207031

> <b_mmod_Minimization_Converged-OPLS-2005>
0

> <r_mmod_RMS_Derivative-OPLS-2005>
3.09453535079956

$$$$
25
                    3D
 Structure written by MMmdl.
155163  0  0  1  0            999 V2000
  -30.6372  -14.7472   20.4620 C   0  0  0  0  0  0
  -30.4276  -12.4523   19.4893 C   0  0  0  0  0  0
  -29.5194  -12.5235   18.2426 C   0  0  0  0  0  0
  -28.0431  -12.3492   18.6446 C   0  0  0  0  0  0
  -27.6451  -13.2419   19.8498 C   0  0  2  0  0  0
  -28.6821  -13.1873   20.9891 C   0  0  0  0  0  0
  -25.2539  -13.8220   20.5696 C   0  0  0  0  0  0
  -24.1829  -13.0467   20.9178 C   0  0  0  0  0  0
  -24.6409  -11.6940   20.8718 C   0  0  0  0  0  0
  -23.9082  -10.4315   21.0386 C   0  0  0  0  0  0
  -24.3641   -9.4232   21.9169 C   0  0  0  0  0  0
  -23.6321   -8.2264   22.0748 C   0  0  0  0  0  0
  -22.4299   -8.0294   21.3542 C   0  0  0  0  0  0
  -21.9929   -9.0255   20.4635 C   0  0  0  0  0  0
  -22.7250  -10.2136   20.3039 C   0  0  0  0  0  0
  -21.6861   -6.0738   22.5276 C   0  0  0  0  0  0
  -21.4010   -6.5639   23.8209 C   0  0  0  0  0  0
  -21.3662   -5.6792   24.9174 C   0  0  0  0  0  0
  -21.6054   -4.3056   24.7221 C   0  0  0  0  0  0
  -21.8822   -3.8150   23.4339 C   0  0  0  0  0  0
  -21.9205   -4.6968   22.3399 C   0  0  0  0  0  0
  -22.7845  -13.5226   21.1841 C   0  0  0  0  0  0
  -22.1676   -4.2156   21.0974 F   0  0  0  0  0  0
  -21.5635   -3.4537   25.7729 F   0  0  0  0  0  0
  -29.9938  -13.5240   20.4222 N   0  0  0  0  0  0
  -26.2973  -12.9436   20.3260 N   0  0  0  0  0  0
  -25.9352  -11.6559   20.5708 N   0  0  0  0  0  0
  -22.0496  -12.8227   22.0393 N   0  0  0  0  0  0
  -25.4279  -15.1949   20.4161 N   0  0  0  0  0  0
  -31.8107  -14.7859   20.0939 O   0  0  0  0  0  0
  -21.6659   -6.8888   21.4236 O   0  0  0  0  0  0
  -22.3522  -14.5528   20.6678 O   0  0  0  0  0  0
  -24.6288  -31.8535   23.1978 C   0  0  0  0  0  0
  -25.9119  -32.4744   23.8323 C   0  0  1  0  0  0
  -27.2190  -27.2680   20.1418 C   0  0  0  0  0  0
  -25.5913  -33.8548   24.2248 N   0  0  0  0  0  0
  -23.4284  -30.4752   21.5393 C   0  0  2  0  0  0
  -24.8798  -28.9250   20.1074 C   0  0  0  0  0  0
  -22.7497  -29.4586   22.4890 C   0  0  0  0  0  0
  -18.0293  -28.1395   22.8471 C   0  0  0  0  0  0
  -24.1497  -36.7302   23.2639 C   0  0  0  0  0  0
  -25.9738  -30.7670   21.3818 C   0  0  0  0  0  0
  -26.0465  -29.3895   20.7298 C   0  0  0  0  0  0
  -27.2211  -28.5704   20.7431 C   0  0  0  0  0  0
  -26.0466  -26.8873   19.4589 C   0  0  0  0  0  0
  -24.8833  -27.6806   19.4599 C   0  0  0  0  0  0
  -23.6473  -29.8066   20.1563 C   0  0  0  0  0  0
  -25.4120  -36.3068   24.0322 C   0  0  1  0  0  0
  -20.5899  -28.3695   23.1258 C   0  0  2  0  0  0
  -20.6782  -26.9410   22.5403 C   0  0  0  0  0  0
  -19.5754  -26.6381   21.5215 C   0  0  0  0  0  0
  -18.1931  -26.7932   22.1623 C   0  0  0  0  0  0
  -19.1548  -28.8861   23.2861 C   0  0  0  0  0  0
  -18.9471  -30.1458   23.8876 C   0  0  0  0  0  0
  -17.6468  -30.6585   24.0558 C   0  0  0  0  0  0
  -25.9047  -34.9429   23.5087 C   0  0  0  0  0  0
  -16.5359  -29.9080   23.6335 C   0  0  0  0  0  0
  -16.7281  -28.6505   23.0346 C   0  0  0  0  0  0
  -26.4486  -31.6563   25.0707 C   0  0  0  0  0  0
  -25.3709  -31.3716   26.1430 C   0  0  0  0  0  0
  -27.0336  -30.2970   24.6208 C   0  0  0  0  0  0
  -27.6023  -32.4317   25.7487 C   0  0  0  0  0  0
  -27.5585  -37.1810   24.8460 C   0  0  0  0  0  0
  -21.4202  -29.3044   22.3649 N   0  0  0  0  0  0
  -26.4305  -37.3758   23.9391 N   0  0  0  0  0  0
  -24.6966  -31.0508   22.0955 N   0  0  0  0  0  0
  -23.4197  -28.8127   23.2998 O   0  0  0  0  0  0
  -28.2857  -26.3421   20.1558 O   0  0  0  0  0  0
  -26.5632  -34.8905   22.4665 O   0  0  0  0  0  0
  -23.5441  -32.1368   23.7268 O   0  0  0  0  0  0
  -28.6040  -19.9648   20.0008 C   0  0  0  0  0  0
  -30.1523  -20.8175   21.3663 C   0  0  0  0  0  0
  -29.0779  -21.2046   20.5963 C   0  0  0  0  0  0
  -29.4279  -18.9298   20.4442 C   0  0  0  0  0  0
  -29.0715  -23.8215   20.6373 C   0  0  0  0  0  0
  -28.9109  -25.7043   22.3274 C   0  0  0  0  0  0
  -26.7899  -24.7041   21.4631 C   0  0  0  0  0  0
  -31.2268  -17.4694   18.9710 C   0  0  0  0  0  0
  -28.2228  -25.1376   21.0638 C   0  0  0  0  0  0
  -29.9240  -15.9459   20.8206 N   0  0  0  0  0  0
  -28.4954  -22.5686   20.4856 N   0  0  0  0  0  0
  -30.2904  -23.9448   20.4895 O   0  0  0  0  0  0
  -30.3790  -19.4459   21.2835 O   0  0  0  0  0  0
  -29.5314  -17.1449   19.6617 S   0  0  1  0  0  0
  -31.4736  -12.5453   19.1927 H   0  0  0  0  0  0
  -30.3461  -11.4739   19.9647 H   0  0  0  0  0  0
  -29.8072  -11.7598   17.5187 H   0  0  0  0  0  0
  -29.6578  -13.4841   17.7433 H   0  0  0  0  0  0
  -27.8935  -11.2981   18.8936 H   0  0  0  0  0  0
  -27.3932  -12.5567   17.7929 H   0  0  0  0  0  0
  -27.6401  -14.2658   19.4744 H   0  0  0  0  0  0
  -28.7076  -12.1975   21.4463 H   0  0  0  0  0  0
  -28.4126  -13.8858   21.7838 H   0  0  0  0  0  0
  -25.2791   -9.5710   22.4737 H   0  0  0  0  0  0
  -24.0043   -7.4652   22.7461 H   0  0  0  0  0  0
  -21.0873   -8.8756   19.8937 H   0  0  0  0  0  0
  -22.3707  -10.9670   19.6146 H   0  0  0  0  0  0
  -21.1978   -7.6143   23.9704 H   0  0  0  0  0  0
  -21.1489   -6.0522   25.9071 H   0  0  0  0  0  0
  -22.0598   -2.7612   23.2834 H   0  0  0  0  0  0
  -22.4139  -11.9925   22.4843 H   0  0  0  0  0  0
  -21.1069  -13.1193   22.2504 H   0  0  0  0  0  0
  -24.6740  -15.8607   20.5388 H   0  0  0  0  0  0
  -26.2990  -15.6311   20.1384 H   0  0  0  0  0  0
  -26.7171  -32.5388   23.1057 H   0  0  0  0  0  0
  -25.0047  -33.9679   25.0385 H   0  0  0  0  0  0
  -22.7251  -31.2976   21.3896 H   0  0  0  0  0  0
  -23.3739  -35.9660   23.3307 H   0  0  0  0  0  0
  -24.3595  -36.8930   22.2057 H   0  0  0  0  0  0
  -23.7291  -37.6519   23.6663 H   0  0  0  0  0  0
  -26.1138  -31.5221   20.6088 H   0  0  0  0  0  0
  -26.8506  -30.8162   22.0146 H   0  0  0  0  0  0
  -28.1118  -28.9149   21.2494 H   0  0  0  0  0  0
  -26.0188  -25.9373   18.9473 H   0  0  0  0  0  0
  -23.9963  -27.3236   18.9548 H   0  0  0  0  0  0
  -23.7639  -30.5793   19.3962 H   0  0  0  0  0  0
  -22.7681  -29.2331   19.8556 H   0  0  0  0  0  0
  -25.1313  -36.1907   25.0820 H   0  0  0  0  0  0
  -20.9988  -28.3270   24.1384 H   0  0  0  0  0  0
  -20.5692  -26.2294   23.3614 H   0  0  0  0  0  0
  -21.6642  -26.7435   22.1191 H   0  0  0  0  0  0
  -19.6909  -25.6292   21.1243 H   0  0  0  0  0  0
  -19.6697  -27.3185   20.6744 H   0  0  0  0  0  0
  -17.4207  -26.6676   21.4023 H   0  0  0  0  0  0
  -18.0318  -26.0092   22.9031 H   0  0  0  0  0  0
  -19.7946  -30.7287   24.2223 H   0  0  0  0  0  0
  -17.5021  -31.6265   24.5168 H   0  0  0  0  0  0
  -15.5348  -30.2979   23.7682 H   0  0  0  0  0  0
  -15.8680  -28.0829   22.7061 H   0  0  0  0  0  0
  -24.5877  -30.7077   25.7751 H   0  0  0  0  0  0
  -24.8914  -32.2891   26.4843 H   0  0  0  0  0  0
  -25.8024  -30.8887   27.0211 H   0  0  0  0  0  0
  -26.2920  -29.6708   24.1231 H   0  0  0  0  0  0
  -27.4006  -29.7234   25.4735 H   0  0  0  0  0  0
  -27.8806  -30.4237   23.9465 H   0  0  0  0  0  0
  -27.2606  -33.3618   26.2049 H   0  0  0  0  0  0
  -28.3841  -32.6891   25.0323 H   0  0  0  0  0  0
  -28.0690  -31.8463   26.5430 H   0  0  0  0  0  0
  -28.2590  -38.0112   24.7477 H   0  0  0  0  0  0
  -28.1091  -36.2636   24.6314 H   0  0  0  0  0  0
  -27.2294  -37.1493   25.8862 H   0  0  0  0  0  0
  -20.9376  -29.8779   21.6872 H   0  0  0  0  0  0
  -26.0177  -38.2837   24.1361 H   0  0  0  0  0  0
  -27.7878  -19.8492   19.2994 H   0  0  0  0  0  0
  -30.8319  -21.3546   22.0152 H   0  0  0  0  0  0
  -29.0208  -24.9491   23.1045 H   0  0  0  0  0  0
  -28.3497  -26.5369   22.7560 H   0  0  0  0  0  0
  -29.9089  -26.0800   22.0973 H   0  0  0  0  0  0
  -26.8114  -23.8808   22.1798 H   0  0  0  0  0  0
  -26.2064  -24.3742   20.6067 H   0  0  0  0  0  0
  -26.2441  -25.5093   21.9547 H   0  0  0  0  0  0
  -31.5088  -16.7179   18.2353 H   0  0  0  0  0  0
  -31.9727  -17.4874   19.7656 H   0  0  0  0  0  0
  -31.2486  -18.4407   18.4764 H   0  0  0  0  0  0
  -27.4934  -22.5992   20.3535 H   0  0  0  0  0  0
  1 25  1  0  0  0
  1 30  2  0  0  0
  1 80  1  0  0  0
  2  3  1  0  0  0
  2 25  1  0  0  0
  2 85  1  0  0  0
  2 86  1  0  0  0
  3  4  1  0  0  0
  3 87  1  0  0  0
  3 88  1  0  0  0
  4  5  1  0  0  0
  4 89  1  0  0  0
  4 90  1  0  0  0
  5  6  1  0  0  0
  5 26  1  0  0  0
  5 91  1  0  0  0
  6 25  1  0  0  0
  6 92  1  0  0  0
  6 93  1  0  0  0
  7  8  2  0  0  0
  7 26  1  0  0  0
  7 29  1  0  0  0
  8  9  1  0  0  0
  8 22  1  0  0  0
  9 10  1  0  0  0
  9 27  2  0  0  0
 10 11  2  0  0  0
 10 15  1  0  0  0
 11 12  1  0  0  0
 11 94  1  0  0  0
 12 13  2  0  0  0
 12 95  1  0  0  0
 13 14  1  0  0  0
 13 31  1  0  0  0
 14 15  2  0  0  0
 14 96  1  0  0  0
 15 97  1  0  0  0
 16 17  2  0  0  0
 16 21  1  0  0  0
 16 31  1  0  0  0
 17 18  1  0  0  0
 17 98  1  0  0  0
 18 19  2  0  0  0
 18 99  1  0  0  0
 19 20  1  0  0  0
 19 24  1  0  0  0
 20 21  2  0  0  0
 20100  1  0  0  0
 21 23  1  0  0  0
 22 28  1  0  0  0
 22 32  2  0  0  0
 26 27  1  0  0  0
 28101  1  0  0  0
 28102  1  0  0  0
 29103  1  0  0  0
 29104  1  0  0  0
 33 34  1  0  0  0
 33 66  1  0  0  0
 33 70  2  0  0  0
 34 36  1  0  0  0
 34 59  1  0  0  0
 34105  1  0  0  0
 35 44  2  0  0  0
 35 45  1  0  0  0
 35 68  1  0  0  0
 36 56  1  0  0  0
 36106  1  0  0  0
 37 39  1  0  0  0
 37 47  1  0  0  0
 37 66  1  0  0  0
 37107  1  0  0  0
 38 43  2  0  0  0
 38 46  1  0  0  0
 38 47  1  0  0  0
 39 64  1  0  0  0
 39 67  2  0  0  0
 40 52  1  0  0  0
 40 53  2  0  0  0
 40 58  1  0  0  0
 41108  1  0  0  0
 41109  1  0  0  0
 41110  1  0  0  0
 41 48  1  0  0  0
 42 43  1  0  0  0
 42 66  1  0  0  0
 42111  1  0  0  0
 42112  1  0  0  0
 43 44  1  0  0  0
 44113  1  0  0  0
 45 46  2  0  0  0
 45114  1  0  0  0
 46115  1  0  0  0
 47116  1  0  0  0
 47117  1  0  0  0
 48 56  1  0  0  0
 48 65  1  0  0  0
 48118  1  0  0  0
 49 50  1  0  0  0
 49 53  1  0  0  0
 49 64  1  0  0  0
 49119  1  0  0  0
 50 51  1  0  0  0
 50120  1  0  0  0
 50121  1  0  0  0
 51 52  1  0  0  0
 51122  1  0  0  0
 51123  1  0  0  0
 52124  1  0  0  0
 52125  1  0  0  0
 53 54  1  0  0  0
 54 55  2  0  0  0
 54126  1  0  0  0
 55 57  1  0  0  0
 55127  1  0  0  0
 56 69  2  0  0  0
 57 58  2  0  0  0
 57128  1  0  0  0
 58129  1  0  0  0
 59 60  1  0  0  0
 59 61  1  0  0  0
 59 62  1  0  0  0
 60130  1  0  0  0
 60131  1  0  0  0
 60132  1  0  0  0
 61133  1  0  0  0
 61134  1  0  0  0
 61135  1  0  0  0
 62136  1  0  0  0
 62137  1  0  0  0
 62138  1  0  0  0
 63 65  1  0  0  0
 63139  1  0  0  0
 63140  1  0  0  0
 63141  1  0  0  0
 64142  1  0  0  0
 65143  1  0  0  0
 68 79  1  0  0  0
 71 73  1  0  0  0
 71 74  2  0  0  0
 71144  1  0  0  0
 72 73  2  0  0  0
 72 83  1  0  0  0
 72145  1  0  0  0
 73 81  1  0  0  0
 74 83  1  0  0  0
 74 84  1  0  0  0
 75 79  1  0  0  0
 75 81  1  0  0  0
 75 82  2  0  0  0
 76146  1  0  0  0
 76147  1  0  0  0
 76148  1  0  0  0
 76 79  1  0  0  0
 77 79  1  0  0  0
 77149  1  0  0  0
 77150  1  0  0  0
 77151  1  0  0  0
 78 84  1  0  0  0
 78152  1  0  0  0
 78153  1  0  0  0
 78154  1  0  0  0
 80 84  2  0  0  0
 81155  1  0  0  0
M  ISO  4   1 100  68 101  79 101  80 100
M  END
> <chiral flag>
0

> <version>
0

> <s_m_source_file>
/data/baiqing/PycharmProjects/Reinvent-master-3.2/result/LINK_invent/BTK/process_docking_weight1_custom_product_contain_oxygen_bond_distance_aromatic_linkinvent_7_9_3/rearranged_h_0156.sdf

> <i_m_source_file_index>
26

> <r_mmod_Potential_Energy-OPLS-2005>
248.443054199219

> <r_mmod_Stretch_Energy-OPLS-2005>
126.215179443359

> <r_mmod_Bend_Energy-OPLS-2005>
209.902160644531

> <r_mmod_Torsional_Energy-OPLS-2005>
256.067108154297

> <r_mmod_Improper_Torsional_Energy-OPLS-2005>
5.71239519119263

> <r_mmod_Van_der_Waal_Energy-OPLS-2005>
118.742233276367

> <r_mmod_Electrostatic_Energy-OPLS-2005>
-351.005187988281

> <r_mmod_Solvation_Energy-OPLS-2005>
-202.075531005859

> <b_mmod_Minimization_Converged-OPLS-2005>
0

> <r_mmod_RMS_Derivative-OPLS-2005>
2.68615555763245

$$$$
26
                    3D
 Structure written by MMmdl.
164173  0  0  1  0            999 V2000
  -30.6470  -14.5884   20.5100 C   0  0  0  0  0  0
  -30.4273  -12.3607   19.4398 C   0  0  0  0  0  0
  -29.5017  -12.4930   18.2117 C   0  0  0  0  0  0
  -28.0247  -12.3399   18.6267 C   0  0  0  0  0  0
  -27.6520  -13.2112   19.8561 C   0  0  2  0  0  0
  -28.6937  -13.0595   20.9863 C   0  0  0  0  0  0
  -25.2575  -13.8160   20.5674 C   0  0  0  0  0  0
  -24.1847  -13.0432   20.9205 C   0  0  0  0  0  0
  -24.6408  -11.6904   20.8736 C   0  0  0  0  0  0
  -23.9081  -10.4292   21.0410 C   0  0  0  0  0  0
  -24.3630   -9.4205   21.9187 C   0  0  0  0  0  0
  -23.6305   -8.2241   22.0751 C   0  0  0  0  0  0
  -22.4279   -8.0288   21.3547 C   0  0  0  0  0  0
  -21.9923   -9.0262   20.4642 C   0  0  0  0  0  0
  -22.7259  -10.2138   20.3051 C   0  0  0  0  0  0
  -21.6855   -6.0749   22.5297 C   0  0  0  0  0  0
  -21.4006   -6.5646   23.8232 C   0  0  0  0  0  0
  -21.3652   -5.6790   24.9186 C   0  0  0  0  0  0
  -21.6043   -4.3055   24.7233 C   0  0  0  0  0  0
  -21.8819   -3.8154   23.4351 C   0  0  0  0  0  0
  -21.9194   -4.6976   22.3409 C   0  0  0  0  0  0
  -22.7877  -13.5235   21.1872 C   0  0  0  0  0  0
  -22.1667   -4.2164   21.0986 F   0  0  0  0  0  0
  -21.5627   -3.4536   25.7745 F   0  0  0  0  0  0
  -30.0097  -13.3825   20.4203 N   0  0  0  0  0  0
  -26.2984  -12.9334   20.3267 N   0  0  0  0  0  0
  -25.9323  -11.6496   20.5720 N   0  0  0  0  0  0
  -22.0487  -12.8218   22.0393 N   0  0  0  0  0  0
  -25.4279  -15.1888   20.4079 N   0  0  0  0  0  0
  -31.8140  -14.7131   20.1286 O   0  0  0  0  0  0
  -21.6632   -6.8892   21.4256 O   0  0  0  0  0  0
  -22.3587  -14.5555   20.6737 O   0  0  0  0  0  0
  -24.6232  -31.8609   23.1977 C   0  0  0  0  0  0
  -25.9081  -32.4788   23.8317 C   0  0  1  0  0  0
  -27.2330  -27.3530   20.1138 C   0  0  0  0  0  0
  -25.5893  -33.8584   24.2264 N   0  0  0  0  0  0
  -23.4141  -30.4788   21.5408 C   0  0  2  0  0  0
  -24.8581  -28.9240   20.1068 C   0  0  0  0  0  0
  -22.7456  -29.4628   22.4956 C   0  0  0  0  0  0
  -18.0279  -28.1420   22.8499 C   0  0  0  0  0  0
  -24.1464  -36.7277   23.2644 C   0  0  0  0  0  0
  -25.9458  -30.8037   21.3545 C   0  0  0  0  0  0
  -26.0169  -29.4265   20.7089 C   0  0  0  0  0  0
  -27.2011  -28.6482   20.7032 C   0  0  0  0  0  0
  -26.0613  -26.8806   19.4925 C   0  0  0  0  0  0
  -24.8804  -27.6557   19.4914 C   0  0  0  0  0  0
  -23.6232  -29.7995   20.1576 C   0  0  0  0  0  0
  -25.4105  -36.3094   24.0336 C   0  0  1  0  0  0
  -20.5878  -28.3709   23.1309 C   0  0  2  0  0  0
  -20.6747  -26.9437   22.5424 C   0  0  0  0  0  0
  -19.5732  -26.6416   21.5221 C   0  0  0  0  0  0
  -18.1910  -26.7973   22.1628 C   0  0  0  0  0  0
  -19.1533  -28.8886   23.2903 C   0  0  0  0  0  0
  -18.9464  -30.1487   23.8930 C   0  0  0  0  0  0
  -17.6461  -30.6618   24.0587 C   0  0  0  0  0  0
  -25.9053  -34.9463   23.5114 C   0  0  0  0  0  0
  -16.5353  -29.9131   23.6324 C   0  0  0  0  0  0
  -16.7272  -28.6547   23.0356 C   0  0  0  0  0  0
  -26.4471  -31.6600   25.0678 C   0  0  0  0  0  0
  -25.3721  -31.3707   26.1416 C   0  0  0  0  0  0
  -27.0320  -30.3045   24.6074 C   0  0  0  0  0  0
  -27.6061  -32.4305   25.7440 C   0  0  0  0  0  0
  -27.5572  -37.1811   24.8480 C   0  0  0  0  0  0
  -21.4179  -29.3051   22.3698 N   0  0  0  0  0  0
  -26.4281  -37.3796   23.9426 N   0  0  0  0  0  0
  -24.6809  -31.0653   22.0887 N   0  0  0  0  0  0
  -23.4202  -28.8175   23.3025 O   0  0  0  0  0  0
  -28.4143  -26.6237   20.1864 O   0  0  0  0  0  0
  -26.5640  -34.8939   22.4688 O   0  0  0  0  0  0
  -23.5406  -32.1387   23.7339 O   0  0  0  0  0  0
  -30.7588  -19.8955   21.0909 C   0  0  0  0  0  0
  -31.5064  -17.5682   20.9134 C   0  0  0  0  0  0
  -29.1298  -18.0879   20.9607 C   0  0  0  0  0  0
  -31.7985  -18.9440   21.0244 C   0  0  0  0  0  0
  -29.4059  -19.4973   21.0723 C   0  0  0  0  0  0
  -30.1707  -17.0966   20.8797 C   0  0  0  0  0  0
  -28.2575  -24.1289   20.3434 C   0  0  0  0  0  0
  -28.6436  -25.3085   19.7663 C   0  0  0  0  0  0
  -33.1912  -19.3851   21.1248 C   0  0  0  0  0  0
  -27.1938  -23.8942   21.3717 C   0  0  0  0  0  0
  -28.8932  -22.7410   20.1064 C   0  0  0  0  0  0
  -26.7326  -22.4509   21.0539 C   0  0  0  0  0  0
  -28.3160  -20.5571   21.4400 C   0  0  0  0  0  0
  -33.5483  -20.3062   22.0181 N   0  0  0  0  0  0
  -29.8667  -15.6662   20.8422 N   0  0  0  0  0  0
  -34.1195  -18.8725   20.3206 N   0  3  0  0  0  0
  -27.8996  -21.6901   20.5137 N   0  3  2  0  0  0
  -31.4711  -12.4677   19.1393 H   0  0  0  0  0  0
  -30.3455  -11.3625   19.8738 H   0  0  0  0  0  0
  -29.7569  -11.7419   17.4626 H   0  0  0  0  0  0
  -29.6562  -13.4625   17.7342 H   0  0  0  0  0  0
  -27.8595  -11.2869   18.8593 H   0  0  0  0  0  0
  -27.3716  -12.5700   17.7848 H   0  0  0  0  0  0
  -27.6731  -14.2460   19.5141 H   0  0  0  0  0  0
  -28.6963  -12.0385   21.3714 H   0  0  0  0  0  0
  -28.4497  -13.6977   21.8360 H   0  0  0  0  0  0
  -25.2775   -9.5689   22.4761 H   0  0  0  0  0  0
  -24.0029   -7.4629   22.7458 H   0  0  0  0  0  0
  -21.0860   -8.8786   19.8938 H   0  0  0  0  0  0
  -22.3733  -10.9679   19.6154 H   0  0  0  0  0  0
  -21.1985   -7.6152   23.9749 H   0  0  0  0  0  0
  -21.1469   -6.0508   25.9095 H   0  0  0  0  0  0
  -22.0597   -2.7618   23.2848 H   0  0  0  0  0  0
  -22.4056  -11.9853   22.4771 H   0  0  0  0  0  0
  -21.1093  -13.1251   22.2548 H   0  0  0  0  0  0
  -24.6486  -15.8308   20.5004 H   0  0  0  0  0  0
  -26.2523  -15.6228   20.0150 H   0  0  0  0  0  0
  -26.7160  -32.5484   23.1082 H   0  0  0  0  0  0
  -25.0021  -33.9710   25.0400 H   0  0  0  0  0  0
  -22.7072  -31.2976   21.3949 H   0  0  0  0  0  0
  -23.3742  -35.9592   23.3321 H   0  0  0  0  0  0
  -24.3552  -36.8875   22.2054 H   0  0  0  0  0  0
  -23.7185  -37.6475   23.6643 H   0  0  0  0  0  0
  -26.0605  -31.5612   20.5762 H   0  0  0  0  0  0
  -26.8339  -30.8658   21.9708 H   0  0  0  0  0  0
  -28.0994  -29.0296   21.1664 H   0  0  0  0  0  0
  -26.0526  -25.9058   19.0241 H   0  0  0  0  0  0
  -23.9900  -27.2679   19.0173 H   0  0  0  0  0  0
  -23.7342  -30.5692   19.3948 H   0  0  0  0  0  0
  -22.7435  -29.2220   19.8646 H   0  0  0  0  0  0
  -25.1275  -36.1946   25.0827 H   0  0  0  0  0  0
  -20.9990  -28.3286   24.1422 H   0  0  0  0  0  0
  -20.5635  -26.2329   23.3622 H   0  0  0  0  0  0
  -21.6628  -26.7455   22.1235 H   0  0  0  0  0  0
  -19.6871  -25.6332   21.1238 H   0  0  0  0  0  0
  -19.6650  -27.3229   20.6755 H   0  0  0  0  0  0
  -17.4175  -26.6746   21.4028 H   0  0  0  0  0  0
  -18.0290  -26.0115   22.9016 H   0  0  0  0  0  0
  -19.7940  -30.7302   24.2301 H   0  0  0  0  0  0
  -17.5016  -31.6292   24.5196 H   0  0  0  0  0  0
  -15.5361  -30.3038   23.7641 H   0  0  0  0  0  0
  -15.8668  -28.0873   22.7065 H   0  0  0  0  0  0
  -24.5919  -30.7018   25.7746 H   0  0  0  0  0  0
  -24.8884  -32.2864   26.4842 H   0  0  0  0  0  0
  -25.8072  -30.8905   27.0191 H   0  0  0  0  0  0
  -26.2871  -29.6790   24.1140 H   0  0  0  0  0  0
  -27.4106  -29.7297   25.4535 H   0  0  0  0  0  0
  -27.8678  -30.4373   23.9204 H   0  0  0  0  0  0
  -27.2715  -33.3629   26.2002 H   0  0  0  0  0  0
  -28.3877  -32.6822   25.0257 H   0  0  0  0  0  0
  -28.0702  -31.8425   26.5365 H   0  0  0  0  0  0
  -28.2633  -38.0073   24.7538 H   0  0  0  0  0  0
  -28.1021  -36.2616   24.6286 H   0  0  0  0  0  0
  -27.2307  -37.1464   25.8890 H   0  0  0  0  0  0
  -20.9348  -29.8772   21.6910 H   0  0  0  0  0  0
  -26.0157  -38.2868   24.1436 H   0  0  0  0  0  0
  -31.0131  -20.9361   21.2273 H   0  0  0  0  0  0
  -32.3404  -16.8816   20.9105 H   0  0  0  0  0  0
  -28.1016  -17.7567   20.9989 H   0  0  0  0  0  0
  -29.4533  -25.3070   19.0492 H   0  0  0  0  0  0
  -26.3824  -24.6205   21.3201 H   0  0  0  0  0  0
  -27.6488  -23.9443   22.3614 H   0  0  0  0  0  0
  -29.7723  -22.6869   20.7456 H   0  0  0  0  0  0
  -29.2188  -22.6193   19.0728 H   0  0  0  0  0  0
  -25.9743  -22.4812   20.2699 H   0  0  0  0  0  0
  -26.2616  -21.9757   21.9161 H   0  0  0  0  0  0
  -28.6104  -20.9972   22.3943 H   0  0  0  0  0  0
  -27.4142  -19.9845   21.6635 H   0  0  0  0  0  0
  -32.8741  -20.6216   22.7010 H   0  0  0  0  0  0
  -34.4830  -20.6796   22.0773 H   0  0  0  0  0  0
  -28.9095  -15.4211   21.0393 H   0  0  0  0  0  0
  -33.8421  -18.1965   19.6242 H   0  0  0  0  0  0
  -35.0897  -19.1396   20.3686 H   0  0  0  0  0  0
  -27.5742  -21.2443   19.6691 H   0  0  0  0  0  0
  1 25  1  0  0  0
  1 30  2  0  0  0
  1 85  1  0  0  0
  2  3  1  0  0  0
  2 25  1  0  0  0
  2 88  1  0  0  0
  2 89  1  0  0  0
  3  4  1  0  0  0
  3 90  1  0  0  0
  3 91  1  0  0  0
  4  5  1  0  0  0
  4 92  1  0  0  0
  4 93  1  0  0  0
  5  6  1  0  0  0
  5 26  1  0  0  0
  5 94  1  0  0  0
  6 25  1  0  0  0
  6 95  1  0  0  0
  6 96  1  0  0  0
  7  8  2  0  0  0
  7 26  1  0  0  0
  7 29  1  0  0  0
  8  9  1  0  0  0
  8 22  1  0  0  0
  9 10  1  0  0  0
  9 27  2  0  0  0
 10 11  2  0  0  0
 10 15  1  0  0  0
 11 12  1  0  0  0
 11 97  1  0  0  0
 12 13  2  0  0  0
 12 98  1  0  0  0
 13 14  1  0  0  0
 13 31  1  0  0  0
 14 15  2  0  0  0
 14 99  1  0  0  0
 15100  1  0  0  0
 16 17  2  0  0  0
 16 21  1  0  0  0
 16 31  1  0  0  0
 17 18  1  0  0  0
 17101  1  0  0  0
 18 19  2  0  0  0
 18102  1  0  0  0
 19 20  1  0  0  0
 19 24  1  0  0  0
 20 21  2  0  0  0
 20103  1  0  0  0
 21 23  1  0  0  0
 22 28  1  0  0  0
 22 32  2  0  0  0
 26 27  1  0  0  0
 28104  1  0  0  0
 28105  1  0  0  0
 29106  1  0  0  0
 29107  1  0  0  0
 33 34  1  0  0  0
 33 66  1  0  0  0
 33 70  2  0  0  0
 34 36  1  0  0  0
 34 59  1  0  0  0
 34108  1  0  0  0
 35 44  2  0  0  0
 35 45  1  0  0  0
 35 68  1  0  0  0
 36 56  1  0  0  0
 36109  1  0  0  0
 37 39  1  0  0  0
 37 47  1  0  0  0
 37 66  1  0  0  0
 37110  1  0  0  0
 38 43  2  0  0  0
 38 46  1  0  0  0
 38 47  1  0  0  0
 39 64  1  0  0  0
 39 67  2  0  0  0
 40 52  1  0  0  0
 40 53  2  0  0  0
 40 58  1  0  0  0
 41111  1  0  0  0
 41112  1  0  0  0
 41113  1  0  0  0
 41 48  1  0  0  0
 42 43  1  0  0  0
 42 66  1  0  0  0
 42114  1  0  0  0
 42115  1  0  0  0
 43 44  1  0  0  0
 44116  1  0  0  0
 45 46  2  0  0  0
 45117  1  0  0  0
 46118  1  0  0  0
 47119  1  0  0  0
 47120  1  0  0  0
 48 56  1  0  0  0
 48 65  1  0  0  0
 48121  1  0  0  0
 49 50  1  0  0  0
 49 53  1  0  0  0
 49 64  1  0  0  0
 49122  1  0  0  0
 50 51  1  0  0  0
 50123  1  0  0  0
 50124  1  0  0  0
 51 52  1  0  0  0
 51125  1  0  0  0
 51126  1  0  0  0
 52127  1  0  0  0
 52128  1  0  0  0
 53 54  1  0  0  0
 54 55  2  0  0  0
 54129  1  0  0  0
 55 57  1  0  0  0
 55130  1  0  0  0
 56 69  2  0  0  0
 57 58  2  0  0  0
 57131  1  0  0  0
 58132  1  0  0  0
 59 60  1  0  0  0
 59 61  1  0  0  0
 59 62  1  0  0  0
 60133  1  0  0  0
 60134  1  0  0  0
 60135  1  0  0  0
 61136  1  0  0  0
 61137  1  0  0  0
 61138  1  0  0  0
 62139  1  0  0  0
 62140  1  0  0  0
 62141  1  0  0  0
 63 65  1  0  0  0
 63142  1  0  0  0
 63143  1  0  0  0
 63144  1  0  0  0
 64145  1  0  0  0
 65146  1  0  0  0
 68 78  1  0  0  0
 71 74  2  0  0  0
 71 75  1  0  0  0
 71147  1  0  0  0
 72 74  1  0  0  0
 72 76  2  0  0  0
 72148  1  0  0  0
 73 75  2  0  0  0
 73 76  1  0  0  0
 73149  1  0  0  0
 74 79  1  0  0  0
 75 83  1  0  0  0
 76 85  1  0  0  0
 77 78  2  0  0  0
 77 80  1  0  0  0
 77 81  1  0  0  0
 78150  1  0  0  0
 79 84  1  0  0  0
 79 86  2  0  0  0
 80 82  1  0  0  0
 80151  1  0  0  0
 80152  1  0  0  0
 81 87  1  0  0  0
 81153  1  0  0  0
 81154  1  0  0  0
 82 87  1  0  0  0
 82155  1  0  0  0
 82156  1  0  0  0
 83157  1  0  0  0
 83158  1  0  0  0
 83 87  1  0  0  0
 84159  1  0  0  0
 84160  1  0  0  0
 85161  1  0  0  0
 86162  1  0  0  0
 86163  1  0  0  0
 87164  1  0  0  0
M  CHG  2  86   1  87   1
M  ISO  4   1 100  68 101  78 101  85 100
M  END
> <chiral flag>
0

> <version>
0

> <s_m_source_file>
/data/baiqing/PycharmProjects/Reinvent-master-3.2/result/LINK_invent/BTK/process_docking_weight1_custom_product_contain_oxygen_bond_distance_aromatic_linkinvent_7_9_3/rearranged_h_0156.sdf

> <i_m_source_file_index>
27

> <r_mmod_Potential_Energy-OPLS-2005>
-346.024017333984

> <r_mmod_Stretch_Energy-OPLS-2005>
66.71337890625

> <r_mmod_Bend_Energy-OPLS-2005>
185.363662719727

> <r_mmod_Torsional_Energy-OPLS-2005>
260.324615478516

> <r_mmod_Improper_Torsional_Energy-OPLS-2005>
7.27534294128418

> <r_mmod_Van_der_Waal_Energy-OPLS-2005>
140.8154296875

> <r_mmod_Electrostatic_Energy-OPLS-2005>
-134.85221862793

> <r_mmod_Solvation_Energy-OPLS-2005>
-904.824584960938

> <b_mmod_Minimization_Converged-OPLS-2005>
0

> <r_mmod_RMS_Derivative-OPLS-2005>
2.61632251739502

$$$$
27
                    3D
 Structure written by MMmdl.
157166  0  0  1  0            999 V2000
  -30.5742  -14.8919   20.3096 C   0  0  0  0  0  0
  -30.4509  -12.5137   19.4745 C   0  0  0  0  0  0
  -29.5065  -12.3452   18.2562 C   0  0  0  0  0  0
  -28.0270  -12.2627   18.6776 C   0  0  0  0  0  0
  -27.6292  -13.2274   19.8286 C   0  0  2  0  0  0
  -28.6927  -13.2746   20.9439 C   0  0  0  0  0  0
  -25.2506  -13.8196   20.5756 C   0  0  0  0  0  0
  -24.1786  -13.0450   20.9249 C   0  0  0  0  0  0
  -24.6371  -11.6927   20.8810 C   0  0  0  0  0  0
  -23.9060  -10.4301   21.0441 C   0  0  0  0  0  0
  -24.3616   -9.4210   21.9204 C   0  0  0  0  0  0
  -23.6295   -8.2244   22.0758 C   0  0  0  0  0  0
  -22.4278   -8.0287   21.3551 C   0  0  0  0  0  0
  -21.9918   -9.0264   20.4655 C   0  0  0  0  0  0
  -22.7244  -10.2145   20.3075 C   0  0  0  0  0  0
  -21.6856   -6.0741   22.5280 C   0  0  0  0  0  0
  -21.4016   -6.5645   23.8214 C   0  0  0  0  0  0
  -21.3659   -5.6799   24.9176 C   0  0  0  0  0  0
  -21.6043   -4.3061   24.7229 C   0  0  0  0  0  0
  -21.8821   -3.8154   23.4350 C   0  0  0  0  0  0
  -21.9191   -4.6968   22.3405 C   0  0  0  0  0  0
  -22.7805  -13.5227   21.1883 C   0  0  0  0  0  0
  -22.1656   -4.2154   21.0983 F   0  0  0  0  0  0
  -21.5632   -3.4546   25.7743 F   0  0  0  0  0  0
  -29.9618  -13.6431   20.3027 N   0  0  0  0  0  0
  -26.2916  -12.9386   20.3339 N   0  0  0  0  0  0
  -25.9306  -11.6545   20.5882 N   0  0  0  0  0  0
  -22.0451  -12.8212   22.0432 N   0  0  0  0  0  0
  -25.4227  -15.1914   20.4159 N   0  0  0  0  0  0
  -31.8091  -14.9265   20.2999 O   0  0  0  0  0  0
  -21.6644   -6.8882   21.4241 O   0  0  0  0  0  0
  -22.3488  -14.5526   20.6719 O   0  0  0  0  0  0
  -24.6366  -31.8508   23.1928 C   0  0  0  0  0  0
  -25.9170  -32.4731   23.8294 C   0  0  1  0  0  0
  -27.2263  -27.2116   20.1315 C   0  0  0  0  0  0
  -25.5946  -33.8535   24.2226 N   0  0  0  0  0  0
  -23.4361  -30.4718   21.5368 C   0  0  2  0  0  0
  -24.8852  -28.9096   20.1073 C   0  0  0  0  0  0
  -22.7528  -29.4587   22.4882 C   0  0  0  0  0  0
  -18.0298  -28.1390   22.8486 C   0  0  0  0  0  0
  -24.1492  -36.7272   23.2643 C   0  0  0  0  0  0
  -25.9856  -30.7476   21.3798 C   0  0  0  0  0  0
  -26.0580  -29.3650   20.7221 C   0  0  0  0  0  0
  -27.2262  -28.5283   20.7240 C   0  0  0  0  0  0
  -26.0251  -26.8355   19.4879 C   0  0  0  0  0  0
  -24.8769  -27.6548   19.4794 C   0  0  0  0  0  0
  -23.6579  -29.8030   20.1542 C   0  0  0  0  0  0
  -25.4122  -36.3060   24.0326 C   0  0  1  0  0  0
  -20.5908  -28.3716   23.1255 C   0  0  2  0  0  0
  -20.6788  -26.9426   22.5412 C   0  0  0  0  0  0
  -19.5760  -26.6382   21.5221 C   0  0  0  0  0  0
  -18.1939  -26.7930   22.1629 C   0  0  0  0  0  0
  -19.1553  -28.8867   23.2866 C   0  0  0  0  0  0
  -18.9475  -30.1462   23.8892 C   0  0  0  0  0  0
  -17.6475  -30.6591   24.0562 C   0  0  0  0  0  0
  -25.9066  -34.9431   23.5084 C   0  0  0  0  0  0
  -16.5364  -29.9090   23.6329 C   0  0  0  0  0  0
  -16.7285  -28.6504   23.0358 C   0  0  0  0  0  0
  -26.4513  -31.6566   25.0702 C   0  0  0  0  0  0
  -25.3713  -31.3742   26.1408 C   0  0  0  0  0  0
  -27.0369  -30.2976   24.6219 C   0  0  0  0  0  0
  -27.6053  -32.4312   25.7485 C   0  0  0  0  0  0
  -27.5578  -37.1798   24.8468 C   0  0  0  0  0  0
  -21.4229  -29.3052   22.3629 N   0  0  0  0  0  0
  -26.4293  -37.3764   23.9407 N   0  0  0  0  0  0
  -24.7054  -31.0429   22.0924 N   0  0  0  0  0  0
  -23.4201  -28.8136   23.3011 O   0  0  0  0  0  0
  -28.3127  -26.2899   20.2287 O   0  0  0  0  0  0
  -26.5643  -34.8917   22.4657 O   0  0  0  0  0  0
  -23.5506  -32.1351   23.7200 O   0  0  0  0  0  0
  -29.5590  -18.6089   20.6074 C   0  0  0  0  0  0
  -29.8246  -17.4577   19.6934 C   0  0  0  0  0  0
  -29.8896  -17.9202   18.4244 C   0  0  0  0  0  0
  -29.4271  -19.8968   19.9721 C   0  0  0  0  0  0
  -28.2531  -24.9122   19.7981 C   0  0  0  0  0  0
  -28.7569  -23.7498   20.4029 C   0  0  0  0  0  0
  -28.6883  -22.3607   19.7638 C   0  0  0  0  0  0
  -29.8602  -15.6333   18.1858 C   0  0  0  0  0  0
  -30.0710  -16.9243   17.3719 C   0  0  0  0  0  0
  -31.4928  -16.9979   16.7869 C   0  0  0  0  0  0
  -29.0289  -17.0422   16.2463 C   0  0  0  0  0  0
  -29.8816  -15.9368   19.6482 N   0  0  0  0  0  0
  -29.1798  -21.2249   20.4391 N   0  0  0  0  0  0
  -28.1725  -22.2246   18.6525 O   0  0  0  0  0  0
  -29.3508  -23.8578   21.5989 O   0  0  0  0  0  0
  -29.7189  -19.6435   18.2517 S   0  0  0  0  0  0
  -31.4733  -12.6788   19.1304 H   0  0  0  0  0  0
  -30.4775  -11.5997   20.0693 H   0  0  0  0  0  0
  -29.7738  -11.4258   17.7330 H   0  0  0  0  0  0
  -29.6355  -13.1160   17.5056 H   0  0  0  0  0  0
  -27.8605  -11.2337   18.9973 H   0  0  0  0  0  0
  -27.3773  -12.4125   17.8144 H   0  0  0  0  0  0
  -27.5779  -14.2211   19.3899 H   0  0  0  0  0  0
  -28.7734  -12.3160   21.4583 H   0  0  0  0  0  0
  -28.4234  -14.0172   21.6972 H   0  0  0  0  0  0
  -25.2762   -9.5687   22.4778 H   0  0  0  0  0  0
  -24.0018   -7.4631   22.7463 H   0  0  0  0  0  0
  -21.0856   -8.8783   19.8948 H   0  0  0  0  0  0
  -22.3712  -10.9687   19.6186 H   0  0  0  0  0  0
  -21.2010   -7.6155   23.9714 H   0  0  0  0  0  0
  -21.1473   -6.0534   25.9076 H   0  0  0  0  0  0
  -22.0596   -2.7616   23.2854 H   0  0  0  0  0  0
  -22.4075  -11.9880   22.4832 H   0  0  0  0  0  0
  -21.1059  -13.1219   22.2623 H   0  0  0  0  0  0
  -24.6622  -15.8520   20.5337 H   0  0  0  0  0  0
  -26.2867  -15.6298   20.1221 H   0  0  0  0  0  0
  -26.7236  -32.5365   23.1029 H   0  0  0  0  0  0
  -25.0092  -33.9657   25.0373 H   0  0  0  0  0  0
  -22.7354  -31.2958   21.3870 H   0  0  0  0  0  0
  -23.3759  -35.9599   23.3307 H   0  0  0  0  0  0
  -24.3581  -36.8891   22.2057 H   0  0  0  0  0  0
  -23.7236  -37.6471   23.6664 H   0  0  0  0  0  0
  -26.1306  -31.5049   20.6081 H   0  0  0  0  0  0
  -26.8613  -30.7989   22.0152 H   0  0  0  0  0  0
  -28.1204  -28.8695   21.2261 H   0  0  0  0  0  0
  -25.9327  -25.8709   19.0137 H   0  0  0  0  0  0
  -23.9780  -27.2975   18.9958 H   0  0  0  0  0  0
  -23.7872  -30.5792   19.3989 H   0  0  0  0  0  0
  -22.7742  -29.2410   19.8463 H   0  0  0  0  0  0
  -25.1308  -36.1906   25.0820 H   0  0  0  0  0  0
  -21.0009  -28.3308   24.1372 H   0  0  0  0  0  0
  -20.5696  -26.2331   23.3628 H   0  0  0  0  0  0
  -21.6654  -26.7441   22.1201 H   0  0  0  0  0  0
  -19.6926  -25.6291   21.1255 H   0  0  0  0  0  0
  -19.6694  -27.3191   20.6751 H   0  0  0  0  0  0
  -17.4212  -26.6682   21.4026 H   0  0  0  0  0  0
  -18.0330  -26.0068   22.9021 H   0  0  0  0  0  0
  -19.7952  -30.7275   24.2263 H   0  0  0  0  0  0
  -17.5031  -31.6271   24.5166 H   0  0  0  0  0  0
  -15.5367  -30.2997   23.7648 H   0  0  0  0  0  0
  -15.8683  -28.0820   22.7084 H   0  0  0  0  0  0
  -24.5905  -30.7069   25.7739 H   0  0  0  0  0  0
  -24.8885  -32.2922   26.4769 H   0  0  0  0  0  0
  -25.8013  -30.8967   27.0219 H   0  0  0  0  0  0
  -26.2969  -29.6706   24.1230 H   0  0  0  0  0  0
  -27.4028  -29.7255   25.4754 H   0  0  0  0  0  0
  -27.8853  -30.4244   23.9491 H   0  0  0  0  0  0
  -27.2656  -33.3631   26.2017 H   0  0  0  0  0  0
  -28.3890  -32.6834   25.0328 H   0  0  0  0  0  0
  -28.0682  -31.8454   26.5435 H   0  0  0  0  0  0
  -28.2602  -38.0088   24.7506 H   0  0  0  0  0  0
  -28.1065  -36.2617   24.6309 H   0  0  0  0  0  0
  -27.2291  -37.1465   25.8870 H   0  0  0  0  0  0
  -20.9424  -29.8774   21.6824 H   0  0  0  0  0  0
  -26.0170  -38.2840   24.1395 H   0  0  0  0  0  0
  -29.4307  -18.4522   21.6683 H   0  0  0  0  0  0
  -27.7733  -24.8372   18.8322 H   0  0  0  0  0  0
  -28.8897  -15.2029   17.9462 H   0  0  0  0  0  0
  -30.6241  -14.9210   17.8693 H   0  0  0  0  0  0
  -32.2520  -16.8691   17.5605 H   0  0  0  0  0  0
  -31.6745  -17.9603   16.3077 H   0  0  0  0  0  0
  -31.6555  -16.2231   16.0365 H   0  0  0  0  0  0
  -28.0121  -16.9851   16.6357 H   0  0  0  0  0  0
  -29.1460  -16.2412   15.5154 H   0  0  0  0  0  0
  -29.1215  -17.9886   15.7131 H   0  0  0  0  0  0
  -29.4363  -21.4139   21.3993 H   0  0  0  0  0  0
  -29.3138  -24.7750   21.8399 H   0  0  0  0  0  0
  1 25  1  0  0  0
  1 30  2  0  0  0
  1 82  1  0  0  0
  2  3  1  0  0  0
  2 25  1  0  0  0
  2 87  1  0  0  0
  2 88  1  0  0  0
  3  4  1  0  0  0
  3 89  1  0  0  0
  3 90  1  0  0  0
  4  5  1  0  0  0
  4 91  1  0  0  0
  4 92  1  0  0  0
  5  6  1  0  0  0
  5 26  1  0  0  0
  5 93  1  0  0  0
  6 25  1  0  0  0
  6 94  1  0  0  0
  6 95  1  0  0  0
  7  8  2  0  0  0
  7 26  1  0  0  0
  7 29  1  0  0  0
  8  9  1  0  0  0
  8 22  1  0  0  0
  9 10  1  0  0  0
  9 27  2  0  0  0
 10 11  2  0  0  0
 10 15  1  0  0  0
 11 12  1  0  0  0
 11 96  1  0  0  0
 12 13  2  0  0  0
 12 97  1  0  0  0
 13 14  1  0  0  0
 13 31  1  0  0  0
 14 15  2  0  0  0
 14 98  1  0  0  0
 15 99  1  0  0  0
 16 17  2  0  0  0
 16 21  1  0  0  0
 16 31  1  0  0  0
 17 18  1  0  0  0
 17100  1  0  0  0
 18 19  2  0  0  0
 18101  1  0  0  0
 19 20  1  0  0  0
 19 24  1  0  0  0
 20 21  2  0  0  0
 20102  1  0  0  0
 21 23  1  0  0  0
 22 28  1  0  0  0
 22 32  2  0  0  0
 26 27  1  0  0  0
 28103  1  0  0  0
 28104  1  0  0  0
 29105  1  0  0  0
 29106  1  0  0  0
 33 34  1  0  0  0
 33 66  1  0  0  0
 33 70  2  0  0  0
 34 36  1  0  0  0
 34 59  1  0  0  0
 34107  1  0  0  0
 35 44  2  0  0  0
 35 45  1  0  0  0
 35 68  1  0  0  0
 36 56  1  0  0  0
 36108  1  0  0  0
 37 39  1  0  0  0
 37 47  1  0  0  0
 37 66  1  0  0  0
 37109  1  0  0  0
 38 43  2  0  0  0
 38 46  1  0  0  0
 38 47  1  0  0  0
 39 64  1  0  0  0
 39 67  2  0  0  0
 40 52  1  0  0  0
 40 53  2  0  0  0
 40 58  1  0  0  0
 41110  1  0  0  0
 41111  1  0  0  0
 41112  1  0  0  0
 41 48  1  0  0  0
 42 43  1  0  0  0
 42 66  1  0  0  0
 42113  1  0  0  0
 42114  1  0  0  0
 43 44  1  0  0  0
 44115  1  0  0  0
 45 46  2  0  0  0
 45116  1  0  0  0
 46117  1  0  0  0
 47118  1  0  0  0
 47119  1  0  0  0
 48 56  1  0  0  0
 48 65  1  0  0  0
 48120  1  0  0  0
 49 50  1  0  0  0
 49 53  1  0  0  0
 49 64  1  0  0  0
 49121  1  0  0  0
 50 51  1  0  0  0
 50122  1  0  0  0
 50123  1  0  0  0
 51 52  1  0  0  0
 51124  1  0  0  0
 51125  1  0  0  0
 52126  1  0  0  0
 52127  1  0  0  0
 53 54  1  0  0  0
 54 55  2  0  0  0
 54128  1  0  0  0
 55 57  1  0  0  0
 55129  1  0  0  0
 56 69  2  0  0  0
 57 58  2  0  0  0
 57130  1  0  0  0
 58131  1  0  0  0
 59 60  1  0  0  0
 59 61  1  0  0  0
 59 62  1  0  0  0
 60132  1  0  0  0
 60133  1  0  0  0
 60134  1  0  0  0
 61135  1  0  0  0
 61136  1  0  0  0
 61137  1  0  0  0
 62138  1  0  0  0
 62139  1  0  0  0
 62140  1  0  0  0
 63 65  1  0  0  0
 63141  1  0  0  0
 63142  1  0  0  0
 63143  1  0  0  0
 64144  1  0  0  0
 65145  1  0  0  0
 68 75  1  0  0  0
 71 72  1  0  0  0
 71 74  2  0  0  0
 71146  1  0  0  0
 72 73  2  0  0  0
 72 82  1  0  0  0
 73 79  1  0  0  0
 73 86  1  0  0  0
 74 83  1  0  0  0
 74 86  1  0  0  0
 75 76  2  0  0  0
 75147  1  0  0  0
 76 77  1  0  0  0
 76 85  1  0  0  0
 77 83  1  0  0  0
 77 84  2  0  0  0
 78 79  1  0  0  0
 78 82  1  0  0  0
 78148  1  0  0  0
 78149  1  0  0  0
 79 80  1  0  0  0
 79 81  1  0  0  0
 80150  1  0  0  0
 80151  1  0  0  0
 80152  1  0  0  0
 81153  1  0  0  0
 81154  1  0  0  0
 81155  1  0  0  0
 83156  1  0  0  0
 85157  1  0  0  0
M  ISO  4   1 100  68 101  75 101  82 100
M  END
> <chiral flag>
0

> <version>
0

> <s_m_source_file>
/data/baiqing/PycharmProjects/Reinvent-master-3.2/result/LINK_invent/BTK/process_docking_weight1_custom_product_contain_oxygen_bond_distance_aromatic_linkinvent_7_9_3/rearranged_h_0156.sdf

> <i_m_source_file_index>
28

> <r_mmod_Potential_Energy-OPLS-2005>
509.052978515625

> <r_mmod_Stretch_Energy-OPLS-2005>
172.402328491211

> <r_mmod_Bend_Energy-OPLS-2005>
309.6220703125

> <r_mmod_Torsional_Energy-OPLS-2005>
299.648406982422

> <r_mmod_Improper_Torsional_Energy-OPLS-2005>
31.9389762878418

> <r_mmod_Van_der_Waal_Energy-OPLS-2005>
127.567283630371

> <r_mmod_Electrostatic_Energy-OPLS-2005>
-382.834381103516

> <r_mmod_Solvation_Energy-OPLS-2005>
-208.900863647461

> <b_mmod_Minimization_Converged-OPLS-2005>
0

> <r_mmod_RMS_Derivative-OPLS-2005>
0.852575719356537

$$$$
28
                    3D
 Structure written by MMmdl.
156165  0  0  1  0            999 V2000
  -30.6147  -14.7015   20.5024 C   0  0  0  0  0  0
  -30.4427  -12.4349   19.4640 C   0  0  0  0  0  0
  -29.5126  -12.5159   18.2318 C   0  0  0  0  0  0
  -28.0379  -12.3421   18.6462 C   0  0  0  0  0  0
  -27.6519  -13.2244   19.8621 C   0  0  2  0  0  0
  -28.6970  -13.1125   20.9958 C   0  0  0  0  0  0
  -25.2558  -13.8196   20.5707 C   0  0  0  0  0  0
  -24.1833  -13.0448   20.9219 C   0  0  0  0  0  0
  -24.6409  -11.6921   20.8746 C   0  0  0  0  0  0
  -23.9077  -10.4301   21.0424 C   0  0  0  0  0  0
  -24.3626   -9.4212   21.9187 C   0  0  0  0  0  0
  -23.6316   -8.2229   22.0736 C   0  0  0  0  0  0
  -22.4291   -8.0281   21.3535 C   0  0  0  0  0  0
  -21.9932   -9.0255   20.4635 C   0  0  0  0  0  0
  -22.7257  -10.2146   20.3056 C   0  0  0  0  0  0
  -21.6856   -6.0742   22.5294 C   0  0  0  0  0  0
  -21.4007   -6.5637   23.8234 C   0  0  0  0  0  0
  -21.3655   -5.6784   24.9188 C   0  0  0  0  0  0
  -21.6048   -4.3047   24.7232 C   0  0  0  0  0  0
  -21.8816   -3.8153   23.4348 C   0  0  0  0  0  0
  -21.9192   -4.6970   22.3411 C   0  0  0  0  0  0
  -22.7855  -13.5229   21.1901 C   0  0  0  0  0  0
  -22.1663   -4.2151   21.0991 F   0  0  0  0  0  0
  -21.5633   -3.4524   25.7740 F   0  0  0  0  0  0
  -30.0055  -13.4704   20.4274 N   0  0  0  0  0  0
  -26.2990  -12.9387   20.3323 N   0  0  0  0  0  0
  -25.9339  -11.6535   20.5752 N   0  0  0  0  0  0
  -22.0482  -12.8203   22.0431 N   0  0  0  0  0  0
  -25.4279  -15.1916   20.4130 N   0  0  0  0  0  0
  -31.7802  -14.8473   20.1229 O   0  0  0  0  0  0
  -21.6639   -6.8883   21.4261 O   0  0  0  0  0  0
  -22.3542  -14.5543   20.6752 O   0  0  0  0  0  0
  -24.6283  -31.8569   23.1969 C   0  0  0  0  0  0
  -25.9125  -32.4763   23.8303 C   0  0  1  0  0  0
  -27.2462  -27.2906   20.1496 C   0  0  0  0  0  0
  -25.5954  -33.8556   24.2256 N   0  0  0  0  0  0
  -23.4239  -30.4753   21.5371 C   0  0  2  0  0  0
  -24.8799  -28.9201   20.1125 C   0  0  0  0  0  0
  -22.7489  -29.4594   22.4899 C   0  0  0  0  0  0
  -18.0298  -28.1365   22.8473 C   0  0  0  0  0  0
  -24.1496  -36.7267   23.2623 C   0  0  0  0  0  0
  -25.9641  -30.7850   21.3668 C   0  0  0  0  0  0
  -26.0462  -29.4064   20.7154 C   0  0  0  0  0  0
  -27.2304  -28.6078   20.7166 C   0  0  0  0  0  0
  -26.0522  -26.8595   19.5251 C   0  0  0  0  0  0
  -24.8872  -27.6544   19.5040 C   0  0  0  0  0  0
  -23.6437  -29.7990   20.1561 C   0  0  0  0  0  0
  -25.4108  -36.3069   24.0332 C   0  0  1  0  0  0
  -20.5892  -28.3676   23.1275 C   0  0  2  0  0  0
  -20.6767  -26.9399   22.5404 C   0  0  0  0  0  0
  -19.5757  -26.6380   21.5185 C   0  0  0  0  0  0
  -18.1940  -26.7918   22.1607 C   0  0  0  0  0  0
  -19.1547  -28.8842   23.2871 C   0  0  0  0  0  0
  -18.9468  -30.1442   23.8873 C   0  0  0  0  0  0
  -17.6465  -30.6570   24.0544 C   0  0  0  0  0  0
  -25.9052  -34.9449   23.5092 C   0  0  0  0  0  0
  -16.5356  -29.9052   23.6334 C   0  0  0  0  0  0
  -16.7286  -28.6475   23.0359 C   0  0  0  0  0  0
  -26.4503  -31.6558   25.0669 C   0  0  0  0  0  0
  -25.3747  -31.3716   26.1407 C   0  0  0  0  0  0
  -27.0298  -30.2966   24.6091 C   0  0  0  0  0  0
  -27.6092  -32.4256   25.7434 C   0  0  0  0  0  0
  -27.5586  -37.1776   24.8454 C   0  0  0  0  0  0
  -21.4201  -29.3037   22.3673 N   0  0  0  0  0  0
  -26.4273  -37.3771   23.9425 N   0  0  0  0  0  0
  -24.6903  -31.0564   22.0908 N   0  0  0  0  0  0
  -23.4209  -28.8151   23.3004 O   0  0  0  0  0  0
  -28.3741  -26.4432   20.2245 O   0  0  0  0  0  0
  -26.5591  -34.8937   22.4644 O   0  0  0  0  0  0
  -23.5453  -32.1377   23.7296 O   0  0  0  0  0  0
  -31.0829  -17.9221   20.3540 C   0  0  0  0  0  0
  -30.0013  -17.1612   20.7681 C   0  0  0  0  0  0
  -29.7292  -19.7669   20.8599 C   0  0  0  0  0  0
  -30.0636  -21.7437   22.4675 C   0  0  0  0  0  0
  -29.4314  -22.4122   20.0877 C   0  0  0  0  0  0
  -29.6043  -23.1570   22.8831 C   0  0  0  0  0  0
  -29.3469  -21.2590   21.1967 C   0  0  1  0  0  0
  -29.4359  -23.9845   20.5073 C   0  0  1  0  0  0
  -28.1899  -24.9578   20.1935 C   0  0  0  0  0  0
  -30.9275  -19.3383   20.4212 N   0  0  0  0  0  0
  -29.8203  -15.7747   20.8537 N   0  0  0  0  0  0
  -29.9734  -24.1841   21.8807 N   0  3  0  0  0  0
  -28.7171  -18.3229   21.2162 S   0  0  0  0  0  0
  -31.4833  -12.5652   19.1599 H   0  0  0  0  0  0
  -30.3849  -11.4450   19.9202 H   0  0  0  0  0  0
  -29.7866  -11.7555   17.4990 H   0  0  0  0  0  0
  -29.6430  -13.4797   17.7362 H   0  0  0  0  0  0
  -27.8899  -11.2905   18.8959 H   0  0  0  0  0  0
  -27.3780  -12.5503   17.8026 H   0  0  0  0  0  0
  -27.6605  -14.2544   19.5061 H   0  0  0  0  0  0
  -28.7255  -12.0967   21.3923 H   0  0  0  0  0  0
  -28.4317  -13.7538   21.8383 H   0  0  0  0  0  0
  -25.2782   -9.5678   22.4753 H   0  0  0  0  0  0
  -24.0036   -7.4603   22.7437 H   0  0  0  0  0  0
  -21.0863   -8.8791   19.8932 H   0  0  0  0  0  0
  -22.3740  -10.9679   19.6150 H   0  0  0  0  0  0
  -21.1990   -7.6147   23.9737 H   0  0  0  0  0  0
  -21.1478   -6.0510   25.9093 H   0  0  0  0  0  0
  -22.0591   -2.7617   23.2848 H   0  0  0  0  0  0
  -22.4067  -11.9826   22.4783 H   0  0  0  0  0  0
  -21.1109  -13.1252   22.2649 H   0  0  0  0  0  0
  -24.6615  -15.8474   20.5208 H   0  0  0  0  0  0
  -26.2794  -15.6291   20.0858 H   0  0  0  0  0  0
  -26.7180  -32.5450   23.1040 H   0  0  0  0  0  0
  -25.0216  -33.9675   25.0487 H   0  0  0  0  0  0
  -22.7170  -31.2941   21.3868 H   0  0  0  0  0  0
  -23.3784  -35.9579   23.3261 H   0  0  0  0  0  0
  -24.3619  -36.8896   22.2043 H   0  0  0  0  0  0
  -23.7213  -37.6449   23.6655 H   0  0  0  0  0  0
  -26.0906  -31.5446   20.5944 H   0  0  0  0  0  0
  -26.8454  -30.8413   21.9945 H   0  0  0  0  0  0
  -28.1226  -28.9827   21.1973 H   0  0  0  0  0  0
  -25.9892  -25.8864   19.0604 H   0  0  0  0  0  0
  -23.9931  -27.2745   19.0278 H   0  0  0  0  0  0
  -23.7581  -30.5688   19.3920 H   0  0  0  0  0  0
  -22.7678  -29.2192   19.8589 H   0  0  0  0  0  0
  -25.1284  -36.1895   25.0818 H   0  0  0  0  0  0
  -20.9977  -28.3241   24.1401 H   0  0  0  0  0  0
  -20.5627  -26.2290   23.3606 H   0  0  0  0  0  0
  -21.6646  -26.7401   22.1231 H   0  0  0  0  0  0
  -19.6909  -25.6283   21.1244 H   0  0  0  0  0  0
  -19.6717  -27.3153   20.6683 H   0  0  0  0  0  0
  -17.4224  -26.6685   21.3999 H   0  0  0  0  0  0
  -18.0339  -26.0044   22.8992 H   0  0  0  0  0  0
  -19.7947  -30.7263   24.2239 H   0  0  0  0  0  0
  -17.5029  -31.6252   24.5143 H   0  0  0  0  0  0
  -15.5356  -30.2946   23.7663 H   0  0  0  0  0  0
  -15.8702  -28.0775   22.7077 H   0  0  0  0  0  0
  -24.6001  -30.6941   25.7792 H   0  0  0  0  0  0
  -24.8832  -32.2882   26.4694 H   0  0  0  0  0  0
  -25.8107  -30.9066   27.0262 H   0  0  0  0  0  0
  -26.2819  -29.6768   24.1132 H   0  0  0  0  0  0
  -27.3990  -29.7177   25.4560 H   0  0  0  0  0  0
  -27.8722  -30.4227   23.9286 H   0  0  0  0  0  0
  -27.2734  -33.3607   26.1947 H   0  0  0  0  0  0
  -28.3948  -32.6716   25.0274 H   0  0  0  0  0  0
  -28.0710  -31.8401   26.5400 H   0  0  0  0  0  0
  -28.2558  -38.0117   24.7565 H   0  0  0  0  0  0
  -28.1126  -36.2648   24.6196 H   0  0  0  0  0  0
  -27.2346  -37.1317   25.8868 H   0  0  0  0  0  0
  -20.9366  -29.8791   21.6912 H   0  0  0  0  0  0
  -26.0158  -38.2851   24.1458 H   0  0  0  0  0  0
  -32.0326  -17.5400   20.0047 H   0  0  0  0  0  0
  -29.8573  -21.0513   23.2853 H   0  0  0  0  0  0
  -31.1450  -21.7239   22.3209 H   0  0  0  0  0  0
  -28.6848  -22.2364   19.3147 H   0  0  0  0  0  0
  -30.3867  -22.2444   19.5861 H   0  0  0  0  0  0
  -30.0686  -23.4242   23.8342 H   0  0  0  0  0  0
  -28.5259  -23.1746   23.0530 H   0  0  0  0  0  0
  -28.2912  -21.2100   21.4656 H   0  0  0  0  0  0
  -30.2123  -24.4164   19.8736 H   0  0  0  0  0  0
  -27.3740  -24.6961   20.8685 H   0  0  0  0  0  0
  -27.8509  -24.7023   19.1888 H   0  0  0  0  0  0
  -28.9031  -15.4934   21.1638 H   0  0  0  0  0  0
  -30.9804  -24.2157   21.8295 H   0  0  0  0  0  0
  -29.6889  -25.0916   22.2190 H   0  0  0  0  0  0
  1 25  1  0  0  0
  1 30  2  0  0  0
  1 81  1  0  0  0
  2  3  1  0  0  0
  2 25  1  0  0  0
  2 84  1  0  0  0
  2 85  1  0  0  0
  3  4  1  0  0  0
  3 86  1  0  0  0
  3 87  1  0  0  0
  4  5  1  0  0  0
  4 88  1  0  0  0
  4 89  1  0  0  0
  5  6  1  0  0  0
  5 26  1  0  0  0
  5 90  1  0  0  0
  6 25  1  0  0  0
  6 91  1  0  0  0
  6 92  1  0  0  0
  7  8  2  0  0  0
  7 26  1  0  0  0
  7 29  1  0  0  0
  8  9  1  0  0  0
  8 22  1  0  0  0
  9 10  1  0  0  0
  9 27  2  0  0  0
 10 11  2  0  0  0
 10 15  1  0  0  0
 11 12  1  0  0  0
 11 93  1  0  0  0
 12 13  2  0  0  0
 12 94  1  0  0  0
 13 14  1  0  0  0
 13 31  1  0  0  0
 14 15  2  0  0  0
 14 95  1  0  0  0
 15 96  1  0  0  0
 16 17  2  0  0  0
 16 21  1  0  0  0
 16 31  1  0  0  0
 17 18  1  0  0  0
 17 97  1  0  0  0
 18 19  2  0  0  0
 18 98  1  0  0  0
 19 20  1  0  0  0
 19 24  1  0  0  0
 20 21  2  0  0  0
 20 99  1  0  0  0
 21 23  1  0  0  0
 22 28  1  0  0  0
 22 32  2  0  0  0
 26 27  1  0  0  0
 28100  1  0  0  0
 28101  1  0  0  0
 29102  1  0  0  0
 29103  1  0  0  0
 33 34  1  0  0  0
 33 66  1  0  0  0
 33 70  2  0  0  0
 34 36  1  0  0  0
 34 59  1  0  0  0
 34104  1  0  0  0
 35 44  2  0  0  0
 35 45  1  0  0  0
 35 68  1  0  0  0
 36 56  1  0  0  0
 36105  1  0  0  0
 37 39  1  0  0  0
 37 47  1  0  0  0
 37 66  1  0  0  0
 37106  1  0  0  0
 38 43  2  0  0  0
 38 46  1  0  0  0
 38 47  1  0  0  0
 39 64  1  0  0  0
 39 67  2  0  0  0
 40 52  1  0  0  0
 40 53  2  0  0  0
 40 58  1  0  0  0
 41107  1  0  0  0
 41108  1  0  0  0
 41109  1  0  0  0
 41 48  1  0  0  0
 42 43  1  0  0  0
 42 66  1  0  0  0
 42110  1  0  0  0
 42111  1  0  0  0
 43 44  1  0  0  0
 44112  1  0  0  0
 45 46  2  0  0  0
 45113  1  0  0  0
 46114  1  0  0  0
 47115  1  0  0  0
 47116  1  0  0  0
 48 56  1  0  0  0
 48 65  1  0  0  0
 48117  1  0  0  0
 49 50  1  0  0  0
 49 53  1  0  0  0
 49 64  1  0  0  0
 49118  1  0  0  0
 50 51  1  0  0  0
 50119  1  0  0  0
 50120  1  0  0  0
 51 52  1  0  0  0
 51121  1  0  0  0
 51122  1  0  0  0
 52123  1  0  0  0
 52124  1  0  0  0
 53 54  1  0  0  0
 54 55  2  0  0  0
 54125  1  0  0  0
 55 57  1  0  0  0
 55126  1  0  0  0
 56 69  2  0  0  0
 57 58  2  0  0  0
 57127  1  0  0  0
 58128  1  0  0  0
 59 60  1  0  0  0
 59 61  1  0  0  0
 59 62  1  0  0  0
 60129  1  0  0  0
 60130  1  0  0  0
 60131  1  0  0  0
 61132  1  0  0  0
 61133  1  0  0  0
 61134  1  0  0  0
 62135  1  0  0  0
 62136  1  0  0  0
 62137  1  0  0  0
 63 65  1  0  0  0
 63138  1  0  0  0
 63139  1  0  0  0
 63140  1  0  0  0
 64141  1  0  0  0
 65142  1  0  0  0
 68 79  1  0  0  0
 71 72  2  0  0  0
 71 80  1  0  0  0
 71143  1  0  0  0
 72 81  1  0  0  0
 72 83  1  0  0  0
 73 80  2  0  0  0
 73 83  1  0  0  0
 73 77  1  0  0  0
 74 76  1  0  0  0
 74 77  1  0  0  0
 74144  1  0  0  0
 74145  1  0  0  0
 75 77  1  0  0  0
 75 78  1  0  0  0
 75146  1  0  0  0
 75147  1  0  0  0
 76 82  1  0  0  0
 76148  1  0  0  0
 76149  1  0  0  0
 77150  1  0  0  0
 78 79  1  0  0  0
 78 82  1  0  0  0
 78151  1  0  0  0
 79152  1  0  0  0
 79153  1  0  0  0
 81154  1  0  0  0
 82155  1  0  0  0
 82156  1  0  0  0
M  CHG  1  82   1
M  ISO  4   1 100  68 101  79 101  81 100
M  END
> <chiral flag>
0

> <version>
0

> <s_m_source_file>
/data/baiqing/PycharmProjects/Reinvent-master-3.2/result/LINK_invent/BTK/process_docking_weight1_custom_product_contain_oxygen_bond_distance_aromatic_linkinvent_7_9_3/rearranged_h_0156.sdf

> <i_m_source_file_index>
29

> <r_mmod_Potential_Energy-OPLS-2005>
-52.5818939208984

> <r_mmod_Stretch_Energy-OPLS-2005>
103.372581481934

> <r_mmod_Bend_Energy-OPLS-2005>
167.772644042969

> <r_mmod_Torsional_Energy-OPLS-2005>
239.103210449219

> <r_mmod_Improper_Torsional_Energy-OPLS-2005>
4.50961494445801

> <r_mmod_Van_der_Waal_Energy-OPLS-2005>
117.015968322754

> <r_mmod_Electrostatic_Energy-OPLS-2005>
-292.554931640625

> <r_mmod_Solvation_Energy-OPLS-2005>
-457.8359375

> <b_mmod_Minimization_Converged-OPLS-2005>
0

> <r_mmod_RMS_Derivative-OPLS-2005>
2.93210601806641

$$$$
29
                    3D
 Structure written by MMmdl.
153161  0  0  1  0            999 V2000
  -30.5683  -14.7559   20.4542 C   0  0  0  0  0  0
  -30.4416  -12.4764   19.4359 C   0  0  0  0  0  0
  -29.5092  -12.4990   18.2088 C   0  0  0  0  0  0
  -28.0237  -12.3369   18.6097 C   0  0  0  0  0  0
  -27.6231  -13.2301   19.8174 C   0  0  2  0  0  0
  -28.6727  -13.1653   20.9430 C   0  0  0  0  0  0
  -25.2394  -13.8209   20.5552 C   0  0  0  0  0  0
  -24.1724  -13.0409   20.9175 C   0  0  0  0  0  0
  -24.6359  -11.6914   20.8678 C   0  0  0  0  0  0
  -23.9039  -10.4261   21.0360 C   0  0  0  0  0  0
  -24.3574   -9.4162   21.9106 C   0  0  0  0  0  0
  -23.6257   -8.2181   22.0688 C   0  0  0  0  0  0
  -22.4216   -8.0210   21.3527 C   0  0  0  0  0  0
  -21.9873   -9.0167   20.4604 C   0  0  0  0  0  0
  -22.7223  -10.2049   20.3026 C   0  0  0  0  0  0
  -21.6839   -6.0671   22.5285 C   0  0  0  0  0  0
  -21.4017   -6.5595   23.8209 C   0  0  0  0  0  0
  -21.3658   -5.6749   24.9173 C   0  0  0  0  0  0
  -21.6070   -4.3019   24.7228 C   0  0  0  0  0  0
  -21.8841   -3.8091   23.4355 C   0  0  0  0  0  0
  -21.9203   -4.6898   22.3411 C   0  0  0  0  0  0
  -22.7757  -13.5118   21.1931 C   0  0  0  0  0  0
  -22.1657   -4.2093   21.0982 F   0  0  0  0  0  0
  -21.5644   -3.4510   25.7744 F   0  0  0  0  0  0
  -29.9629  -13.5337   20.3504 N   0  0  0  0  0  0
  -26.2788  -12.9377   20.3093 N   0  0  0  0  0  0
  -25.9282  -11.6535   20.5655 N   0  0  0  0  0  0
  -22.0481  -12.8025   22.0529 N   0  0  0  0  0  0
  -25.3979  -15.1920   20.3825 N   0  0  0  0  0  0
  -31.7871  -14.8638   20.2738 O   0  0  0  0  0  0
  -21.6634   -6.8774   21.4232 O   0  0  0  0  0  0
  -22.3384  -14.5412   20.6843 O   0  0  0  0  0  0
  -24.6327  -31.8417   23.1996 C   0  0  0  0  0  0
  -25.9158  -32.4682   23.8336 C   0  0  1  0  0  0
  -27.2185  -27.2192   20.1427 C   0  0  0  0  0  0
  -25.5896  -33.8496   24.2224 N   0  0  0  0  0  0
  -23.4299  -30.4696   21.5365 C   0  0  2  0  0  0
  -24.8754  -28.9060   20.1046 C   0  0  0  0  0  0
  -22.7505  -29.4599   22.4923 C   0  0  0  0  0  0
  -18.0349  -28.1355   22.8514 C   0  0  0  0  0  0
  -24.1469  -36.7287   23.2667 C   0  0  0  0  0  0
  -25.9701  -30.7438   21.3863 C   0  0  0  0  0  0
  -26.0432  -29.3656   20.7261 C   0  0  0  0  0  0
  -27.2109  -28.5333   20.7352 C   0  0  0  0  0  0
  -26.0214  -26.8144   19.5183 C   0  0  0  0  0  0
  -24.8695  -27.6387   19.4926 C   0  0  0  0  0  0
  -23.6440  -29.7961   20.1586 C   0  0  0  0  0  0
  -25.4102  -36.3043   24.0328 C   0  0  1  0  0  0
  -20.5906  -28.3745   23.1293 C   0  0  2  0  0  0
  -20.6780  -26.9420   22.5452 C   0  0  0  0  0  0
  -19.5806  -26.6375   21.5256 C   0  0  0  0  0  0
  -18.1980  -26.7887   22.1673 C   0  0  0  0  0  0
  -19.1567  -28.8880   23.2895 C   0  0  0  0  0  0
  -18.9453  -30.1509   23.8832 C   0  0  0  0  0  0
  -17.6400  -30.6534   24.0543 C   0  0  0  0  0  0
  -25.9030  -34.9394   23.5087 C   0  0  0  0  0  0
  -16.5304  -29.8961   23.6300 C   0  0  0  0  0  0
  -16.7305  -28.6395   23.0326 C   0  0  0  0  0  0
  -26.4482  -31.6597   25.0796 C   0  0  0  0  0  0
  -25.3762  -31.3786   26.1594 C   0  0  0  0  0  0
  -27.0343  -30.2987   24.6405 C   0  0  0  0  0  0
  -27.5951  -32.4431   25.7611 C   0  0  0  0  0  0
  -27.5557  -37.1841   24.8486 C   0  0  0  0  0  0
  -21.4192  -29.3084   22.3686 N   0  0  0  0  0  0
  -26.4294  -37.3732   23.9386 N   0  0  0  0  0  0
  -24.6960  -31.0372   22.0982 N   0  0  0  0  0  0
  -23.4199  -28.8187   23.3045 O   0  0  0  0  0  0
  -28.3064  -26.3204   20.2888 O   0  0  0  0  0  0
  -26.5624  -34.8852   22.4687 O   0  0  0  0  0  0
  -23.5478  -32.1248   23.7285 O   0  0  0  0  0  0
  -30.6064  -20.0689   21.4371 C   0  0  0  0  0  0
  -29.2515  -18.4587   20.2153 C   0  0  0  0  0  0
  -31.0021  -17.6395   21.6730 C   0  0  0  0  0  0
  -29.5283  -19.8594   20.5412 C   0  0  0  0  0  0
  -31.3269  -18.9773   21.9919 C   0  0  0  0  0  0
  -29.9923  -17.3176   20.7442 C   0  0  0  0  0  0
  -28.1689  -23.5413   19.9490 C   0  0  0  0  0  0
  -28.7198  -21.1051   20.0156 C   0  0  0  0  0  0
  -28.5517  -25.0552   19.5033 C   0  0  0  0  0  0
  -28.9666  -22.4989   20.2035 N   0  0  0  0  0  0
  -32.3987  -19.1838   22.8761 N   0  0  0  0  0  0
  -29.7401  -15.8775   20.4341 N   0  0  0  0  0  0
  -27.7193  -20.7619   19.2578 N   0  3  0  0  0  0
  -31.4688  -12.6583   19.1132 H   0  0  0  0  0  0
  -30.4285  -11.5031   19.9287 H   0  0  0  0  0  0
  -29.7979  -11.7238   17.4962 H   0  0  0  0  0  0
  -29.6459  -13.4455   17.6803 H   0  0  0  0  0  0
  -27.8384  -11.2863   18.8393 H   0  0  0  0  0  0
  -27.3952  -12.5724   17.7485 H   0  0  0  0  0  0
  -27.5963  -14.2484   19.4186 H   0  0  0  0  0  0
  -28.7194  -12.1646   21.3854 H   0  0  0  0  0  0
  -28.4182  -13.8579   21.7447 H   0  0  0  0  0  0
  -25.2717   -9.5640   22.4640 H   0  0  0  0  0  0
  -23.9989   -7.4589   22.7397 H   0  0  0  0  0  0
  -21.0790   -8.8650   19.8905 H   0  0  0  0  0  0
  -22.3645  -10.9523   19.6085 H   0  0  0  0  0  0
  -21.1999   -7.6100   23.9718 H   0  0  0  0  0  0
  -21.1481   -6.0458   25.9079 H   0  0  0  0  0  0
  -22.0637   -2.7562   23.2897 H   0  0  0  0  0  0
  -22.4055  -11.9591   22.4748 H   0  0  0  0  0  0
  -21.1176  -13.1046   22.2838 H   0  0  0  0  0  0
  -24.6095  -15.8280   20.4095 H   0  0  0  0  0  0
  -26.2245  -15.6234   19.9953 H   0  0  0  0  0  0
  -26.7230  -32.5225   23.1087 H   0  0  0  0  0  0
  -24.9977  -33.9631   25.0313 H   0  0  0  0  0  0
  -22.7360  -31.2998   21.3989 H   0  0  0  0  0  0
  -23.3684  -35.9677   23.3356 H   0  0  0  0  0  0
  -24.3549  -36.8877   22.2080 H   0  0  0  0  0  0
  -23.7264  -37.6512   23.6665 H   0  0  0  0  0  0
  -26.1258  -31.5035   20.6157 H   0  0  0  0  0  0
  -26.8407  -30.7870   22.0319 H   0  0  0  0  0  0
  -28.0975  -28.8713   21.2522 H   0  0  0  0  0  0
  -25.9438  -25.8198   19.0965 H   0  0  0  0  0  0
  -23.9676  -27.2693   19.0228 H   0  0  0  0  0  0
  -23.7658  -30.5669   19.3970 H   0  0  0  0  0  0
  -22.7507  -29.2412   19.8630 H   0  0  0  0  0  0
  -25.1297  -36.1911   25.0817 H   0  0  0  0  0  0
  -21.0087  -28.3382   24.1376 H   0  0  0  0  0  0
  -21.6663  -26.7476   22.1273 H   0  0  0  0  0  0
  -20.5743  -26.2333   23.3710 H   0  0  0  0  0  0
  -19.6977  -25.6302   21.1226 H   0  0  0  0  0  0
  -19.6780  -27.3203   20.6787 H   0  0  0  0  0  0
  -17.4307  -26.6707   21.3994 H   0  0  0  0  0  0
  -18.0305  -26.0021   22.9058 H   0  0  0  0  0  0
  -19.7882  -30.7422   24.2191 H   0  0  0  0  0  0
  -17.4872  -31.6218   24.5165 H   0  0  0  0  0  0
  -15.5275  -30.2834   23.7577 H   0  0  0  0  0  0
  -15.8744  -28.0649   22.7012 H   0  0  0  0  0  0
  -24.5897  -30.7114   25.8055 H   0  0  0  0  0  0
  -24.9013  -32.2962   26.5073 H   0  0  0  0  0  0
  -25.8184  -30.8995   27.0356 H   0  0  0  0  0  0
  -26.2954  -29.6789   24.1306 H   0  0  0  0  0  0
  -27.3804  -29.7234   25.5010 H   0  0  0  0  0  0
  -27.8906  -30.4201   23.9780 H   0  0  0  0  0  0
  -27.2430  -33.3732   26.2120 H   0  0  0  0  0  0
  -28.3813  -32.7083   25.0520 H   0  0  0  0  0  0
  -28.0577  -31.8669   26.5654 H   0  0  0  0  0  0
  -28.2652  -38.0063   24.7347 H   0  0  0  0  0  0
  -28.0976  -36.2575   24.6506 H   0  0  0  0  0  0
  -27.2254  -37.1683   25.8898 H   0  0  0  0  0  0
  -20.9352  -29.8759   21.6867 H   0  0  0  0  0  0
  -26.0169  -38.2822   24.1302 H   0  0  0  0  0  0
  -30.8637  -21.0855   21.6988 H   0  0  0  0  0  0
  -28.4455  -18.2427   19.5334 H   0  0  0  0  0  0
  -31.5391  -16.8383   22.1570 H   0  0  0  0  0  0
  -27.0881  -23.3899   19.8605 H   0  0  0  0  0  0
  -28.1318  -25.1962   18.5115 H   0  0  0  0  0  0
  -29.6290  -25.0456   19.3380 H   0  0  0  0  0  0
  -32.5079  -18.5226   23.6404 H   0  0  0  0  0  0
  -32.6416  -20.1240   23.1719 H   0  0  0  0  0  0
  -28.7991  -15.6448   20.1480 H   0  0  0  0  0  0
  -27.5614  -19.7921   18.9933 H   0  0  0  0  0  0
  -27.1052  -21.3998   18.7578 H   0  0  0  0  0  0
  1 25  1  0  0  0
  1 30  2  0  0  0
  1 82  1  0  0  0
  2  3  1  0  0  0
  2 25  1  0  0  0
  2 84  1  0  0  0
  2 85  1  0  0  0
  3  4  1  0  0  0
  3 86  1  0  0  0
  3 87  1  0  0  0
  4  5  1  0  0  0
  4 88  1  0  0  0
  4 89  1  0  0  0
  5  6  1  0  0  0
  5 26  1  0  0  0
  5 90  1  0  0  0
  6 25  1  0  0  0
  6 91  1  0  0  0
  6 92  1  0  0  0
  7  8  2  0  0  0
  7 26  1  0  0  0
  7 29  1  0  0  0
  8  9  1  0  0  0
  8 22  1  0  0  0
  9 10  1  0  0  0
  9 27  2  0  0  0
 10 11  2  0  0  0
 10 15  1  0  0  0
 11 12  1  0  0  0
 11 93  1  0  0  0
 12 13  2  0  0  0
 12 94  1  0  0  0
 13 14  1  0  0  0
 13 31  1  0  0  0
 14 15  2  0  0  0
 14 95  1  0  0  0
 15 96  1  0  0  0
 16 17  2  0  0  0
 16 21  1  0  0  0
 16 31  1  0  0  0
 17 18  1  0  0  0
 17 97  1  0  0  0
 18 19  2  0  0  0
 18 98  1  0  0  0
 19 20  1  0  0  0
 19 24  1  0  0  0
 20 21  2  0  0  0
 20 99  1  0  0  0
 21 23  1  0  0  0
 22 28  1  0  0  0
 22 32  2  0  0  0
 26 27  1  0  0  0
 28100  1  0  0  0
 28101  1  0  0  0
 29102  1  0  0  0
 29103  1  0  0  0
 33 34  1  0  0  0
 33 66  1  0  0  0
 33 70  2  0  0  0
 34 36  1  0  0  0
 34 59  1  0  0  0
 34104  1  0  0  0
 35 44  2  0  0  0
 35 45  1  0  0  0
 35 68  1  0  0  0
 36 56  1  0  0  0
 36105  1  0  0  0
 37 39  1  0  0  0
 37 47  1  0  0  0
 37 66  1  0  0  0
 37106  1  0  0  0
 38 43  2  0  0  0
 38 46  1  0  0  0
 38 47  1  0  0  0
 39 64  1  0  0  0
 39 67  2  0  0  0
 40 52  1  0  0  0
 40 53  2  0  0  0
 40 58  1  0  0  0
 41107  1  0  0  0
 41108  1  0  0  0
 41109  1  0  0  0
 41 48  1  0  0  0
 42 43  1  0  0  0
 42 66  1  0  0  0
 42110  1  0  0  0
 42111  1  0  0  0
 43 44  1  0  0  0
 44112  1  0  0  0
 45 46  2  0  0  0
 45113  1  0  0  0
 46114  1  0  0  0
 47115  1  0  0  0
 47116  1  0  0  0
 48 56  1  0  0  0
 48 65  1  0  0  0
 48117  1  0  0  0
 49 50  1  0  0  0
 49 53  1  0  0  0
 49 64  1  0  0  0
 49118  1  0  0  0
 50 51  1  0  0  0
 50119  1  0  0  0
 50120  1  0  0  0
 51 52  1  0  0  0
 51121  1  0  0  0
 51122  1  0  0  0
 52123  1  0  0  0
 52124  1  0  0  0
 53 54  1  0  0  0
 54 55  2  0  0  0
 54125  1  0  0  0
 55 57  1  0  0  0
 55126  1  0  0  0
 56 69  2  0  0  0
 57 58  2  0  0  0
 57127  1  0  0  0
 58128  1  0  0  0
 59 60  1  0  0  0
 59 61  1  0  0  0
 59 62  1  0  0  0
 60129  1  0  0  0
 60130  1  0  0  0
 60131  1  0  0  0
 61132  1  0  0  0
 61133  1  0  0  0
 61134  1  0  0  0
 62135  1  0  0  0
 62136  1  0  0  0
 62137  1  0  0  0
 63 65  1  0  0  0
 63138  1  0  0  0
 63139  1  0  0  0
 63140  1  0  0  0
 64141  1  0  0  0
 65142  1  0  0  0
 68 79  1  0  0  0
 71 74  2  0  0  0
 71 75  1  0  0  0
 71143  1  0  0  0
 72 74  1  0  0  0
 72 76  2  0  0  0
 72144  1  0  0  0
 73 75  2  0  0  0
 73 76  1  0  0  0
 73145  1  0  0  0
 74 78  1  0  0  0
 75 81  1  0  0  0
 76 82  1  0  0  0
 77 79  1  0  0  0
 77 80  2  0  0  0
 77146  1  0  0  0
 78 80  1  0  0  0
 78 83  2  0  0  0
 79147  1  0  0  0
 79148  1  0  0  0
 81149  1  0  0  0
 81150  1  0  0  0
 82151  1  0  0  0
 83152  1  0  0  0
 83153  1  0  0  0
M  CHG  1  83   1
M  ISO  4   1 100  68 101  79 101  82 100
M  END
> <chiral flag>
0

> <version>
0

> <s_m_source_file>
/data/baiqing/PycharmProjects/Reinvent-master-3.2/result/LINK_invent/BTK/process_docking_weight1_custom_product_contain_oxygen_bond_distance_aromatic_linkinvent_7_9_3/rearranged_h_0156.sdf

> <i_m_source_file_index>
30

> <r_mmod_Potential_Energy-OPLS-2005>
370.8291015625

> <r_mmod_Stretch_Energy-OPLS-2005>
157.32389831543

> <r_mmod_Bend_Energy-OPLS-2005>
203.48014831543

> <r_mmod_Torsional_Energy-OPLS-2005>
253.313522338867

> <r_mmod_Improper_Torsional_Energy-OPLS-2005>
15.0664463043213

> <r_mmod_Van_der_Waal_Energy-OPLS-2005>
140.856033325195

> <r_mmod_Electrostatic_Energy-OPLS-2005>
6.69482755661011

> <r_mmod_Solvation_Energy-OPLS-2005>
-518.22412109375

> <b_mmod_Minimization_Converged-OPLS-2005>
0

> <r_mmod_RMS_Derivative-OPLS-2005>
10.9360885620117

$$$$
30
                    3D
 Structure written by MMmdl.
153162  0  0  1  0            999 V2000
  -30.5813  -14.7518   20.4804 C   0  0  0  0  0  0
  -30.4439  -12.4604   19.4807 C   0  0  0  0  0  0
  -29.5176  -12.5174   18.2436 C   0  0  0  0  0  0
  -28.0427  -12.3374   18.6516 C   0  0  0  0  0  0
  -27.6485  -13.2270   19.8604 C   0  0  2  0  0  0
  -28.6897  -13.1312   20.9980 C   0  0  0  0  0  0
  -25.2543  -13.8185   20.5700 C   0  0  0  0  0  0
  -24.1818  -13.0437   20.9188 C   0  0  0  0  0  0
  -24.6396  -11.6912   20.8727 C   0  0  0  0  0  0
  -23.9064  -10.4294   21.0392 C   0  0  0  0  0  0
  -24.3614   -9.4210   21.9174 C   0  0  0  0  0  0
  -23.6291   -8.2245   22.0749 C   0  0  0  0  0  0
  -22.4275   -8.0278   21.3539 C   0  0  0  0  0  0
  -21.9907   -9.0249   20.4639 C   0  0  0  0  0  0
  -22.7233  -10.2128   20.3046 C   0  0  0  0  0  0
  -21.6852   -6.0734   22.5273 C   0  0  0  0  0  0
  -21.4011   -6.5636   23.8207 C   0  0  0  0  0  0
  -21.3658   -5.6787   24.9169 C   0  0  0  0  0  0
  -21.6047   -4.3053   24.7219 C   0  0  0  0  0  0
  -21.8819   -3.8143   23.4341 C   0  0  0  0  0  0
  -21.9195   -4.6961   22.3398 C   0  0  0  0  0  0
  -22.7840  -13.5227   21.1852 C   0  0  0  0  0  0
  -22.1663   -4.2149   21.0976 F   0  0  0  0  0  0
  -21.5629   -3.4538   25.7734 F   0  0  0  0  0  0
  -29.9957  -13.5033   20.4344 N   0  0  0  0  0  0
  -26.2968  -12.9380   20.3305 N   0  0  0  0  0  0
  -25.9332  -11.6526   20.5745 N   0  0  0  0  0  0
  -22.0484  -12.8219   22.0410 N   0  0  0  0  0  0
  -25.4259  -15.1909   20.4136 N   0  0  0  0  0  0
  -31.7401  -14.9003   20.0785 O   0  0  0  0  0  0
  -21.6638   -6.8876   21.4238 O   0  0  0  0  0  0
  -22.3525  -14.5537   20.6705 O   0  0  0  0  0  0
  -24.6325  -31.8544   23.1978 C   0  0  0  0  0  0
  -25.9146  -32.4759   23.8326 C   0  0  1  0  0  0
  -27.2133  -27.2453   20.1385 C   0  0  0  0  0  0
  -25.5932  -33.8559   24.2250 N   0  0  0  0  0  0
  -23.4301  -30.4779   21.5405 C   0  0  2  0  0  0
  -24.8777  -28.9258   20.1069 C   0  0  0  0  0  0
  -22.7514  -29.4601   22.4894 C   0  0  0  0  0  0
  -18.0292  -28.1405   22.8481 C   0  0  0  0  0  0
  -24.1484  -36.7271   23.2643 C   0  0  0  0  0  0
  -25.9778  -30.7625   21.3814 C   0  0  0  0  0  0
  -26.0489  -29.3846   20.7227 C   0  0  0  0  0  0
  -27.2195  -28.5570   20.7275 C   0  0  0  0  0  0
  -26.0247  -26.8696   19.4718 C   0  0  0  0  0  0
  -24.8724  -27.6779   19.4682 C   0  0  0  0  0  0
  -23.6496  -29.8142   20.1554 C   0  0  0  0  0  0
  -25.4114  -36.3067   24.0329 C   0  0  1  0  0  0
  -20.5897  -28.3711   23.1263 C   0  0  2  0  0  0
  -20.6787  -26.9426   22.5404 C   0  0  0  0  0  0
  -19.5756  -26.6385   21.5220 C   0  0  0  0  0  0
  -18.1933  -26.7944   22.1625 C   0  0  0  0  0  0
  -19.1549  -28.8873   23.2869 C   0  0  0  0  0  0
  -18.9474  -30.1472   23.8891 C   0  0  0  0  0  0
  -17.6475  -30.6603   24.0568 C   0  0  0  0  0  0
  -25.9053  -34.9440   23.5090 C   0  0  0  0  0  0
  -16.5362  -29.9100   23.6348 C   0  0  0  0  0  0
  -16.7279  -28.6521   23.0360 C   0  0  0  0  0  0
  -26.4501  -31.6595   25.0726 C   0  0  0  0  0  0
  -25.3711  -31.3765   26.1439 C   0  0  0  0  0  0
  -27.0351  -30.3009   24.6231 C   0  0  0  0  0  0
  -27.6052  -32.4341   25.7494 C   0  0  0  0  0  0
  -27.5572  -37.1792   24.8470 C   0  0  0  0  0  0
  -21.4215  -29.3056   22.3652 N   0  0  0  0  0  0
  -26.4285  -37.3769   23.9412 N   0  0  0  0  0  0
  -24.6994  -31.0499   22.0962 N   0  0  0  0  0  0
  -23.4212  -28.8139   23.2996 O   0  0  0  0  0  0
  -28.2901  -26.3253   20.2306 O   0  0  0  0  0  0
  -26.5629  -34.8919   22.4661 O   0  0  0  0  0  0
  -23.5470  -32.1367   23.7263 O   0  0  0  0  0  0
  -30.2412  -19.3891   19.6390 C   0  0  0  0  0  0
  -30.4373  -17.9416   19.6090 C   0  0  0  0  0  0
  -29.5270  -19.8811   20.7137 C   0  0  0  0  0  0
  -29.8573  -17.2150   20.6357 C   0  0  0  0  0  0
  -28.7773  -23.8523   21.1154 C   0  0  0  0  0  0
  -29.3135  -21.2978   21.2250 C   0  0  0  0  0  0
  -28.2870  -24.1154   18.8171 C   0  0  0  0  0  0
  -28.5037  -22.5972   19.1413 C   0  0  0  0  0  0
  -28.0126  -24.8328   20.1519 C   0  0  2  0  0  0
  -28.9224  -22.4778   20.5505 N   0  0  0  0  0  0
  -29.7937  -15.8265   20.8739 N   0  0  0  0  0  0
  -29.5630  -21.3956   22.5443 N   0  3  0  0  0  0
  -29.1419  -24.1568   22.2614 O   0  0  0  0  0  0
  -29.0330  -18.4359   21.6581 S   0  0  0  0  0  0
  -31.4827  -12.6012   19.1773 H   0  0  0  0  0  0
  -30.4038  -11.4754   19.9482 H   0  0  0  0  0  0
  -29.8027  -11.7495   17.5233 H   0  0  0  0  0  0
  -29.6429  -13.4750   17.7355 H   0  0  0  0  0  0
  -27.8984  -11.2865   18.9051 H   0  0  0  0  0  0
  -27.3870  -12.5376   17.8032 H   0  0  0  0  0  0
  -27.6510  -14.2546   19.4953 H   0  0  0  0  0  0
  -28.7248  -12.1186   21.4025 H   0  0  0  0  0  0
  -28.4150  -13.7783   21.8320 H   0  0  0  0  0  0
  -25.2757   -9.5690   22.4748 H   0  0  0  0  0  0
  -23.9997   -7.4639   22.7472 H   0  0  0  0  0  0
  -21.0838   -8.8762   19.8945 H   0  0  0  0  0  0
  -22.3685  -10.9666   19.6154 H   0  0  0  0  0  0
  -21.1996   -7.6141   23.9709 H   0  0  0  0  0  0
  -21.1481   -6.0517   25.9071 H   0  0  0  0  0  0
  -22.0601   -2.7606   23.2839 H   0  0  0  0  0  0
  -22.4096  -11.9878   22.4799 H   0  0  0  0  0  0
  -21.1099  -13.1240   22.2605 H   0  0  0  0  0  0
  -24.6601  -15.8465   20.5235 H   0  0  0  0  0  0
  -26.2748  -15.6287   20.0789 H   0  0  0  0  0  0
  -26.7210  -32.5400   23.1061 H   0  0  0  0  0  0
  -25.0090  -33.9700   25.0403 H   0  0  0  0  0  0
  -22.7272  -31.3006   21.3940 H   0  0  0  0  0  0
  -23.3759  -35.9591   23.3307 H   0  0  0  0  0  0
  -24.3567  -36.8891   22.2056 H   0  0  0  0  0  0
  -23.7223  -37.6464   23.6669 H   0  0  0  0  0  0
  -26.1204  -31.5231   20.6126 H   0  0  0  0  0  0
  -26.8550  -30.8092   22.0152 H   0  0  0  0  0  0
  -28.1116  -28.8985   21.2332 H   0  0  0  0  0  0
  -25.9541  -25.9226   18.9581 H   0  0  0  0  0  0
  -23.9793  -27.3264   18.9699 H   0  0  0  0  0  0
  -23.7757  -30.5920   19.4012 H   0  0  0  0  0  0
  -22.7681  -29.2481   19.8489 H   0  0  0  0  0  0
  -25.1299  -36.1906   25.0822 H   0  0  0  0  0  0
  -20.9989  -28.3291   24.1385 H   0  0  0  0  0  0
  -20.5704  -26.2324   23.3615 H   0  0  0  0  0  0
  -21.6653  -26.7454   22.1185 H   0  0  0  0  0  0
  -19.6921  -25.6294   21.1256 H   0  0  0  0  0  0
  -19.6700  -27.3195   20.6752 H   0  0  0  0  0  0
  -17.4207  -26.6699   21.4025 H   0  0  0  0  0  0
  -18.0322  -26.0090   22.9023 H   0  0  0  0  0  0
  -19.7949  -30.7291   24.2258 H   0  0  0  0  0  0
  -17.5029  -31.6285   24.5163 H   0  0  0  0  0  0
  -15.5366  -30.3006   23.7682 H   0  0  0  0  0  0
  -15.8672  -28.0842   22.7083 H   0  0  0  0  0  0
  -24.5873  -30.7140   25.7753 H   0  0  0  0  0  0
  -24.8926  -32.2952   26.4846 H   0  0  0  0  0  0
  -25.8001  -30.8931   27.0225 H   0  0  0  0  0  0
  -26.2943  -29.6750   24.1243 H   0  0  0  0  0  0
  -27.4019  -29.7280   25.4757 H   0  0  0  0  0  0
  -27.8825  -30.4286   23.9494 H   0  0  0  0  0  0
  -27.2672  -33.3673   26.2011 H   0  0  0  0  0  0
  -28.3891  -32.6846   25.0335 H   0  0  0  0  0  0
  -28.0686  -31.8504   26.5458 H   0  0  0  0  0  0
  -28.2593  -38.0085   24.7508 H   0  0  0  0  0  0
  -28.1065  -36.2614   24.6307 H   0  0  0  0  0  0
  -27.2287  -37.1447   25.8874 H   0  0  0  0  0  0
  -20.9413  -29.8772   21.6841 H   0  0  0  0  0  0
  -26.0160  -38.2841   24.1425 H   0  0  0  0  0  0
  -30.6918  -20.0200   18.8870 H   0  0  0  0  0  0
  -31.0060  -17.4874   18.8094 H   0  0  0  0  0  0
  -27.4550  -24.2482   18.1256 H   0  0  0  0  0  0
  -29.1741  -24.5292   18.3369 H   0  0  0  0  0  0
  -29.2454  -22.1519   18.4795 H   0  0  0  0  0  0
  -27.5743  -22.0421   19.0171 H   0  0  0  0  0  0
  -26.9755  -24.6576   20.4391 H   0  0  0  0  0  0
  -28.9574  -15.5312   21.3568 H   0  0  0  0  0  0
  -29.8616  -20.5921   23.0763 H   0  0  0  0  0  0
  -29.5114  -22.2943   23.0137 H   0  0  0  0  0  0
  1 25  1  0  0  0
  1 30  2  0  0  0
  1 81  1  0  0  0
  2  3  1  0  0  0
  2 25  1  0  0  0
  2 85  1  0  0  0
  2 86  1  0  0  0
  3  4  1  0  0  0
  3 87  1  0  0  0
  3 88  1  0  0  0
  4  5  1  0  0  0
  4 89  1  0  0  0
  4 90  1  0  0  0
  5  6  1  0  0  0
  5 26  1  0  0  0
  5 91  1  0  0  0
  6 25  1  0  0  0
  6 92  1  0  0  0
  6 93  1  0  0  0
  7  8  2  0  0  0
  7 26  1  0  0  0
  7 29  1  0  0  0
  8  9  1  0  0  0
  8 22  1  0  0  0
  9 10  1  0  0  0
  9 27  2  0  0  0
 10 11  2  0  0  0
 10 15  1  0  0  0
 11 12  1  0  0  0
 11 94  1  0  0  0
 12 13  2  0  0  0
 12 95  1  0  0  0
 13 14  1  0  0  0
 13 31  1  0  0  0
 14 15  2  0  0  0
 14 96  1  0  0  0
 15 97  1  0  0  0
 16 17  2  0  0  0
 16 21  1  0  0  0
 16 31  1  0  0  0
 17 18  1  0  0  0
 17 98  1  0  0  0
 18 19  2  0  0  0
 18 99  1  0  0  0
 19 20  1  0  0  0
 19 24  1  0  0  0
 20 21  2  0  0  0
 20100  1  0  0  0
 21 23  1  0  0  0
 22 28  1  0  0  0
 22 32  2  0  0  0
 26 27  1  0  0  0
 28101  1  0  0  0
 28102  1  0  0  0
 29103  1  0  0  0
 29104  1  0  0  0
 33 34  1  0  0  0
 33 66  1  0  0  0
 33 70  2  0  0  0
 34 36  1  0  0  0
 34 59  1  0  0  0
 34105  1  0  0  0
 35 44  2  0  0  0
 35 45  1  0  0  0
 35 68  1  0  0  0
 36 56  1  0  0  0
 36106  1  0  0  0
 37 39  1  0  0  0
 37 47  1  0  0  0
 37 66  1  0  0  0
 37107  1  0  0  0
 38 43  2  0  0  0
 38 46  1  0  0  0
 38 47  1  0  0  0
 39 64  1  0  0  0
 39 67  2  0  0  0
 40 52  1  0  0  0
 40 53  2  0  0  0
 40 58  1  0  0  0
 41108  1  0  0  0
 41109  1  0  0  0
 41110  1  0  0  0
 41 48  1  0  0  0
 42 43  1  0  0  0
 42 66  1  0  0  0
 42111  1  0  0  0
 42112  1  0  0  0
 43 44  1  0  0  0
 44113  1  0  0  0
 45 46  2  0  0  0
 45114  1  0  0  0
 46115  1  0  0  0
 47116  1  0  0  0
 47117  1  0  0  0
 48 56  1  0  0  0
 48 65  1  0  0  0
 48118  1  0  0  0
 49 50  1  0  0  0
 49 53  1  0  0  0
 49 64  1  0  0  0
 49119  1  0  0  0
 50 51  1  0  0  0
 50120  1  0  0  0
 50121  1  0  0  0
 51 52  1  0  0  0
 51122  1  0  0  0
 51123  1  0  0  0
 52124  1  0  0  0
 52125  1  0  0  0
 53 54  1  0  0  0
 54 55  2  0  0  0
 54126  1  0  0  0
 55 57  1  0  0  0
 55127  1  0  0  0
 56 69  2  0  0  0
 57 58  2  0  0  0
 57128  1  0  0  0
 58129  1  0  0  0
 59 60  1  0  0  0
 59 61  1  0  0  0
 59 62  1  0  0  0
 60130  1  0  0  0
 60131  1  0  0  0
 60132  1  0  0  0
 61133  1  0  0  0
 61134  1  0  0  0
 61135  1  0  0  0
 62136  1  0  0  0
 62137  1  0  0  0
 62138  1  0  0  0
 63 65  1  0  0  0
 63139  1  0  0  0
 63140  1  0  0  0
 63141  1  0  0  0
 64142  1  0  0  0
 65143  1  0  0  0
 68 79  1  0  0  0
 71 72  1  0  0  0
 71 73  2  0  0  0
 71144  1  0  0  0
 72 74  2  0  0  0
 72145  1  0  0  0
 73 76  1  0  0  0
 73 84  1  0  0  0
 74 81  1  0  0  0
 74 84  1  0  0  0
 75 79  1  0  0  0
 75 80  1  0  0  0
 75 83  2  0  0  0
 76 80  1  0  0  0
 76 82  2  0  0  0
 77 78  1  0  0  0
 77 79  1  0  0  0
 77146  1  0  0  0
 77147  1  0  0  0
 78 80  1  0  0  0
 78148  1  0  0  0
 78149  1  0  0  0
 79150  1  0  0  0
 81151  1  0  0  0
 82152  1  0  0  0
 82153  1  0  0  0
M  CHG  1  82   1
M  ISO  4   1 100  68 101  79 101  81 100
M  END
> <chiral flag>
0

> <version>
0

> <s_m_source_file>
/data/baiqing/PycharmProjects/Reinvent-master-3.2/result/LINK_invent/BTK/process_docking_weight1_custom_product_contain_oxygen_bond_distance_aromatic_linkinvent_7_9_3/rearranged_h_0156.sdf

> <i_m_source_file_index>
31

> <r_mmod_Potential_Energy-OPLS-2005>
108.427070617676

> <r_mmod_Stretch_Energy-OPLS-2005>
119.678520202637

> <r_mmod_Bend_Energy-OPLS-2005>
209.973526000977

> <r_mmod_Torsional_Energy-OPLS-2005>
255.238677978516

> <r_mmod_Improper_Torsional_Energy-OPLS-2005>
4.46701622009277

> <r_mmod_Van_der_Waal_Energy-OPLS-2005>
122.284324645996

> <r_mmod_Electrostatic_Energy-OPLS-2005>
-231.351974487305

> <r_mmod_Solvation_Energy-OPLS-2005>
-465.288879394531

> <b_mmod_Minimization_Converged-OPLS-2005>
0

> <r_mmod_RMS_Derivative-OPLS-2005>
1.08984422683716

$$$$
31
                    3D
 Structure written by MMmdl.
156164  0  0  1  0            999 V2000
  -30.7139  -14.5062   20.5674 C   0  0  0  0  0  0
  -30.4253  -12.3255   19.4302 C   0  0  0  0  0  0
  -29.4950  -12.4707   18.2086 C   0  0  0  0  0  0
  -28.0148  -12.3569   18.6240 C   0  0  0  0  0  0
  -27.6589  -13.2126   19.8698 C   0  0  2  0  0  0
  -28.7049  -13.0284   20.9904 C   0  0  0  0  0  0
  -25.2606  -13.8177   20.5722 C   0  0  0  0  0  0
  -24.1858  -13.0447   20.9204 C   0  0  0  0  0  0
  -24.6424  -11.6914   20.8767 C   0  0  0  0  0  0
  -23.9085  -10.4299   21.0421 C   0  0  0  0  0  0
  -24.3631   -9.4206   21.9196 C   0  0  0  0  0  0
  -23.6305   -8.2238   22.0752 C   0  0  0  0  0  0
  -22.4283   -8.0282   21.3547 C   0  0  0  0  0  0
  -21.9931   -9.0260   20.4647 C   0  0  0  0  0  0
  -22.7262  -10.2142   20.3064 C   0  0  0  0  0  0
  -21.6849   -6.0738   22.5283 C   0  0  0  0  0  0
  -21.4008   -6.5646   23.8214 C   0  0  0  0  0  0
  -21.3659   -5.6804   24.9181 C   0  0  0  0  0  0
  -21.6037   -4.3065   24.7234 C   0  0  0  0  0  0
  -21.8815   -3.8155   23.4356 C   0  0  0  0  0  0
  -21.9198   -4.6969   22.3413 C   0  0  0  0  0  0
  -22.7882  -13.5233   21.1864 C   0  0  0  0  0  0
  -22.1661   -4.2154   21.0992 F   0  0  0  0  0  0
  -21.5629   -3.4551   25.7746 F   0  0  0  0  0  0
  -30.0256  -13.3373   20.4229 N   0  0  0  0  0  0
  -26.3034  -12.9351   20.3385 N   0  0  0  0  0  0
  -25.9353  -11.6507   20.5799 N   0  0  0  0  0  0
  -22.0517  -12.8210   22.0399 N   0  0  0  0  0  0
  -25.4365  -15.1884   20.4153 N   0  0  0  0  0  0
  -31.8584  -14.6542   20.1294 O   0  0  0  0  0  0
  -21.6637   -6.8884   21.4241 O   0  0  0  0  0  0
  -22.3570  -14.5546   20.6714 O   0  0  0  0  0  0
  -24.6169  -31.8686   23.2051 C   0  0  0  0  0  0
  -25.9046  -32.4835   23.8377 C   0  0  1  0  0  0
  -27.2313  -27.4045   20.1125 C   0  0  0  0  0  0
  -25.5905  -33.8625   24.2323 N   0  0  0  0  0  0
  -23.4071  -30.4888   21.5488 C   0  0  2  0  0  0
  -24.8541  -28.9469   20.1168 C   0  0  0  0  0  0
  -22.7431  -29.4664   22.4989 C   0  0  0  0  0  0
  -18.0286  -28.1399   22.8509 C   0  0  0  0  0  0
  -24.1487  -36.7291   23.2645 C   0  0  0  0  0  0
  -25.9377  -30.8253   21.3603 C   0  0  0  0  0  0
  -26.0166  -29.4552   20.7115 C   0  0  0  0  0  0
  -27.2112  -28.6938   20.7007 C   0  0  0  0  0  0
  -26.0543  -26.9175   19.5061 C   0  0  0  0  0  0
  -24.8703  -27.6795   19.5079 C   0  0  0  0  0  0
  -23.6164  -29.8163   20.1659 C   0  0  0  0  0  0
  -25.4116  -36.3120   24.0345 C   0  0  1  0  0  0
  -20.5881  -28.3688   23.1321 C   0  0  2  0  0  0
  -20.6768  -26.9422   22.5422 C   0  0  0  0  0  0
  -19.5737  -26.6403   21.5226 C   0  0  0  0  0  0
  -18.1920  -26.7948   22.1640 C   0  0  0  0  0  0
  -19.1535  -28.8859   23.2911 C   0  0  0  0  0  0
  -18.9458  -30.1471   23.8912 C   0  0  0  0  0  0
  -17.6454  -30.6595   24.0589 C   0  0  0  0  0  0
  -25.9036  -34.9482   23.5126 C   0  0  0  0  0  0
  -16.5348  -29.9100   23.6341 C   0  0  0  0  0  0
  -16.7274  -28.6525   23.0352 C   0  0  0  0  0  0
  -26.4461  -31.6613   25.0704 C   0  0  0  0  0  0
  -25.3710  -31.3734   26.1445 C   0  0  0  0  0  0
  -27.0290  -30.3066   24.6055 C   0  0  0  0  0  0
  -27.6055  -32.4331   25.7453 C   0  0  0  0  0  0
  -27.5580  -37.1827   24.8491 C   0  0  0  0  0  0
  -21.4156  -29.3037   22.3711 N   0  0  0  0  0  0
  -26.4319  -37.3790   23.9395 N   0  0  0  0  0  0
  -24.6725  -31.0757   22.0963 N   0  0  0  0  0  0
  -23.4181  -28.8203   23.3044 O   0  0  0  0  0  0
  -28.3720  -26.6252   20.1209 O   0  0  0  0  0  0
  -26.5594  -34.8929   22.4687 O   0  0  0  0  0  0
  -23.5350  -32.1455   23.7418 O   0  0  0  0  0  0
  -29.0399  -17.5411   17.9692 C   0  0  0  0  0  0
  -28.8526  -18.8350   18.4796 C   0  0  0  0  0  0
  -29.4284  -16.4897   18.8135 C   0  0  0  0  0  0
  -29.4293  -18.0250   20.7025 C   0  0  0  0  0  0
  -29.0676  -19.1135   19.8501 C   0  0  0  0  0  0
  -29.6321  -16.6965   20.2003 C   0  0  0  0  0  0
  -28.6441  -22.8210   20.5203 C   0  0  0  0  0  0
  -28.6212  -24.0959   20.0264 C   0  0  0  0  0  0
  -29.0152  -21.6363   19.7285 C   0  0  0  0  0  0
  -30.1202  -15.8035   22.4985 C   0  0  0  0  0  0
  -28.2593  -25.3619   20.8299 C   0  0  0  0  0  0
  -28.8831  -20.4477   20.3790 N   0  0  0  0  0  0
  -30.0269  -15.5829   21.0514 N   0  0  0  0  0  0
  -29.4443  -21.7164   18.5726 O   0  0  0  0  0  0
  -28.9228  -24.4174   18.7564 O   0  0  0  0  0  0
  -31.4676  -12.4253   19.1233 H   0  0  0  0  0  0
  -30.3405  -11.3273   19.8620 H   0  0  0  0  0  0
  -29.7287  -11.7015   17.4718 H   0  0  0  0  0  0
  -29.6719  -13.4217   17.7085 H   0  0  0  0  0  0
  -27.8181  -11.3055   18.8352 H   0  0  0  0  0  0
  -27.3676  -12.6227   17.7872 H   0  0  0  0  0  0
  -27.6907  -14.2554   19.5568 H   0  0  0  0  0  0
  -28.6966  -12.0019   21.3597 H   0  0  0  0  0  0
  -28.4654  -13.6560   21.8494 H   0  0  0  0  0  0
  -25.2773   -9.5665   22.4782 H   0  0  0  0  0  0
  -24.0015   -7.4615   22.7462 H   0  0  0  0  0  0
  -21.0866   -8.8784   19.8946 H   0  0  0  0  0  0
  -22.3726  -10.9686   19.6173 H   0  0  0  0  0  0
  -21.1982   -7.6149   23.9715 H   0  0  0  0  0  0
  -21.1482   -6.0536   25.9082 H   0  0  0  0  0  0
  -22.0591   -2.7618   23.2861 H   0  0  0  0  0  0
  -22.4127  -11.9849   22.4756 H   0  0  0  0  0  0
  -21.1135  -13.1233   22.2609 H   0  0  0  0  0  0
  -24.6809  -15.8537   20.5348 H   0  0  0  0  0  0
  -26.3025  -15.6217   20.1192 H   0  0  0  0  0  0
  -26.7119  -32.5545   23.1144 H   0  0  0  0  0  0
  -25.0087  -33.9798   25.0490 H   0  0  0  0  0  0
  -22.6966  -31.3054   21.4064 H   0  0  0  0  0  0
  -23.3743  -35.9641   23.3405 H   0  0  0  0  0  0
  -24.3554  -36.8787   22.2038 H   0  0  0  0  0  0
  -23.7256  -37.6533   23.6578 H   0  0  0  0  0  0
  -26.0489  -31.5866   20.5866 H   0  0  0  0  0  0
  -26.8260  -30.8857   21.9766 H   0  0  0  0  0  0
  -28.1080  -29.0823   21.1626 H   0  0  0  0  0  0
  -26.0555  -25.9450   19.0329 H   0  0  0  0  0  0
  -23.9785  -27.2838   19.0408 H   0  0  0  0  0  0
  -23.7251  -30.5877   19.4033 H   0  0  0  0  0  0
  -22.7393  -29.2364   19.8751 H   0  0  0  0  0  0
  -25.1307  -36.2009   25.0845 H   0  0  0  0  0  0
  -20.9995  -28.3256   24.1436 H   0  0  0  0  0  0
  -20.5692  -26.2290   23.3602 H   0  0  0  0  0  0
  -21.6639  -26.7469   22.1208 H   0  0  0  0  0  0
  -19.6888  -25.6320   21.1246 H   0  0  0  0  0  0
  -19.6670  -27.3218   20.6760 H   0  0  0  0  0  0
  -17.4195  -26.6731   21.4034 H   0  0  0  0  0  0
  -18.0300  -26.0086   22.9027 H   0  0  0  0  0  0
  -19.7922  -30.7306   24.2272 H   0  0  0  0  0  0
  -17.5002  -31.6279   24.5189 H   0  0  0  0  0  0
  -15.5346  -30.3005   23.7649 H   0  0  0  0  0  0
  -15.8679  -28.0850   22.7049 H   0  0  0  0  0  0
  -24.5865  -30.7109   25.7764 H   0  0  0  0  0  0
  -24.8911  -32.2896   26.4901 H   0  0  0  0  0  0
  -25.8037  -30.8883   27.0199 H   0  0  0  0  0  0
  -26.2828  -29.6837   24.1104 H   0  0  0  0  0  0
  -27.4084  -29.7293   25.4494 H   0  0  0  0  0  0
  -27.8647  -30.4415   23.9182 H   0  0  0  0  0  0
  -27.2700  -33.3615   26.2086 H   0  0  0  0  0  0
  -28.3816  -32.6930   25.0242 H   0  0  0  0  0  0
  -28.0774  -31.8426   26.5311 H   0  0  0  0  0  0
  -28.2699  -38.0028   24.7452 H   0  0  0  0  0  0
  -28.0983  -36.2571   24.6455 H   0  0  0  0  0  0
  -27.2285  -37.1648   25.8894 H   0  0  0  0  0  0
  -20.9313  -29.8741   21.6920 H   0  0  0  0  0  0
  -26.0223  -38.2893   24.1315 H   0  0  0  0  0  0
  -28.8851  -17.3511   16.9167 H   0  0  0  0  0  0
  -28.5325  -19.6054   17.7924 H   0  0  0  0  0  0
  -29.5616  -15.5185   18.3652 H   0  0  0  0  0  0
  -29.5707  -18.2308   21.7535 H   0  0  0  0  0  0
  -28.3770  -22.6833   21.5590 H   0  0  0  0  0  0
  -30.3861  -14.8977   23.0479 H   0  0  0  0  0  0
  -29.1645  -16.1497   22.8944 H   0  0  0  0  0  0
  -30.8839  -16.5500   22.7208 H   0  0  0  0  0  0
  -28.9470  -25.4145   21.6749 H   0  0  0  0  0  0
  -27.2689  -25.2242   21.2675 H   0  0  0  0  0  0
  -28.6352  -20.5067   21.3571 H   0  0  0  0  0  0
  -29.1584  -23.6078   18.3105 H   0  0  0  0  0  0
  1 25  1  0  0  0
  1 30  2  0  0  0
  1 83  1  0  0  0
  2  3  1  0  0  0
  2 25  1  0  0  0
  2 86  1  0  0  0
  2 87  1  0  0  0
  3  4  1  0  0  0
  3 88  1  0  0  0
  3 89  1  0  0  0
  4  5  1  0  0  0
  4 90  1  0  0  0
  4 91  1  0  0  0
  5  6  1  0  0  0
  5 26  1  0  0  0
  5 92  1  0  0  0
  6 25  1  0  0  0
  6 93  1  0  0  0
  6 94  1  0  0  0
  7  8  2  0  0  0
  7 26  1  0  0  0
  7 29  1  0  0  0
  8  9  1  0  0  0
  8 22  1  0  0  0
  9 10  1  0  0  0
  9 27  2  0  0  0
 10 11  2  0  0  0
 10 15  1  0  0  0
 11 12  1  0  0  0
 11 95  1  0  0  0
 12 13  2  0  0  0
 12 96  1  0  0  0
 13 14  1  0  0  0
 13 31  1  0  0  0
 14 15  2  0  0  0
 14 97  1  0  0  0
 15 98  1  0  0  0
 16 17  2  0  0  0
 16 21  1  0  0  0
 16 31  1  0  0  0
 17 18  1  0  0  0
 17 99  1  0  0  0
 18 19  2  0  0  0
 18100  1  0  0  0
 19 20  1  0  0  0
 19 24  1  0  0  0
 20 21  2  0  0  0
 20101  1  0  0  0
 21 23  1  0  0  0
 22 28  1  0  0  0
 22 32  2  0  0  0
 26 27  1  0  0  0
 28102  1  0  0  0
 28103  1  0  0  0
 29104  1  0  0  0
 29105  1  0  0  0
 33 34  1  0  0  0
 33 66  1  0  0  0
 33 70  2  0  0  0
 34 36  1  0  0  0
 34 59  1  0  0  0
 34106  1  0  0  0
 35 44  2  0  0  0
 35 45  1  0  0  0
 35 68  1  0  0  0
 36 56  1  0  0  0
 36107  1  0  0  0
 37 39  1  0  0  0
 37 47  1  0  0  0
 37 66  1  0  0  0
 37108  1  0  0  0
 38 43  2  0  0  0
 38 46  1  0  0  0
 38 47  1  0  0  0
 39 64  1  0  0  0
 39 67  2  0  0  0
 40 52  1  0  0  0
 40 53  2  0  0  0
 40 58  1  0  0  0
 41109  1  0  0  0
 41110  1  0  0  0
 41111  1  0  0  0
 41 48  1  0  0  0
 42 43  1  0  0  0
 42 66  1  0  0  0
 42112  1  0  0  0
 42113  1  0  0  0
 43 44  1  0  0  0
 44114  1  0  0  0
 45 46  2  0  0  0
 45115  1  0  0  0
 46116  1  0  0  0
 47117  1  0  0  0
 47118  1  0  0  0
 48 56  1  0  0  0
 48 65  1  0  0  0
 48119  1  0  0  0
 49 50  1  0  0  0
 49 53  1  0  0  0
 49 64  1  0  0  0
 49120  1  0  0  0
 50 51  1  0  0  0
 50121  1  0  0  0
 50122  1  0  0  0
 51 52  1  0  0  0
 51123  1  0  0  0
 51124  1  0  0  0
 52125  1  0  0  0
 52126  1  0  0  0
 53 54  1  0  0  0
 54 55  2  0  0  0
 54127  1  0  0  0
 55 57  1  0  0  0
 55128  1  0  0  0
 56 69  2  0  0  0
 57 58  2  0  0  0
 57129  1  0  0  0
 58130  1  0  0  0
 59 60  1  0  0  0
 59 61  1  0  0  0
 59 62  1  0  0  0
 60131  1  0  0  0
 60132  1  0  0  0
 60133  1  0  0  0
 61134  1  0  0  0
 61135  1  0  0  0
 61136  1  0  0  0
 62137  1  0  0  0
 62138  1  0  0  0
 62139  1  0  0  0
 63 65  1  0  0  0
 63140  1  0  0  0
 63141  1  0  0  0
 63142  1  0  0  0
 64143  1  0  0  0
 65144  1  0  0  0
 68 81  1  0  0  0
 71 72  2  0  0  0
 71 73  1  0  0  0
 71145  1  0  0  0
 72 75  1  0  0  0
 72146  1  0  0  0
 73 76  2  0  0  0
 73147  1  0  0  0
 74 75  2  0  0  0
 74 76  1  0  0  0
 74148  1  0  0  0
 75 82  1  0  0  0
 76 83  1  0  0  0
 77 78  2  0  0  0
 77 79  1  0  0  0
 77149  1  0  0  0
 78 81  1  0  0  0
 78 85  1  0  0  0
 79 82  1  0  0  0
 79 84  2  0  0  0
 80 83  1  0  0  0
 80150  1  0  0  0
 80151  1  0  0  0
 80152  1  0  0  0
 81153  1  0  0  0
 81154  1  0  0  0
 82155  1  0  0  0
 85156  1  0  0  0
M  ISO  4   1 100  68 101  81 101  83 100
M  END
> <chiral flag>
0

> <version>
0

> <s_m_source_file>
/data/baiqing/PycharmProjects/Reinvent-master-3.2/result/LINK_invent/BTK/process_docking_weight1_custom_product_contain_oxygen_bond_distance_aromatic_linkinvent_7_9_3/rearranged_h_0156.sdf

> <i_m_source_file_index>
32

> <r_mmod_Potential_Energy-OPLS-2005>
120.860534667969

> <r_mmod_Stretch_Energy-OPLS-2005>
53.7276077270508

> <r_mmod_Bend_Energy-OPLS-2005>
103.287628173828

> <r_mmod_Torsional_Energy-OPLS-2005>
296.368316650391

> <r_mmod_Improper_Torsional_Energy-OPLS-2005>
4.78342247009277

> <r_mmod_Van_der_Waal_Energy-OPLS-2005>
163.553009033203

> <r_mmod_Electrostatic_Energy-OPLS-2005>
-297.883972167969

> <r_mmod_Solvation_Energy-OPLS-2005>
-222.019958496094

> <b_mmod_Minimization_Converged-OPLS-2005>
0

> <r_mmod_RMS_Derivative-OPLS-2005>
1.99741208553314

$$$$
32
                    3D
 Structure written by MMmdl.
154162  0  0  1  0            999 V2000
  -30.6740  -14.6782   20.4472 C   0  0  0  0  0  0
  -30.4157  -12.4124   19.4691 C   0  0  0  0  0  0
  -29.5034  -12.5212   18.2308 C   0  0  0  0  0  0
  -28.0258  -12.3707   18.6359 C   0  0  0  0  0  0
  -27.6449  -13.2449   19.8617 C   0  0  2  0  0  0
  -28.6944  -13.1654   20.9933 C   0  0  0  0  0  0
  -25.2517  -13.8232   20.5764 C   0  0  0  0  0  0
  -24.1812  -13.0436   20.9218 C   0  0  0  0  0  0
  -24.6421  -11.6933   20.8744 C   0  0  0  0  0  0
  -23.9096  -10.4301   21.0404 C   0  0  0  0  0  0
  -24.3640   -9.4211   21.9184 C   0  0  0  0  0  0
  -23.6311   -8.2245   22.0773 C   0  0  0  0  0  0
  -22.4283   -8.0295   21.3567 C   0  0  0  0  0  0
  -21.9925   -9.0260   20.4655 C   0  0  0  0  0  0
  -22.7264  -10.2132   20.3062 C   0  0  0  0  0  0
  -21.6837   -6.0741   22.5282 C   0  0  0  0  0  0
  -21.4006   -6.5653   23.8214 C   0  0  0  0  0  0
  -21.3659   -5.6804   24.9175 C   0  0  0  0  0  0
  -21.6018   -4.3058   24.7219 C   0  0  0  0  0  0
  -21.8817   -3.8154   23.4334 C   0  0  0  0  0  0
  -21.9192   -4.6970   22.3391 C   0  0  0  0  0  0
  -22.7812  -13.5203   21.1854 C   0  0  0  0  0  0
  -22.1675   -4.2164   21.0968 F   0  0  0  0  0  0
  -21.5634   -3.4545   25.7726 F   0  0  0  0  0  0
  -30.0017  -13.4802   20.4065 N   0  0  0  0  0  0
  -26.2967  -12.9472   20.3389 N   0  0  0  0  0  0
  -25.9360  -11.6583   20.5777 N   0  0  0  0  0  0
  -22.0465  -12.8182   22.0419 N   0  0  0  0  0  0
  -25.4161  -15.1956   20.4216 N   0  0  0  0  0  0
  -31.8614  -14.7273   20.1186 O   0  0  0  0  0  0
  -21.6638   -6.8886   21.4253 O   0  0  0  0  0  0
  -22.3485  -14.5508   20.6700 O   0  0  0  0  0  0
  -24.6281  -31.8585   23.2038 C   0  0  0  0  0  0
  -25.9129  -32.4781   23.8361 C   0  0  1  0  0  0
  -27.2186  -27.2897   20.1091 C   0  0  0  0  0  0
  -25.5943  -33.8574   24.2295 N   0  0  0  0  0  0
  -23.4235  -30.4864   21.5459 C   0  0  2  0  0  0
  -24.8709  -28.9456   20.1073 C   0  0  0  0  0  0
  -22.7476  -29.4621   22.4903 C   0  0  0  0  0  0
  -18.0296  -28.1375   22.8510 C   0  0  0  0  0  0
  -24.1493  -36.7295   23.2638 C   0  0  0  0  0  0
  -25.9716  -30.7776   21.3858 C   0  0  0  0  0  0
  -26.0415  -29.4053   20.7234 C   0  0  0  0  0  0
  -27.2154  -28.5879   20.7186 C   0  0  0  0  0  0
  -26.0245  -26.9074   19.4501 C   0  0  0  0  0  0
  -24.8667  -27.7037   19.4608 C   0  0  0  0  0  0
  -23.6415  -29.8283   20.1591 C   0  0  0  0  0  0
  -25.4123  -36.3097   24.0336 C   0  0  1  0  0  0
  -20.5892  -28.3695   23.1272 C   0  0  2  0  0  0
  -20.6787  -26.9406   22.5412 C   0  0  0  0  0  0
  -19.5761  -26.6371   21.5220 C   0  0  0  0  0  0
  -18.1933  -26.7924   22.1628 C   0  0  0  0  0  0
  -19.1544  -28.8855   23.2897 C   0  0  0  0  0  0
  -18.9458  -30.1457   23.8910 C   0  0  0  0  0  0
  -17.6455  -30.6578   24.0564 C   0  0  0  0  0  0
  -25.9056  -34.9463   23.5123 C   0  0  0  0  0  0
  -16.5351  -29.9076   23.6323 C   0  0  0  0  0  0
  -16.7281  -28.6488   23.0367 C   0  0  0  0  0  0
  -26.4502  -31.6589   25.0729 C   0  0  0  0  0  0
  -25.3710  -31.3740   26.1434 C   0  0  0  0  0  0
  -27.0339  -30.2998   24.6216 C   0  0  0  0  0  0
  -27.6053  -32.4318   25.7509 C   0  0  0  0  0  0
  -27.5597  -37.1806   24.8459 C   0  0  0  0  0  0
  -21.4190  -29.3052   22.3646 N   0  0  0  0  0  0
  -26.4305  -37.3788   23.9409 N   0  0  0  0  0  0
  -24.6936  -31.0566   22.1020 N   0  0  0  0  0  0
  -23.4190  -28.8144   23.2970 O   0  0  0  0  0  0
  -28.3269  -26.4127   20.1890 O   0  0  0  0  0  0
  -26.5603  -34.8916   22.4672 O   0  0  0  0  0  0
  -23.5437  -32.1394   23.7342 O   0  0  0  0  0  0
  -29.9167  -20.7571   21.4912 C   0  0  0  0  0  0
  -30.2972  -19.3532   21.5403 C   0  0  0  0  0  0
  -29.9570  -18.6021   20.4308 C   0  0  0  0  0  0
  -29.2745  -21.1508   20.3356 C   0  0  0  0  0  0
  -28.5828  -25.0284   18.2309 C   0  0  0  0  0  0
  -30.4310  -17.1763   19.9752 C   0  0  0  0  0  0
  -29.0265  -23.7954   20.4540 C   0  0  0  0  0  0
  -28.2214  -24.9931   19.7266 C   0  0  1  0  0  0
  -31.0304  -18.8625   22.6295 N   0  0  0  0  0  0
  -28.7685  -22.4229   19.8830 N   0  0  0  0  0  0
  -29.9650  -15.8548   20.5680 N   0  0  0  0  0  0
  -29.1074  -19.7017   19.3173 S   0  0  0  0  0  0
  -31.4628  -12.4934   19.1754 H   0  0  0  0  0  0
  -30.3142  -11.4287   19.9298 H   0  0  0  0  0  0
  -29.7661  -11.7648   17.4913 H   0  0  0  0  0  0
  -29.6560  -13.4884   17.7481 H   0  0  0  0  0  0
  -27.8508  -11.3179   18.8564 H   0  0  0  0  0  0
  -27.3829  -12.6193   17.7898 H   0  0  0  0  0  0
  -27.6396  -14.2743   19.5016 H   0  0  0  0  0  0
  -28.7078  -12.1675   21.4334 H   0  0  0  0  0  0
  -28.4516  -13.8568   21.8029 H   0  0  0  0  0  0
  -25.2788   -9.5667   22.4745 H   0  0  0  0  0  0
  -24.0001   -7.4616   22.7491 H   0  0  0  0  0  0
  -21.0864   -8.8756   19.8947 H   0  0  0  0  0  0
  -22.3725  -10.9661   19.6169 H   0  0  0  0  0  0
  -21.2015   -7.6159   23.9710 H   0  0  0  0  0  0
  -21.1497   -6.0550   25.9073 H   0  0  0  0  0  0
  -22.0600   -2.7619   23.2821 H   0  0  0  0  0  0
  -22.4116  -11.9852   22.4788 H   0  0  0  0  0  0
  -21.1083  -13.1181   22.2651 H   0  0  0  0  0  0
  -24.6407  -15.8411   20.5236 H   0  0  0  0  0  0
  -26.2635  -15.6450   20.0970 H   0  0  0  0  0  0
  -26.7182  -32.5450   23.1094 H   0  0  0  0  0  0
  -25.0141  -33.9715   25.0479 H   0  0  0  0  0  0
  -22.7219  -31.3110   21.4037 H   0  0  0  0  0  0
  -23.3768  -35.9608   23.3285 H   0  0  0  0  0  0
  -24.3592  -36.8923   22.2054 H   0  0  0  0  0  0
  -23.7207  -37.6483   23.6655 H   0  0  0  0  0  0
  -26.1116  -31.5407   20.6190 H   0  0  0  0  0  0
  -26.8495  -30.8203   22.0189 H   0  0  0  0  0  0
  -28.1116  -28.9332   21.2172 H   0  0  0  0  0  0
  -25.9374  -25.9758   18.9149 H   0  0  0  0  0  0
  -23.9761  -27.3529   18.9575 H   0  0  0  0  0  0
  -23.7612  -30.6080   19.4055 H   0  0  0  0  0  0
  -22.7603  -29.2594   19.8564 H   0  0  0  0  0  0
  -25.1290  -36.1973   25.0828 H   0  0  0  0  0  0
  -21.0024  -28.3278   24.1379 H   0  0  0  0  0  0
  -20.5687  -26.2297   23.3620 H   0  0  0  0  0  0
  -21.6655  -26.7425   22.1201 H   0  0  0  0  0  0
  -19.6916  -25.6277   21.1264 H   0  0  0  0  0  0
  -19.6701  -27.3174   20.6746 H   0  0  0  0  0  0
  -17.4211  -26.6701   21.4021 H   0  0  0  0  0  0
  -18.0318  -26.0045   22.9003 H   0  0  0  0  0  0
  -19.7926  -30.7280   24.2279 H   0  0  0  0  0  0
  -17.4997  -31.6260   24.5158 H   0  0  0  0  0  0
  -15.5348  -30.2985   23.7617 H   0  0  0  0  0  0
  -15.8686  -28.0801   22.7080 H   0  0  0  0  0  0
  -24.5892  -30.7092   25.7746 H   0  0  0  0  0  0
  -24.8890  -32.2914   26.4821 H   0  0  0  0  0  0
  -25.7998  -30.8926   27.0234 H   0  0  0  0  0  0
  -26.2926  -29.6752   24.1218 H   0  0  0  0  0  0
  -27.3991  -29.7249   25.4741 H   0  0  0  0  0  0
  -27.8825  -30.4256   23.9483 H   0  0  0  0  0  0
  -27.2662  -33.3617   26.2085 H   0  0  0  0  0  0
  -28.3874  -32.6879   25.0348 H   0  0  0  0  0  0
  -28.0717  -31.8442   26.5432 H   0  0  0  0  0  0
  -28.2592  -38.0129   24.7545 H   0  0  0  0  0  0
  -28.1121  -36.2659   24.6246 H   0  0  0  0  0  0
  -27.2318  -37.1411   25.8861 H   0  0  0  0  0  0
  -20.9336  -29.8789   21.6889 H   0  0  0  0  0  0
  -26.0202  -38.2867   24.1403 H   0  0  0  0  0  0
  -30.1508  -21.4323   22.3021 H   0  0  0  0  0  0
  -28.4801  -24.0484   17.7676 H   0  0  0  0  0  0
  -29.6142  -25.3509   18.0887 H   0  0  0  0  0  0
  -27.9464  -25.7133   17.6707 H   0  0  0  0  0  0
  -31.5200  -17.1961   20.0266 H   0  0  0  0  0  0
  -30.2219  -17.0978   18.9071 H   0  0  0  0  0  0
  -28.7649  -23.7817   21.5135 H   0  0  0  0  0  0
  -30.0981  -23.9986   20.4088 H   0  0  0  0  0  0
  -27.1897  -24.6705   19.8439 H   0  0  0  0  0  0
  -31.5240  -19.5251   23.2210 H   0  0  0  0  0  0
  -31.5217  -17.9808   22.5203 H   0  0  0  0  0  0
  -28.3190  -22.4334   18.9700 H   0  0  0  0  0  0
  -28.9871  -15.7748   20.8037 H   0  0  0  0  0  0
  1 25  1  0  0  0
  1 30  2  0  0  0
  1 81  1  0  0  0
  2  3  1  0  0  0
  2 25  1  0  0  0
  2 83  1  0  0  0
  2 84  1  0  0  0
  3  4  1  0  0  0
  3 85  1  0  0  0
  3 86  1  0  0  0
  4  5  1  0  0  0
  4 87  1  0  0  0
  4 88  1  0  0  0
  5  6  1  0  0  0
  5 26  1  0  0  0
  5 89  1  0  0  0
  6 25  1  0  0  0
  6 90  1  0  0  0
  6 91  1  0  0  0
  7  8  2  0  0  0
  7 26  1  0  0  0
  7 29  1  0  0  0
  8  9  1  0  0  0
  8 22  1  0  0  0
  9 10  1  0  0  0
  9 27  2  0  0  0
 10 11  2  0  0  0
 10 15  1  0  0  0
 11 12  1  0  0  0
 11 92  1  0  0  0
 12 13  2  0  0  0
 12 93  1  0  0  0
 13 14  1  0  0  0
 13 31  1  0  0  0
 14 15  2  0  0  0
 14 94  1  0  0  0
 15 95  1  0  0  0
 16 17  2  0  0  0
 16 21  1  0  0  0
 16 31  1  0  0  0
 17 18  1  0  0  0
 17 96  1  0  0  0
 18 19  2  0  0  0
 18 97  1  0  0  0
 19 20  1  0  0  0
 19 24  1  0  0  0
 20 21  2  0  0  0
 20 98  1  0  0  0
 21 23  1  0  0  0
 22 28  1  0  0  0
 22 32  2  0  0  0
 26 27  1  0  0  0
 28 99  1  0  0  0
 28100  1  0  0  0
 29101  1  0  0  0
 29102  1  0  0  0
 33 34  1  0  0  0
 33 66  1  0  0  0
 33 70  2  0  0  0
 34 36  1  0  0  0
 34 59  1  0  0  0
 34103  1  0  0  0
 35 44  2  0  0  0
 35 45  1  0  0  0
 35 68  1  0  0  0
 36 56  1  0  0  0
 36104  1  0  0  0
 37 39  1  0  0  0
 37 47  1  0  0  0
 37 66  1  0  0  0
 37105  1  0  0  0
 38 43  2  0  0  0
 38 46  1  0  0  0
 38 47  1  0  0  0
 39 64  1  0  0  0
 39 67  2  0  0  0
 40 52  1  0  0  0
 40 53  2  0  0  0
 40 58  1  0  0  0
 41106  1  0  0  0
 41107  1  0  0  0
 41108  1  0  0  0
 41 48  1  0  0  0
 42 43  1  0  0  0
 42 66  1  0  0  0
 42109  1  0  0  0
 42110  1  0  0  0
 43 44  1  0  0  0
 44111  1  0  0  0
 45 46  2  0  0  0
 45112  1  0  0  0
 46113  1  0  0  0
 47114  1  0  0  0
 47115  1  0  0  0
 48 56  1  0  0  0
 48 65  1  0  0  0
 48116  1  0  0  0
 49 50  1  0  0  0
 49 53  1  0  0  0
 49 64  1  0  0  0
 49117  1  0  0  0
 50 51  1  0  0  0
 50118  1  0  0  0
 50119  1  0  0  0
 51 52  1  0  0  0
 51120  1  0  0  0
 51121  1  0  0  0
 52122  1  0  0  0
 52123  1  0  0  0
 53 54  1  0  0  0
 54 55  2  0  0  0
 54124  1  0  0  0
 55 57  1  0  0  0
 55125  1  0  0  0
 56 69  2  0  0  0
 57 58  2  0  0  0
 57126  1  0  0  0
 58127  1  0  0  0
 59 60  1  0  0  0
 59 61  1  0  0  0
 59 62  1  0  0  0
 60128  1  0  0  0
 60129  1  0  0  0
 60130  1  0  0  0
 61131  1  0  0  0
 61132  1  0  0  0
 61133  1  0  0  0
 62134  1  0  0  0
 62135  1  0  0  0
 62136  1  0  0  0
 63 65  1  0  0  0
 63137  1  0  0  0
 63138  1  0  0  0
 63139  1  0  0  0
 64140  1  0  0  0
 65141  1  0  0  0
 68 78  1  0  0  0
 71 72  1  0  0  0
 71 74  2  0  0  0
 71142  1  0  0  0
 72 73  2  0  0  0
 72 79  1  0  0  0
 73 76  1  0  0  0
 73 82  1  0  0  0
 74 80  1  0  0  0
 74 82  1  0  0  0
 75143  1  0  0  0
 75144  1  0  0  0
 75145  1  0  0  0
 75 78  1  0  0  0
 76 81  1  0  0  0
 76146  1  0  0  0
 76147  1  0  0  0
 77 78  1  0  0  0
 77 80  1  0  0  0
 77148  1  0  0  0
 77149  1  0  0  0
 78150  1  0  0  0
 79151  1  0  0  0
 79152  1  0  0  0
 80153  1  0  0  0
 81154  1  0  0  0
M  ISO  4   1 100  68 101  78 101  81 100
M  END
> <chiral flag>
0

> <version>
0

> <s_m_source_file>
/data/baiqing/PycharmProjects/Reinvent-master-3.2/result/LINK_invent/BTK/process_docking_weight1_custom_product_contain_oxygen_bond_distance_aromatic_linkinvent_7_9_3/rearranged_h_0156.sdf

> <i_m_source_file_index>
33

> <r_mmod_Potential_Energy-OPLS-2005>
102.497932434082

> <r_mmod_Stretch_Energy-OPLS-2005>
95.9896697998047

> <r_mmod_Bend_Energy-OPLS-2005>
174.132690429688

> <r_mmod_Torsional_Energy-OPLS-2005>
217.348754882812

> <r_mmod_Improper_Torsional_Energy-OPLS-2005>
12.6774120330811

> <r_mmod_Van_der_Waal_Energy-OPLS-2005>
126.675514221191

> <r_mmod_Electrostatic_Energy-OPLS-2005>
-364.778717041016

> <r_mmod_Solvation_Energy-OPLS-2005>
-225.94270324707

> <b_mmod_Minimization_Converged-OPLS-2005>
0

> <r_mmod_RMS_Derivative-OPLS-2005>
3.36951756477356

$$$$
33
                    3D
 Structure written by MMmdl.
149157  0  0  1  0            999 V2000
  -30.6147  -14.7199   20.4714 C   0  0  0  0  0  0
  -30.4331  -12.4384   19.4687 C   0  0  0  0  0  0
  -29.5057  -12.4959   18.2341 C   0  0  0  0  0  0
  -28.0327  -12.3206   18.6514 C   0  0  0  0  0  0
  -27.6417  -13.2234   19.8506 C   0  0  2  0  0  0
  -28.6871  -13.1449   20.9862 C   0  0  0  0  0  0
  -25.2514  -13.8186   20.5688 C   0  0  0  0  0  0
  -24.1800  -13.0442   20.9210 C   0  0  0  0  0  0
  -24.6380  -11.6916   20.8757 C   0  0  0  0  0  0
  -23.9061  -10.4296   21.0415 C   0  0  0  0  0  0
  -24.3612   -9.4206   21.9189 C   0  0  0  0  0  0
  -23.6287   -8.2241   22.0753 C   0  0  0  0  0  0
  -22.4274   -8.0276   21.3540 C   0  0  0  0  0  0
  -21.9908   -9.0253   20.4643 C   0  0  0  0  0  0
  -22.7237  -10.2134   20.3059 C   0  0  0  0  0  0
  -21.6851   -6.0734   22.5273 C   0  0  0  0  0  0
  -21.4013   -6.5639   23.8206 C   0  0  0  0  0  0
  -21.3657   -5.6793   24.9168 C   0  0  0  0  0  0
  -21.6043   -4.3057   24.7221 C   0  0  0  0  0  0
  -21.8819   -3.8146   23.4345 C   0  0  0  0  0  0
  -21.9192   -4.6960   22.3400 C   0  0  0  0  0  0
  -22.7822  -13.5223   21.1874 C   0  0  0  0  0  0
  -22.1660   -4.2149   21.0977 F   0  0  0  0  0  0
  -21.5630   -3.4539   25.7734 F   0  0  0  0  0  0
  -29.9921  -13.4937   20.4078 N   0  0  0  0  0  0
  -26.2927  -12.9375   20.3273 N   0  0  0  0  0  0
  -25.9311  -11.6532   20.5770 N   0  0  0  0  0  0
  -22.0469  -12.8206   22.0424 N   0  0  0  0  0  0
  -25.4225  -15.1908   20.4090 N   0  0  0  0  0  0
  -31.8032  -14.8180   20.1481 O   0  0  0  0  0  0
  -21.6636   -6.8877   21.4236 O   0  0  0  0  0  0
  -22.3507  -14.5532   20.6726 O   0  0  0  0  0  0
  -24.6300  -31.8565   23.2002 C   0  0  0  0  0  0
  -25.9134  -32.4757   23.8337 C   0  0  1  0  0  0
  -27.2213  -27.2767   20.1224 C   0  0  0  0  0  0
  -25.5937  -33.8559   24.2262 N   0  0  0  0  0  0
  -23.4262  -30.4806   21.5429 C   0  0  2  0  0  0
  -24.8740  -28.9328   20.1093 C   0  0  0  0  0  0
  -22.7498  -29.4610   22.4907 C   0  0  0  0  0  0
  -18.0289  -28.1379   22.8470 C   0  0  0  0  0  0
  -24.1493  -36.7284   23.2641 C   0  0  0  0  0  0
  -25.9724  -30.7740   21.3786 C   0  0  0  0  0  0
  -26.0465  -29.3994   20.7173 C   0  0  0  0  0  0
  -27.2236  -28.5852   20.7124 C   0  0  0  0  0  0
  -26.0232  -26.8796   19.4818 C   0  0  0  0  0  0
  -24.8676  -27.6811   19.4795 C   0  0  0  0  0  0
  -23.6444  -29.8172   20.1582 C   0  0  0  0  0  0
  -25.4118  -36.3069   24.0335 C   0  0  1  0  0  0
  -20.5894  -28.3692   23.1260 C   0  0  2  0  0  0
  -20.6775  -26.9408   22.5400 C   0  0  0  0  0  0
  -19.5756  -26.6379   21.5197 C   0  0  0  0  0  0
  -18.1933  -26.7920   22.1612 C   0  0  0  0  0  0
  -19.1545  -28.8853   23.2856 C   0  0  0  0  0  0
  -18.9470  -30.1448   23.8884 C   0  0  0  0  0  0
  -17.6473  -30.6579   24.0560 C   0  0  0  0  0  0
  -25.9060  -34.9439   23.5098 C   0  0  0  0  0  0
  -16.5363  -29.9078   23.6333 C   0  0  0  0  0  0
  -16.7279  -28.6500   23.0349 C   0  0  0  0  0  0
  -26.4505  -31.6585   25.0727 C   0  0  0  0  0  0
  -25.3732  -31.3742   26.1455 C   0  0  0  0  0  0
  -27.0359  -30.3003   24.6213 C   0  0  0  0  0  0
  -27.6055  -32.4337   25.7492 C   0  0  0  0  0  0
  -27.5582  -37.1788   24.8462 C   0  0  0  0  0  0
  -21.4208  -29.3049   22.3659 N   0  0  0  0  0  0
  -26.4291  -37.3768   23.9419 N   0  0  0  0  0  0
  -24.6954  -31.0537   22.0972 N   0  0  0  0  0  0
  -23.4208  -28.8143   23.2993 O   0  0  0  0  0  0
  -28.3117  -26.3789   20.1889 O   0  0  0  0  0  0
  -26.5625  -34.8911   22.4661 O   0  0  0  0  0  0
  -23.5456  -32.1383   23.7307 O   0  0  0  0  0  0
  -31.3163  -19.2387   20.6260 C   0  0  0  0  0  0
  -30.0929  -19.8888   20.5824 C   0  0  0  0  0  0
  -30.0703  -17.2845   20.6278 C   0  0  0  0  0  0
  -29.1162  -23.8362   20.3932 C   0  0  0  0  0  0
  -28.8094  -22.2600   20.3272 C   0  0  0  0  0  0
  -28.0057  -24.9171   20.0229 C   0  0  0  0  0  0
  -31.2992  -17.8257   20.6355 N   0  0  0  0  0  0
  -32.5397  -19.9089   20.6695 N   0  0  0  0  0  0
  -29.9757  -21.3389   20.5856 N   0  0  0  0  0  0
  -29.8125  -15.8272   20.6896 N   0  0  0  0  0  0
  -30.2490  -24.2065   20.7243 O   0  0  0  0  0  0
  -28.8329  -18.6191   20.5788 S   0  0  0  0  0  0
  -31.4729  -12.5643   19.1625 H   0  0  0  0  0  0
  -30.3781  -11.4605   19.9501 H   0  0  0  0  0  0
  -29.7850  -11.7213   17.5186 H   0  0  0  0  0  0
  -29.6298  -13.4494   17.7190 H   0  0  0  0  0  0
  -27.8941  -11.2736   18.9229 H   0  0  0  0  0  0
  -27.3718  -12.5039   17.8033 H   0  0  0  0  0  0
  -27.6393  -14.2441   19.4686 H   0  0  0  0  0  0
  -28.7170  -12.1426   21.4164 H   0  0  0  0  0  0
  -28.4226  -13.8179   21.8033 H   0  0  0  0  0  0
  -25.2761   -9.5679   22.4763 H   0  0  0  0  0  0
  -23.9996   -7.4631   22.7474 H   0  0  0  0  0  0
  -21.0842   -8.8776   19.8948 H   0  0  0  0  0  0
  -22.3699  -10.9675   19.6168 H   0  0  0  0  0  0
  -21.2005   -7.6145   23.9706 H   0  0  0  0  0  0
  -21.1480   -6.0525   25.9070 H   0  0  0  0  0  0
  -22.0603   -2.7609   23.2842 H   0  0  0  0  0  0
  -22.4096  -11.9866   22.4803 H   0  0  0  0  0  0
  -21.1088  -13.1231   22.2649 H   0  0  0  0  0  0
  -24.6526  -15.8430   20.5145 H   0  0  0  0  0  0
  -26.2564  -15.6259   20.0372 H   0  0  0  0  0  0
  -26.7197  -32.5405   23.1075 H   0  0  0  0  0  0
  -25.0092  -33.9700   25.0411 H   0  0  0  0  0  0
  -22.7224  -31.3030   21.3968 H   0  0  0  0  0  0
  -23.3762  -35.9609   23.3294 H   0  0  0  0  0  0
  -24.3586  -36.8920   22.2056 H   0  0  0  0  0  0
  -23.7238  -37.6478   23.6675 H   0  0  0  0  0  0
  -26.1119  -31.5380   20.6129 H   0  0  0  0  0  0
  -26.8502  -30.8189   22.0124 H   0  0  0  0  0  0
  -28.1195  -28.9371   21.2043 H   0  0  0  0  0  0
  -25.9400  -25.9247   18.9848 H   0  0  0  0  0  0
  -23.9708  -27.3206   18.9941 H   0  0  0  0  0  0
  -23.7685  -30.5956   19.4043 H   0  0  0  0  0  0
  -22.7633  -29.2506   19.8508 H   0  0  0  0  0  0
  -25.1290  -36.1920   25.0830 H   0  0  0  0  0  0
  -20.9972  -28.3268   24.1386 H   0  0  0  0  0  0
  -20.5655  -26.2305   23.3604 H   0  0  0  0  0  0
  -21.6639  -26.7417   22.1203 H   0  0  0  0  0  0
  -19.6925  -25.6289   21.1231 H   0  0  0  0  0  0
  -19.6704  -27.3183   20.6721 H   0  0  0  0  0  0
  -17.4199  -26.6666   21.4014 H   0  0  0  0  0  0
  -18.0336  -26.0055   22.9004 H   0  0  0  0  0  0
  -19.7954  -30.7250   24.2256 H   0  0  0  0  0  0
  -17.5037  -31.6259   24.5157 H   0  0  0  0  0  0
  -15.5362  -30.2976   23.7668 H   0  0  0  0  0  0
  -15.8679  -28.0816   22.7068 H   0  0  0  0  0  0
  -24.5905  -30.7088   25.7790 H   0  0  0  0  0  0
  -24.8925  -32.2912   26.4865 H   0  0  0  0  0  0
  -25.8049  -30.8932   27.0240 H   0  0  0  0  0  0
  -26.2943  -29.6737   24.1244 H   0  0  0  0  0  0
  -27.4049  -29.7278   25.4733 H   0  0  0  0  0  0
  -27.8815  -30.4279   23.9455 H   0  0  0  0  0  0
  -27.2660  -33.3649   26.2039 H   0  0  0  0  0  0
  -28.3869  -32.6886   25.0319 H   0  0  0  0  0  0
  -28.0719  -31.8491   26.5430 H   0  0  0  0  0  0
  -28.2579  -38.0102   24.7514 H   0  0  0  0  0  0
  -28.1095  -36.2629   24.6273 H   0  0  0  0  0  0
  -27.2302  -37.1417   25.8865 H   0  0  0  0  0  0
  -20.9393  -29.8796   21.6888 H   0  0  0  0  0  0
  -26.0174  -38.2844   24.1426 H   0  0  0  0  0  0
  -28.3971  -22.0411   19.3413 H   0  0  0  0  0  0
  -28.0190  -22.0431   21.0465 H   0  0  0  0  0  0
  -27.1235  -24.6735   20.6156 H   0  0  0  0  0  0
  -27.7454  -24.7396   18.9798 H   0  0  0  0  0  0
  -32.5272  -20.8665   20.9964 H   0  0  0  0  0  0
  -33.3492  -19.3872   20.9834 H   0  0  0  0  0  0
  -30.8609  -21.8386   20.5727 H   0  0  0  0  0  0
  -28.8494  -15.5902   20.8626 H   0  0  0  0  0  0
  1 25  1  0  0  0
  1 30  2  0  0  0
  1 80  1  0  0  0
  2  3  1  0  0  0
  2 25  1  0  0  0
  2 83  1  0  0  0
  2 84  1  0  0  0
  3  4  1  0  0  0
  3 85  1  0  0  0
  3 86  1  0  0  0
  4  5  1  0  0  0
  4 87  1  0  0  0
  4 88  1  0  0  0
  5  6  1  0  0  0
  5 26  1  0  0  0
  5 89  1  0  0  0
  6 25  1  0  0  0
  6 90  1  0  0  0
  6 91  1  0  0  0
  7  8  2  0  0  0
  7 26  1  0  0  0
  7 29  1  0  0  0
  8  9  1  0  0  0
  8 22  1  0  0  0
  9 10  1  0  0  0
  9 27  2  0  0  0
 10 11  2  0  0  0
 10 15  1  0  0  0
 11 12  1  0  0  0
 11 92  1  0  0  0
 12 13  2  0  0  0
 12 93  1  0  0  0
 13 14  1  0  0  0
 13 31  1  0  0  0
 14 15  2  0  0  0
 14 94  1  0  0  0
 15 95  1  0  0  0
 16 17  2  0  0  0
 16 21  1  0  0  0
 16 31  1  0  0  0
 17 18  1  0  0  0
 17 96  1  0  0  0
 18 19  2  0  0  0
 18 97  1  0  0  0
 19 20  1  0  0  0
 19 24  1  0  0  0
 20 21  2  0  0  0
 20 98  1  0  0  0
 21 23  1  0  0  0
 22 28  1  0  0  0
 22 32  2  0  0  0
 26 27  1  0  0  0
 28 99  1  0  0  0
 28100  1  0  0  0
 29101  1  0  0  0
 29102  1  0  0  0
 33 34  1  0  0  0
 33 66  1  0  0  0
 33 70  2  0  0  0
 34 36  1  0  0  0
 34 59  1  0  0  0
 34103  1  0  0  0
 35 44  2  0  0  0
 35 45  1  0  0  0
 35 68  1  0  0  0
 36 56  1  0  0  0
 36104  1  0  0  0
 37 39  1  0  0  0
 37 47  1  0  0  0
 37 66  1  0  0  0
 37105  1  0  0  0
 38 43  2  0  0  0
 38 46  1  0  0  0
 38 47  1  0  0  0
 39 64  1  0  0  0
 39 67  2  0  0  0
 40 52  1  0  0  0
 40 53  2  0  0  0
 40 58  1  0  0  0
 41106  1  0  0  0
 41107  1  0  0  0
 41108  1  0  0  0
 41 48  1  0  0  0
 42 43  1  0  0  0
 42 66  1  0  0  0
 42109  1  0  0  0
 42110  1  0  0  0
 43 44  1  0  0  0
 44111  1  0  0  0
 45 46  2  0  0  0
 45112  1  0  0  0
 46113  1  0  0  0
 47114  1  0  0  0
 47115  1  0  0  0
 48 56  1  0  0  0
 48 65  1  0  0  0
 48116  1  0  0  0
 49 50  1  0  0  0
 49 53  1  0  0  0
 49 64  1  0  0  0
 49117  1  0  0  0
 50 51  1  0  0  0
 50118  1  0  0  0
 50119  1  0  0  0
 51 52  1  0  0  0
 51120  1  0  0  0
 51121  1  0  0  0
 52122  1  0  0  0
 52123  1  0  0  0
 53 54  1  0  0  0
 54 55  2  0  0  0
 54124  1  0  0  0
 55 57  1  0  0  0
 55125  1  0  0  0
 56 69  2  0  0  0
 57 58  2  0  0  0
 57126  1  0  0  0
 58127  1  0  0  0
 59 60  1  0  0  0
 59 61  1  0  0  0
 59 62  1  0  0  0
 60128  1  0  0  0
 60129  1  0  0  0
 60130  1  0  0  0
 61131  1  0  0  0
 61132  1  0  0  0
 61133  1  0  0  0
 62134  1  0  0  0
 62135  1  0  0  0
 62136  1  0  0  0
 63 65  1  0  0  0
 63137  1  0  0  0
 63138  1  0  0  0
 63139  1  0  0  0
 64140  1  0  0  0
 65141  1  0  0  0
 68 76  1  0  0  0
 71 72  2  0  0  0
 71 77  1  0  0  0
 71 78  1  0  0  0
 72 79  1  0  0  0
 72 82  1  0  0  0
 73 77  2  0  0  0
 73 80  1  0  0  0
 73 82  1  0  0  0
 74 75  1  0  0  0
 74 76  1  0  0  0
 74 81  2  0  0  0
 75 79  1  0  0  0
 75142  1  0  0  0
 75143  1  0  0  0
 76144  1  0  0  0
 76145  1  0  0  0
 78146  1  0  0  0
 78147  1  0  0  0
 79148  1  0  0  0
 80149  1  0  0  0
M  ISO  4   1 100  68 101  76 101  80 100
M  END
> <chiral flag>
0

> <version>
0

> <s_m_source_file>
/data/baiqing/PycharmProjects/Reinvent-master-3.2/result/LINK_invent/BTK/process_docking_weight1_custom_product_contain_oxygen_bond_distance_aromatic_linkinvent_7_9_3/rearranged_h_0156.sdf

> <i_m_source_file_index>
34

> <r_mmod_Potential_Energy-OPLS-2005>
35.7672805786133

> <r_mmod_Stretch_Energy-OPLS-2005>
104.856491088867

> <r_mmod_Bend_Energy-OPLS-2005>
177.126602172852

> <r_mmod_Torsional_Energy-OPLS-2005>
197.910293579102

> <r_mmod_Improper_Torsional_Energy-OPLS-2005>
8.99618148803711

> <r_mmod_Van_der_Waal_Energy-OPLS-2005>
123.123634338379

> <r_mmod_Electrostatic_Energy-OPLS-2005>
-379.316528320312

> <r_mmod_Solvation_Energy-OPLS-2005>
-273.726654052734

> <b_mmod_Minimization_Converged-OPLS-2005>
0

> <r_mmod_RMS_Derivative-OPLS-2005>
1.15006816387177

$$$$
34
                    3D
 Structure written by MMmdl.
160168  0  0  1  0            999 V2000
  -30.7074  -14.4941   20.5075 C   0  0  0  0  0  0
  -30.4106  -12.3017   19.4379 C   0  0  0  0  0  0
  -29.4919  -12.4826   18.2123 C   0  0  0  0  0  0
  -28.0129  -12.3525   18.6244 C   0  0  0  0  0  0
  -27.6538  -13.2138   19.8655 C   0  0  2  0  0  0
  -28.6970  -13.0405   20.9931 C   0  0  0  0  0  0
  -25.2555  -13.8178   20.5686 C   0  0  0  0  0  0
  -24.1820  -13.0445   20.9202 C   0  0  0  0  0  0
  -24.6383  -11.6914   20.8753 C   0  0  0  0  0  0
  -23.9054  -10.4293   21.0413 C   0  0  0  0  0  0
  -24.3609   -9.4208   21.9186 C   0  0  0  0  0  0
  -23.6288   -8.2241   22.0754 C   0  0  0  0  0  0
  -22.4272   -8.0278   21.3545 C   0  0  0  0  0  0
  -21.9903   -9.0252   20.4648 C   0  0  0  0  0  0
  -22.7229  -10.2135   20.3059 C   0  0  0  0  0  0
  -21.6849   -6.0733   22.5279 C   0  0  0  0  0  0
  -21.4012   -6.5638   23.8213 C   0  0  0  0  0  0
  -21.3658   -5.6793   24.9175 C   0  0  0  0  0  0
  -21.6044   -4.3055   24.7229 C   0  0  0  0  0  0
  -21.8820   -3.8145   23.4351 C   0  0  0  0  0  0
  -21.9193   -4.6960   22.3406 C   0  0  0  0  0  0
  -22.7842  -13.5237   21.1862 C   0  0  0  0  0  0
  -22.1660   -4.2144   21.0983 F   0  0  0  0  0  0
  -21.5631   -3.4539   25.7743 F   0  0  0  0  0  0
  -30.0246  -13.3202   20.4284 N   0  0  0  0  0  0
  -26.2983  -12.9357   20.3337 N   0  0  0  0  0  0
  -25.9310  -11.6514   20.5775 N   0  0  0  0  0  0
  -22.0482  -12.8225   22.0418 N   0  0  0  0  0  0
  -25.4272  -15.1894   20.4074 N   0  0  0  0  0  0
  -31.8819  -14.5737   20.1465 O   0  0  0  0  0  0
  -21.6639   -6.8873   21.4240 O   0  0  0  0  0  0
  -22.3528  -14.5543   20.6713 O   0  0  0  0  0  0
  -24.6146  -31.8686   23.2098 C   0  0  0  0  0  0
  -25.9042  -32.4827   23.8395 C   0  0  1  0  0  0
  -27.2290  -27.4344   20.1009 C   0  0  0  0  0  0
  -25.5901  -33.8624   24.2328 N   0  0  0  0  0  0
  -23.4019  -30.4914   21.5515 C   0  0  2  0  0  0
  -24.8472  -28.9550   20.1154 C   0  0  0  0  0  0
  -22.7405  -29.4661   22.5006 C   0  0  0  0  0  0
  -18.0272  -28.1367   22.8496 C   0  0  0  0  0  0
  -24.1486  -36.7316   23.2639 C   0  0  0  0  0  0
  -25.9296  -30.8350   21.3607 C   0  0  0  0  0  0
  -26.0078  -29.4688   20.7087 C   0  0  0  0  0  0
  -27.2054  -28.7172   20.6938 C   0  0  0  0  0  0
  -26.0546  -26.9315   19.5046 C   0  0  0  0  0  0
  -24.8651  -27.6859   19.5091 C   0  0  0  0  0  0
  -23.6090  -29.8225   20.1662 C   0  0  0  0  0  0
  -25.4108  -36.3115   24.0337 C   0  0  1  0  0  0
  -20.5858  -28.3656   23.1326 C   0  0  2  0  0  0
  -20.6763  -26.9396   22.5421 C   0  0  0  0  0  0
  -19.5744  -26.6381   21.5215 C   0  0  0  0  0  0
  -18.1920  -26.7914   22.1622 C   0  0  0  0  0  0
  -19.1520  -28.8829   23.2904 C   0  0  0  0  0  0
  -18.9450  -30.1436   23.8911 C   0  0  0  0  0  0
  -17.6453  -30.6580   24.0565 C   0  0  0  0  0  0
  -25.9036  -34.9480   23.5130 C   0  0  0  0  0  0
  -16.5345  -29.9083   23.6326 C   0  0  0  0  0  0
  -16.7261  -28.6495   23.0353 C   0  0  0  0  0  0
  -26.4468  -31.6604   25.0720 C   0  0  0  0  0  0
  -25.3740  -31.3699   26.1474 C   0  0  0  0  0  0
  -27.0297  -30.3053   24.6075 C   0  0  0  0  0  0
  -27.6051  -32.4319   25.7477 C   0  0  0  0  0  0
  -27.5579  -37.1812   24.8464 C   0  0  0  0  0  0
  -21.4134  -29.3027   22.3736 N   0  0  0  0  0  0
  -26.4295  -37.3798   23.9404 N   0  0  0  0  0  0
  -24.6670  -31.0790   22.0993 N   0  0  0  0  0  0
  -23.4179  -28.8209   23.3048 O   0  0  0  0  0  0
  -28.3839  -26.6854   20.0936 O   0  0  0  0  0  0
  -26.5601  -34.8933   22.4692 O   0  0  0  0  0  0
  -23.5343  -32.1440   23.7496 O   0  0  0  0  0  0
  -31.4194  -17.4257   19.8626 C   0  0  0  0  0  0
  -30.6547  -19.7427   19.9046 C   0  0  0  0  0  0
  -29.2736  -17.9741   20.8620 C   0  0  0  0  0  0
  -31.6255  -18.7860   19.5612 C   0  0  0  0  0  0
  -30.2415  -16.9843   20.5228 C   0  0  0  0  0  0
  -29.4611  -19.3519   20.5452 C   0  0  0  0  0  0
  -32.8476  -19.2066   18.8830 C   0  0  0  0  0  0
  -28.3741  -22.8708   20.8358 C   0  0  0  0  0  0
  -28.3023  -24.1786   20.0174 C   0  0  0  0  0  0
  -28.2848  -21.5359   20.0613 C   0  0  0  0  0  0
  -28.3348  -25.4745   20.8703 C   0  0  0  0  0  0
  -33.2965  -18.5388   17.8235 N   0  0  0  0  0  0
  -29.9767  -15.5916   20.8260 N   0  0  0  0  0  0
  -28.4834  -20.3161   20.8743 N   0  0  0  0  0  0
  -33.5270  -20.2672   19.3116 N   0  3  0  0  0  0
  -28.4945  -22.8804   22.0657 O   0  0  0  0  0  0
  -31.4574  -12.3753   19.1374 H   0  0  0  0  0  0
  -30.2953  -11.3031   19.8620 H   0  0  0  0  0  0
  -29.7309  -11.7398   17.4500 H   0  0  0  0  0  0
  -29.6657  -13.4580   17.7550 H   0  0  0  0  0  0
  -27.8248  -11.2998   18.8389 H   0  0  0  0  0  0
  -27.3633  -12.6101   17.7870 H   0  0  0  0  0  0
  -27.6837  -14.2536   19.5401 H   0  0  0  0  0  0
  -28.6720  -12.0217   21.3833 H   0  0  0  0  0  0
  -28.4706  -13.6891   21.8407 H   0  0  0  0  0  0
  -25.2750   -9.5688   22.4763 H   0  0  0  0  0  0
  -23.9999   -7.4633   22.7470 H   0  0  0  0  0  0
  -21.0834   -8.8767   19.8952 H   0  0  0  0  0  0
  -22.3678  -10.9676   19.6172 H   0  0  0  0  0  0
  -21.1998   -7.6145   23.9714 H   0  0  0  0  0  0
  -21.1479   -6.0523   25.9080 H   0  0  0  0  0  0
  -22.0600   -2.7605   23.2856 H   0  0  0  0  0  0
  -22.4092  -11.9881   22.4800 H   0  0  0  0  0  0
  -21.1104  -13.1254   22.2634 H   0  0  0  0  0  0
  -24.6568  -15.8422   20.5040 H   0  0  0  0  0  0
  -26.2674  -15.6217   20.0455 H   0  0  0  0  0  0
  -26.7118  -32.5534   23.1164 H   0  0  0  0  0  0
  -25.0049  -33.9780   25.0472 H   0  0  0  0  0  0
  -22.6908  -31.3087   21.4131 H   0  0  0  0  0  0
  -23.3746  -35.9652   23.3311 H   0  0  0  0  0  0
  -24.3577  -36.8917   22.2053 H   0  0  0  0  0  0
  -23.7242  -37.6524   23.6648 H   0  0  0  0  0  0
  -26.0397  -31.6006   20.5921 H   0  0  0  0  0  0
  -26.8182  -30.8893   21.9773 H   0  0  0  0  0  0
  -28.1039  -29.1100   21.1489 H   0  0  0  0  0  0
  -26.0587  -25.9605   19.0316 H   0  0  0  0  0  0
  -23.9723  -27.2854   19.0483 H   0  0  0  0  0  0
  -23.7162  -30.5967   19.4060 H   0  0  0  0  0  0
  -22.7322  -29.2430   19.8722 H   0  0  0  0  0  0
  -25.1285  -36.1982   25.0832 H   0  0  0  0  0  0
  -20.9950  -28.3223   24.1445 H   0  0  0  0  0  0
  -20.5673  -26.2266   23.3606 H   0  0  0  0  0  0
  -21.6638  -26.7452   22.1208 H   0  0  0  0  0  0
  -19.6912  -25.6298   21.1235 H   0  0  0  0  0  0
  -19.6680  -27.3205   20.6754 H   0  0  0  0  0  0
  -17.4193  -26.6670   21.4019 H   0  0  0  0  0  0
  -18.0312  -26.0050   22.9011 H   0  0  0  0  0  0
  -19.7931  -30.7241   24.2293 H   0  0  0  0  0  0
  -17.5016  -31.6267   24.5157 H   0  0  0  0  0  0
  -15.5348  -30.2993   23.7642 H   0  0  0  0  0  0
  -15.8657  -28.0822   22.7065 H   0  0  0  0  0  0
  -24.5907  -30.7051   25.7809 H   0  0  0  0  0  0
  -24.8940  -32.2851   26.4952 H   0  0  0  0  0  0
  -25.8103  -30.8849   27.0216 H   0  0  0  0  0  0
  -26.2831  -29.6810   24.1154 H   0  0  0  0  0  0
  -27.4104  -29.7287   25.4513 H   0  0  0  0  0  0
  -27.8648  -30.4376   23.9192 H   0  0  0  0  0  0
  -27.2677  -33.3614   26.2075 H   0  0  0  0  0  0
  -28.3848  -32.6883   25.0291 H   0  0  0  0  0  0
  -28.0732  -31.8429   26.5372 H   0  0  0  0  0  0
  -28.2612  -38.0098   24.7512 H   0  0  0  0  0  0
  -28.1060  -36.2631   24.6297 H   0  0  0  0  0  0
  -27.2294  -37.1471   25.8868 H   0  0  0  0  0  0
  -20.9298  -29.8744   21.6952 H   0  0  0  0  0  0
  -26.0187  -38.2875   24.1406 H   0  0  0  0  0  0
  -32.2062  -16.7511   19.5687 H   0  0  0  0  0  0
  -30.8460  -20.7789   19.6678 H   0  0  0  0  0  0
  -28.3635  -17.6705   21.3587 H   0  0  0  0  0  0
  -27.3972  -24.1495   19.4124 H   0  0  0  0  0  0
  -29.1409  -24.1827   19.3217 H   0  0  0  0  0  0
  -28.9574  -21.5799   19.2060 H   0  0  0  0  0  0
  -27.2834  -21.4881   19.6321 H   0  0  0  0  0  0
  -29.2309  -25.4709   21.4922 H   0  0  0  0  0  0
  -27.4940  -25.4871   21.5683 H   0  0  0  0  0  0
  -32.7602  -17.7602   17.4688 H   0  0  0  0  0  0
  -34.1277  -18.8045   17.3189 H   0  0  0  0  0  0
  -29.0539  -15.3849   21.1758 H   0  0  0  0  0  0
  -27.7136  -20.0532   21.4838 H   0  0  0  0  0  0
  -33.2362  -20.7238   20.1638 H   0  0  0  0  0  0
  -34.3669  -20.5933   18.8602 H   0  0  0  0  0  0
  1 25  1  0  0  0
  1 30  2  0  0  0
  1 83  1  0  0  0
  2  3  1  0  0  0
  2 25  1  0  0  0
  2 87  1  0  0  0
  2 88  1  0  0  0
  3  4  1  0  0  0
  3 89  1  0  0  0
  3 90  1  0  0  0
  4  5  1  0  0  0
  4 91  1  0  0  0
  4 92  1  0  0  0
  5  6  1  0  0  0
  5 26  1  0  0  0
  5 93  1  0  0  0
  6 25  1  0  0  0
  6 94  1  0  0  0
  6 95  1  0  0  0
  7  8  2  0  0  0
  7 26  1  0  0  0
  7 29  1  0  0  0
  8  9  1  0  0  0
  8 22  1  0  0  0
  9 10  1  0  0  0
  9 27  2  0  0  0
 10 11  2  0  0  0
 10 15  1  0  0  0
 11 12  1  0  0  0
 11 96  1  0  0  0
 12 13  2  0  0  0
 12 97  1  0  0  0
 13 14  1  0  0  0
 13 31  1  0  0  0
 14 15  2  0  0  0
 14 98  1  0  0  0
 15 99  1  0  0  0
 16 17  2  0  0  0
 16 21  1  0  0  0
 16 31  1  0  0  0
 17 18  1  0  0  0
 17100  1  0  0  0
 18 19  2  0  0  0
 18101  1  0  0  0
 19 20  1  0  0  0
 19 24  1  0  0  0
 20 21  2  0  0  0
 20102  1  0  0  0
 21 23  1  0  0  0
 22 28  1  0  0  0
 22 32  2  0  0  0
 26 27  1  0  0  0
 28103  1  0  0  0
 28104  1  0  0  0
 29105  1  0  0  0
 29106  1  0  0  0
 33 34  1  0  0  0
 33 66  1  0  0  0
 33 70  2  0  0  0
 34 36  1  0  0  0
 34 59  1  0  0  0
 34107  1  0  0  0
 35 44  2  0  0  0
 35 45  1  0  0  0
 35 68  1  0  0  0
 36 56  1  0  0  0
 36108  1  0  0  0
 37 39  1  0  0  0
 37 47  1  0  0  0
 37 66  1  0  0  0
 37109  1  0  0  0
 38 43  2  0  0  0
 38 46  1  0  0  0
 38 47  1  0  0  0
 39 64  1  0  0  0
 39 67  2  0  0  0
 40 52  1  0  0  0
 40 53  2  0  0  0
 40 58  1  0  0  0
 41110  1  0  0  0
 41111  1  0  0  0
 41112  1  0  0  0
 41 48  1  0  0  0
 42 43  1  0  0  0
 42 66  1  0  0  0
 42113  1  0  0  0
 42114  1  0  0  0
 43 44  1  0  0  0
 44115  1  0  0  0
 45 46  2  0  0  0
 45116  1  0  0  0
 46117  1  0  0  0
 47118  1  0  0  0
 47119  1  0  0  0
 48 56  1  0  0  0
 48 65  1  0  0  0
 48120  1  0  0  0
 49 50  1  0  0  0
 49 53  1  0  0  0
 49 64  1  0  0  0
 49121  1  0  0  0
 50 51  1  0  0  0
 50122  1  0  0  0
 50123  1  0  0  0
 51 52  1  0  0  0
 51124  1  0  0  0
 51125  1  0  0  0
 52126  1  0  0  0
 52127  1  0  0  0
 53 54  1  0  0  0
 54 55  2  0  0  0
 54128  1  0  0  0
 55 57  1  0  0  0
 55129  1  0  0  0
 56 69  2  0  0  0
 57 58  2  0  0  0
 57130  1  0  0  0
 58131  1  0  0  0
 59 60  1  0  0  0
 59 61  1  0  0  0
 59 62  1  0  0  0
 60132  1  0  0  0
 60133  1  0  0  0
 60134  1  0  0  0
 61135  1  0  0  0
 61136  1  0  0  0
 61137  1  0  0  0
 62138  1  0  0  0
 62139  1  0  0  0
 62140  1  0  0  0
 63 65  1  0  0  0
 63141  1  0  0  0
 63142  1  0  0  0
 63143  1  0  0  0
 64144  1  0  0  0
 65145  1  0  0  0
 68 81  1  0  0  0
 71 74  2  0  0  0
 71 75  1  0  0  0
 71146  1  0  0  0
 72 74  1  0  0  0
 72 76  2  0  0  0
 72147  1  0  0  0
 73 75  2  0  0  0
 73 76  1  0  0  0
 73148  1  0  0  0
 74 77  1  0  0  0
 75 83  1  0  0  0
 76 84  1  0  0  0
 77 82  1  0  0  0
 77 85  2  0  0  0
 78 79  1  0  0  0
 78 80  1  0  0  0
 78 86  2  0  0  0
 79 81  1  0  0  0
 79149  1  0  0  0
 79150  1  0  0  0
 80 84  1  0  0  0
 80151  1  0  0  0
 80152  1  0  0  0
 81153  1  0  0  0
 81154  1  0  0  0
 82155  1  0  0  0
 82156  1  0  0  0
 83157  1  0  0  0
 84158  1  0  0  0
 85159  1  0  0  0
 85160  1  0  0  0
M  CHG  1  85   1
M  ISO  4   1 100  68 101  81 101  83 100
M  END
> <chiral flag>
0

> <version>
0

> <s_m_source_file>
/data/baiqing/PycharmProjects/Reinvent-master-3.2/result/LINK_invent/BTK/process_docking_weight1_custom_product_contain_oxygen_bond_distance_aromatic_linkinvent_7_9_3/rearranged_h_0156.sdf

> <i_m_source_file_index>
35

> <r_mmod_Potential_Energy-OPLS-2005>
-348.277069091797

> <r_mmod_Stretch_Energy-OPLS-2005>
43.1000175476074

> <r_mmod_Bend_Energy-OPLS-2005>
108.032218933105

> <r_mmod_Torsional_Energy-OPLS-2005>
229.293029785156

> <r_mmod_Improper_Torsional_Energy-OPLS-2005>
5.55855703353882

> <r_mmod_Van_der_Waal_Energy-OPLS-2005>
161.399536132812

> <r_mmod_Electrostatic_Energy-OPLS-2005>
-449.929412841797

> <r_mmod_Solvation_Energy-OPLS-2005>
-464.255310058594

> <b_mmod_Minimization_Converged-OPLS-2005>
0

> <r_mmod_RMS_Derivative-OPLS-2005>
0.877518117427826

$$$$
35
                    3D
 Structure written by MMmdl.
147155  0  0  1  0            999 V2000
  -29.2902  -17.0828   20.1978 C   0  0  0  0  0  0
  -30.0911  -14.2389   19.4939 C   0  0  0  0  0  0
  -29.5136  -13.1523   18.4630 C   0  0  0  0  0  0
  -28.2633  -12.4411   18.9758 C   0  0  0  0  0  0
  -27.5046  -13.4666   19.8196 C   0  0  2  0  0  0
  -28.3378  -14.3320   20.8381 C   0  0  0  0  0  0
  -25.1760  -13.8478   20.5944 C   0  0  0  0  0  0
  -24.1400  -13.0393   20.9401 C   0  0  0  0  0  0
  -24.6373  -11.6991   20.8783 C   0  0  0  0  0  0
  -23.9167  -10.4268   21.0352 C   0  0  0  0  0  0
  -24.3692   -9.4190   21.9149 C   0  0  0  0  0  0
  -23.6338   -8.2240   22.0740 C   0  0  0  0  0  0
  -22.4315   -8.0278   21.3536 C   0  0  0  0  0  0
  -21.9971   -9.0238   20.4618 C   0  0  0  0  0  0
  -22.7328  -10.2097   20.3007 C   0  0  0  0  0  0
  -21.6864   -6.0745   22.5281 C   0  0  0  0  0  0
  -21.4028   -6.5645   23.8217 C   0  0  0  0  0  0
  -21.3671   -5.6793   24.9177 C   0  0  0  0  0  0
  -21.6045   -4.3055   24.7222 C   0  0  0  0  0  0
  -21.8815   -3.8150   23.4341 C   0  0  0  0  0  0
  -21.9194   -4.6971   22.3401 C   0  0  0  0  0  0
  -22.7402  -13.4997   21.2017 C   0  0  0  0  0  0
  -22.1661   -4.2158   21.0979 F   0  0  0  0  0  0
  -21.5627   -3.4538   25.7733 F   0  0  0  0  0  0
  -29.1223  -15.4354   20.0893 N   0  0  0  0  0  0
  -26.2386  -13.0113   20.3483 N   0  0  0  0  0  0
  -25.9363  -11.7004   20.5661 N   0  0  0  0  0  0
  -22.0159  -12.7922   22.0587 N   0  0  0  0  0  0
  -25.3023  -15.2258   20.4283 N   0  0  0  0  0  0
  -30.5727  -16.8836   20.1956 O   0  0  0  0  0  0
  -21.6658   -6.8891   21.4244 O   0  0  0  0  0  0
  -22.3027  -14.5284   20.6861 O   0  0  0  0  0  0
  -24.6603  -31.6188   22.9918 C   0  0  0  0  0  0
  -25.8987  -32.3513   23.6728 C   0  0  1  0  0  0
  -28.3940  -26.8910   19.8786 C   0  0  0  0  0  0
  -25.5392  -33.7461   24.0732 N   0  0  0  0  0  0
  -23.5024  -29.9101   21.4554 C   0  0  2  0  0  0
  -24.8096  -27.4404   20.5788 C   0  0  0  0  0  0
  -22.7193  -29.3063   22.5880 C   0  0  0  0  0  0
  -18.0042  -28.1370   22.8478 C   0  0  0  0  0  0
  -24.1473  -36.6843   23.2746 C   0  0  0  0  0  0
  -25.9175  -30.1152   21.2055 C   0  0  0  0  0  0
  -26.0516  -28.5447   20.6824 C   0  0  0  0  0  0
  -27.5813  -28.2626   20.3154 C   0  0  0  0  0  0
  -27.7117  -25.3180   19.6135 C   0  0  0  0  0  0
  -25.0401  -25.5306   20.1651 C   0  0  0  0  0  0
  -23.6743  -28.6297   20.4178 C   0  0  0  0  0  0
  -25.4177  -36.2402   24.0193 C   0  0  1  0  0  0
  -20.5471  -28.3404   23.1770 C   0  0  2  0  0  0
  -20.6402  -26.9151   22.5795 C   0  0  0  0  0  0
  -19.5605  -26.6341   21.5320 C   0  0  0  0  0  0
  -18.1703  -26.7947   22.1541 C   0  0  0  0  0  0
  -19.1253  -28.8760   23.3039 C   0  0  0  0  0  0
  -18.9266  -30.1394   23.9006 C   0  0  0  0  0  0
  -17.6298  -30.6608   24.0563 C   0  0  0  0  0  0
  -25.9109  -34.8811   23.4555 C   0  0  0  0  0  0
  -16.5184  -29.9144   23.6267 C   0  0  0  0  0  0
  -16.7061  -28.6558   23.0272 C   0  0  0  0  0  0
  -26.4391  -31.6170   24.9762 C   0  0  0  0  0  0
  -25.3542  -31.3623   26.0544 C   0  0  0  0  0  0
  -27.0504  -30.2582   24.5858 C   0  0  0  0  0  0
  -27.5726  -32.4336   25.6542 C   0  0  0  0  0  0
  -27.5516  -37.1510   24.8465 C   0  0  0  0  0  0
  -21.3950  -29.2547   22.4318 N   0  0  0  0  0  0
  -26.4224  -37.3286   23.9383 N   0  0  0  0  0  0
  -24.7250  -30.6302   21.9644 N   0  0  0  0  0  0
  -23.3315  -28.7567   23.5019 O   0  0  0  0  0  0
  -29.5720  -26.8495   20.4368 O   0  0  0  0  0  0
  -26.6179  -34.8710   22.4474 O   0  0  0  0  0  0
  -23.5712  -31.9822   23.4755 O   0  0  0  0  0  0
  -26.8277  -24.0652   21.3749 C   0  0  0  0  0  0
  -26.2770  -26.6959   18.9199 C   0  0  0  0  0  0
  -26.7251  -26.0980   21.3331 C   0  0  0  0  0  0
  -26.9897  -22.7679   20.1906 C   0  0  0  0  0  0
  -28.0756  -20.6510   20.2173 C   0  0  0  0  0  0
  -28.5139  -26.8770   22.7891 C   0  0  0  0  0  0
  -29.5702  -26.2848   21.7850 C   0  0  0  0  0  0
  -27.1928  -26.7463   22.5304 N   0  0  0  0  0  0
  -28.3172  -18.7477   20.1638 N   0  0  0  0  0  0
  -29.2382  -21.0330   20.3882 O   0  0  0  0  0  0
  -28.8977  -27.4845   23.7900 O   0  0  0  0  0  0
  -26.0786  -24.0608   18.3562 S   0  0  0  0  0  0
  -30.8864  -14.7462   18.9475 H   0  0  0  0  0  0
  -30.6404  -13.7385   20.2948 H   0  0  0  0  0  0
  -30.2825  -12.4263   18.1940 H   0  0  0  0  0  0
  -29.2507  -13.6763   17.5425 H   0  0  0  0  0  0
  -28.5506  -11.5939   19.5991 H   0  0  0  0  0  0
  -27.6539  -12.0525   18.1584 H   0  0  0  0  0  0
  -27.1988  -14.1837   19.0546 H   0  0  0  0  0  0
  -28.9237  -13.7113   21.5195 H   0  0  0  0  0  0
  -27.6651  -14.8619   21.5116 H   0  0  0  0  0  0
  -25.2820   -9.5679   22.4746 H   0  0  0  0  0  0
  -24.0036   -7.4638   22.7469 H   0  0  0  0  0  0
  -21.0909   -8.8753   19.8919 H   0  0  0  0  0  0
  -22.3774  -10.9629   19.6117 H   0  0  0  0  0  0
  -21.2029   -7.6155   23.9725 H   0  0  0  0  0  0
  -21.1502   -6.0524   25.9082 H   0  0  0  0  0  0
  -22.0583   -2.7612   23.2834 H   0  0  0  0  0  0
  -22.3891  -11.9627   22.4966 H   0  0  0  0  0  0
  -21.0748  -13.0820   22.2845 H   0  0  0  0  0  0
  -24.5190  -15.8615   20.5345 H   0  0  0  0  0  0
  -26.1439  -15.6742   20.0931 H   0  0  0  0  0  0
  -26.7007  -32.3881   22.9344 H   0  0  0  0  0  0
  -24.9055  -33.8247   24.8547 H   0  0  0  0  0  0
  -22.8797  -30.6673   20.9762 H   0  0  0  0  0  0
  -23.3743  -35.9158   23.3252 H   0  0  0  0  0  0
  -24.3463  -36.8753   22.2193 H   0  0  0  0  0  0
  -23.7255  -37.5925   23.7056 H   0  0  0  0  0  0
  -26.0156  -30.7404   20.3173 H   0  0  0  0  0  0
  -26.8062  -30.3305   21.7944 H   0  0  0  0  0  0
  -28.2373  -29.0971   20.5195 H   0  0  0  0  0  0
  -28.3714  -24.4938   19.3590 H   0  0  0  0  0  0
  -24.2447  -24.8018   20.0625 H   0  0  0  0  0  0
  -23.8552  -29.0557   19.4298 H   0  0  0  0  0  0
  -22.7134  -28.1266   20.2949 H   0  0  0  0  0  0
  -25.1490  -36.0962   25.0679 H   0  0  0  0  0  0
  -20.9255  -28.2886   24.2009 H   0  0  0  0  0  0
  -20.4993  -26.1991   23.3914 H   0  0  0  0  0  0
  -21.6338  -26.7024   22.1837 H   0  0  0  0  0  0
  -19.6747  -25.6278   21.1273 H   0  0  0  0  0  0
  -19.6767  -27.3235   20.6945 H   0  0  0  0  0  0
  -17.4089  -26.6815   21.3811 H   0  0  0  0  0  0
  -17.9913  -26.0047   22.8847 H   0  0  0  0  0  0
  -19.7761  -30.7124   24.2469 H   0  0  0  0  0  0
  -17.4862  -31.6295   24.5151 H   0  0  0  0  0  0
  -15.5191  -30.3097   23.7518 H   0  0  0  0  0  0
  -15.8450  -28.0946   22.6898 H   0  0  0  0  0  0
  -24.5711  -30.6935   25.6953 H   0  0  0  0  0  0
  -24.8729  -32.2883   26.3698 H   0  0  0  0  0  0
  -25.7778  -30.9003   26.9468 H   0  0  0  0  0  0
  -26.3124  -29.5837   24.1517 H   0  0  0  0  0  0
  -27.4682  -29.7439   25.4517 H   0  0  0  0  0  0
  -27.8615  -30.3742   23.8665 H   0  0  0  0  0  0
  -27.2121  -33.3752   26.0689 H   0  0  0  0  0  0
  -28.3632  -32.6742   24.9428 H   0  0  0  0  0  0
  -28.0315  -31.8838   26.4763 H   0  0  0  0  0  0
  -28.2464  -37.9862   24.7451 H   0  0  0  0  0  0
  -28.1069  -36.2352   24.6361 H   0  0  0  0  0  0
  -27.2208  -37.1213   25.8863 H   0  0  0  0  0  0
  -20.9739  -29.7390   21.6517 H   0  0  0  0  0  0
  -25.9951  -38.2294   24.1359 H   0  0  0  0  0  0
  -27.1065  -23.7438   22.3678 H   0  0  0  0  0  0
  -26.1539  -27.5449   18.2556 H   0  0  0  0  0  0
  -29.4735  -25.1987   21.7522 H   0  0  0  0  0  0
  -30.5580  -26.4746   22.2040 H   0  0  0  0  0  0
  -26.5215  -27.2170   23.1200 H   0  0  0  0  0  0
  -27.3651  -18.4322   20.0439 H   0  0  0  0  0  0
  1 25  1  0  0  0
  1 30  2  0  0  0
  1 79  1  0  0  0
  2  3  1  0  0  0
  2 25  1  0  0  0
  2 83  1  0  0  0
  2 84  1  0  0  0
  3  4  1  0  0  0
  3 85  1  0  0  0
  3 86  1  0  0  0
  4  5  1  0  0  0
  4 87  1  0  0  0
  4 88  1  0  0  0
  5  6  1  0  0  0
  5 26  1  0  0  0
  5 89  1  0  0  0
  6 25  1  0  0  0
  6 90  1  0  0  0
  6 91  1  0  0  0
  7  8  2  0  0  0
  7 26  1  0  0  0
  7 29  1  0  0  0
  8  9  1  0  0  0
  8 22  1  0  0  0
  9 10  1  0  0  0
  9 27  2  0  0  0
 10 11  2  0  0  0
 10 15  1  0  0  0
 11 12  1  0  0  0
 11 92  1  0  0  0
 12 13  2  0  0  0
 12 93  1  0  0  0
 13 14  1  0  0  0
 13 31  1  0  0  0
 14 15  2  0  0  0
 14 94  1  0  0  0
 15 95  1  0  0  0
 16 17  2  0  0  0
 16 21  1  0  0  0
 16 31  1  0  0  0
 17 18  1  0  0  0
 17 96  1  0  0  0
 18 19  2  0  0  0
 18 97  1  0  0  0
 19 20  1  0  0  0
 19 24  1  0  0  0
 20 21  2  0  0  0
 20 98  1  0  0  0
 21 23  1  0  0  0
 22 28  1  0  0  0
 22 32  2  0  0  0
 26 27  1  0  0  0
 28 99  1  0  0  0
 28100  1  0  0  0
 29101  1  0  0  0
 29102  1  0  0  0
 33 34  1  0  0  0
 33 66  1  0  0  0
 33 70  2  0  0  0
 34 36  1  0  0  0
 34 59  1  0  0  0
 34103  1  0  0  0
 35 44  2  0  0  0
 35 45  1  0  0  0
 35 68  1  0  0  0
 36 56  1  0  0  0
 36104  1  0  0  0
 37 39  1  0  0  0
 37 47  1  0  0  0
 37 66  1  0  0  0
 37105  1  0  0  0
 38 43  2  0  0  0
 38 46  1  0  0  0
 38 47  1  0  0  0
 39 64  1  0  0  0
 39 67  2  0  0  0
 40 52  1  0  0  0
 40 53  2  0  0  0
 40 58  1  0  0  0
 41106  1  0  0  0
 41107  1  0  0  0
 41108  1  0  0  0
 41 48  1  0  0  0
 42 43  1  0  0  0
 42 66  1  0  0  0
 42109  1  0  0  0
 42110  1  0  0  0
 43 44  1  0  0  0
 44111  1  0  0  0
 45 46  2  0  0  0
 45112  1  0  0  0
 46113  1  0  0  0
 47114  1  0  0  0
 47115  1  0  0  0
 48 56  1  0  0  0
 48 65  1  0  0  0
 48116  1  0  0  0
 49 50  1  0  0  0
 49 53  1  0  0  0
 49 64  1  0  0  0
 49117  1  0  0  0
 50 51  1  0  0  0
 50118  1  0  0  0
 50119  1  0  0  0
 51 52  1  0  0  0
 51120  1  0  0  0
 51121  1  0  0  0
 52122  1  0  0  0
 52123  1  0  0  0
 53 54  1  0  0  0
 54 55  2  0  0  0
 54124  1  0  0  0
 55 57  1  0  0  0
 55125  1  0  0  0
 56 69  2  0  0  0
 57 58  2  0  0  0
 57126  1  0  0  0
 58127  1  0  0  0
 59 60  1  0  0  0
 59 61  1  0  0  0
 59 62  1  0  0  0
 60128  1  0  0  0
 60129  1  0  0  0
 60130  1  0  0  0
 61131  1  0  0  0
 61132  1  0  0  0
 61133  1  0  0  0
 62134  1  0  0  0
 62135  1  0  0  0
 62136  1  0  0  0
 63 65  1  0  0  0
 63137  1  0  0  0
 63138  1  0  0  0
 63139  1  0  0  0
 64140  1  0  0  0
 65141  1  0  0  0
 68 77  1  0  0  0
 71 73  1  0  0  0
 71 74  2  0  0  0
 71142  1  0  0  0
 72 73  2  0  0  0
 72 82  1  0  0  0
 72143  1  0  0  0
 73 78  1  0  0  0
 74 75  1  0  0  0
 74 82  1  0  0  0
 75 79  1  0  0  0
 75 80  2  0  0  0
 76 77  1  0  0  0
 76 78  1  0  0  0
 76 81  2  0  0  0
 77144  1  0  0  0
 77145  1  0  0  0
 78146  1  0  0  0
 79147  1  0  0  0
M  ISO  4   1 100  68 101  77 101  79 100
M  END
> <chiral flag>
0

> <version>
0

> <s_m_source_file>
/data/baiqing/PycharmProjects/Reinvent-master-3.2/result/LINK_invent/BTK/process_docking_weight1_custom_product_contain_oxygen_bond_distance_aromatic_linkinvent_7_9_3/rearranged_h_0156.sdf

> <i_m_source_file_index>
36

> <r_mmod_Potential_Energy-OPLS-2005>
23079.689453125

> <r_mmod_Stretch_Energy-OPLS-2005>
13099.7509765625

> <r_mmod_Bend_Energy-OPLS-2005>
1414.16186523438

> <r_mmod_Torsional_Energy-OPLS-2005>
436.585479736328

> <r_mmod_Improper_Torsional_Energy-OPLS-2005>
26.9583396911621

> <r_mmod_Van_der_Waal_Energy-OPLS-2005>
3781.28344726562

> <r_mmod_Electrostatic_Energy-OPLS-2005>
-432.877380371094

> <r_mmod_Solvation_Energy-OPLS-2005>
-252.878265380859

> <b_mmod_Minimization_Converged-OPLS-2005>
0

> <r_mmod_RMS_Derivative-OPLS-2005>
4.73190879821777

$$$$
36
                    3D
 Structure written by MMmdl.
156164  0  0  1  0            999 V2000
  -30.5609  -14.8192   20.4036 C   0  0  0  0  0  0
  -30.4201  -12.4979   19.4679 C   0  0  0  0  0  0
  -29.5029  -12.5095   18.2273 C   0  0  0  0  0  0
  -28.0291  -12.3297   18.6382 C   0  0  0  0  0  0
  -27.6269  -13.2361   19.8340 C   0  0  2  0  0  0
  -28.6713  -13.2012   20.9701 C   0  0  0  0  0  0
  -25.2456  -13.8181   20.5683 C   0  0  0  0  0  0
  -24.1782  -13.0439   20.9243 C   0  0  0  0  0  0
  -24.6376  -11.6915   20.8746 C   0  0  0  0  0  0
  -23.9054  -10.4290   21.0402 C   0  0  0  0  0  0
  -24.3623   -9.4212   21.9176 C   0  0  0  0  0  0
  -23.6311   -8.2237   22.0735 C   0  0  0  0  0  0
  -22.4286   -8.0271   21.3525 C   0  0  0  0  0  0
  -21.9923   -9.0243   20.4632 C   0  0  0  0  0  0
  -22.7234  -10.2122   20.3050 C   0  0  0  0  0  0
  -21.6857   -6.0747   22.5279 C   0  0  0  0  0  0
  -21.4010   -6.5647   23.8221 C   0  0  0  0  0  0
  -21.3650   -5.6798   24.9184 C   0  0  0  0  0  0
  -21.6049   -4.3066   24.7237 C   0  0  0  0  0  0
  -21.8821   -3.8159   23.4358 C   0  0  0  0  0  0
  -21.9202   -4.6977   22.3419 C   0  0  0  0  0  0
  -22.7811  -13.5206   21.1890 C   0  0  0  0  0  0
  -22.1673   -4.2158   21.0994 F   0  0  0  0  0  0
  -21.5625   -3.4551   25.7747 F   0  0  0  0  0  0
  -29.9532  -13.5800   20.3703 N   0  0  0  0  0  0
  -26.2849  -12.9386   20.3212 N   0  0  0  0  0  0
  -25.9290  -11.6531   20.5726 N   0  0  0  0  0  0
  -22.0474  -12.8186   22.0442 N   0  0  0  0  0  0
  -25.4164  -15.1917   20.4087 N   0  0  0  0  0  0
  -31.7646  -14.8693   20.1363 O   0  0  0  0  0  0
  -21.6636   -6.8871   21.4235 O   0  0  0  0  0  0
  -22.3499  -14.5526   20.6756 O   0  0  0  0  0  0
  -24.6369  -31.8516   23.1886 C   0  0  0  0  0  0
  -25.9180  -32.4741   23.8283 C   0  0  1  0  0  0
  -27.2362  -27.2443   20.1094 C   0  0  0  0  0  0
  -25.5936  -33.8531   24.2205 N   0  0  0  0  0  0
  -23.4343  -30.4677   21.5329 C   0  0  2  0  0  0
  -24.8841  -28.9049   20.1055 C   0  0  0  0  0  0
  -22.7549  -29.4582   22.4896 C   0  0  0  0  0  0
  -18.0294  -28.1398   22.8524 C   0  0  0  0  0  0
  -24.1485  -36.7229   23.2638 C   0  0  0  0  0  0
  -25.9800  -30.7608   21.3682 C   0  0  0  0  0  0
  -26.0563  -29.3814   20.7058 C   0  0  0  0  0  0
  -27.2334  -28.5639   20.6930 C   0  0  0  0  0  0
  -26.0411  -26.8388   19.4791 C   0  0  0  0  0  0
  -24.8840  -27.6447   19.4804 C   0  0  0  0  0  0
  -23.6529  -29.7910   20.1540 C   0  0  0  0  0  0
  -25.4119  -36.3044   24.0334 C   0  0  1  0  0  0
  -20.5900  -28.3708   23.1279 C   0  0  2  0  0  0
  -20.6757  -26.9433   22.5404 C   0  0  0  0  0  0
  -19.5703  -26.6403   21.5216 C   0  0  0  0  0  0
  -18.1916  -26.7946   22.1654 C   0  0  0  0  0  0
  -19.1550  -28.8878   23.2884 C   0  0  0  0  0  0
  -18.9474  -30.1488   23.8884 C   0  0  0  0  0  0
  -17.6465  -30.6597   24.0583 C   0  0  0  0  0  0
  -25.9056  -34.9419   23.5051 C   0  0  0  0  0  0
  -16.5354  -29.9083   23.6347 C   0  0  0  0  0  0
  -16.7282  -28.6501   23.0371 C   0  0  0  0  0  0
  -26.4522  -31.6576   25.0694 C   0  0  0  0  0  0
  -25.3731  -31.3776   26.1408 C   0  0  0  0  0  0
  -27.0368  -30.2983   24.6211 C   0  0  0  0  0  0
  -27.6092  -32.4315   25.7444 C   0  0  0  0  0  0
  -27.5579  -37.1770   24.8486 C   0  0  0  0  0  0
  -21.4249  -29.3022   22.3657 N   0  0  0  0  0  0
  -26.4280  -37.3769   23.9459 N   0  0  0  0  0  0
  -24.7018  -31.0469   22.0854 N   0  0  0  0  0  0
  -23.4240  -28.8123   23.3011 O   0  0  0  0  0  0
  -28.3259  -26.3445   20.2334 O   0  0  0  0  0  0
  -26.5659  -34.8927   22.4647 O   0  0  0  0  0  0
  -23.5519  -32.1297   23.7197 O   0  0  0  0  0  0
  -30.9979  -20.2375   20.3835 C   0  0  0  0  0  0
  -31.4807  -17.8303   20.5565 C   0  0  0  0  0  0
  -29.1890  -18.6037   20.3227 C   0  0  0  0  0  0
  -31.9077  -19.1708   20.5191 C   0  0  0  0  0  0
  -29.6078  -20.0186   20.2779 C   0  0  0  0  0  0
  -30.1201  -17.4604   20.4432 C   0  0  0  0  0  0
  -28.4403  -25.0326   19.6559 C   0  0  0  0  0  0
  -33.3292  -19.4652   20.6006 C   0  0  0  0  0  0
  -28.5498  -23.7979   20.3065 C   0  0  0  0  0  0
  -28.9832  -22.4925   19.6408 C   0  0  0  0  0  0
  -33.7938  -20.2794   21.5414 N   0  0  0  0  0  0
  -28.7639  -21.2663   20.2811 N   0  0  0  0  0  0
  -29.7718  -15.9869   20.5047 N   0  0  0  0  0  0
  -34.1622  -18.9290   19.7095 N   0  3  0  0  0  0
  -29.5645  -22.4886   18.5512 O   0  0  0  0  0  0
  -28.3459  -23.7611   21.6312 O   0  0  0  0  0  0
  -31.4611  -12.6270   19.1632 H   0  0  0  0  0  0
  -30.3736  -11.5319   19.9716 H   0  0  0  0  0  0
  -29.7928  -11.7222   17.5276 H   0  0  0  0  0  0
  -29.6200  -13.4523   17.6914 H   0  0  0  0  0  0
  -27.8851  -11.2811   18.9042 H   0  0  0  0  0  0
  -27.3718  -12.5170   17.7863 H   0  0  0  0  0  0
  -27.6070  -14.2513   19.4324 H   0  0  0  0  0  0
  -28.7327  -12.2084   21.4159 H   0  0  0  0  0  0
  -28.3981  -13.8888   21.7725 H   0  0  0  0  0  0
  -25.2769   -9.5691   22.4740 H   0  0  0  0  0  0
  -24.0046   -7.4618   22.7432 H   0  0  0  0  0  0
  -21.0876   -8.8737   19.8937 H   0  0  0  0  0  0
  -22.3690  -10.9650   19.6159 H   0  0  0  0  0  0
  -21.1983   -7.6151   23.9720 H   0  0  0  0  0  0
  -21.1471   -6.0535   25.9086 H   0  0  0  0  0  0
  -22.0609   -2.7617   23.2866 H   0  0  0  0  0  0
  -22.4103  -11.9834   22.4789 H   0  0  0  0  0  0
  -21.1091  -13.1182   22.2658 H   0  0  0  0  0  0
  -24.6386  -15.8394   20.4927 H   0  0  0  0  0  0
  -26.2457  -15.6225   20.0203 H   0  0  0  0  0  0
  -26.7261  -32.5393   23.1039 H   0  0  0  0  0  0
  -25.0134  -33.9630   25.0381 H   0  0  0  0  0  0
  -22.7293  -31.2888   21.3835 H   0  0  0  0  0  0
  -23.3755  -35.9551   23.3312 H   0  0  0  0  0  0
  -24.3544  -36.8829   22.2054 H   0  0  0  0  0  0
  -23.7221  -37.6428   23.6642 H   0  0  0  0  0  0
  -26.1313  -31.5282   20.6052 H   0  0  0  0  0  0
  -26.8531  -30.8027   22.0118 H   0  0  0  0  0  0
  -28.1333  -28.9282   21.1678 H   0  0  0  0  0  0
  -25.9841  -25.8649   19.0161 H   0  0  0  0  0  0
  -23.9868  -27.2757   19.0058 H   0  0  0  0  0  0
  -23.7795  -30.5593   19.3876 H   0  0  0  0  0  0
  -22.7713  -29.2180   19.8605 H   0  0  0  0  0  0
  -25.1300  -36.1860   25.0832 H   0  0  0  0  0  0
  -21.0021  -28.3275   24.1380 H   0  0  0  0  0  0
  -20.5631  -26.2324   23.3598 H   0  0  0  0  0  0
  -21.6635  -26.7407   22.1203 H   0  0  0  0  0  0
  -19.6826  -25.6289   21.1257 H   0  0  0  0  0  0
  -19.6610  -27.3211   20.6745 H   0  0  0  0  0  0
  -17.4164  -26.6734   21.4075 H   0  0  0  0  0  0
  -18.0293  -26.0067   22.9035 H   0  0  0  0  0  0
  -19.7932  -30.7354   24.2207 H   0  0  0  0  0  0
  -17.4988  -31.6266   24.5214 H   0  0  0  0  0  0
  -15.5340  -30.2985   23.7632 H   0  0  0  0  0  0
  -15.8694  -28.0812   22.7075 H   0  0  0  0  0  0
  -24.5814  -30.7241   25.7710 H   0  0  0  0  0  0
  -24.9025  -32.2986   26.4882 H   0  0  0  0  0  0
  -25.7994  -30.8866   27.0160 H   0  0  0  0  0  0
  -26.2959  -29.6696   24.1255 H   0  0  0  0  0  0
  -27.4059  -29.7296   25.4751 H   0  0  0  0  0  0
  -27.8843  -30.4234   23.9461 H   0  0  0  0  0  0
  -27.2746  -33.3671   26.1942 H   0  0  0  0  0  0
  -28.3937  -32.6771   25.0266 H   0  0  0  0  0  0
  -28.0724  -31.8472   26.5407 H   0  0  0  0  0  0
  -28.2606  -38.0057   24.7556 H   0  0  0  0  0  0
  -28.1049  -36.2589   24.6271 H   0  0  0  0  0  0
  -27.2293  -37.1411   25.8882 H   0  0  0  0  0  0
  -20.9429  -29.8748   21.6872 H   0  0  0  0  0  0
  -26.0123  -38.2834   24.1441 H   0  0  0  0  0  0
  -31.3876  -21.2481   20.3790 H   0  0  0  0  0  0
  -32.2459  -17.0862   20.7051 H   0  0  0  0  0  0
  -28.1293  -18.3997   20.2697 H   0  0  0  0  0  0
  -28.5335  -25.1094   18.5800 H   0  0  0  0  0  0
  -33.1878  -20.5189   22.3161 H   0  0  0  0  0  0
  -34.7600  -20.5561   21.6043 H   0  0  0  0  0  0
  -27.9694  -21.2432   20.9028 H   0  0  0  0  0  0
  -28.7888  -15.7956   20.6152 H   0  0  0  0  0  0
  -33.7786  -18.3119   19.0069 H   0  0  0  0  0  0
  -35.1187  -19.2272   19.6013 H   0  0  0  0  0  0
  -28.5597  -22.8832   21.9180 H   0  0  0  0  0  0
  1 25  1  0  0  0
  1 30  2  0  0  0
  1 83  1  0  0  0
  2  3  1  0  0  0
  2 25  1  0  0  0
  2 87  1  0  0  0
  2 88  1  0  0  0
  3  4  1  0  0  0
  3 89  1  0  0  0
  3 90  1  0  0  0
  4  5  1  0  0  0
  4 91  1  0  0  0
  4 92  1  0  0  0
  5  6  1  0  0  0
  5 26  1  0  0  0
  5 93  1  0  0  0
  6 25  1  0  0  0
  6 94  1  0  0  0
  6 95  1  0  0  0
  7  8  2  0  0  0
  7 26  1  0  0  0
  7 29  1  0  0  0
  8  9  1  0  0  0
  8 22  1  0  0  0
  9 10  1  0  0  0
  9 27  2  0  0  0
 10 11  2  0  0  0
 10 15  1  0  0  0
 11 12  1  0  0  0
 11 96  1  0  0  0
 12 13  2  0  0  0
 12 97  1  0  0  0
 13 14  1  0  0  0
 13 31  1  0  0  0
 14 15  2  0  0  0
 14 98  1  0  0  0
 15 99  1  0  0  0
 16 17  2  0  0  0
 16 21  1  0  0  0
 16 31  1  0  0  0
 17 18  1  0  0  0
 17100  1  0  0  0
 18 19  2  0  0  0
 18101  1  0  0  0
 19 20  1  0  0  0
 19 24  1  0  0  0
 20 21  2  0  0  0
 20102  1  0  0  0
 21 23  1  0  0  0
 22 28  1  0  0  0
 22 32  2  0  0  0
 26 27  1  0  0  0
 28103  1  0  0  0
 28104  1  0  0  0
 29105  1  0  0  0
 29106  1  0  0  0
 33 34  1  0  0  0
 33 66  1  0  0  0
 33 70  2  0  0  0
 34 36  1  0  0  0
 34 59  1  0  0  0
 34107  1  0  0  0
 35 44  2  0  0  0
 35 45  1  0  0  0
 35 68  1  0  0  0
 36 56  1  0  0  0
 36108  1  0  0  0
 37 39  1  0  0  0
 37 47  1  0  0  0
 37 66  1  0  0  0
 37109  1  0  0  0
 38 43  2  0  0  0
 38 46  1  0  0  0
 38 47  1  0  0  0
 39 64  1  0  0  0
 39 67  2  0  0  0
 40 52  1  0  0  0
 40 53  2  0  0  0
 40 58  1  0  0  0
 41110  1  0  0  0
 41111  1  0  0  0
 41112  1  0  0  0
 41 48  1  0  0  0
 42 43  1  0  0  0
 42 66  1  0  0  0
 42113  1  0  0  0
 42114  1  0  0  0
 43 44  1  0  0  0
 44115  1  0  0  0
 45 46  2  0  0  0
 45116  1  0  0  0
 46117  1  0  0  0
 47118  1  0  0  0
 47119  1  0  0  0
 48 56  1  0  0  0
 48 65  1  0  0  0
 48120  1  0  0  0
 49 50  1  0  0  0
 49 53  1  0  0  0
 49 64  1  0  0  0
 49121  1  0  0  0
 50 51  1  0  0  0
 50122  1  0  0  0
 50123  1  0  0  0
 51 52  1  0  0  0
 51124  1  0  0  0
 51125  1  0  0  0
 52126  1  0  0  0
 52127  1  0  0  0
 53 54  1  0  0  0
 54 55  2  0  0  0
 54128  1  0  0  0
 55 57  1  0  0  0
 55129  1  0  0  0
 56 69  2  0  0  0
 57 58  2  0  0  0
 57130  1  0  0  0
 58131  1  0  0  0
 59 60  1  0  0  0
 59 61  1  0  0  0
 59 62  1  0  0  0
 60132  1  0  0  0
 60133  1  0  0  0
 60134  1  0  0  0
 61135  1  0  0  0
 61136  1  0  0  0
 61137  1  0  0  0
 62138  1  0  0  0
 62139  1  0  0  0
 62140  1  0  0  0
 63 65  1  0  0  0
 63141  1  0  0  0
 63142  1  0  0  0
 63143  1  0  0  0
 64144  1  0  0  0
 65145  1  0  0  0
 68 77  1  0  0  0
 71 74  2  0  0  0
 71 75  1  0  0  0
 71146  1  0  0  0
 72 74  1  0  0  0
 72 76  2  0  0  0
 72147  1  0  0  0
 73 75  2  0  0  0
 73 76  1  0  0  0
 73148  1  0  0  0
 74 78  1  0  0  0
 75 82  1  0  0  0
 76 83  1  0  0  0
 77 79  2  0  0  0
 77149  1  0  0  0
 78 81  1  0  0  0
 78 84  2  0  0  0
 79 80  1  0  0  0
 79 86  1  0  0  0
 80 82  1  0  0  0
 80 85  2  0  0  0
 81150  1  0  0  0
 81151  1  0  0  0
 82152  1  0  0  0
 83153  1  0  0  0
 84154  1  0  0  0
 84155  1  0  0  0
 86156  1  0  0  0
M  CHG  1  84   1
M  ISO  4   1 100  68 101  77 101  83 100
M  END
> <chiral flag>
0

> <version>
0

> <s_m_source_file>
/data/baiqing/PycharmProjects/Reinvent-master-3.2/result/LINK_invent/BTK/process_docking_weight1_custom_product_contain_oxygen_bond_distance_aromatic_linkinvent_7_9_3/rearranged_h_0156.sdf

> <i_m_source_file_index>
37

> <r_mmod_Potential_Energy-OPLS-2005>
-88.2213439941406

> <r_mmod_Stretch_Energy-OPLS-2005>
158.675659179688

> <r_mmod_Bend_Energy-OPLS-2005>
181.153671264648

> <r_mmod_Torsional_Energy-OPLS-2005>
279.025970458984

> <r_mmod_Improper_Torsional_Energy-OPLS-2005>
8.81333255767822

> <r_mmod_Van_der_Waal_Energy-OPLS-2005>
143.14421081543

> <r_mmod_Electrostatic_Energy-OPLS-2005>
-492.522674560547

> <r_mmod_Solvation_Energy-OPLS-2005>
-479.509002685547

> <b_mmod_Minimization_Converged-OPLS-2005>
0

> <r_mmod_RMS_Derivative-OPLS-2005>
6.10897397994995

$$$$
37
                    3D
 Structure written by MMmdl.
150158  0  0  1  0            999 V2000
  -30.6545  -14.6931   20.5001 C   0  0  0  0  0  0
  -30.4301  -12.4303   19.4619 C   0  0  0  0  0  0
  -29.5058  -12.5053   18.2282 C   0  0  0  0  0  0
  -28.0321  -12.3358   18.6450 C   0  0  0  0  0  0
  -27.6464  -13.2294   19.8544 C   0  0  2  0  0  0
  -28.6947  -13.1434   20.9856 C   0  0  0  0  0  0
  -25.2531  -13.8193   20.5705 C   0  0  0  0  0  0
  -24.1819  -13.0452   20.9214 C   0  0  0  0  0  0
  -24.6400  -11.6921   20.8758 C   0  0  0  0  0  0
  -23.9077  -10.4303   21.0413 C   0  0  0  0  0  0
  -24.3619   -9.4216   21.9184 C   0  0  0  0  0  0
  -23.6298   -8.2251   22.0754 C   0  0  0  0  0  0
  -22.4283   -8.0287   21.3545 C   0  0  0  0  0  0
  -21.9921   -9.0267   20.4642 C   0  0  0  0  0  0
  -22.7257  -10.2144   20.3056 C   0  0  0  0  0  0
  -21.6850   -6.0748   22.5283 C   0  0  0  0  0  0
  -21.4014   -6.5646   23.8219 C   0  0  0  0  0  0
  -21.3658   -5.6797   24.9172 C   0  0  0  0  0  0
  -21.6036   -4.3063   24.7225 C   0  0  0  0  0  0
  -21.8820   -3.8162   23.4349 C   0  0  0  0  0  0
  -21.9191   -4.6974   22.3404 C   0  0  0  0  0  0
  -22.7827  -13.5224   21.1875 C   0  0  0  0  0  0
  -22.1659   -4.2164   21.0981 F   0  0  0  0  0  0
  -21.5625   -3.4541   25.7737 F   0  0  0  0  0  0
  -29.9986  -13.4886   20.4025 N   0  0  0  0  0  0
  -26.2965  -12.9403   20.3318 N   0  0  0  0  0  0
  -25.9334  -11.6548   20.5779 N   0  0  0  0  0  0
  -22.0461  -12.8212   22.0413 N   0  0  0  0  0  0
  -25.4240  -15.1924   20.4117 N   0  0  0  0  0  0
  -31.8376  -14.7798   20.1600 O   0  0  0  0  0  0
  -21.6640   -6.8896   21.4248 O   0  0  0  0  0  0
  -22.3511  -14.5539   20.6725 O   0  0  0  0  0  0
  -24.6339  -31.8510   23.1968 C   0  0  0  0  0  0
  -25.9178  -32.4715   23.8314 C   0  0  1  0  0  0
  -27.2151  -27.2457   20.1588 C   0  0  0  0  0  0
  -25.5962  -33.8520   24.2231 N   0  0  0  0  0  0
  -23.4296  -30.4759   21.5379 C   0  0  2  0  0  0
  -24.8782  -28.9192   20.1025 C   0  0  0  0  0  0
  -22.7507  -29.4598   22.4883 C   0  0  0  0  0  0
  -18.0299  -28.1390   22.8484 C   0  0  0  0  0  0
  -24.1495  -36.7275   23.2643 C   0  0  0  0  0  0
  -25.9752  -30.7567   21.3827 C   0  0  0  0  0  0
  -26.0452  -29.3780   20.7293 C   0  0  0  0  0  0
  -27.2175  -28.5548   20.7465 C   0  0  0  0  0  0
  -26.0351  -26.8589   19.4885 C   0  0  0  0  0  0
  -24.8826  -27.6695   19.4602 C   0  0  0  0  0  0
  -23.6481  -29.8079   20.1525 C   0  0  0  0  0  0
  -25.4126  -36.3044   24.0312 C   0  0  1  0  0  0
  -20.5904  -28.3710   23.1247 C   0  0  2  0  0  0
  -20.6786  -26.9429   22.5389 C   0  0  0  0  0  0
  -19.5749  -26.6393   21.5200 C   0  0  0  0  0  0
  -18.1934  -26.7927   22.1632 C   0  0  0  0  0  0
  -19.1553  -28.8865   23.2865 C   0  0  0  0  0  0
  -18.9475  -30.1470   23.8871 C   0  0  0  0  0  0
  -17.6480  -30.6590   24.0562 C   0  0  0  0  0  0
  -25.9056  -34.9413   23.5074 C   0  0  0  0  0  0
  -16.5372  -29.9086   23.6339 C   0  0  0  0  0  0
  -16.7289  -28.6507   23.0352 C   0  0  0  0  0  0
  -26.4519  -31.6558   25.0727 C   0  0  0  0  0  0
  -25.3725  -31.3755   26.1446 C   0  0  0  0  0  0
  -27.0351  -30.2949   24.6264 C   0  0  0  0  0  0
  -27.6079  -32.4298   25.7498 C   0  0  0  0  0  0
  -27.5539  -37.1851   24.8499 C   0  0  0  0  0  0
  -21.4210  -29.3059   22.3628 N   0  0  0  0  0  0
  -26.4317  -37.3725   23.9344 N   0  0  0  0  0  0
  -24.6986  -31.0474   22.0952 N   0  0  0  0  0  0
  -23.4195  -28.8126   23.2991 O   0  0  0  0  0  0
  -28.2916  -26.3298   20.2128 O   0  0  0  0  0  0
  -26.5623  -34.8886   22.4639 O   0  0  0  0  0  0
  -23.5497  -32.1363   23.7260 O   0  0  0  0  0  0
  -30.3201  -19.2152   19.5345 C   0  0  0  0  0  0
  -29.9351  -20.6155   19.4363 C   0  0  0  0  0  0
  -29.9635  -18.5705   20.6983 C   0  0  0  0  0  0
  -29.2237  -21.1376   20.5093 C   0  0  0  0  0  0
  -28.8638  -23.6905   20.2281 C   0  0  0  0  0  0
  -30.4815  -17.1845   21.2412 C   0  0  0  0  0  0
  -28.0147  -24.9510   20.7689 C   0  0  0  0  0  0
  -30.3143  -21.3350   18.3014 N   0  0  0  0  0  0
  -28.6754  -22.4148   20.7608 N   0  0  0  0  0  0
  -29.9367  -15.8265   20.8297 N   0  0  0  0  0  0
  -29.6954  -23.8950   19.3404 O   0  0  0  0  0  0
  -29.0574  -19.7715   21.6638 S   0  0  0  0  0  0
  -31.4733  -12.5398   19.1588 H   0  0  0  0  0  0
  -30.3607  -11.4493   19.9362 H   0  0  0  0  0  0
  -29.7795  -11.7388   17.5017 H   0  0  0  0  0  0
  -29.6393  -13.4651   17.7267 H   0  0  0  0  0  0
  -27.8814  -11.2863   18.8992 H   0  0  0  0  0  0
  -27.3734  -12.5370   17.7991 H   0  0  0  0  0  0
  -27.6491  -14.2549   19.4842 H   0  0  0  0  0  0
  -28.7249  -12.1382   21.4081 H   0  0  0  0  0  0
  -28.4391  -13.8116   21.8091 H   0  0  0  0  0  0
  -25.2756   -9.5686   22.4773 H   0  0  0  0  0  0
  -24.0002   -7.4638   22.7467 H   0  0  0  0  0  0
  -21.0858   -8.8787   19.8944 H   0  0  0  0  0  0
  -22.3715  -10.9681   19.6170 H   0  0  0  0  0  0
  -21.2014   -7.6150   23.9730 H   0  0  0  0  0  0
  -21.1471   -6.0520   25.9077 H   0  0  0  0  0  0
  -22.0601   -2.7626   23.2843 H   0  0  0  0  0  0
  -22.4058  -11.9857   22.4793 H   0  0  0  0  0  0
  -21.1075  -13.1235   22.2619 H   0  0  0  0  0  0
  -24.6583  -15.8486   20.5209 H   0  0  0  0  0  0
  -26.2732  -15.6295   20.0769 H   0  0  0  0  0  0
  -26.7237  -32.5334   23.1040 H   0  0  0  0  0  0
  -25.0141  -33.9639   25.0399 H   0  0  0  0  0  0
  -22.7293  -31.3019   21.3951 H   0  0  0  0  0  0
  -23.3681  -35.9705   23.3486 H   0  0  0  0  0  0
  -24.3527  -36.8708   22.2020 H   0  0  0  0  0  0
  -23.7384  -37.6589   23.6548 H   0  0  0  0  0  0
  -26.1230  -31.5102   20.6084 H   0  0  0  0  0  0
  -26.8498  -30.7989   22.0201 H   0  0  0  0  0  0
  -28.1060  -28.8941   21.2613 H   0  0  0  0  0  0
  -25.9862  -25.9013   18.9906 H   0  0  0  0  0  0
  -24.0022  -27.3173   18.9385 H   0  0  0  0  0  0
  -23.7735  -30.5859   19.3999 H   0  0  0  0  0  0
  -22.7624  -29.2486   19.8456 H   0  0  0  0  0  0
  -25.1338  -36.1898   25.0816 H   0  0  0  0  0  0
  -21.0009  -28.3302   24.1365 H   0  0  0  0  0  0
  -20.5697  -26.2331   23.3599 H   0  0  0  0  0  0
  -21.6653  -26.7439   22.1182 H   0  0  0  0  0  0
  -19.6914  -25.6302   21.1239 H   0  0  0  0  0  0
  -19.6662  -27.3197   20.6721 H   0  0  0  0  0  0
  -17.4192  -26.6656   21.4047 H   0  0  0  0  0  0
  -18.0359  -26.0069   22.9032 H   0  0  0  0  0  0
  -19.7954  -30.7303   24.2212 H   0  0  0  0  0  0
  -17.5030  -31.6264   24.5176 H   0  0  0  0  0  0
  -15.5370  -30.2981   23.7671 H   0  0  0  0  0  0
  -15.8692  -28.0830   22.7070 H   0  0  0  0  0  0
  -24.5876  -30.7123   25.7788 H   0  0  0  0  0  0
  -24.8947  -32.2949   26.4842 H   0  0  0  0  0  0
  -25.8018  -30.8945   27.0242 H   0  0  0  0  0  0
  -26.2952  -29.6697   24.1253 H   0  0  0  0  0  0
  -27.3957  -29.7212   25.4813 H   0  0  0  0  0  0
  -27.8861  -30.4184   23.9562 H   0  0  0  0  0  0
  -27.2727  -33.3646   26.2003 H   0  0  0  0  0  0
  -28.3933  -32.6775   25.0344 H   0  0  0  0  0  0
  -28.0687  -31.8455   26.5473 H   0  0  0  0  0  0
  -28.2726  -37.9963   24.7277 H   0  0  0  0  0  0
  -28.0861  -36.2500   24.6702 H   0  0  0  0  0  0
  -27.2214  -37.1960   25.8892 H   0  0  0  0  0  0
  -20.9402  -29.8792   21.6831 H   0  0  0  0  0  0
  -26.0197  -38.2839   24.1166 H   0  0  0  0  0  0
  -30.9132  -18.7357   18.7671 H   0  0  0  0  0  0
  -30.3987  -17.2085   22.3282 H   0  0  0  0  0  0
  -31.5597  -17.1610   21.0701 H   0  0  0  0  0  0
  -28.1866  -25.0078   21.8464 H   0  0  0  0  0  0
  -26.9575  -24.7026   20.6742 H   0  0  0  0  0  0
  -31.1644  -21.0306   17.8380 H   0  0  0  0  0  0
  -30.2976  -22.3475   18.4451 H   0  0  0  0  0  0
  -28.0098  -22.4099   21.5230 H   0  0  0  0  0  0
  -28.9591  -15.6726   21.0230 H   0  0  0  0  0  0
  1 25  1  0  0  0
  1 30  2  0  0  0
  1 80  1  0  0  0
  2  3  1  0  0  0
  2 25  1  0  0  0
  2 83  1  0  0  0
  2 84  1  0  0  0
  3  4  1  0  0  0
  3 85  1  0  0  0
  3 86  1  0  0  0
  4  5  1  0  0  0
  4 87  1  0  0  0
  4 88  1  0  0  0
  5  6  1  0  0  0
  5 26  1  0  0  0
  5 89  1  0  0  0
  6 25  1  0  0  0
  6 90  1  0  0  0
  6 91  1  0  0  0
  7  8  2  0  0  0
  7 26  1  0  0  0
  7 29  1  0  0  0
  8  9  1  0  0  0
  8 22  1  0  0  0
  9 10  1  0  0  0
  9 27  2  0  0  0
 10 11  2  0  0  0
 10 15  1  0  0  0
 11 12  1  0  0  0
 11 92  1  0  0  0
 12 13  2  0  0  0
 12 93  1  0  0  0
 13 14  1  0  0  0
 13 31  1  0  0  0
 14 15  2  0  0  0
 14 94  1  0  0  0
 15 95  1  0  0  0
 16 17  2  0  0  0
 16 21  1  0  0  0
 16 31  1  0  0  0
 17 18  1  0  0  0
 17 96  1  0  0  0
 18 19  2  0  0  0
 18 97  1  0  0  0
 19 20  1  0  0  0
 19 24  1  0  0  0
 20 21  2  0  0  0
 20 98  1  0  0  0
 21 23  1  0  0  0
 22 28  1  0  0  0
 22 32  2  0  0  0
 26 27  1  0  0  0
 28 99  1  0  0  0
 28100  1  0  0  0
 29101  1  0  0  0
 29102  1  0  0  0
 33 34  1  0  0  0
 33 66  1  0  0  0
 33 70  2  0  0  0
 34 36  1  0  0  0
 34 59  1  0  0  0
 34103  1  0  0  0
 35 44  2  0  0  0
 35 45  1  0  0  0
 35 68  1  0  0  0
 36 56  1  0  0  0
 36104  1  0  0  0
 37 39  1  0  0  0
 37 47  1  0  0  0
 37 66  1  0  0  0
 37105  1  0  0  0
 38 43  2  0  0  0
 38 46  1  0  0  0
 38 47  1  0  0  0
 39 64  1  0  0  0
 39 67  2  0  0  0
 40 52  1  0  0  0
 40 53  2  0  0  0
 40 58  1  0  0  0
 41106  1  0  0  0
 41107  1  0  0  0
 41108  1  0  0  0
 41 48  1  0  0  0
 42 43  1  0  0  0
 42 66  1  0  0  0
 42109  1  0  0  0
 42110  1  0  0  0
 43 44  1  0  0  0
 44111  1  0  0  0
 45 46  2  0  0  0
 45112  1  0  0  0
 46113  1  0  0  0
 47114  1  0  0  0
 47115  1  0  0  0
 48 56  1  0  0  0
 48 65  1  0  0  0
 48116  1  0  0  0
 49 50  1  0  0  0
 49 53  1  0  0  0
 49 64  1  0  0  0
 49117  1  0  0  0
 50 51  1  0  0  0
 50118  1  0  0  0
 50119  1  0  0  0
 51 52  1  0  0  0
 51120  1  0  0  0
 51121  1  0  0  0
 52122  1  0  0  0
 52123  1  0  0  0
 53 54  1  0  0  0
 54 55  2  0  0  0
 54124  1  0  0  0
 55 57  1  0  0  0
 55125  1  0  0  0
 56 69  2  0  0  0
 57 58  2  0  0  0
 57126  1  0  0  0
 58127  1  0  0  0
 59 60  1  0  0  0
 59 61  1  0  0  0
 59 62  1  0  0  0
 60128  1  0  0  0
 60129  1  0  0  0
 60130  1  0  0  0
 61131  1  0  0  0
 61132  1  0  0  0
 61133  1  0  0  0
 62134  1  0  0  0
 62135  1  0  0  0
 62136  1  0  0  0
 63 65  1  0  0  0
 63137  1  0  0  0
 63138  1  0  0  0
 63139  1  0  0  0
 64140  1  0  0  0
 65141  1  0  0  0
 68 77  1  0  0  0
 71 72  1  0  0  0
 71 73  2  0  0  0
 71142  1  0  0  0
 72 74  2  0  0  0
 72 78  1  0  0  0
 73 76  1  0  0  0
 73 82  1  0  0  0
 74 79  1  0  0  0
 74 82  1  0  0  0
 75 77  1  0  0  0
 75 79  1  0  0  0
 75 81  2  0  0  0
 76 80  1  0  0  0
 76143  1  0  0  0
 76144  1  0  0  0
 77145  1  0  0  0
 77146  1  0  0  0
 78147  1  0  0  0
 78148  1  0  0  0
 79149  1  0  0  0
 80150  1  0  0  0
M  ISO  4   1 100  68 101  77 101  80 100
M  END
> <chiral flag>
0

> <version>
0

> <s_m_source_file>
/data/baiqing/PycharmProjects/Reinvent-master-3.2/result/LINK_invent/BTK/process_docking_weight1_custom_product_contain_oxygen_bond_distance_aromatic_linkinvent_7_9_3/rearranged_h_0156.sdf

> <i_m_source_file_index>
38

> <r_mmod_Potential_Energy-OPLS-2005>
-15.4175720214844

> <r_mmod_Stretch_Energy-OPLS-2005>
112.369682312012

> <r_mmod_Bend_Energy-OPLS-2005>
174.653793334961

> <r_mmod_Torsional_Energy-OPLS-2005>
238.780502319336

> <r_mmod_Improper_Torsional_Energy-OPLS-2005>
9.79901027679443

> <r_mmod_Van_der_Waal_Energy-OPLS-2005>
121.587272644043

> <r_mmod_Electrostatic_Energy-OPLS-2005>
-506.555145263672

> <r_mmod_Solvation_Energy-OPLS-2005>
-246.883804321289

> <b_mmod_Minimization_Converged-OPLS-2005>
0

> <r_mmod_RMS_Derivative-OPLS-2005>
3.3331880569458

$$$$
38
                    3D
 Structure written by MMmdl.
167176  0  0  1  0            999 V2000
  -30.7426  -14.4508   20.6135 C   0  0  0  0  0  0
  -30.4220  -12.3167   19.4177 C   0  0  0  0  0  0
  -29.4915  -12.5153   18.2054 C   0  0  0  0  0  0
  -28.0133  -12.3813   18.6184 C   0  0  0  0  0  0
  -27.6641  -13.2141   19.8804 C   0  0  2  0  0  0
  -28.7077  -13.0016   20.9999 C   0  0  0  0  0  0
  -25.2598  -13.8185   20.5696 C   0  0  0  0  0  0
  -24.1841  -13.0441   20.9172 C   0  0  0  0  0  0
  -24.6413  -11.6919   20.8748 C   0  0  0  0  0  0
  -23.9074  -10.4299   21.0408 C   0  0  0  0  0  0
  -24.3621   -9.4215   21.9186 C   0  0  0  0  0  0
  -23.6296   -8.2251   22.0765 C   0  0  0  0  0  0
  -22.4276   -8.0289   21.3553 C   0  0  0  0  0  0
  -21.9906   -9.0265   20.4656 C   0  0  0  0  0  0
  -22.7244  -10.2143   20.3061 C   0  0  0  0  0  0
  -21.6853   -6.0735   22.5280 C   0  0  0  0  0  0
  -21.4017   -6.5642   23.8211 C   0  0  0  0  0  0
  -21.3653   -5.6797   24.9171 C   0  0  0  0  0  0
  -21.6040   -4.3058   24.7225 C   0  0  0  0  0  0
  -21.8823   -3.8149   23.4346 C   0  0  0  0  0  0
  -21.9197   -4.6963   22.3401 C   0  0  0  0  0  0
  -22.7862  -13.5249   21.1813 C   0  0  0  0  0  0
  -22.1667   -4.2149   21.0979 F   0  0  0  0  0  0
  -21.5621   -3.4543   25.7736 F   0  0  0  0  0  0
  -30.0381  -13.2997   20.4439 N   0  0  0  0  0  0
  -26.3046  -12.9368   20.3414 N   0  0  0  0  0  0
  -25.9348  -11.6515   20.5786 N   0  0  0  0  0  0
  -22.0494  -12.8256   22.0377 N   0  0  0  0  0  0
  -25.4309  -15.1902   20.4118 N   0  0  0  0  0  0
  -31.8527  -14.6278   20.1031 O   0  0  0  0  0  0
  -21.6648   -6.8879   21.4241 O   0  0  0  0  0  0
  -22.3554  -14.5544   20.6647 O   0  0  0  0  0  0
  -24.6140  -31.8694   23.2158 C   0  0  0  0  0  0
  -25.9035  -32.4837   23.8434 C   0  0  1  0  0  0
  -27.2216  -27.4120   20.0925 C   0  0  0  0  0  0
  -25.5903  -33.8641   24.2365 N   0  0  0  0  0  0
  -23.4028  -30.4977   21.5559 C   0  0  2  0  0  0
  -24.8485  -28.9702   20.1113 C   0  0  0  0  0  0
  -22.7389  -29.4667   22.4970 C   0  0  0  0  0  0
  -18.0260  -28.1391   22.8517 C   0  0  0  0  0  0
  -24.1457  -36.7328   23.2638 C   0  0  0  0  0  0
  -25.9356  -30.8213   21.3783 C   0  0  0  0  0  0
  -26.0103  -29.4555   20.7258 C   0  0  0  0  0  0
  -27.1971  -28.6811   20.7206 C   0  0  0  0  0  0
  -26.0468  -26.9776   19.4298 C   0  0  0  0  0  0
  -24.8639  -27.7310   19.4585 C   0  0  0  0  0  0
  -23.6150  -29.8438   20.1666 C   0  0  0  0  0  0
  -25.4079  -36.3134   24.0343 C   0  0  1  0  0  0
  -20.5849  -28.3692   23.1316 C   0  0  2  0  0  0
  -20.6747  -26.9426   22.5420 C   0  0  0  0  0  0
  -19.5726  -26.6411   21.5210 C   0  0  0  0  0  0
  -18.1906  -26.7950   22.1633 C   0  0  0  0  0  0
  -19.1510  -28.8853   23.2931 C   0  0  0  0  0  0
  -18.9448  -30.1449   23.8955 C   0  0  0  0  0  0
  -17.6453  -30.6609   24.0586 C   0  0  0  0  0  0
  -25.9019  -34.9493   23.5149 C   0  0  0  0  0  0
  -16.5339  -29.9130   23.6312 C   0  0  0  0  0  0
  -16.7254  -28.6533   23.0359 C   0  0  0  0  0  0
  -26.4475  -31.6598   25.0743 C   0  0  0  0  0  0
  -25.3753  -31.3705   26.1504 C   0  0  0  0  0  0
  -27.0300  -30.3034   24.6120 C   0  0  0  0  0  0
  -27.6048  -32.4319   25.7516 C   0  0  0  0  0  0
  -27.5562  -37.1825   24.8471 C   0  0  0  0  0  0
  -21.4105  -29.3073   22.3726 N   0  0  0  0  0  0
  -26.4270  -37.3818   23.9422 N   0  0  0  0  0  0
  -24.6696  -31.0751   22.1101 N   0  0  0  0  0  0
  -23.4145  -28.8159   23.2984 O   0  0  0  0  0  0
  -28.3646  -26.6255   20.1523 O   0  0  0  0  0  0
  -26.5568  -34.8936   22.4699 O   0  0  0  0  0  0
  -23.5331  -32.1482   23.7520 O   0  0  0  0  0  0
  -32.4189  -17.9958   22.7534 C   0  0  0  0  0  0
  -31.9607  -19.1775   22.1423 C   0  0  0  0  0  0
  -31.8050  -16.7651   22.4634 C   0  0  0  0  0  0
  -30.2061  -17.9116   21.0124 C   0  0  0  0  0  0
  -30.8574  -19.1517   21.2580 C   0  0  0  0  0  0
  -30.7043  -16.7091   21.5813 C   0  0  0  0  0  0
  -28.2402  -22.9143   21.1549 C   0  0  0  0  0  0
  -30.3499  -23.8597   20.2733 C   0  0  0  0  0  0
  -29.0204  -21.8941   22.0109 C   0  0  0  0  0  0
  -31.1440  -22.8204   21.1054 C   0  0  0  0  0  0
  -29.0057  -24.2493   20.9244 C   0  0  2  0  0  0
  -28.2531  -25.3036   23.0102 C   0  0  0  0  0  0
  -30.4467  -20.4429   20.5316 C   0  0  0  0  0  0
  -28.1704  -25.1962   20.0047 C   0  0  0  0  0  0
  -30.1174  -15.4489   21.2718 N   0  0  0  0  0  0
  -30.3694  -21.5971   21.4731 N   0  3  2  0  0  0
  -29.3276  -24.8870   22.1688 O   0  0  0  0  0  0
  -31.4632  -12.4188   19.1062 H   0  0  0  0  0  0
  -30.3325  -11.3049   19.8156 H   0  0  0  0  0  0
  -29.7275  -11.7897   17.4260 H   0  0  0  0  0  0
  -29.6640  -13.5008   17.7693 H   0  0  0  0  0  0
  -27.8129  -11.3252   18.8006 H   0  0  0  0  0  0
  -27.3661  -12.6751   17.7906 H   0  0  0  0  0  0
  -27.7070  -14.2633   19.5875 H   0  0  0  0  0  0
  -28.6843  -11.9705   21.3550 H   0  0  0  0  0  0
  -28.4688  -13.6147   21.8699 H   0  0  0  0  0  0
  -25.2760   -9.5687   22.4763 H   0  0  0  0  0  0
  -23.9999   -7.4644   22.7491 H   0  0  0  0  0  0
  -21.0830   -8.8786   19.8969 H   0  0  0  0  0  0
  -22.3699  -10.9680   19.6175 H   0  0  0  0  0  0
  -21.2017   -7.6153   23.9710 H   0  0  0  0  0  0
  -21.1464   -6.0528   25.9070 H   0  0  0  0  0  0
  -22.0607   -2.7613   23.2850 H   0  0  0  0  0  0
  -22.4094  -11.9925   22.4788 H   0  0  0  0  0  0
  -21.1116  -13.1301   22.2561 H   0  0  0  0  0  0
  -24.6643  -15.8458   20.5173 H   0  0  0  0  0  0
  -26.2867  -15.6300   20.0968 H   0  0  0  0  0  0
  -26.7090  -32.5571   23.1187 H   0  0  0  0  0  0
  -25.0067  -33.9792   25.0524 H   0  0  0  0  0  0
  -22.6958  -31.3186   21.4227 H   0  0  0  0  0  0
  -23.3711  -35.9672   23.3317 H   0  0  0  0  0  0
  -24.3543  -36.8920   22.2049 H   0  0  0  0  0  0
  -23.7203  -37.6541   23.6638 H   0  0  0  0  0  0
  -26.0374  -31.5796   20.6021 H   0  0  0  0  0  0
  -26.8289  -30.8829   21.9899 H   0  0  0  0  0  0
  -28.0877  -29.0356   21.2210 H   0  0  0  0  0  0
  -26.0178  -26.0521   18.8737 H   0  0  0  0  0  0
  -23.9798  -27.3643   18.9533 H   0  0  0  0  0  0
  -23.7397  -30.6313   19.4216 H   0  0  0  0  0  0
  -22.7361  -29.2796   19.8527 H   0  0  0  0  0  0
  -25.1240  -36.2006   25.0838 H   0  0  0  0  0  0
  -20.9964  -28.3274   24.1432 H   0  0  0  0  0  0
  -20.5630  -26.2308   23.3612 H   0  0  0  0  0  0
  -21.6616  -26.7467   22.1222 H   0  0  0  0  0  0
  -19.6877  -25.6326   21.1235 H   0  0  0  0  0  0
  -19.6648  -27.3225   20.6745 H   0  0  0  0  0  0
  -17.4163  -26.6709   21.4049 H   0  0  0  0  0  0
  -18.0334  -26.0065   22.9015 H   0  0  0  0  0  0
  -19.7913  -30.7261   24.2351 H   0  0  0  0  0  0
  -17.5008  -31.6294   24.5185 H   0  0  0  0  0  0
  -15.5345  -30.3074   23.7588 H   0  0  0  0  0  0
  -15.8648  -28.0881   22.7055 H   0  0  0  0  0  0
  -24.5946  -30.7004   25.7879 H   0  0  0  0  0  0
  -24.8909  -32.2859   26.4939 H   0  0  0  0  0  0
  -25.8130  -30.8927   27.0279 H   0  0  0  0  0  0
  -26.2849  -29.6816   24.1145 H   0  0  0  0  0  0
  -27.4023  -29.7247   25.4582 H   0  0  0  0  0  0
  -27.8713  -30.4333   23.9298 H   0  0  0  0  0  0
  -27.2663  -33.3620   26.2102 H   0  0  0  0  0  0
  -28.3875  -32.6871   25.0355 H   0  0  0  0  0  0
  -28.0698  -31.8428   26.5437 H   0  0  0  0  0  0
  -28.2601  -38.0105   24.7511 H   0  0  0  0  0  0
  -28.1025  -36.2639   24.6289 H   0  0  0  0  0  0
  -27.2290  -37.1481   25.8878 H   0  0  0  0  0  0
  -20.9220  -29.8869   21.7041 H   0  0  0  0  0  0
  -26.0153  -38.2888   24.1466 H   0  0  0  0  0  0
  -33.2632  -18.0301   23.4289 H   0  0  0  0  0  0
  -32.4864  -20.0998   22.3499 H   0  0  0  0  0  0
  -32.1954  -15.8634   22.9148 H   0  0  0  0  0  0
  -29.3584  -17.8734   20.3425 H   0  0  0  0  0  0
  -27.2721  -23.0972   21.6213 H   0  0  0  0  0  0
  -27.9993  -22.4569   20.1940 H   0  0  0  0  0  0
  -30.1714  -23.4572   19.2756 H   0  0  0  0  0  0
  -30.9676  -24.7501   20.1408 H   0  0  0  0  0  0
  -28.4509  -20.9694   22.1201 H   0  0  0  0  0  0
  -29.1377  -22.2888   23.0199 H   0  0  0  0  0  0
  -31.4503  -23.2990   22.0358 H   0  0  0  0  0  0
  -32.0715  -22.5490   20.6005 H   0  0  0  0  0  0
  -28.6698  -25.7695   23.9024 H   0  0  0  0  0  0
  -27.6393  -24.4662   23.3395 H   0  0  0  0  0  0
  -27.6057  -26.0397   22.5347 H   0  0  0  0  0  0
  -29.5082  -20.3097   19.9904 H   0  0  0  0  0  0
  -31.2007  -20.6260   19.7636 H   0  0  0  0  0  0
  -28.3244  -24.9367   18.9566 H   0  0  0  0  0  0
  -27.1396  -24.9292   20.2330 H   0  0  0  0  0  0
  -29.1552  -15.3009   21.5368 H   0  0  0  0  0  0
  -30.8741  -21.2213   22.2624 H   0  0  0  0  0  0
  1 25  1  0  0  0
  1 30  2  0  0  0
  1 85  1  0  0  0
  2  3  1  0  0  0
  2 25  1  0  0  0
  2 88  1  0  0  0
  2 89  1  0  0  0
  3  4  1  0  0  0
  3 90  1  0  0  0
  3 91  1  0  0  0
  4  5  1  0  0  0
  4 92  1  0  0  0
  4 93  1  0  0  0
  5  6  1  0  0  0
  5 26  1  0  0  0
  5 94  1  0  0  0
  6 25  1  0  0  0
  6 95  1  0  0  0
  6 96  1  0  0  0
  7  8  2  0  0  0
  7 26  1  0  0  0
  7 29  1  0  0  0
  8  9  1  0  0  0
  8 22  1  0  0  0
  9 10  1  0  0  0
  9 27  2  0  0  0
 10 11  2  0  0  0
 10 15  1  0  0  0
 11 12  1  0  0  0
 11 97  1  0  0  0
 12 13  2  0  0  0
 12 98  1  0  0  0
 13 14  1  0  0  0
 13 31  1  0  0  0
 14 15  2  0  0  0
 14 99  1  0  0  0
 15100  1  0  0  0
 16 17  2  0  0  0
 16 21  1  0  0  0
 16 31  1  0  0  0
 17 18  1  0  0  0
 17101  1  0  0  0
 18 19  2  0  0  0
 18102  1  0  0  0
 19 20  1  0  0  0
 19 24  1  0  0  0
 20 21  2  0  0  0
 20103  1  0  0  0
 21 23  1  0  0  0
 22 28  1  0  0  0
 22 32  2  0  0  0
 26 27  1  0  0  0
 28104  1  0  0  0
 28105  1  0  0  0
 29106  1  0  0  0
 29107  1  0  0  0
 33 34  1  0  0  0
 33 66  1  0  0  0
 33 70  2  0  0  0
 34 36  1  0  0  0
 34 59  1  0  0  0
 34108  1  0  0  0
 35 44  2  0  0  0
 35 45  1  0  0  0
 35 68  1  0  0  0
 36 56  1  0  0  0
 36109  1  0  0  0
 37 39  1  0  0  0
 37 47  1  0  0  0
 37 66  1  0  0  0
 37110  1  0  0  0
 38 43  2  0  0  0
 38 46  1  0  0  0
 38 47  1  0  0  0
 39 64  1  0  0  0
 39 67  2  0  0  0
 40 52  1  0  0  0
 40 53  2  0  0  0
 40 58  1  0  0  0
 41111  1  0  0  0
 41112  1  0  0  0
 41113  1  0  0  0
 41 48  1  0  0  0
 42 43  1  0  0  0
 42 66  1  0  0  0
 42114  1  0  0  0
 42115  1  0  0  0
 43 44  1  0  0  0
 44116  1  0  0  0
 45 46  2  0  0  0
 45117  1  0  0  0
 46118  1  0  0  0
 47119  1  0  0  0
 47120  1  0  0  0
 48 56  1  0  0  0
 48 65  1  0  0  0
 48121  1  0  0  0
 49 50  1  0  0  0
 49 53  1  0  0  0
 49 64  1  0  0  0
 49122  1  0  0  0
 50 51  1  0  0  0
 50123  1  0  0  0
 50124  1  0  0  0
 51 52  1  0  0  0
 51125  1  0  0  0
 51126  1  0  0  0
 52127  1  0  0  0
 52128  1  0  0  0
 53 54  1  0  0  0
 54 55  2  0  0  0
 54129  1  0  0  0
 55 57  1  0  0  0
 55130  1  0  0  0
 56 69  2  0  0  0
 57 58  2  0  0  0
 57131  1  0  0  0
 58132  1  0  0  0
 59 60  1  0  0  0
 59 61  1  0  0  0
 59 62  1  0  0  0
 60133  1  0  0  0
 60134  1  0  0  0
 60135  1  0  0  0
 61136  1  0  0  0
 61137  1  0  0  0
 61138  1  0  0  0
 62139  1  0  0  0
 62140  1  0  0  0
 62141  1  0  0  0
 63 65  1  0  0  0
 63142  1  0  0  0
 63143  1  0  0  0
 63144  1  0  0  0
 64145  1  0  0  0
 65146  1  0  0  0
 68 84  1  0  0  0
 71 72  2  0  0  0
 71 73  1  0  0  0
 71147  1  0  0  0
 72 75  1  0  0  0
 72148  1  0  0  0
 73 76  2  0  0  0
 73149  1  0  0  0
 74 75  2  0  0  0
 74 76  1  0  0  0
 74150  1  0  0  0
 75 83  1  0  0  0
 76 85  1  0  0  0
 77 79  1  0  0  0
 77 81  1  0  0  0
 77151  1  0  0  0
 77152  1  0  0  0
 78 80  1  0  0  0
 78 81  1  0  0  0
 78153  1  0  0  0
 78154  1  0  0  0
 79 86  1  0  0  0
 79155  1  0  0  0
 79156  1  0  0  0
 80 86  1  0  0  0
 80157  1  0  0  0
 80158  1  0  0  0
 81 84  1  0  0  0
 81 87  1  0  0  0
 82 87  1  0  0  0
 82159  1  0  0  0
 82160  1  0  0  0
 82161  1  0  0  0
 83162  1  0  0  0
 83163  1  0  0  0
 83 86  1  0  0  0
 84164  1  0  0  0
 84165  1  0  0  0
 85166  1  0  0  0
 86167  1  0  0  0
M  CHG  1  86   1
M  ISO  4   1 100  68 101  84 101  85 100
M  END
> <chiral flag>
0

> <version>
0

> <s_m_source_file>
/data/baiqing/PycharmProjects/Reinvent-master-3.2/result/LINK_invent/BTK/process_docking_weight1_custom_product_contain_oxygen_bond_distance_aromatic_linkinvent_7_9_3/rearranged_h_0156.sdf

> <i_m_source_file_index>
39

> <r_mmod_Potential_Energy-OPLS-2005>
-114.060775756836

> <r_mmod_Stretch_Energy-OPLS-2005>
43.2158012390137

> <r_mmod_Bend_Energy-OPLS-2005>
115.611854553223

> <r_mmod_Torsional_Energy-OPLS-2005>
285.462005615234

> <r_mmod_Improper_Torsional_Energy-OPLS-2005>
2.73278260231018

> <r_mmod_Van_der_Waal_Energy-OPLS-2005>
166.14714050293

> <r_mmod_Electrostatic_Energy-OPLS-2005>
-296.939880371094

> <r_mmod_Solvation_Energy-OPLS-2005>
-446.804351806641

> <b_mmod_Minimization_Converged-OPLS-2005>
0

> <r_mmod_RMS_Derivative-OPLS-2005>
3.14815020561218

$$$$
39
                    3D
 Structure written by MMmdl.
154162  0  0  1  0            999 V2000
  -30.6440  -14.5513   20.5801 C   0  0  0  0  0  0
  -30.4446  -12.3592   19.4274 C   0  0  0  0  0  0
  -29.5037  -12.5261   18.2133 C   0  0  0  0  0  0
  -28.0255  -12.3708   18.6247 C   0  0  0  0  0  0
  -27.6647  -13.2070   19.8814 C   0  0  2  0  0  0
  -28.7087  -12.9800   20.9987 C   0  0  0  0  0  0
  -25.2551  -13.8109   20.5628 C   0  0  0  0  0  0
  -24.1826  -13.0396   20.9180 C   0  0  0  0  0  0
  -24.6409  -11.6879   20.8759 C   0  0  0  0  0  0
  -23.9074  -10.4277   21.0429 C   0  0  0  0  0  0
  -24.3627   -9.4186   21.9195 C   0  0  0  0  0  0
  -23.6298   -8.2225   22.0761 C   0  0  0  0  0  0
  -22.4276   -8.0277   21.3551 C   0  0  0  0  0  0
  -21.9922   -9.0254   20.4647 C   0  0  0  0  0  0
  -22.7262  -10.2125   20.3061 C   0  0  0  0  0  0
  -21.6842   -6.0739   22.5289 C   0  0  0  0  0  0
  -21.4006   -6.5644   23.8225 C   0  0  0  0  0  0
  -21.3658   -5.6797   24.9192 C   0  0  0  0  0  0
  -21.6047   -4.3061   24.7240 C   0  0  0  0  0  0
  -21.8821   -3.8148   23.4365 C   0  0  0  0  0  0
  -21.9184   -4.6965   22.3420 C   0  0  0  0  0  0
  -22.7856  -13.5199   21.1863 C   0  0  0  0  0  0
  -22.1651   -4.2150   21.0998 F   0  0  0  0  0  0
  -21.5632   -3.4544   25.7751 F   0  0  0  0  0  0
  -30.0374  -13.3309   20.4588 N   0  0  0  0  0  0
  -26.3040  -12.9311   20.3396 N   0  0  0  0  0  0
  -25.9342  -11.6470   20.5800 N   0  0  0  0  0  0
  -22.0504  -12.8181   22.0419 N   0  0  0  0  0  0
  -25.4147  -15.1807   20.3914 N   0  0  0  0  0  0
  -31.7374  -14.8080   20.0659 O   0  0  0  0  0  0
  -21.6630   -6.8884   21.4249 O   0  0  0  0  0  0
  -22.3537  -14.5516   20.6730 O   0  0  0  0  0  0
  -24.6177  -31.8645   23.2057 C   0  0  0  0  0  0
  -25.9050  -32.4810   23.8375 C   0  0  1  0  0  0
  -27.2434  -27.3898   20.1162 C   0  0  0  0  0  0
  -25.5893  -33.8611   24.2310 N   0  0  0  0  0  0
  -23.4111  -30.4836   21.5470 C   0  0  2  0  0  0
  -24.8626  -28.9377   20.1218 C   0  0  0  0  0  0
  -22.7436  -29.4633   22.4977 C   0  0  0  0  0  0
  -18.0278  -28.1380   22.8492 C   0  0  0  0  0  0
  -24.1487  -36.7302   23.2639 C   0  0  0  0  0  0
  -25.9436  -30.8169   21.3660 C   0  0  0  0  0  0
  -26.0248  -29.4458   20.7166 C   0  0  0  0  0  0
  -27.2208  -28.6828   20.7032 C   0  0  0  0  0  0
  -26.0629  -26.9028   19.5191 C   0  0  0  0  0  0
  -24.8785  -27.6672   19.5189 C   0  0  0  0  0  0
  -23.6256  -29.8098   20.1650 C   0  0  0  0  0  0
  -25.4113  -36.3106   24.0332 C   0  0  1  0  0  0
  -20.5871  -28.3673   23.1313 C   0  0  2  0  0  0
  -20.6764  -26.9406   22.5423 C   0  0  0  0  0  0
  -19.5743  -26.6387   21.5221 C   0  0  0  0  0  0
  -18.1922  -26.7927   22.1628 C   0  0  0  0  0  0
  -19.1527  -28.8848   23.2897 C   0  0  0  0  0  0
  -18.9451  -30.1456   23.8902 C   0  0  0  0  0  0
  -17.6451  -30.6587   24.0567 C   0  0  0  0  0  0
  -25.9041  -34.9472   23.5126 C   0  0  0  0  0  0
  -16.5345  -29.9084   23.6330 C   0  0  0  0  0  0
  -16.7267  -28.6504   23.0346 C   0  0  0  0  0  0
  -26.4466  -31.6598   25.0720 C   0  0  0  0  0  0
  -25.3717  -31.3710   26.1461 C   0  0  0  0  0  0
  -27.0307  -30.3039   24.6117 C   0  0  0  0  0  0
  -27.6032  -32.4327   25.7491 C   0  0  0  0  0  0
  -27.5585  -37.1810   24.8464 C   0  0  0  0  0  0
  -21.4157  -29.3031   22.3713 N   0  0  0  0  0  0
  -26.4300  -37.3790   23.9408 N   0  0  0  0  0  0
  -24.6756  -31.0709   22.0975 N   0  0  0  0  0  0
  -23.4190  -28.8178   23.3037 O   0  0  0  0  0  0
  -28.3986  -26.6262   20.0659 O   0  0  0  0  0  0
  -26.5609  -34.8926   22.4691 O   0  0  0  0  0  0
  -23.5354  -32.1410   23.7422 O   0  0  0  0  0  0
  -30.3688  -17.9111   20.7252 C   0  0  0  0  0  0
  -29.5844  -19.1363   20.6552 C   0  0  0  0  0  0
  -29.6211  -16.7769   21.0263 C   0  0  0  0  0  0
  -28.2422  -18.9165   20.8615 C   0  0  0  0  0  0
  -30.1429  -20.5157   20.4561 C   0  0  0  0  0  0
  -28.5995  -24.0903   20.0762 C   0  0  0  0  0  0
  -29.7051  -23.0786   20.5017 C   0  0  0  0  0  0
  -28.4336  -25.4197   20.8800 C   0  0  0  0  0  0
  -27.1685  -19.8070   20.8491 N   0  0  0  0  0  0
  -29.9319  -15.4616   21.2879 N   0  0  0  0  0  0
  -29.3432  -21.6224   20.4911 N   0  0  0  0  0  0
  -31.4634  -20.6761   20.2672 N   0  3  0  0  0  0
  -27.8528  -23.8320   19.1257 O   0  0  0  0  0  0
  -27.9427  -17.2362   21.2123 S   0  0  0  0  0  0
  -31.4835  -12.4972   19.1206 H   0  0  0  0  0  0
  -30.3829  -11.3441   19.8231 H   0  0  0  0  0  0
  -29.7520  -11.7980   17.4398 H   0  0  0  0  0  0
  -29.6554  -13.5092   17.7654 H   0  0  0  0  0  0
  -27.8456  -11.3129   18.8204 H   0  0  0  0  0  0
  -27.3738  -12.6403   17.7933 H   0  0  0  0  0  0
  -27.7069  -14.2577   19.5919 H   0  0  0  0  0  0
  -28.7070  -11.9345   21.3101 H   0  0  0  0  0  0
  -28.4455  -13.5389   21.8974 H   0  0  0  0  0  0
  -25.2776   -9.5649   22.4761 H   0  0  0  0  0  0
  -24.0014   -7.4607   22.7468 H   0  0  0  0  0  0
  -21.0863   -8.8780   19.8935 H   0  0  0  0  0  0
  -22.3746  -10.9671   19.6166 H   0  0  0  0  0  0
  -21.1994   -7.6151   23.9736 H   0  0  0  0  0  0
  -21.1475   -6.0526   25.9098 H   0  0  0  0  0  0
  -22.0597   -2.7605   23.2874 H   0  0  0  0  0  0
  -22.4116  -11.9838   22.4795 H   0  0  0  0  0  0
  -21.1116  -13.1192   22.2623 H   0  0  0  0  0  0
  -24.6370  -15.8260   20.4767 H   0  0  0  0  0  0
  -26.2606  -15.6231   20.0572 H   0  0  0  0  0  0
  -26.7126  -32.5511   23.1139 H   0  0  0  0  0  0
  -25.0046  -33.9772   25.0459 H   0  0  0  0  0  0
  -22.7015  -31.3000   21.4014 H   0  0  0  0  0  0
  -23.3758  -35.9626   23.3300 H   0  0  0  0  0  0
  -24.3578  -36.8921   22.2055 H   0  0  0  0  0  0
  -23.7233  -37.6501   23.6661 H   0  0  0  0  0  0
  -26.0609  -31.5814   20.5966 H   0  0  0  0  0  0
  -26.8274  -30.8731   21.9889 H   0  0  0  0  0  0
  -28.1216  -29.0777   21.1518 H   0  0  0  0  0  0
  -26.0612  -25.9307   19.0462 H   0  0  0  0  0  0
  -23.9855  -27.2711   19.0553 H   0  0  0  0  0  0
  -23.7363  -30.5816   19.4023 H   0  0  0  0  0  0
  -22.7496  -29.2298   19.8689 H   0  0  0  0  0  0
  -25.1295  -36.1965   25.0824 H   0  0  0  0  0  0
  -20.9961  -28.3235   24.1433 H   0  0  0  0  0  0
  -20.5681  -26.2274   23.3606 H   0  0  0  0  0  0
  -21.6630  -26.7439   22.1216 H   0  0  0  0  0  0
  -19.6906  -25.6306   21.1232 H   0  0  0  0  0  0
  -19.6683  -27.3204   20.6760 H   0  0  0  0  0  0
  -17.4198  -26.6688   21.4023 H   0  0  0  0  0  0
  -18.0307  -26.0065   22.9017 H   0  0  0  0  0  0
  -19.7925  -30.7275   24.2263 H   0  0  0  0  0  0
  -17.5005  -31.6260   24.5173 H   0  0  0  0  0  0
  -15.5346  -30.2986   23.7654 H   0  0  0  0  0  0
  -15.8668  -28.0832   22.7047 H   0  0  0  0  0  0
  -24.5900  -30.7048   25.7789 H   0  0  0  0  0  0
  -24.8897  -32.2868   26.4898 H   0  0  0  0  0  0
  -25.8063  -30.8888   27.0227 H   0  0  0  0  0  0
  -26.2865  -29.6807   24.1144 H   0  0  0  0  0  0
  -27.4039  -29.7271   25.4590 H   0  0  0  0  0  0
  -27.8715  -30.4358   23.9301 H   0  0  0  0  0  0
  -27.2648  -33.3620   26.2085 H   0  0  0  0  0  0
  -28.3838  -32.6898   25.0318 H   0  0  0  0  0  0
  -28.0709  -31.8442   26.5396 H   0  0  0  0  0  0
  -28.2602  -38.0110   24.7526 H   0  0  0  0  0  0
  -28.1085  -36.2642   24.6279 H   0  0  0  0  0  0
  -27.2301  -37.1445   25.8867 H   0  0  0  0  0  0
  -20.9327  -29.8745   21.6921 H   0  0  0  0  0  0
  -26.0184  -38.2865   24.1414 H   0  0  0  0  0  0
  -31.4405  -17.9098   20.5981 H   0  0  0  0  0  0
  -30.0534  -23.3389   21.5003 H   0  0  0  0  0  0
  -30.5481  -23.2341   19.8302 H   0  0  0  0  0  0
  -29.2621  -25.5106   21.5834 H   0  0  0  0  0  0
  -27.5261  -25.3444   21.4807 H   0  0  0  0  0  0
  -26.7477  -19.8624   19.9241 H   0  0  0  0  0  0
  -26.4192  -19.4712   21.4499 H   0  0  0  0  0  0
  -29.1895  -14.9860   21.7786 H   0  0  0  0  0  0
  -28.3580  -21.3956   20.6256 H   0  0  0  0  0  0
  -32.0728  -19.8736   20.2395 H   0  0  0  0  0  0
  -31.8891  -21.5767   20.1246 H   0  0  0  0  0  0
  1 25  1  0  0  0
  1 30  2  0  0  0
  1 80  1  0  0  0
  2  3  1  0  0  0
  2 25  1  0  0  0
  2 85  1  0  0  0
  2 86  1  0  0  0
  3  4  1  0  0  0
  3 87  1  0  0  0
  3 88  1  0  0  0
  4  5  1  0  0  0
  4 89  1  0  0  0
  4 90  1  0  0  0
  5  6  1  0  0  0
  5 26  1  0  0  0
  5 91  1  0  0  0
  6 25  1  0  0  0
  6 92  1  0  0  0
  6 93  1  0  0  0
  7  8  2  0  0  0
  7 26  1  0  0  0
  7 29  1  0  0  0
  8  9  1  0  0  0
  8 22  1  0  0  0
  9 10  1  0  0  0
  9 27  2  0  0  0
 10 11  2  0  0  0
 10 15  1  0  0  0
 11 12  1  0  0  0
 11 94  1  0  0  0
 12 13  2  0  0  0
 12 95  1  0  0  0
 13 14  1  0  0  0
 13 31  1  0  0  0
 14 15  2  0  0  0
 14 96  1  0  0  0
 15 97  1  0  0  0
 16 17  2  0  0  0
 16 21  1  0  0  0
 16 31  1  0  0  0
 17 18  1  0  0  0
 17 98  1  0  0  0
 18 19  2  0  0  0
 18 99  1  0  0  0
 19 20  1  0  0  0
 19 24  1  0  0  0
 20 21  2  0  0  0
 20100  1  0  0  0
 21 23  1  0  0  0
 22 28  1  0  0  0
 22 32  2  0  0  0
 26 27  1  0  0  0
 28101  1  0  0  0
 28102  1  0  0  0
 29103  1  0  0  0
 29104  1  0  0  0
 33 34  1  0  0  0
 33 66  1  0  0  0
 33 70  2  0  0  0
 34 36  1  0  0  0
 34 59  1  0  0  0
 34105  1  0  0  0
 35 44  2  0  0  0
 35 45  1  0  0  0
 35 68  1  0  0  0
 36 56  1  0  0  0
 36106  1  0  0  0
 37 39  1  0  0  0
 37 47  1  0  0  0
 37 66  1  0  0  0
 37107  1  0  0  0
 38 43  2  0  0  0
 38 46  1  0  0  0
 38 47  1  0  0  0
 39 64  1  0  0  0
 39 67  2  0  0  0
 40 52  1  0  0  0
 40 53  2  0  0  0
 40 58  1  0  0  0
 41108  1  0  0  0
 41109  1  0  0  0
 41110  1  0  0  0
 41 48  1  0  0  0
 42 43  1  0  0  0
 42 66  1  0  0  0
 42111  1  0  0  0
 42112  1  0  0  0
 43 44  1  0  0  0
 44113  1  0  0  0
 45 46  2  0  0  0
 45114  1  0  0  0
 46115  1  0  0  0
 47116  1  0  0  0
 47117  1  0  0  0
 48 56  1  0  0  0
 48 65  1  0  0  0
 48118  1  0  0  0
 49 50  1  0  0  0
 49 53  1  0  0  0
 49 64  1  0  0  0
 49119  1  0  0  0
 50 51  1  0  0  0
 50120  1  0  0  0
 50121  1  0  0  0
 51 52  1  0  0  0
 51122  1  0  0  0
 51123  1  0  0  0
 52124  1  0  0  0
 52125  1  0  0  0
 53 54  1  0  0  0
 54 55  2  0  0  0
 54126  1  0  0  0
 55 57  1  0  0  0
 55127  1  0  0  0
 56 69  2  0  0  0
 57 58  2  0  0  0
 57128  1  0  0  0
 58129  1  0  0  0
 59 60  1  0  0  0
 59 61  1  0  0  0
 59 62  1  0  0  0
 60130  1  0  0  0
 60131  1  0  0  0
 60132  1  0  0  0
 61133  1  0  0  0
 61134  1  0  0  0
 61135  1  0  0  0
 62136  1  0  0  0
 62137  1  0  0  0
 62138  1  0  0  0
 63 65  1  0  0  0
 63139  1  0  0  0
 63140  1  0  0  0
 63141  1  0  0  0
 64142  1  0  0  0
 65143  1  0  0  0
 68 78  1  0  0  0
 71 72  1  0  0  0
 71 73  2  0  0  0
 71144  1  0  0  0
 72 74  2  0  0  0
 72 75  1  0  0  0
 73 80  1  0  0  0
 73 84  1  0  0  0
 74 79  1  0  0  0
 74 84  1  0  0  0
 75 81  1  0  0  0
 75 82  2  0  0  0
 76 77  1  0  0  0
 76 78  1  0  0  0
 76 83  2  0  0  0
 77 81  1  0  0  0
 77145  1  0  0  0
 77146  1  0  0  0
 78147  1  0  0  0
 78148  1  0  0  0
 79149  1  0  0  0
 79150  1  0  0  0
 80151  1  0  0  0
 81152  1  0  0  0
 82153  1  0  0  0
 82154  1  0  0  0
M  CHG  1  82   1
M  ISO  4   1 100  68 101  78 101  80 100
M  END
> <chiral flag>
0

> <version>
0

> <s_m_source_file>
/data/baiqing/PycharmProjects/Reinvent-master-3.2/result/LINK_invent/BTK/process_docking_weight1_custom_product_contain_oxygen_bond_distance_aromatic_linkinvent_7_9_3/rearranged_h_0156.sdf

> <i_m_source_file_index>
40

> <r_mmod_Potential_Energy-OPLS-2005>
-136.83039855957

> <r_mmod_Stretch_Energy-OPLS-2005>
52.5240707397461

> <r_mmod_Bend_Energy-OPLS-2005>
127.710723876953

> <r_mmod_Torsional_Energy-OPLS-2005>
270.943878173828

> <r_mmod_Improper_Torsional_Energy-OPLS-2005>
12.2594442367554

> <r_mmod_Van_der_Waal_Energy-OPLS-2005>
123.344284057617

> <r_mmod_Electrostatic_Energy-OPLS-2005>
-273.963714599609

> <r_mmod_Solvation_Energy-OPLS-2005>
-471.671966552734

> <b_mmod_Minimization_Converged-OPLS-2005>
0

> <r_mmod_RMS_Derivative-OPLS-2005>
1.36806797981262

$$$$
40
                    3D
 Structure written by MMmdl.
155164  0  0  1  0            999 V2000
  -30.6519  -14.7039   20.4921 C   0  0  0  0  0  0
  -30.4282  -12.4349   19.4672 C   0  0  0  0  0  0
  -29.4991  -12.4960   18.2322 C   0  0  0  0  0  0
  -28.0250  -12.3409   18.6478 C   0  0  0  0  0  0
  -27.6454  -13.2345   19.8584 C   0  0  2  0  0  0
  -28.6934  -13.1541   20.9921 C   0  0  0  0  0  0
  -25.2517  -13.8224   20.5709 C   0  0  0  0  0  0
  -24.1819  -13.0461   20.9183 C   0  0  0  0  0  0
  -24.6420  -11.6901   20.8746 C   0  0  0  0  0  0
  -23.9101  -10.4296   21.0426 C   0  0  0  0  0  0
  -24.3641   -9.4202   21.9199 C   0  0  0  0  0  0
  -23.6300   -8.2246   22.0764 C   0  0  0  0  0  0
  -22.4283   -8.0307   21.3546 C   0  0  0  0  0  0
  -21.9928   -9.0288   20.4653 C   0  0  0  0  0  0
  -22.7275  -10.2145   20.3081 C   0  0  0  0  0  0
  -21.6855   -6.0764   22.5266 C   0  0  0  0  0  0
  -21.4003   -6.5648   23.8202 C   0  0  0  0  0  0
  -21.3627   -5.6801   24.9162 C   0  0  0  0  0  0
  -21.6050   -4.3074   24.7218 C   0  0  0  0  0  0
  -21.8818   -3.8157   23.4334 C   0  0  0  0  0  0
  -21.9192   -4.6989   22.3395 C   0  0  0  0  0  0
  -22.7835  -13.5229   21.1857 C   0  0  0  0  0  0
  -22.1665   -4.2182   21.0982 F   0  0  0  0  0  0
  -21.5619   -3.4561   25.7729 F   0  0  0  0  0  0
  -29.9941  -13.4962   20.4092 N   0  0  0  0  0  0
  -26.2961  -12.9415   20.3343 N   0  0  0  0  0  0
  -25.9361  -11.6546   20.5814 N   0  0  0  0  0  0
  -22.0501  -12.8232   22.0435 N   0  0  0  0  0  0
  -25.4205  -15.1963   20.4112 N   0  0  0  0  0  0
  -31.8280  -14.7726   20.1328 O   0  0  0  0  0  0
  -21.6636   -6.8917   21.4242 O   0  0  0  0  0  0
  -22.3512  -14.5529   20.6709 O   0  0  0  0  0  0
  -24.6281  -31.8580   23.2032 C   0  0  0  0  0  0
  -25.9122  -32.4758   23.8381 C   0  0  1  0  0  0
  -27.2095  -27.2690   20.1405 C   0  0  0  0  0  0
  -25.5915  -33.8573   24.2271 N   0  0  0  0  0  0
  -23.4221  -30.4847   21.5500 C   0  0  2  0  0  0
  -24.8707  -28.9474   20.1069 C   0  0  0  0  0  0
  -22.7481  -29.4612   22.4946 C   0  0  0  0  0  0
  -18.0258  -28.1362   22.8487 C   0  0  0  0  0  0
  -24.1461  -36.7257   23.2656 C   0  0  0  0  0  0
  -25.9730  -30.7746   21.3891 C   0  0  0  0  0  0
  -26.0477  -29.4045   20.7177 C   0  0  0  0  0  0
  -27.2207  -28.5807   20.7220 C   0  0  0  0  0  0
  -26.0190  -26.8903   19.4759 C   0  0  0  0  0  0
  -24.8673  -27.6988   19.4693 C   0  0  0  0  0  0
  -23.6327  -29.8224   20.1659 C   0  0  0  0  0  0
  -25.4104  -36.3052   24.0324 C   0  0  1  0  0  0
  -20.5861  -28.3655   23.1281 C   0  0  2  0  0  0
  -20.6754  -26.9374   22.5405 C   0  0  0  0  0  0
  -19.5730  -26.6319   21.5230 C   0  0  0  0  0  0
  -18.1881  -26.7904   22.1606 C   0  0  0  0  0  0
  -19.1521  -28.8834   23.2852 C   0  0  0  0  0  0
  -18.9448  -30.1437   23.8874 C   0  0  0  0  0  0
  -17.6460  -30.6578   24.0539 C   0  0  0  0  0  0
  -25.9067  -34.9426   23.5084 C   0  0  0  0  0  0
  -16.5343  -29.9063   23.6372 C   0  0  0  0  0  0
  -16.7249  -28.6467   23.0422 C   0  0  0  0  0  0
  -26.4493  -31.6633   25.0809 C   0  0  0  0  0  0
  -25.3710  -31.3791   26.1540 C   0  0  0  0  0  0
  -27.0416  -30.3068   24.6363 C   0  0  0  0  0  0
  -27.6001  -32.4483   25.7578 C   0  0  0  0  0  0
  -27.5554  -37.1785   24.8489 C   0  0  0  0  0  0
  -21.4172  -29.3044   22.3700 N   0  0  0  0  0  0
  -26.4280  -37.3748   23.9413 N   0  0  0  0  0  0
  -24.6946  -31.0565   22.1020 N   0  0  0  0  0  0
  -23.4199  -28.8103   23.2998 O   0  0  0  0  0  0
  -28.2605  -26.3286   20.2414 O   0  0  0  0  0  0
  -26.5623  -34.8867   22.4653 O   0  0  0  0  0  0
  -23.5453  -32.1455   23.7337 O   0  0  0  0  0  0
  -30.2125  -19.3940   22.0159 C   0  0  0  0  0  0
  -29.7987  -20.7879   22.0205 C   0  0  0  0  0  0
  -29.8707  -18.6480   20.9332 C   0  0  0  0  0  0
  -29.1619  -21.1919   20.8445 C   0  0  0  0  0  0
  -28.9092  -23.7509   20.6632 C   0  0  0  0  0  0
  -31.0496  -18.5819   22.9451 C   0  0  0  0  0  0
  -31.5042  -17.3583   22.1005 C   0  0  0  0  0  0
  -30.5965  -17.2587   20.8385 C   0  0  1  0  0  0
  -30.0393  -21.6588   23.2225 C   0  0  0  0  0  0
  -27.8428  -24.8777   20.2998 C   0  0  0  0  0  0
  -28.5590  -22.4177   20.5016 N   0  0  0  0  0  0
  -29.9609  -15.8686   20.8076 N   0  0  0  0  0  0
  -30.0313  -24.0946   21.0423 O   0  0  0  0  0  0
  -29.0641  -19.7280   19.7806 S   0  0  0  0  0  0
  -31.4698  -12.5487   19.1562 H   0  0  0  0  0  0
  -30.3759  -11.4556   19.9474 H   0  0  0  0  0  0
  -29.7731  -11.7151   17.5209 H   0  0  0  0  0  0
  -29.6429  -13.4459   17.7141 H   0  0  0  0  0  0
  -27.8652  -11.2923   18.8946 H   0  0  0  0  0  0
  -27.3777  -12.5598   17.8017 H   0  0  0  0  0  0
  -27.6497  -14.2608   19.4909 H   0  0  0  0  0  0
  -28.7203  -12.1517   21.4235 H   0  0  0  0  0  0
  -28.4418  -13.8355   21.8071 H   0  0  0  0  0  0
  -25.2792   -9.5678   22.4768 H   0  0  0  0  0  0
  -24.0020   -7.4642   22.7482 H   0  0  0  0  0  0
  -21.0864   -8.8811   19.8960 H   0  0  0  0  0  0
  -22.3748  -10.9695   19.6194 H   0  0  0  0  0  0
  -21.1979   -7.6153   23.9714 H   0  0  0  0  0  0
  -21.1443   -6.0523   25.9062 H   0  0  0  0  0  0
  -22.0621   -2.7618   23.2819 H   0  0  0  0  0  0
  -22.4121  -11.9897   22.4796 H   0  0  0  0  0  0
  -21.1118  -13.1213   22.2692 H   0  0  0  0  0  0
  -24.6528  -15.8502   20.5245 H   0  0  0  0  0  0
  -26.2700  -15.6334   20.0759 H   0  0  0  0  0  0
  -26.7176  -32.5406   23.1117 H   0  0  0  0  0  0
  -25.0127  -33.9790   25.0451 H   0  0  0  0  0  0
  -22.7157  -31.3054   21.4083 H   0  0  0  0  0  0
  -23.3728  -35.9590   23.3379 H   0  0  0  0  0  0
  -24.3522  -36.8879   22.2067 H   0  0  0  0  0  0
  -23.7232  -37.6468   23.6678 H   0  0  0  0  0  0
  -26.1315  -31.5400   20.6298 H   0  0  0  0  0  0
  -26.8421  -30.8068   22.0331 H   0  0  0  0  0  0
  -28.1163  -28.9241   21.2296 H   0  0  0  0  0  0
  -25.9242  -25.9471   18.9648 H   0  0  0  0  0  0
  -23.9717  -27.3428   18.9820 H   0  0  0  0  0  0
  -23.7300  -30.6055   19.4160 H   0  0  0  0  0  0
  -22.7544  -29.2483   19.8627 H   0  0  0  0  0  0
  -25.1265  -36.1927   25.0819 H   0  0  0  0  0  0
  -20.9947  -28.3234   24.1413 H   0  0  0  0  0  0
  -20.5669  -26.2248   23.3584 H   0  0  0  0  0  0
  -21.6592  -26.7393   22.1154 H   0  0  0  0  0  0
  -19.6894  -25.6219   21.1257 H   0  0  0  0  0  0
  -19.6707  -27.3123   20.6758 H   0  0  0  0  0  0
  -17.4147  -26.6685   21.3987 H   0  0  0  0  0  0
  -18.0284  -26.0020   22.8987 H   0  0  0  0  0  0
  -19.7945  -30.7233   24.2217 H   0  0  0  0  0  0
  -17.5038  -31.6304   24.5074 H   0  0  0  0  0  0
  -15.5338  -30.2953   23.7760 H   0  0  0  0  0  0
  -15.8637  -28.0758   22.7237 H   0  0  0  0  0  0
  -24.5838  -30.7187   25.7872 H   0  0  0  0  0  0
  -24.8951  -32.2953   26.5055 H   0  0  0  0  0  0
  -25.8016  -30.8901   27.0277 H   0  0  0  0  0  0
  -26.3058  -29.6779   24.1335 H   0  0  0  0  0  0
  -27.4073  -29.7394   25.4926 H   0  0  0  0  0  0
  -27.8901  -30.4367   23.9649 H   0  0  0  0  0  0
  -27.2538  -33.3800   26.2058 H   0  0  0  0  0  0
  -28.3817  -32.7099   25.0423 H   0  0  0  0  0  0
  -28.0627  -31.8737   26.5618 H   0  0  0  0  0  0
  -28.2572  -38.0065   24.7487 H   0  0  0  0  0  0
  -28.1031  -36.2611   24.6346 H   0  0  0  0  0  0
  -27.2244  -37.1460   25.8878 H   0  0  0  0  0  0
  -20.9358  -29.8805   21.6933 H   0  0  0  0  0  0
  -26.0168  -38.2819   24.1428 H   0  0  0  0  0  0
  -30.4511  -18.2556   23.7929 H   0  0  0  0  0  0
  -31.9025  -19.1346   23.3349 H   0  0  0  0  0  0
  -31.5200  -16.4448   22.6976 H   0  0  0  0  0  0
  -32.5306  -17.5146   21.7623 H   0  0  0  0  0  0
  -31.2322  -17.3134   19.9507 H   0  0  0  0  0  0
  -29.2554  -21.5235   23.9630 H   0  0  0  0  0  0
  -30.0666  -22.7206   23.0095 H   0  0  0  0  0  0
  -30.9886  -21.4311   23.7034 H   0  0  0  0  0  0
  -27.0453  -24.7832   21.0515 H   0  0  0  0  0  0
  -27.4319  -24.5579   19.3368 H   0  0  0  0  0  0
  -27.6754  -22.3136   20.0139 H   0  0  0  0  0  0
  -28.9946  -15.7793   21.0702 H   0  0  0  0  0  0
  1 25  1  0  0  0
  1 30  2  0  0  0
  1 82  1  0  0  0
  2  3  1  0  0  0
  2 25  1  0  0  0
  2 85  1  0  0  0
  2 86  1  0  0  0
  3  4  1  0  0  0
  3 87  1  0  0  0
  3 88  1  0  0  0
  4  5  1  0  0  0
  4 89  1  0  0  0
  4 90  1  0  0  0
  5  6  1  0  0  0
  5 26  1  0  0  0
  5 91  1  0  0  0
  6 25  1  0  0  0
  6 92  1  0  0  0
  6 93  1  0  0  0
  7  8  2  0  0  0
  7 26  1  0  0  0
  7 29  1  0  0  0
  8  9  1  0  0  0
  8 22  1  0  0  0
  9 10  1  0  0  0
  9 27  2  0  0  0
 10 11  2  0  0  0
 10 15  1  0  0  0
 11 12  1  0  0  0
 11 94  1  0  0  0
 12 13  2  0  0  0
 12 95  1  0  0  0
 13 14  1  0  0  0
 13 31  1  0  0  0
 14 15  2  0  0  0
 14 96  1  0  0  0
 15 97  1  0  0  0
 16 17  2  0  0  0
 16 21  1  0  0  0
 16 31  1  0  0  0
 17 18  1  0  0  0
 17 98  1  0  0  0
 18 19  2  0  0  0
 18 99  1  0  0  0
 19 20  1  0  0  0
 19 24  1  0  0  0
 20 21  2  0  0  0
 20100  1  0  0  0
 21 23  1  0  0  0
 22 28  1  0  0  0
 22 32  2  0  0  0
 26 27  1  0  0  0
 28101  1  0  0  0
 28102  1  0  0  0
 29103  1  0  0  0
 29104  1  0  0  0
 33 34  1  0  0  0
 33 66  1  0  0  0
 33 70  2  0  0  0
 34 36  1  0  0  0
 34 59  1  0  0  0
 34105  1  0  0  0
 35 44  2  0  0  0
 35 45  1  0  0  0
 35 68  1  0  0  0
 36 56  1  0  0  0
 36106  1  0  0  0
 37 39  1  0  0  0
 37 47  1  0  0  0
 37 66  1  0  0  0
 37107  1  0  0  0
 38 43  2  0  0  0
 38 46  1  0  0  0
 38 47  1  0  0  0
 39 64  1  0  0  0
 39 67  2  0  0  0
 40 52  1  0  0  0
 40 53  2  0  0  0
 40 58  1  0  0  0
 41108  1  0  0  0
 41109  1  0  0  0
 41110  1  0  0  0
 41 48  1  0  0  0
 42 43  1  0  0  0
 42 66  1  0  0  0
 42111  1  0  0  0
 42112  1  0  0  0
 43 44  1  0  0  0
 44113  1  0  0  0
 45 46  2  0  0  0
 45114  1  0  0  0
 46115  1  0  0  0
 47116  1  0  0  0
 47117  1  0  0  0
 48 56  1  0  0  0
 48 65  1  0  0  0
 48118  1  0  0  0
 49 50  1  0  0  0
 49 53  1  0  0  0
 49 64  1  0  0  0
 49119  1  0  0  0
 50 51  1  0  0  0
 50120  1  0  0  0
 50121  1  0  0  0
 51 52  1  0  0  0
 51122  1  0  0  0
 51123  1  0  0  0
 52124  1  0  0  0
 52125  1  0  0  0
 53 54  1  0  0  0
 54 55  2  0  0  0
 54126  1  0  0  0
 55 57  1  0  0  0
 55127  1  0  0  0
 56 69  2  0  0  0
 57 58  2  0  0  0
 57128  1  0  0  0
 58129  1  0  0  0
 59 60  1  0  0  0
 59 61  1  0  0  0
 59 62  1  0  0  0
 60130  1  0  0  0
 60131  1  0  0  0
 60132  1  0  0  0
 61133  1  0  0  0
 61134  1  0  0  0
 61135  1  0  0  0
 62136  1  0  0  0
 62137  1  0  0  0
 62138  1  0  0  0
 63 65  1  0  0  0
 63139  1  0  0  0
 63140  1  0  0  0
 63141  1  0  0  0
 64142  1  0  0  0
 65143  1  0  0  0
 68 80  1  0  0  0
 71 72  1  0  0  0
 71 73  2  0  0  0
 71 76  1  0  0  0
 72 74  2  0  0  0
 72 79  1  0  0  0
 73 78  1  0  0  0
 73 84  1  0  0  0
 74 81  1  0  0  0
 74 84  1  0  0  0
 75 80  1  0  0  0
 75 81  1  0  0  0
 75 83  2  0  0  0
 76 77  1  0  0  0
 76144  1  0  0  0
 76145  1  0  0  0
 77 78  1  0  0  0
 77146  1  0  0  0
 77147  1  0  0  0
 78 82  1  0  0  0
 78148  1  0  0  0
 79149  1  0  0  0
 79150  1  0  0  0
 79151  1  0  0  0
 80152  1  0  0  0
 80153  1  0  0  0
 81154  1  0  0  0
 82155  1  0  0  0
M  ISO  4   1 100  68 101  80 101  82 100
M  END
> <chiral flag>
0

> <version>
0

> <s_m_source_file>
/data/baiqing/PycharmProjects/Reinvent-master-3.2/result/LINK_invent/BTK/process_docking_weight1_custom_product_contain_oxygen_bond_distance_aromatic_linkinvent_7_9_3/rearranged_h_0156.sdf

> <i_m_source_file_index>
41

> <r_mmod_Potential_Energy-OPLS-2005>
155.183334350586

> <r_mmod_Stretch_Energy-OPLS-2005>
111.992965698242

> <r_mmod_Bend_Energy-OPLS-2005>
253.126068115234

> <r_mmod_Torsional_Energy-OPLS-2005>
242.279113769531

> <r_mmod_Improper_Torsional_Energy-OPLS-2005>
8.48879432678223

> <r_mmod_Van_der_Waal_Energy-OPLS-2005>
124.354202270508

> <r_mmod_Electrostatic_Energy-OPLS-2005>
-425.321136474609

> <r_mmod_Solvation_Energy-OPLS-2005>
-239.885650634766

> <b_mmod_Minimization_Converged-OPLS-2005>
0

> <r_mmod_RMS_Derivative-OPLS-2005>
8.51563930511475

$$$$
41
                    3D
 Structure written by MMmdl.
154163  0  0  1  0            999 V2000
  -30.7294  -14.5954   20.4807 C   0  0  0  0  0  0
  -30.3991  -12.3610   19.4724 C   0  0  0  0  0  0
  -29.4959  -12.4855   18.2303 C   0  0  0  0  0  0
  -28.0206  -12.3414   18.6417 C   0  0  0  0  0  0
  -27.6454  -13.2342   19.8562 C   0  0  2  0  0  0
  -28.6896  -13.1524   20.9946 C   0  0  0  0  0  0
  -25.2518  -13.8219   20.5710 C   0  0  0  0  0  0
  -24.1802  -13.0457   20.9208 C   0  0  0  0  0  0
  -24.6395  -11.6933   20.8753 C   0  0  0  0  0  0
  -23.9076  -10.4300   21.0402 C   0  0  0  0  0  0
  -24.3623   -9.4216   21.9181 C   0  0  0  0  0  0
  -23.6300   -8.2250   22.0753 C   0  0  0  0  0  0
  -22.4283   -8.0279   21.3540 C   0  0  0  0  0  0
  -21.9918   -9.0251   20.4645 C   0  0  0  0  0  0
  -22.7247  -10.2133   20.3051 C   0  0  0  0  0  0
  -21.6858   -6.0737   22.5278 C   0  0  0  0  0  0
  -21.4015   -6.5642   23.8208 C   0  0  0  0  0  0
  -21.3660   -5.6793   24.9173 C   0  0  0  0  0  0
  -21.6044   -4.3055   24.7227 C   0  0  0  0  0  0
  -21.8816   -3.8146   23.4350 C   0  0  0  0  0  0
  -21.9198   -4.6963   22.3406 C   0  0  0  0  0  0
  -22.7818  -13.5227   21.1860 C   0  0  0  0  0  0
  -22.1662   -4.2149   21.0986 F   0  0  0  0  0  0
  -21.5631   -3.4538   25.7740 F   0  0  0  0  0  0
  -30.0073  -13.4333   20.4144 N   0  0  0  0  0  0
  -26.2953  -12.9436   20.3325 N   0  0  0  0  0  0
  -25.9333  -11.6574   20.5784 N   0  0  0  0  0  0
  -22.0474  -12.8212   22.0419 N   0  0  0  0  0  0
  -25.4221  -15.1943   20.4136 N   0  0  0  0  0  0
  -31.8852  -14.6155   20.0565 O   0  0  0  0  0  0
  -21.6643   -6.8884   21.4237 O   0  0  0  0  0  0
  -22.3506  -14.5534   20.6708 O   0  0  0  0  0  0
  -24.6243  -31.8606   23.2058 C   0  0  0  0  0  0
  -25.9104  -32.4784   23.8372 C   0  0  1  0  0  0
  -27.2183  -27.3603   20.1041 C   0  0  0  0  0  0
  -25.5933  -33.8579   24.2304 N   0  0  0  0  0  0
  -23.4166  -30.4878   21.5452 C   0  0  2  0  0  0
  -24.8682  -28.9592   20.0958 C   0  0  0  0  0  0
  -22.7463  -29.4620   22.4902 C   0  0  0  0  0  0
  -18.0290  -28.1390   22.8498 C   0  0  0  0  0  0
  -24.1487  -36.7281   23.2636 C   0  0  0  0  0  0
  -25.9569  -30.8061   21.3736 C   0  0  0  0  0  0
  -26.0353  -29.4425   20.7046 C   0  0  0  0  0  0
  -27.2198  -28.6507   20.7073 C   0  0  0  0  0  0
  -26.0430  -26.9289   19.4561 C   0  0  0  0  0  0
  -24.8727  -27.7070   19.4608 C   0  0  0  0  0  0
  -23.6307  -29.8299   20.1569 C   0  0  0  0  0  0
  -25.4113  -36.3080   24.0335 C   0  0  1  0  0  0
  -20.5897  -28.3680   23.1287 C   0  0  2  0  0  0
  -20.6781  -26.9396   22.5411 C   0  0  0  0  0  0
  -19.5753  -26.6381   21.5217 C   0  0  0  0  0  0
  -18.1931  -26.7938   22.1626 C   0  0  0  0  0  0
  -19.1545  -28.8851   23.2892 C   0  0  0  0  0  0
  -18.9461  -30.1460   23.8896 C   0  0  0  0  0  0
  -17.6458  -30.6587   24.0564 C   0  0  0  0  0  0
  -25.9043  -34.9450   23.5111 C   0  0  0  0  0  0
  -16.5347  -29.9089   23.6345 C   0  0  0  0  0  0
  -16.7275  -28.6511   23.0363 C   0  0  0  0  0  0
  -26.4521  -31.6587   25.0722 C   0  0  0  0  0  0
  -25.3772  -31.3711   26.1460 C   0  0  0  0  0  0
  -27.0359  -30.3014   24.6155 C   0  0  0  0  0  0
  -27.6082  -32.4317   25.7483 C   0  0  0  0  0  0
  -27.5583  -37.1791   24.8467 C   0  0  0  0  0  0
  -21.4176  -29.3030   22.3662 N   0  0  0  0  0  0
  -26.4294  -37.3775   23.9414 N   0  0  0  0  0  0
  -24.6843  -31.0665   22.0983 N   0  0  0  0  0  0
  -23.4194  -28.8132   23.2953 O   0  0  0  0  0  0
  -28.2254  -26.4118   20.2725 O   0  0  0  0  0  0
  -26.5585  -34.8911   22.4657 O   0  0  0  0  0  0
  -23.5422  -32.1360   23.7426 O   0  0  0  0  0  0
  -29.2623  -19.4168   20.3849 C   0  0  0  0  0  0
  -30.2434  -18.4979   20.9411 C   0  0  0  0  0  0
  -30.9839  -19.1211   21.8867 C   0  0  0  0  0  0
  -29.3512  -20.7263   20.8860 C   0  0  0  0  0  0
  -27.8074  -25.4098   21.1596 C   0  0  0  0  0  0
  -28.0121  -24.0558   21.2831 C   0  0  0  0  0  0
  -28.9058  -23.1459   20.5235 C   0  0  0  0  0  0
  -32.0788  -18.3378   22.4704 C   0  0  0  0  0  0
  -32.1667  -17.1440   21.5058 C   0  0  0  0  0  0
  -30.8524  -17.1004   20.6451 C   0  0  1  0  0  0
  -28.5520  -21.8299   20.6694 N   0  0  0  0  0  0
  -30.1369  -15.7836   20.8349 N   0  0  0  0  0  0
  -29.8579  -23.5001   19.8254 O   0  0  0  0  0  0
  -27.3035  -23.4659   22.2651 O   0  0  0  0  0  0
  -30.6175  -20.8043   22.1008 S   0  0  0  0  0  0
  -31.4492  -12.4060   19.1786 H   0  0  0  0  0  0
  -30.2712  -11.3848   19.9431 H   0  0  0  0  0  0
  -29.7546  -11.7201   17.4973 H   0  0  0  0  0  0
  -29.6576  -13.4489   17.7440 H   0  0  0  0  0  0
  -27.8534  -11.2922   18.8891 H   0  0  0  0  0  0
  -27.3681  -12.5600   17.7955 H   0  0  0  0  0  0
  -27.6500  -14.2600   19.4867 H   0  0  0  0  0  0
  -28.6860  -12.1636   21.4556 H   0  0  0  0  0  0
  -28.4502  -13.8637   21.7869 H   0  0  0  0  0  0
  -25.2768   -9.5693   22.4755 H   0  0  0  0  0  0
  -24.0012   -7.4641   22.7468 H   0  0  0  0  0  0
  -21.0856   -8.8770   19.8948 H   0  0  0  0  0  0
  -22.3709  -10.9667   19.6154 H   0  0  0  0  0  0
  -21.1995   -7.6152   23.9714 H   0  0  0  0  0  0
  -21.1485   -6.0525   25.9078 H   0  0  0  0  0  0
  -22.0594   -2.7608   23.2850 H   0  0  0  0  0  0
  -22.4093  -11.9870   22.4796 H   0  0  0  0  0  0
  -21.1081  -13.1211   22.2607 H   0  0  0  0  0  0
  -24.6586  -15.8521   20.5253 H   0  0  0  0  0  0
  -26.2777  -15.6321   20.0960 H   0  0  0  0  0  0
  -26.7166  -32.5474   23.1120 H   0  0  0  0  0  0
  -25.0155  -33.9721   25.0504 H   0  0  0  0  0  0
  -22.7094  -31.3088   21.4074 H   0  0  0  0  0  0
  -23.3754  -35.9609   23.3308 H   0  0  0  0  0  0
  -24.3599  -36.8877   22.2050 H   0  0  0  0  0  0
  -23.7229  -37.6480   23.6656 H   0  0  0  0  0  0
  -26.0885  -31.5781   20.6144 H   0  0  0  0  0  0
  -26.8388  -30.8496   22.0027 H   0  0  0  0  0  0
  -28.1051  -28.9942   21.2247 H   0  0  0  0  0  0
  -26.0132  -25.9483   19.0018 H   0  0  0  0  0  0
  -23.9760  -27.3295   18.9900 H   0  0  0  0  0  0
  -23.7372  -30.6113   19.4032 H   0  0  0  0  0  0
  -22.7534  -29.2546   19.8560 H   0  0  0  0  0  0
  -25.1290  -36.1939   25.0831 H   0  0  0  0  0  0
  -21.0018  -28.3262   24.1400 H   0  0  0  0  0  0
  -20.5694  -26.2263   23.3600 H   0  0  0  0  0  0
  -21.6643  -26.7430   22.1186 H   0  0  0  0  0  0
  -19.6890  -25.6294   21.1236 H   0  0  0  0  0  0
  -19.6715  -27.3208   20.6767 H   0  0  0  0  0  0
  -17.4203  -26.6711   21.4022 H   0  0  0  0  0  0
  -18.0307  -26.0079   22.9017 H   0  0  0  0  0  0
  -19.7925  -30.7296   24.2238 H   0  0  0  0  0  0
  -17.5006  -31.6264   24.5161 H   0  0  0  0  0  0
  -15.5344  -30.2983   23.7682 H   0  0  0  0  0  0
  -15.8678  -28.0836   22.7078 H   0  0  0  0  0  0
  -24.5968  -30.7029   25.7811 H   0  0  0  0  0  0
  -24.8934  -32.2863   26.4872 H   0  0  0  0  0  0
  -25.8114  -30.8912   27.0238 H   0  0  0  0  0  0
  -26.2920  -29.6749   24.1218 H   0  0  0  0  0  0
  -27.4111  -29.7289   25.4649 H   0  0  0  0  0  0
  -27.8777  -30.4294   23.9342 H   0  0  0  0  0  0
  -27.2704  -33.3631   26.2043 H   0  0  0  0  0  0
  -28.3909  -32.6845   25.0318 H   0  0  0  0  0  0
  -28.0745  -31.8447   26.5404 H   0  0  0  0  0  0
  -28.2593  -38.0098   24.7534 H   0  0  0  0  0  0
  -28.1079  -36.2622   24.6275 H   0  0  0  0  0  0
  -27.2298  -37.1419   25.8869 H   0  0  0  0  0  0
  -20.9321  -29.8738   21.6888 H   0  0  0  0  0  0
  -26.0169  -38.2840   24.1447 H   0  0  0  0  0  0
  -28.5735  -19.1052   19.6118 H   0  0  0  0  0  0
  -27.1405  -25.8591   21.8872 H   0  0  0  0  0  0
  -31.8150  -18.0093   23.4760 H   0  0  0  0  0  0
  -33.0107  -18.9007   22.5189 H   0  0  0  0  0  0
  -32.4044  -16.2258   22.0426 H   0  0  0  0  0  0
  -33.0029  -17.3209   20.8274 H   0  0  0  0  0  0
  -31.1469  -17.1088   19.5932 H   0  0  0  0  0  0
  -27.6371  -21.7593   21.0975 H   0  0  0  0  0  0
  -29.1732  -15.7887   21.1315 H   0  0  0  0  0  0
  -26.7834  -24.1374   22.6870 H   0  0  0  0  0  0
  1 25  1  0  0  0
  1 30  2  0  0  0
  1 82  1  0  0  0
  2  3  1  0  0  0
  2 25  1  0  0  0
  2 86  1  0  0  0
  2 87  1  0  0  0
  3  4  1  0  0  0
  3 88  1  0  0  0
  3 89  1  0  0  0
  4  5  1  0  0  0
  4 90  1  0  0  0
  4 91  1  0  0  0
  5  6  1  0  0  0
  5 26  1  0  0  0
  5 92  1  0  0  0
  6 25  1  0  0  0
  6 93  1  0  0  0
  6 94  1  0  0  0
  7  8  2  0  0  0
  7 26  1  0  0  0
  7 29  1  0  0  0
  8  9  1  0  0  0
  8 22  1  0  0  0
  9 10  1  0  0  0
  9 27  2  0  0  0
 10 11  2  0  0  0
 10 15  1  0  0  0
 11 12  1  0  0  0
 11 95  1  0  0  0
 12 13  2  0  0  0
 12 96  1  0  0  0
 13 14  1  0  0  0
 13 31  1  0  0  0
 14 15  2  0  0  0
 14 97  1  0  0  0
 15 98  1  0  0  0
 16 17  2  0  0  0
 16 21  1  0  0  0
 16 31  1  0  0  0
 17 18  1  0  0  0
 17 99  1  0  0  0
 18 19  2  0  0  0
 18100  1  0  0  0
 19 20  1  0  0  0
 19 24  1  0  0  0
 20 21  2  0  0  0
 20101  1  0  0  0
 21 23  1  0  0  0
 22 28  1  0  0  0
 22 32  2  0  0  0
 26 27  1  0  0  0
 28102  1  0  0  0
 28103  1  0  0  0
 29104  1  0  0  0
 29105  1  0  0  0
 33 34  1  0  0  0
 33 66  1  0  0  0
 33 70  2  0  0  0
 34 36  1  0  0  0
 34 59  1  0  0  0
 34106  1  0  0  0
 35 44  2  0  0  0
 35 45  1  0  0  0
 35 68  1  0  0  0
 36 56  1  0  0  0
 36107  1  0  0  0
 37 39  1  0  0  0
 37 47  1  0  0  0
 37 66  1  0  0  0
 37108  1  0  0  0
 38 43  2  0  0  0
 38 46  1  0  0  0
 38 47  1  0  0  0
 39 64  1  0  0  0
 39 67  2  0  0  0
 40 52  1  0  0  0
 40 53  2  0  0  0
 40 58  1  0  0  0
 41109  1  0  0  0
 41110  1  0  0  0
 41111  1  0  0  0
 41 48  1  0  0  0
 42 43  1  0  0  0
 42 66  1  0  0  0
 42112  1  0  0  0
 42113  1  0  0  0
 43 44  1  0  0  0
 44114  1  0  0  0
 45 46  2  0  0  0
 45115  1  0  0  0
 46116  1  0  0  0
 47117  1  0  0  0
 47118  1  0  0  0
 48 56  1  0  0  0
 48 65  1  0  0  0
 48119  1  0  0  0
 49 50  1  0  0  0
 49 53  1  0  0  0
 49 64  1  0  0  0
 49120  1  0  0  0
 50 51  1  0  0  0
 50121  1  0  0  0
 50122  1  0  0  0
 51 52  1  0  0  0
 51123  1  0  0  0
 51124  1  0  0  0
 52125  1  0  0  0
 52126  1  0  0  0
 53 54  1  0  0  0
 54 55  2  0  0  0
 54127  1  0  0  0
 55 57  1  0  0  0
 55128  1  0  0  0
 56 69  2  0  0  0
 57 58  2  0  0  0
 57129  1  0  0  0
 58130  1  0  0  0
 59 60  1  0  0  0
 59 61  1  0  0  0
 59 62  1  0  0  0
 60131  1  0  0  0
 60132  1  0  0  0
 60133  1  0  0  0
 61134  1  0  0  0
 61135  1  0  0  0
 61136  1  0  0  0
 62137  1  0  0  0
 62138  1  0  0  0
 62139  1  0  0  0
 63 65  1  0  0  0
 63140  1  0  0  0
 63141  1  0  0  0
 63142  1  0  0  0
 64143  1  0  0  0
 65144  1  0  0  0
 68 75  1  0  0  0
 71 72  1  0  0  0
 71 74  2  0  0  0
 71145  1  0  0  0
 72 73  2  0  0  0
 72 80  1  0  0  0
 73 78  1  0  0  0
 73 85  1  0  0  0
 74 81  1  0  0  0
 74 85  1  0  0  0
 75 76  2  0  0  0
 75146  1  0  0  0
 76 77  1  0  0  0
 76 84  1  0  0  0
 77 81  1  0  0  0
 77 83  2  0  0  0
 78 79  1  0  0  0
 78147  1  0  0  0
 78148  1  0  0  0
 79 80  1  0  0  0
 79149  1  0  0  0
 79150  1  0  0  0
 80 82  1  0  0  0
 80151  1  0  0  0
 81152  1  0  0  0
 82153  1  0  0  0
 84154  1  0  0  0
M  ISO  4   1 100  68 101  75 101  82 100
M  END
> <chiral flag>
0

> <version>
0

> <s_m_source_file>
/data/baiqing/PycharmProjects/Reinvent-master-3.2/result/LINK_invent/BTK/process_docking_weight1_custom_product_contain_oxygen_bond_distance_aromatic_linkinvent_7_9_3/rearranged_h_0156.sdf

> <i_m_source_file_index>
42

> <r_mmod_Potential_Energy-OPLS-2005>
103.926895141602

> <r_mmod_Stretch_Energy-OPLS-2005>
69.0666275024414

> <r_mmod_Bend_Energy-OPLS-2005>
250.709014892578

> <r_mmod_Torsional_Energy-OPLS-2005>
266.439392089844

> <r_mmod_Improper_Torsional_Energy-OPLS-2005>
9.97605609893799

> <r_mmod_Van_der_Waal_Energy-OPLS-2005>
137.593460083008

> <r_mmod_Electrostatic_Energy-OPLS-2005>
-447.442718505859

> <r_mmod_Solvation_Energy-OPLS-2005>
-237.822891235352

> <b_mmod_Minimization_Converged-OPLS-2005>
0

> <r_mmod_RMS_Derivative-OPLS-2005>
1.96247267723083

$$$$
42
                    3D
 Structure written by MMmdl.
155164  0  0  1  0            999 V2000
  -30.6368  -14.6983   20.4331 C   0  0  0  0  0  0
  -30.4231  -12.4203   19.4579 C   0  0  0  0  0  0
  -29.5009  -12.4859   18.2229 C   0  0  0  0  0  0
  -28.0242  -12.3305   18.6406 C   0  0  0  0  0  0
  -27.6361  -13.2251   19.8494 C   0  0  2  0  0  0
  -28.6878  -13.1656   20.9769 C   0  0  0  0  0  0
  -25.2495  -13.8172   20.5745 C   0  0  0  0  0  0
  -24.1774  -13.0422   20.9208 C   0  0  0  0  0  0
  -24.6363  -11.6901   20.8742 C   0  0  0  0  0  0
  -23.9046  -10.4283   21.0405 C   0  0  0  0  0  0
  -24.3605   -9.4203   21.9183 C   0  0  0  0  0  0
  -23.6285   -8.2235   22.0748 C   0  0  0  0  0  0
  -22.4267   -8.0269   21.3538 C   0  0  0  0  0  0
  -21.9892   -9.0243   20.4642 C   0  0  0  0  0  0
  -22.7217  -10.2123   20.3055 C   0  0  0  0  0  0
  -21.6847   -6.0725   22.5273 C   0  0  0  0  0  0
  -21.4015   -6.5632   23.8204 C   0  0  0  0  0  0
  -21.3657   -5.6786   24.9166 C   0  0  0  0  0  0
  -21.6043   -4.3048   24.7221 C   0  0  0  0  0  0
  -21.8821   -3.8141   23.4340 C   0  0  0  0  0  0
  -21.9197   -4.6956   22.3397 C   0  0  0  0  0  0
  -22.7802  -13.5211   21.1865 C   0  0  0  0  0  0
  -22.1666   -4.2141   21.0975 F   0  0  0  0  0  0
  -21.5626   -3.4533   25.7735 F   0  0  0  0  0  0
  -29.9870  -13.4899   20.3784 N   0  0  0  0  0  0
  -26.2915  -12.9365   20.3331 N   0  0  0  0  0  0
  -25.9297  -11.6512   20.5769 N   0  0  0  0  0  0
  -22.0447  -12.8207   22.0425 N   0  0  0  0  0  0
  -25.4226  -15.1892   20.4220 N   0  0  0  0  0  0
  -31.8487  -14.7601   20.2065 O   0  0  0  0  0  0
  -21.6633   -6.8865   21.4233 O   0  0  0  0  0  0
  -22.3495  -14.5525   20.6717 O   0  0  0  0  0  0
  -24.6286  -31.8577   23.2019 C   0  0  0  0  0  0
  -25.9129  -32.4759   23.8348 C   0  0  1  0  0  0
  -27.2176  -27.2934   20.1008 C   0  0  0  0  0  0
  -25.5934  -33.8562   24.2275 N   0  0  0  0  0  0
  -23.4217  -30.4840   21.5451 C   0  0  2  0  0  0
  -24.8639  -28.9374   20.1104 C   0  0  0  0  0  0
  -22.7477  -29.4625   22.4924 C   0  0  0  0  0  0
  -18.0286  -28.1388   22.8482 C   0  0  0  0  0  0
  -24.1492  -36.7296   23.2641 C   0  0  0  0  0  0
  -25.9660  -30.7800   21.3764 C   0  0  0  0  0  0
  -26.0359  -29.4061   20.7155 C   0  0  0  0  0  0
  -27.2109  -28.5939   20.7045 C   0  0  0  0  0  0
  -26.0114  -26.8806   19.4863 C   0  0  0  0  0  0
  -24.8548  -27.6803   19.4921 C   0  0  0  0  0  0
  -23.6358  -29.8223   20.1596 C   0  0  0  0  0  0
  -25.4112  -36.3075   24.0330 C   0  0  1  0  0  0
  -20.5887  -28.3694   23.1272 C   0  0  2  0  0  0
  -20.6775  -26.9414   22.5406 C   0  0  0  0  0  0
  -19.5753  -26.6386   21.5208 C   0  0  0  0  0  0
  -18.1932  -26.7929   22.1621 C   0  0  0  0  0  0
  -19.1536  -28.8856   23.2872 C   0  0  0  0  0  0
  -18.9461  -30.1459   23.8888 C   0  0  0  0  0  0
  -17.6462  -30.6588   24.0562 C   0  0  0  0  0  0
  -25.9047  -34.9442   23.5097 C   0  0  0  0  0  0
  -16.5354  -29.9084   23.6331 C   0  0  0  0  0  0
  -16.7274  -28.6505   23.0345 C   0  0  0  0  0  0
  -26.4505  -31.6570   25.0726 C   0  0  0  0  0  0
  -25.3739  -31.3725   26.1458 C   0  0  0  0  0  0
  -27.0345  -30.2983   24.6205 C   0  0  0  0  0  0
  -27.6058  -32.4310   25.7499 C   0  0  0  0  0  0
  -27.5579  -37.1803   24.8462 C   0  0  0  0  0  0
  -21.4189  -29.3050   22.3669 N   0  0  0  0  0  0
  -26.4289  -37.3768   23.9408 N   0  0  0  0  0  0
  -24.6914  -31.0571   22.0978 N   0  0  0  0  0  0
  -23.4193  -28.8161   23.3004 O   0  0  0  0  0  0
  -28.3482  -26.4539   20.1628 O   0  0  0  0  0  0
  -26.5614  -34.8915   22.4668 O   0  0  0  0  0  0
  -23.5445  -32.1391   23.7332 O   0  0  0  0  0  0
  -28.5512  -20.0874   19.5507 C   0  0  0  0  0  0
  -29.8897  -20.9554   21.3533 C   0  0  0  0  0  0
  -28.9310  -18.7462   19.8961 C   0  0  0  0  0  0
  -29.8097  -18.4913   20.9667 C   0  0  0  0  0  0
  -29.0219  -21.2365   20.2635 C   0  0  0  0  0  0
  -30.2747  -19.6222   21.6932 C   0  0  0  0  0  0
  -28.7575  -23.8477   20.3811 C   0  0  0  0  0  0
  -28.4268  -17.5290   19.1360 C   0  0  0  0  0  0
  -30.2546  -17.0254   21.3317 C   0  0  0  0  0  0
  -29.4610  -16.3669   19.1100 C   0  0  0  0  0  0
  -28.4176  -25.1219   19.4904 C   0  0  0  0  0  0
  -29.8799  -15.8649   20.4418 N   0  0  0  0  0  0
  -28.6565  -22.5942   19.8126 N   0  0  0  0  0  0
  -29.1019  -24.0081   21.5554 O   0  0  0  0  0  0
  -31.1209  -19.4312   22.7336 F   0  0  0  0  0  0
  -31.4659  -12.5288   19.1556 H   0  0  0  0  0  0
  -30.3505  -11.4467   19.9444 H   0  0  0  0  0  0
  -29.7704  -11.7064   17.5084 H   0  0  0  0  0  0
  -29.6433  -13.4319   17.7006 H   0  0  0  0  0  0
  -27.8687  -11.2817   18.8953 H   0  0  0  0  0  0
  -27.3679  -12.5379   17.7949 H   0  0  0  0  0  0
  -27.6156  -14.2450   19.4741 H   0  0  0  0  0  0
  -28.7152  -12.1767   21.4388 H   0  0  0  0  0  0
  -28.4410  -13.8737   21.7695 H   0  0  0  0  0  0
  -25.2746   -9.5683   22.4758 H   0  0  0  0  0  0
  -23.9992   -7.4624   22.7464 H   0  0  0  0  0  0
  -21.0818   -8.8755   19.8959 H   0  0  0  0  0  0
  -22.3665  -10.9656   19.6167 H   0  0  0  0  0  0
  -21.2016   -7.6142   23.9702 H   0  0  0  0  0  0
  -21.1475   -6.0518   25.9064 H   0  0  0  0  0  0
  -22.0610   -2.7606   23.2841 H   0  0  0  0  0  0
  -22.4070  -11.9868   22.4807 H   0  0  0  0  0  0
  -21.1071  -13.1238   22.2647 H   0  0  0  0  0  0
  -24.6654  -15.8503   20.5553 H   0  0  0  0  0  0
  -26.2934  -15.6279   20.1550 H   0  0  0  0  0  0
  -26.7192  -32.5418   23.1085 H   0  0  0  0  0  0
  -25.0079  -33.9692   25.0418 H   0  0  0  0  0  0
  -22.7171  -31.3064   21.4035 H   0  0  0  0  0  0
  -23.3740  -35.9639   23.3299 H   0  0  0  0  0  0
  -24.3588  -36.8921   22.2056 H   0  0  0  0  0  0
  -23.7259  -37.6505   23.6664 H   0  0  0  0  0  0
  -26.1015  -31.5432   20.6087 H   0  0  0  0  0  0
  -26.8454  -30.8255   22.0076 H   0  0  0  0  0  0
  -28.1102  -28.9480   21.1886 H   0  0  0  0  0  0
  -25.8944  -25.9214   19.0130 H   0  0  0  0  0  0
  -23.9515  -27.3102   19.0263 H   0  0  0  0  0  0
  -23.7606  -30.6007   19.4056 H   0  0  0  0  0  0
  -22.7533  -29.2572   19.8540 H   0  0  0  0  0  0
  -25.1290  -36.1920   25.0820 H   0  0  0  0  0  0
  -20.9974  -28.3274   24.1395 H   0  0  0  0  0  0
  -20.5673  -26.2304   23.3606 H   0  0  0  0  0  0
  -21.6645  -26.7447   22.1205 H   0  0  0  0  0  0
  -19.6914  -25.6292   21.1247 H   0  0  0  0  0  0
  -19.6692  -27.3188   20.6728 H   0  0  0  0  0  0
  -17.4198  -26.6665   21.4027 H   0  0  0  0  0  0
  -18.0345  -26.0078   22.9026 H   0  0  0  0  0  0
  -19.7935  -30.7279   24.2250 H   0  0  0  0  0  0
  -17.5015  -31.6265   24.5172 H   0  0  0  0  0  0
  -15.5347  -30.2983   23.7665 H   0  0  0  0  0  0
  -15.8674  -28.0829   22.7055 H   0  0  0  0  0  0
  -24.5898  -30.7087   25.7799 H   0  0  0  0  0  0
  -24.8953  -32.2898   26.4893 H   0  0  0  0  0  0
  -25.8068  -30.8897   27.0227 H   0  0  0  0  0  0
  -26.2923  -29.6727   24.1231 H   0  0  0  0  0  0
  -27.4022  -29.7252   25.4725 H   0  0  0  0  0  0
  -27.8805  -30.4244   23.9446 H   0  0  0  0  0  0
  -27.2655  -33.3603   26.2076 H   0  0  0  0  0  0
  -28.3867  -32.6876   25.0330 H   0  0  0  0  0  0
  -28.0724  -31.8438   26.5414 H   0  0  0  0  0  0
  -28.2589  -38.0106   24.7497 H   0  0  0  0  0  0
  -28.1081  -36.2633   24.6290 H   0  0  0  0  0  0
  -27.2302  -37.1460   25.8868 H   0  0  0  0  0  0
  -20.9363  -29.8776   21.6885 H   0  0  0  0  0  0
  -26.0168  -38.2845   24.1391 H   0  0  0  0  0  0
  -27.8876  -20.2307   18.7092 H   0  0  0  0  0  0
  -30.2988  -21.7663   21.9368 H   0  0  0  0  0  0
  -28.1681  -17.8194   18.1173 H   0  0  0  0  0  0
  -27.5012  -17.1932   19.6050 H   0  0  0  0  0  0
  -29.8616  -16.8097   22.3263 H   0  0  0  0  0  0
  -31.3401  -17.0483   21.4450 H   0  0  0  0  0  0
  -30.3532  -16.7126   18.5839 H   0  0  0  0  0  0
  -29.0675  -15.5572   18.4969 H   0  0  0  0  0  0
  -27.5738  -24.8740   18.8571 H   0  0  0  0  0  0
  -29.2452  -25.2069   18.7862 H   0  0  0  0  0  0
  -28.2673  -22.6259   18.8798 H   0  0  0  0  0  0
  1 25  1  0  0  0
  1 30  2  0  0  0
  1 82  1  0  0  0
  2  3  1  0  0  0
  2 25  1  0  0  0
  2 86  1  0  0  0
  2 87  1  0  0  0
  3  4  1  0  0  0
  3 88  1  0  0  0
  3 89  1  0  0  0
  4  5  1  0  0  0
  4 90  1  0  0  0
  4 91  1  0  0  0
  5  6  1  0  0  0
  5 26  1  0  0  0
  5 92  1  0  0  0
  6 25  1  0  0  0
  6 93  1  0  0  0
  6 94  1  0  0  0
  7  8  2  0  0  0
  7 26  1  0  0  0
  7 29  1  0  0  0
  8  9  1  0  0  0
  8 22  1  0  0  0
  9 10  1  0  0  0
  9 27  2  0  0  0
 10 11  2  0  0  0
 10 15  1  0  0  0
 11 12  1  0  0  0
 11 95  1  0  0  0
 12 13  2  0  0  0
 12 96  1  0  0  0
 13 14  1  0  0  0
 13 31  1  0  0  0
 14 15  2  0  0  0
 14 97  1  0  0  0
 15 98  1  0  0  0
 16 17  2  0  0  0
 16 21  1  0  0  0
 16 31  1  0  0  0
 17 18  1  0  0  0
 17 99  1  0  0  0
 18 19  2  0  0  0
 18100  1  0  0  0
 19 20  1  0  0  0
 19 24  1  0  0  0
 20 21  2  0  0  0
 20101  1  0  0  0
 21 23  1  0  0  0
 22 28  1  0  0  0
 22 32  2  0  0  0
 26 27  1  0  0  0
 28102  1  0  0  0
 28103  1  0  0  0
 29104  1  0  0  0
 29105  1  0  0  0
 33 34  1  0  0  0
 33 66  1  0  0  0
 33 70  2  0  0  0
 34 36  1  0  0  0
 34 59  1  0  0  0
 34106  1  0  0  0
 35 44  2  0  0  0
 35 45  1  0  0  0
 35 68  1  0  0  0
 36 56  1  0  0  0
 36107  1  0  0  0
 37 39  1  0  0  0
 37 47  1  0  0  0
 37 66  1  0  0  0
 37108  1  0  0  0
 38 43  2  0  0  0
 38 46  1  0  0  0
 38 47  1  0  0  0
 39 64  1  0  0  0
 39 67  2  0  0  0
 40 52  1  0  0  0
 40 53  2  0  0  0
 40 58  1  0  0  0
 41109  1  0  0  0
 41110  1  0  0  0
 41111  1  0  0  0
 41 48  1  0  0  0
 42 43  1  0  0  0
 42 66  1  0  0  0
 42112  1  0  0  0
 42113  1  0  0  0
 43 44  1  0  0  0
 44114  1  0  0  0
 45 46  2  0  0  0
 45115  1  0  0  0
 46116  1  0  0  0
 47117  1  0  0  0
 47118  1  0  0  0
 48 56  1  0  0  0
 48 65  1  0  0  0
 48119  1  0  0  0
 49 50  1  0  0  0
 49 53  1  0  0  0
 49 64  1  0  0  0
 49120  1  0  0  0
 50 51  1  0  0  0
 50121  1  0  0  0
 50122  1  0  0  0
 51 52  1  0  0  0
 51123  1  0  0  0
 51124  1  0  0  0
 52125  1  0  0  0
 52126  1  0  0  0
 53 54  1  0  0  0
 54 55  2  0  0  0
 54127  1  0  0  0
 55 57  1  0  0  0
 55128  1  0  0  0
 56 69  2  0  0  0
 57 58  2  0  0  0
 57129  1  0  0  0
 58130  1  0  0  0
 59 60  1  0  0  0
 59 61  1  0  0  0
 59 62  1  0  0  0
 60131  1  0  0  0
 60132  1  0  0  0
 60133  1  0  0  0
 61134  1  0  0  0
 61135  1  0  0  0
 61136  1  0  0  0
 62137  1  0  0  0
 62138  1  0  0  0
 62139  1  0  0  0
 63 65  1  0  0  0
 63140  1  0  0  0
 63141  1  0  0  0
 63142  1  0  0  0
 64143  1  0  0  0
 65144  1  0  0  0
 68 81  1  0  0  0
 71 73  2  0  0  0
 71 75  1  0  0  0
 71145  1  0  0  0
 72 75  2  0  0  0
 72 76  1  0  0  0
 72146  1  0  0  0
 73 74  1  0  0  0
 73 78  1  0  0  0
 74 76  2  0  0  0
 74 79  1  0  0  0
 75 83  1  0  0  0
 76 85  1  0  0  0
 77 81  1  0  0  0
 77 83  1  0  0  0
 77 84  2  0  0  0
 78 80  1  0  0  0
 78147  1  0  0  0
 78148  1  0  0  0
 79 82  1  0  0  0
 79149  1  0  0  0
 79150  1  0  0  0
 80 82  1  0  0  0
 80151  1  0  0  0
 80152  1  0  0  0
 81153  1  0  0  0
 81154  1  0  0  0
 83155  1  0  0  0
M  ISO  4   1 100  68 101  81 101  82 100
M  END
> <chiral flag>
0

> <version>
0

> <s_m_source_file>
/data/baiqing/PycharmProjects/Reinvent-master-3.2/result/LINK_invent/BTK/process_docking_weight1_custom_product_contain_oxygen_bond_distance_aromatic_linkinvent_7_9_3/rearranged_h_0156.sdf

> <i_m_source_file_index>
43

> <r_mmod_Potential_Energy-OPLS-2005>
253.047332763672

> <r_mmod_Stretch_Energy-OPLS-2005>
95.0487442016602

> <r_mmod_Bend_Energy-OPLS-2005>
160.462158203125

> <r_mmod_Torsional_Energy-OPLS-2005>
302.823394775391

> <r_mmod_Improper_Torsional_Energy-OPLS-2005>
11.0660934448242

> <r_mmod_Van_der_Waal_Energy-OPLS-2005>
144.81999206543

> <r_mmod_Electrostatic_Energy-OPLS-2005>
-294.454833984375

> <r_mmod_Solvation_Energy-OPLS-2005>
-235.713424682617

> <b_mmod_Minimization_Converged-OPLS-2005>
0

> <r_mmod_RMS_Derivative-OPLS-2005>
1.49541974067688

$$$$
43
                    3D
 Structure written by MMmdl.
148157  0  0  1  0            999 V2000
  -30.4583  -15.1652   20.3871 C   0  0  0  0  0  0
  -30.4456  -12.7366   19.5123 C   0  0  0  0  0  0
  -29.5321  -12.5591   18.2740 C   0  0  0  0  0  0
  -28.0747  -12.3025   18.6995 C   0  0  0  0  0  0
  -27.6183  -13.2629   19.8267 C   0  0  2  0  0  0
  -28.6578  -13.3836   20.9611 C   0  0  0  0  0  0
  -25.2417  -13.8226   20.5726 C   0  0  0  0  0  0
  -24.1759  -13.0432   20.9256 C   0  0  0  0  0  0
  -24.6398  -11.6925   20.8764 C   0  0  0  0  0  0
  -23.9088  -10.4290   21.0410 C   0  0  0  0  0  0
  -24.3633   -9.4203   21.9187 C   0  0  0  0  0  0
  -23.6301   -8.2241   22.0755 C   0  0  0  0  0  0
  -22.4283   -8.0282   21.3545 C   0  0  0  0  0  0
  -21.9924   -9.0257   20.4646 C   0  0  0  0  0  0
  -22.7259  -10.2133   20.3057 C   0  0  0  0  0  0
  -21.6855   -6.0737   22.5279 C   0  0  0  0  0  0
  -21.4016   -6.5640   23.8212 C   0  0  0  0  0  0
  -21.3660   -5.6793   24.9174 C   0  0  0  0  0  0
  -21.6044   -4.3055   24.7225 C   0  0  0  0  0  0
  -21.8819   -3.8147   23.4346 C   0  0  0  0  0  0
  -21.9193   -4.6964   22.3402 C   0  0  0  0  0  0
  -22.7777  -13.5193   21.1902 C   0  0  0  0  0  0
  -22.1662   -4.2150   21.0980 F   0  0  0  0  0  0
  -21.5628   -3.4539   25.7737 F   0  0  0  0  0  0
  -29.9029  -13.8645   20.3428 N   0  0  0  0  0  0
  -26.2841  -12.9481   20.3214 N   0  0  0  0  0  0
  -25.9332  -11.6599   20.5725 N   0  0  0  0  0  0
  -22.0430  -12.8178   22.0454 N   0  0  0  0  0  0
  -25.4040  -15.1961   20.4132 N   0  0  0  0  0  0
  -31.6803  -15.1957   20.1775 O   0  0  0  0  0  0
  -21.6643   -6.8881   21.4241 O   0  0  0  0  0  0
  -22.3461  -14.5496   20.6740 O   0  0  0  0  0  0
  -24.6573  -31.8305   23.1769 C   0  0  0  0  0  0
  -25.9283  -32.4624   23.8208 C   0  0  1  0  0  0
  -27.2143  -26.9866   20.1785 C   0  0  0  0  0  0
  -25.5975  -33.8436   24.2115 N   0  0  0  0  0  0
  -23.4685  -30.4454   21.5255 C   0  0  2  0  0  0
  -24.9201  -28.8444   20.1163 C   0  0  0  0  0  0
  -22.7638  -29.4479   22.4811 C   0  0  0  0  0  0
  -18.0318  -28.1405   22.8470 C   0  0  0  0  0  0
  -24.1493  -36.7222   23.2645 C   0  0  0  0  0  0
  -26.0350  -30.6558   21.3996 C   0  0  0  0  0  0
  -26.1033  -29.2511   20.7459 C   0  0  0  0  0  0
  -27.2485  -28.3429   20.7531 C   0  0  0  0  0  0
  -26.0067  -26.7269   19.4947 C   0  0  0  0  0  0
  -24.8936  -27.6001   19.4708 C   0  0  0  0  0  0
  -23.7049  -29.7660   20.1502 C   0  0  0  0  0  0
  -25.4131  -36.2989   24.0304 C   0  0  1  0  0  0
  -20.5939  -28.3745   23.1202 C   0  0  2  0  0  0
  -20.6797  -26.9433   22.5401 C   0  0  0  0  0  0
  -19.5770  -26.6379   21.5213 C   0  0  0  0  0  0
  -18.1952  -26.7939   22.1624 C   0  0  0  0  0  0
  -19.1578  -28.8895   23.2825 C   0  0  0  0  0  0
  -18.9489  -30.1486   23.8858 C   0  0  0  0  0  0
  -17.6483  -30.6596   24.0556 C   0  0  0  0  0  0
  -25.9093  -34.9369   23.5026 C   0  0  0  0  0  0
  -16.5374  -29.9084   23.6341 C   0  0  0  0  0  0
  -16.7300  -28.6504   23.0361 C   0  0  0  0  0  0
  -26.4552  -31.6545   25.0710 C   0  0  0  0  0  0
  -25.3694  -31.3778   26.1376 C   0  0  0  0  0  0
  -27.0442  -30.2919   24.6404 C   0  0  0  0  0  0
  -27.6052  -32.4344   25.7510 C   0  0  0  0  0  0
  -27.5573  -37.1767   24.8465 C   0  0  0  0  0  0
  -21.4314  -29.3047   22.3558 N   0  0  0  0  0  0
  -26.4281  -37.3719   23.9410 N   0  0  0  0  0  0
  -24.7412  -31.0025   22.0878 N   0  0  0  0  0  0
  -23.4213  -28.8039   23.3024 O   0  0  0  0  0  0
  -28.2350  -25.9170   20.2113 O   0  0  0  0  0  0
  -26.5694  -34.8892   22.4616 O   0  0  0  0  0  0
  -23.5657  -32.1249   23.6897 O   0  0  0  0  0  0
  -28.7228  -19.0447   20.2558 C   0  0  0  0  0  0
  -29.7610  -17.9585   20.4306 C   0  0  0  0  0  0
  -29.2661  -20.3763   20.3722 C   0  0  0  0  0  0
  -29.0850  -23.0897   20.5481 C   0  0  0  0  0  0
  -27.0835  -23.5011   19.4251 C   0  0  0  0  0  0
  -27.3311  -21.9590   19.7004 C   0  0  0  0  0  0
  -27.9561  -24.3214   20.3992 C   0  0  2  0  0  0
  -30.8807  -18.6738   20.6321 N   0  0  0  0  0  0
  -28.6781  -21.7401   20.2575 N   0  0  0  0  0  0
  -29.6312  -16.3731   20.4369 N   0  0  0  0  0  0
  -30.2288  -23.3633   20.9253 O   0  0  0  0  0  0
  -30.5983  -20.0902   20.6096 O   0  0  0  0  0  0
  -31.4674  -12.9347   19.1851 H   0  0  0  0  0  0
  -30.4959  -11.8148   20.0941 H   0  0  0  0  0  0
  -29.8914  -11.7397   17.6500 H   0  0  0  0  0  0
  -29.5787  -13.4577   17.6569 H   0  0  0  0  0  0
  -28.0117  -11.2717   19.0504 H   0  0  0  0  0  0
  -27.4069  -12.3741   17.8402 H   0  0  0  0  0  0
  -27.5493  -14.2421   19.3522 H   0  0  0  0  0  0
  -28.8016  -12.4308   21.4729 H   0  0  0  0  0  0
  -28.3176  -14.0934   21.7168 H   0  0  0  0  0  0
  -25.2775   -9.5677   22.4767 H   0  0  0  0  0  0
  -24.0006   -7.4631   22.7476 H   0  0  0  0  0  0
  -21.0855   -8.8781   19.8952 H   0  0  0  0  0  0
  -22.3718  -10.9674   19.6169 H   0  0  0  0  0  0
  -21.2009   -7.6149   23.9716 H   0  0  0  0  0  0
  -21.1482   -6.0523   25.9077 H   0  0  0  0  0  0
  -22.0598   -2.7610   23.2846 H   0  0  0  0  0  0
  -22.4059  -11.9846   22.4846 H   0  0  0  0  0  0
  -21.1042  -13.1187   22.2655 H   0  0  0  0  0  0
  -24.6247  -15.8374   20.5156 H   0  0  0  0  0  0
  -26.2245  -15.6353   20.0193 H   0  0  0  0  0  0
  -26.7350  -32.5182   23.0925 H   0  0  0  0  0  0
  -25.0079  -33.9526   25.0235 H   0  0  0  0  0  0
  -22.7787  -31.2755   21.3599 H   0  0  0  0  0  0
  -23.3768  -35.9539   23.3274 H   0  0  0  0  0  0
  -24.3575  -36.8898   22.2066 H   0  0  0  0  0  0
  -23.7235  -37.6397   23.6716 H   0  0  0  0  0  0
  -26.2085  -31.3996   20.6208 H   0  0  0  0  0  0
  -26.8981  -30.7113   22.0510 H   0  0  0  0  0  0
  -28.1478  -28.6543   21.2657 H   0  0  0  0  0  0
  -25.8938  -25.7959   18.9662 H   0  0  0  0  0  0
  -23.9985  -27.2874   18.9507 H   0  0  0  0  0  0
  -23.8574  -30.5362   19.3933 H   0  0  0  0  0  0
  -22.8158  -29.2181   19.8331 H   0  0  0  0  0  0
  -25.1326  -36.1793   25.0795 H   0  0  0  0  0  0
  -21.0028  -28.3346   24.1324 H   0  0  0  0  0  0
  -20.5683  -26.2362   23.3635 H   0  0  0  0  0  0
  -21.6661  -26.7419   22.1203 H   0  0  0  0  0  0
  -19.6929  -25.6279   21.1269 H   0  0  0  0  0  0
  -19.6706  -27.3167   20.6725 H   0  0  0  0  0  0
  -17.4220  -26.6681   21.4029 H   0  0  0  0  0  0
  -18.0350  -26.0092   22.9030 H   0  0  0  0  0  0
  -19.7964  -30.7314   24.2209 H   0  0  0  0  0  0
  -17.5034  -31.6272   24.5166 H   0  0  0  0  0  0
  -15.5372  -30.2973   23.7688 H   0  0  0  0  0  0
  -15.8701  -28.0808   22.7100 H   0  0  0  0  0  0
  -24.5890  -30.7111   25.7687 H   0  0  0  0  0  0
  -24.8866  -32.2973   26.4694 H   0  0  0  0  0  0
  -25.7939  -30.9017   27.0223 H   0  0  0  0  0  0
  -26.3099  -29.6606   24.1389 H   0  0  0  0  0  0
  -27.3973  -29.7268   25.5040 H   0  0  0  0  0  0
  -27.9041  -30.4115   23.9810 H   0  0  0  0  0  0
  -27.2625  -33.3681   26.1981 H   0  0  0  0  0  0
  -28.3920  -32.6846   25.0381 H   0  0  0  0  0  0
  -28.0657  -31.8542   26.5516 H   0  0  0  0  0  0
  -28.2568  -38.0084   24.7522 H   0  0  0  0  0  0
  -28.1092  -36.2612   24.6279 H   0  0  0  0  0  0
  -27.2291  -37.1394   25.8867 H   0  0  0  0  0  0
  -20.9556  -29.8745   21.6702 H   0  0  0  0  0  0
  -26.0134  -38.2778   24.1423 H   0  0  0  0  0  0
  -27.6759  -18.8603   20.0685 H   0  0  0  0  0  0
  -26.0235  -23.7241   19.5397 H   0  0  0  0  0  0
  -27.3603  -23.7450   18.3985 H   0  0  0  0  0  0
  -27.1935  -21.3754   18.7892 H   0  0  0  0  0  0
  -26.6047  -21.5904   20.4265 H   0  0  0  0  0  0
  -27.4412  -24.2905   21.3600 H   0  0  0  0  0  0
  -28.6641  -16.0986   20.4801 H   0  0  0  0  0  0
  1 25  1  0  0  0
  1 30  2  0  0  0
  1 80  1  0  0  0
  2  3  1  0  0  0
  2 25  1  0  0  0
  2 83  1  0  0  0
  2 84  1  0  0  0
  3  4  1  0  0  0
  3 85  1  0  0  0
  3 86  1  0  0  0
  4  5  1  0  0  0
  4 87  1  0  0  0
  4 88  1  0  0  0
  5  6  1  0  0  0
  5 26  1  0  0  0
  5 89  1  0  0  0
  6 25  1  0  0  0
  6 90  1  0  0  0
  6 91  1  0  0  0
  7  8  2  0  0  0
  7 26  1  0  0  0
  7 29  1  0  0  0
  8  9  1  0  0  0
  8 22  1  0  0  0
  9 10  1  0  0  0
  9 27  2  0  0  0
 10 11  2  0  0  0
 10 15  1  0  0  0
 11 12  1  0  0  0
 11 92  1  0  0  0
 12 13  2  0  0  0
 12 93  1  0  0  0
 13 14  1  0  0  0
 13 31  1  0  0  0
 14 15  2  0  0  0
 14 94  1  0  0  0
 15 95  1  0  0  0
 16 17  2  0  0  0
 16 21  1  0  0  0
 16 31  1  0  0  0
 17 18  1  0  0  0
 17 96  1  0  0  0
 18 19  2  0  0  0
 18 97  1  0  0  0
 19 20  1  0  0  0
 19 24  1  0  0  0
 20 21  2  0  0  0
 20 98  1  0  0  0
 21 23  1  0  0  0
 22 28  1  0  0  0
 22 32  2  0  0  0
 26 27  1  0  0  0
 28 99  1  0  0  0
 28100  1  0  0  0
 29101  1  0  0  0
 29102  1  0  0  0
 33 34  1  0  0  0
 33 66  1  0  0  0
 33 70  2  0  0  0
 34 36  1  0  0  0
 34 59  1  0  0  0
 34103  1  0  0  0
 35 44  2  0  0  0
 35 45  1  0  0  0
 35 68  1  0  0  0
 36 56  1  0  0  0
 36104  1  0  0  0
 37 39  1  0  0  0
 37 47  1  0  0  0
 37 66  1  0  0  0
 37105  1  0  0  0
 38 43  2  0  0  0
 38 46  1  0  0  0
 38 47  1  0  0  0
 39 64  1  0  0  0
 39 67  2  0  0  0
 40 52  1  0  0  0
 40 53  2  0  0  0
 40 58  1  0  0  0
 41106  1  0  0  0
 41107  1  0  0  0
 41108  1  0  0  0
 41 48  1  0  0  0
 42 43  1  0  0  0
 42 66  1  0  0  0
 42109  1  0  0  0
 42110  1  0  0  0
 43 44  1  0  0  0
 44111  1  0  0  0
 45 46  2  0  0  0
 45112  1  0  0  0
 46113  1  0  0  0
 47114  1  0  0  0
 47115  1  0  0  0
 48 56  1  0  0  0
 48 65  1  0  0  0
 48116  1  0  0  0
 49 50  1  0  0  0
 49 53  1  0  0  0
 49 64  1  0  0  0
 49117  1  0  0  0
 50 51  1  0  0  0
 50118  1  0  0  0
 50119  1  0  0  0
 51 52  1  0  0  0
 51120  1  0  0  0
 51121  1  0  0  0
 52122  1  0  0  0
 52123  1  0  0  0
 53 54  1  0  0  0
 54 55  2  0  0  0
 54124  1  0  0  0
 55 57  1  0  0  0
 55125  1  0  0  0
 56 69  2  0  0  0
 57 58  2  0  0  0
 57126  1  0  0  0
 58127  1  0  0  0
 59 60  1  0  0  0
 59 61  1  0  0  0
 59 62  1  0  0  0
 60128  1  0  0  0
 60129  1  0  0  0
 60130  1  0  0  0
 61131  1  0  0  0
 61132  1  0  0  0
 61133  1  0  0  0
 62134  1  0  0  0
 62135  1  0  0  0
 62136  1  0  0  0
 63 65  1  0  0  0
 63137  1  0  0  0
 63138  1  0  0  0
 63139  1  0  0  0
 64140  1  0  0  0
 65141  1  0  0  0
 68 77  1  0  0  0
 71 72  1  0  0  0
 71 73  2  0  0  0
 71142  1  0  0  0
 72 78  2  0  0  0
 72 80  1  0  0  0
 73 79  1  0  0  0
 73 82  1  0  0  0
 74 77  1  0  0  0
 74 79  1  0  0  0
 74 81  2  0  0  0
 75 76  1  0  0  0
 75 77  1  0  0  0
 75143  1  0  0  0
 75144  1  0  0  0
 76 79  1  0  0  0
 76145  1  0  0  0
 76146  1  0  0  0
 77147  1  0  0  0
 78 82  1  0  0  0
 80148  1  0  0  0
M  ISO  4   1 100  68 101  77 101  80 100
M  END
> <chiral flag>
0

> <version>
0

> <s_m_source_file>
/data/baiqing/PycharmProjects/Reinvent-master-3.2/result/LINK_invent/BTK/process_docking_weight1_custom_product_contain_oxygen_bond_distance_aromatic_linkinvent_7_9_3/rearranged_h_0156.sdf

> <i_m_source_file_index>
44

> <r_mmod_Potential_Energy-OPLS-2005>
858.687072753906

> <r_mmod_Stretch_Energy-OPLS-2005>
383.173614501953

> <r_mmod_Bend_Energy-OPLS-2005>
396.927185058594

> <r_mmod_Torsional_Energy-OPLS-2005>
241.530609130859

> <r_mmod_Improper_Torsional_Energy-OPLS-2005>
5.10891199111938

> <r_mmod_Van_der_Waal_Energy-OPLS-2005>
103.3505859375

> <r_mmod_Electrostatic_Energy-OPLS-2005>
-361.500213623047

> <r_mmod_Solvation_Energy-OPLS-2005>
-272.210357666016

> <b_mmod_Minimization_Converged-OPLS-2005>
1

> <r_mmod_RMS_Derivative-OPLS-2005>
0.0337125919759274

$$$$
44
                    3D
 Structure written by MMmdl.
154162  0  0  1  0            999 V2000
  -30.6049  -14.7382   20.4417 C   0  0  0  0  0  0
  -30.4306  -12.4454   19.4792 C   0  0  0  0  0  0
  -29.5119  -12.5060   18.2385 C   0  0  0  0  0  0
  -28.0364  -12.3330   18.6487 C   0  0  0  0  0  0
  -27.6423  -13.2314   19.8519 C   0  0  2  0  0  0
  -28.6848  -13.1615   20.9892 C   0  0  0  0  0  0
  -25.2511  -13.8198   20.5691 C   0  0  0  0  0  0
  -24.1802  -13.0442   20.9207 C   0  0  0  0  0  0
  -24.6393  -11.6920   20.8745 C   0  0  0  0  0  0
  -23.9072  -10.4295   21.0408 C   0  0  0  0  0  0
  -24.3623   -9.4209   21.9182 C   0  0  0  0  0  0
  -23.6301   -8.2244   22.0753 C   0  0  0  0  0  0
  -22.4283   -8.0283   21.3545 C   0  0  0  0  0  0
  -21.9916   -9.0256   20.4648 C   0  0  0  0  0  0
  -22.7244  -10.2136   20.3057 C   0  0  0  0  0  0
  -21.6855   -6.0740   22.5278 C   0  0  0  0  0  0
  -21.4014   -6.5641   23.8212 C   0  0  0  0  0  0
  -21.3660   -5.6792   24.9171 C   0  0  0  0  0  0
  -21.6047   -4.3057   24.7221 C   0  0  0  0  0  0
  -21.8818   -3.8150   23.4340 C   0  0  0  0  0  0
  -21.9191   -4.6967   22.3398 C   0  0  0  0  0  0
  -22.7821  -13.5222   21.1867 C   0  0  0  0  0  0
  -22.1660   -4.2152   21.0976 F   0  0  0  0  0  0
  -21.5632   -3.4541   25.7734 F   0  0  0  0  0  0
  -29.9886  -13.5081   20.4118 N   0  0  0  0  0  0
  -26.2936  -12.9403   20.3277 N   0  0  0  0  0  0
  -25.9325  -11.6546   20.5752 N   0  0  0  0  0  0
  -22.0465  -12.8218   22.0422 N   0  0  0  0  0  0
  -25.4205  -15.1922   20.4103 N   0  0  0  0  0  0
  -31.7933  -14.8287   20.1255 O   0  0  0  0  0  0
  -21.6643   -6.8884   21.4243 O   0  0  0  0  0  0
  -22.3506  -14.5528   20.6710 O   0  0  0  0  0  0
  -24.6310  -31.8539   23.1966 C   0  0  0  0  0  0
  -25.9138  -32.4743   23.8315 C   0  0  1  0  0  0
  -27.2248  -27.2650   20.1210 C   0  0  0  0  0  0
  -25.5931  -33.8543   24.2239 N   0  0  0  0  0  0
  -23.4272  -30.4757   21.5394 C   0  0  2  0  0  0
  -24.8729  -28.9184   20.1092 C   0  0  0  0  0  0
  -22.7499  -29.4593   22.4903 C   0  0  0  0  0  0
  -18.0290  -28.1389   22.8486 C   0  0  0  0  0  0
  -24.1490  -36.7283   23.2640 C   0  0  0  0  0  0
  -25.9715  -30.7679   21.3741 C   0  0  0  0  0  0
  -26.0428  -29.3901   20.7160 C   0  0  0  0  0  0
  -27.2173  -28.5748   20.7098 C   0  0  0  0  0  0
  -26.0265  -26.8496   19.4993 C   0  0  0  0  0  0
  -24.8694  -27.6565   19.4924 C   0  0  0  0  0  0
  -23.6451  -29.8074   20.1556 C   0  0  0  0  0  0
  -25.4115  -36.3059   24.0323 C   0  0  1  0  0  0
  -20.5895  -28.3698   23.1273 C   0  0  2  0  0  0
  -20.6779  -26.9414   22.5412 C   0  0  0  0  0  0
  -19.5754  -26.6384   21.5216 C   0  0  0  0  0  0
  -18.1934  -26.7931   22.1628 C   0  0  0  0  0  0
  -19.1545  -28.8859   23.2876 C   0  0  0  0  0  0
  -18.9464  -30.1460   23.8896 C   0  0  0  0  0  0
  -17.6465  -30.6589   24.0564 C   0  0  0  0  0  0
  -25.9055  -34.9431   23.5084 C   0  0  0  0  0  0
  -16.5355  -29.9089   23.6328 C   0  0  0  0  0  0
  -16.7279  -28.6506   23.0349 C   0  0  0  0  0  0
  -26.4503  -31.6576   25.0712 C   0  0  0  0  0  0
  -25.3725  -31.3739   26.1437 C   0  0  0  0  0  0
  -27.0350  -30.2988   24.6208 C   0  0  0  0  0  0
  -27.6044  -32.4325   25.7497 C   0  0  0  0  0  0
  -27.5576  -37.1797   24.8462 C   0  0  0  0  0  0
  -21.4205  -29.3042   22.3657 N   0  0  0  0  0  0
  -26.4286  -37.3762   23.9407 N   0  0  0  0  0  0
  -24.6957  -31.0511   22.0933 N   0  0  0  0  0  0
  -23.4206  -28.8134   23.2998 O   0  0  0  0  0  0
  -28.3564  -26.4222   20.1927 O   0  0  0  0  0  0
  -26.5630  -34.8912   22.4655 O   0  0  0  0  0  0
  -23.5461  -32.1355   23.7272 O   0  0  0  0  0  0
  -29.2540  -18.4371   20.6262 C   0  0  0  0  0  0
  -30.9988  -17.5769   19.2151 C   0  0  0  0  0  0
  -29.4246  -19.7759   20.0680 C   0  0  0  0  0  0
  -30.0303  -17.2809   20.1995 C   0  0  0  0  0  0
  -30.4183  -19.8362   19.0586 C   0  0  0  0  0  0
  -28.6171  -21.0350   20.4833 C   0  0  0  0  0  0
  -28.2822  -23.7062   20.6116 C   0  0  0  0  0  0
  -28.4348  -25.0135   19.6690 C   0  0  0  0  0  0
  -31.1867  -18.8009   18.6742 N   0  0  0  0  0  0
  -30.7044  -20.9986   18.3559 N   0  0  0  0  0  0
  -27.4876  -20.8547   21.1893 N   0  0  0  0  0  0
  -29.8294  -15.8734   20.6591 N   0  0  0  0  0  0
  -28.9317  -22.3667   20.1884 N   0  3  0  0  0  0
  -31.4737  -12.5611   19.1806 H   0  0  0  0  0  0
  -30.3663  -11.4682   19.9604 H   0  0  0  0  0  0
  -29.7939  -11.7337   17.5215 H   0  0  0  0  0  0
  -29.6418  -13.4615   17.7274 H   0  0  0  0  0  0
  -27.8892  -11.2841   18.9086 H   0  0  0  0  0  0
  -27.3810  -12.5291   17.7993 H   0  0  0  0  0  0
  -27.6392  -14.2536   19.4730 H   0  0  0  0  0  0
  -28.7153  -12.1632   21.4280 H   0  0  0  0  0  0
  -28.4208  -13.8430   21.7991 H   0  0  0  0  0  0
  -25.2768   -9.5689   22.4754 H   0  0  0  0  0  0
  -24.0013   -7.4634   22.7472 H   0  0  0  0  0  0
  -21.0847   -8.8777   19.8952 H   0  0  0  0  0  0
  -22.3702  -10.9676   19.6166 H   0  0  0  0  0  0
  -21.2006   -7.6149   23.9718 H   0  0  0  0  0  0
  -21.1485   -6.0520   25.9076 H   0  0  0  0  0  0
  -22.0597   -2.7613   23.2836 H   0  0  0  0  0  0
  -22.4095  -11.9885   22.4812 H   0  0  0  0  0  0
  -21.1079  -13.1237   22.2624 H   0  0  0  0  0  0
  -24.6491  -15.8427   20.5138 H   0  0  0  0  0  0
  -26.2610  -15.6288   20.0545 H   0  0  0  0  0  0
  -26.7203  -32.5389   23.1055 H   0  0  0  0  0  0
  -25.0075  -33.9676   25.0383 H   0  0  0  0  0  0
  -22.7238  -31.2977   21.3925 H   0  0  0  0  0  0
  -23.3747  -35.9620   23.3294 H   0  0  0  0  0  0
  -24.3584  -36.8918   22.2057 H   0  0  0  0  0  0
  -23.7252  -37.6484   23.6673 H   0  0  0  0  0  0
  -26.1104  -31.5292   20.6055 H   0  0  0  0  0  0
  -26.8491  -30.8159   22.0072 H   0  0  0  0  0  0
  -28.1159  -28.9337   21.1918 H   0  0  0  0  0  0
  -25.9450  -25.8804   19.0332 H   0  0  0  0  0  0
  -23.9696  -27.2876   19.0193 H   0  0  0  0  0  0
  -23.7737  -30.5832   19.4000 H   0  0  0  0  0  0
  -22.7627  -29.2432   19.8488 H   0  0  0  0  0  0
  -25.1299  -36.1898   25.0815 H   0  0  0  0  0  0
  -20.9990  -28.3277   24.1394 H   0  0  0  0  0  0
  -20.5682  -26.2306   23.3616 H   0  0  0  0  0  0
  -21.6645  -26.7440   22.1203 H   0  0  0  0  0  0
  -19.6912  -25.6294   21.1246 H   0  0  0  0  0  0
  -19.6690  -27.3195   20.6745 H   0  0  0  0  0  0
  -17.4203  -26.6679   21.4029 H   0  0  0  0  0  0
  -18.0331  -26.0075   22.9026 H   0  0  0  0  0  0
  -19.7939  -30.7272   24.2269 H   0  0  0  0  0  0
  -17.5018  -31.6268   24.5166 H   0  0  0  0  0  0
  -15.5355  -30.2989   23.7649 H   0  0  0  0  0  0
  -15.8680  -28.0825   22.7060 H   0  0  0  0  0  0
  -24.5899  -30.7083   25.7778 H   0  0  0  0  0  0
  -24.8920  -32.2915   26.4838 H   0  0  0  0  0  0
  -25.8045  -30.8940   27.0227 H   0  0  0  0  0  0
  -26.2935  -29.6735   24.1222 H   0  0  0  0  0  0
  -27.4013  -29.7256   25.4735 H   0  0  0  0  0  0
  -27.8820  -30.4256   23.9462 H   0  0  0  0  0  0
  -27.2633  -33.3625   26.2058 H   0  0  0  0  0  0
  -28.3868  -32.6889   25.0343 H   0  0  0  0  0  0
  -28.0694  -31.8465   26.5434 H   0  0  0  0  0  0
  -28.2584  -38.0102   24.7506 H   0  0  0  0  0  0
  -28.1080  -36.2631   24.6286 H   0  0  0  0  0  0
  -27.2295  -37.1444   25.8866 H   0  0  0  0  0  0
  -20.9386  -29.8773   21.6873 H   0  0  0  0  0  0
  -26.0158  -38.2832   24.1410 H   0  0  0  0  0  0
  -28.4996  -18.2891   21.3837 H   0  0  0  0  0  0
  -31.6296  -16.8163   18.7850 H   0  0  0  0  0  0
  -27.2212  -23.5429   20.7950 H   0  0  0  0  0  0
  -28.7117  -23.9491   21.5830 H   0  0  0  0  0  0
  -27.7899  -24.8958   18.8004 H   0  0  0  0  0  0
  -29.4347  -24.9523   19.2388 H   0  0  0  0  0  0
  -29.8926  -21.4173   17.9169 H   0  0  0  0  0  0
  -31.4131  -20.8492   17.6474 H   0  0  0  0  0  0
  -27.1341  -19.9350   21.4026 H   0  0  0  0  0  0
  -26.9250  -21.6273   21.5089 H   0  0  0  0  0  0
  -28.9255  -15.6746   21.0625 H   0  0  0  0  0  0
  -29.8084  -22.4754   19.6878 H   0  0  0  0  0  0
  1 25  1  0  0  0
  1 30  2  0  0  0
  1 82  1  0  0  0
  2  3  1  0  0  0
  2 25  1  0  0  0
  2 84  1  0  0  0
  2 85  1  0  0  0
  3  4  1  0  0  0
  3 86  1  0  0  0
  3 87  1  0  0  0
  4  5  1  0  0  0
  4 88  1  0  0  0
  4 89  1  0  0  0
  5  6  1  0  0  0
  5 26  1  0  0  0
  5 90  1  0  0  0
  6 25  1  0  0  0
  6 91  1  0  0  0
  6 92  1  0  0  0
  7  8  2  0  0  0
  7 26  1  0  0  0
  7 29  1  0  0  0
  8  9  1  0  0  0
  8 22  1  0  0  0
  9 10  1  0  0  0
  9 27  2  0  0  0
 10 11  2  0  0  0
 10 15  1  0  0  0
 11 12  1  0  0  0
 11 93  1  0  0  0
 12 13  2  0  0  0
 12 94  1  0  0  0
 13 14  1  0  0  0
 13 31  1  0  0  0
 14 15  2  0  0  0
 14 95  1  0  0  0
 15 96  1  0  0  0
 16 17  2  0  0  0
 16 21  1  0  0  0
 16 31  1  0  0  0
 17 18  1  0  0  0
 17 97  1  0  0  0
 18 19  2  0  0  0
 18 98  1  0  0  0
 19 20  1  0  0  0
 19 24  1  0  0  0
 20 21  2  0  0  0
 20 99  1  0  0  0
 21 23  1  0  0  0
 22 28  1  0  0  0
 22 32  2  0  0  0
 26 27  1  0  0  0
 28100  1  0  0  0
 28101  1  0  0  0
 29102  1  0  0  0
 29103  1  0  0  0
 33 34  1  0  0  0
 33 66  1  0  0  0
 33 70  2  0  0  0
 34 36  1  0  0  0
 34 59  1  0  0  0
 34104  1  0  0  0
 35 44  2  0  0  0
 35 45  1  0  0  0
 35 68  1  0  0  0
 36 56  1  0  0  0
 36105  1  0  0  0
 37 39  1  0  0  0
 37 47  1  0  0  0
 37 66  1  0  0  0
 37106  1  0  0  0
 38 43  2  0  0  0
 38 46  1  0  0  0
 38 47  1  0  0  0
 39 64  1  0  0  0
 39 67  2  0  0  0
 40 52  1  0  0  0
 40 53  2  0  0  0
 40 58  1  0  0  0
 41107  1  0  0  0
 41108  1  0  0  0
 41109  1  0  0  0
 41 48  1  0  0  0
 42 43  1  0  0  0
 42 66  1  0  0  0
 42110  1  0  0  0
 42111  1  0  0  0
 43 44  1  0  0  0
 44112  1  0  0  0
 45 46  2  0  0  0
 45113  1  0  0  0
 46114  1  0  0  0
 47115  1  0  0  0
 47116  1  0  0  0
 48 56  1  0  0  0
 48 65  1  0  0  0
 48117  1  0  0  0
 49 50  1  0  0  0
 49 53  1  0  0  0
 49 64  1  0  0  0
 49118  1  0  0  0
 50 51  1  0  0  0
 50119  1  0  0  0
 50120  1  0  0  0
 51 52  1  0  0  0
 51121  1  0  0  0
 51122  1  0  0  0
 52123  1  0  0  0
 52124  1  0  0  0
 53 54  1  0  0  0
 54 55  2  0  0  0
 54125  1  0  0  0
 55 57  1  0  0  0
 55126  1  0  0  0
 56 69  2  0  0  0
 57 58  2  0  0  0
 57127  1  0  0  0
 58128  1  0  0  0
 59 60  1  0  0  0
 59 61  1  0  0  0
 59 62  1  0  0  0
 60129  1  0  0  0
 60130  1  0  0  0
 60131  1  0  0  0
 61132  1  0  0  0
 61133  1  0  0  0
 61134  1  0  0  0
 62135  1  0  0  0
 62136  1  0  0  0
 62137  1  0  0  0
 63 65  1  0  0  0
 63138  1  0  0  0
 63139  1  0  0  0
 63140  1  0  0  0
 64141  1  0  0  0
 65142  1  0  0  0
 68 78  1  0  0  0
 71 73  2  0  0  0
 71 74  1  0  0  0
 71143  1  0  0  0
 72 74  2  0  0  0
 72 79  1  0  0  0
 72144  1  0  0  0
 73 75  1  0  0  0
 73 76  1  0  0  0
 74 82  1  0  0  0
 75 79  2  0  0  0
 75 80  1  0  0  0
 76 81  1  0  0  0
 76 83  2  0  0  0
 77 78  1  0  0  0
 77 83  1  0  0  0
 77145  1  0  0  0
 77146  1  0  0  0
 78147  1  0  0  0
 78148  1  0  0  0
 80149  1  0  0  0
 80150  1  0  0  0
 81151  1  0  0  0
 81152  1  0  0  0
 82153  1  0  0  0
 83154  1  0  0  0
M  CHG  1  83   1
M  ISO  4   1 100  68 101  78 101  82 100
M  END
> <chiral flag>
0

> <version>
0

> <s_m_source_file>
/data/baiqing/PycharmProjects/Reinvent-master-3.2/result/LINK_invent/BTK/process_docking_weight1_custom_product_contain_oxygen_bond_distance_aromatic_linkinvent_7_9_3/rearranged_h_0156.sdf

> <i_m_source_file_index>
45

> <r_mmod_Potential_Energy-OPLS-2005>
-139.588973999023

> <r_mmod_Stretch_Energy-OPLS-2005>
128.30973815918

> <r_mmod_Bend_Energy-OPLS-2005>
175.503433227539

> <r_mmod_Torsional_Energy-OPLS-2005>
225.545913696289

> <r_mmod_Improper_Torsional_Energy-OPLS-2005>
10.2891616821289

> <r_mmod_Van_der_Waal_Energy-OPLS-2005>
150.168838500977

> <r_mmod_Electrostatic_Energy-OPLS-2005>
-416.298370361328

> <r_mmod_Solvation_Energy-OPLS-2005>
-493.101409912109

> <b_mmod_Minimization_Converged-OPLS-2005>
0

> <r_mmod_RMS_Derivative-OPLS-2005>
0.64897620677948

$$$$
45
                    3D
 Structure written by MMmdl.
153162  0  0  1  0            999 V2000
  -30.5296  -14.9432   20.3997 C   0  0  0  0  0  0
  -30.4426  -12.5714   19.5193 C   0  0  0  0  0  0
  -29.5291  -12.5335   18.2723 C   0  0  0  0  0  0
  -28.0614  -12.3154   18.6876 C   0  0  0  0  0  0
  -27.6347  -13.2497   19.8495 C   0  0  2  0  0  0
  -28.6752  -13.2699   20.9922 C   0  0  0  0  0  0
  -25.2491  -13.8226   20.5756 C   0  0  0  0  0  0
  -24.1794  -13.0447   20.9241 C   0  0  0  0  0  0
  -24.6405  -11.6934   20.8777 C   0  0  0  0  0  0
  -23.9082  -10.4306   21.0424 C   0  0  0  0  0  0
  -24.3619   -9.4206   21.9195 C   0  0  0  0  0  0
  -23.6295   -8.2234   22.0762 C   0  0  0  0  0  0
  -22.4282   -8.0292   21.3550 C   0  0  0  0  0  0
  -21.9926   -9.0281   20.4658 C   0  0  0  0  0  0
  -22.7259  -10.2156   20.3063 C   0  0  0  0  0  0
  -21.6856   -6.0750   22.5294 C   0  0  0  0  0  0
  -21.4018   -6.5650   23.8236 C   0  0  0  0  0  0
  -21.3659   -5.6794   24.9192 C   0  0  0  0  0  0
  -21.6040   -4.3055   24.7225 C   0  0  0  0  0  0
  -21.8812   -3.8159   23.4343 C   0  0  0  0  0  0
  -21.9190   -4.6980   22.3403 C   0  0  0  0  0  0
  -22.7810  -13.5216   21.1894 C   0  0  0  0  0  0
  -22.1661   -4.2168   21.0978 F   0  0  0  0  0  0
  -21.5614   -3.4530   25.7729 F   0  0  0  0  0  0
  -29.9615  -13.6705   20.4044 N   0  0  0  0  0  0
  -26.2919  -12.9460   20.3310 N   0  0  0  0  0  0
  -25.9341  -11.6589   20.5780 N   0  0  0  0  0  0
  -22.0438  -12.8229   22.0457 N   0  0  0  0  0  0
  -25.4134  -15.1958   20.4169 N   0  0  0  0  0  0
  -31.7142  -15.0292   20.0506 O   0  0  0  0  0  0
  -21.6636   -6.8901   21.4261 O   0  0  0  0  0  0
  -22.3509  -14.5533   20.6749 O   0  0  0  0  0  0
  -24.6420  -31.8431   23.1865 C   0  0  0  0  0  0
  -25.9192  -32.4688   23.8255 C   0  0  1  0  0  0
  -27.2239  -27.1545   20.1198 C   0  0  0  0  0  0
  -25.5938  -33.8498   24.2183 N   0  0  0  0  0  0
  -23.4445  -30.4618   21.5325 C   0  0  2  0  0  0
  -24.8915  -28.8860   20.1055 C   0  0  0  0  0  0
  -22.7551  -29.4546   22.4857 C   0  0  0  0  0  0
  -18.0302  -28.1407   22.8474 C   0  0  0  0  0  0
  -24.1493  -36.7277   23.2644 C   0  0  0  0  0  0
  -25.9983  -30.7186   21.3822 C   0  0  0  0  0  0
  -26.0675  -29.3312   20.7215 C   0  0  0  0  0  0
  -27.2314  -28.4789   20.7136 C   0  0  0  0  0  0
  -26.0200  -26.7967   19.4772 C   0  0  0  0  0  0
  -24.8789  -27.6315   19.4722 C   0  0  0  0  0  0
  -23.6672  -29.7885   20.1517 C   0  0  0  0  0  0
  -25.4122  -36.3034   24.0317 C   0  0  1  0  0  0
  -20.5911  -28.3730   23.1231 C   0  0  2  0  0  0
  -20.6781  -26.9434   22.5394 C   0  0  0  0  0  0
  -19.5755  -26.6384   21.5205 C   0  0  0  0  0  0
  -18.1944  -26.7941   22.1627 C   0  0  0  0  0  0
  -19.1558  -28.8883   23.2848 C   0  0  0  0  0  0
  -18.9476  -30.1476   23.8874 C   0  0  0  0  0  0
  -17.6475  -30.6593   24.0564 C   0  0  0  0  0  0
  -25.9064  -34.9401   23.5059 C   0  0  0  0  0  0
  -16.5367  -29.9096   23.6332 C   0  0  0  0  0  0
  -16.7289  -28.6523   23.0345 C   0  0  0  0  0  0
  -26.4497  -31.6583   25.0716 C   0  0  0  0  0  0
  -25.3691  -31.3791   26.1428 C   0  0  0  0  0  0
  -27.0355  -30.2981   24.6309 C   0  0  0  0  0  0
  -27.6024  -32.4356   25.7499 C   0  0  0  0  0  0
  -27.5569  -37.1803   24.8466 C   0  0  0  0  0  0
  -21.4245  -29.3057   22.3606 N   0  0  0  0  0  0
  -26.4291  -37.3744   23.9392 N   0  0  0  0  0  0
  -24.7154  -31.0287   22.0892 N   0  0  0  0  0  0
  -23.4207  -28.8093   23.2992 O   0  0  0  0  0  0
  -28.3073  -26.2127   20.1926 O   0  0  0  0  0  0
  -26.5659  -34.8886   22.4645 O   0  0  0  0  0  0
  -23.5536  -32.1300   23.7087 O   0  0  0  0  0  0
  -29.2447  -18.6084   21.0306 C   0  0  0  0  0  0
  -29.3571  -19.8682   20.2546 C   0  0  0  0  0  0
  -29.7684  -17.4922   20.3311 C   0  0  0  0  0  0
  -29.9134  -19.3767   19.0887 C   0  0  0  0  0  0
  -29.0369  -21.3654   20.7051 C   0  0  0  0  0  0
  -27.6110  -23.5043   20.4406 C   0  0  0  0  0  0
  -29.5185  -23.7660   19.9218 C   0  0  0  0  0  0
  -28.2785  -24.7338   19.7087 C   0  0  0  0  0  0
  -28.6756  -22.5243   20.0012 N   0  0  0  0  0  0
  -30.2137  -20.0972   17.9411 N   0  0  0  0  0  0
  -29.7402  -16.0909   20.6810 N   0  0  0  0  0  0
  -29.1552  -21.5563   22.0308 N   0  3  0  0  0  0
  -30.1760  -17.9968   19.1107 O   0  0  0  0  0  0
  -31.4815  -12.7093   19.2153 H   0  0  0  0  0  0
  -30.4133  -11.6178   20.0473 H   0  0  0  0  0  0
  -29.8460  -11.7445   17.5903 H   0  0  0  0  0  0
  -29.6234  -13.4739   17.7272 H   0  0  0  0  0  0
  -27.9647  -11.2739   18.9991 H   0  0  0  0  0  0
  -27.3975  -12.4418   17.8321 H   0  0  0  0  0  0
  -27.5976  -14.2524   19.4219 H   0  0  0  0  0  0
  -28.7538  -12.2909   21.4670 H   0  0  0  0  0  0
  -28.3725  -13.9685   21.7741 H   0  0  0  0  0  0
  -25.2754   -9.5650   22.4786 H   0  0  0  0  0  0
  -23.9993   -7.4609   22.7470 H   0  0  0  0  0  0
  -21.0855   -8.8813   19.8967 H   0  0  0  0  0  0
  -22.3725  -10.9708   19.6169 H   0  0  0  0  0  0
  -21.2025   -7.6156   23.9745 H   0  0  0  0  0  0
  -21.1486   -6.0522   25.9099 H   0  0  0  0  0  0
  -22.0585   -2.7616   23.2842 H   0  0  0  0  0  0
  -22.4027  -11.9871   22.4830 H   0  0  0  0  0  0
  -21.1064  -13.1292   22.2669 H   0  0  0  0  0  0
  -24.6328  -15.8392   20.5073 H   0  0  0  0  0  0
  -26.2485  -15.6418   20.0623 H   0  0  0  0  0  0
  -26.7261  -32.5272   23.0974 H   0  0  0  0  0  0
  -25.0029  -33.9626   25.0293 H   0  0  0  0  0  0
  -22.7467  -31.2874   21.3796 H   0  0  0  0  0  0
  -23.3727  -35.9642   23.3323 H   0  0  0  0  0  0
  -24.3558  -36.8890   22.2051 H   0  0  0  0  0  0
  -23.7270  -37.6488   23.6673 H   0  0  0  0  0  0
  -26.1511  -31.4741   20.6105 H   0  0  0  0  0  0
  -26.8689  -30.7695   22.0242 H   0  0  0  0  0  0
  -28.1308  -28.8161   21.2101 H   0  0  0  0  0  0
  -25.9316  -25.8333   18.9963 H   0  0  0  0  0  0
  -23.9770  -27.2863   18.9836 H   0  0  0  0  0  0
  -23.8021  -30.5645   19.3976 H   0  0  0  0  0  0
  -22.7807  -29.2326   19.8397 H   0  0  0  0  0  0
  -25.1311  -36.1870   25.0812 H   0  0  0  0  0  0
  -21.0006  -28.3316   24.1352 H   0  0  0  0  0  0
  -20.5672  -26.2340   23.3610 H   0  0  0  0  0  0
  -21.6646  -26.7427   22.1190 H   0  0  0  0  0  0
  -19.6910  -25.6285   21.1253 H   0  0  0  0  0  0
  -19.6689  -27.3169   20.6720 H   0  0  0  0  0  0
  -17.4193  -26.6655   21.4054 H   0  0  0  0  0  0
  -18.0379  -26.0106   22.9055 H   0  0  0  0  0  0
  -19.7950  -30.7305   24.2237 H   0  0  0  0  0  0
  -17.5023  -31.6268   24.5181 H   0  0  0  0  0  0
  -15.5364  -30.2990   23.7670 H   0  0  0  0  0  0
  -15.8693  -28.0835   22.7059 H   0  0  0  0  0  0
  -24.5815  -30.7212   25.7733 H   0  0  0  0  0  0
  -24.8948  -32.2997   26.4851 H   0  0  0  0  0  0
  -25.7959  -30.8922   27.0214 H   0  0  0  0  0  0
  -26.2975  -29.6710   24.1300 H   0  0  0  0  0  0
  -27.3940  -29.7272   25.4882 H   0  0  0  0  0  0
  -27.8888  -30.4201   23.9638 H   0  0  0  0  0  0
  -27.2610  -33.3670   26.2029 H   0  0  0  0  0  0
  -28.3855  -32.6913   25.0351 H   0  0  0  0  0  0
  -28.0684  -31.8532   26.5456 H   0  0  0  0  0  0
  -28.2606  -38.0080   24.7451 H   0  0  0  0  0  0
  -28.1043  -36.2599   24.6372 H   0  0  0  0  0  0
  -27.2277  -37.1531   25.8870 H   0  0  0  0  0  0
  -20.9453  -29.8782   21.6795 H   0  0  0  0  0  0
  -26.0159  -38.2824   24.1353 H   0  0  0  0  0  0
  -28.8255  -18.5363   22.0241 H   0  0  0  0  0  0
  -26.6253  -23.2578   20.0461 H   0  0  0  0  0  0
  -27.5658  -23.6419   21.5198 H   0  0  0  0  0  0
  -30.0520  -23.9582   20.8530 H   0  0  0  0  0  0
  -30.2135  -23.7510   19.0823 H   0  0  0  0  0  0
  -28.0158  -24.7277   18.6490 H   0  0  0  0  0  0
  -29.9615  -21.0667   17.7837 H   0  0  0  0  0  0
  -30.4550  -19.6267   17.0740 H   0  0  0  0  0  0
  -28.8966  -15.8300   21.1680 H   0  0  0  0  0  0
  -29.4740  -20.8026   22.6187 H   0  0  0  0  0  0
  -28.9885  -22.4468   22.4699 H   0  0  0  0  0  0
  1 25  1  0  0  0
  1 30  2  0  0  0
  1 81  1  0  0  0
  2  3  1  0  0  0
  2 25  1  0  0  0
  2 84  1  0  0  0
  2 85  1  0  0  0
  3  4  1  0  0  0
  3 86  1  0  0  0
  3 87  1  0  0  0
  4  5  1  0  0  0
  4 88  1  0  0  0
  4 89  1  0  0  0
  5  6  1  0  0  0
  5 26  1  0  0  0
  5 90  1  0  0  0
  6 25  1  0  0  0
  6 91  1  0  0  0
  6 92  1  0  0  0
  7  8  2  0  0  0
  7 26  1  0  0  0
  7 29  1  0  0  0
  8  9  1  0  0  0
  8 22  1  0  0  0
  9 10  1  0  0  0
  9 27  2  0  0  0
 10 11  2  0  0  0
 10 15  1  0  0  0
 11 12  1  0  0  0
 11 93  1  0  0  0
 12 13  2  0  0  0
 12 94  1  0  0  0
 13 14  1  0  0  0
 13 31  1  0  0  0
 14 15  2  0  0  0
 14 95  1  0  0  0
 15 96  1  0  0  0
 16 17  2  0  0  0
 16 21  1  0  0  0
 16 31  1  0  0  0
 17 18  1  0  0  0
 17 97  1  0  0  0
 18 19  2  0  0  0
 18 98  1  0  0  0
 19 20  1  0  0  0
 19 24  1  0  0  0
 20 21  2  0  0  0
 20 99  1  0  0  0
 21 23  1  0  0  0
 22 28  1  0  0  0
 22 32  2  0  0  0
 26 27  1  0  0  0
 28100  1  0  0  0
 28101  1  0  0  0
 29102  1  0  0  0
 29103  1  0  0  0
 33 34  1  0  0  0
 33 66  1  0  0  0
 33 70  2  0  0  0
 34 36  1  0  0  0
 34 59  1  0  0  0
 34104  1  0  0  0
 35 44  2  0  0  0
 35 45  1  0  0  0
 35 68  1  0  0  0
 36 56  1  0  0  0
 36105  1  0  0  0
 37 39  1  0  0  0
 37 47  1  0  0  0
 37 66  1  0  0  0
 37106  1  0  0  0
 38 43  2  0  0  0
 38 46  1  0  0  0
 38 47  1  0  0  0
 39 64  1  0  0  0
 39 67  2  0  0  0
 40 52  1  0  0  0
 40 53  2  0  0  0
 40 58  1  0  0  0
 41107  1  0  0  0
 41108  1  0  0  0
 41109  1  0  0  0
 41 48  1  0  0  0
 42 43  1  0  0  0
 42 66  1  0  0  0
 42110  1  0  0  0
 42111  1  0  0  0
 43 44  1  0  0  0
 44112  1  0  0  0
 45 46  2  0  0  0
 45113  1  0  0  0
 46114  1  0  0  0
 47115  1  0  0  0
 47116  1  0  0  0
 48 56  1  0  0  0
 48 65  1  0  0  0
 48117  1  0  0  0
 49 50  1  0  0  0
 49 53  1  0  0  0
 49 64  1  0  0  0
 49118  1  0  0  0
 50 51  1  0  0  0
 50119  1  0  0  0
 50120  1  0  0  0
 51 52  1  0  0  0
 51121  1  0  0  0
 51122  1  0  0  0
 52123  1  0  0  0
 52124  1  0  0  0
 53 54  1  0  0  0
 54 55  2  0  0  0
 54125  1  0  0  0
 55 57  1  0  0  0
 55126  1  0  0  0
 56 69  2  0  0  0
 57 58  2  0  0  0
 57127  1  0  0  0
 58128  1  0  0  0
 59 60  1  0  0  0
 59 61  1  0  0  0
 59 62  1  0  0  0
 60129  1  0  0  0
 60130  1  0  0  0
 60131  1  0  0  0
 61132  1  0  0  0
 61133  1  0  0  0
 61134  1  0  0  0
 62135  1  0  0  0
 62136  1  0  0  0
 62137  1  0  0  0
 63 65  1  0  0  0
 63138  1  0  0  0
 63139  1  0  0  0
 63140  1  0  0  0
 64141  1  0  0  0
 65142  1  0  0  0
 68 78  1  0  0  0
 71 72  1  0  0  0
 71 73  2  0  0  0
 71143  1  0  0  0
 72 74  2  0  0  0
 72 75  1  0  0  0
 73 81  1  0  0  0
 73 83  1  0  0  0
 74 80  1  0  0  0
 74 83  1  0  0  0
 75 79  1  0  0  0
 75 82  2  0  0  0
 76 78  1  0  0  0
 76 79  1  0  0  0
 76144  1  0  0  0
 76145  1  0  0  0
 77 78  1  0  0  0
 77 79  1  0  0  0
 77146  1  0  0  0
 77147  1  0  0  0
 78148  1  0  0  0
 80149  1  0  0  0
 80150  1  0  0  0
 81151  1  0  0  0
 82152  1  0  0  0
 82153  1  0  0  0
M  CHG  1  82   1
M  ISO  4   1 100  68 101  78 101  81 100
M  END
> <chiral flag>
0

> <version>
0

> <s_m_source_file>
/data/baiqing/PycharmProjects/Reinvent-master-3.2/result/LINK_invent/BTK/process_docking_weight1_custom_product_contain_oxygen_bond_distance_aromatic_linkinvent_7_9_3/rearranged_h_0156.sdf

> <i_m_source_file_index>
46

> <r_mmod_Potential_Energy-OPLS-2005>
332.179565429688

> <r_mmod_Stretch_Energy-OPLS-2005>
202.530868530273

> <r_mmod_Bend_Energy-OPLS-2005>
294.544647216797

> <r_mmod_Torsional_Energy-OPLS-2005>
274.014129638672

> <r_mmod_Improper_Torsional_Energy-OPLS-2005>
12.4730606079102

> <r_mmod_Van_der_Waal_Energy-OPLS-2005>
111.826316833496

> <r_mmod_Electrostatic_Energy-OPLS-2005>
-251.304092407227

> <r_mmod_Solvation_Energy-OPLS-2005>
-492.335601806641

> <b_mmod_Minimization_Converged-OPLS-2005>
0

> <r_mmod_RMS_Derivative-OPLS-2005>
3.22271347045898

$$$$
46
                    3D
 Structure written by MMmdl.
155164  0  0  1  0            999 V2000
  -30.5536  -14.8442   20.2533 C   0  0  0  0  0  0
  -30.4751  -12.4461   19.5038 C   0  0  0  0  0  0
  -29.5464  -12.2099   18.2871 C   0  0  0  0  0  0
  -28.0335  -12.2785   18.6365 C   0  0  0  0  0  0
  -27.6378  -13.2141   19.8230 C   0  0  2  0  0  0
  -28.6993  -13.2288   20.9371 C   0  0  0  0  0  0
  -25.2570  -13.8171   20.5747 C   0  0  0  0  0  0
  -24.1826  -13.0436   20.9215 C   0  0  0  0  0  0
  -24.6387  -11.6910   20.8775 C   0  0  0  0  0  0
  -23.9075  -10.4287   21.0420 C   0  0  0  0  0  0
  -24.3631   -9.4194   21.9185 C   0  0  0  0  0  0
  -23.6297   -8.2237   22.0761 C   0  0  0  0  0  0
  -22.4276   -8.0289   21.3550 C   0  0  0  0  0  0
  -21.9916   -9.0270   20.4649 C   0  0  0  0  0  0
  -22.7260  -10.2139   20.3052 C   0  0  0  0  0  0
  -21.6861   -6.0746   22.5270 C   0  0  0  0  0  0
  -21.4011   -6.5646   23.8209 C   0  0  0  0  0  0
  -21.3640   -5.6790   24.9169 C   0  0  0  0  0  0
  -21.6053   -4.3055   24.7211 C   0  0  0  0  0  0
  -21.8830   -3.8155   23.4333 C   0  0  0  0  0  0
  -21.9199   -4.6976   22.3394 C   0  0  0  0  0  0
  -22.7850  -13.5236   21.1852 C   0  0  0  0  0  0
  -22.1677   -4.2171   21.0970 F   0  0  0  0  0  0
  -21.5613   -3.4531   25.7717 F   0  0  0  0  0  0
  -29.9682  -13.5879   20.2943 N   0  0  0  0  0  0
  -26.2956  -12.9326   20.3256 N   0  0  0  0  0  0
  -25.9315  -11.6507   20.5806 N   0  0  0  0  0  0
  -22.0485  -12.8231   22.0397 N   0  0  0  0  0  0
  -25.4277  -15.1900   20.4263 N   0  0  0  0  0  0
  -31.7866  -14.9157   20.2757 O   0  0  0  0  0  0
  -21.6640   -6.8890   21.4238 O   0  0  0  0  0  0
  -22.3547  -14.5548   20.6695 O   0  0  0  0  0  0
  -24.6321  -31.8543   23.1978 C   0  0  0  0  0  0
  -25.9121  -32.4759   23.8325 C   0  0  1  0  0  0
  -27.2199  -27.2548   20.1317 C   0  0  0  0  0  0
  -25.5916  -33.8566   24.2247 N   0  0  0  0  0  0
  -23.4309  -30.4771   21.5425 C   0  0  2  0  0  0
  -24.8785  -28.9253   20.1120 C   0  0  0  0  0  0
  -22.7506  -29.4587   22.4906 C   0  0  0  0  0  0
  -18.0296  -28.1386   22.8457 C   0  0  0  0  0  0
  -24.1489  -36.7293   23.2644 C   0  0  0  0  0  0
  -25.9790  -30.7652   21.3801 C   0  0  0  0  0  0
  -26.0513  -29.3879   20.7224 C   0  0  0  0  0  0
  -27.2267  -28.5655   20.7203 C   0  0  0  0  0  0
  -26.0222  -26.8703   19.4828 C   0  0  0  0  0  0
  -24.8681  -27.6739   19.4842 C   0  0  0  0  0  0
  -23.6490  -29.8106   20.1602 C   0  0  0  0  0  0
  -25.4122  -36.3088   24.0332 C   0  0  1  0  0  0
  -20.5886  -28.3700   23.1262 C   0  0  2  0  0  0
  -20.6764  -26.9385   22.5473 C   0  0  0  0  0  0
  -19.5804  -26.6360   21.5201 C   0  0  0  0  0  0
  -18.1940  -26.7950   22.1535 C   0  0  0  0  0  0
  -19.1541  -28.8860   23.2873 C   0  0  0  0  0  0
  -18.9449  -30.1453   23.8908 C   0  0  0  0  0  0
  -17.6448  -30.6565   24.0581 C   0  0  0  0  0  0
  -25.9050  -34.9451   23.5097 C   0  0  0  0  0  0
  -16.5360  -29.9063   23.6339 C   0  0  0  0  0  0
  -16.7278  -28.6496   23.0335 C   0  0  0  0  0  0
  -26.4482  -31.6603   25.0728 C   0  0  0  0  0  0
  -25.3697  -31.3765   26.1443 C   0  0  0  0  0  0
  -27.0331  -30.3017   24.6238 C   0  0  0  0  0  0
  -27.6018  -32.4362   25.7514 C   0  0  0  0  0  0
  -27.5584  -37.1805   24.8468 C   0  0  0  0  0  0
  -21.4207  -29.3037   22.3649 N   0  0  0  0  0  0
  -26.4305  -37.3781   23.9402 N   0  0  0  0  0  0
  -24.7000  -31.0497   22.0964 N   0  0  0  0  0  0
  -23.4210  -28.8121   23.2995 O   0  0  0  0  0  0
  -28.2981  -26.3362   20.2154 O   0  0  0  0  0  0
  -26.5641  -34.8929   22.4670 O   0  0  0  0  0  0
  -23.5457  -32.1369   23.7262 O   0  0  0  0  0  0
  -29.8675  -18.3918   20.5785 C   0  0  0  0  0  0
  -29.3676  -17.2435   19.7910 C   0  0  0  0  0  0
  -28.3423  -17.6832   18.9786 C   0  0  0  0  0  0
  -29.2160  -19.6326   20.3146 C   0  0  0  0  0  0
  -28.9680  -23.7180   20.4617 C   0  0  0  0  0  0
  -27.8266  -16.9742   17.7916 C   0  0  0  0  0  0
  -29.0608  -16.4145   17.1067 C   0  0  0  0  0  0
  -29.7816  -15.4616   18.0778 C   0  0  0  0  0  0
  -28.5601  -22.1791   20.2361 C   0  0  0  0  0  0
  -27.9959  -24.8825   19.9387 C   0  0  0  0  0  0
  -29.8552  -15.8339   19.5251 N   0  0  0  0  0  0
  -29.4405  -21.0179   20.6978 N   0  0  0  0  0  0
  -30.0302  -23.9867   21.0334 O   0  0  0  0  0  0
  -27.8935  -19.3439   19.2211 S   0  0  0  0  0  0
  -31.4985  -12.6172   19.1643 H   0  0  0  0  0  0
  -30.5157  -11.5511   20.1267 H   0  0  0  0  0  0
  -29.7534  -11.2065   17.9114 H   0  0  0  0  0  0
  -29.8217  -12.8276   17.4352 H   0  0  0  0  0  0
  -27.7452  -11.2549   18.8762 H   0  0  0  0  0  0
  -27.4559  -12.5396   17.7478 H   0  0  0  0  0  0
  -27.5861  -14.2234   19.4239 H   0  0  0  0  0  0
  -28.7659  -12.2567   21.4287 H   0  0  0  0  0  0
  -28.4437  -13.9572   21.7073 H   0  0  0  0  0  0
  -25.2789   -9.5679   22.4748 H   0  0  0  0  0  0
  -24.0031   -7.4631   22.7463 H   0  0  0  0  0  0
  -21.0866   -8.8798   19.8943 H   0  0  0  0  0  0
  -22.3743  -10.9688   19.6158 H   0  0  0  0  0  0
  -21.2001   -7.6151   23.9722 H   0  0  0  0  0  0
  -21.1448   -6.0506   25.9072 H   0  0  0  0  0  0
  -22.0626   -2.7626   23.2809 H   0  0  0  0  0  0
  -22.4123  -11.9913   22.4792 H   0  0  0  0  0  0
  -21.1059  -13.1210   22.2500 H   0  0  0  0  0  0
  -24.6685  -15.8439   20.5838 H   0  0  0  0  0  0
  -26.2951  -15.6467   20.1809 H   0  0  0  0  0  0
  -26.7197  -32.5392   23.1071 H   0  0  0  0  0  0
  -25.0054  -33.9706   25.0393 H   0  0  0  0  0  0
  -22.7269  -31.2989   21.3927 H   0  0  0  0  0  0
  -23.3766  -35.9607   23.3317 H   0  0  0  0  0  0
  -24.3573  -36.8903   22.2052 H   0  0  0  0  0  0
  -23.7220  -37.6491   23.6660 H   0  0  0  0  0  0
  -26.1179  -31.5227   20.6082 H   0  0  0  0  0  0
  -26.8561  -30.8143   22.0133 H   0  0  0  0  0  0
  -28.1228  -28.9132   21.2160 H   0  0  0  0  0  0
  -25.9317  -25.9201   18.9795 H   0  0  0  0  0  0
  -23.9701  -27.3107   19.0043 H   0  0  0  0  0  0
  -23.7683  -30.5827   19.3997 H   0  0  0  0  0  0
  -22.7701  -29.2386   19.8589 H   0  0  0  0  0  0
  -25.1295  -36.1955   25.0830 H   0  0  0  0  0  0
  -20.9985  -28.3319   24.1383 H   0  0  0  0  0  0
  -20.5541  -26.2299   23.3680 H   0  0  0  0  0  0
  -21.6682  -26.7315   22.1411 H   0  0  0  0  0  0
  -19.6993  -25.6246   21.1273 H   0  0  0  0  0  0
  -19.6828  -27.3155   20.6714 H   0  0  0  0  0  0
  -17.4274  -26.6827   21.3866 H   0  0  0  0  0  0
  -18.0198  -26.0068   22.8873 H   0  0  0  0  0  0
  -19.7915  -30.7259   24.2307 H   0  0  0  0  0  0
  -17.4986  -31.6228   24.5206 H   0  0  0  0  0  0
  -15.5365  -30.2976   23.7644 H   0  0  0  0  0  0
  -15.8668  -28.0845   22.7030 H   0  0  0  0  0  0
  -24.5867  -30.7125   25.7765 H   0  0  0  0  0  0
  -24.8908  -32.2945   26.4862 H   0  0  0  0  0  0
  -25.8006  -30.8940   27.0226 H   0  0  0  0  0  0
  -26.2921  -29.6780   24.1229 H   0  0  0  0  0  0
  -27.3954  -29.7270   25.4775 H   0  0  0  0  0  0
  -27.8827  -30.4287   23.9526 H   0  0  0  0  0  0
  -27.2599  -33.3657   26.2088 H   0  0  0  0  0  0
  -28.3839  -32.6943   25.0359 H   0  0  0  0  0  0
  -28.0685  -31.8500   26.5445 H   0  0  0  0  0  0
  -28.2605  -38.0097   24.7504 H   0  0  0  0  0  0
  -28.1076  -36.2623   24.6317 H   0  0  0  0  0  0
  -27.2294  -37.1475   25.8870 H   0  0  0  0  0  0
  -20.9393  -29.8723   21.6821 H   0  0  0  0  0  0
  -26.0198  -38.2863   24.1394 H   0  0  0  0  0  0
  -30.7236  -18.2865   21.2278 H   0  0  0  0  0  0
  -27.2941  -17.6532   17.1242 H   0  0  0  0  0  0
  -27.1306  -16.1854   18.0783 H   0  0  0  0  0  0
  -29.7255  -17.2275   16.8117 H   0  0  0  0  0  0
  -28.7845  -15.8879   16.1912 H   0  0  0  0  0  0
  -30.7553  -15.1677   17.6741 H   0  0  0  0  0  0
  -29.1255  -14.6172   18.0195 H   0  0  0  0  0  0
  -28.3897  -22.0727   19.1646 H   0  0  0  0  0  0
  -27.5780  -22.0544   20.6968 H   0  0  0  0  0  0
  -27.0175  -24.6396   20.3524 H   0  0  0  0  0  0
  -27.9124  -24.7636   18.8580 H   0  0  0  0  0  0
  -30.2469  -21.2972   21.2537 H   0  0  0  0  0  0
  1 25  1  0  0  0
  1 30  2  0  0  0
  1 81  1  0  0  0
  2  3  1  0  0  0
  2 25  1  0  0  0
  2 85  1  0  0  0
  2 86  1  0  0  0
  3  4  1  0  0  0
  3 87  1  0  0  0
  3 88  1  0  0  0
  4  5  1  0  0  0
  4 89  1  0  0  0
  4 90  1  0  0  0
  5  6  1  0  0  0
  5 26  1  0  0  0
  5 91  1  0  0  0
  6 25  1  0  0  0
  6 92  1  0  0  0
  6 93  1  0  0  0
  7  8  2  0  0  0
  7 26  1  0  0  0
  7 29  1  0  0  0
  8  9  1  0  0  0
  8 22  1  0  0  0
  9 10  1  0  0  0
  9 27  2  0  0  0
 10 11  2  0  0  0
 10 15  1  0  0  0
 11 12  1  0  0  0
 11 94  1  0  0  0
 12 13  2  0  0  0
 12 95  1  0  0  0
 13 14  1  0  0  0
 13 31  1  0  0  0
 14 15  2  0  0  0
 14 96  1  0  0  0
 15 97  1  0  0  0
 16 17  2  0  0  0
 16 21  1  0  0  0
 16 31  1  0  0  0
 17 18  1  0  0  0
 17 98  1  0  0  0
 18 19  2  0  0  0
 18 99  1  0  0  0
 19 20  1  0  0  0
 19 24  1  0  0  0
 20 21  2  0  0  0
 20100  1  0  0  0
 21 23  1  0  0  0
 22 28  1  0  0  0
 22 32  2  0  0  0
 26 27  1  0  0  0
 28101  1  0  0  0
 28102  1  0  0  0
 29103  1  0  0  0
 29104  1  0  0  0
 33 34  1  0  0  0
 33 66  1  0  0  0
 33 70  2  0  0  0
 34 36  1  0  0  0
 34 59  1  0  0  0
 34105  1  0  0  0
 35 44  2  0  0  0
 35 45  1  0  0  0
 35 68  1  0  0  0
 36 56  1  0  0  0
 36106  1  0  0  0
 37 39  1  0  0  0
 37 47  1  0  0  0
 37 66  1  0  0  0
 37107  1  0  0  0
 38 43  2  0  0  0
 38 46  1  0  0  0
 38 47  1  0  0  0
 39 64  1  0  0  0
 39 67  2  0  0  0
 40 52  1  0  0  0
 40 53  2  0  0  0
 40 58  1  0  0  0
 41108  1  0  0  0
 41109  1  0  0  0
 41110  1  0  0  0
 41 48  1  0  0  0
 42 43  1  0  0  0
 42 66  1  0  0  0
 42111  1  0  0  0
 42112  1  0  0  0
 43 44  1  0  0  0
 44113  1  0  0  0
 45 46  2  0  0  0
 45114  1  0  0  0
 46115  1  0  0  0
 47116  1  0  0  0
 47117  1  0  0  0
 48 56  1  0  0  0
 48 65  1  0  0  0
 48118  1  0  0  0
 49 50  1  0  0  0
 49 53  1  0  0  0
 49 64  1  0  0  0
 49119  1  0  0  0
 50 51  1  0  0  0
 50120  1  0  0  0
 50121  1  0  0  0
 51 52  1  0  0  0
 51122  1  0  0  0
 51123  1  0  0  0
 52124  1  0  0  0
 52125  1  0  0  0
 53 54  1  0  0  0
 54 55  2  0  0  0
 54126  1  0  0  0
 55 57  1  0  0  0
 55127  1  0  0  0
 56 69  2  0  0  0
 57 58  2  0  0  0
 57128  1  0  0  0
 58129  1  0  0  0
 59 60  1  0  0  0
 59 61  1  0  0  0
 59 62  1  0  0  0
 60130  1  0  0  0
 60131  1  0  0  0
 60132  1  0  0  0
 61133  1  0  0  0
 61134  1  0  0  0
 61135  1  0  0  0
 62136  1  0  0  0
 62137  1  0  0  0
 62138  1  0  0  0
 63 65  1  0  0  0
 63139  1  0  0  0
 63140  1  0  0  0
 63141  1  0  0  0
 64142  1  0  0  0
 65143  1  0  0  0
 68 80  1  0  0  0
 71 72  1  0  0  0
 71 74  2  0  0  0
 71144  1  0  0  0
 72 73  2  0  0  0
 72 81  1  0  0  0
 73 76  1  0  0  0
 73 84  1  0  0  0
 74 82  1  0  0  0
 74 84  1  0  0  0
 75 79  1  0  0  0
 75 80  1  0  0  0
 75 83  2  0  0  0
 76 77  1  0  0  0
 76145  1  0  0  0
 76146  1  0  0  0
 77 78  1  0  0  0
 77147  1  0  0  0
 77148  1  0  0  0
 78 81  1  0  0  0
 78149  1  0  0  0
 78150  1  0  0  0
 79 82  1  0  0  0
 79151  1  0  0  0
 79152  1  0  0  0
 80153  1  0  0  0
 80154  1  0  0  0
 82155  1  0  0  0
M  ISO  4   1 100  68 101  80 101  81 100
M  END
> <chiral flag>
0

> <version>
0

> <s_m_source_file>
/data/baiqing/PycharmProjects/Reinvent-master-3.2/result/LINK_invent/BTK/process_docking_weight1_custom_product_contain_oxygen_bond_distance_aromatic_linkinvent_7_9_3/rearranged_h_0156.sdf

> <i_m_source_file_index>
47

> <r_mmod_Potential_Energy-OPLS-2005>
571.395751953125

> <r_mmod_Stretch_Energy-OPLS-2005>
145.199722290039

> <r_mmod_Bend_Energy-OPLS-2005>
230.951553344727

> <r_mmod_Torsional_Energy-OPLS-2005>
326.719146728516

> <r_mmod_Improper_Torsional_Energy-OPLS-2005>
29.3649711608887

> <r_mmod_Van_der_Waal_Energy-OPLS-2005>
143.469390869141

> <r_mmod_Electrostatic_Energy-OPLS-2005>
-215.69352722168

> <r_mmod_Solvation_Energy-OPLS-2005>
-233.476486206055

> <b_mmod_Minimization_Converged-OPLS-2005>
0

> <r_mmod_RMS_Derivative-OPLS-2005>
3.49056625366211

$$$$
47
                    3D
 Structure written by MMmdl.
153162  0  0  1  0            999 V2000
  -30.5434  -14.8825   20.4396 C   0  0  0  0  0  0
  -30.4426  -12.5453   19.4900 C   0  0  0  0  0  0
  -29.5195  -12.5207   18.2499 C   0  0  0  0  0  0
  -28.0496  -12.3185   18.6652 C   0  0  0  0  0  0
  -27.6333  -13.2380   19.8435 C   0  0  2  0  0  0
  -28.6760  -13.2246   20.9812 C   0  0  0  0  0  0
  -25.2481  -13.8199   20.5696 C   0  0  0  0  0  0
  -24.1786  -13.0432   20.9216 C   0  0  0  0  0  0
  -24.6383  -11.6912   20.8740 C   0  0  0  0  0  0
  -23.9062  -10.4287   21.0398 C   0  0  0  0  0  0
  -24.3613   -9.4204   21.9176 C   0  0  0  0  0  0
  -23.6285   -8.2241   22.0751 C   0  0  0  0  0  0
  -22.4271   -8.0273   21.3540 C   0  0  0  0  0  0
  -21.9905   -9.0247   20.4644 C   0  0  0  0  0  0
  -22.7232  -10.2126   20.3049 C   0  0  0  0  0  0
  -21.6854   -6.0725   22.5269 C   0  0  0  0  0  0
  -21.4016   -6.5630   23.8204 C   0  0  0  0  0  0
  -21.3661   -5.6783   24.9167 C   0  0  0  0  0  0
  -21.6045   -4.3046   24.7219 C   0  0  0  0  0  0
  -21.8823   -3.8137   23.4344 C   0  0  0  0  0  0
  -21.9196   -4.6953   22.3397 C   0  0  0  0  0  0
  -22.7810  -13.5215   21.1874 C   0  0  0  0  0  0
  -22.1663   -4.2137   21.0975 F   0  0  0  0  0  0
  -21.5631   -3.4532   25.7736 F   0  0  0  0  0  0
  -29.9590  -13.6246   20.3917 N   0  0  0  0  0  0
  -26.2893  -12.9406   20.3244 N   0  0  0  0  0  0
  -25.9310  -11.6546   20.5730 N   0  0  0  0  0  0
  -22.0457  -12.8199   22.0429 N   0  0  0  0  0  0
  -25.4152  -15.1931   20.4115 N   0  0  0  0  0  0
  -31.7448  -14.9738   20.1623 O   0  0  0  0  0  0
  -21.6637   -6.8869   21.4234 O   0  0  0  0  0  0
  -22.3499  -14.5524   20.6725 O   0  0  0  0  0  0
  -24.6395  -31.8482   23.1898 C   0  0  0  0  0  0
  -25.9194  -32.4712   23.8273 C   0  0  1  0  0  0
  -27.2142  -27.1731   20.1582 C   0  0  0  0  0  0
  -25.5968  -33.8511   24.2202 N   0  0  0  0  0  0
  -23.4401  -30.4673   21.5355 C   0  0  2  0  0  0
  -24.8888  -28.8951   20.1144 C   0  0  0  0  0  0
  -22.7540  -29.4563   22.4881 C   0  0  0  0  0  0
  -18.0300  -28.1384   22.8467 C   0  0  0  0  0  0
  -24.1495  -36.7260   23.2644 C   0  0  0  0  0  0
  -25.9924  -30.7334   21.3826 C   0  0  0  0  0  0
  -26.0647  -29.3466   20.7286 C   0  0  0  0  0  0
  -27.2332  -28.5021   20.7298 C   0  0  0  0  0  0
  -26.0176  -26.8111   19.5058 C   0  0  0  0  0  0
  -24.8750  -27.6393   19.4876 C   0  0  0  0  0  0
  -23.6647  -29.7953   20.1551 C   0  0  0  0  0  0
  -25.4125  -36.3039   24.0317 C   0  0  1  0  0  0
  -20.5906  -28.3711   23.1228 C   0  0  2  0  0  0
  -20.6783  -26.9414   22.5396 C   0  0  0  0  0  0
  -19.5768  -26.6373   21.5195 C   0  0  0  0  0  0
  -18.1944  -26.7926   22.1606 C   0  0  0  0  0  0
  -19.1554  -28.8862   23.2838 C   0  0  0  0  0  0
  -18.9485  -30.1459   23.8869 C   0  0  0  0  0  0
  -17.6482  -30.6589   24.0550 C   0  0  0  0  0  0
  -25.9072  -34.9416   23.5062 C   0  0  0  0  0  0
  -16.5368  -29.9081   23.6334 C   0  0  0  0  0  0
  -16.7284  -28.6496   23.0356 C   0  0  0  0  0  0
  -26.4527  -31.6567   25.0697 C   0  0  0  0  0  0
  -25.3723  -31.3759   26.1405 C   0  0  0  0  0  0
  -27.0390  -30.2972   24.6250 C   0  0  0  0  0  0
  -27.6054  -32.4336   25.7495 C   0  0  0  0  0  0
  -27.5570  -37.1791   24.8470 C   0  0  0  0  0  0
  -21.4239  -29.3047   22.3619 N   0  0  0  0  0  0
  -26.4291  -37.3747   23.9400 N   0  0  0  0  0  0
  -24.7099  -31.0370   22.0916 N   0  0  0  0  0  0
  -23.4195  -28.8110   23.3022 O   0  0  0  0  0  0
  -28.2793  -26.2163   20.1823 O   0  0  0  0  0  0
  -26.5642  -34.8915   22.4631 O   0  0  0  0  0  0
  -23.5527  -32.1331   23.7160 O   0  0  0  0  0  0
  -31.1824  -18.1401   20.5066 C   0  0  0  0  0  0
  -29.9990  -17.4313   20.5168 C   0  0  0  0  0  0
  -29.6314  -19.7572   20.4239 C   0  0  0  0  0  0
  -27.8373  -22.0173   20.2766 C   0  0  0  0  0  0
  -29.8166  -22.4080   20.4395 C   0  0  0  0  0  0
  -28.6023  -23.3451   19.9601 C   0  0  2  0  0  0
  -25.9547  -20.4348   20.6853 C   0  0  0  0  0  0
  -28.0301  -24.7592   20.6316 C   0  0  0  0  0  0
  -30.9549  -19.5346   20.4550 N   0  0  0  0  0  0
  -29.0208  -21.1518   20.3082 N   0  0  0  0  0  0
  -29.7258  -16.0289   20.5783 N   0  0  0  0  0  0
  -26.5232  -21.7596   20.4109 N   0  3  0  0  0  0
  -28.9996  -18.4875   20.4651 O   0  0  0  0  0  0
  -31.4770  -12.7056   19.1806 H   0  0  0  0  0  0
  -30.4307  -11.5825   20.0034 H   0  0  0  0  0  0
  -29.8271  -11.7302   17.5646 H   0  0  0  0  0  0
  -29.6199  -13.4583   17.7005 H   0  0  0  0  0  0
  -27.9330  -11.2746   18.9568 H   0  0  0  0  0  0
  -27.3883  -12.4705   17.8110 H   0  0  0  0  0  0
  -27.6089  -14.2477   19.4341 H   0  0  0  0  0  0
  -28.7460  -12.2345   21.4344 H   0  0  0  0  0  0
  -28.3855  -13.9077   21.7811 H   0  0  0  0  0  0
  -25.2758   -9.5682   22.4752 H   0  0  0  0  0  0
  -23.9991   -7.4636   22.7481 H   0  0  0  0  0  0
  -21.0833   -8.8765   19.8955 H   0  0  0  0  0  0
  -22.3686  -10.9659   19.6160 H   0  0  0  0  0  0
  -21.2006   -7.6140   23.9702 H   0  0  0  0  0  0
  -21.1482   -6.0513   25.9066 H   0  0  0  0  0  0
  -22.0604   -2.7599   23.2844 H   0  0  0  0  0  0
  -22.4072  -11.9851   22.4796 H   0  0  0  0  0  0
  -21.1086  -13.1226   22.2652 H   0  0  0  0  0  0
  -24.6395  -15.8384   20.5149 H   0  0  0  0  0  0
  -26.2455  -15.6311   20.0353 H   0  0  0  0  0  0
  -26.7248  -32.5334   23.0994 H   0  0  0  0  0  0
  -25.0126  -33.9627   25.0357 H   0  0  0  0  0  0
  -22.7411  -31.2923   21.3823 H   0  0  0  0  0  0
  -23.3755  -35.9594   23.3322 H   0  0  0  0  0  0
  -24.3574  -36.8872   22.2053 H   0  0  0  0  0  0
  -23.7257  -37.6463   23.6668 H   0  0  0  0  0  0
  -26.1390  -31.4880   20.6089 H   0  0  0  0  0  0
  -26.8653  -30.7849   22.0213 H   0  0  0  0  0  0
  -28.1345  -28.8454   21.2191 H   0  0  0  0  0  0
  -25.9497  -25.8502   19.0161 H   0  0  0  0  0  0
  -23.9781  -27.2891   18.9939 H   0  0  0  0  0  0
  -23.7987  -30.5688   19.3974 H   0  0  0  0  0  0
  -22.7799  -29.2350   19.8476 H   0  0  0  0  0  0
  -25.1309  -36.1871   25.0808 H   0  0  0  0  0  0
  -20.9991  -28.3321   24.1355 H   0  0  0  0  0  0
  -20.5674  -26.2332   23.3623 H   0  0  0  0  0  0
  -21.6653  -26.7423   22.1198 H   0  0  0  0  0  0
  -19.6929  -25.6276   21.1247 H   0  0  0  0  0  0
  -19.6713  -27.3175   20.6718 H   0  0  0  0  0  0
  -17.4210  -26.6667   21.4018 H   0  0  0  0  0  0
  -18.0337  -26.0070   22.9010 H   0  0  0  0  0  0
  -19.7967  -30.7258   24.2245 H   0  0  0  0  0  0
  -17.5050  -31.6277   24.5150 H   0  0  0  0  0  0
  -15.5372  -30.2975   23.7683 H   0  0  0  0  0  0
  -15.8685  -28.0812   22.7086 H   0  0  0  0  0  0
  -24.5906  -30.7102   25.7739 H   0  0  0  0  0  0
  -24.8913  -32.2945   26.4772 H   0  0  0  0  0  0
  -25.8014  -30.8978   27.0223 H   0  0  0  0  0  0
  -26.2995  -29.6702   24.1257 H   0  0  0  0  0  0
  -27.4023  -29.7261   25.4807 H   0  0  0  0  0  0
  -27.8896  -30.4220   23.9543 H   0  0  0  0  0  0
  -27.2630  -33.3656   26.2007 H   0  0  0  0  0  0
  -28.3901  -32.6866   25.0352 H   0  0  0  0  0  0
  -28.0675  -31.8504   26.5472 H   0  0  0  0  0  0
  -28.2592  -38.0081   24.7475 H   0  0  0  0  0  0
  -28.1057  -36.2601   24.6346 H   0  0  0  0  0  0
  -27.2278  -37.1489   25.8874 H   0  0  0  0  0  0
  -20.9453  -29.8786   21.6821 H   0  0  0  0  0  0
  -26.0166  -38.2819   24.1400 H   0  0  0  0  0  0
  -32.1912  -17.7525   20.5412 H   0  0  0  0  0  0
  -30.1020  -22.5768   21.4780 H   0  0  0  0  0  0
  -30.6847  -22.4392   19.7811 H   0  0  0  0  0  0
  -28.6284  -23.4379   18.8746 H   0  0  0  0  0  0
  -24.8868  -20.5163   20.8909 H   0  0  0  0  0  0
  -26.4324  -19.9767   21.5510 H   0  0  0  0  0  0
  -26.0849  -19.7730   19.8283 H   0  0  0  0  0  0
  -28.3391  -24.7533   21.6767 H   0  0  0  0  0  0
  -26.9499  -24.6450   20.7080 H   0  0  0  0  0  0
  -28.7539  -15.8011   20.7181 H   0  0  0  0  0  0
  -25.8647  -22.5205   20.3139 H   0  0  0  0  0  0
  1 25  1  0  0  0
  1 30  2  0  0  0
  1 81  1  0  0  0
  2  3  1  0  0  0
  2 25  1  0  0  0
  2 84  1  0  0  0
  2 85  1  0  0  0
  3  4  1  0  0  0
  3 86  1  0  0  0
  3 87  1  0  0  0
  4  5  1  0  0  0
  4 88  1  0  0  0
  4 89  1  0  0  0
  5  6  1  0  0  0
  5 26  1  0  0  0
  5 90  1  0  0  0
  6 25  1  0  0  0
  6 91  1  0  0  0
  6 92  1  0  0  0
  7  8  2  0  0  0
  7 26  1  0  0  0
  7 29  1  0  0  0
  8  9  1  0  0  0
  8 22  1  0  0  0
  9 10  1  0  0  0
  9 27  2  0  0  0
 10 11  2  0  0  0
 10 15  1  0  0  0
 11 12  1  0  0  0
 11 93  1  0  0  0
 12 13  2  0  0  0
 12 94  1  0  0  0
 13 14  1  0  0  0
 13 31  1  0  0  0
 14 15  2  0  0  0
 14 95  1  0  0  0
 15 96  1  0  0  0
 16 17  2  0  0  0
 16 21  1  0  0  0
 16 31  1  0  0  0
 17 18  1  0  0  0
 17 97  1  0  0  0
 18 19  2  0  0  0
 18 98  1  0  0  0
 19 20  1  0  0  0
 19 24  1  0  0  0
 20 21  2  0  0  0
 20 99  1  0  0  0
 21 23  1  0  0  0
 22 28  1  0  0  0
 22 32  2  0  0  0
 26 27  1  0  0  0
 28100  1  0  0  0
 28101  1  0  0  0
 29102  1  0  0  0
 29103  1  0  0  0
 33 34  1  0  0  0
 33 66  1  0  0  0
 33 70  2  0  0  0
 34 36  1  0  0  0
 34 59  1  0  0  0
 34104  1  0  0  0
 35 44  2  0  0  0
 35 45  1  0  0  0
 35 68  1  0  0  0
 36 56  1  0  0  0
 36105  1  0  0  0
 37 39  1  0  0  0
 37 47  1  0  0  0
 37 66  1  0  0  0
 37106  1  0  0  0
 38 43  2  0  0  0
 38 46  1  0  0  0
 38 47  1  0  0  0
 39 64  1  0  0  0
 39 67  2  0  0  0
 40 52  1  0  0  0
 40 53  2  0  0  0
 40 58  1  0  0  0
 41107  1  0  0  0
 41108  1  0  0  0
 41109  1  0  0  0
 41 48  1  0  0  0
 42 43  1  0  0  0
 42 66  1  0  0  0
 42110  1  0  0  0
 42111  1  0  0  0
 43 44  1  0  0  0
 44112  1  0  0  0
 45 46  2  0  0  0
 45113  1  0  0  0
 46114  1  0  0  0
 47115  1  0  0  0
 47116  1  0  0  0
 48 56  1  0  0  0
 48 65  1  0  0  0
 48117  1  0  0  0
 49 50  1  0  0  0
 49 53  1  0  0  0
 49 64  1  0  0  0
 49118  1  0  0  0
 50 51  1  0  0  0
 50119  1  0  0  0
 50120  1  0  0  0
 51 52  1  0  0  0
 51121  1  0  0  0
 51122  1  0  0  0
 52123  1  0  0  0
 52124  1  0  0  0
 53 54  1  0  0  0
 54 55  2  0  0  0
 54125  1  0  0  0
 55 57  1  0  0  0
 55126  1  0  0  0
 56 69  2  0  0  0
 57 58  2  0  0  0
 57127  1  0  0  0
 58128  1  0  0  0
 59 60  1  0  0  0
 59 61  1  0  0  0
 59 62  1  0  0  0
 60129  1  0  0  0
 60130  1  0  0  0
 60131  1  0  0  0
 61132  1  0  0  0
 61133  1  0  0  0
 61134  1  0  0  0
 62135  1  0  0  0
 62136  1  0  0  0
 62137  1  0  0  0
 63 65  1  0  0  0
 63138  1  0  0  0
 63139  1  0  0  0
 63140  1  0  0  0
 64141  1  0  0  0
 65142  1  0  0  0
 68 78  1  0  0  0
 71 72  2  0  0  0
 71 79  1  0  0  0
 71143  1  0  0  0
 72 81  1  0  0  0
 72 83  1  0  0  0
 73 79  2  0  0  0
 73 80  1  0  0  0
 73 83  1  0  0  0
 74 76  1  0  0  0
 74 80  1  0  0  0
 74 82  2  0  0  0
 75 76  1  0  0  0
 75 80  1  0  0  0
 75144  1  0  0  0
 75145  1  0  0  0
 76 78  1  0  0  0
 76146  1  0  0  0
 77 82  1  0  0  0
 77147  1  0  0  0
 77148  1  0  0  0
 77149  1  0  0  0
 78150  1  0  0  0
 78151  1  0  0  0
 81152  1  0  0  0
 82153  1  0  0  0
M  CHG  1  82   1
M  ISO  4   1 100  68 101  78 101  81 100
M  END
> <chiral flag>
0

> <version>
0

> <s_m_source_file>
/data/baiqing/PycharmProjects/Reinvent-master-3.2/result/LINK_invent/BTK/process_docking_weight1_custom_product_contain_oxygen_bond_distance_aromatic_linkinvent_7_9_3/rearranged_h_0156.sdf

> <i_m_source_file_index>
48

> <r_mmod_Potential_Energy-OPLS-2005>
285.727447509766

> <r_mmod_Stretch_Energy-OPLS-2005>
188.404541015625

> <r_mmod_Bend_Energy-OPLS-2005>
285.911346435547

> <r_mmod_Torsional_Energy-OPLS-2005>
238.683654785156

> <r_mmod_Improper_Torsional_Energy-OPLS-2005>
5.54022359848022

> <r_mmod_Van_der_Waal_Energy-OPLS-2005>
108.034591674805

> <r_mmod_Electrostatic_Energy-OPLS-2005>
-252.611968994141

> <r_mmod_Solvation_Energy-OPLS-2005>
-441.582611083984

> <b_mmod_Minimization_Converged-OPLS-2005>
0

> <r_mmod_RMS_Derivative-OPLS-2005>
1.40803468227386

$$$$
48
                    3D
 Structure written by MMmdl.
154163  0  0  1  0            999 V2000
  -30.5958  -14.7464   20.4612 C   0  0  0  0  0  0
  -30.4380  -12.4542   19.4661 C   0  0  0  0  0  0
  -29.5082  -12.4945   18.2328 C   0  0  0  0  0  0
  -28.0359  -12.3126   18.6530 C   0  0  0  0  0  0
  -27.6399  -13.2219   19.8463 C   0  0  2  0  0  0
  -28.6864  -13.1580   20.9799 C   0  0  0  0  0  0
  -25.2510  -13.8180   20.5682 C   0  0  0  0  0  0
  -24.1798  -13.0435   20.9215 C   0  0  0  0  0  0
  -24.6381  -11.6911   20.8763 C   0  0  0  0  0  0
  -23.9058  -10.4291   21.0423 C   0  0  0  0  0  0
  -24.3610   -9.4206   21.9197 C   0  0  0  0  0  0
  -23.6289   -8.2241   22.0759 C   0  0  0  0  0  0
  -22.4274   -8.0280   21.3547 C   0  0  0  0  0  0
  -21.9909   -9.0255   20.4650 C   0  0  0  0  0  0
  -22.7235  -10.2137   20.3066 C   0  0  0  0  0  0
  -21.6849   -6.0736   22.5282 C   0  0  0  0  0  0
  -21.4009   -6.5639   23.8215 C   0  0  0  0  0  0
  -21.3658   -5.6794   24.9180 C   0  0  0  0  0  0
  -21.6044   -4.3057   24.7229 C   0  0  0  0  0  0
  -21.8819   -3.8147   23.4349 C   0  0  0  0  0  0
  -21.9192   -4.6964   22.3405 C   0  0  0  0  0  0
  -22.7823  -13.5230   21.1870 C   0  0  0  0  0  0
  -22.1663   -4.2148   21.0981 F   0  0  0  0  0  0
  -21.5632   -3.4540   25.7741 F   0  0  0  0  0  0
  -29.9851  -13.5141   20.3936 N   0  0  0  0  0  0
  -26.2923  -12.9363   20.3267 N   0  0  0  0  0  0
  -25.9304  -11.6520   20.5765 N   0  0  0  0  0  0
  -22.0466  -12.8225   22.0430 N   0  0  0  0  0  0
  -25.4184  -15.1899   20.4059 N   0  0  0  0  0  0
  -31.7977  -14.8460   20.1896 O   0  0  0  0  0  0
  -21.6638   -6.8876   21.4242 O   0  0  0  0  0  0
  -22.3516  -14.5542   20.6723 O   0  0  0  0  0  0
  -24.6320  -31.8545   23.1967 C   0  0  0  0  0  0
  -25.9144  -32.4745   23.8316 C   0  0  1  0  0  0
  -27.2157  -27.2581   20.1361 C   0  0  0  0  0  0
  -25.5936  -33.8542   24.2238 N   0  0  0  0  0  0
  -23.4289  -30.4764   21.5403 C   0  0  2  0  0  0
  -24.8773  -28.9222   20.1096 C   0  0  0  0  0  0
  -22.7511  -29.4590   22.4901 C   0  0  0  0  0  0
  -18.0295  -28.1384   22.8489 C   0  0  0  0  0  0
  -24.1484  -36.7271   23.2638 C   0  0  0  0  0  0
  -25.9754  -30.7670   21.3786 C   0  0  0  0  0  0
  -26.0490  -29.3895   20.7204 C   0  0  0  0  0  0
  -27.2243  -28.5695   20.7209 C   0  0  0  0  0  0
  -26.0259  -26.8626   19.4892 C   0  0  0  0  0  0
  -24.8704  -27.6675   19.4818 C   0  0  0  0  0  0
  -23.6473  -29.8090   20.1567 C   0  0  0  0  0  0
  -25.4111  -36.3058   24.0322 C   0  0  1  0  0  0
  -20.5900  -28.3688   23.1266 C   0  0  2  0  0  0
  -20.6777  -26.9403   22.5410 C   0  0  0  0  0  0
  -19.5748  -26.6380   21.5216 C   0  0  0  0  0  0
  -18.1926  -26.7928   22.1632 C   0  0  0  0  0  0
  -19.1549  -28.8858   23.2864 C   0  0  0  0  0  0
  -18.9478  -30.1463   23.8875 C   0  0  0  0  0  0
  -17.6474  -30.6586   24.0560 C   0  0  0  0  0  0
  -25.9065  -34.9433   23.5085 C   0  0  0  0  0  0
  -16.5362  -29.9079   23.6343 C   0  0  0  0  0  0
  -16.7281  -28.6499   23.0360 C   0  0  0  0  0  0
  -26.4508  -31.6581   25.0717 C   0  0  0  0  0  0
  -25.3722  -31.3741   26.1433 C   0  0  0  0  0  0
  -27.0373  -30.2990   24.6235 C   0  0  0  0  0  0
  -27.6049  -32.4343   25.7491 C   0  0  0  0  0  0
  -27.5578  -37.1771   24.8458 C   0  0  0  0  0  0
  -21.4218  -29.3027   22.3649 N   0  0  0  0  0  0
  -26.4277  -37.3765   23.9425 N   0  0  0  0  0  0
  -24.6974  -31.0517   22.0943 N   0  0  0  0  0  0
  -23.4211  -28.8134   23.2999 O   0  0  0  0  0  0
  -28.2903  -26.3422   20.1677 O   0  0  0  0  0  0
  -26.5651  -34.8912   22.4664 O   0  0  0  0  0  0
  -23.5473  -32.1370   23.7271 O   0  0  0  0  0  0
  -29.1426  -18.3869   20.1870 C   0  0  0  0  0  0
  -30.0340  -17.3113   20.6736 C   0  0  0  0  0  0
  -29.5669  -19.6987   20.4642 C   0  0  0  0  0  0
  -28.7566  -23.6754   20.0831 C   0  0  0  0  0  0
  -28.0516  -21.5021   22.7772 C   0  0  0  0  0  0
  -27.3218  -21.9445   21.5067 C   0  0  0  0  0  0
  -29.2701  -22.2769   22.2674 C   0  0  0  0  0  0
  -28.6850  -22.2456   20.8336 C   0  0  0  0  0  0
  -27.9900  -24.9574   20.6865 C   0  0  0  0  0  0
  -31.0982  -17.7717   21.3014 N   0  0  0  0  0  0
  -29.7668  -15.8577   20.5526 N   0  0  0  0  0  0
  -29.0984  -21.0113   20.0225 N   0  0  0  0  0  0
  -29.3755  -23.8378   19.0266 O   0  0  0  0  0  0
  -31.0706  -19.4743   21.3249 S   0  0  0  0  0  0
  -31.4761  -12.5904   19.1584 H   0  0  0  0  0  0
  -30.3946  -11.4791   19.9540 H   0  0  0  0  0  0
  -29.7915  -11.7180   17.5209 H   0  0  0  0  0  0
  -29.6240  -13.4463   17.7119 H   0  0  0  0  0  0
  -27.9024  -11.2655   18.9297 H   0  0  0  0  0  0
  -27.3733  -12.4881   17.8049 H   0  0  0  0  0  0
  -27.6322  -14.2389   19.4549 H   0  0  0  0  0  0
  -28.7249  -12.1597   21.4187 H   0  0  0  0  0  0
  -28.4215  -13.8384   21.7909 H   0  0  0  0  0  0
  -25.2754   -9.5686   22.4774 H   0  0  0  0  0  0
  -24.0000   -7.4630   22.7474 H   0  0  0  0  0  0
  -21.0843   -8.8774   19.8948 H   0  0  0  0  0  0
  -22.3697  -10.9679   19.6176 H   0  0  0  0  0  0
  -21.1996   -7.6145   23.9719 H   0  0  0  0  0  0
  -21.1482   -6.0522   25.9081 H   0  0  0  0  0  0
  -22.0597   -2.7607   23.2852 H   0  0  0  0  0  0
  -22.4074  -11.9881   22.4811 H   0  0  0  0  0  0
  -21.1087  -13.1263   22.2647 H   0  0  0  0  0  0
  -24.6390  -15.8324   20.4968 H   0  0  0  0  0  0
  -26.2486  -15.6313   20.0346 H   0  0  0  0  0  0
  -26.7215  -32.5399   23.1061 H   0  0  0  0  0  0
  -25.0023  -33.9670   25.0343 H   0  0  0  0  0  0
  -22.7246  -31.2976   21.3935 H   0  0  0  0  0  0
  -23.3754  -35.9593   23.3281 H   0  0  0  0  0  0
  -24.3566  -36.8929   22.2057 H   0  0  0  0  0  0
  -23.7232  -37.6456   23.6687 H   0  0  0  0  0  0
  -26.1207  -31.5303   20.6131 H   0  0  0  0  0  0
  -26.8489  -30.8111   22.0167 H   0  0  0  0  0  0
  -28.1214  -28.9180   21.2134 H   0  0  0  0  0  0
  -25.9775  -25.9039   18.9932 H   0  0  0  0  0  0
  -23.9736  -27.3092   18.9943 H   0  0  0  0  0  0
  -23.7672  -30.5845   19.3993 H   0  0  0  0  0  0
  -22.7662  -29.2397   19.8553 H   0  0  0  0  0  0
  -25.1288  -36.1882   25.0812 H   0  0  0  0  0  0
  -20.9995  -28.3283   24.1385 H   0  0  0  0  0  0
  -20.5696  -26.2294   23.3616 H   0  0  0  0  0  0
  -21.6637  -26.7432   22.1189 H   0  0  0  0  0  0
  -19.6903  -25.6293   21.1242 H   0  0  0  0  0  0
  -19.6683  -27.3195   20.6749 H   0  0  0  0  0  0
  -17.4196  -26.6685   21.4032 H   0  0  0  0  0  0
  -18.0312  -26.0067   22.9026 H   0  0  0  0  0  0
  -19.7957  -30.7281   24.2227 H   0  0  0  0  0  0
  -17.5033  -31.6267   24.5162 H   0  0  0  0  0  0
  -15.5362  -30.2970   23.7688 H   0  0  0  0  0  0
  -15.8681  -28.0818   22.7080 H   0  0  0  0  0  0
  -24.5879  -30.7121   25.7747 H   0  0  0  0  0  0
  -24.8934  -32.2920   26.4858 H   0  0  0  0  0  0
  -25.8019  -30.8904   27.0214 H   0  0  0  0  0  0
  -26.2979  -29.6703   24.1260 H   0  0  0  0  0  0
  -27.4045  -29.7287   25.4780 H   0  0  0  0  0  0
  -27.8855  -30.4248   23.9498 H   0  0  0  0  0  0
  -27.2638  -33.3639   26.2055 H   0  0  0  0  0  0
  -28.3853  -32.6918   25.0322 H   0  0  0  0  0  0
  -28.0720  -31.8489   26.5423 H   0  0  0  0  0  0
  -28.2555  -38.0108   24.7561 H   0  0  0  0  0  0
  -28.1120  -36.2643   24.6213 H   0  0  0  0  0  0
  -27.2307  -37.1327   25.8862 H   0  0  0  0  0  0
  -20.9415  -29.8735   21.6832 H   0  0  0  0  0  0
  -26.0152  -38.2824   24.1478 H   0  0  0  0  0  0
  -28.2458  -18.1520   19.6325 H   0  0  0  0  0  0
  -28.2105  -20.4241   22.8225 H   0  0  0  0  0  0
  -27.6237  -21.8856   23.7047 H   0  0  0  0  0  0
  -26.7032  -22.8220   21.6963 H   0  0  0  0  0  0
  -26.7268  -21.1611   21.0346 H   0  0  0  0  0  0
  -30.2326  -21.7978   22.4202 H   0  0  0  0  0  0
  -29.2997  -23.2795   22.6974 H   0  0  0  0  0  0
  -28.1688  -24.9759   21.7607 H   0  0  0  0  0  0
  -26.9275  -24.7476   20.5786 H   0  0  0  0  0  0
  -28.7897  -15.6182   20.5384 H   0  0  0  0  0  0
  -28.6285  -20.9912   19.1221 H   0  0  0  0  0  0
  1 25  1  0  0  0
  1 30  2  0  0  0
  1 81  1  0  0  0
  2  3  1  0  0  0
  2 25  1  0  0  0
  2 85  1  0  0  0
  2 86  1  0  0  0
  3  4  1  0  0  0
  3 87  1  0  0  0
  3 88  1  0  0  0
  4  5  1  0  0  0
  4 89  1  0  0  0
  4 90  1  0  0  0
  5  6  1  0  0  0
  5 26  1  0  0  0
  5 91  1  0  0  0
  6 25  1  0  0  0
  6 92  1  0  0  0
  6 93  1  0  0  0
  7  8  2  0  0  0
  7 26  1  0  0  0
  7 29  1  0  0  0
  8  9  1  0  0  0
  8 22  1  0  0  0
  9 10  1  0  0  0
  9 27  2  0  0  0
 10 11  2  0  0  0
 10 15  1  0  0  0
 11 12  1  0  0  0
 11 94  1  0  0  0
 12 13  2  0  0  0
 12 95  1  0  0  0
 13 14  1  0  0  0
 13 31  1  0  0  0
 14 15  2  0  0  0
 14 96  1  0  0  0
 15 97  1  0  0  0
 16 17  2  0  0  0
 16 21  1  0  0  0
 16 31  1  0  0  0
 17 18  1  0  0  0
 17 98  1  0  0  0
 18 19  2  0  0  0
 18 99  1  0  0  0
 19 20  1  0  0  0
 19 24  1  0  0  0
 20 21  2  0  0  0
 20100  1  0  0  0
 21 23  1  0  0  0
 22 28  1  0  0  0
 22 32  2  0  0  0
 26 27  1  0  0  0
 28101  1  0  0  0
 28102  1  0  0  0
 29103  1  0  0  0
 29104  1  0  0  0
 33 34  1  0  0  0
 33 66  1  0  0  0
 33 70  2  0  0  0
 34 36  1  0  0  0
 34 59  1  0  0  0
 34105  1  0  0  0
 35 44  2  0  0  0
 35 45  1  0  0  0
 35 68  1  0  0  0
 36 56  1  0  0  0
 36106  1  0  0  0
 37 39  1  0  0  0
 37 47  1  0  0  0
 37 66  1  0  0  0
 37107  1  0  0  0
 38 43  2  0  0  0
 38 46  1  0  0  0
 38 47  1  0  0  0
 39 64  1  0  0  0
 39 67  2  0  0  0
 40 52  1  0  0  0
 40 53  2  0  0  0
 40 58  1  0  0  0
 41108  1  0  0  0
 41109  1  0  0  0
 41110  1  0  0  0
 41 48  1  0  0  0
 42 43  1  0  0  0
 42 66  1  0  0  0
 42111  1  0  0  0
 42112  1  0  0  0
 43 44  1  0  0  0
 44113  1  0  0  0
 45 46  2  0  0  0
 45114  1  0  0  0
 46115  1  0  0  0
 47116  1  0  0  0
 47117  1  0  0  0
 48 56  1  0  0  0
 48 65  1  0  0  0
 48118  1  0  0  0
 49 50  1  0  0  0
 49 53  1  0  0  0
 49 64  1  0  0  0
 49119  1  0  0  0
 50 51  1  0  0  0
 50120  1  0  0  0
 50121  1  0  0  0
 51 52  1  0  0  0
 51122  1  0  0  0
 51123  1  0  0  0
 52124  1  0  0  0
 52125  1  0  0  0
 53 54  1  0  0  0
 54 55  2  0  0  0
 54126  1  0  0  0
 55 57  1  0  0  0
 55127  1  0  0  0
 56 69  2  0  0  0
 57 58  2  0  0  0
 57128  1  0  0  0
 58129  1  0  0  0
 59 60  1  0  0  0
 59 61  1  0  0  0
 59 62  1  0  0  0
 60130  1  0  0  0
 60131  1  0  0  0
 60132  1  0  0  0
 61133  1  0  0  0
 61134  1  0  0  0
 61135  1  0  0  0
 62136  1  0  0  0
 62137  1  0  0  0
 62138  1  0  0  0
 63 65  1  0  0  0
 63139  1  0  0  0
 63140  1  0  0  0
 63141  1  0  0  0
 64142  1  0  0  0
 65143  1  0  0  0
 68 79  1  0  0  0
 71 72  1  0  0  0
 71 73  2  0  0  0
 71144  1  0  0  0
 72 80  2  0  0  0
 72 81  1  0  0  0
 73 82  1  0  0  0
 73 84  1  0  0  0
 74 78  1  0  0  0
 74 79  1  0  0  0
 74 83  2  0  0  0
 75 76  1  0  0  0
 75 77  1  0  0  0
 75145  1  0  0  0
 75146  1  0  0  0
 76 78  1  0  0  0
 76147  1  0  0  0
 76148  1  0  0  0
 77 78  1  0  0  0
 77149  1  0  0  0
 77150  1  0  0  0
 78 82  1  0  0  0
 79151  1  0  0  0
 79152  1  0  0  0
 80 84  1  0  0  0
 81153  1  0  0  0
 82154  1  0  0  0
M  ISO  4   1 100  68 101  79 101  81 100
M  END
> <chiral flag>
0

> <version>
0

> <s_m_source_file>
/data/baiqing/PycharmProjects/Reinvent-master-3.2/result/LINK_invent/BTK/process_docking_weight1_custom_product_contain_oxygen_bond_distance_aromatic_linkinvent_7_9_3/rearranged_h_0156.sdf

> <i_m_source_file_index>
49

> <r_mmod_Potential_Energy-OPLS-2005>
236.957794189453

> <r_mmod_Stretch_Energy-OPLS-2005>
129.430221557617

> <r_mmod_Bend_Energy-OPLS-2005>
180.297409057617

> <r_mmod_Torsional_Energy-OPLS-2005>
282.602966308594

> <r_mmod_Improper_Torsional_Energy-OPLS-2005>
9.59489154815674

> <r_mmod_Van_der_Waal_Energy-OPLS-2005>
119.688545227051

> <r_mmod_Electrostatic_Energy-OPLS-2005>
-309.125152587891

> <r_mmod_Solvation_Energy-OPLS-2005>
-264.959747314453

> <b_mmod_Minimization_Converged-OPLS-2005>
0

> <r_mmod_RMS_Derivative-OPLS-2005>
1.34920227527618

$$$$
49
                    3D
 Structure written by MMmdl.
163172  0  0  1  0            999 V2000
  -30.6284  -14.7799   20.4231 C   0  0  0  0  0  0
  -30.4287  -12.4762   19.4869 C   0  0  0  0  0  0
  -29.5197  -12.5052   18.2397 C   0  0  0  0  0  0
  -28.0504  -12.3186   18.6575 C   0  0  0  0  0  0
  -27.6423  -13.2358   19.8432 C   0  0  2  0  0  0
  -28.6836  -13.2130   20.9845 C   0  0  0  0  0  0
  -25.2557  -13.8199   20.5756 C   0  0  0  0  0  0
  -24.1826  -13.0475   20.9242 C   0  0  0  0  0  0
  -24.6388  -11.6958   20.8769 C   0  0  0  0  0  0
  -23.9028  -10.4339   21.0404 C   0  0  0  0  0  0
  -24.3574   -9.4264   21.9205 C   0  0  0  0  0  0
  -23.6285   -8.2265   22.0753 C   0  0  0  0  0  0
  -22.4276   -8.0279   21.3512 C   0  0  0  0  0  0
  -21.9891   -9.0253   20.4620 C   0  0  0  0  0  0
  -22.7193  -10.2155   20.3052 C   0  0  0  0  0  0
  -21.6846   -6.0735   22.5307 C   0  0  0  0  0  0
  -21.4017   -6.5630   23.8254 C   0  0  0  0  0  0
  -21.3686   -5.6765   24.9201 C   0  0  0  0  0  0
  -21.6051   -4.3036   24.7229 C   0  0  0  0  0  0
  -21.8814   -3.8134   23.4353 C   0  0  0  0  0  0
  -21.9212   -4.6964   22.3427 C   0  0  0  0  0  0
  -22.7844  -13.5274   21.1841 C   0  0  0  0  0  0
  -22.1654   -4.2138   21.0996 F   0  0  0  0  0  0
  -21.5638   -3.4539   25.7757 F   0  0  0  0  0  0
  -29.9866  -13.5593   20.3987 N   0  0  0  0  0  0
  -26.2943  -12.9405   20.3234 N   0  0  0  0  0  0
  -25.9297  -11.6542   20.5679 N   0  0  0  0  0  0
  -22.0401  -12.8347   22.0415 N   0  0  0  0  0  0
  -25.4321  -15.1921   20.4224 N   0  0  0  0  0  0
  -31.8177  -14.8258   20.0882 O   0  0  0  0  0  0
  -21.6635   -6.8878   21.4248 O   0  0  0  0  0  0
  -22.3613  -14.5608   20.6695 O   0  0  0  0  0  0
  -24.6312  -31.8593   23.2035 C   0  0  0  0  0  0
  -25.9153  -32.4805   23.8375 C   0  0  1  0  0  0
  -27.2072  -27.2744   20.1823 C   0  0  0  0  0  0
  -25.6010  -33.8609   24.2321 N   0  0  0  0  0  0
  -23.4277  -30.4833   21.5412 C   0  0  2  0  0  0
  -24.8787  -28.9456   20.0946 C   0  0  0  0  0  0
  -22.7539  -29.4625   22.4885 C   0  0  0  0  0  0
  -18.0320  -28.1347   22.8511 C   0  0  0  0  0  0
  -24.1470  -36.7291   23.2616 C   0  0  0  0  0  0
  -25.9655  -30.7856   21.3732 C   0  0  0  0  0  0
  -26.0420  -29.4094   20.7199 C   0  0  0  0  0  0
  -27.2158  -28.5864   20.7512 C   0  0  0  0  0  0
  -26.0429  -26.8916   19.4803 C   0  0  0  0  0  0
  -24.8866  -27.6966   19.4477 C   0  0  0  0  0  0
  -23.6459  -29.8323   20.1470 C   0  0  0  0  0  0
  -25.4087  -36.3119   24.0321 C   0  0  1  0  0  0
  -20.5951  -28.3700   23.1259 C   0  0  2  0  0  0
  -20.6847  -26.9414   22.5407 C   0  0  0  0  0  0
  -19.5782  -26.6376   21.5245 C   0  0  0  0  0  0
  -18.1967  -26.7878   22.1666 C   0  0  0  0  0  0
  -19.1589  -28.8830   23.2865 C   0  0  0  0  0  0
  -18.9474  -30.1391   23.8926 C   0  0  0  0  0  0
  -17.6492  -30.6548   24.0579 C   0  0  0  0  0  0
  -25.9051  -34.9481   23.5117 C   0  0  0  0  0  0
  -16.5379  -29.9067   23.6326 C   0  0  0  0  0  0
  -16.7310  -28.6469   23.0382 C   0  0  0  0  0  0
  -26.4539  -31.6597   25.0741 C   0  0  0  0  0  0
  -25.3768  -31.3730   26.1475 C   0  0  0  0  0  0
  -27.0378  -30.3008   24.6157 C   0  0  0  0  0  0
  -27.6117  -32.4330   25.7496 C   0  0  0  0  0  0
  -27.5575  -37.1805   24.8435 C   0  0  0  0  0  0
  -21.4262  -29.3064   22.3685 N   0  0  0  0  0  0
  -26.4256  -37.3820   23.9429 N   0  0  0  0  0  0
  -24.6930  -31.0582   22.0992 N   0  0  0  0  0  0
  -23.4300  -28.8160   23.2969 O   0  0  0  0  0  0
  -28.2270  -26.3120   20.3727 O   0  0  0  0  0  0
  -26.5568  -34.8957   22.4651 O   0  0  0  0  0  0
  -23.5448  -32.1363   23.7329 O   0  0  0  0  0  0
  -31.1702  -18.9112   18.5611 C   0  0  0  0  0  0
  -30.7246  -20.0566   19.2546 C   0  0  0  0  0  0
  -30.9123  -17.6050   19.0357 C   0  0  0  0  0  0
  -29.7082  -18.5767   20.9040 C   0  0  0  0  0  0
  -29.9800  -19.9432   20.4489 C   0  0  0  0  0  0
  -30.1848  -17.3726   20.2293 C   0  0  0  0  0  0
  -30.7874  -23.0885   22.7859 C   0  0  0  0  0  0
  -30.9555  -21.8106   21.9363 C   0  0  0  0  0  0
  -30.1564  -24.2385   21.9811 C   0  0  0  0  0  0
  -29.6548  -21.3020   21.2467 C   0  0  1  0  0  0
  -28.8162  -23.7758   21.3902 C   0  0  1  0  0  0
  -27.0478  -25.3880   22.3008 C   0  0  0  0  0  0
  -27.7982  -24.9917   20.9867 C   0  0  2  0  0  0
  -29.9134  -15.9564   20.6528 N   0  0  0  0  0  0
  -28.9764  -22.4975   20.5442 N   0  3  0  0  0  0
  -31.4727  -12.5842   19.1849 H   0  0  0  0  0  0
  -30.3640  -11.5107   19.9895 H   0  0  0  0  0  0
  -29.8085  -11.7134   17.5439 H   0  0  0  0  0  0
  -29.6454  -13.4463   17.7068 H   0  0  0  0  0  0
  -27.9361  -11.2713   18.9407 H   0  0  0  0  0  0
  -27.3876  -12.4641   17.8029 H   0  0  0  0  0  0
  -27.6260  -14.2490   19.4417 H   0  0  0  0  0  0
  -28.7281  -12.2322   21.4588 H   0  0  0  0  0  0
  -28.4094  -13.9318   21.7595 H   0  0  0  0  0  0
  -25.2706   -9.5757   22.4802 H   0  0  0  0  0  0
  -24.0003   -7.4655   22.7491 H   0  0  0  0  0  0
  -21.0806   -8.8724   19.8970 H   0  0  0  0  0  0
  -22.3604  -10.9658   19.6159 H   0  0  0  0  0  0
  -21.1979   -7.6136   23.9739 H   0  0  0  0  0  0
  -21.1517   -6.0501   25.9092 H   0  0  0  0  0  0
  -22.0570   -2.7590   23.2850 H   0  0  0  0  0  0
  -22.3831  -11.9998   22.4925 H   0  0  0  0  0  0
  -21.0999  -13.1453   22.2442 H   0  0  0  0  0  0
  -24.6805  -15.8568   20.5718 H   0  0  0  0  0  0
  -26.2911  -15.6336   20.1206 H   0  0  0  0  0  0
  -26.7295  -32.5524   23.1202 H   0  0  0  0  0  0
  -25.0370  -33.9699   25.0627 H   0  0  0  0  0  0
  -22.7187  -31.3002   21.4066 H   0  0  0  0  0  0
  -23.3792  -35.9571   23.3202 H   0  0  0  0  0  0
  -24.3570  -36.8934   22.2045 H   0  0  0  0  0  0
  -23.7166  -37.6453   23.6664 H   0  0  0  0  0  0
  -26.0914  -31.5478   20.6026 H   0  0  0  0  0  0
  -26.8454  -30.8412   21.9989 H   0  0  0  0  0  0
  -28.0901  -28.9235   21.2900 H   0  0  0  0  0  0
  -26.0044  -25.9277   18.9986 H   0  0  0  0  0  0
  -24.0087  -27.3434   18.9210 H   0  0  0  0  0  0
  -23.7675  -30.6191   19.3994 H   0  0  0  0  0  0
  -22.7647  -29.2674   19.8436 H   0  0  0  0  0  0
  -25.1287  -36.1953   25.0813 H   0  0  0  0  0  0
  -21.0077  -28.3279   24.1374 H   0  0  0  0  0  0
  -20.5685  -26.2305   23.3586 H   0  0  0  0  0  0
  -21.6726  -26.7446   22.1244 H   0  0  0  0  0  0
  -19.6862  -25.6281   21.1281 H   0  0  0  0  0  0
  -19.6636  -27.3216   20.6788 H   0  0  0  0  0  0
  -17.4229  -26.6600   21.4065 H   0  0  0  0  0  0
  -18.0372  -26.0013   22.9046 H   0  0  0  0  0  0
  -19.7973  -30.7171   24.2304 H   0  0  0  0  0  0
  -17.5091  -31.6197   24.5244 H   0  0  0  0  0  0
  -15.5392  -30.3021   23.7667 H   0  0  0  0  0  0
  -15.8677  -28.0819   22.7183 H   0  0  0  0  0  0
  -24.5937  -30.7067   25.7829 H   0  0  0  0  0  0
  -24.8985  -32.2902   26.4914 H   0  0  0  0  0  0
  -25.8079  -30.8912   27.0249 H   0  0  0  0  0  0
  -26.2943  -29.6756   24.1177 H   0  0  0  0  0  0
  -27.4118  -29.7260   25.4642 H   0  0  0  0  0  0
  -27.8798  -30.4314   23.9346 H   0  0  0  0  0  0
  -27.2727  -33.3621   26.2078 H   0  0  0  0  0  0
  -28.3906  -32.6847   25.0302 H   0  0  0  0  0  0
  -28.0808  -31.8437   26.5377 H   0  0  0  0  0  0
  -28.2597  -38.0116   24.7657 H   0  0  0  0  0  0
  -28.1101  -36.2704   24.6107 H   0  0  0  0  0  0
  -27.2313  -37.1239   25.8826 H   0  0  0  0  0  0
  -20.9401  -29.8914   21.7048 H   0  0  0  0  0  0
  -26.0129  -38.2858   24.1574 H   0  0  0  0  0  0
  -31.7459  -19.0337   17.6491 H   0  0  0  0  0  0
  -30.9857  -21.0315   18.8633 H   0  0  0  0  0  0
  -31.2802  -16.7758   18.4486 H   0  0  0  0  0  0
  -29.1569  -18.4531   21.8245 H   0  0  0  0  0  0
  -31.7521  -23.4044   23.1895 H   0  0  0  0  0  0
  -30.1662  -22.8802   23.6604 H   0  0  0  0  0  0
  -31.3534  -21.0234   22.5739 H   0  0  0  0  0  0
  -31.7182  -21.9961   21.1794 H   0  0  0  0  0  0
  -30.8260  -24.5822   21.1937 H   0  0  0  0  0  0
  -29.9914  -25.0873   22.6481 H   0  0  0  0  0  0
  -28.9709  -21.0024   22.0429 H   0  0  0  0  0  0
  -28.3189  -23.3121   22.2425 H   0  0  0  0  0  0
  -27.6439  -26.0648   22.9121 H   0  0  0  0  0  0
  -26.7740  -24.5418   22.9346 H   0  0  0  0  0  0
  -26.1137  -25.9046   22.0977 H   0  0  0  0  0  0
  -27.0519  -24.5312   20.3380 H   0  0  0  0  0  0
  -29.0051  -15.8055   21.0687 H   0  0  0  0  0  0
  -28.0603  -22.1951   20.2474 H   0  0  0  0  0  0
  -29.4900  -22.7316   19.7096 H   0  0  0  0  0  0
  1 25  1  0  0  0
  1 30  2  0  0  0
  1 84  1  0  0  0
  2  3  1  0  0  0
  2 25  1  0  0  0
  2 86  1  0  0  0
  2 87  1  0  0  0
  3  4  1  0  0  0
  3 88  1  0  0  0
  3 89  1  0  0  0
  4  5  1  0  0  0
  4 90  1  0  0  0
  4 91  1  0  0  0
  5  6  1  0  0  0
  5 26  1  0  0  0
  5 92  1  0  0  0
  6 25  1  0  0  0
  6 93  1  0  0  0
  6 94  1  0  0  0
  7  8  2  0  0  0
  7 26  1  0  0  0
  7 29  1  0  0  0
  8  9  1  0  0  0
  8 22  1  0  0  0
  9 10  1  0  0  0
  9 27  2  0  0  0
 10 11  2  0  0  0
 10 15  1  0  0  0
 11 12  1  0  0  0
 11 95  1  0  0  0
 12 13  2  0  0  0
 12 96  1  0  0  0
 13 14  1  0  0  0
 13 31  1  0  0  0
 14 15  2  0  0  0
 14 97  1  0  0  0
 15 98  1  0  0  0
 16 17  2  0  0  0
 16 21  1  0  0  0
 16 31  1  0  0  0
 17 18  1  0  0  0
 17 99  1  0  0  0
 18 19  2  0  0  0
 18100  1  0  0  0
 19 20  1  0  0  0
 19 24  1  0  0  0
 20 21  2  0  0  0
 20101  1  0  0  0
 21 23  1  0  0  0
 22 28  1  0  0  0
 22 32  2  0  0  0
 26 27  1  0  0  0
 28102  1  0  0  0
 28103  1  0  0  0
 29104  1  0  0  0
 29105  1  0  0  0
 33 34  1  0  0  0
 33 66  1  0  0  0
 33 70  2  0  0  0
 34 36  1  0  0  0
 34 59  1  0  0  0
 34106  1  0  0  0
 35 44  2  0  0  0
 35 45  1  0  0  0
 35 68  1  0  0  0
 36 56  1  0  0  0
 36107  1  0  0  0
 37 39  1  0  0  0
 37 47  1  0  0  0
 37 66  1  0  0  0
 37108  1  0  0  0
 38 43  2  0  0  0
 38 46  1  0  0  0
 38 47  1  0  0  0
 39 64  1  0  0  0
 39 67  2  0  0  0
 40 52  1  0  0  0
 40 53  2  0  0  0
 40 58  1  0  0  0
 41109  1  0  0  0
 41110  1  0  0  0
 41111  1  0  0  0
 41 48  1  0  0  0
 42 43  1  0  0  0
 42 66  1  0  0  0
 42112  1  0  0  0
 42113  1  0  0  0
 43 44  1  0  0  0
 44114  1  0  0  0
 45 46  2  0  0  0
 45115  1  0  0  0
 46116  1  0  0  0
 47117  1  0  0  0
 47118  1  0  0  0
 48 56  1  0  0  0
 48 65  1  0  0  0
 48119  1  0  0  0
 49 50  1  0  0  0
 49 53  1  0  0  0
 49 64  1  0  0  0
 49120  1  0  0  0
 50 51  1  0  0  0
 50121  1  0  0  0
 50122  1  0  0  0
 51 52  1  0  0  0
 51123  1  0  0  0
 51124  1  0  0  0
 52125  1  0  0  0
 52126  1  0  0  0
 53 54  1  0  0  0
 54 55  2  0  0  0
 54127  1  0  0  0
 55 57  1  0  0  0
 55128  1  0  0  0
 56 69  2  0  0  0
 57 58  2  0  0  0
 57129  1  0  0  0
 58130  1  0  0  0
 59 60  1  0  0  0
 59 61  1  0  0  0
 59 62  1  0  0  0
 60131  1  0  0  0
 60132  1  0  0  0
 60133  1  0  0  0
 61134  1  0  0  0
 61135  1  0  0  0
 61136  1  0  0  0
 62137  1  0  0  0
 62138  1  0  0  0
 62139  1  0  0  0
 63 65  1  0  0  0
 63140  1  0  0  0
 63141  1  0  0  0
 63142  1  0  0  0
 64143  1  0  0  0
 65144  1  0  0  0
 68 83  1  0  0  0
 71 72  2  0  0  0
 71 73  1  0  0  0
 71145  1  0  0  0
 72 75  1  0  0  0
 72146  1  0  0  0
 73 76  2  0  0  0
 73147  1  0  0  0
 74 75  2  0  0  0
 74 76  1  0  0  0
 74148  1  0  0  0
 75 80  1  0  0  0
 76 84  1  0  0  0
 77 78  1  0  0  0
 77 79  1  0  0  0
 77149  1  0  0  0
 77150  1  0  0  0
 78 80  1  0  0  0
 78151  1  0  0  0
 78152  1  0  0  0
 79153  1  0  0  0
 79154  1  0  0  0
 79 81  1  0  0  0
 80 85  1  0  0  0
 80155  1  0  0  0
 81 83  1  0  0  0
 81 85  1  0  0  0
 81156  1  0  0  0
 82157  1  0  0  0
 82158  1  0  0  0
 82159  1  0  0  0
 82 83  1  0  0  0
 83160  1  0  0  0
 84161  1  0  0  0
 85162  1  0  0  0
 85163  1  0  0  0
M  CHG  1  85   1
M  ISO  4   1 100  68 101  83 101  84 100
M  END
> <chiral flag>
0

> <version>
0

> <s_m_source_file>
/data/baiqing/PycharmProjects/Reinvent-master-3.2/result/LINK_invent/BTK/process_docking_weight1_custom_product_contain_oxygen_bond_distance_aromatic_linkinvent_7_9_3/rearranged_h_0156.sdf

> <i_m_source_file_index>
50

> <r_mmod_Potential_Energy-OPLS-2005>
140.564788818359

> <r_mmod_Stretch_Energy-OPLS-2005>
142.482727050781

> <r_mmod_Bend_Energy-OPLS-2005>
189.76872253418

> <r_mmod_Torsional_Energy-OPLS-2005>
284.530609130859

> <r_mmod_Improper_Torsional_Energy-OPLS-2005>
4.81177139282227

> <r_mmod_Van_der_Waal_Energy-OPLS-2005>
146.923034667969

> <r_mmod_Electrostatic_Energy-OPLS-2005>
-292.459838867188

> <r_mmod_Solvation_Energy-OPLS-2005>
-445.433715820312

> <b_mmod_Minimization_Converged-OPLS-2005>
0

> <r_mmod_RMS_Derivative-OPLS-2005>
8.12332439422607

$$$$
50
                    3D
 Structure written by MMmdl.
159167  0  0  1  0            999 V2000
  -30.5643  -14.7219   20.4413 C   0  0  0  0  0  0
  -30.4431  -12.4314   19.4467 C   0  0  0  0  0  0
  -29.5079  -12.4946   18.2179 C   0  0  0  0  0  0
  -28.0322  -12.3194   18.6362 C   0  0  0  0  0  0
  -27.6422  -13.2157   19.8427 C   0  0  2  0  0  0
  -28.6940  -13.1126   20.9716 C   0  0  0  0  0  0
  -25.2519  -13.8159   20.5656 C   0  0  0  0  0  0
  -24.1809  -13.0416   20.9162 C   0  0  0  0  0  0
  -24.6380  -11.6884   20.8695 C   0  0  0  0  0  0
  -23.9050  -10.4266   21.0375 C   0  0  0  0  0  0
  -24.3592   -9.4200   21.9172 C   0  0  0  0  0  0
  -23.6263   -8.2242   22.0781 C   0  0  0  0  0  0
  -22.4258   -8.0242   21.3555 C   0  0  0  0  0  0
  -21.9874   -9.0213   20.4658 C   0  0  0  0  0  0
  -22.7203  -10.2091   20.3039 C   0  0  0  0  0  0
  -21.6841   -6.0692   22.5273 C   0  0  0  0  0  0
  -21.4012   -6.5615   23.8204 C   0  0  0  0  0  0
  -21.3663   -5.6783   24.9174 C   0  0  0  0  0  0
  -21.6043   -4.3045   24.7233 C   0  0  0  0  0  0
  -21.8816   -3.8122   23.4373 C   0  0  0  0  0  0
  -21.9199   -4.6918   22.3420 C   0  0  0  0  0  0
  -22.7838  -13.5199   21.1826 C   0  0  0  0  0  0
  -22.1660   -4.2102   21.0992 F   0  0  0  0  0  0
  -21.5637   -3.4539   25.7773 F   0  0  0  0  0  0
  -29.9930  -13.4750   20.3907 N   0  0  0  0  0  0
  -26.2938  -12.9331   20.3234 N   0  0  0  0  0  0
  -25.9312  -11.6500   20.5724 N   0  0  0  0  0  0
  -22.0473  -12.8198   22.0374 N   0  0  0  0  0  0
  -25.4155  -15.1898   20.4116 N   0  0  0  0  0  0
  -31.7568  -14.8814   20.1603 O   0  0  0  0  0  0
  -21.6630   -6.8840   21.4243 O   0  0  0  0  0  0
  -22.3532  -14.5507   20.6660 O   0  0  0  0  0  0
  -24.6304  -31.8536   23.1929 C   0  0  0  0  0  0
  -25.9149  -32.4717   23.8275 C   0  0  1  0  0  0
  -27.2272  -27.2586   20.1419 C   0  0  0  0  0  0
  -25.5973  -33.8520   24.2247 N   0  0  0  0  0  0
  -23.4297  -30.4674   21.5362 C   0  0  2  0  0  0
  -24.8786  -28.9013   20.1241 C   0  0  0  0  0  0
  -22.7476  -29.4585   22.4957 C   0  0  0  0  0  0
  -18.0248  -28.1388   22.8414 C   0  0  0  0  0  0
  -24.1500  -36.7250   23.2649 C   0  0  0  0  0  0
  -25.9714  -30.7638   21.3695 C   0  0  0  0  0  0
  -26.0478  -29.3781   20.7308 C   0  0  0  0  0  0
  -27.2309  -28.5726   20.7180 C   0  0  0  0  0  0
  -26.0317  -26.8291   19.5378 C   0  0  0  0  0  0
  -24.8741  -27.6341   19.5181 C   0  0  0  0  0  0
  -23.6492  -29.7875   20.1575 C   0  0  0  0  0  0
  -25.4119  -36.3028   24.0343 C   0  0  1  0  0  0
  -20.5842  -28.3678   23.1275 C   0  0  2  0  0  0
  -20.6764  -26.9427   22.5368 C   0  0  0  0  0  0
  -19.5766  -26.6397   21.5160 C   0  0  0  0  0  0
  -18.1913  -26.7912   22.1549 C   0  0  0  0  0  0
  -19.1495  -28.8856   23.2815 C   0  0  0  0  0  0
  -18.9449  -30.1441   23.8871 C   0  0  0  0  0  0
  -17.6469  -30.6606   24.0558 C   0  0  0  0  0  0
  -25.9090  -34.9415   23.5085 C   0  0  0  0  0  0
  -16.5362  -29.9118   23.6336 C   0  0  0  0  0  0
  -16.7238  -28.6538   23.0331 C   0  0  0  0  0  0
  -26.4555  -31.6535   25.0641 C   0  0  0  0  0  0
  -25.3792  -31.3616   26.1360 C   0  0  0  0  0  0
  -27.0447  -30.2986   24.6075 C   0  0  0  0  0  0
  -27.6121  -32.4294   25.7381 C   0  0  0  0  0  0
  -27.5583  -37.1738   24.8475 C   0  0  0  0  0  0
  -21.4200  -29.3053   22.3723 N   0  0  0  0  0  0
  -26.4287  -37.3740   23.9447 N   0  0  0  0  0  0
  -24.6965  -31.0475   22.0897 N   0  0  0  0  0  0
  -23.4173  -28.8190   23.3104 O   0  0  0  0  0  0
  -28.3636  -26.4359   20.0491 O   0  0  0  0  0  0
  -26.5637  -34.8910   22.4656 O   0  0  0  0  0  0
  -23.5484  -32.1406   23.7213 O   0  0  0  0  0  0
  -30.8862  -17.9614   20.9416 C   0  0  0  0  0  0
  -30.6748  -19.3996   20.9137 C   0  0  0  0  0  0
  -29.8158  -17.1743   20.5894 C   0  0  0  0  0  0
  -29.3985  -19.8326   20.5403 C   0  0  0  0  0  0
  -31.7993  -20.2332   21.3062 C   0  0  0  0  0  0
  -29.1715  -22.4180   20.4204 C   0  0  0  0  0  0
  -32.8851  -20.3609   20.2463 C   0  0  0  0  0  0
  -26.7325  -23.2084   20.2893 C   0  0  0  0  0  0
  -28.3745  -23.7991   18.4635 C   0  0  0  0  0  0
  -28.4683  -25.0860   20.6955 C   0  0  0  0  0  0
  -28.1947  -23.6355   19.9917 C   0  0  0  0  0  0
  -28.7666  -21.0879   20.3650 N   0  0  0  0  0  0
  -29.6773  -15.7800   20.5600 N   0  0  0  0  0  0
  -31.9634  -20.7364   22.4224 O   0  0  0  0  0  0
  -30.3131  -22.7157   20.7611 O   0  0  0  0  0  0
  -28.4911  -18.3185   20.2264 S   0  0  0  0  0  0
  -31.4840  -12.5654   19.1458 H   0  0  0  0  0  0
  -30.3946  -11.4494   19.9155 H   0  0  0  0  0  0
  -29.7822  -11.7331   17.4860 H   0  0  0  0  0  0
  -29.6289  -13.4557   17.7178 H   0  0  0  0  0  0
  -27.8838  -11.2696   18.8925 H   0  0  0  0  0  0
  -27.3711  -12.5144   17.7904 H   0  0  0  0  0  0
  -27.6388  -14.2373   19.4608 H   0  0  0  0  0  0
  -28.7340  -12.0982   21.3687 H   0  0  0  0  0  0
  -28.4441  -13.7625   21.8114 H   0  0  0  0  0  0
  -25.2740   -9.5672   22.4744 H   0  0  0  0  0  0
  -23.9937   -7.4666   22.7544 H   0  0  0  0  0  0
  -21.0801   -8.8722   19.9001 H   0  0  0  0  0  0
  -22.3651  -10.9606   19.6130 H   0  0  0  0  0  0
  -21.1987   -7.6121   23.9680 H   0  0  0  0  0  0
  -21.1498   -6.0529   25.9070 H   0  0  0  0  0  0
  -22.0592   -2.7581   23.2901 H   0  0  0  0  0  0
  -22.4065  -11.9805   22.4686 H   0  0  0  0  0  0
  -21.1126  -13.1277   22.2650 H   0  0  0  0  0  0
  -24.6330  -15.8231   20.5315 H   0  0  0  0  0  0
  -26.2425  -15.6531   20.0616 H   0  0  0  0  0  0
  -26.7188  -32.5418   23.1002 H   0  0  0  0  0  0
  -25.0117  -33.9654   25.0384 H   0  0  0  0  0  0
  -22.7268  -31.2880   21.3770 H   0  0  0  0  0  0
  -23.3805  -35.9543   23.3268 H   0  0  0  0  0  0
  -24.3602  -36.8936   22.2077 H   0  0  0  0  0  0
  -23.7212  -37.6412   23.6730 H   0  0  0  0  0  0
  -26.1000  -31.5094   20.5861 H   0  0  0  0  0  0
  -26.8563  -30.8291   21.9903 H   0  0  0  0  0  0
  -28.1458  -28.9374   21.1658 H   0  0  0  0  0  0
  -25.9994  -25.8641   19.0579 H   0  0  0  0  0  0
  -23.9861  -27.2691   19.0231 H   0  0  0  0  0  0
  -23.7712  -30.5575   19.3929 H   0  0  0  0  0  0
  -22.7746  -29.2086   19.8572 H   0  0  0  0  0  0
  -25.1269  -36.1859   25.0828 H   0  0  0  0  0  0
  -20.9836  -28.3241   24.1437 H   0  0  0  0  0  0
  -20.5708  -26.2292   23.3535 H   0  0  0  0  0  0
  -21.6617  -26.7502   22.1158 H   0  0  0  0  0  0
  -19.6993  -25.6320   21.1188 H   0  0  0  0  0  0
  -19.6747  -27.3212   20.6694 H   0  0  0  0  0  0
  -17.4179  -26.6619   21.3961 H   0  0  0  0  0  0
  -18.0359  -26.0050   22.8955 H   0  0  0  0  0  0
  -19.7958  -30.7188   24.2287 H   0  0  0  0  0  0
  -17.5066  -31.6281   24.5160 H   0  0  0  0  0  0
  -15.5374  -30.3039   23.7722 H   0  0  0  0  0  0
  -15.8592  -28.0905   22.7067 H   0  0  0  0  0  0
  -24.6005  -30.6949   25.7620 H   0  0  0  0  0  0
  -24.8941  -32.2741   26.4816 H   0  0  0  0  0  0
  -25.8078  -30.8734   27.0115 H   0  0  0  0  0  0
  -26.2973  -29.6634   24.1284 H   0  0  0  0  0  0
  -27.4428  -29.7320   25.4506 H   0  0  0  0  0  0
  -27.8720  -30.4343   23.9098 H   0  0  0  0  0  0
  -27.2774  -33.3681   26.1812 H   0  0  0  0  0  0
  -28.3923  -32.6717   25.0145 H   0  0  0  0  0  0
  -28.0791  -31.8515   26.5371 H   0  0  0  0  0  0
  -28.2499  -38.0120   24.7565 H   0  0  0  0  0  0
  -28.1147  -36.2638   24.6201 H   0  0  0  0  0  0
  -27.2309  -37.1236   25.8872 H   0  0  0  0  0  0
  -20.9464  -29.8775   21.6884 H   0  0  0  0  0  0
  -26.0172  -38.2808   24.1484 H   0  0  0  0  0  0
  -31.8395  -17.5489   21.2456 H   0  0  0  0  0  0
  -32.6121  -19.7950   19.3543 H   0  0  0  0  0  0
  -33.8251  -19.9640   20.6285 H   0  0  0  0  0  0
  -33.0246  -21.4025   19.9646 H   0  0  0  0  0  0
  -26.4373  -22.3014   19.7569 H   0  0  0  0  0  0
  -26.0107  -23.9697   20.0036 H   0  0  0  0  0  0
  -26.5806  -23.0300   21.3549 H   0  0  0  0  0  0
  -28.5043  -22.8357   17.9647 H   0  0  0  0  0  0
  -29.2527  -24.4047   18.2289 H   0  0  0  0  0  0
  -27.5139  -24.2833   17.9995 H   0  0  0  0  0  0
  -29.5167  -25.0818   20.9898 H   0  0  0  0  0  0
  -27.9479  -25.1212   21.6538 H   0  0  0  0  0  0
  -27.7973  -21.0102   20.0894 H   0  0  0  0  0  0
  -28.7216  -15.4607   20.5810 H   0  0  0  0  0  0
  1 25  1  0  0  0
  1 30  2  0  0  0
  1 83  1  0  0  0
  2  3  1  0  0  0
  2 25  1  0  0  0
  2 87  1  0  0  0
  2 88  1  0  0  0
  3  4  1  0  0  0
  3 89  1  0  0  0
  3 90  1  0  0  0
  4  5  1  0  0  0
  4 91  1  0  0  0
  4 92  1  0  0  0
  5  6  1  0  0  0
  5 26  1  0  0  0
  5 93  1  0  0  0
  6 25  1  0  0  0
  6 94  1  0  0  0
  6 95  1  0  0  0
  7  8  2  0  0  0
  7 26  1  0  0  0
  7 29  1  0  0  0
  8  9  1  0  0  0
  8 22  1  0  0  0
  9 10  1  0  0  0
  9 27  2  0  0  0
 10 11  2  0  0  0
 10 15  1  0  0  0
 11 12  1  0  0  0
 11 96  1  0  0  0
 12 13  2  0  0  0
 12 97  1  0  0  0
 13 14  1  0  0  0
 13 31  1  0  0  0
 14 15  2  0  0  0
 14 98  1  0  0  0
 15 99  1  0  0  0
 16 17  2  0  0  0
 16 21  1  0  0  0
 16 31  1  0  0  0
 17 18  1  0  0  0
 17100  1  0  0  0
 18 19  2  0  0  0
 18101  1  0  0  0
 19 20  1  0  0  0
 19 24  1  0  0  0
 20 21  2  0  0  0
 20102  1  0  0  0
 21 23  1  0  0  0
 22 28  1  0  0  0
 22 32  2  0  0  0
 26 27  1  0  0  0
 28103  1  0  0  0
 28104  1  0  0  0
 29105  1  0  0  0
 29106  1  0  0  0
 33 34  1  0  0  0
 33 66  1  0  0  0
 33 70  2  0  0  0
 34 36  1  0  0  0
 34 59  1  0  0  0
 34107  1  0  0  0
 35 44  2  0  0  0
 35 45  1  0  0  0
 35 68  1  0  0  0
 36 56  1  0  0  0
 36108  1  0  0  0
 37 39  1  0  0  0
 37 47  1  0  0  0
 37 66  1  0  0  0
 37109  1  0  0  0
 38 43  2  0  0  0
 38 46  1  0  0  0
 38 47  1  0  0  0
 39 64  1  0  0  0
 39 67  2  0  0  0
 40 52  1  0  0  0
 40 53  2  0  0  0
 40 58  1  0  0  0
 41110  1  0  0  0
 41111  1  0  0  0
 41112  1  0  0  0
 41 48  1  0  0  0
 42 43  1  0  0  0
 42 66  1  0  0  0
 42113  1  0  0  0
 42114  1  0  0  0
 43 44  1  0  0  0
 44115  1  0  0  0
 45 46  2  0  0  0
 45116  1  0  0  0
 46117  1  0  0  0
 47118  1  0  0  0
 47119  1  0  0  0
 48 56  1  0  0  0
 48 65  1  0  0  0
 48120  1  0  0  0
 49 50  1  0  0  0
 49 53  1  0  0  0
 49 64  1  0  0  0
 49121  1  0  0  0
 50 51  1  0  0  0
 50122  1  0  0  0
 50123  1  0  0  0
 51 52  1  0  0  0
 51124  1  0  0  0
 51125  1  0  0  0
 52126  1  0  0  0
 52127  1  0  0  0
 53 54  1  0  0  0
 54 55  2  0  0  0
 54128  1  0  0  0
 55 57  1  0  0  0
 55129  1  0  0  0
 56 69  2  0  0  0
 57 58  2  0  0  0
 57130  1  0  0  0
 58131  1  0  0  0
 59 60  1  0  0  0
 59 61  1  0  0  0
 59 62  1  0  0  0
 60132  1  0  0  0
 60133  1  0  0  0
 60134  1  0  0  0
 61135  1  0  0  0
 61136  1  0  0  0
 61137  1  0  0  0
 62138  1  0  0  0
 62139  1  0  0  0
 62140  1  0  0  0
 63 65  1  0  0  0
 63141  1  0  0  0
 63142  1  0  0  0
 63143  1  0  0  0
 64144  1  0  0  0
 65145  1  0  0  0
 68 80  1  0  0  0
 71 72  1  0  0  0
 71 73  2  0  0  0
 71146  1  0  0  0
 72 74  2  0  0  0
 72 75  1  0  0  0
 73 83  1  0  0  0
 73 86  1  0  0  0
 74 82  1  0  0  0
 74 86  1  0  0  0
 75 77  1  0  0  0
 75 84  2  0  0  0
 76 81  1  0  0  0
 76 82  1  0  0  0
 76 85  2  0  0  0
 77147  1  0  0  0
 77148  1  0  0  0
 77149  1  0  0  0
 78150  1  0  0  0
 78151  1  0  0  0
 78152  1  0  0  0
 78 81  1  0  0  0
 79 81  1  0  0  0
 79153  1  0  0  0
 79154  1  0  0  0
 79155  1  0  0  0
 80 81  1  0  0  0
 80156  1  0  0  0
 80157  1  0  0  0
 82158  1  0  0  0
 83159  1  0  0  0
M  ISO  4   1 100  68 101  80 101  83 100
M  END
> <chiral flag>
0

> <version>
0

> <s_m_source_file>
/data/baiqing/PycharmProjects/Reinvent-master-3.2/result/LINK_invent/BTK/process_docking_weight1_custom_product_contain_oxygen_bond_distance_aromatic_linkinvent_7_9_3/rearranged_h_0156.sdf

> <i_m_source_file_index>
51

> <r_mmod_Potential_Energy-OPLS-2005>
198.737899780273

> <r_mmod_Stretch_Energy-OPLS-2005>
113.555870056152

> <r_mmod_Bend_Energy-OPLS-2005>
205.803649902344

> <r_mmod_Torsional_Energy-OPLS-2005>
317.385711669922

> <r_mmod_Improper_Torsional_Energy-OPLS-2005>
7.34353542327881

> <r_mmod_Van_der_Waal_Energy-OPLS-2005>
114.983123779297

> <r_mmod_Electrostatic_Energy-OPLS-2005>
-397.401245117188

> <r_mmod_Solvation_Energy-OPLS-2005>
-239.182998657227

> <b_mmod_Minimization_Converged-OPLS-2005>
0

> <r_mmod_RMS_Derivative-OPLS-2005>
5.41220617294312

$$$$
51
                    3D
 Structure written by MMmdl.
157166  0  0  1  0            999 V2000
  -30.6479  -14.6353   20.4413 C   0  0  0  0  0  0
  -30.4170  -12.3772   19.4623 C   0  0  0  0  0  0
  -29.5032  -12.5024   18.2242 C   0  0  0  0  0  0
  -28.0231  -12.3539   18.6280 C   0  0  0  0  0  0
  -27.6460  -13.2285   19.8542 C   0  0  2  0  0  0
  -28.6888  -13.1182   20.9887 C   0  0  0  0  0  0
  -25.2533  -13.8199   20.5693 C   0  0  0  0  0  0
  -24.1816  -13.0449   20.9197 C   0  0  0  0  0  0
  -24.6400  -11.6922   20.8730 C   0  0  0  0  0  0
  -23.9078  -10.4297   21.0396 C   0  0  0  0  0  0
  -24.3637   -9.4215   21.9174 C   0  0  0  0  0  0
  -23.6318   -8.2247   22.0741 C   0  0  0  0  0  0
  -22.4293   -8.0278   21.3541 C   0  0  0  0  0  0
  -21.9930   -9.0249   20.4635 C   0  0  0  0  0  0
  -22.7255  -10.2132   20.3045 C   0  0  0  0  0  0
  -21.6860   -6.0747   22.5282 C   0  0  0  0  0  0
  -21.4009   -6.5651   23.8217 C   0  0  0  0  0  0
  -21.3659   -5.6801   24.9179 C   0  0  0  0  0  0
  -21.6046   -4.3065   24.7230 C   0  0  0  0  0  0
  -21.8815   -3.8156   23.4350 C   0  0  0  0  0  0
  -21.9196   -4.6973   22.3408 C   0  0  0  0  0  0
  -22.7840  -13.5234   21.1875 C   0  0  0  0  0  0
  -22.1665   -4.2161   21.0989 F   0  0  0  0  0  0
  -21.5631   -3.4543   25.7743 F   0  0  0  0  0  0
  -30.0039  -13.4270   20.4162 N   0  0  0  0  0  0
  -26.2953  -12.9403   20.3285 N   0  0  0  0  0  0
  -25.9325  -11.6543   20.5734 N   0  0  0  0  0  0
  -22.0498  -12.8187   22.0418 N   0  0  0  0  0  0
  -25.4256  -15.1927   20.4123 N   0  0  0  0  0  0
  -31.8425  -14.7142   20.1393 O   0  0  0  0  0  0
  -21.6650   -6.8881   21.4239 O   0  0  0  0  0  0
  -22.3511  -14.5544   20.6744 O   0  0  0  0  0  0
  -24.6261  -31.8584   23.2025 C   0  0  0  0  0  0
  -25.9114  -32.4770   23.8352 C   0  0  1  0  0  0
  -27.2173  -27.3296   20.1216 C   0  0  0  0  0  0
  -25.5932  -33.8574   24.2278 N   0  0  0  0  0  0
  -23.4193  -30.4828   21.5443 C   0  0  2  0  0  0
  -24.8652  -28.9369   20.1104 C   0  0  0  0  0  0
  -22.7475  -29.4629   22.4938 C   0  0  0  0  0  0
  -18.0285  -28.1393   22.8495 C   0  0  0  0  0  0
  -24.1488  -36.7289   23.2643 C   0  0  0  0  0  0
  -25.9583  -30.7944   21.3696 C   0  0  0  0  0  0
  -26.0332  -29.4219   20.7142 C   0  0  0  0  0  0
  -27.2174  -28.6288   20.7106 C   0  0  0  0  0  0
  -26.0346  -26.8895   19.4963 C   0  0  0  0  0  0
  -24.8665  -27.6748   19.4927 C   0  0  0  0  0  0
  -23.6322  -29.8150   20.1597 C   0  0  0  0  0  0
  -25.4113  -36.3081   24.0325 C   0  0  1  0  0  0
  -20.5887  -28.3695   23.1292 C   0  0  2  0  0  0
  -20.6776  -26.9419   22.5427 C   0  0  0  0  0  0
  -19.5753  -26.6389   21.5228 C   0  0  0  0  0  0
  -18.1929  -26.7942   22.1628 C   0  0  0  0  0  0
  -19.1536  -28.8863   23.2889 C   0  0  0  0  0  0
  -18.9455  -30.1469   23.8904 C   0  0  0  0  0  0
  -17.6452  -30.6595   24.0574 C   0  0  0  0  0  0
  -25.9052  -34.9447   23.5097 C   0  0  0  0  0  0
  -16.5346  -29.9091   23.6340 C   0  0  0  0  0  0
  -16.7273  -28.6510   23.0358 C   0  0  0  0  0  0
  -26.4499  -31.6581   25.0718 C   0  0  0  0  0  0
  -25.3729  -31.3704   26.1440 C   0  0  0  0  0  0
  -27.0343  -30.3010   24.6167 C   0  0  0  0  0  0
  -27.6077  -32.4304   25.7476 C   0  0  0  0  0  0
  -27.5573  -37.1806   24.8460 C   0  0  0  0  0  0
  -21.4188  -29.3044   22.3677 N   0  0  0  0  0  0
  -26.4284  -37.3780   23.9408 N   0  0  0  0  0  0
  -24.6871  -31.0607   22.0967 N   0  0  0  0  0  0
  -23.4205  -28.8169   23.3013 O   0  0  0  0  0  0
  -28.3027  -26.4518   20.1476 O   0  0  0  0  0  0
  -26.5618  -34.8915   22.4663 O   0  0  0  0  0  0
  -23.5427  -32.1372   23.7368 O   0  0  0  0  0  0
  -30.8326  -18.1640   17.8294 C   0  0  0  0  0  0
  -30.4569  -19.4186   18.3335 C   0  0  0  0  0  0
  -30.6326  -17.0003   18.5840 C   0  0  0  0  0  0
  -29.6401  -18.3503   20.3613 C   0  0  0  0  0  0
  -29.8380  -19.5672   19.5961 C   0  0  0  0  0  0
  -30.0615  -17.0479   19.8779 C   0  0  0  0  0  0
  -28.5007  -23.8088   20.5348 C   0  0  0  0  0  0
  -28.5909  -22.7846   21.6899 C   0  0  0  0  0  0
  -28.6450  -21.2749   21.2829 C   0  0  0  0  0  0
  -28.9651  -22.0267   18.9455 C   0  0  0  0  0  0
  -29.5426  -21.0590   20.0542 C   0  0  2  0  0  0
  -28.1146  -25.2696   21.0122 C   0  0  0  0  0  0
  -28.7229  -23.4502   19.3232 N   0  0  0  0  0  0
  -29.8912  -15.7756   20.5958 N   0  0  0  0  0  0
  -31.4641  -12.4648   19.1693 H   0  0  0  0  0  0
  -30.3177  -11.3893   19.9149 H   0  0  0  0  0  0
  -29.7658  -11.7480   17.4816 H   0  0  0  0  0  0
  -29.6583  -13.4705   17.7452 H   0  0  0  0  0  0
  -27.8464  -11.3013   18.8522 H   0  0  0  0  0  0
  -27.3774  -12.5949   17.7822 H   0  0  0  0  0  0
  -27.6552  -14.2606   19.5019 H   0  0  0  0  0  0
  -28.6898  -12.1145   21.4164 H   0  0  0  0  0  0
  -28.4456  -13.7978   21.8064 H   0  0  0  0  0  0
  -25.2780   -9.5698   22.4750 H   0  0  0  0  0  0
  -24.0033   -7.4639   22.7453 H   0  0  0  0  0  0
  -21.0869   -8.8760   19.8940 H   0  0  0  0  0  0
  -22.3710  -10.9669   19.6152 H   0  0  0  0  0  0
  -21.1986   -7.6157   23.9727 H   0  0  0  0  0  0
  -21.1487   -6.0532   25.9088 H   0  0  0  0  0  0
  -22.0593   -2.7620   23.2852 H   0  0  0  0  0  0
  -22.4138  -11.9850   22.4783 H   0  0  0  0  0  0
  -21.1094  -13.1156   22.2614 H   0  0  0  0  0  0
  -24.6617  -15.8496   20.5228 H   0  0  0  0  0  0
  -26.2785  -15.6299   20.0859 H   0  0  0  0  0  0
  -26.7190  -32.5443   23.1111 H   0  0  0  0  0  0
  -25.0081  -33.9721   25.0425 H   0  0  0  0  0  0
  -22.7136  -31.3035   21.4017 H   0  0  0  0  0  0
  -23.3753  -35.9618   23.3284 H   0  0  0  0  0  0
  -24.3591  -36.8929   22.2064 H   0  0  0  0  0  0
  -23.7227  -37.6477   23.6681 H   0  0  0  0  0  0
  -26.0837  -31.5567   20.5998 H   0  0  0  0  0  0
  -26.8424  -30.8455   21.9936 H   0  0  0  0  0  0
  -28.1146  -28.9925   21.1909 H   0  0  0  0  0  0
  -26.0085  -25.9144   19.0294 H   0  0  0  0  0  0
  -23.9694  -27.2985   19.0208 H   0  0  0  0  0  0
  -23.7471  -30.5906   19.4011 H   0  0  0  0  0  0
  -22.7529  -29.2411   19.8605 H   0  0  0  0  0  0
  -25.1301  -36.1917   25.0817 H   0  0  0  0  0  0
  -20.9983  -28.3262   24.1410 H   0  0  0  0  0  0
  -20.5675  -26.2306   23.3624 H   0  0  0  0  0  0
  -21.6637  -26.7454   22.1205 H   0  0  0  0  0  0
  -19.6905  -25.6299   21.1258 H   0  0  0  0  0  0
  -19.6685  -27.3207   20.6765 H   0  0  0  0  0  0
  -17.4205  -26.6715   21.4021 H   0  0  0  0  0  0
  -18.0308  -26.0069   22.9005 H   0  0  0  0  0  0
  -19.7927  -30.7296   24.2260 H   0  0  0  0  0  0
  -17.5000  -31.6275   24.5176 H   0  0  0  0  0  0
  -15.5349  -30.2991   23.7666 H   0  0  0  0  0  0
  -15.8668  -28.0838   22.7065 H   0  0  0  0  0  0
  -24.5936  -30.7014   25.7765 H   0  0  0  0  0  0
  -24.8879  -32.2853   26.4855 H   0  0  0  0  0  0
  -25.8055  -30.8896   27.0221 H   0  0  0  0  0  0
  -26.2916  -29.6746   24.1207 H   0  0  0  0  0  0
  -27.4063  -29.7277   25.4672 H   0  0  0  0  0  0
  -27.8772  -30.4308   23.9372 H   0  0  0  0  0  0
  -27.2736  -33.3639   26.2013 H   0  0  0  0  0  0
  -28.3908  -32.6793   25.0300 H   0  0  0  0  0  0
  -28.0710  -31.8426   26.5410 H   0  0  0  0  0  0
  -28.2592  -38.0110   24.7522 H   0  0  0  0  0  0
  -28.1075  -36.2640   24.6271 H   0  0  0  0  0  0
  -27.2293  -37.1415   25.8865 H   0  0  0  0  0  0
  -20.9365  -29.8739   21.6865 H   0  0  0  0  0  0
  -26.0150  -38.2846   24.1430 H   0  0  0  0  0  0
  -31.2966  -18.0932   16.8552 H   0  0  0  0  0  0
  -30.6836  -20.2753   17.7174 H   0  0  0  0  0  0
  -30.9352  -16.0622   18.1403 H   0  0  0  0  0  0
  -29.1891  -18.4204   21.3410 H   0  0  0  0  0  0
  -27.7562  -22.9451   22.3728 H   0  0  0  0  0  0
  -29.4896  -23.0222   22.2604 H   0  0  0  0  0  0
  -27.6404  -20.9143   21.0622 H   0  0  0  0  0  0
  -29.0059  -20.6887   22.1288 H   0  0  0  0  0  0
  -28.0352  -21.6021   18.5620 H   0  0  0  0  0  0
  -29.6371  -22.0466   18.0906 H   0  0  0  0  0  0
  -30.5284  -21.4432   20.3184 H   0  0  0  0  0  0
  -28.6987  -25.4735   21.9099 H   0  0  0  0  0  0
  -27.0826  -25.2181   21.3648 H   0  0  0  0  0  0
  -29.0058  -15.6501   21.0637 H   0  0  0  0  0  0
  1 25  1  0  0  0
  1 30  2  0  0  0
  1 84  1  0  0  0
  2  3  1  0  0  0
  2 25  1  0  0  0
  2 85  1  0  0  0
  2 86  1  0  0  0
  3  4  1  0  0  0
  3 87  1  0  0  0
  3 88  1  0  0  0
  4  5  1  0  0  0
  4 89  1  0  0  0
  4 90  1  0  0  0
  5  6  1  0  0  0
  5 26  1  0  0  0
  5 91  1  0  0  0
  6 25  1  0  0  0
  6 92  1  0  0  0
  6 93  1  0  0  0
  7  8  2  0  0  0
  7 26  1  0  0  0
  7 29  1  0  0  0
  8  9  1  0  0  0
  8 22  1  0  0  0
  9 10  1  0  0  0
  9 27  2  0  0  0
 10 11  2  0  0  0
 10 15  1  0  0  0
 11 12  1  0  0  0
 11 94  1  0  0  0
 12 13  2  0  0  0
 12 95  1  0  0  0
 13 14  1  0  0  0
 13 31  1  0  0  0
 14 15  2  0  0  0
 14 96  1  0  0  0
 15 97  1  0  0  0
 16 17  2  0  0  0
 16 21  1  0  0  0
 16 31  1  0  0  0
 17 18  1  0  0  0
 17 98  1  0  0  0
 18 19  2  0  0  0
 18 99  1  0  0  0
 19 20  1  0  0  0
 19 24  1  0  0  0
 20 21  2  0  0  0
 20100  1  0  0  0
 21 23  1  0  0  0
 22 28  1  0  0  0
 22 32  2  0  0  0
 26 27  1  0  0  0
 28101  1  0  0  0
 28102  1  0  0  0
 29103  1  0  0  0
 29104  1  0  0  0
 33 34  1  0  0  0
 33 66  1  0  0  0
 33 70  2  0  0  0
 34 36  1  0  0  0
 34 59  1  0  0  0
 34105  1  0  0  0
 35 44  2  0  0  0
 35 45  1  0  0  0
 35 68  1  0  0  0
 36 56  1  0  0  0
 36106  1  0  0  0
 37 39  1  0  0  0
 37 47  1  0  0  0
 37 66  1  0  0  0
 37107  1  0  0  0
 38 43  2  0  0  0
 38 46  1  0  0  0
 38 47  1  0  0  0
 39 64  1  0  0  0
 39 67  2  0  0  0
 40 52  1  0  0  0
 40 53  2  0  0  0
 40 58  1  0  0  0
 41108  1  0  0  0
 41109  1  0  0  0
 41110  1  0  0  0
 41 48  1  0  0  0
 42 43  1  0  0  0
 42 66  1  0  0  0
 42111  1  0  0  0
 42112  1  0  0  0
 43 44  1  0  0  0
 44113  1  0  0  0
 45 46  2  0  0  0
 45114  1  0  0  0
 46115  1  0  0  0
 47116  1  0  0  0
 47117  1  0  0  0
 48 56  1  0  0  0
 48 65  1  0  0  0
 48118  1  0  0  0
 49 50  1  0  0  0
 49 53  1  0  0  0
 49 64  1  0  0  0
 49119  1  0  0  0
 50 51  1  0  0  0
 50120  1  0  0  0
 50121  1  0  0  0
 51 52  1  0  0  0
 51122  1  0  0  0
 51123  1  0  0  0
 52124  1  0  0  0
 52125  1  0  0  0
 53 54  1  0  0  0
 54 55  2  0  0  0
 54126  1  0  0  0
 55 57  1  0  0  0
 55127  1  0  0  0
 56 69  2  0  0  0
 57 58  2  0  0  0
 57128  1  0  0  0
 58129  1  0  0  0
 59 60  1  0  0  0
 59 61  1  0  0  0
 59 62  1  0  0  0
 60130  1  0  0  0
 60131  1  0  0  0
 60132  1  0  0  0
 61133  1  0  0  0
 61134  1  0  0  0
 61135  1  0  0  0
 62136  1  0  0  0
 62137  1  0  0  0
 62138  1  0  0  0
 63 65  1  0  0  0
 63139  1  0  0  0
 63140  1  0  0  0
 63141  1  0  0  0
 64142  1  0  0  0
 65143  1  0  0  0
 68 82  1  0  0  0
 71 72  2  0  0  0
 71 73  1  0  0  0
 71144  1  0  0  0
 72 75  1  0  0  0
 72145  1  0  0  0
 73 76  2  0  0  0
 73146  1  0  0  0
 74 75  2  0  0  0
 74 76  1  0  0  0
 74147  1  0  0  0
 75 81  1  0  0  0
 76 84  1  0  0  0
 77 78  1  0  0  0
 77 82  1  0  0  0
 77 83  2  0  0  0
 78 79  1  0  0  0
 78148  1  0  0  0
 78149  1  0  0  0
 79 81  1  0  0  0
 79150  1  0  0  0
 79151  1  0  0  0
 80 81  1  0  0  0
 80 83  1  0  0  0
 80152  1  0  0  0
 80153  1  0  0  0
 81154  1  0  0  0
 82155  1  0  0  0
 82156  1  0  0  0
 84157  1  0  0  0
M  ISO  4   1 100  68 101  82 101  84 100
M  END
> <chiral flag>
0

> <version>
0

> <s_m_source_file>
/data/baiqing/PycharmProjects/Reinvent-master-3.2/result/LINK_invent/BTK/process_docking_weight1_custom_product_contain_oxygen_bond_distance_aromatic_linkinvent_7_9_3/rearranged_h_0156.sdf

> <i_m_source_file_index>
52

> <r_mmod_Potential_Energy-OPLS-2005>
165.029388427734

> <r_mmod_Stretch_Energy-OPLS-2005>
89.0428009033203

> <r_mmod_Bend_Energy-OPLS-2005>
149.961654663086

> <r_mmod_Torsional_Energy-OPLS-2005>
268.567260742188

> <r_mmod_Improper_Torsional_Energy-OPLS-2005>
5.8834810256958

> <r_mmod_Van_der_Waal_Energy-OPLS-2005>
151.84504699707

> <r_mmod_Electrostatic_Energy-OPLS-2005>
-328.292266845703

> <r_mmod_Solvation_Energy-OPLS-2005>
-222.992706298828

> <b_mmod_Minimization_Converged-OPLS-2005>
0

> <r_mmod_RMS_Derivative-OPLS-2005>
1.62119257450104

$$$$
52
                    3D
 Structure written by MMmdl.
149157  0  0  1  0            999 V2000
  -30.5833  -14.8225   20.4132 C   0  0  0  0  0  0
  -30.4317  -12.4916   19.4981 C   0  0  0  0  0  0
  -29.5183  -12.5155   18.2504 C   0  0  0  0  0  0
  -28.0413  -12.3425   18.6524 C   0  0  0  0  0  0
  -27.6394  -13.2466   19.8488 C   0  0  2  0  0  0
  -28.6805  -13.2099   20.9888 C   0  0  0  0  0  0
  -25.2478  -13.8255   20.5680 C   0  0  0  0  0  0
  -24.1768  -13.0482   20.9186 C   0  0  0  0  0  0
  -24.6388  -11.6968   20.8743 C   0  0  0  0  0  0
  -23.9077  -10.4328   21.0412 C   0  0  0  0  0  0
  -24.3636   -9.4237   21.9185 C   0  0  0  0  0  0
  -23.6308   -8.2270   22.0766 C   0  0  0  0  0  0
  -22.4286   -8.0295   21.3556 C   0  0  0  0  0  0
  -21.9922   -9.0271   20.4657 C   0  0  0  0  0  0
  -22.7254  -10.2152   20.3057 C   0  0  0  0  0  0
  -21.6865   -6.0735   22.5270 C   0  0  0  0  0  0
  -21.4025   -6.5635   23.8206 C   0  0  0  0  0  0
  -21.3658   -5.6786   24.9167 C   0  0  0  0  0  0
  -21.6047   -4.3053   24.7216 C   0  0  0  0  0  0
  -21.8823   -3.8140   23.4339 C   0  0  0  0  0  0
  -21.9197   -4.6961   22.3394 C   0  0  0  0  0  0
  -22.7780  -13.5255   21.1816 C   0  0  0  0  0  0
  -22.1670   -4.2149   21.0974 F   0  0  0  0  0  0
  -21.5623   -3.4535   25.7731 F   0  0  0  0  0  0
  -29.9826  -13.5728   20.4127 N   0  0  0  0  0  0
  -26.2924  -12.9488   20.3273 N   0  0  0  0  0  0
  -25.9331  -11.6618   20.5751 N   0  0  0  0  0  0
  -22.0411  -12.8274   22.0384 N   0  0  0  0  0  0
  -25.4159  -15.1997   20.4142 N   0  0  0  0  0  0
  -31.7549  -14.9153   20.0341 O   0  0  0  0  0  0
  -21.6650   -6.8887   21.4245 O   0  0  0  0  0  0
  -22.3458  -14.5520   20.6604 O   0  0  0  0  0  0
  -24.6364  -31.8485   23.1962 C   0  0  0  0  0  0
  -25.9173  -32.4708   23.8316 C   0  0  1  0  0  0
  -27.2143  -27.2097   20.1354 C   0  0  0  0  0  0
  -25.5959  -33.8521   24.2225 N   0  0  0  0  0  0
  -23.4362  -30.4761   21.5380 C   0  0  2  0  0  0
  -24.8831  -28.9193   20.1068 C   0  0  0  0  0  0
  -22.7542  -29.4587   22.4861 C   0  0  0  0  0  0
  -18.0305  -28.1401   22.8481 C   0  0  0  0  0  0
  -24.1486  -36.7277   23.2641 C   0  0  0  0  0  0
  -25.9874  -30.7471   21.3860 C   0  0  0  0  0  0
  -26.0573  -29.3668   20.7258 C   0  0  0  0  0  0
  -27.2229  -28.5247   20.7296 C   0  0  0  0  0  0
  -26.0176  -26.8510   19.4708 C   0  0  0  0  0  0
  -24.8719  -27.6722   19.4673 C   0  0  0  0  0  0
  -23.6587  -29.8144   20.1528 C   0  0  0  0  0  0
  -25.4111  -36.3044   24.0316 C   0  0  1  0  0  0
  -20.5910  -28.3716   23.1247 C   0  0  2  0  0  0
  -20.6797  -26.9428   22.5410 C   0  0  0  0  0  0
  -19.5771  -26.6381   21.5224 C   0  0  0  0  0  0
  -18.1947  -26.7939   22.1621 C   0  0  0  0  0  0
  -19.1563  -28.8879   23.2853 C   0  0  0  0  0  0
  -18.9480  -30.1470   23.8885 C   0  0  0  0  0  0
  -17.6480  -30.6596   24.0577 C   0  0  0  0  0  0
  -25.9053  -34.9418   23.5061 C   0  0  0  0  0  0
  -16.5370  -29.9099   23.6338 C   0  0  0  0  0  0
  -16.7290  -28.6519   23.0355 C   0  0  0  0  0  0
  -26.4531  -31.6568   25.0735 C   0  0  0  0  0  0
  -25.3738  -31.3778   26.1454 C   0  0  0  0  0  0
  -27.0403  -30.2970   24.6283 C   0  0  0  0  0  0
  -27.6036  -32.4353   25.7540 C   0  0  0  0  0  0
  -27.5575  -37.1796   24.8459 C   0  0  0  0  0  0
  -21.4244  -29.3053   22.3627 N   0  0  0  0  0  0
  -26.4276  -37.3755   23.9409 N   0  0  0  0  0  0
  -24.7061  -31.0427   22.0956 N   0  0  0  0  0  0
  -23.4222  -28.8109   23.2961 O   0  0  0  0  0  0
  -28.2863  -26.2696   20.2225 O   0  0  0  0  0  0
  -26.5618  -34.8906   22.4622 O   0  0  0  0  0  0
  -23.5501  -32.1336   23.7220 O   0  0  0  0  0  0
  -29.7359  -19.1021   18.8651 C   0  0  0  0  0  0
  -29.9168  -17.6707   18.9377 C   0  0  0  0  0  0
  -29.5812  -19.6240   20.1286 C   0  0  0  0  0  0
  -29.8667  -17.2972   20.2569 C   0  0  0  0  0  0
  -29.5245  -21.0415   20.6997 C   0  0  0  0  0  0
  -28.9844  -23.6431   20.5818 C   0  0  0  0  0  0
  -28.0507  -24.7876   19.9121 C   0  0  0  0  0  0
  -29.8295  -15.9603   20.7324 N   0  0  0  0  0  0
  -28.9225  -22.1896   20.1324 N   0  0  0  0  0  0
  -30.1844  -21.1578   21.8628 N   0  3  0  0  0  0
  -29.7430  -23.9461   21.5138 O   0  0  0  0  0  0
  -29.6382  -18.4897   20.9995 O   0  0  0  0  0  0
  -31.4764  -12.6080   19.2036 H   0  0  0  0  0  0
  -30.3718  -11.5247   19.9995 H   0  0  0  0  0  0
  -29.8077  -11.7288   17.5512 H   0  0  0  0  0  0
  -29.6467  -13.4597   17.7202 H   0  0  0  0  0  0
  -27.8947  -11.2941   18.9122 H   0  0  0  0  0  0
  -27.3913  -12.5391   17.7988 H   0  0  0  0  0  0
  -27.6264  -14.2650   19.4609 H   0  0  0  0  0  0
  -28.7203  -12.2231   21.4527 H   0  0  0  0  0  0
  -28.3993  -13.9086   21.7782 H   0  0  0  0  0  0
  -25.2794   -9.5709   22.4739 H   0  0  0  0  0  0
  -24.0024   -7.4675   22.7496 H   0  0  0  0  0  0
  -21.0850   -8.8798   19.8970 H   0  0  0  0  0  0
  -22.3731  -10.9684   19.6148 H   0  0  0  0  0  0
  -21.2026   -7.6148   23.9724 H   0  0  0  0  0  0
  -21.1473   -6.0504   25.9074 H   0  0  0  0  0  0
  -22.0602   -2.7600   23.2833 H   0  0  0  0  0  0
  -22.4029  -11.9989   22.4855 H   0  0  0  0  0  0
  -21.1013  -13.1287   22.2511 H   0  0  0  0  0  0
  -24.6442  -15.8519   20.5063 H   0  0  0  0  0  0
  -26.2697  -15.6457   20.1027 H   0  0  0  0  0  0
  -26.7236  -32.5330   23.1056 H   0  0  0  0  0  0
  -25.0188  -33.9642   25.0427 H   0  0  0  0  0  0
  -22.7366  -31.3016   21.3917 H   0  0  0  0  0  0
  -23.3736  -35.9624   23.3281 H   0  0  0  0  0  0
  -24.3595  -36.8920   22.2066 H   0  0  0  0  0  0
  -23.7254  -37.6474   23.6683 H   0  0  0  0  0  0
  -26.1358  -31.5073   20.6174 H   0  0  0  0  0  0
  -26.8607  -30.7946   22.0245 H   0  0  0  0  0  0
  -28.1162  -28.8582   21.2392 H   0  0  0  0  0  0
  -25.9263  -25.9065   18.9555 H   0  0  0  0  0  0
  -23.9748  -27.3295   18.9703 H   0  0  0  0  0  0
  -23.7981  -30.5941   19.4035 H   0  0  0  0  0  0
  -22.7725  -29.2616   19.8366 H   0  0  0  0  0  0
  -25.1297  -36.1890   25.0811 H   0  0  0  0  0  0
  -21.0004  -28.3310   24.1364 H   0  0  0  0  0  0
  -20.5723  -26.2331   23.3623 H   0  0  0  0  0  0
  -21.6661  -26.7473   22.1189 H   0  0  0  0  0  0
  -19.6936  -25.6288   21.1266 H   0  0  0  0  0  0
  -19.6697  -27.3186   20.6747 H   0  0  0  0  0  0
  -17.4220  -26.6691   21.4014 H   0  0  0  0  0  0
  -18.0332  -26.0091   22.9021 H   0  0  0  0  0  0
  -19.7959  -30.7294   24.2237 H   0  0  0  0  0  0
  -17.5036  -31.6271   24.5189 H   0  0  0  0  0  0
  -15.5369  -30.3001   23.7662 H   0  0  0  0  0  0
  -15.8689  -28.0838   22.7062 H   0  0  0  0  0  0
  -24.5876  -30.7154   25.7811 H   0  0  0  0  0  0
  -24.8978  -32.2982   26.4849 H   0  0  0  0  0  0
  -25.8036  -30.8985   27.0255 H   0  0  0  0  0  0
  -26.3016  -29.6678   24.1295 H   0  0  0  0  0  0
  -27.4050  -29.7288   25.4850 H   0  0  0  0  0  0
  -27.8911  -30.4218   23.9576 H   0  0  0  0  0  0
  -27.2578  -33.3646   26.2093 H   0  0  0  0  0  0
  -28.3886  -32.6928   25.0418 H   0  0  0  0  0  0
  -28.0668  -31.8508   26.5504 H   0  0  0  0  0  0
  -28.2563  -38.0117   24.7511 H   0  0  0  0  0  0
  -28.1089  -36.2640   24.6263 H   0  0  0  0  0  0
  -27.2293  -37.1436   25.8860 H   0  0  0  0  0  0
  -20.9432  -29.8795   21.6847 H   0  0  0  0  0  0
  -26.0137  -38.2812   24.1428 H   0  0  0  0  0  0
  -29.7588  -19.7010   17.9658 H   0  0  0  0  0  0
  -30.0491  -16.9990   18.1011 H   0  0  0  0  0  0
  -28.0791  -24.6583   18.8304 H   0  0  0  0  0  0
  -27.0448  -24.5184   20.2319 H   0  0  0  0  0  0
  -29.0055  -15.7441   21.2713 H   0  0  0  0  0  0
  -28.3632  -21.9473   19.3317 H   0  0  0  0  0  0
  -30.3092  -22.0586   22.3053 H   0  0  0  0  0  0
  -30.6320  -20.3409   22.2537 H   0  0  0  0  0  0
  1 25  1  0  0  0
  1 30  2  0  0  0
  1 78  1  0  0  0
  2  3  1  0  0  0
  2 25  1  0  0  0
  2 83  1  0  0  0
  2 84  1  0  0  0
  3  4  1  0  0  0
  3 85  1  0  0  0
  3 86  1  0  0  0
  4  5  1  0  0  0
  4 87  1  0  0  0
  4 88  1  0  0  0
  5  6  1  0  0  0
  5 26  1  0  0  0
  5 89  1  0  0  0
  6 25  1  0  0  0
  6 90  1  0  0  0
  6 91  1  0  0  0
  7  8  2  0  0  0
  7 26  1  0  0  0
  7 29  1  0  0  0
  8  9  1  0  0  0
  8 22  1  0  0  0
  9 10  1  0  0  0
  9 27  2  0  0  0
 10 11  2  0  0  0
 10 15  1  0  0  0
 11 12  1  0  0  0
 11 92  1  0  0  0
 12 13  2  0  0  0
 12 93  1  0  0  0
 13 14  1  0  0  0
 13 31  1  0  0  0
 14 15  2  0  0  0
 14 94  1  0  0  0
 15 95  1  0  0  0
 16 17  2  0  0  0
 16 21  1  0  0  0
 16 31  1  0  0  0
 17 18  1  0  0  0
 17 96  1  0  0  0
 18 19  2  0  0  0
 18 97  1  0  0  0
 19 20  1  0  0  0
 19 24  1  0  0  0
 20 21  2  0  0  0
 20 98  1  0  0  0
 21 23  1  0  0  0
 22 28  1  0  0  0
 22 32  2  0  0  0
 26 27  1  0  0  0
 28 99  1  0  0  0
 28100  1  0  0  0
 29101  1  0  0  0
 29102  1  0  0  0
 33 34  1  0  0  0
 33 66  1  0  0  0
 33 70  2  0  0  0
 34 36  1  0  0  0
 34 59  1  0  0  0
 34103  1  0  0  0
 35 44  2  0  0  0
 35 45  1  0  0  0
 35 68  1  0  0  0
 36 56  1  0  0  0
 36104  1  0  0  0
 37 39  1  0  0  0
 37 47  1  0  0  0
 37 66  1  0  0  0
 37105  1  0  0  0
 38 43  2  0  0  0
 38 46  1  0  0  0
 38 47  1  0  0  0
 39 64  1  0  0  0
 39 67  2  0  0  0
 40 52  1  0  0  0
 40 53  2  0  0  0
 40 58  1  0  0  0
 41106  1  0  0  0
 41107  1  0  0  0
 41108  1  0  0  0
 41 48  1  0  0  0
 42 43  1  0  0  0
 42 66  1  0  0  0
 42109  1  0  0  0
 42110  1  0  0  0
 43 44  1  0  0  0
 44111  1  0  0  0
 45 46  2  0  0  0
 45112  1  0  0  0
 46113  1  0  0  0
 47114  1  0  0  0
 47115  1  0  0  0
 48 56  1  0  0  0
 48 65  1  0  0  0
 48116  1  0  0  0
 49 50  1  0  0  0
 49 53  1  0  0  0
 49 64  1  0  0  0
 49117  1  0  0  0
 50 51  1  0  0  0
 50118  1  0  0  0
 50119  1  0  0  0
 51 52  1  0  0  0
 51120  1  0  0  0
 51121  1  0  0  0
 52122  1  0  0  0
 52123  1  0  0  0
 53 54  1  0  0  0
 54 55  2  0  0  0
 54124  1  0  0  0
 55 57  1  0  0  0
 55125  1  0  0  0
 56 69  2  0  0  0
 57 58  2  0  0  0
 57126  1  0  0  0
 58127  1  0  0  0
 59 60  1  0  0  0
 59 61  1  0  0  0
 59 62  1  0  0  0
 60128  1  0  0  0
 60129  1  0  0  0
 60130  1  0  0  0
 61131  1  0  0  0
 61132  1  0  0  0
 61133  1  0  0  0
 62134  1  0  0  0
 62135  1  0  0  0
 62136  1  0  0  0
 63 65  1  0  0  0
 63137  1  0  0  0
 63138  1  0  0  0
 63139  1  0  0  0
 64140  1  0  0  0
 65141  1  0  0  0
 68 77  1  0  0  0
 71 72  1  0  0  0
 71 73  2  0  0  0
 71142  1  0  0  0
 72 74  2  0  0  0
 72143  1  0  0  0
 73 75  1  0  0  0
 73 82  1  0  0  0
 74 78  1  0  0  0
 74 82  1  0  0  0
 75 79  1  0  0  0
 75 80  2  0  0  0
 76 77  1  0  0  0
 76 79  1  0  0  0
 76 81  2  0  0  0
 77144  1  0  0  0
 77145  1  0  0  0
 78146  1  0  0  0
 79147  1  0  0  0
 80148  1  0  0  0
 80149  1  0  0  0
M  CHG  1  80   1
M  ISO  4   1 100  68 101  77 101  78 100
M  END
> <chiral flag>
0

> <version>
0

> <s_m_source_file>
/data/baiqing/PycharmProjects/Reinvent-master-3.2/result/LINK_invent/BTK/process_docking_weight1_custom_product_contain_oxygen_bond_distance_aromatic_linkinvent_7_9_3/rearranged_h_0156.sdf

> <i_m_source_file_index>
53

> <r_mmod_Potential_Energy-OPLS-2005>
-38.0198020935059

> <r_mmod_Stretch_Energy-OPLS-2005>
158.038558959961

> <r_mmod_Bend_Energy-OPLS-2005>
193.015731811523

> <r_mmod_Torsional_Energy-OPLS-2005>
234.554885864258

> <r_mmod_Improper_Torsional_Energy-OPLS-2005>
4.89811611175537

> <r_mmod_Van_der_Waal_Energy-OPLS-2005>
123.02001953125

> <r_mmod_Electrostatic_Energy-OPLS-2005>
-365.39453125

> <r_mmod_Solvation_Energy-OPLS-2005>
-509.990173339844

> <b_mmod_Minimization_Converged-OPLS-2005>
0

> <r_mmod_RMS_Derivative-OPLS-2005>
2.54613161087036

$$$$
53
                    3D
 Structure written by MMmdl.
151160  0  0  1  0            999 V2000
  -30.5822  -14.7741   20.5006 C   0  0  0  0  0  0
  -30.4549  -12.4793   19.4741 C   0  0  0  0  0  0
  -29.5223  -12.5355   18.2406 C   0  0  0  0  0  0
  -28.0475  -12.3501   18.6481 C   0  0  0  0  0  0
  -27.6532  -13.2294   19.8628 C   0  0  2  0  0  0
  -28.6997  -13.1257   20.9972 C   0  0  0  0  0  0
  -25.2483  -13.8126   20.5585 C   0  0  0  0  0  0
  -24.1805  -13.0404   20.9211 C   0  0  0  0  0  0
  -24.6408  -11.6890   20.8755 C   0  0  0  0  0  0
  -23.9078  -10.4275   21.0410 C   0  0  0  0  0  0
  -24.3621   -9.4191   21.9182 C   0  0  0  0  0  0
  -23.6286   -8.2236   22.0760 C   0  0  0  0  0  0
  -22.4265   -8.0284   21.3558 C   0  0  0  0  0  0
  -21.9908   -9.0255   20.4666 C   0  0  0  0  0  0
  -22.7249  -10.2124   20.3068 C   0  0  0  0  0  0
  -21.6852   -6.0724   22.5273 C   0  0  0  0  0  0
  -21.4015   -6.5622   23.8202 C   0  0  0  0  0  0
  -21.3664   -5.6778   24.9162 C   0  0  0  0  0  0
  -21.6047   -4.3042   24.7218 C   0  0  0  0  0  0
  -21.8822   -3.8139   23.4338 C   0  0  0  0  0  0
  -21.9194   -4.6957   22.3393 C   0  0  0  0  0  0
  -22.7824  -13.5206   21.1858 C   0  0  0  0  0  0
  -22.1665   -4.2146   21.0970 F   0  0  0  0  0  0
  -21.5635   -3.4525   25.7731 F   0  0  0  0  0  0
  -30.0090  -13.5149   20.4402 N   0  0  0  0  0  0
  -26.2975  -12.9375   20.3282 N   0  0  0  0  0  0
  -25.9346  -11.6518   20.5760 N   0  0  0  0  0  0
  -22.0458  -12.8219   22.0426 N   0  0  0  0  0  0
  -25.4013  -15.1806   20.3724 N   0  0  0  0  0  0
  -31.7152  -14.9575   20.0416 O   0  0  0  0  0  0
  -21.6636   -6.8873   21.4240 O   0  0  0  0  0  0
  -22.3527  -14.5516   20.6697 O   0  0  0  0  0  0
  -24.6357  -31.8526   23.1965 C   0  0  0  0  0  0
  -25.9161  -32.4742   23.8324 C   0  0  1  0  0  0
  -27.2240  -27.2255   20.1223 C   0  0  0  0  0  0
  -25.5931  -33.8543   24.2241 N   0  0  0  0  0  0
  -23.4354  -30.4765   21.5410 C   0  0  2  0  0  0
  -24.8852  -28.9261   20.1081 C   0  0  0  0  0  0
  -22.7528  -29.4586   22.4883 C   0  0  0  0  0  0
  -18.0296  -28.1395   22.8474 C   0  0  0  0  0  0
  -24.1492  -36.7272   23.2644 C   0  0  0  0  0  0
  -25.9877  -30.7521   21.3875 C   0  0  0  0  0  0
  -26.0603  -29.3738   20.7249 C   0  0  0  0  0  0
  -27.2302  -28.5367   20.7241 C   0  0  0  0  0  0
  -26.0203  -26.8704   19.4634 C   0  0  0  0  0  0
  -24.8735  -27.6831   19.4662 C   0  0  0  0  0  0
  -23.6573  -29.8156   20.1565 C   0  0  0  0  0  0
  -25.4115  -36.3058   24.0328 C   0  0  1  0  0  0
  -20.5907  -28.3708   23.1247 C   0  0  2  0  0  0
  -20.6782  -26.9416   22.5404 C   0  0  0  0  0  0
  -19.5753  -26.6383   21.5208 C   0  0  0  0  0  0
  -18.1935  -26.7929   22.1625 C   0  0  0  0  0  0
  -19.1553  -28.8867   23.2857 C   0  0  0  0  0  0
  -18.9475  -30.1464   23.8882 C   0  0  0  0  0  0
  -17.6475  -30.6590   24.0562 C   0  0  0  0  0  0
  -25.9059  -34.9429   23.5088 C   0  0  0  0  0  0
  -16.5365  -29.9090   23.6334 C   0  0  0  0  0  0
  -16.7283  -28.6514   23.0344 C   0  0  0  0  0  0
  -26.4513  -31.6577   25.0728 C   0  0  0  0  0  0
  -25.3728  -31.3742   26.1444 C   0  0  0  0  0  0
  -27.0375  -30.2986   24.6263 C   0  0  0  0  0  0
  -27.6061  -32.4333   25.7492 C   0  0  0  0  0  0
  -27.5577  -37.1786   24.8458 C   0  0  0  0  0  0
  -21.4228  -29.3049   22.3626 N   0  0  0  0  0  0
  -26.4283  -37.3765   23.9413 N   0  0  0  0  0  0
  -24.7053  -31.0458   22.0964 N   0  0  0  0  0  0
  -23.4208  -28.8112   23.2987 O   0  0  0  0  0  0
  -28.2924  -26.2766   20.1879 O   0  0  0  0  0  0
  -26.5640  -34.8914   22.4667 O   0  0  0  0  0  0
  -23.5491  -32.1363   23.7227 O   0  0  0  0  0  0
  -30.1006  -18.4902   20.5643 C   0  0  0  0  0  0
  -28.0529  -17.4081   20.8378 C   0  0  0  0  0  0
  -29.4034  -17.1885   20.7599 C   0  0  0  0  0  0
  -29.2500  -19.6339   20.4578 C   0  0  0  0  0  0
  -30.1509  -23.3776   20.5165 C   0  0  0  0  0  0
  -28.8565  -23.5257   20.2002 C   0  0  0  0  0  0
  -30.5943  -21.8972   20.6166 C   0  0  0  0  0  0
  -28.2928  -22.0771   20.0686 C   0  0  0  0  0  0
  -27.9484  -24.8219   19.9104 C   0  0  0  0  0  0
  -29.4053  -21.0888   20.2979 N   0  0  0  0  0  0
  -29.8235  -15.7838   21.0763 N   0  0  0  0  0  0
  -27.5968  -19.0695   20.5640 S   0  0  0  0  0  0
  -31.4925  -12.6241   19.1686 H   0  0  0  0  0  0
  -30.4202  -11.4910   19.9345 H   0  0  0  0  0  0
  -29.8059  -11.7748   17.5124 H   0  0  0  0  0  0
  -29.6421  -13.4952   17.7351 H   0  0  0  0  0  0
  -27.8967  -11.2964   18.8883 H   0  0  0  0  0  0
  -27.3968  -12.5637   17.7998 H   0  0  0  0  0  0
  -27.6579  -14.2604   19.5064 H   0  0  0  0  0  0
  -28.7404  -12.1069   21.3854 H   0  0  0  0  0  0
  -28.4161  -13.7511   21.8441 H   0  0  0  0  0  0
  -25.2773   -9.5662   22.4754 H   0  0  0  0  0  0
  -24.0001   -7.4627   22.7469 H   0  0  0  0  0  0
  -21.0839   -8.8778   19.8966 H   0  0  0  0  0  0
  -22.3707  -10.9665   19.6180 H   0  0  0  0  0  0
  -21.2002   -7.6128   23.9695 H   0  0  0  0  0  0
  -21.1487   -6.0510   25.9062 H   0  0  0  0  0  0
  -22.0601   -2.7599   23.2834 H   0  0  0  0  0  0
  -22.4078  -11.9895   22.4845 H   0  0  0  0  0  0
  -21.1092  -13.1271   22.2638 H   0  0  0  0  0  0
  -24.5809  -15.7785   20.3934 H   0  0  0  0  0  0
  -26.1342  -15.5452   19.7785 H   0  0  0  0  0  0
  -26.7224  -32.5391   23.1055 H   0  0  0  0  0  0
  -25.0033  -33.9671   25.0357 H   0  0  0  0  0  0
  -22.7346  -31.3007   21.3946 H   0  0  0  0  0  0
  -23.3761  -35.9596   23.3295 H   0  0  0  0  0  0
  -24.3581  -36.8910   22.2059 H   0  0  0  0  0  0
  -23.7242  -37.6465   23.6685 H   0  0  0  0  0  0
  -26.1383  -31.5142   20.6217 H   0  0  0  0  0  0
  -26.8591  -30.7963   22.0285 H   0  0  0  0  0  0
  -28.1230  -28.8716   21.2337 H   0  0  0  0  0  0
  -25.9136  -25.9310   18.9450 H   0  0  0  0  0  0
  -23.9786  -27.3357   18.9686 H   0  0  0  0  0  0
  -23.7842  -30.5935   19.4024 H   0  0  0  0  0  0
  -22.7758  -29.2507   19.8480 H   0  0  0  0  0  0
  -25.1301  -36.1892   25.0821 H   0  0  0  0  0  0
  -20.9997  -28.3301   24.1369 H   0  0  0  0  0  0
  -20.5666  -26.2321   23.3617 H   0  0  0  0  0  0
  -21.6655  -26.7418   22.1218 H   0  0  0  0  0  0
  -19.6910  -25.6292   21.1245 H   0  0  0  0  0  0
  -19.6684  -27.3190   20.6735 H   0  0  0  0  0  0
  -17.4193  -26.6653   21.4043 H   0  0  0  0  0  0
  -18.0342  -26.0089   22.9041 H   0  0  0  0  0  0
  -19.7954  -30.7282   24.2245 H   0  0  0  0  0  0
  -17.5032  -31.6270   24.5166 H   0  0  0  0  0  0
  -15.5364  -30.2987   23.7671 H   0  0  0  0  0  0
  -15.8681  -28.0833   22.7059 H   0  0  0  0  0  0
  -24.5832  -30.7190   25.7741 H   0  0  0  0  0  0
  -24.9014  -32.2927   26.4950 H   0  0  0  0  0  0
  -25.8020  -30.8810   27.0174 H   0  0  0  0  0  0
  -26.2980  -29.6710   24.1272 H   0  0  0  0  0  0
  -27.4012  -29.7283   25.4820 H   0  0  0  0  0  0
  -27.8882  -30.4242   23.9561 H   0  0  0  0  0  0
  -27.2652  -33.3620   26.2085 H   0  0  0  0  0  0
  -28.3847  -32.6918   25.0303 H   0  0  0  0  0  0
  -28.0757  -31.8456   26.5389 H   0  0  0  0  0  0
  -28.2584  -38.0096   24.7534 H   0  0  0  0  0  0
  -28.1089  -36.2631   24.6248 H   0  0  0  0  0  0
  -27.2305  -37.1394   25.8864 H   0  0  0  0  0  0
  -20.9408  -29.8783   21.6838 H   0  0  0  0  0  0
  -26.0155  -38.2832   24.1440 H   0  0  0  0  0  0
  -31.1805  -18.5429   20.5444 H   0  0  0  0  0  0
  -27.2672  -16.7039   21.0627 H   0  0  0  0  0  0
  -30.8451  -24.1938   20.6619 H   0  0  0  0  0  0
  -30.9678  -21.6795   21.6185 H   0  0  0  0  0  0
  -31.3951  -21.6974   19.9025 H   0  0  0  0  0  0
  -27.8743  -21.9386   19.0703 H   0  0  0  0  0  0
  -27.4871  -21.9381   20.7913 H   0  0  0  0  0  0
  -27.0231  -24.6077   20.4457 H   0  0  0  0  0  0
  -27.7143  -24.7490   18.8482 H   0  0  0  0  0  0
  -29.0858  -15.3074   21.5716 H   0  0  0  0  0  0
  1 25  1  0  0  0
  1 30  2  0  0  0
  1 81  1  0  0  0
  2  3  1  0  0  0
  2 25  1  0  0  0
  2 83  1  0  0  0
  2 84  1  0  0  0
  3  4  1  0  0  0
  3 85  1  0  0  0
  3 86  1  0  0  0
  4  5  1  0  0  0
  4 87  1  0  0  0
  4 88  1  0  0  0
  5  6  1  0  0  0
  5 26  1  0  0  0
  5 89  1  0  0  0
  6 25  1  0  0  0
  6 90  1  0  0  0
  6 91  1  0  0  0
  7  8  2  0  0  0
  7 26  1  0  0  0
  7 29  1  0  0  0
  8  9  1  0  0  0
  8 22  1  0  0  0
  9 10  1  0  0  0
  9 27  2  0  0  0
 10 11  2  0  0  0
 10 15  1  0  0  0
 11 12  1  0  0  0
 11 92  1  0  0  0
 12 13  2  0  0  0
 12 93  1  0  0  0
 13 14  1  0  0  0
 13 31  1  0  0  0
 14 15  2  0  0  0
 14 94  1  0  0  0
 15 95  1  0  0  0
 16 17  2  0  0  0
 16 21  1  0  0  0
 16 31  1  0  0  0
 17 18  1  0  0  0
 17 96  1  0  0  0
 18 19  2  0  0  0
 18 97  1  0  0  0
 19 20  1  0  0  0
 19 24  1  0  0  0
 20 21  2  0  0  0
 20 98  1  0  0  0
 21 23  1  0  0  0
 22 28  1  0  0  0
 22 32  2  0  0  0
 26 27  1  0  0  0
 28 99  1  0  0  0
 28100  1  0  0  0
 29101  1  0  0  0
 29102  1  0  0  0
 33 34  1  0  0  0
 33 66  1  0  0  0
 33 70  2  0  0  0
 34 36  1  0  0  0
 34 59  1  0  0  0
 34103  1  0  0  0
 35 44  2  0  0  0
 35 45  1  0  0  0
 35 68  1  0  0  0
 36 56  1  0  0  0
 36104  1  0  0  0
 37 39  1  0  0  0
 37 47  1  0  0  0
 37 66  1  0  0  0
 37105  1  0  0  0
 38 43  2  0  0  0
 38 46  1  0  0  0
 38 47  1  0  0  0
 39 64  1  0  0  0
 39 67  2  0  0  0
 40 52  1  0  0  0
 40 53  2  0  0  0
 40 58  1  0  0  0
 41106  1  0  0  0
 41107  1  0  0  0
 41108  1  0  0  0
 41 48  1  0  0  0
 42 43  1  0  0  0
 42 66  1  0  0  0
 42109  1  0  0  0
 42110  1  0  0  0
 43 44  1  0  0  0
 44111  1  0  0  0
 45 46  2  0  0  0
 45112  1  0  0  0
 46113  1  0  0  0
 47114  1  0  0  0
 47115  1  0  0  0
 48 56  1  0  0  0
 48 65  1  0  0  0
 48116  1  0  0  0
 49 50  1  0  0  0
 49 53  1  0  0  0
 49 64  1  0  0  0
 49117  1  0  0  0
 50 51  1  0  0  0
 50118  1  0  0  0
 50119  1  0  0  0
 51 52  1  0  0  0
 51120  1  0  0  0
 51121  1  0  0  0
 52122  1  0  0  0
 52123  1  0  0  0
 53 54  1  0  0  0
 54 55  2  0  0  0
 54124  1  0  0  0
 55 57  1  0  0  0
 55125  1  0  0  0
 56 69  2  0  0  0
 57 58  2  0  0  0
 57126  1  0  0  0
 58127  1  0  0  0
 59 60  1  0  0  0
 59 61  1  0  0  0
 59 62  1  0  0  0
 60128  1  0  0  0
 60129  1  0  0  0
 60130  1  0  0  0
 61131  1  0  0  0
 61132  1  0  0  0
 61133  1  0  0  0
 62134  1  0  0  0
 62135  1  0  0  0
 62136  1  0  0  0
 63 65  1  0  0  0
 63137  1  0  0  0
 63138  1  0  0  0
 63139  1  0  0  0
 64140  1  0  0  0
 65141  1  0  0  0
 68 79  1  0  0  0
 71 73  1  0  0  0
 71 74  2  0  0  0
 71142  1  0  0  0
 72 73  2  0  0  0
 72 82  1  0  0  0
 72143  1  0  0  0
 73 81  1  0  0  0
 74 80  1  0  0  0
 74 82  1  0  0  0
 75 76  2  0  0  0
 75 77  1  0  0  0
 75144  1  0  0  0
 76 78  1  0  0  0
 76 79  1  0  0  0
 77 80  1  0  0  0
 77145  1  0  0  0
 77146  1  0  0  0
 78 80  1  0  0  0
 78147  1  0  0  0
 78148  1  0  0  0
 79149  1  0  0  0
 79150  1  0  0  0
 81151  1  0  0  0
M  ISO  4   1 100  68 101  79 101  81 100
M  END
> <chiral flag>
0

> <version>
0

> <s_m_source_file>
/data/baiqing/PycharmProjects/Reinvent-master-3.2/result/LINK_invent/BTK/process_docking_weight1_custom_product_contain_oxygen_bond_distance_aromatic_linkinvent_7_9_3/rearranged_h_0156.sdf

> <i_m_source_file_index>
54

> <r_mmod_Potential_Energy-OPLS-2005>
314.467864990234

> <r_mmod_Stretch_Energy-OPLS-2005>
139.011596679688

> <r_mmod_Bend_Energy-OPLS-2005>
287.809783935547

> <r_mmod_Torsional_Energy-OPLS-2005>
222.751037597656

> <r_mmod_Improper_Torsional_Energy-OPLS-2005>
8.8178882598877

> <r_mmod_Van_der_Waal_Energy-OPLS-2005>
119.595458984375

> <r_mmod_Electrostatic_Energy-OPLS-2005>
-325.628479003906

> <r_mmod_Solvation_Energy-OPLS-2005>
-242.560699462891

> <b_mmod_Minimization_Converged-OPLS-2005>
0

> <r_mmod_RMS_Derivative-OPLS-2005>
1.74317765235901

$$$$
54
                    3D
 Structure written by MMmdl.
158167  0  0  1  0            999 V2000
  -30.5743  -14.7908   20.4853 C   0  0  0  0  0  0
  -30.4352  -12.4771   19.4914 C   0  0  0  0  0  0
  -29.5250  -12.5578   18.2439 C   0  0  0  0  0  0
  -28.0450  -12.3737   18.6373 C   0  0  0  0  0  0
  -27.6519  -13.2336   19.8700 C   0  0  2  0  0  0
  -28.6981  -13.1347   21.0068 C   0  0  0  0  0  0
  -25.2488  -13.8105   20.5575 C   0  0  0  0  0  0
  -24.1824  -13.0392   20.9228 C   0  0  0  0  0  0
  -24.6425  -11.6882   20.8769 C   0  0  0  0  0  0
  -23.9076  -10.4267   21.0398 C   0  0  0  0  0  0
  -24.3628   -9.4192   21.9191 C   0  0  0  0  0  0
  -23.6303   -8.2217   22.0748 C   0  0  0  0  0  0
  -22.4285   -8.0244   21.3538 C   0  0  0  0  0  0
  -21.9924   -9.0206   20.4628 C   0  0  0  0  0  0
  -22.7252  -10.2092   20.3031 C   0  0  0  0  0  0
  -21.6838   -6.0698   22.5261 C   0  0  0  0  0  0
  -21.4021   -6.5608   23.8208 C   0  0  0  0  0  0
  -21.3709   -5.6773   24.9171 C   0  0  0  0  0  0
  -21.6051   -4.3040   24.7238 C   0  0  0  0  0  0
  -21.8825   -3.8118   23.4358 C   0  0  0  0  0  0
  -21.9204   -4.6925   22.3394 C   0  0  0  0  0  0
  -22.7847  -13.5193   21.1838 C   0  0  0  0  0  0
  -22.1646   -4.2092   21.0984 F   0  0  0  0  0  0
  -21.5667   -3.4540   25.7758 F   0  0  0  0  0  0
  -30.0009  -13.5281   20.4458 N   0  0  0  0  0  0
  -26.2989  -12.9362   20.3339 N   0  0  0  0  0  0
  -25.9361  -11.6502   20.5827 N   0  0  0  0  0  0
  -22.0451  -12.8209   22.0401 N   0  0  0  0  0  0
  -25.4003  -15.1781   20.3650 N   0  0  0  0  0  0
  -31.7115  -14.9557   20.0334 O   0  0  0  0  0  0
  -21.6652   -6.8835   21.4212 O   0  0  0  0  0  0
  -22.3558  -14.5490   20.6664 O   0  0  0  0  0  0
  -24.6349  -31.8597   23.1969 C   0  0  0  0  0  0
  -25.9147  -32.4807   23.8373 C   0  0  1  0  0  0
  -27.2356  -27.2269   20.1438 C   0  0  0  0  0  0
  -25.5944  -33.8613   24.2319 N   0  0  0  0  0  0
  -23.4386  -30.4750   21.5456 C   0  0  2  0  0  0
  -24.8925  -28.9237   20.1128 C   0  0  0  0  0  0
  -22.7551  -29.4621   22.4963 C   0  0  0  0  0  0
  -18.0293  -28.1391   22.8490 C   0  0  0  0  0  0
  -24.1494  -36.7274   23.2646 C   0  0  0  0  0  0
  -25.9896  -30.7586   21.3886 C   0  0  0  0  0  0
  -26.0669  -29.3778   20.7272 C   0  0  0  0  0  0
  -27.2375  -28.5455   20.7302 C   0  0  0  0  0  0
  -26.0417  -26.8645   19.4729 C   0  0  0  0  0  0
  -24.8906  -27.6785   19.4681 C   0  0  0  0  0  0
  -23.6599  -29.8094   20.1634 C   0  0  0  0  0  0
  -25.4132  -36.3129   24.0349 C   0  0  1  0  0  0
  -20.5910  -28.3734   23.1271 C   0  0  2  0  0  0
  -20.6796  -26.9445   22.5431 C   0  0  0  0  0  0
  -19.5755  -26.6379   21.5251 C   0  0  0  0  0  0
  -18.1928  -26.7929   22.1649 C   0  0  0  0  0  0
  -19.1550  -28.8878   23.2861 C   0  0  0  0  0  0
  -18.9452  -30.1471   23.8891 C   0  0  0  0  0  0
  -17.6440  -30.6585   24.0563 C   0  0  0  0  0  0
  -25.9073  -34.9483   23.5140 C   0  0  0  0  0  0
  -16.5336  -29.9077   23.6335 C   0  0  0  0  0  0
  -16.7269  -28.6498   23.0358 C   0  0  0  0  0  0
  -26.4473  -31.6613   25.0767 C   0  0  0  0  0  0
  -25.3620  -31.3771   26.1415 C   0  0  0  0  0  0
  -27.0337  -30.3038   24.6266 C   0  0  0  0  0  0
  -27.6067  -32.4318   25.7502 C   0  0  0  0  0  0
  -27.5598  -37.1804   24.8457 C   0  0  0  0  0  0
  -21.4258  -29.3075   22.3685 N   0  0  0  0  0  0
  -26.4318  -37.3825   23.9392 N   0  0  0  0  0  0
  -24.7071  -31.0494   22.0995 N   0  0  0  0  0  0
  -23.4207  -28.8168   23.3095 O   0  0  0  0  0  0
  -28.3031  -26.2842   20.2436 O   0  0  0  0  0  0
  -26.5637  -34.8935   22.4708 O   0  0  0  0  0  0
  -23.5477  -32.1471   23.7184 O   0  0  0  0  0  0
  -28.1111  -17.4835   20.7280 C   0  0  0  0  0  0
  -27.9597  -18.9082   20.6518 C   0  0  0  0  0  0
  -29.4383  -17.1546   20.6698 C   0  0  0  0  0  0
  -29.2027  -19.4694   20.5146 C   0  0  0  0  0  0
  -28.9323  -23.5925   20.4686 C   0  0  0  0  0  0
  -29.1127  -22.6987   17.3642 C   0  0  0  0  0  0
  -27.6925  -22.1907   17.6056 C   0  0  0  0  0  0
  -29.9232  -22.1879   18.5571 C   0  0  0  0  0  0
  -27.5908  -21.8335   19.0985 C   0  0  0  0  0  0
  -28.9694  -22.0987   19.7761 C   0  0  0  0  0  0
  -28.0421  -24.8276   19.8839 C   0  0  0  0  0  0
  -29.8093  -15.8295   21.0117 N   0  0  0  0  0  0
  -29.4687  -20.9151   20.6441 N   0  0  0  0  0  0
  -29.5913  -23.7621   21.4992 O   0  0  0  0  0  0
  -30.1580  -18.3944   20.5853 O   0  0  0  0  0  0
  -31.4793  -12.6012   19.2055 H   0  0  0  0  0  0
  -30.3650  -11.4861   19.9477 H   0  0  0  0  0  0
  -29.8204  -11.8082   17.5082 H   0  0  0  0  0  0
  -29.6494  -13.5279   17.7564 H   0  0  0  0  0  0
  -27.8942  -11.3157   18.8577 H   0  0  0  0  0  0
  -27.3944  -12.6062   17.7896 H   0  0  0  0  0  0
  -27.6552  -14.2669   19.5276 H   0  0  0  0  0  0
  -28.7491  -12.1188   21.4040 H   0  0  0  0  0  0
  -28.4192  -13.7725   21.8451 H   0  0  0  0  0  0
  -25.2743   -9.5685   22.4798 H   0  0  0  0  0  0
  -24.0009   -7.4626   22.7486 H   0  0  0  0  0  0
  -21.0852   -8.8705   19.8956 H   0  0  0  0  0  0
  -22.3676  -10.9623   19.6140 H   0  0  0  0  0  0
  -21.1965   -7.6119   23.9690 H   0  0  0  0  0  0
  -21.1555   -6.0507   25.9083 H   0  0  0  0  0  0
  -22.0565   -2.7562   23.2873 H   0  0  0  0  0  0
  -22.4069  -11.9915   22.4866 H   0  0  0  0  0  0
  -21.1028  -13.1224   22.2512 H   0  0  0  0  0  0
  -24.5789  -15.7717   20.3503 H   0  0  0  0  0  0
  -26.1645  -15.5515   19.8187 H   0  0  0  0  0  0
  -26.7248  -32.5464   23.1151 H   0  0  0  0  0  0
  -25.0096  -33.9802   25.0467 H   0  0  0  0  0  0
  -22.7379  -31.2990   21.3990 H   0  0  0  0  0  0
  -23.3825  -35.9541   23.3297 H   0  0  0  0  0  0
  -24.3590  -36.8886   22.2065 H   0  0  0  0  0  0
  -23.7147  -37.6434   23.6652 H   0  0  0  0  0  0
  -26.1382  -31.5200   20.6217 H   0  0  0  0  0  0
  -26.8648  -30.8101   22.0256 H   0  0  0  0  0  0
  -28.1309  -28.8949   21.2312 H   0  0  0  0  0  0
  -25.9609  -25.9218   18.9554 H   0  0  0  0  0  0
  -24.0006  -27.3299   18.9627 H   0  0  0  0  0  0
  -23.7784  -30.5893   19.4101 H   0  0  0  0  0  0
  -22.7791  -29.2385   19.8630 H   0  0  0  0  0  0
  -25.1315  -36.2045   25.0852 H   0  0  0  0  0  0
  -20.9984  -28.3299   24.1396 H   0  0  0  0  0  0
  -20.5746  -26.2345   23.3649 H   0  0  0  0  0  0
  -21.6645  -26.7490   22.1176 H   0  0  0  0  0  0
  -19.6914  -25.6285   21.1273 H   0  0  0  0  0  0
  -19.6646  -27.3201   20.6785 H   0  0  0  0  0  0
  -17.4222  -26.6715   21.4011 H   0  0  0  0  0  0
  -18.0238  -26.0054   22.9014 H   0  0  0  0  0  0
  -19.7929  -30.7281   24.2235 H   0  0  0  0  0  0
  -17.4995  -31.6246   24.5172 H   0  0  0  0  0  0
  -15.5324  -30.2957   23.7654 H   0  0  0  0  0  0
  -15.8682  -28.0784   22.7081 H   0  0  0  0  0  0
  -24.5792  -30.7182   25.7635 H   0  0  0  0  0  0
  -24.8798  -32.2940   26.4818 H   0  0  0  0  0  0
  -25.7809  -30.8880   27.0218 H   0  0  0  0  0  0
  -26.2963  -29.6764   24.1255 H   0  0  0  0  0  0
  -27.3991  -29.7319   25.4804 H   0  0  0  0  0  0
  -27.8834  -30.4331   23.9566 H   0  0  0  0  0  0
  -27.2766  -33.3649   26.2084 H   0  0  0  0  0  0
  -28.3841  -32.6827   25.0271 H   0  0  0  0  0  0
  -28.0782  -31.8424   26.5378 H   0  0  0  0  0  0
  -28.2632  -38.0100   24.7577 H   0  0  0  0  0  0
  -28.1091  -36.2637   24.6234 H   0  0  0  0  0  0
  -27.2298  -37.1374   25.8856 H   0  0  0  0  0  0
  -20.9486  -29.8780   21.6857 H   0  0  0  0  0  0
  -26.0224  -38.2921   24.1372 H   0  0  0  0  0  0
  -27.3110  -16.7828   20.9041 H   0  0  0  0  0  0
  -27.0286  -19.4436   20.7583 H   0  0  0  0  0  0
  -29.1271  -23.7875   17.3321 H   0  0  0  0  0  0
  -29.5167  -22.3537   16.4095 H   0  0  0  0  0  0
  -27.5140  -21.2932   17.0074 H   0  0  0  0  0  0
  -26.9466  -22.9276   17.3031 H   0  0  0  0  0  0
  -30.7847  -22.8285   18.7491 H   0  0  0  0  0  0
  -30.3263  -21.2066   18.3031 H   0  0  0  0  0  0
  -27.2704  -20.8015   19.1409 H   0  0  0  0  0  0
  -26.7844  -22.3993   19.5694 H   0  0  0  0  0  0
  -27.0325  -24.5905   20.2177 H   0  0  0  0  0  0
  -28.0221  -24.7684   18.8013 H   0  0  0  0  0  0
  -29.0556  -15.3845   21.5135 H   0  0  0  0  0  0
  -29.6829  -21.2181   21.5950 H   0  0  0  0  0  0
  1 25  1  0  0  0
  1 30  2  0  0  0
  1 82  1  0  0  0
  2  3  1  0  0  0
  2 25  1  0  0  0
  2 86  1  0  0  0
  2 87  1  0  0  0
  3  4  1  0  0  0
  3 88  1  0  0  0
  3 89  1  0  0  0
  4  5  1  0  0  0
  4 90  1  0  0  0
  4 91  1  0  0  0
  5  6  1  0  0  0
  5 26  1  0  0  0
  5 92  1  0  0  0
  6 25  1  0  0  0
  6 93  1  0  0  0
  6 94  1  0  0  0
  7  8  2  0  0  0
  7 26  1  0  0  0
  7 29  1  0  0  0
  8  9  1  0  0  0
  8 22  1  0  0  0
  9 10  1  0  0  0
  9 27  2  0  0  0
 10 11  2  0  0  0
 10 15  1  0  0  0
 11 12  1  0  0  0
 11 95  1  0  0  0
 12 13  2  0  0  0
 12 96  1  0  0  0
 13 14  1  0  0  0
 13 31  1  0  0  0
 14 15  2  0  0  0
 14 97  1  0  0  0
 15 98  1  0  0  0
 16 17  2  0  0  0
 16 21  1  0  0  0
 16 31  1  0  0  0
 17 18  1  0  0  0
 17 99  1  0  0  0
 18 19  2  0  0  0
 18100  1  0  0  0
 19 20  1  0  0  0
 19 24  1  0  0  0
 20 21  2  0  0  0
 20101  1  0  0  0
 21 23  1  0  0  0
 22 28  1  0  0  0
 22 32  2  0  0  0
 26 27  1  0  0  0
 28102  1  0  0  0
 28103  1  0  0  0
 29104  1  0  0  0
 29105  1  0  0  0
 33 34  1  0  0  0
 33 66  1  0  0  0
 33 70  2  0  0  0
 34 36  1  0  0  0
 34 59  1  0  0  0
 34106  1  0  0  0
 35 44  2  0  0  0
 35 45  1  0  0  0
 35 68  1  0  0  0
 36 56  1  0  0  0
 36107  1  0  0  0
 37 39  1  0  0  0
 37 47  1  0  0  0
 37 66  1  0  0  0
 37108  1  0  0  0
 38 43  2  0  0  0
 38 46  1  0  0  0
 38 47  1  0  0  0
 39 64  1  0  0  0
 39 67  2  0  0  0
 40 52  1  0  0  0
 40 53  2  0  0  0
 40 58  1  0  0  0
 41109  1  0  0  0
 41110  1  0  0  0
 41111  1  0  0  0
 41 48  1  0  0  0
 42 43  1  0  0  0
 42 66  1  0  0  0
 42112  1  0  0  0
 42113  1  0  0  0
 43 44  1  0  0  0
 44114  1  0  0  0
 45 46  2  0  0  0
 45115  1  0  0  0
 46116  1  0  0  0
 47117  1  0  0  0
 47118  1  0  0  0
 48 56  1  0  0  0
 48 65  1  0  0  0
 48119  1  0  0  0
 49 50  1  0  0  0
 49 53  1  0  0  0
 49 64  1  0  0  0
 49120  1  0  0  0
 50 51  1  0  0  0
 50121  1  0  0  0
 50122  1  0  0  0
 51 52  1  0  0  0
 51123  1  0  0  0
 51124  1  0  0  0
 52125  1  0  0  0
 52126  1  0  0  0
 53 54  1  0  0  0
 54 55  2  0  0  0
 54127  1  0  0  0
 55 57  1  0  0  0
 55128  1  0  0  0
 56 69  2  0  0  0
 57 58  2  0  0  0
 57129  1  0  0  0
 58130  1  0  0  0
 59 60  1  0  0  0
 59 61  1  0  0  0
 59 62  1  0  0  0
 60131  1  0  0  0
 60132  1  0  0  0
 60133  1  0  0  0
 61134  1  0  0  0
 61135  1  0  0  0
 61136  1  0  0  0
 62137  1  0  0  0
 62138  1  0  0  0
 62139  1  0  0  0
 63 65  1  0  0  0
 63140  1  0  0  0
 63141  1  0  0  0
 63142  1  0  0  0
 64143  1  0  0  0
 65144  1  0  0  0
 68 81  1  0  0  0
 71 72  1  0  0  0
 71 73  2  0  0  0
 71145  1  0  0  0
 72 74  2  0  0  0
 72146  1  0  0  0
 73 82  1  0  0  0
 73 85  1  0  0  0
 74 83  1  0  0  0
 74 85  1  0  0  0
 75 80  1  0  0  0
 75 81  1  0  0  0
 75 84  2  0  0  0
 76 77  1  0  0  0
 76 78  1  0  0  0
 76147  1  0  0  0
 76148  1  0  0  0
 77 79  1  0  0  0
 77149  1  0  0  0
 77150  1  0  0  0
 78 80  1  0  0  0
 78151  1  0  0  0
 78152  1  0  0  0
 79 80  1  0  0  0
 79153  1  0  0  0
 79154  1  0  0  0
 80 83  1  0  0  0
 81155  1  0  0  0
 81156  1  0  0  0
 82157  1  0  0  0
 83158  1  0  0  0
M  ISO  4   1 100  68 101  81 101  82 100
M  END
> <chiral flag>
0

> <version>
0

> <s_m_source_file>
/data/baiqing/PycharmProjects/Reinvent-master-3.2/result/LINK_invent/BTK/process_docking_weight1_custom_product_contain_oxygen_bond_distance_aromatic_linkinvent_7_9_3/rearranged_h_0156.sdf

> <i_m_source_file_index>
55

> <r_mmod_Potential_Energy-OPLS-2005>
419.876129150391

> <r_mmod_Stretch_Energy-OPLS-2005>
172.541152954102

> <r_mmod_Bend_Energy-OPLS-2005>
256.3330078125

> <r_mmod_Torsional_Energy-OPLS-2005>
325.98095703125

> <r_mmod_Improper_Torsional_Energy-OPLS-2005>
14.1696300506592

> <r_mmod_Van_der_Waal_Energy-OPLS-2005>
125.478973388672

> <r_mmod_Electrostatic_Energy-OPLS-2005>
-337.924652099609

> <r_mmod_Solvation_Energy-OPLS-2005>
-245.615264892578

> <b_mmod_Minimization_Converged-OPLS-2005>
0

> <r_mmod_RMS_Derivative-OPLS-2005>
5.13044691085815

$$$$
55
                    3D
 Structure written by MMmdl.
150158  0  0  1  0            999 V2000
  -30.6043  -14.7651   20.4388 C   0  0  0  0  0  0
  -30.4321  -12.4643   19.4753 C   0  0  0  0  0  0
  -29.5109  -12.5119   18.2360 C   0  0  0  0  0  0
  -28.0366  -12.3346   18.6484 C   0  0  0  0  0  0
  -27.6408  -13.2345   19.8492 C   0  0  2  0  0  0
  -28.6856  -13.1752   20.9845 C   0  0  0  0  0  0
  -25.2500  -13.8200   20.5693 C   0  0  0  0  0  0
  -24.1797  -13.0440   20.9211 C   0  0  0  0  0  0
  -24.6387  -11.6919   20.8739 C   0  0  0  0  0  0
  -23.9057  -10.4296   21.0399 C   0  0  0  0  0  0
  -24.3610   -9.4211   21.9176 C   0  0  0  0  0  0
  -23.6295   -8.2241   22.0745 C   0  0  0  0  0  0
  -22.4274   -8.0279   21.3539 C   0  0  0  0  0  0
  -21.9904   -9.0251   20.4642 C   0  0  0  0  0  0
  -22.7226  -10.2135   20.3050 C   0  0  0  0  0  0
  -21.6854   -6.0731   22.5281 C   0  0  0  0  0  0
  -21.4015   -6.5636   23.8215 C   0  0  0  0  0  0
  -21.3660   -5.6789   24.9176 C   0  0  0  0  0  0
  -21.6048   -4.3053   24.7227 C   0  0  0  0  0  0
  -21.8821   -3.8144   23.4348 C   0  0  0  0  0  0
  -21.9192   -4.6958   22.3404 C   0  0  0  0  0  0
  -22.7816  -13.5222   21.1879 C   0  0  0  0  0  0
  -22.1661   -4.2142   21.0983 F   0  0  0  0  0  0
  -21.5630   -3.4540   25.7741 F   0  0  0  0  0  0
  -29.9857  -13.5318   20.4031 N   0  0  0  0  0  0
  -26.2930  -12.9411   20.3273 N   0  0  0  0  0  0
  -25.9318  -11.6552   20.5738 N   0  0  0  0  0  0
  -22.0462  -12.8217   22.0442 N   0  0  0  0  0  0
  -25.4178  -15.1928   20.4112 N   0  0  0  0  0  0
  -31.8001  -14.8333   20.1469 O   0  0  0  0  0  0
  -21.6642   -6.8874   21.4240 O   0  0  0  0  0  0
  -22.3503  -14.5524   20.6719 O   0  0  0  0  0  0
  -24.6334  -31.8542   23.1981 C   0  0  0  0  0  0
  -25.9149  -32.4750   23.8336 C   0  0  1  0  0  0
  -27.2136  -27.2430   20.1372 C   0  0  0  0  0  0
  -25.5939  -33.8552   24.2258 N   0  0  0  0  0  0
  -23.4313  -30.4772   21.5417 C   0  0  2  0  0  0
  -24.8794  -28.9230   20.1115 C   0  0  0  0  0  0
  -22.7516  -29.4596   22.4903 C   0  0  0  0  0  0
  -18.0296  -28.1386   22.8484 C   0  0  0  0  0  0
  -24.1491  -36.7281   23.2640 C   0  0  0  0  0  0
  -25.9799  -30.7610   21.3826 C   0  0  0  0  0  0
  -26.0523  -29.3821   20.7246 C   0  0  0  0  0  0
  -27.2256  -28.5561   20.7242 C   0  0  0  0  0  0
  -26.0230  -26.8642   19.4803 C   0  0  0  0  0  0
  -24.8711  -27.6729   19.4763 C   0  0  0  0  0  0
  -23.6517  -29.8124   20.1579 C   0  0  0  0  0  0
  -25.4116  -36.3069   24.0327 C   0  0  1  0  0  0
  -20.5901  -28.3702   23.1262 C   0  0  2  0  0  0
  -20.6779  -26.9416   22.5408 C   0  0  0  0  0  0
  -19.5753  -26.6380   21.5215 C   0  0  0  0  0  0
  -18.1937  -26.7925   22.1629 C   0  0  0  0  0  0
  -19.1549  -28.8861   23.2867 C   0  0  0  0  0  0
  -18.9468  -30.1462   23.8885 C   0  0  0  0  0  0
  -17.6466  -30.6585   24.0560 C   0  0  0  0  0  0
  -25.9059  -34.9437   23.5096 C   0  0  0  0  0  0
  -16.5358  -29.9082   23.6330 C   0  0  0  0  0  0
  -16.7281  -28.6499   23.0351 C   0  0  0  0  0  0
  -26.4506  -31.6580   25.0734 C   0  0  0  0  0  0
  -25.3720  -31.3750   26.1455 C   0  0  0  0  0  0
  -27.0349  -30.2985   24.6247 C   0  0  0  0  0  0
  -27.6067  -32.4320   25.7498 C   0  0  0  0  0  0
  -27.5584  -37.1791   24.8460 C   0  0  0  0  0  0
  -21.4218  -29.3045   22.3646 N   0  0  0  0  0  0
  -26.4289  -37.3769   23.9414 N   0  0  0  0  0  0
  -24.7005  -31.0491   22.0969 N   0  0  0  0  0  0
  -23.4211  -28.8134   23.3004 O   0  0  0  0  0  0
  -28.2830  -26.3138   20.1776 O   0  0  0  0  0  0
  -26.5634  -34.8913   22.4668 O   0  0  0  0  0  0
  -23.5476  -32.1375   23.7261 O   0  0  0  0  0  0
  -30.9305  -17.8668   19.3978 C   0  0  0  0  0  0
  -30.0253  -17.3493   20.3074 C   0  0  0  0  0  0
  -29.7758  -19.6067   20.1393 C   0  0  0  0  0  0
  -28.9134  -23.6683   20.1524 C   0  0  0  0  0  0
  -31.9526  -17.2731   18.4845 C   0  0  0  0  0  0
  -28.6194  -22.1505   20.6171 C   0  0  0  0  0  0
  -27.9440  -24.8862   20.5647 C   0  0  0  0  0  0
  -29.2692  -18.4962   20.7568 N   0  0  0  0  0  0
  -29.8250  -15.9048   20.6440 N   0  0  0  0  0  0
  -29.5149  -21.0314   20.1107 N   0  0  0  0  0  0
  -29.9092  -23.8801   19.4518 O   0  0  0  0  0  0
  -30.7905  -19.2447   19.3098 O   0  0  0  0  0  0
  -31.4733  -12.5873   19.1711 H   0  0  0  0  0  0
  -30.3781  -11.4885   19.9599 H   0  0  0  0  0  0
  -29.7967  -11.7387   17.5216 H   0  0  0  0  0  0
  -29.6361  -13.4654   17.7202 H   0  0  0  0  0  0
  -27.8935  -11.2864   18.9113 H   0  0  0  0  0  0
  -27.3789  -12.5275   17.8000 H   0  0  0  0  0  0
  -27.6328  -14.2555   19.4665 H   0  0  0  0  0  0
  -28.7244  -12.1778   21.4253 H   0  0  0  0  0  0
  -28.4177  -13.8565   21.7931 H   0  0  0  0  0  0
  -25.2753   -9.5691   22.4750 H   0  0  0  0  0  0
  -24.0008   -7.4628   22.7459 H   0  0  0  0  0  0
  -21.0829   -8.8763   19.8956 H   0  0  0  0  0  0
  -22.3670  -10.9668   19.6162 H   0  0  0  0  0  0
  -21.2008   -7.6146   23.9720 H   0  0  0  0  0  0
  -21.1482   -6.0515   25.9080 H   0  0  0  0  0  0
  -22.0596   -2.7603   23.2847 H   0  0  0  0  0  0
  -22.4079  -11.9883   22.4838 H   0  0  0  0  0  0
  -21.1078  -13.1239   22.2643 H   0  0  0  0  0  0
  -24.6474  -15.8428   20.5260 H   0  0  0  0  0  0
  -26.2612  -15.6371   20.0711 H   0  0  0  0  0  0
  -26.7213  -32.5391   23.1074 H   0  0  0  0  0  0
  -25.0070  -33.9686   25.0394 H   0  0  0  0  0  0
  -22.7290  -31.3005   21.3950 H   0  0  0  0  0  0
  -23.3755  -35.9609   23.3287 H   0  0  0  0  0  0
  -24.3586  -36.8918   22.2057 H   0  0  0  0  0  0
  -23.7236  -37.6476   23.6671 H   0  0  0  0  0  0
  -26.1233  -31.5211   20.6135 H   0  0  0  0  0  0
  -26.8558  -30.8091   22.0178 H   0  0  0  0  0  0
  -28.1216  -28.9020   21.2199 H   0  0  0  0  0  0
  -25.9622  -25.9182   18.9623 H   0  0  0  0  0  0
  -23.9771  -27.3207   18.9801 H   0  0  0  0  0  0
  -23.7792  -30.5894   19.4031 H   0  0  0  0  0  0
  -22.7696  -29.2475   19.8501 H   0  0  0  0  0  0
  -25.1295  -36.1914   25.0819 H   0  0  0  0  0  0
  -20.9997  -28.3279   24.1382 H   0  0  0  0  0  0
  -20.5676  -26.2312   23.3616 H   0  0  0  0  0  0
  -21.6649  -26.7432   22.1204 H   0  0  0  0  0  0
  -19.6914  -25.6289   21.1250 H   0  0  0  0  0  0
  -19.6688  -27.3184   20.6739 H   0  0  0  0  0  0
  -17.4207  -26.6670   21.4035 H   0  0  0  0  0  0
  -18.0339  -26.0071   22.9031 H   0  0  0  0  0  0
  -19.7943  -30.7282   24.2251 H   0  0  0  0  0  0
  -17.5018  -31.6264   24.5163 H   0  0  0  0  0  0
  -15.5356  -30.2981   23.7656 H   0  0  0  0  0  0
  -15.8681  -28.0814   22.7072 H   0  0  0  0  0  0
  -24.5876  -30.7125   25.7780 H   0  0  0  0  0  0
  -24.8938  -32.2929   26.4879 H   0  0  0  0  0  0
  -25.8026  -30.8915   27.0233 H   0  0  0  0  0  0
  -26.2939  -29.6729   24.1256 H   0  0  0  0  0  0
  -27.3989  -29.7258   25.4788 H   0  0  0  0  0  0
  -27.8840  -30.4236   23.9526 H   0  0  0  0  0  0
  -27.2685  -33.3628   26.2059 H   0  0  0  0  0  0
  -28.3881  -32.6864   25.0326 H   0  0  0  0  0  0
  -28.0730  -31.8453   26.5422 H   0  0  0  0  0  0
  -28.2588  -38.0103   24.7529 H   0  0  0  0  0  0
  -28.1095  -36.2636   24.6256 H   0  0  0  0  0  0
  -27.2307  -37.1404   25.8864 H   0  0  0  0  0  0
  -20.9409  -29.8773   21.6853 H   0  0  0  0  0  0
  -26.0166  -38.2840   24.1424 H   0  0  0  0  0  0
  -31.5545  -16.4012   17.9659 H   0  0  0  0  0  0
  -32.8419  -16.9701   19.0365 H   0  0  0  0  0  0
  -32.2653  -17.9901   17.7255 H   0  0  0  0  0  0
  -27.5911  -21.9179   20.3383 H   0  0  0  0  0  0
  -28.6440  -22.1340   21.7068 H   0  0  0  0  0  0
  -27.8610  -24.8654   21.6512 H   0  0  0  0  0  0
  -26.9575  -24.6085   20.2009 H   0  0  0  0  0  0
  -28.9103  -15.6918   21.0092 H   0  0  0  0  0  0
  -30.1938  -21.4598   19.4876 H   0  0  0  0  0  0
  1 25  1  0  0  0
  1 30  2  0  0  0
  1 79  1  0  0  0
  2  3  1  0  0  0
  2 25  1  0  0  0
  2 83  1  0  0  0
  2 84  1  0  0  0
  3  4  1  0  0  0
  3 85  1  0  0  0
  3 86  1  0  0  0
  4  5  1  0  0  0
  4 87  1  0  0  0
  4 88  1  0  0  0
  5  6  1  0  0  0
  5 26  1  0  0  0
  5 89  1  0  0  0
  6 25  1  0  0  0
  6 90  1  0  0  0
  6 91  1  0  0  0
  7  8  2  0  0  0
  7 26  1  0  0  0
  7 29  1  0  0  0
  8  9  1  0  0  0
  8 22  1  0  0  0
  9 10  1  0  0  0
  9 27  2  0  0  0
 10 11  2  0  0  0
 10 15  1  0  0  0
 11 12  1  0  0  0
 11 92  1  0  0  0
 12 13  2  0  0  0
 12 93  1  0  0  0
 13 14  1  0  0  0
 13 31  1  0  0  0
 14 15  2  0  0  0
 14 94  1  0  0  0
 15 95  1  0  0  0
 16 17  2  0  0  0
 16 21  1  0  0  0
 16 31  1  0  0  0
 17 18  1  0  0  0
 17 96  1  0  0  0
 18 19  2  0  0  0
 18 97  1  0  0  0
 19 20  1  0  0  0
 19 24  1  0  0  0
 20 21  2  0  0  0
 20 98  1  0  0  0
 21 23  1  0  0  0
 22 28  1  0  0  0
 22 32  2  0  0  0
 26 27  1  0  0  0
 28 99  1  0  0  0
 28100  1  0  0  0
 29101  1  0  0  0
 29102  1  0  0  0
 33 34  1  0  0  0
 33 66  1  0  0  0
 33 70  2  0  0  0
 34 36  1  0  0  0
 34 59  1  0  0  0
 34103  1  0  0  0
 35 44  2  0  0  0
 35 45  1  0  0  0
 35 68  1  0  0  0
 36 56  1  0  0  0
 36104  1  0  0  0
 37 39  1  0  0  0
 37 47  1  0  0  0
 37 66  1  0  0  0
 37105  1  0  0  0
 38 43  2  0  0  0
 38 46  1  0  0  0
 38 47  1  0  0  0
 39 64  1  0  0  0
 39 67  2  0  0  0
 40 52  1  0  0  0
 40 53  2  0  0  0
 40 58  1  0  0  0
 41106  1  0  0  0
 41107  1  0  0  0
 41108  1  0  0  0
 41 48  1  0  0  0
 42 43  1  0  0  0
 42 66  1  0  0  0
 42109  1  0  0  0
 42110  1  0  0  0
 43 44  1  0  0  0
 44111  1  0  0  0
 45 46  2  0  0  0
 45112  1  0  0  0
 46113  1  0  0  0
 47114  1  0  0  0
 47115  1  0  0  0
 48 56  1  0  0  0
 48 65  1  0  0  0
 48116  1  0  0  0
 49 50  1  0  0  0
 49 53  1  0  0  0
 49 64  1  0  0  0
 49117  1  0  0  0
 50 51  1  0  0  0
 50118  1  0  0  0
 50119  1  0  0  0
 51 52  1  0  0  0
 51120  1  0  0  0
 51121  1  0  0  0
 52122  1  0  0  0
 52123  1  0  0  0
 53 54  1  0  0  0
 54 55  2  0  0  0
 54124  1  0  0  0
 55 57  1  0  0  0
 55125  1  0  0  0
 56 69  2  0  0  0
 57 58  2  0  0  0
 57126  1  0  0  0
 58127  1  0  0  0
 59 60  1  0  0  0
 59 61  1  0  0  0
 59 62  1  0  0  0
 60128  1  0  0  0
 60129  1  0  0  0
 60130  1  0  0  0
 61131  1  0  0  0
 61132  1  0  0  0
 61133  1  0  0  0
 62134  1  0  0  0
 62135  1  0  0  0
 62136  1  0  0  0
 63 65  1  0  0  0
 63137  1  0  0  0
 63138  1  0  0  0
 63139  1  0  0  0
 64140  1  0  0  0
 65141  1  0  0  0
 68 77  1  0  0  0
 71 72  2  0  0  0
 71 75  1  0  0  0
 71 82  1  0  0  0
 72 78  1  0  0  0
 72 79  1  0  0  0
 73 78  2  0  0  0
 73 80  1  0  0  0
 73 82  1  0  0  0
 74 76  1  0  0  0
 74 77  1  0  0  0
 74 81  2  0  0  0
 75142  1  0  0  0
 75143  1  0  0  0
 75144  1  0  0  0
 76 80  1  0  0  0
 76145  1  0  0  0
 76146  1  0  0  0
 77147  1  0  0  0
 77148  1  0  0  0
 79149  1  0  0  0
 80150  1  0  0  0
M  ISO  4   1 100  68 101  77 101  79 100
M  END
> <chiral flag>
0

> <version>
0

> <s_m_source_file>
/data/baiqing/PycharmProjects/Reinvent-master-3.2/result/LINK_invent/BTK/process_docking_weight1_custom_product_contain_oxygen_bond_distance_aromatic_linkinvent_7_9_3/rearranged_h_0156.sdf

> <i_m_source_file_index>
56

> <r_mmod_Potential_Energy-OPLS-2005>
56.6228370666504

> <r_mmod_Stretch_Energy-OPLS-2005>
126.176124572754

> <r_mmod_Bend_Energy-OPLS-2005>
189.779830932617

> <r_mmod_Torsional_Energy-OPLS-2005>
219.710311889648

> <r_mmod_Improper_Torsional_Energy-OPLS-2005>
3.99388861656189

> <r_mmod_Van_der_Waal_Energy-OPLS-2005>
118.008728027344

> <r_mmod_Electrostatic_Energy-OPLS-2005>
-458.006713867188

> <r_mmod_Solvation_Energy-OPLS-2005>
-239.95524597168

> <b_mmod_Minimization_Converged-OPLS-2005>
0

> <r_mmod_RMS_Derivative-OPLS-2005>
0.867332100868225

$$$$
56
                    3D
 Structure written by MMmdl.
152161  0  0  1  0            999 V2000
  -30.6107  -14.7408   20.4308 C   0  0  0  0  0  0
  -30.4333  -12.4459   19.4732 C   0  0  0  0  0  0
  -29.5121  -12.4759   18.2366 C   0  0  0  0  0  0
  -28.0357  -12.3208   18.6543 C   0  0  0  0  0  0
  -27.6394  -13.2307   19.8471 C   0  0  2  0  0  0
  -28.6850  -13.1787   20.9770 C   0  0  0  0  0  0
  -25.2535  -13.8197   20.5711 C   0  0  0  0  0  0
  -24.1805  -13.0451   20.9208 C   0  0  0  0  0  0
  -24.6384  -11.6932   20.8742 C   0  0  0  0  0  0
  -23.9068  -10.4305   21.0389 C   0  0  0  0  0  0
  -24.3614   -9.4224   21.9170 C   0  0  0  0  0  0
  -23.6293   -8.2256   22.0753 C   0  0  0  0  0  0
  -22.4280   -8.0276   21.3539 C   0  0  0  0  0  0
  -21.9906   -9.0254   20.4656 C   0  0  0  0  0  0
  -22.7228  -10.2148   20.3059 C   0  0  0  0  0  0
  -21.6865   -6.0732   22.5272 C   0  0  0  0  0  0
  -21.4012   -6.5644   23.8202 C   0  0  0  0  0  0
  -21.3659   -5.6802   24.9165 C   0  0  0  0  0  0
  -21.6042   -4.3061   24.7220 C   0  0  0  0  0  0
  -21.8821   -3.8158   23.4343 C   0  0  0  0  0  0
  -21.9207   -4.6967   22.3403 C   0  0  0  0  0  0
  -22.7834  -13.5251   21.1871 C   0  0  0  0  0  0
  -22.1691   -4.2156   21.0977 F   0  0  0  0  0  0
  -21.5634   -3.4558   25.7736 F   0  0  0  0  0  0
  -29.9772  -13.5223   20.3769 N   0  0  0  0  0  0
  -26.2937  -12.9382   20.3296 N   0  0  0  0  0  0
  -25.9315  -11.6527   20.5764 N   0  0  0  0  0  0
  -22.0467  -12.8235   22.0419 N   0  0  0  0  0  0
  -25.4312  -15.1897   20.4141 N   0  0  0  0  0  0
  -31.8279  -14.8039   20.2176 O   0  0  0  0  0  0
  -21.6660   -6.8856   21.4224 O   0  0  0  0  0  0
  -22.3535  -14.5571   20.6738 O   0  0  0  0  0  0
  -24.6313  -31.8546   23.1977 C   0  0  0  0  0  0
  -25.9127  -32.4748   23.8321 C   0  0  1  0  0  0
  -27.2159  -27.2693   20.1307 C   0  0  0  0  0  0
  -25.5941  -33.8554   24.2256 N   0  0  0  0  0  0
  -23.4296  -30.4771   21.5431 C   0  0  2  0  0  0
  -24.8732  -28.9227   20.1126 C   0  0  0  0  0  0
  -22.7510  -29.4590   22.4918 C   0  0  0  0  0  0
  -18.0294  -28.1379   22.8476 C   0  0  0  0  0  0
  -24.1486  -36.7287   23.2637 C   0  0  0  0  0  0
  -25.9740  -30.7719   21.3739 C   0  0  0  0  0  0
  -26.0453  -29.3942   20.7172 C   0  0  0  0  0  0
  -27.2239  -28.5817   20.7087 C   0  0  0  0  0  0
  -26.0255  -26.8612   19.4979 C   0  0  0  0  0  0
  -24.8676  -27.6638   19.4876 C   0  0  0  0  0  0
  -23.6449  -29.8114   20.1591 C   0  0  0  0  0  0
  -25.4110  -36.3067   24.0318 C   0  0  1  0  0  0
  -20.5905  -28.3694   23.1271 C   0  0  2  0  0  0
  -20.6780  -26.9407   22.5416 C   0  0  0  0  0  0
  -19.5761  -26.6377   21.5218 C   0  0  0  0  0  0
  -18.1932  -26.7917   22.1619 C   0  0  0  0  0  0
  -19.1550  -28.8849   23.2866 C   0  0  0  0  0  0
  -18.9459  -30.1446   23.8895 C   0  0  0  0  0  0
  -17.6466  -30.6577   24.0552 C   0  0  0  0  0  0
  -25.9056  -34.9441   23.5088 C   0  0  0  0  0  0
  -16.5351  -29.9078   23.6337 C   0  0  0  0  0  0
  -16.7275  -28.6492   23.0348 C   0  0  0  0  0  0
  -26.4504  -31.6579   25.0724 C   0  0  0  0  0  0
  -25.3730  -31.3728   26.1458 C   0  0  0  0  0  0
  -27.0355  -30.2996   24.6204 C   0  0  0  0  0  0
  -27.6054  -32.4338   25.7500 C   0  0  0  0  0  0
  -27.5564  -37.1800   24.8456 C   0  0  0  0  0  0
  -21.4213  -29.3035   22.3649 N   0  0  0  0  0  0
  -26.4284  -37.3765   23.9399 N   0  0  0  0  0  0
  -24.6977  -31.0529   22.0943 N   0  0  0  0  0  0
  -23.4201  -28.8108   23.3013 O   0  0  0  0  0  0
  -28.3094  -26.3813   20.1363 O   0  0  0  0  0  0
  -26.5629  -34.8909   22.4661 O   0  0  0  0  0  0
  -23.5467  -32.1366   23.7277 O   0  0  0  0  0  0
  -29.0273  -18.7963   19.7168 C   0  0  0  0  0  0
  -29.5426  -18.4633   20.9337 C   0  0  0  0  0  0
  -29.0032  -20.9642   20.5861 C   0  0  0  0  0  0
  -28.7761  -17.6956   18.7263 C   0  0  0  0  0  0
  -29.9307  -17.0178   21.3670 C   0  0  0  0  0  0
  -29.6961  -16.4437   18.9485 C   0  0  0  0  0  0
  -28.6432  -23.6580   19.9093 C   0  0  0  0  0  0
  -28.1108  -24.9906   20.6667 C   0  0  0  0  0  0
  -28.7496  -20.1876   19.5096 N   0  0  0  0  0  0
  -29.8391  -15.9032   20.3376 N   0  0  0  0  0  0
  -28.8143  -22.3912   20.7275 N   0  0  0  0  0  0
  -29.6526  -19.9383   21.9160 S   0  0  0  0  0  0
  -31.4747  -12.5719   19.1705 H   0  0  0  0  0  0
  -30.3823  -11.4804   19.9754 H   0  0  0  0  0  0
  -29.7859  -11.6781   17.5484 H   0  0  0  0  0  0
  -29.6520  -13.4059   17.6893 H   0  0  0  0  0  0
  -27.8853  -11.2769   18.9254 H   0  0  0  0  0  0
  -27.3801  -12.5056   17.8047 H   0  0  0  0  0  0
  -27.6265  -14.2487   19.4596 H   0  0  0  0  0  0
  -28.7209  -12.1875   21.4271 H   0  0  0  0  0  0
  -28.4230  -13.8781   21.7733 H   0  0  0  0  0  0
  -25.2740   -9.5728   22.4759 H   0  0  0  0  0  0
  -24.0025   -7.4667   22.7485 H   0  0  0  0  0  0
  -21.0832   -8.8749   19.8979 H   0  0  0  0  0  0
  -22.3641  -10.9685   19.6186 H   0  0  0  0  0  0
  -21.1995   -7.6158   23.9706 H   0  0  0  0  0  0
  -21.1489   -6.0538   25.9065 H   0  0  0  0  0  0
  -22.0610   -2.7628   23.2855 H   0  0  0  0  0  0
  -22.4091  -11.9924   22.4862 H   0  0  0  0  0  0
  -21.1107  -13.1316   22.2657 H   0  0  0  0  0  0
  -24.6824  -15.8586   20.5517 H   0  0  0  0  0  0
  -26.3025  -15.6257   20.1363 H   0  0  0  0  0  0
  -26.7201  -32.5404   23.1068 H   0  0  0  0  0  0
  -25.0107  -33.9693   25.0409 H   0  0  0  0  0  0
  -22.7251  -31.2983   21.3947 H   0  0  0  0  0  0
  -23.3743  -35.9627   23.3312 H   0  0  0  0  0  0
  -24.3583  -36.8915   22.2054 H   0  0  0  0  0  0
  -23.7253  -37.6490   23.6671 H   0  0  0  0  0  0
  -26.1143  -31.5308   20.6036 H   0  0  0  0  0  0
  -26.8511  -30.8190   22.0079 H   0  0  0  0  0  0
  -28.1258  -28.9427   21.1810 H   0  0  0  0  0  0
  -25.9894  -25.8973   19.0121 H   0  0  0  0  0  0
  -23.9727  -27.2983   19.0045 H   0  0  0  0  0  0
  -23.7683  -30.5874   19.4013 H   0  0  0  0  0  0
  -22.7640  -29.2431   19.8550 H   0  0  0  0  0  0
  -25.1295  -36.1915   25.0812 H   0  0  0  0  0  0
  -20.9981  -28.3256   24.1395 H   0  0  0  0  0  0
  -20.5689  -26.2283   23.3604 H   0  0  0  0  0  0
  -21.6639  -26.7418   22.1197 H   0  0  0  0  0  0
  -19.6914  -25.6289   21.1240 H   0  0  0  0  0  0
  -19.6703  -27.3184   20.6745 H   0  0  0  0  0  0
  -17.4201  -26.6664   21.4011 H   0  0  0  0  0  0
  -18.0309  -26.0070   22.9030 H   0  0  0  0  0  0
  -19.7941  -30.7266   24.2246 H   0  0  0  0  0  0
  -17.5020  -31.6257   24.5152 H   0  0  0  0  0  0
  -15.5353  -30.2972   23.7671 H   0  0  0  0  0  0
  -15.8667  -28.0818   22.7065 H   0  0  0  0  0  0
  -24.5903  -30.7074   25.7794 H   0  0  0  0  0  0
  -24.8921  -32.2900   26.4875 H   0  0  0  0  0  0
  -25.8069  -30.8918   27.0234 H   0  0  0  0  0  0
  -26.2933  -29.6750   24.1227 H   0  0  0  0  0  0
  -27.4033  -29.7263   25.4721 H   0  0  0  0  0  0
  -27.8813  -30.4278   23.9447 H   0  0  0  0  0  0
  -27.2646  -33.3642   26.2058 H   0  0  0  0  0  0
  -28.3876  -32.6907   25.0340 H   0  0  0  0  0  0
  -28.0711  -31.8481   26.5443 H   0  0  0  0  0  0
  -28.2585  -38.0087   24.7515 H   0  0  0  0  0  0
  -28.1068  -36.2639   24.6289 H   0  0  0  0  0  0
  -27.2298  -37.1443   25.8859 H   0  0  0  0  0  0
  -20.9372  -29.8787   21.6887 H   0  0  0  0  0  0
  -26.0165  -38.2836   24.1413 H   0  0  0  0  0  0
  -28.9040  -18.0637   17.7068 H   0  0  0  0  0  0
  -27.7340  -17.3814   18.7998 H   0  0  0  0  0  0
  -29.2922  -16.7279   22.2040 H   0  0  0  0  0  0
  -30.9422  -17.0396   21.7766 H   0  0  0  0  0  0
  -30.6977  -16.7073   18.6017 H   0  0  0  0  0  0
  -29.3490  -15.6532   18.2797 H   0  0  0  0  0  0
  -29.6178  -23.8874   19.4769 H   0  0  0  0  0  0
  -27.9951  -23.4439   19.0565 H   0  0  0  0  0  0
  -28.6042  -25.0133   21.6393 H   0  0  0  0  0  0
  -27.0573  -24.8354   20.9068 H   0  0  0  0  0  0
  -28.9785  -22.6446   21.6983 H   0  0  0  0  0  0
  1 25  1  0  0  0
  1 30  2  0  0  0
  1 80  1  0  0  0
  2  3  1  0  0  0
  2 25  1  0  0  0
  2 83  1  0  0  0
  2 84  1  0  0  0
  3  4  1  0  0  0
  3 85  1  0  0  0
  3 86  1  0  0  0
  4  5  1  0  0  0
  4 87  1  0  0  0
  4 88  1  0  0  0
  5  6  1  0  0  0
  5 26  1  0  0  0
  5 89  1  0  0  0
  6 25  1  0  0  0
  6 90  1  0  0  0
  6 91  1  0  0  0
  7  8  2  0  0  0
  7 26  1  0  0  0
  7 29  1  0  0  0
  8  9  1  0  0  0
  8 22  1  0  0  0
  9 10  1  0  0  0
  9 27  2  0  0  0
 10 11  2  0  0  0
 10 15  1  0  0  0
 11 12  1  0  0  0
 11 92  1  0  0  0
 12 13  2  0  0  0
 12 93  1  0  0  0
 13 14  1  0  0  0
 13 31  1  0  0  0
 14 15  2  0  0  0
 14 94  1  0  0  0
 15 95  1  0  0  0
 16 17  2  0  0  0
 16 21  1  0  0  0
 16 31  1  0  0  0
 17 18  1  0  0  0
 17 96  1  0  0  0
 18 19  2  0  0  0
 18 97  1  0  0  0
 19 20  1  0  0  0
 19 24  1  0  0  0
 20 21  2  0  0  0
 20 98  1  0  0  0
 21 23  1  0  0  0
 22 28  1  0  0  0
 22 32  2  0  0  0
 26 27  1  0  0  0
 28 99  1  0  0  0
 28100  1  0  0  0
 29101  1  0  0  0
 29102  1  0  0  0
 33 34  1  0  0  0
 33 66  1  0  0  0
 33 70  2  0  0  0
 34 36  1  0  0  0
 34 59  1  0  0  0
 34103  1  0  0  0
 35 44  2  0  0  0
 35 45  1  0  0  0
 35 68  1  0  0  0
 36 56  1  0  0  0
 36104  1  0  0  0
 37 39  1  0  0  0
 37 47  1  0  0  0
 37 66  1  0  0  0
 37105  1  0  0  0
 38 43  2  0  0  0
 38 46  1  0  0  0
 38 47  1  0  0  0
 39 64  1  0  0  0
 39 67  2  0  0  0
 40 52  1  0  0  0
 40 53  2  0  0  0
 40 58  1  0  0  0
 41106  1  0  0  0
 41107  1  0  0  0
 41108  1  0  0  0
 41 48  1  0  0  0
 42 43  1  0  0  0
 42 66  1  0  0  0
 42109  1  0  0  0
 42110  1  0  0  0
 43 44  1  0  0  0
 44111  1  0  0  0
 45 46  2  0  0  0
 45112  1  0  0  0
 46113  1  0  0  0
 47114  1  0  0  0
 47115  1  0  0  0
 48 56  1  0  0  0
 48 65  1  0  0  0
 48116  1  0  0  0
 49 50  1  0  0  0
 49 53  1  0  0  0
 49 64  1  0  0  0
 49117  1  0  0  0
 50 51  1  0  0  0
 50118  1  0  0  0
 50119  1  0  0  0
 51 52  1  0  0  0
 51120  1  0  0  0
 51121  1  0  0  0
 52122  1  0  0  0
 52123  1  0  0  0
 53 54  1  0  0  0
 54 55  2  0  0  0
 54124  1  0  0  0
 55 57  1  0  0  0
 55125  1  0  0  0
 56 69  2  0  0  0
 57 58  2  0  0  0
 57126  1  0  0  0
 58127  1  0  0  0
 59 60  1  0  0  0
 59 61  1  0  0  0
 59 62  1  0  0  0
 60128  1  0  0  0
 60129  1  0  0  0
 60130  1  0  0  0
 61131  1  0  0  0
 61132  1  0  0  0
 61133  1  0  0  0
 62134  1  0  0  0
 62135  1  0  0  0
 62136  1  0  0  0
 63 65  1  0  0  0
 63137  1  0  0  0
 63138  1  0  0  0
 63139  1  0  0  0
 64140  1  0  0  0
 65141  1  0  0  0
 68 78  1  0  0  0
 71 72  2  0  0  0
 71 74  1  0  0  0
 71 79  1  0  0  0
 72 75  1  0  0  0
 72 82  1  0  0  0
 73 79  2  0  0  0
 73 81  1  0  0  0
 73 82  1  0  0  0
 74 76  1  0  0  0
 74142  1  0  0  0
 74143  1  0  0  0
 75 80  1  0  0  0
 75144  1  0  0  0
 75145  1  0  0  0
 76 80  1  0  0  0
 76146  1  0  0  0
 76147  1  0  0  0
 77 78  1  0  0  0
 77 81  1  0  0  0
 77148  1  0  0  0
 77149  1  0  0  0
 78150  1  0  0  0
 78151  1  0  0  0
 81152  1  0  0  0
M  ISO  4   1 100  68 101  78 101  80 100
M  END
> <chiral flag>
0

> <version>
0

> <s_m_source_file>
/data/baiqing/PycharmProjects/Reinvent-master-3.2/result/LINK_invent/BTK/process_docking_weight1_custom_product_contain_oxygen_bond_distance_aromatic_linkinvent_7_9_3/rearranged_h_0156.sdf

> <i_m_source_file_index>
57

> <r_mmod_Potential_Energy-OPLS-2005>
235.953399658203

> <r_mmod_Stretch_Energy-OPLS-2005>
107.650421142578

> <r_mmod_Bend_Energy-OPLS-2005>
166.767837524414

> <r_mmod_Torsional_Energy-OPLS-2005>
312.561065673828

> <r_mmod_Improper_Torsional_Energy-OPLS-2005>
13.9306726455688

> <r_mmod_Van_der_Waal_Energy-OPLS-2005>
115.167503356934

> <r_mmod_Electrostatic_Energy-OPLS-2005>
-343.728271484375

> <r_mmod_Solvation_Energy-OPLS-2005>
-221.954956054688

> <b_mmod_Minimization_Converged-OPLS-2005>
0

> <r_mmod_RMS_Derivative-OPLS-2005>
3.70635294914246

$$$$
57
                    3D
 Structure written by MMmdl.
152161  0  0  1  0            999 V2000
  -30.6445  -14.8515   20.4432 C   0  0  0  0  0  0
  -30.4176  -12.5348   19.4853 C   0  0  0  0  0  0
  -29.5055  -12.5129   18.2417 C   0  0  0  0  0  0
  -28.0392  -12.3154   18.6643 C   0  0  0  0  0  0
  -27.6273  -13.2472   19.8354 C   0  0  2  0  0  0
  -28.6734  -13.2691   20.9706 C   0  0  0  0  0  0
  -25.2425  -13.8207   20.5694 C   0  0  0  0  0  0
  -24.1757  -13.0429   20.9237 C   0  0  0  0  0  0
  -24.6382  -11.6923   20.8768 C   0  0  0  0  0  0
  -23.9078  -10.4287   21.0416 C   0  0  0  0  0  0
  -24.3626   -9.4204   21.9191 C   0  0  0  0  0  0
  -23.6300   -8.2239   22.0754 C   0  0  0  0  0  0
  -22.4279   -8.0283   21.3545 C   0  0  0  0  0  0
  -21.9921   -9.0256   20.4641 C   0  0  0  0  0  0
  -22.7256  -10.2133   20.3058 C   0  0  0  0  0  0
  -21.6852   -6.0743   22.5282 C   0  0  0  0  0  0
  -21.4012   -6.5643   23.8217 C   0  0  0  0  0  0
  -21.3654   -5.6794   24.9176 C   0  0  0  0  0  0
  -21.6043   -4.3058   24.7225 C   0  0  0  0  0  0
  -21.8818   -3.8153   23.4344 C   0  0  0  0  0  0
  -21.9190   -4.6971   22.3402 C   0  0  0  0  0  0
  -22.7776  -13.5201   21.1892 C   0  0  0  0  0  0
  -22.1663   -4.2157   21.0980 F   0  0  0  0  0  0
  -21.5627   -3.4541   25.7734 F   0  0  0  0  0  0
  -29.9527  -13.6487   20.3597 N   0  0  0  0  0  0
  -26.2867  -12.9458   20.3248 N   0  0  0  0  0  0
  -25.9317  -11.6588   20.5756 N   0  0  0  0  0  0
  -22.0411  -12.8193   22.0437 N   0  0  0  0  0  0
  -25.4019  -15.1923   20.4061 N   0  0  0  0  0  0
  -31.8511  -14.8118   20.1780 O   0  0  0  0  0  0
  -21.6639   -6.8887   21.4243 O   0  0  0  0  0  0
  -22.3467  -14.5512   20.6733 O   0  0  0  0  0  0
  -24.6386  -31.8501   23.1931 C   0  0  0  0  0  0
  -25.9178  -32.4728   23.8299 C   0  0  1  0  0  0
  -27.2079  -27.1881   20.1426 C   0  0  0  0  0  0
  -25.5947  -33.8529   24.2223 N   0  0  0  0  0  0
  -23.4386  -30.4716   21.5389 C   0  0  2  0  0  0
  -24.8864  -28.9100   20.1097 C   0  0  0  0  0  0
  -22.7544  -29.4572   22.4889 C   0  0  0  0  0  0
  -18.0298  -28.1396   22.8482 C   0  0  0  0  0  0
  -24.1488  -36.7265   23.2639 C   0  0  0  0  0  0
  -25.9913  -30.7399   21.3844 C   0  0  0  0  0  0
  -26.0629  -29.3557   20.7272 C   0  0  0  0  0  0
  -27.2287  -28.5092   20.7300 C   0  0  0  0  0  0
  -26.0147  -26.8425   19.4720 C   0  0  0  0  0  0
  -24.8722  -27.6653   19.4663 C   0  0  0  0  0  0
  -23.6610  -29.8049   20.1562 C   0  0  0  0  0  0
  -25.4118  -36.3053   24.0323 C   0  0  1  0  0  0
  -20.5909  -28.3713   23.1252 C   0  0  2  0  0  0
  -20.6782  -26.9426   22.5402 C   0  0  0  0  0  0
  -19.5754  -26.6391   21.5212 C   0  0  0  0  0  0
  -18.1935  -26.7936   22.1623 C   0  0  0  0  0  0
  -19.1554  -28.8872   23.2859 C   0  0  0  0  0  0
  -18.9470  -30.1467   23.8882 C   0  0  0  0  0  0
  -17.6470  -30.6593   24.0563 C   0  0  0  0  0  0
  -25.9068  -34.9427   23.5080 C   0  0  0  0  0  0
  -16.5360  -29.9086   23.6339 C   0  0  0  0  0  0
  -16.7282  -28.6502   23.0362 C   0  0  0  0  0  0
  -26.4514  -31.6566   25.0713 C   0  0  0  0  0  0
  -25.3709  -31.3751   26.1419 C   0  0  0  0  0  0
  -27.0352  -30.2964   24.6245 C   0  0  0  0  0  0
  -27.6066  -32.4306   25.7491 C   0  0  0  0  0  0
  -27.5579  -37.1789   24.8459 C   0  0  0  0  0  0
  -21.4243  -29.3045   22.3632 N   0  0  0  0  0  0
  -26.4284  -37.3764   23.9415 N   0  0  0  0  0  0
  -24.7091  -31.0404   22.0944 N   0  0  0  0  0  0
  -23.4213  -28.8122   23.3017 O   0  0  0  0  0  0
  -28.2492  -26.2066   20.1925 O   0  0  0  0  0  0
  -26.5648  -34.8913   22.4654 O   0  0  0  0  0  0
  -23.5516  -32.1347   23.7185 O   0  0  0  0  0  0
  -29.8933  -20.1223   20.0477 C   0  0  0  0  0  0
  -29.8851  -18.6486   20.2353 C   0  0  0  0  0  0
  -28.8104  -18.1992   20.8867 C   0  0  0  0  0  0
  -28.7804  -20.8198   20.5693 C   0  0  0  0  0  0
  -28.7935  -23.4605   20.2689 C   0  0  0  0  0  0
  -30.7293  -17.3907   19.9233 C   0  0  0  0  0  0
  -28.7878  -16.6756   21.0835 C   0  0  0  0  0  0
  -27.7025  -24.8573   22.1544 C   0  0  0  0  0  0
  -27.8793  -24.7761   20.6281 C   0  0  1  0  0  0
  -30.0244  -16.1289   20.4259 N   0  0  0  0  0  0
  -28.3450  -22.1784   20.6292 N   0  0  0  0  0  0
  -29.8658  -23.6153   19.6789 O   0  0  0  0  0  0
  -27.7405  -19.5474   21.3048 S   0  0  0  0  0  0
  -31.4578  -12.6445   19.1745 H   0  0  0  0  0  0
  -30.3713  -11.5833   20.0173 H   0  0  0  0  0  0
  -29.8113  -11.7170   17.5613 H   0  0  0  0  0  0
  -29.6091  -13.4482   17.6889 H   0  0  0  0  0  0
  -27.9275  -11.2739   18.9679 H   0  0  0  0  0  0
  -27.3731  -12.4566   17.8124 H   0  0  0  0  0  0
  -27.5932  -14.2487   19.4070 H   0  0  0  0  0  0
  -28.7438  -12.2944   21.4562 H   0  0  0  0  0  0
  -28.3877  -13.9793   21.7466 H   0  0  0  0  0  0
  -25.2765   -9.5691   22.4778 H   0  0  0  0  0  0
  -24.0010   -7.4632   22.7476 H   0  0  0  0  0  0
  -21.0859   -8.8781   19.8942 H   0  0  0  0  0  0
  -22.3721  -10.9675   19.6174 H   0  0  0  0  0  0
  -21.2009   -7.6153   23.9723 H   0  0  0  0  0  0
  -21.1477   -6.0522   25.9082 H   0  0  0  0  0  0
  -22.0601   -2.7617   23.2835 H   0  0  0  0  0  0
  -22.4016  -11.9849   22.4833 H   0  0  0  0  0  0
  -21.1031  -13.1230   22.2634 H   0  0  0  0  0  0
  -24.6251  -15.8361   20.5111 H   0  0  0  0  0  0
  -26.2327  -15.6330   20.0352 H   0  0  0  0  0  0
  -26.7241  -32.5356   23.1030 H   0  0  0  0  0  0
  -25.0081  -33.9649   25.0362 H   0  0  0  0  0  0
  -22.7382  -31.2960   21.3905 H   0  0  0  0  0  0
  -23.3764  -35.9582   23.3278 H   0  0  0  0  0  0
  -24.3586  -36.8918   22.2059 H   0  0  0  0  0  0
  -23.7220  -37.6450   23.6681 H   0  0  0  0  0  0
  -26.1371  -31.4956   20.6112 H   0  0  0  0  0  0
  -26.8661  -30.7922   22.0207 H   0  0  0  0  0  0
  -28.1250  -28.8418   21.2342 H   0  0  0  0  0  0
  -25.9406  -25.9009   18.9493 H   0  0  0  0  0  0
  -23.9773  -27.3263   18.9623 H   0  0  0  0  0  0
  -23.7912  -30.5804   19.4005 H   0  0  0  0  0  0
  -22.7773  -29.2423   19.8496 H   0  0  0  0  0  0
  -25.1303  -36.1887   25.0815 H   0  0  0  0  0  0
  -20.9999  -28.3291   24.1377 H   0  0  0  0  0  0
  -20.5684  -26.2327   23.3612 H   0  0  0  0  0  0
  -21.6647  -26.7441   22.1200 H   0  0  0  0  0  0
  -19.6915  -25.6298   21.1250 H   0  0  0  0  0  0
  -19.6691  -27.3192   20.6735 H   0  0  0  0  0  0
  -17.4210  -26.6688   21.4020 H   0  0  0  0  0  0
  -18.0331  -26.0079   22.9020 H   0  0  0  0  0  0
  -19.7946  -30.7284   24.2247 H   0  0  0  0  0  0
  -17.5026  -31.6271   24.5166 H   0  0  0  0  0  0
  -15.5359  -30.2986   23.7669 H   0  0  0  0  0  0
  -15.8684  -28.0816   22.7092 H   0  0  0  0  0  0
  -24.5872  -30.7120   25.7735 H   0  0  0  0  0  0
  -24.8915  -32.2935   26.4814 H   0  0  0  0  0  0
  -25.7994  -30.8932   27.0214 H   0  0  0  0  0  0
  -26.2939  -29.6710   24.1255 H   0  0  0  0  0  0
  -27.3984  -29.7238   25.4787 H   0  0  0  0  0  0
  -27.8849  -30.4207   23.9528 H   0  0  0  0  0  0
  -27.2684  -33.3629   26.2022 H   0  0  0  0  0  0
  -28.3902  -32.6821   25.0334 H   0  0  0  0  0  0
  -28.0698  -31.8449   26.5441 H   0  0  0  0  0  0
  -28.2581  -38.0105   24.7535 H   0  0  0  0  0  0
  -28.1096  -36.2638   24.6247 H   0  0  0  0  0  0
  -27.2307  -37.1391   25.8864 H   0  0  0  0  0  0
  -20.9444  -29.8760   21.6819 H   0  0  0  0  0  0
  -26.0156  -38.2834   24.1431 H   0  0  0  0  0  0
  -30.7120  -20.6082   19.5353 H   0  0  0  0  0  0
  -31.7124  -17.4718   20.3896 H   0  0  0  0  0  0
  -30.8948  -17.2964   18.8488 H   0  0  0  0  0  0
  -27.9002  -16.2462   20.6268 H   0  0  0  0  0  0
  -28.7825  -16.4212   22.1441 H   0  0  0  0  0  0
  -27.4508  -23.8910   22.5919 H   0  0  0  0  0  0
  -26.9018  -25.5472   22.4214 H   0  0  0  0  0  0
  -28.6179  -25.2078   22.6307 H   0  0  0  0  0  0
  -26.9098  -24.5132   20.2111 H   0  0  0  0  0  0
  -27.4470  -22.2578   21.0881 H   0  0  0  0  0  0
  1 25  1  0  0  0
  1 30  2  0  0  0
  1 80  1  0  0  0
  2  3  1  0  0  0
  2 25  1  0  0  0
  2 84  1  0  0  0
  2 85  1  0  0  0
  3  4  1  0  0  0
  3 86  1  0  0  0
  3 87  1  0  0  0
  4  5  1  0  0  0
  4 88  1  0  0  0
  4 89  1  0  0  0
  5  6  1  0  0  0
  5 26  1  0  0  0
  5 90  1  0  0  0
  6 25  1  0  0  0
  6 91  1  0  0  0
  6 92  1  0  0  0
  7  8  2  0  0  0
  7 26  1  0  0  0
  7 29  1  0  0  0
  8  9  1  0  0  0
  8 22  1  0  0  0
  9 10  1  0  0  0
  9 27  2  0  0  0
 10 11  2  0  0  0
 10 15  1  0  0  0
 11 12  1  0  0  0
 11 93  1  0  0  0
 12 13  2  0  0  0
 12 94  1  0  0  0
 13 14  1  0  0  0
 13 31  1  0  0  0
 14 15  2  0  0  0
 14 95  1  0  0  0
 15 96  1  0  0  0
 16 17  2  0  0  0
 16 21  1  0  0  0
 16 31  1  0  0  0
 17 18  1  0  0  0
 17 97  1  0  0  0
 18 19  2  0  0  0
 18 98  1  0  0  0
 19 20  1  0  0  0
 19 24  1  0  0  0
 20 21  2  0  0  0
 20 99  1  0  0  0
 21 23  1  0  0  0
 22 28  1  0  0  0
 22 32  2  0  0  0
 26 27  1  0  0  0
 28100  1  0  0  0
 28101  1  0  0  0
 29102  1  0  0  0
 29103  1  0  0  0
 33 34  1  0  0  0
 33 66  1  0  0  0
 33 70  2  0  0  0
 34 36  1  0  0  0
 34 59  1  0  0  0
 34104  1  0  0  0
 35 44  2  0  0  0
 35 45  1  0  0  0
 35 68  1  0  0  0
 36 56  1  0  0  0
 36105  1  0  0  0
 37 39  1  0  0  0
 37 47  1  0  0  0
 37 66  1  0  0  0
 37106  1  0  0  0
 38 43  2  0  0  0
 38 46  1  0  0  0
 38 47  1  0  0  0
 39 64  1  0  0  0
 39 67  2  0  0  0
 40 52  1  0  0  0
 40 53  2  0  0  0
 40 58  1  0  0  0
 41107  1  0  0  0
 41108  1  0  0  0
 41109  1  0  0  0
 41 48  1  0  0  0
 42 43  1  0  0  0
 42 66  1  0  0  0
 42110  1  0  0  0
 42111  1  0  0  0
 43 44  1  0  0  0
 44112  1  0  0  0
 45 46  2  0  0  0
 45113  1  0  0  0
 46114  1  0  0  0
 47115  1  0  0  0
 47116  1  0  0  0
 48 56  1  0  0  0
 48 65  1  0  0  0
 48117  1  0  0  0
 49 50  1  0  0  0
 49 53  1  0  0  0
 49 64  1  0  0  0
 49118  1  0  0  0
 50 51  1  0  0  0
 50119  1  0  0  0
 50120  1  0  0  0
 51 52  1  0  0  0
 51121  1  0  0  0
 51122  1  0  0  0
 52123  1  0  0  0
 52124  1  0  0  0
 53 54  1  0  0  0
 54 55  2  0  0  0
 54125  1  0  0  0
 55 57  1  0  0  0
 55126  1  0  0  0
 56 69  2  0  0  0
 57 58  2  0  0  0
 57127  1  0  0  0
 58128  1  0  0  0
 59 60  1  0  0  0
 59 61  1  0  0  0
 59 62  1  0  0  0
 60129  1  0  0  0
 60130  1  0  0  0
 60131  1  0  0  0
 61132  1  0  0  0
 61133  1  0  0  0
 61134  1  0  0  0
 62135  1  0  0  0
 62136  1  0  0  0
 62137  1  0  0  0
 63 65  1  0  0  0
 63138  1  0  0  0
 63139  1  0  0  0
 63140  1  0  0  0
 64141  1  0  0  0
 65142  1  0  0  0
 68 79  1  0  0  0
 71 72  1  0  0  0
 71 74  2  0  0  0
 71143  1  0  0  0
 72 73  2  0  0  0
 72 76  1  0  0  0
 73 77  1  0  0  0
 73 83  1  0  0  0
 74 81  1  0  0  0
 74 83  1  0  0  0
 75 79  1  0  0  0
 75 81  1  0  0  0
 75 82  2  0  0  0
 76 80  1  0  0  0
 76144  1  0  0  0
 76145  1  0  0  0
 77 80  1  0  0  0
 77146  1  0  0  0
 77147  1  0  0  0
 78148  1  0  0  0
 78149  1  0  0  0
 78150  1  0  0  0
 78 79  1  0  0  0
 79151  1  0  0  0
 81152  1  0  0  0
M  ISO  4   1 100  68 101  79 101  80 100
M  END
> <chiral flag>
0

> <version>
0

> <s_m_source_file>
/data/baiqing/PycharmProjects/Reinvent-master-3.2/result/LINK_invent/BTK/process_docking_weight1_custom_product_contain_oxygen_bond_distance_aromatic_linkinvent_7_9_3/rearranged_h_0156.sdf

> <i_m_source_file_index>
58

> <r_mmod_Potential_Energy-OPLS-2005>
429.358520507812

> <r_mmod_Stretch_Energy-OPLS-2005>
171.014114379883

> <r_mmod_Bend_Energy-OPLS-2005>
304.940521240234

> <r_mmod_Torsional_Energy-OPLS-2005>
265.746551513672

> <r_mmod_Improper_Torsional_Energy-OPLS-2005>
11.2973318099976

> <r_mmod_Van_der_Waal_Energy-OPLS-2005>
109.147407531738

> <r_mmod_Electrostatic_Energy-OPLS-2005>
-341.321075439453

> <r_mmod_Solvation_Energy-OPLS-2005>
-235.37776184082

> <b_mmod_Minimization_Converged-OPLS-2005>
0

> <r_mmod_RMS_Derivative-OPLS-2005>
1.06882512569427

$$$$
58
                    3D
 Structure written by MMmdl.
150158  0  0  1  0            999 V2000
  -30.5985  -14.7228   20.4718 C   0  0  0  0  0  0
  -30.4357  -12.4442   19.4626 C   0  0  0  0  0  0
  -29.5092  -12.5189   18.2282 C   0  0  0  0  0  0
  -28.0348  -12.3446   18.6408 C   0  0  0  0  0  0
  -27.6468  -13.2259   19.8590 C   0  0  2  0  0  0
  -28.6919  -13.1304   20.9928 C   0  0  0  0  0  0
  -25.2506  -13.8141   20.5690 C   0  0  0  0  0  0
  -24.1815  -13.0389   20.9240 C   0  0  0  0  0  0
  -24.6424  -11.6876   20.8756 C   0  0  0  0  0  0
  -23.9096  -10.4259   21.0410 C   0  0  0  0  0  0
  -24.3650   -9.4172   21.9182 C   0  0  0  0  0  0
  -23.6307   -8.2216   22.0758 C   0  0  0  0  0  0
  -22.4274   -8.0264   21.3555 C   0  0  0  0  0  0
  -21.9926   -9.0233   20.4643 C   0  0  0  0  0  0
  -22.7276  -10.2105   20.3047 C   0  0  0  0  0  0
  -21.6837   -6.0725   22.5276 C   0  0  0  0  0  0
  -21.4009   -6.5634   23.8210 C   0  0  0  0  0  0
  -21.3667   -5.6782   24.9166 C   0  0  0  0  0  0
  -21.6059   -4.3051   24.7207 C   0  0  0  0  0  0
  -21.8817   -3.8145   23.4325 C   0  0  0  0  0  0
  -21.9197   -4.6957   22.3390 C   0  0  0  0  0  0
  -22.7841  -13.5182   21.1880 C   0  0  0  0  0  0
  -22.1658   -4.2151   21.0962 F   0  0  0  0  0  0
  -21.5642   -3.4537   25.7722 F   0  0  0  0  0  0
  -29.9926  -13.4880   20.4132 N   0  0  0  0  0  0
  -26.2962  -12.9366   20.3318 N   0  0  0  0  0  0
  -25.9353  -11.6504   20.5772 N   0  0  0  0  0  0
  -22.0457  -12.8181   22.0431 N   0  0  0  0  0  0
  -25.4105  -15.1852   20.3981 N   0  0  0  0  0  0
  -31.7793  -14.8532   20.1403 O   0  0  0  0  0  0
  -21.6631   -6.8873   21.4241 O   0  0  0  0  0  0
  -22.3551  -14.5481   20.6703 O   0  0  0  0  0  0
  -24.6301  -31.8569   23.1946 C   0  0  0  0  0  0
  -25.9135  -32.4768   23.8321 C   0  0  1  0  0  0
  -27.2268  -27.2706   20.1464 C   0  0  0  0  0  0
  -25.5919  -33.8561   24.2247 N   0  0  0  0  0  0
  -23.4296  -30.4773   21.5329 C   0  0  2  0  0  0
  -24.8823  -28.9195   20.1111 C   0  0  0  0  0  0
  -22.7483  -29.4646   22.4862 C   0  0  0  0  0  0
  -18.0274  -28.1369   22.8453 C   0  0  0  0  0  0
  -24.1478  -36.7284   23.2641 C   0  0  0  0  0  0
  -25.9726  -30.7778   21.3706 C   0  0  0  0  0  0
  -26.0522  -29.3987   20.7167 C   0  0  0  0  0  0
  -27.2353  -28.5898   20.7120 C   0  0  0  0  0  0
  -26.0366  -26.8493   19.5240 C   0  0  0  0  0  0
  -24.8802  -27.6548   19.4994 C   0  0  0  0  0  0
  -23.6547  -29.8071   20.1505 C   0  0  0  0  0  0
  -25.4110  -36.3066   24.0322 C   0  0  1  0  0  0
  -20.5882  -28.3719   23.1204 C   0  0  2  0  0  0
  -20.6802  -26.9408   22.5435 C   0  0  0  0  0  0
  -19.5731  -26.6152   21.5352 C   0  0  0  0  0  0
  -18.1897  -26.7862   22.1694 C   0  0  0  0  0  0
  -19.1524  -28.8862   23.2795 C   0  0  0  0  0  0
  -18.9402  -30.1439   23.8862 C   0  0  0  0  0  0
  -17.6390  -30.6548   24.0534 C   0  0  0  0  0  0
  -25.9054  -34.9436   23.5081 C   0  0  0  0  0  0
  -16.5296  -29.9029   23.6308 C   0  0  0  0  0  0
  -16.7246  -28.6439   23.0376 C   0  0  0  0  0  0
  -26.4490  -31.6581   25.0702 C   0  0  0  0  0  0
  -25.3697  -31.3754   26.1407 C   0  0  0  0  0  0
  -27.0340  -30.2990   24.6197 C   0  0  0  0  0  0
  -27.6027  -32.4333   25.7492 C   0  0  0  0  0  0
  -27.5565  -37.1802   24.8470 C   0  0  0  0  0  0
  -21.4192  -29.3037   22.3563 N   0  0  0  0  0  0
  -26.4278  -37.3774   23.9404 N   0  0  0  0  0  0
  -24.6950  -31.0563   22.0903 N   0  0  0  0  0  0
  -23.4173  -28.8257   23.3051 O   0  0  0  0  0  0
  -28.3106  -26.3724   20.1554 O   0  0  0  0  0  0
  -26.5644  -34.8923   22.4658 O   0  0  0  0  0  0
  -23.5451  -32.1382   23.7245 O   0  0  0  0  0  0
  -29.5409  -19.9963   20.5749 C   0  0  0  0  0  0
  -27.8133  -18.4160   20.0040 C   0  0  0  0  0  0
  -27.3387  -20.7008   19.8947 C   0  0  0  0  0  0
  -29.1545  -18.6025   20.4069 C   0  0  0  0  0  0
  -28.6216  -21.1000   20.3240 C   0  0  0  0  0  0
  -28.2450  -23.6710   20.0620 C   0  0  0  0  0  0
  -30.1144  -17.3301   20.6304 C   0  0  0  0  0  0
  -28.1386  -25.0572   20.8656 C   0  0  0  0  0  0
  -26.9445  -19.4165   19.7522 N   0  0  0  0  0  0
  -28.8682  -22.5452   20.5967 N   0  0  0  0  0  0
  -29.7947  -15.8298   20.6977 N   0  0  0  0  0  0
  -27.7195  -23.6124   18.9471 O   0  0  0  0  0  0
  -31.4766  -12.5785   19.1604 H   0  0  0  0  0  0
  -30.3819  -11.4572   19.9216 H   0  0  0  0  0  0
  -29.7877  -11.7561   17.5015 H   0  0  0  0  0  0
  -29.6392  -13.4804   17.7262 H   0  0  0  0  0  0
  -27.8852  -11.2922   18.8834 H   0  0  0  0  0  0
  -27.3792  -12.5597   17.7958 H   0  0  0  0  0  0
  -27.6464  -14.2553   19.5009 H   0  0  0  0  0  0
  -28.7270  -12.1224   21.4083 H   0  0  0  0  0  0
  -28.4344  -13.7920   21.8203 H   0  0  0  0  0  0
  -25.2784   -9.5612   22.4780 H   0  0  0  0  0  0
  -23.9978   -7.4602   22.7495 H   0  0  0  0  0  0
  -21.0852   -8.8774   19.8961 H   0  0  0  0  0  0
  -22.3750  -10.9643   19.6164 H   0  0  0  0  0  0
  -21.1995   -7.6141   23.9708 H   0  0  0  0  0  0
  -21.1501   -6.0514   25.9076 H   0  0  0  0  0  0
  -22.0600   -2.7604   23.2815 H   0  0  0  0  0  0
  -22.4048  -11.9866   22.4887 H   0  0  0  0  0  0
  -21.1065  -13.1216   22.2578 H   0  0  0  0  0  0
  -24.6014  -15.7967   20.4351 H   0  0  0  0  0  0
  -26.2010  -15.6059   19.9319 H   0  0  0  0  0  0
  -26.7220  -32.5435   23.1085 H   0  0  0  0  0  0
  -25.0016  -33.9707   25.0358 H   0  0  0  0  0  0
  -22.7265  -31.2990   21.3771 H   0  0  0  0  0  0
  -23.3737  -35.9622   23.3317 H   0  0  0  0  0  0
  -24.3561  -36.8903   22.2053 H   0  0  0  0  0  0
  -23.7251  -37.6490   23.6675 H   0  0  0  0  0  0
  -26.1018  -31.5420   20.6038 H   0  0  0  0  0  0
  -26.8512  -30.8350   22.0008 H   0  0  0  0  0  0
  -28.1372  -28.9596   21.1798 H   0  0  0  0  0  0
  -26.0009  -25.8704   19.0691 H   0  0  0  0  0  0
  -23.9865  -27.2785   19.0217 H   0  0  0  0  0  0
  -23.7931  -30.5816   19.3944 H   0  0  0  0  0  0
  -22.7770  -29.2435   19.8342 H   0  0  0  0  0  0
  -25.1295  -36.1891   25.0821 H   0  0  0  0  0  0
  -20.9995  -28.3350   24.1308 H   0  0  0  0  0  0
  -20.5825  -26.2361   23.3724 H   0  0  0  0  0  0
  -21.6635  -26.7476   22.1139 H   0  0  0  0  0  0
  -19.6867  -25.5933   21.1738 H   0  0  0  0  0  0
  -19.6684  -27.2665   20.6670 H   0  0  0  0  0  0
  -17.4151  -26.6559   21.4096 H   0  0  0  0  0  0
  -18.0260  -26.0122   22.9198 H   0  0  0  0  0  0
  -19.7831  -30.7314   24.2213 H   0  0  0  0  0  0
  -17.4900  -31.6206   24.5136 H   0  0  0  0  0  0
  -15.5294  -30.2933   23.7632 H   0  0  0  0  0  0
  -15.8669  -28.0667   22.7195 H   0  0  0  0  0  0
  -24.5887  -30.7086   25.7735 H   0  0  0  0  0  0
  -24.8861  -32.2934   26.4765 H   0  0  0  0  0  0
  -25.7992  -30.8979   27.0221 H   0  0  0  0  0  0
  -26.2931  -29.6738   24.1195 H   0  0  0  0  0  0
  -27.3991  -29.7261   25.4736 H   0  0  0  0  0  0
  -27.8825  -30.4260   23.9466 H   0  0  0  0  0  0
  -27.2624  -33.3657   26.2019 H   0  0  0  0  0  0
  -28.3874  -32.6861   25.0344 H   0  0  0  0  0  0
  -28.0653  -31.8482   26.5454 H   0  0  0  0  0  0
  -28.2586  -38.0091   24.7481 H   0  0  0  0  0  0
  -28.1054  -36.2613   24.6331 H   0  0  0  0  0  0
  -27.2281  -37.1499   25.8876 H   0  0  0  0  0  0
  -20.9423  -29.8610   21.6595 H   0  0  0  0  0  0
  -26.0142  -38.2836   24.1425 H   0  0  0  0  0  0
  -30.5466  -20.2118   20.9038 H   0  0  0  0  0  0
  -27.4217  -17.4168   19.8682 H   0  0  0  0  0  0
  -26.5646  -21.4304   19.7158 H   0  0  0  0  0  0
  -29.8546  -17.1383   19.5861 H   0  0  0  0  0  0
  -29.5684  -17.2799   21.5752 H   0  0  0  0  0  0
  -28.8332  -25.0193   21.7036 H   0  0  0  0  0  0
  -27.1461  -25.0455   21.3220 H   0  0  0  0  0  0
  -29.4644  -22.7372   21.3919 H   0  0  0  0  0  0
  -28.8431  -15.5959   20.9419 H   0  0  0  0  0  0
  1 25  1  0  0  0
  1 30  2  0  0  0
  1 81  1  0  0  0
  2  3  1  0  0  0
  2 25  1  0  0  0
  2 83  1  0  0  0
  2 84  1  0  0  0
  3  4  1  0  0  0
  3 85  1  0  0  0
  3 86  1  0  0  0
  4  5  1  0  0  0
  4 87  1  0  0  0
  4 88  1  0  0  0
  5  6  1  0  0  0
  5 26  1  0  0  0
  5 89  1  0  0  0
  6 25  1  0  0  0
  6 90  1  0  0  0
  6 91  1  0  0  0
  7  8  2  0  0  0
  7 26  1  0  0  0
  7 29  1  0  0  0
  8  9  1  0  0  0
  8 22  1  0  0  0
  9 10  1  0  0  0
  9 27  2  0  0  0
 10 11  2  0  0  0
 10 15  1  0  0  0
 11 12  1  0  0  0
 11 92  1  0  0  0
 12 13  2  0  0  0
 12 93  1  0  0  0
 13 14  1  0  0  0
 13 31  1  0  0  0
 14 15  2  0  0  0
 14 94  1  0  0  0
 15 95  1  0  0  0
 16 17  2  0  0  0
 16 21  1  0  0  0
 16 31  1  0  0  0
 17 18  1  0  0  0
 17 96  1  0  0  0
 18 19  2  0  0  0
 18 97  1  0  0  0
 19 20  1  0  0  0
 19 24  1  0  0  0
 20 21  2  0  0  0
 20 98  1  0  0  0
 21 23  1  0  0  0
 22 28  1  0  0  0
 22 32  2  0  0  0
 26 27  1  0  0  0
 28 99  1  0  0  0
 28100  1  0  0  0
 29101  1  0  0  0
 29102  1  0  0  0
 33 34  1  0  0  0
 33 66  1  0  0  0
 33 70  2  0  0  0
 34 36  1  0  0  0
 34 59  1  0  0  0
 34103  1  0  0  0
 35 44  2  0  0  0
 35 45  1  0  0  0
 35 68  1  0  0  0
 36 56  1  0  0  0
 36104  1  0  0  0
 37 39  1  0  0  0
 37 47  1  0  0  0
 37 66  1  0  0  0
 37105  1  0  0  0
 38 43  2  0  0  0
 38 46  1  0  0  0
 38 47  1  0  0  0
 39 64  1  0  0  0
 39 67  2  0  0  0
 40 52  1  0  0  0
 40 53  2  0  0  0
 40 58  1  0  0  0
 41106  1  0  0  0
 41107  1  0  0  0
 41108  1  0  0  0
 41 48  1  0  0  0
 42 43  1  0  0  0
 42 66  1  0  0  0
 42109  1  0  0  0
 42110  1  0  0  0
 43 44  1  0  0  0
 44111  1  0  0  0
 45 46  2  0  0  0
 45112  1  0  0  0
 46113  1  0  0  0
 47114  1  0  0  0
 47115  1  0  0  0
 48 56  1  0  0  0
 48 65  1  0  0  0
 48116  1  0  0  0
 49 50  1  0  0  0
 49 53  1  0  0  0
 49 64  1  0  0  0
 49117  1  0  0  0
 50 51  1  0  0  0
 50118  1  0  0  0
 50119  1  0  0  0
 51 52  1  0  0  0
 51120  1  0  0  0
 51121  1  0  0  0
 52122  1  0  0  0
 52123  1  0  0  0
 53 54  1  0  0  0
 54 55  2  0  0  0
 54124  1  0  0  0
 55 57  1  0  0  0
 55125  1  0  0  0
 56 69  2  0  0  0
 57 58  2  0  0  0
 57126  1  0  0  0
 58127  1  0  0  0
 59 60  1  0  0  0
 59 61  1  0  0  0
 59 62  1  0  0  0
 60128  1  0  0  0
 60129  1  0  0  0
 60130  1  0  0  0
 61131  1  0  0  0
 61132  1  0  0  0
 61133  1  0  0  0
 62134  1  0  0  0
 62135  1  0  0  0
 62136  1  0  0  0
 63 65  1  0  0  0
 63137  1  0  0  0
 63138  1  0  0  0
 63139  1  0  0  0
 64140  1  0  0  0
 65141  1  0  0  0
 68 78  1  0  0  0
 71 74  2  0  0  0
 71 75  1  0  0  0
 71142  1  0  0  0
 72 74  1  0  0  0
 72 79  2  0  0  0
 72143  1  0  0  0
 73 75  2  0  0  0
 73 79  1  0  0  0
 73144  1  0  0  0
 74 77  1  0  0  0
 75 80  1  0  0  0
 76 78  1  0  0  0
 76 80  1  0  0  0
 76 82  2  0  0  0
 77 81  1  0  0  0
 77145  1  0  0  0
 77146  1  0  0  0
 78147  1  0  0  0
 78148  1  0  0  0
 80149  1  0  0  0
 81150  1  0  0  0
M  ISO  4   1 100  68 101  78 101  81 100
M  END
> <chiral flag>
0

> <version>
0

> <s_m_source_file>
/data/baiqing/PycharmProjects/Reinvent-master-3.2/result/LINK_invent/BTK/process_docking_weight1_custom_product_contain_oxygen_bond_distance_aromatic_linkinvent_7_9_3/rearranged_h_0156.sdf

> <i_m_source_file_index>
59

> <r_mmod_Potential_Energy-OPLS-2005>
197.101303100586

> <r_mmod_Stretch_Energy-OPLS-2005>
124.146514892578

> <r_mmod_Bend_Energy-OPLS-2005>
352.954223632812

> <r_mmod_Torsional_Energy-OPLS-2005>
247.349426269531

> <r_mmod_Improper_Torsional_Energy-OPLS-2005>
6.6838812828064

> <r_mmod_Van_der_Waal_Energy-OPLS-2005>
137.504104614258

> <r_mmod_Electrostatic_Energy-OPLS-2005>
-495.053863525391

> <r_mmod_Solvation_Energy-OPLS-2005>
-253.880432128906

> <b_mmod_Minimization_Converged-OPLS-2005>
0

> <r_mmod_RMS_Derivative-OPLS-2005>
4.01271343231201

$$$$
59
                    3D
 Structure written by MMmdl.
153161  0  0  1  0            999 V2000
  -30.6079  -14.7153   20.4736 C   0  0  0  0  0  0
  -30.4329  -12.4345   19.4736 C   0  0  0  0  0  0
  -29.5102  -12.5115   18.2368 C   0  0  0  0  0  0
  -28.0345  -12.3402   18.6467 C   0  0  0  0  0  0
  -27.6458  -13.2278   19.8589 C   0  0  2  0  0  0
  -28.6891  -13.1322   20.9951 C   0  0  0  0  0  0
  -25.2522  -13.8193   20.5697 C   0  0  0  0  0  0
  -24.1806  -13.0443   20.9204 C   0  0  0  0  0  0
  -24.6391  -11.6919   20.8745 C   0  0  0  0  0  0
  -23.9067  -10.4295   21.0407 C   0  0  0  0  0  0
  -24.3618   -9.4211   21.9185 C   0  0  0  0  0  0
  -23.6293   -8.2246   22.0755 C   0  0  0  0  0  0
  -22.4276   -8.0282   21.3544 C   0  0  0  0  0  0
  -21.9912   -9.0255   20.4647 C   0  0  0  0  0  0
  -22.7239  -10.2135   20.3056 C   0  0  0  0  0  0
  -21.6854   -6.0736   22.5278 C   0  0  0  0  0  0
  -21.4015   -6.5640   23.8212 C   0  0  0  0  0  0
  -21.3660   -5.6792   24.9174 C   0  0  0  0  0  0
  -21.6045   -4.3055   24.7224 C   0  0  0  0  0  0
  -21.8819   -3.8147   23.4345 C   0  0  0  0  0  0
  -21.9193   -4.6964   22.3402 C   0  0  0  0  0  0
  -22.7827  -13.5228   21.1863 C   0  0  0  0  0  0
  -22.1660   -4.2151   21.0979 F   0  0  0  0  0  0
  -21.5631   -3.4538   25.7735 F   0  0  0  0  0  0
  -29.9968  -13.4831   20.4244 N   0  0  0  0  0  0
  -26.2950  -12.9392   20.3307 N   0  0  0  0  0  0
  -25.9322  -11.6538   20.5761 N   0  0  0  0  0  0
  -22.0471  -12.8219   22.0418 N   0  0  0  0  0  0
  -25.4219  -15.1918   20.4112 N   0  0  0  0  0  0
  -31.7722  -14.8285   20.0860 O   0  0  0  0  0  0
  -21.6640   -6.8878   21.4240 O   0  0  0  0  0  0
  -22.3516  -14.5536   20.6712 O   0  0  0  0  0  0
  -24.6299  -31.8551   23.1986 C   0  0  0  0  0  0
  -25.9135  -32.4750   23.8326 C   0  0  1  0  0  0
  -27.2277  -27.2789   20.1191 C   0  0  0  0  0  0
  -25.5938  -33.8553   24.2254 N   0  0  0  0  0  0
  -23.4248  -30.4770   21.5409 C   0  0  2  0  0  0
  -24.8716  -28.9221   20.1080 C   0  0  0  0  0  0
  -22.7487  -29.4604   22.4918 C   0  0  0  0  0  0
  -18.0288  -28.1388   22.8485 C   0  0  0  0  0  0
  -24.1487  -36.7278   23.2641 C   0  0  0  0  0  0
  -25.9676  -30.7725   21.3743 C   0  0  0  0  0  0
  -26.0395  -29.3959   20.7166 C   0  0  0  0  0  0
  -27.2152  -28.5841   20.7141 C   0  0  0  0  0  0
  -26.0324  -26.8596   19.4931 C   0  0  0  0  0  0
  -24.8721  -27.6615   19.4882 C   0  0  0  0  0  0
  -23.6410  -29.8077   20.1569 C   0  0  0  0  0  0
  -25.4114  -36.3066   24.0328 C   0  0  1  0  0  0
  -20.5889  -28.3697   23.1273 C   0  0  2  0  0  0
  -20.6774  -26.9415   22.5410 C   0  0  0  0  0  0
  -19.5751  -26.6384   21.5212 C   0  0  0  0  0  0
  -18.1931  -26.7932   22.1622 C   0  0  0  0  0  0
  -19.1541  -28.8860   23.2872 C   0  0  0  0  0  0
  -18.9464  -30.1461   23.8891 C   0  0  0  0  0  0
  -17.6463  -30.6590   24.0563 C   0  0  0  0  0  0
  -25.9056  -34.9438   23.5092 C   0  0  0  0  0  0
  -16.5354  -29.9087   23.6335 C   0  0  0  0  0  0
  -16.7275  -28.6506   23.0354 C   0  0  0  0  0  0
  -26.4507  -31.6577   25.0714 C   0  0  0  0  0  0
  -25.3737  -31.3723   26.1439 C   0  0  0  0  0  0
  -27.0365  -30.3001   24.6198 C   0  0  0  0  0  0
  -27.6060  -32.4322   25.7488 C   0  0  0  0  0  0
  -27.5574  -37.1794   24.8467 C   0  0  0  0  0  0
  -21.4197  -29.3042   22.3661 N   0  0  0  0  0  0
  -26.4287  -37.3768   23.9413 N   0  0  0  0  0  0
  -24.6931  -31.0530   22.0947 N   0  0  0  0  0  0
  -23.4192  -28.8156   23.3023 O   0  0  0  0  0  0
  -28.3561  -26.4371   20.2035 O   0  0  0  0  0  0
  -26.5623  -34.8917   22.4658 O   0  0  0  0  0  0
  -23.5455  -32.1364   23.7298 O   0  0  0  0  0  0
  -30.6517  -19.5071   20.3554 C   0  0  0  0  0  0
  -31.0064  -18.0972   20.4724 C   0  0  0  0  0  0
  -29.3189  -19.8116   20.4983 C   0  0  0  0  0  0
  -29.9375  -17.2112   20.6474 C   0  0  0  0  0  0
  -32.4193  -17.7400   20.5007 C   0  0  0  0  0  0
  -28.4016  -23.7755   20.4470 C   0  0  0  0  0  0
  -33.2277  -18.1704   19.2838 C   0  0  0  0  0  0
  -29.1120  -22.4110   19.9851 C   0  0  0  0  0  0
  -28.4656  -25.0945   19.5451 C   0  0  0  0  0  0
  -29.8150  -15.8098   20.7890 N   0  0  0  0  0  0
  -28.6292  -21.0867   20.5464 N   0  0  0  0  0  0
  -32.9917  -17.1633   21.4301 O   0  0  0  0  0  0
  -27.7779  -23.7908   21.5136 O   0  0  0  0  0  0
  -28.4808  -18.2545   20.7274 S   0  0  0  0  0  0
  -31.4750  -12.5537   19.1728 H   0  0  0  0  0  0
  -30.3709  -11.4502   19.9407 H   0  0  0  0  0  0
  -29.7875  -11.7469   17.5099 H   0  0  0  0  0  0
  -29.6431  -13.4719   17.7365 H   0  0  0  0  0  0
  -27.8824  -11.2891   18.8950 H   0  0  0  0  0  0
  -27.3794  -12.5488   17.7998 H   0  0  0  0  0  0
  -27.6488  -14.2548   19.4938 H   0  0  0  0  0  0
  -28.7151  -12.1246   21.4123 H   0  0  0  0  0  0
  -28.4249  -13.7929   21.8221 H   0  0  0  0  0  0
  -25.2762   -9.5688   22.4760 H   0  0  0  0  0  0
  -24.0004   -7.4637   22.7475 H   0  0  0  0  0  0
  -21.0844   -8.8771   19.8951 H   0  0  0  0  0  0
  -22.3696  -10.9673   19.6165 H   0  0  0  0  0  0
  -21.2005   -7.6148   23.9717 H   0  0  0  0  0  0
  -21.1484   -6.0521   25.9077 H   0  0  0  0  0  0
  -22.0597   -2.7608   23.2843 H   0  0  0  0  0  0
  -22.4087  -11.9878   22.4800 H   0  0  0  0  0  0
  -21.1091  -13.1246   22.2629 H   0  0  0  0  0  0
  -24.6506  -15.8419   20.5171 H   0  0  0  0  0  0
  -26.2631  -15.6316   20.0610 H   0  0  0  0  0  0
  -26.7201  -32.5398   23.1066 H   0  0  0  0  0  0
  -25.0106  -33.9690   25.0412 H   0  0  0  0  0  0
  -22.7208  -31.2989   21.3949 H   0  0  0  0  0  0
  -23.3753  -35.9606   23.3301 H   0  0  0  0  0  0
  -24.3577  -36.8904   22.2057 H   0  0  0  0  0  0
  -23.7237  -37.6476   23.6667 H   0  0  0  0  0  0
  -26.1043  -31.5340   20.6052 H   0  0  0  0  0  0
  -26.8464  -30.8211   22.0059 H   0  0  0  0  0  0
  -28.1104  -28.9425   21.2031 H   0  0  0  0  0  0
  -25.9534  -25.8883   19.0307 H   0  0  0  0  0  0
  -23.9737  -27.2899   19.0148 H   0  0  0  0  0  0
  -23.7629  -30.5830   19.3996 H   0  0  0  0  0  0
  -22.7593  -29.2399   19.8543 H   0  0  0  0  0  0
  -25.1297  -36.1909   25.0820 H   0  0  0  0  0  0
  -20.9980  -28.3279   24.1393 H   0  0  0  0  0  0
  -20.5674  -26.2308   23.3615 H   0  0  0  0  0  0
  -21.6642  -26.7441   22.1203 H   0  0  0  0  0  0
  -19.6914  -25.6294   21.1247 H   0  0  0  0  0  0
  -19.6693  -27.3190   20.6738 H   0  0  0  0  0  0
  -17.4200  -26.6683   21.4024 H   0  0  0  0  0  0
  -18.0330  -26.0072   22.9015 H   0  0  0  0  0  0
  -19.7941  -30.7281   24.2254 H   0  0  0  0  0  0
  -17.5019  -31.6270   24.5165 H   0  0  0  0  0  0
  -15.5356  -30.2989   23.7664 H   0  0  0  0  0  0
  -15.8673  -28.0825   22.7072 H   0  0  0  0  0  0
  -24.5921  -30.7059   25.7772 H   0  0  0  0  0  0
  -24.8919  -32.2890   26.4852 H   0  0  0  0  0  0
  -25.8063  -30.8916   27.0223 H   0  0  0  0  0  0
  -26.2951  -29.6734   24.1227 H   0  0  0  0  0  0
  -27.4063  -29.7277   25.4716 H   0  0  0  0  0  0
  -27.8818  -30.4287   23.9432 H   0  0  0  0  0  0
  -27.2669  -33.3632   26.2043 H   0  0  0  0  0  0
  -28.3880  -32.6864   25.0320 H   0  0  0  0  0  0
  -28.0714  -31.8461   26.5421 H   0  0  0  0  0  0
  -28.2591  -38.0091   24.7513 H   0  0  0  0  0  0
  -28.1071  -36.2624   24.6295 H   0  0  0  0  0  0
  -27.2293  -37.1443   25.8870 H   0  0  0  0  0  0
  -20.9383  -29.8754   21.6856 H   0  0  0  0  0  0
  -26.0162  -38.2840   24.1418 H   0  0  0  0  0  0
  -31.4175  -20.2592   20.2294 H   0  0  0  0  0  0
  -32.5910  -18.2233   18.4007 H   0  0  0  0  0  0
  -34.0248  -17.4538   19.0886 H   0  0  0  0  0  0
  -33.6729  -19.1501   19.4531 H   0  0  0  0  0  0
  -30.1744  -22.5149   20.2079 H   0  0  0  0  0  0
  -29.0397  -22.3628   18.8980 H   0  0  0  0  0  0
  -27.7561  -24.9915   18.7274 H   0  0  0  0  0  0
  -29.4424  -25.0771   19.0621 H   0  0  0  0  0  0
  -28.8909  -15.5154   21.0679 H   0  0  0  0  0  0
  -27.6353  -21.0827   20.7692 H   0  0  0  0  0  0
  1 25  1  0  0  0
  1 30  2  0  0  0
  1 80  1  0  0  0
  2  3  1  0  0  0
  2 25  1  0  0  0
  2 85  1  0  0  0
  2 86  1  0  0  0
  3  4  1  0  0  0
  3 87  1  0  0  0
  3 88  1  0  0  0
  4  5  1  0  0  0
  4 89  1  0  0  0
  4 90  1  0  0  0
  5  6  1  0  0  0
  5 26  1  0  0  0
  5 91  1  0  0  0
  6 25  1  0  0  0
  6 92  1  0  0  0
  6 93  1  0  0  0
  7  8  2  0  0  0
  7 26  1  0  0  0
  7 29  1  0  0  0
  8  9  1  0  0  0
  8 22  1  0  0  0
  9 10  1  0  0  0
  9 27  2  0  0  0
 10 11  2  0  0  0
 10 15  1  0  0  0
 11 12  1  0  0  0
 11 94  1  0  0  0
 12 13  2  0  0  0
 12 95  1  0  0  0
 13 14  1  0  0  0
 13 31  1  0  0  0
 14 15  2  0  0  0
 14 96  1  0  0  0
 15 97  1  0  0  0
 16 17  2  0  0  0
 16 21  1  0  0  0
 16 31  1  0  0  0
 17 18  1  0  0  0
 17 98  1  0  0  0
 18 19  2  0  0  0
 18 99  1  0  0  0
 19 20  1  0  0  0
 19 24  1  0  0  0
 20 21  2  0  0  0
 20100  1  0  0  0
 21 23  1  0  0  0
 22 28  1  0  0  0
 22 32  2  0  0  0
 26 27  1  0  0  0
 28101  1  0  0  0
 28102  1  0  0  0
 29103  1  0  0  0
 29104  1  0  0  0
 33 34  1  0  0  0
 33 66  1  0  0  0
 33 70  2  0  0  0
 34 36  1  0  0  0
 34 59  1  0  0  0
 34105  1  0  0  0
 35 44  2  0  0  0
 35 45  1  0  0  0
 35 68  1  0  0  0
 36 56  1  0  0  0
 36106  1  0  0  0
 37 39  1  0  0  0
 37 47  1  0  0  0
 37 66  1  0  0  0
 37107  1  0  0  0
 38 43  2  0  0  0
 38 46  1  0  0  0
 38 47  1  0  0  0
 39 64  1  0  0  0
 39 67  2  0  0  0
 40 52  1  0  0  0
 40 53  2  0  0  0
 40 58  1  0  0  0
 41108  1  0  0  0
 41109  1  0  0  0
 41110  1  0  0  0
 41 48  1  0  0  0
 42 43  1  0  0  0
 42 66  1  0  0  0
 42111  1  0  0  0
 42112  1  0  0  0
 43 44  1  0  0  0
 44113  1  0  0  0
 45 46  2  0  0  0
 45114  1  0  0  0
 46115  1  0  0  0
 47116  1  0  0  0
 47117  1  0  0  0
 48 56  1  0  0  0
 48 65  1  0  0  0
 48118  1  0  0  0
 49 50  1  0  0  0
 49 53  1  0  0  0
 49 64  1  0  0  0
 49119  1  0  0  0
 50 51  1  0  0  0
 50120  1  0  0  0
 50121  1  0  0  0
 51 52  1  0  0  0
 51122  1  0  0  0
 51123  1  0  0  0
 52124  1  0  0  0
 52125  1  0  0  0
 53 54  1  0  0  0
 54 55  2  0  0  0
 54126  1  0  0  0
 55 57  1  0  0  0
 55127  1  0  0  0
 56 69  2  0  0  0
 57 58  2  0  0  0
 57128  1  0  0  0
 58129  1  0  0  0
 59 60  1  0  0  0
 59 61  1  0  0  0
 59 62  1  0  0  0
 60130  1  0  0  0
 60131  1  0  0  0
 60132  1  0  0  0
 61133  1  0  0  0
 61134  1  0  0  0
 61135  1  0  0  0
 62136  1  0  0  0
 62137  1  0  0  0
 62138  1  0  0  0
 63 65  1  0  0  0
 63139  1  0  0  0
 63140  1  0  0  0
 63141  1  0  0  0
 64142  1  0  0  0
 65143  1  0  0  0
 68 79  1  0  0  0
 71 72  1  0  0  0
 71 73  2  0  0  0
 71144  1  0  0  0
 72 74  2  0  0  0
 72 75  1  0  0  0
 73 81  1  0  0  0
 73 84  1  0  0  0
 74 80  1  0  0  0
 74 84  1  0  0  0
 75 77  1  0  0  0
 75 82  2  0  0  0
 76 78  1  0  0  0
 76 79  1  0  0  0
 76 83  2  0  0  0
 77145  1  0  0  0
 77146  1  0  0  0
 77147  1  0  0  0
 78 81  1  0  0  0
 78148  1  0  0  0
 78149  1  0  0  0
 79150  1  0  0  0
 79151  1  0  0  0
 80152  1  0  0  0
 81153  1  0  0  0
M  ISO  4   1 100  68 101  79 101  80 100
M  END
> <chiral flag>
0

> <version>
0

> <s_m_source_file>
/data/baiqing/PycharmProjects/Reinvent-master-3.2/result/LINK_invent/BTK/process_docking_weight1_custom_product_contain_oxygen_bond_distance_aromatic_linkinvent_7_9_3/rearranged_h_0156.sdf

> <i_m_source_file_index>
60

> <r_mmod_Potential_Energy-OPLS-2005>
189.88932800293

> <r_mmod_Stretch_Energy-OPLS-2005>
107.616928100586

> <r_mmod_Bend_Energy-OPLS-2005>
185.40397644043

> <r_mmod_Torsional_Energy-OPLS-2005>
250.59455871582

> <r_mmod_Improper_Torsional_Energy-OPLS-2005>
5.62041282653809

> <r_mmod_Van_der_Waal_Energy-OPLS-2005>
114.869567871094

> <r_mmod_Electrostatic_Energy-OPLS-2005>
-279.435272216797

> <r_mmod_Solvation_Energy-OPLS-2005>
-265.311645507812

> <b_mmod_Minimization_Converged-OPLS-2005>
0

> <r_mmod_RMS_Derivative-OPLS-2005>
0.464967757463455

$$$$
60
                    3D
 Structure written by MMmdl.
164173  0  0  1  0            999 V2000
  -30.7092  -14.5500   20.5164 C   0  0  0  0  0  0
  -30.4352  -12.3329   19.4495 C   0  0  0  0  0  0
  -29.5100  -12.4719   18.2228 C   0  0  0  0  0  0
  -28.0257  -12.3498   18.6266 C   0  0  0  0  0  0
  -27.6606  -13.2142   19.8619 C   0  0  2  0  0  0
  -28.7097  -13.0619   20.9898 C   0  0  0  0  0  0
  -25.2589  -13.8147   20.5688 C   0  0  0  0  0  0
  -24.1826  -13.0427   20.9180 C   0  0  0  0  0  0
  -24.6356  -11.6893   20.8671 C   0  0  0  0  0  0
  -23.9014  -10.4276   21.0354 C   0  0  0  0  0  0
  -24.3558   -9.4214   21.9151 C   0  0  0  0  0  0
  -23.6232   -8.2260   22.0775 C   0  0  0  0  0  0
  -22.4229   -8.0236   21.3548 C   0  0  0  0  0  0
  -21.9837   -9.0216   20.4673 C   0  0  0  0  0  0
  -22.7163  -10.2099   20.3048 C   0  0  0  0  0  0
  -21.6876   -6.0683   22.5268 C   0  0  0  0  0  0
  -21.4021   -6.5606   23.8190 C   0  0  0  0  0  0
  -21.3693   -5.6781   24.9162 C   0  0  0  0  0  0
  -21.6030   -4.3035   24.7227 C   0  0  0  0  0  0
  -21.8826   -3.8101   23.4357 C   0  0  0  0  0  0
  -21.9210   -4.6907   22.3402 C   0  0  0  0  0  0
  -22.7855  -13.5279   21.1818 C   0  0  0  0  0  0
  -22.1662   -4.2064   21.0975 F   0  0  0  0  0  0
  -21.5629   -3.4532   25.7749 F   0  0  0  0  0  0
  -30.0344  -13.3647   20.4219 N   0  0  0  0  0  0
  -26.3035  -12.9347   20.3312 N   0  0  0  0  0  0
  -25.9302  -11.6498   20.5693 N   0  0  0  0  0  0
  -22.0416  -12.8342   22.0340 N   0  0  0  0  0  0
  -25.4308  -15.1886   20.4127 N   0  0  0  0  0  0
  -31.8757  -14.6593   20.1283 O   0  0  0  0  0  0
  -21.6627   -6.8807   21.4220 O   0  0  0  0  0  0
  -22.3581  -14.5601   20.6615 O   0  0  0  0  0  0
  -24.6229  -31.8652   23.2087 C   0  0  0  0  0  0
  -25.9095  -32.4803   23.8414 C   0  0  1  0  0  0
  -27.2224  -27.3761   20.0733 C   0  0  0  0  0  0
  -25.5934  -33.8601   24.2333 N   0  0  0  0  0  0
  -23.4094  -30.4943   21.5509 C   0  0  2  0  0  0
  -24.8515  -28.9586   20.1119 C   0  0  0  0  0  0
  -22.7450  -29.4656   22.4946 C   0  0  0  0  0  0
  -18.0278  -28.1398   22.8484 C   0  0  0  0  0  0
  -24.1472  -36.7307   23.2637 C   0  0  0  0  0  0
  -25.9485  -30.8082   21.3740 C   0  0  0  0  0  0
  -26.0181  -29.4388   20.7182 C   0  0  0  0  0  0
  -27.2002  -28.6509   20.7042 C   0  0  0  0  0  0
  -26.0253  -26.9353   19.4568 C   0  0  0  0  0  0
  -24.8521  -27.7067   19.4836 C   0  0  0  0  0  0
  -23.6199  -29.8375   20.1625 C   0  0  0  0  0  0
  -25.4088  -36.3087   24.0338 C   0  0  1  0  0  0
  -20.5874  -28.3703   23.1287 C   0  0  2  0  0  0
  -20.6757  -26.9431   22.5404 C   0  0  0  0  0  0
  -19.5728  -26.6403   21.5208 C   0  0  0  0  0  0
  -18.1908  -26.7952   22.1621 C   0  0  0  0  0  0
  -19.1525  -28.8868   23.2886 C   0  0  0  0  0  0
  -18.9461  -30.1465   23.8913 C   0  0  0  0  0  0
  -17.6459  -30.6604   24.0569 C   0  0  0  0  0  0
  -25.9037  -34.9456   23.5129 C   0  0  0  0  0  0
  -16.5345  -29.9107   23.6322 C   0  0  0  0  0  0
  -16.7264  -28.6519   23.0349 C   0  0  0  0  0  0
  -26.4509  -31.6596   25.0751 C   0  0  0  0  0  0
  -25.3790  -31.3736   26.1523 C   0  0  0  0  0  0
  -27.0333  -30.3011   24.6173 C   0  0  0  0  0  0
  -27.6085  -32.4327   25.7521 C   0  0  0  0  0  0
  -27.5571  -37.1802   24.8471 C   0  0  0  0  0  0
  -21.4169  -29.3060   22.3692 N   0  0  0  0  0  0
  -26.4280  -37.3784   23.9426 N   0  0  0  0  0  0
  -24.6794  -31.0710   22.1016 N   0  0  0  0  0  0
  -23.4216  -28.8192   23.2986 O   0  0  0  0  0  0
  -28.3807  -26.5971   20.1042 O   0  0  0  0  0  0
  -26.5586  -34.8913   22.4679 O   0  0  0  0  0  0
  -23.5398  -32.1431   23.7439 O   0  0  0  0  0  0
  -29.4597  -18.1323   20.7459 C   0  0  0  0  0  0
  -31.6575  -17.4793   21.1904 C   0  0  0  0  0  0
  -30.3862  -17.0398   20.9060 C   0  0  0  0  0  0
  -30.0132  -19.3892   20.9444 C   0  0  0  0  0  0
  -29.6663  -23.2807   18.4477 C   0  0  0  0  0  0
  -30.1208  -21.9227   19.0155 C   0  0  0  0  0  0
  -29.1936  -23.2618   20.7550 C   0  0  0  0  0  0
  -29.5530  -24.2650   19.6272 C   0  0  2  0  0  0
  -28.9375  -20.9314   22.5704 C   0  0  0  0  0  0
  -31.0355  -25.8701   20.7049 C   0  0  0  0  0  0
  -28.4847  -25.3883   19.2896 C   0  0  0  0  0  0
  -29.2644  -20.7200   21.0795 C   0  0  1  0  0  0
  -29.9809  -15.6471   20.8493 N   0  0  0  0  0  0
  -29.8960  -21.9590   20.4790 N   0  3  1  0  0  0
  -30.8864  -24.7519   19.8325 O   0  0  0  0  0  0
  -31.7268  -19.2306   21.2699 S   0  0  0  0  0  0
  -31.4781  -12.4241   19.1373 H   0  0  0  0  0  0
  -30.3407  -11.3375   19.8912 H   0  0  0  0  0  0
  -29.7587  -11.7069   17.4848 H   0  0  0  0  0  0
  -29.6824  -13.4335   17.7398 H   0  0  0  0  0  0
  -27.8257  -11.2986   18.8392 H   0  0  0  0  0  0
  -27.3841  -12.6147   17.7861 H   0  0  0  0  0  0
  -27.6930  -14.2505   19.5240 H   0  0  0  0  0  0
  -28.7023  -12.0460   21.3863 H   0  0  0  0  0  0
  -28.4699  -13.7113   21.8347 H   0  0  0  0  0  0
  -25.2657   -9.5689   22.4762 H   0  0  0  0  0  0
  -23.9921   -7.4664   22.7542 H   0  0  0  0  0  0
  -21.0761   -8.8699   19.8998 H   0  0  0  0  0  0
  -22.3553  -10.9613   19.6174 H   0  0  0  0  0  0
  -21.1977   -7.6101   23.9643 H   0  0  0  0  0  0
  -21.1572   -6.0517   25.9069 H   0  0  0  0  0  0
  -22.0597   -2.7556   23.2887 H   0  0  0  0  0  0
  -22.3944  -11.9982   22.4754 H   0  0  0  0  0  0
  -21.1049  -13.1461   22.2548 H   0  0  0  0  0  0
  -24.6584  -15.8374   20.5241 H   0  0  0  0  0  0
  -26.2544  -15.6173   20.0069 H   0  0  0  0  0  0
  -26.7163  -32.5491   23.1171 H   0  0  0  0  0  0
  -25.0153  -33.9759   25.0526 H   0  0  0  0  0  0
  -22.7011  -31.3147   21.4151 H   0  0  0  0  0  0
  -23.3708  -35.9662   23.3321 H   0  0  0  0  0  0
  -24.3593  -36.8899   22.2059 H   0  0  0  0  0  0
  -23.7247  -37.6522   23.6642 H   0  0  0  0  0  0
  -26.0711  -31.5693   20.6022 H   0  0  0  0  0  0
  -26.8360  -30.8616   21.9941 H   0  0  0  0  0  0
  -28.0976  -29.0136   21.1865 H   0  0  0  0  0  0
  -25.9402  -25.9911   18.9457 H   0  0  0  0  0  0
  -23.9572  -27.3289   19.0075 H   0  0  0  0  0  0
  -23.7450  -30.6194   19.4118 H   0  0  0  0  0  0
  -22.7386  -29.2721   19.8542 H   0  0  0  0  0  0
  -25.1256  -36.1954   25.0824 H   0  0  0  0  0  0
  -20.9977  -28.3273   24.1410 H   0  0  0  0  0  0
  -20.5645  -26.2327   23.3606 H   0  0  0  0  0  0
  -21.6620  -26.7457   22.1219 H   0  0  0  0  0  0
  -19.6890  -25.6311   21.1245 H   0  0  0  0  0  0
  -19.6662  -27.3204   20.6727 H   0  0  0  0  0  0
  -17.4180  -26.6706   21.4010 H   0  0  0  0  0  0
  -18.0296  -26.0094   22.9021 H   0  0  0  0  0  0
  -19.7934  -30.7258   24.2306 H   0  0  0  0  0  0
  -17.5021  -31.6281   24.5177 H   0  0  0  0  0  0
  -15.5345  -30.3021   23.7642 H   0  0  0  0  0  0
  -15.8665  -28.0848   22.7070 H   0  0  0  0  0  0
  -24.5960  -30.7055   25.7915 H   0  0  0  0  0  0
  -24.8978  -32.2893   26.4953 H   0  0  0  0  0  0
  -25.8171  -30.8961   27.0293 H   0  0  0  0  0  0
  -26.2869  -29.6773   24.1220 H   0  0  0  0  0  0
  -27.4063  -29.7258   25.4662 H   0  0  0  0  0  0
  -27.8740  -30.4299   23.9350 H   0  0  0  0  0  0
  -27.2703  -33.3633   26.2094 H   0  0  0  0  0  0
  -28.3903  -32.6881   25.0354 H   0  0  0  0  0  0
  -28.0743  -31.8458   26.5448 H   0  0  0  0  0  0
  -28.2596  -38.0091   24.7478 H   0  0  0  0  0  0
  -28.1048  -36.2614   24.6308 H   0  0  0  0  0  0
  -27.2311  -37.1494   25.8884 H   0  0  0  0  0  0
  -20.9338  -29.8848   21.6964 H   0  0  0  0  0  0
  -26.0151  -38.2851   24.1400 H   0  0  0  0  0  0
  -28.4084  -17.9649   20.5506 H   0  0  0  0  0  0
  -32.5565  -16.9050   21.3827 H   0  0  0  0  0  0
  -28.6882  -23.1476   17.9804 H   0  0  0  0  0  0
  -30.3320  -23.6424   17.6653 H   0  0  0  0  0  0
  -31.1788  -21.7552   18.8096 H   0  0  0  0  0  0
  -29.5717  -21.1133   18.5364 H   0  0  0  0  0  0
  -28.1171  -23.0880   20.7276 H   0  0  0  0  0  0
  -29.4291  -23.6567   21.7418 H   0  0  0  0  0  0
  -28.4458  -20.0487   22.9825 H   0  0  0  0  0  0
  -28.2611  -21.7668   22.7372 H   0  0  0  0  0  0
  -29.8433  -21.0987   23.1559 H   0  0  0  0  0  0
  -32.0558  -25.9174   21.0872 H   0  0  0  0  0  0
  -30.3637  -25.8284   21.5650 H   0  0  0  0  0  0
  -30.8599  -26.8057   20.1707 H   0  0  0  0  0  0
  -27.5445  -24.8468   19.2696 H   0  0  0  0  0  0
  -28.6571  -25.7310   18.2680 H   0  0  0  0  0  0
  -28.3067  -20.6019   20.5702 H   0  0  0  0  0  0
  -28.9979  -15.4629   20.9897 H   0  0  0  0  0  0
  -30.8212  -22.0423   20.8774 H   0  0  0  0  0  0
  1 25  1  0  0  0
  1 30  2  0  0  0
  1 83  1  0  0  0
  2  3  1  0  0  0
  2 25  1  0  0  0
  2 87  1  0  0  0
  2 88  1  0  0  0
  3  4  1  0  0  0
  3 89  1  0  0  0
  3 90  1  0  0  0
  4  5  1  0  0  0
  4 91  1  0  0  0
  4 92  1  0  0  0
  5  6  1  0  0  0
  5 26  1  0  0  0
  5 93  1  0  0  0
  6 25  1  0  0  0
  6 94  1  0  0  0
  6 95  1  0  0  0
  7  8  2  0  0  0
  7 26  1  0  0  0
  7 29  1  0  0  0
  8  9  1  0  0  0
  8 22  1  0  0  0
  9 10  1  0  0  0
  9 27  2  0  0  0
 10 11  2  0  0  0
 10 15  1  0  0  0
 11 12  1  0  0  0
 11 96  1  0  0  0
 12 13  2  0  0  0
 12 97  1  0  0  0
 13 14  1  0  0  0
 13 31  1  0  0  0
 14 15  2  0  0  0
 14 98  1  0  0  0
 15 99  1  0  0  0
 16 17  2  0  0  0
 16 21  1  0  0  0
 16 31  1  0  0  0
 17 18  1  0  0  0
 17100  1  0  0  0
 18 19  2  0  0  0
 18101  1  0  0  0
 19 20  1  0  0  0
 19 24  1  0  0  0
 20 21  2  0  0  0
 20102  1  0  0  0
 21 23  1  0  0  0
 22 28  1  0  0  0
 22 32  2  0  0  0
 26 27  1  0  0  0
 28103  1  0  0  0
 28104  1  0  0  0
 29105  1  0  0  0
 29106  1  0  0  0
 33 34  1  0  0  0
 33 66  1  0  0  0
 33 70  2  0  0  0
 34 36  1  0  0  0
 34 59  1  0  0  0
 34107  1  0  0  0
 35 44  2  0  0  0
 35 45  1  0  0  0
 35 68  1  0  0  0
 36 56  1  0  0  0
 36108  1  0  0  0
 37 39  1  0  0  0
 37 47  1  0  0  0
 37 66  1  0  0  0
 37109  1  0  0  0
 38 43  2  0  0  0
 38 46  1  0  0  0
 38 47  1  0  0  0
 39 64  1  0  0  0
 39 67  2  0  0  0
 40 52  1  0  0  0
 40 53  2  0  0  0
 40 58  1  0  0  0
 41110  1  0  0  0
 41111  1  0  0  0
 41112  1  0  0  0
 41 48  1  0  0  0
 42 43  1  0  0  0
 42 66  1  0  0  0
 42113  1  0  0  0
 42114  1  0  0  0
 43 44  1  0  0  0
 44115  1  0  0  0
 45 46  2  0  0  0
 45116  1  0  0  0
 46117  1  0  0  0
 47118  1  0  0  0
 47119  1  0  0  0
 48 56  1  0  0  0
 48 65  1  0  0  0
 48120  1  0  0  0
 49 50  1  0  0  0
 49 53  1  0  0  0
 49 64  1  0  0  0
 49121  1  0  0  0
 50 51  1  0  0  0
 50122  1  0  0  0
 50123  1  0  0  0
 51 52  1  0  0  0
 51124  1  0  0  0
 51125  1  0  0  0
 52126  1  0  0  0
 52127  1  0  0  0
 53 54  1  0  0  0
 54 55  2  0  0  0
 54128  1  0  0  0
 55 57  1  0  0  0
 55129  1  0  0  0
 56 69  2  0  0  0
 57 58  2  0  0  0
 57130  1  0  0  0
 58131  1  0  0  0
 59 60  1  0  0  0
 59 61  1  0  0  0
 59 62  1  0  0  0
 60132  1  0  0  0
 60133  1  0  0  0
 60134  1  0  0  0
 61135  1  0  0  0
 61136  1  0  0  0
 61137  1  0  0  0
 62138  1  0  0  0
 62139  1  0  0  0
 62140  1  0  0  0
 63 65  1  0  0  0
 63141  1  0  0  0
 63142  1  0  0  0
 63143  1  0  0  0
 64144  1  0  0  0
 65145  1  0  0  0
 68 81  1  0  0  0
 71 73  1  0  0  0
 71 74  2  0  0  0
 71146  1  0  0  0
 72 73  2  0  0  0
 72 86  1  0  0  0
 72147  1  0  0  0
 73 83  1  0  0  0
 74 82  1  0  0  0
 74 86  1  0  0  0
 75 76  1  0  0  0
 75 78  1  0  0  0
 75148  1  0  0  0
 75149  1  0  0  0
 76150  1  0  0  0
 76151  1  0  0  0
 76 84  1  0  0  0
 77 78  1  0  0  0
 77 84  1  0  0  0
 77152  1  0  0  0
 77153  1  0  0  0
 78 81  1  0  0  0
 78 85  1  0  0  0
 79154  1  0  0  0
 79155  1  0  0  0
 79156  1  0  0  0
 79 82  1  0  0  0
 80 85  1  0  0  0
 80157  1  0  0  0
 80158  1  0  0  0
 80159  1  0  0  0
 81160  1  0  0  0
 81161  1  0  0  0
 82 84  1  0  0  0
 82162  1  0  0  0
 83163  1  0  0  0
 84164  1  0  0  0
M  CHG  1  84   1
M  ISO  4   1 100  68 101  81 101  83 100
M  END
> <chiral flag>
0

> <version>
0

> <s_m_source_file>
/data/baiqing/PycharmProjects/Reinvent-master-3.2/result/LINK_invent/BTK/process_docking_weight1_custom_product_contain_oxygen_bond_distance_aromatic_linkinvent_7_9_3/rearranged_h_0156.sdf

> <i_m_source_file_index>
61

> <r_mmod_Potential_Energy-OPLS-2005>
-55.0554809570312

> <r_mmod_Stretch_Energy-OPLS-2005>
56.9293212890625

> <r_mmod_Bend_Energy-OPLS-2005>
164.156631469727

> <r_mmod_Torsional_Energy-OPLS-2005>
278.693206787109

> <r_mmod_Improper_Torsional_Energy-OPLS-2005>
5.8665018081665

> <r_mmod_Van_der_Waal_Energy-OPLS-2005>
132.459182739258

> <r_mmod_Electrostatic_Energy-OPLS-2005>
-304.383178710938

> <r_mmod_Solvation_Energy-OPLS-2005>
-416.703399658203

> <b_mmod_Minimization_Converged-OPLS-2005>
0

> <r_mmod_RMS_Derivative-OPLS-2005>
4.58966827392578

$$$$
61
                    3D
 Structure written by MMmdl.
158166  0  0  1  0            999 V2000
  -30.6293  -14.6117   20.5235 C   0  0  0  0  0  0
  -30.4464  -12.3770   19.4472 C   0  0  0  0  0  0
  -29.5128  -12.5088   18.2204 C   0  0  0  0  0  0
  -28.0306  -12.3472   18.6251 C   0  0  0  0  0  0
  -27.6590  -13.2028   19.8648 C   0  0  2  0  0  0
  -28.7047  -13.0171   20.9881 C   0  0  0  0  0  0
  -25.2579  -13.8121   20.5621 C   0  0  0  0  0  0
  -24.1849  -13.0415   20.9187 C   0  0  0  0  0  0
  -24.6405  -11.6879   20.8745 C   0  0  0  0  0  0
  -23.9067  -10.4265   21.0413 C   0  0  0  0  0  0
  -24.3612   -9.4179   21.9193 C   0  0  0  0  0  0
  -23.6282   -8.2224   22.0767 C   0  0  0  0  0  0
  -22.4269   -8.0264   21.3554 C   0  0  0  0  0  0
  -21.9899   -9.0242   20.4666 C   0  0  0  0  0  0
  -22.7235  -10.2114   20.3067 C   0  0  0  0  0  0
  -21.6842   -6.0719   22.5286 C   0  0  0  0  0  0
  -21.4003   -6.5629   23.8216 C   0  0  0  0  0  0
  -21.3660   -5.6783   24.9180 C   0  0  0  0  0  0
  -21.6057   -4.3048   24.7232 C   0  0  0  0  0  0
  -21.8824   -3.8138   23.4352 C   0  0  0  0  0  0
  -21.9192   -4.6951   22.3409 C   0  0  0  0  0  0
  -22.7872  -13.5227   21.1846 C   0  0  0  0  0  0
  -22.1661   -4.2132   21.0986 F   0  0  0  0  0  0
  -21.5631   -3.4538   25.7752 F   0  0  0  0  0  0
  -30.0206  -13.3823   20.4419 N   0  0  0  0  0  0
  -26.3015  -12.9285   20.3308 N   0  0  0  0  0  0
  -25.9330  -11.6456   20.5765 N   0  0  0  0  0  0
  -22.0507  -12.8226   22.0407 N   0  0  0  0  0  0
  -25.4258  -15.1812   20.3893 N   0  0  0  0  0  0
  -31.8011  -14.7547   20.1574 O   0  0  0  0  0  0
  -21.6628   -6.8859   21.4247 O   0  0  0  0  0  0
  -22.3569  -14.5543   20.6702 O   0  0  0  0  0  0
  -24.6208  -31.8626   23.2058 C   0  0  0  0  0  0
  -25.9067  -32.4797   23.8384 C   0  0  1  0  0  0
  -27.2439  -27.3677   20.1318 C   0  0  0  0  0  0
  -25.5898  -33.8595   24.2317 N   0  0  0  0  0  0
  -23.4147  -30.4827   21.5452 C   0  0  2  0  0  0
  -24.8700  -28.9344   20.1270 C   0  0  0  0  0  0
  -22.7440  -29.4632   22.4966 C   0  0  0  0  0  0
  -18.0302  -28.1366   22.8527 C   0  0  0  0  0  0
  -24.1481  -36.7309   23.2643 C   0  0  0  0  0  0
  -25.9506  -30.8060   21.3739 C   0  0  0  0  0  0
  -26.0320  -29.4280   20.7383 C   0  0  0  0  0  0
  -27.2238  -28.6511   20.7437 C   0  0  0  0  0  0
  -26.0709  -26.9128   19.4986 C   0  0  0  0  0  0
  -24.8873  -27.6758   19.5032 C   0  0  0  0  0  0
  -23.6342  -29.8090   20.1646 C   0  0  0  0  0  0
  -25.4102  -36.3100   24.0340 C   0  0  1  0  0  0
  -20.5878  -28.3690   23.1313 C   0  0  2  0  0  0
  -20.6764  -26.9415   22.5427 C   0  0  0  0  0  0
  -19.5771  -26.6403   21.5194 C   0  0  0  0  0  0
  -18.1968  -26.7913   22.1656 C   0  0  0  0  0  0
  -19.1543  -28.8856   23.2920 C   0  0  0  0  0  0
  -18.9467  -30.1467   23.8918 C   0  0  0  0  0  0
  -17.6470  -30.6610   24.0533 C   0  0  0  0  0  0
  -25.9023  -34.9463   23.5126 C   0  0  0  0  0  0
  -16.5366  -29.9076   23.6333 C   0  0  0  0  0  0
  -16.7299  -28.6479   23.0381 C   0  0  0  0  0  0
  -26.4473  -31.6591   25.0727 C   0  0  0  0  0  0
  -25.3726  -31.3713   26.1465 C   0  0  0  0  0  0
  -27.0328  -30.3037   24.6131 C   0  0  0  0  0  0
  -27.6048  -32.4306   25.7493 C   0  0  0  0  0  0
  -27.5575  -37.1809   24.8470 C   0  0  0  0  0  0
  -21.4154  -29.3065   22.3710 N   0  0  0  0  0  0
  -26.4290  -37.3784   23.9403 N   0  0  0  0  0  0
  -24.6788  -31.0681   22.0978 N   0  0  0  0  0  0
  -23.4173  -28.8194   23.3037 O   0  0  0  0  0  0
  -28.3681  -26.5642   19.9950 O   0  0  0  0  0  0
  -26.5595  -34.8923   22.4692 O   0  0  0  0  0  0
  -23.5379  -32.1391   23.7417 O   0  0  0  0  0  0
  -26.8494  -19.1259   21.0856 C   0  0  0  0  0  0
  -27.7618  -18.0644   20.9691 C   0  0  0  0  0  0
  -27.3036  -20.4515   21.1763 C   0  0  0  0  0  0
  -29.5992  -19.6541   21.0282 C   0  0  0  0  0  0
  -29.1586  -18.2859   20.9188 C   0  0  0  0  0  0
  -28.6839  -20.7580   21.1537 C   0  0  0  0  0  0
  -30.0841  -17.0925   20.7513 C   0  0  0  0  0  0
  -29.7415  -15.7653   20.8437 C   0  0  0  0  0  0
  -28.5698  -23.1639   20.8891 C   0  0  0  0  0  0
  -27.9101  -23.1567   19.5197 C   0  0  0  0  0  0
  -26.9513  -24.6611   22.1582 C   0  0  0  0  0  0
  -28.9646  -25.8902   21.1292 C   0  0  0  0  0  0
  -28.4044  -24.5118   21.6758 C   0  0  2  0  0  0
  -29.0774  -22.1028   21.4498 N   0  0  0  0  0  0
  -31.4893  -12.4991   19.1489 H   0  0  0  0  0  0
  -30.3776  -11.3739   19.8705 H   0  0  0  0  0  0
  -29.7765  -11.7607   17.4723 H   0  0  0  0  0  0
  -29.6607  -13.4805   17.7452 H   0  0  0  0  0  0
  -27.8582  -11.2915   18.8409 H   0  0  0  0  0  0
  -27.3822  -12.5940   17.7839 H   0  0  0  0  0  0
  -27.6871  -14.2405   19.5356 H   0  0  0  0  0  0
  -28.7198  -11.9776   21.3184 H   0  0  0  0  0  0
  -28.4583  -13.5914   21.8820 H   0  0  0  0  0  0
  -25.2756   -9.5643   22.4763 H   0  0  0  0  0  0
  -23.9993   -7.4607   22.7472 H   0  0  0  0  0  0
  -21.0831   -8.8767   19.8954 H   0  0  0  0  0  0
  -22.3712  -10.9658   19.6169 H   0  0  0  0  0  0
  -21.1981   -7.6135   23.9717 H   0  0  0  0  0  0
  -21.1487   -6.0512   25.9085 H   0  0  0  0  0  0
  -22.0605   -2.7597   23.2870 H   0  0  0  0  0  0
  -22.4095  -11.9881   22.4805 H   0  0  0  0  0  0
  -21.1143  -13.1286   22.2630 H   0  0  0  0  0  0
  -24.6451  -15.8249   20.4545 H   0  0  0  0  0  0
  -26.2527  -15.5983   19.9862 H   0  0  0  0  0  0
  -26.7139  -32.5519   23.1153 H   0  0  0  0  0  0
  -25.0033  -33.9732   25.0453 H   0  0  0  0  0  0
  -22.7039  -31.2981   21.3953 H   0  0  0  0  0  0
  -23.3731  -35.9656   23.3326 H   0  0  0  0  0  0
  -24.3571  -36.8896   22.2051 H   0  0  0  0  0  0
  -23.7246  -37.6524   23.6639 H   0  0  0  0  0  0
  -26.0702  -31.5582   20.5932 H   0  0  0  0  0  0
  -26.8355  -30.8710   21.9952 H   0  0  0  0  0  0
  -28.1255  -29.0370   21.1976 H   0  0  0  0  0  0
  -26.0764  -25.9537   19.0010 H   0  0  0  0  0  0
  -24.0020  -27.2911   19.0144 H   0  0  0  0  0  0
  -23.7527  -30.5797   19.4023 H   0  0  0  0  0  0
  -22.7588  -29.2297   19.8662 H   0  0  0  0  0  0
  -25.1283  -36.1958   25.0834 H   0  0  0  0  0  0
  -20.9991  -28.3254   24.1430 H   0  0  0  0  0  0
  -20.5614  -26.2314   23.3631 H   0  0  0  0  0  0
  -21.6633  -26.7403   22.1245 H   0  0  0  0  0  0
  -19.6990  -25.6326   21.1229 H   0  0  0  0  0  0
  -19.6720  -27.3256   20.6760 H   0  0  0  0  0  0
  -17.4200  -26.6553   21.4111 H   0  0  0  0  0  0
  -18.0481  -26.0064   22.9079 H   0  0  0  0  0  0
  -19.7922  -30.7298   24.2319 H   0  0  0  0  0  0
  -17.5002  -31.6296   24.5127 H   0  0  0  0  0  0
  -15.5362  -30.2964   23.7675 H   0  0  0  0  0  0
  -15.8708  -28.0776   22.7125 H   0  0  0  0  0  0
  -24.5893  -30.7060   25.7811 H   0  0  0  0  0  0
  -24.8912  -32.2866   26.4909 H   0  0  0  0  0  0
  -25.8063  -30.8886   27.0233 H   0  0  0  0  0  0
  -26.2900  -29.6785   24.1148 H   0  0  0  0  0  0
  -27.4072  -29.7284   25.4612 H   0  0  0  0  0  0
  -27.8745  -30.4376   23.9334 H   0  0  0  0  0  0
  -27.2675  -33.3597   26.2103 H   0  0  0  0  0  0
  -28.3850  -32.6861   25.0311 H   0  0  0  0  0  0
  -28.0720  -31.8397   26.5376 H   0  0  0  0  0  0
  -28.2624  -38.0078   24.7489 H   0  0  0  0  0  0
  -28.1042  -36.2609   24.6332 H   0  0  0  0  0  0
  -27.2295  -37.1512   25.8877 H   0  0  0  0  0  0
  -20.9324  -29.8848   21.6979 H   0  0  0  0  0  0
  -26.0183  -38.2876   24.1348 H   0  0  0  0  0  0
  -25.7892  -18.9180   21.1254 H   0  0  0  0  0  0
  -27.3513  -17.0696   20.9106 H   0  0  0  0  0  0
  -26.5645  -21.2278   21.3167 H   0  0  0  0  0  0
  -30.6616  -19.8580   21.0337 H   0  0  0  0  0  0
  -31.1040  -17.3340   20.4877 H   0  0  0  0  0  0
  -28.7328  -15.5533   21.1399 H   0  0  0  0  0  0
  -28.0175  -24.1276   19.0370 H   0  0  0  0  0  0
  -26.8463  -22.9326   19.6034 H   0  0  0  0  0  0
  -28.3719  -22.4133   18.8694 H   0  0  0  0  0  0
  -26.6401  -23.7890   22.7355 H   0  0  0  0  0  0
  -26.2645  -24.7694   21.3203 H   0  0  0  0  0  0
  -26.8354  -25.5330   22.8016 H   0  0  0  0  0  0
  -30.0193  -25.7534   20.8865 H   0  0  0  0  0  0
  -28.9726  -26.6038   21.9543 H   0  0  0  0  0  0
  -28.9831  -24.3581   22.5895 H   0  0  0  0  0  0
  1 25  1  0  0  0
  1 30  2  0  0  0
  1 78  1  0  0  0
  2  3  1  0  0  0
  2 25  1  0  0  0
  2 85  1  0  0  0
  2 86  1  0  0  0
  3  4  1  0  0  0
  3 87  1  0  0  0
  3 88  1  0  0  0
  4  5  1  0  0  0
  4 89  1  0  0  0
  4 90  1  0  0  0
  5  6  1  0  0  0
  5 26  1  0  0  0
  5 91  1  0  0  0
  6 25  1  0  0  0
  6 92  1  0  0  0
  6 93  1  0  0  0
  7  8  2  0  0  0
  7 26  1  0  0  0
  7 29  1  0  0  0
  8  9  1  0  0  0
  8 22  1  0  0  0
  9 10  1  0  0  0
  9 27  2  0  0  0
 10 11  2  0  0  0
 10 15  1  0  0  0
 11 12  1  0  0  0
 11 94  1  0  0  0
 12 13  2  0  0  0
 12 95  1  0  0  0
 13 14  1  0  0  0
 13 31  1  0  0  0
 14 15  2  0  0  0
 14 96  1  0  0  0
 15 97  1  0  0  0
 16 17  2  0  0  0
 16 21  1  0  0  0
 16 31  1  0  0  0
 17 18  1  0  0  0
 17 98  1  0  0  0
 18 19  2  0  0  0
 18 99  1  0  0  0
 19 20  1  0  0  0
 19 24  1  0  0  0
 20 21  2  0  0  0
 20100  1  0  0  0
 21 23  1  0  0  0
 22 28  1  0  0  0
 22 32  2  0  0  0
 26 27  1  0  0  0
 28101  1  0  0  0
 28102  1  0  0  0
 29103  1  0  0  0
 29104  1  0  0  0
 33 34  1  0  0  0
 33 66  1  0  0  0
 33 70  2  0  0  0
 34 36  1  0  0  0
 34 59  1  0  0  0
 34105  1  0  0  0
 35 44  2  0  0  0
 35 45  1  0  0  0
 35 68  1  0  0  0
 36 56  1  0  0  0
 36106  1  0  0  0
 37 39  1  0  0  0
 37 47  1  0  0  0
 37 66  1  0  0  0
 37107  1  0  0  0
 38 43  2  0  0  0
 38 46  1  0  0  0
 38 47  1  0  0  0
 39 64  1  0  0  0
 39 67  2  0  0  0
 40 52  1  0  0  0
 40 53  2  0  0  0
 40 58  1  0  0  0
 41108  1  0  0  0
 41109  1  0  0  0
 41110  1  0  0  0
 41 48  1  0  0  0
 42 43  1  0  0  0
 42 66  1  0  0  0
 42111  1  0  0  0
 42112  1  0  0  0
 43 44  1  0  0  0
 44113  1  0  0  0
 45 46  2  0  0  0
 45114  1  0  0  0
 46115  1  0  0  0
 47116  1  0  0  0
 47117  1  0  0  0
 48 56  1  0  0  0
 48 65  1  0  0  0
 48118  1  0  0  0
 49 50  1  0  0  0
 49 53  1  0  0  0
 49 64  1  0  0  0
 49119  1  0  0  0
 50 51  1  0  0  0
 50120  1  0  0  0
 50121  1  0  0  0
 51 52  1  0  0  0
 51122  1  0  0  0
 51123  1  0  0  0
 52124  1  0  0  0
 52125  1  0  0  0
 53 54  1  0  0  0
 54 55  2  0  0  0
 54126  1  0  0  0
 55 57  1  0  0  0
 55127  1  0  0  0
 56 69  2  0  0  0
 57 58  2  0  0  0
 57128  1  0  0  0
 58129  1  0  0  0
 59 60  1  0  0  0
 59 61  1  0  0  0
 59 62  1  0  0  0
 60130  1  0  0  0
 60131  1  0  0  0
 60132  1  0  0  0
 61133  1  0  0  0
 61134  1  0  0  0
 61135  1  0  0  0
 62136  1  0  0  0
 62137  1  0  0  0
 62138  1  0  0  0
 63 65  1  0  0  0
 63139  1  0  0  0
 63140  1  0  0  0
 63141  1  0  0  0
 64142  1  0  0  0
 65143  1  0  0  0
 68 82  1  0  0  0
 71 72  2  0  0  0
 71 73  1  0  0  0
 71144  1  0  0  0
 72 75  1  0  0  0
 72145  1  0  0  0
 73 76  2  0  0  0
 73146  1  0  0  0
 74 75  2  0  0  0
 74 76  1  0  0  0
 74147  1  0  0  0
 75 77  1  0  0  0
 76 84  1  0  0  0
 77 78  2  0  0  0
 77148  1  0  0  0
 78149  1  0  0  0
 79 80  1  0  0  0
 79 83  1  0  0  0
 79 84  2  0  0  0
 80150  1  0  0  0
 80151  1  0  0  0
 80152  1  0  0  0
 81153  1  0  0  0
 81154  1  0  0  0
 81155  1  0  0  0
 81 83  1  0  0  0
 82 83  1  0  0  0
 82156  1  0  0  0
 82157  1  0  0  0
 83158  1  0  0  0
M  ISO  4   1 100  68 101  78 100  82 101
M  END
> <chiral flag>
0

> <version>
0

> <s_m_source_file>
/data/baiqing/PycharmProjects/Reinvent-master-3.2/result/LINK_invent/BTK/process_docking_weight1_custom_product_contain_oxygen_bond_distance_aromatic_linkinvent_7_9_3/rearranged_h_0156.sdf

> <i_m_source_file_index>
62

> <r_mmod_Potential_Energy-OPLS-2005>
97.4286804199219

> <r_mmod_Stretch_Energy-OPLS-2005>
70.2252044677734

> <r_mmod_Bend_Energy-OPLS-2005>
147.410980224609

> <r_mmod_Torsional_Energy-OPLS-2005>
247.022598266602

> <r_mmod_Improper_Torsional_Energy-OPLS-2005>
9.06722354888916

> <r_mmod_Van_der_Waal_Energy-OPLS-2005>
143.276748657227

> <r_mmod_Electrostatic_Energy-OPLS-2005>
-358.487945556641

> <r_mmod_Solvation_Energy-OPLS-2005>
-193.34521484375

> <b_mmod_Minimization_Converged-OPLS-2005>
0

> <r_mmod_RMS_Derivative-OPLS-2005>
2.77920198440552

$$$$
62
                    3D
 Structure written by MMmdl.
154162  0  0  1  0            999 V2000
  -30.6114  -14.8143   20.3503 C   0  0  0  0  0  0
  -30.4439  -12.4737   19.4680 C   0  0  0  0  0  0
  -29.5138  -12.4605   18.2338 C   0  0  0  0  0  0
  -28.0431  -12.2637   18.6563 C   0  0  0  0  0  0
  -27.6256  -13.1813   19.8334 C   0  0  2  0  0  0
  -28.6894  -13.2309   20.9517 C   0  0  0  0  0  0
  -25.2556  -13.8020   20.5726 C   0  0  0  0  0  0
  -24.1793  -13.0360   20.9228 C   0  0  0  0  0  0
  -24.6311  -11.6808   20.8797 C   0  0  0  0  0  0
  -23.8983  -10.4239   21.0458 C   0  0  0  0  0  0
  -24.3555   -9.4161   21.9227 C   0  0  0  0  0  0
  -23.6256   -8.2184   22.0772 C   0  0  0  0  0  0
  -22.4238   -8.0233   21.3548 C   0  0  0  0  0  0
  -21.9852   -9.0208   20.4646 C   0  0  0  0  0  0
  -22.7172  -10.2099   20.3084 C   0  0  0  0  0  0
  -21.6829   -6.0692   22.5286 C   0  0  0  0  0  0
  -21.3996   -6.5614   23.8212 C   0  0  0  0  0  0
  -21.3653   -5.6779   24.9178 C   0  0  0  0  0  0
  -21.6057   -4.3040   24.7232 C   0  0  0  0  0  0
  -21.8816   -3.8121   23.4357 C   0  0  0  0  0  0
  -21.9175   -4.6925   22.3407 C   0  0  0  0  0  0
  -22.7832  -13.5194   21.1853 C   0  0  0  0  0  0
  -22.1658   -4.2121   21.0982 F   0  0  0  0  0  0
  -21.5650   -3.4526   25.7737 F   0  0  0  0  0  0
  -29.9865  -13.5753   20.3440 N   0  0  0  0  0  0
  -26.2887  -12.9082   20.3305 N   0  0  0  0  0  0
  -25.9229  -11.6302   20.5851 N   0  0  0  0  0  0
  -22.0455  -12.8228   22.0420 N   0  0  0  0  0  0
  -25.4336  -15.1750   20.4104 N   0  0  0  0  0  0
  -31.8421  -14.8761   20.2784 O   0  0  0  0  0  0
  -21.6617   -6.8830   21.4243 O   0  0  0  0  0  0
  -22.3549  -14.5495   20.6669 O   0  0  0  0  0  0
  -24.6312  -31.8569   23.1979 C   0  0  0  0  0  0
  -25.9129  -32.4769   23.8338 C   0  0  1  0  0  0
  -27.2259  -27.2618   20.1287 C   0  0  0  0  0  0
  -25.5929  -33.8579   24.2264 N   0  0  0  0  0  0
  -23.4281  -30.4794   21.5428 C   0  0  2  0  0  0
  -24.8767  -28.9301   20.1134 C   0  0  0  0  0  0
  -22.7504  -29.4617   22.4911 C   0  0  0  0  0  0
  -18.0302  -28.1372   22.8491 C   0  0  0  0  0  0
  -24.1489  -36.7279   23.2636 C   0  0  0  0  0  0
  -25.9768  -30.7698   21.3802 C   0  0  0  0  0  0
  -26.0520  -29.3932   20.7214 C   0  0  0  0  0  0
  -27.2299  -28.5757   20.7120 C   0  0  0  0  0  0
  -26.0279  -26.8788   19.4786 C   0  0  0  0  0  0
  -24.8723  -27.6817   19.4770 C   0  0  0  0  0  0
  -23.6475  -29.8164   20.1592 C   0  0  0  0  0  0
  -25.4111  -36.3072   24.0322 C   0  0  1  0  0  0
  -20.5909  -28.3697   23.1238 C   0  0  2  0  0  0
  -20.6784  -26.9406   22.5390 C   0  0  0  0  0  0
  -19.5758  -26.6382   21.5187 C   0  0  0  0  0  0
  -18.1939  -26.7922   22.1607 C   0  0  0  0  0  0
  -19.1557  -28.8849   23.2874 C   0  0  0  0  0  0
  -18.9474  -30.1451   23.8891 C   0  0  0  0  0  0
  -17.6470  -30.6576   24.0556 C   0  0  0  0  0  0
  -25.9059  -34.9455   23.5094 C   0  0  0  0  0  0
  -16.5363  -29.9079   23.6326 C   0  0  0  0  0  0
  -16.7290  -28.6490   23.0360 C   0  0  0  0  0  0
  -26.4512  -31.6591   25.0727 C   0  0  0  0  0  0
  -25.3736  -31.3738   26.1431 C   0  0  0  0  0  0
  -27.0344  -30.3000   24.6218 C   0  0  0  0  0  0
  -27.6067  -32.4331   25.7508 C   0  0  0  0  0  0
  -27.5570  -37.1793   24.8467 C   0  0  0  0  0  0
  -21.4216  -29.3054   22.3632 N   0  0  0  0  0  0
  -26.4289  -37.3762   23.9408 N   0  0  0  0  0  0
  -24.6977  -31.0548   22.0951 N   0  0  0  0  0  0
  -23.4207  -28.8158   23.3008 O   0  0  0  0  0  0
  -28.3173  -26.3549   20.1885 O   0  0  0  0  0  0
  -26.5628  -34.8908   22.4662 O   0  0  0  0  0  0
  -23.5458  -32.1381   23.7279 O   0  0  0  0  0  0
  -29.9045  -19.8553   21.4773 C   0  0  0  0  0  0
  -29.6203  -20.0028   20.1452 C   0  0  0  0  0  0
  -29.7020  -18.7204   19.4456 C   0  0  0  0  0  0
  -29.9367  -17.5704   20.2295 C   0  0  0  0  0  0
  -29.7703  -16.0928   19.8288 C   0  0  0  0  0  0
  -29.0689  -22.5760   19.3588 C   0  0  0  0  0  0
  -28.0075  -24.8826   20.3537 C   0  0  0  0  0  0
  -29.1143  -23.6899   20.4862 C   0  0  2  0  0  0
  -28.9594  -15.9112   18.8764 N   0  0  0  0  0  0
  -29.4990  -18.7430   18.0519 N   0  0  0  0  0  0
  -29.2260  -21.1955   19.3729 N   0  0  0  0  0  0
  -30.4601  -24.2961   20.4745 N   0  3  0  0  0  0
  -28.9091  -23.0394   18.2303 O   0  0  0  0  0  0
  -30.1999  -18.1383   21.8775 S   0  0  0  0  0  0
  -31.4814  -12.6008   19.1587 H   0  0  0  0  0  0
  -30.4011  -11.5211   20.0002 H   0  0  0  0  0  0
  -29.8073  -11.6654   17.5475 H   0  0  0  0  0  0
  -29.6193  -13.3929   17.6784 H   0  0  0  0  0  0
  -27.9249  -11.2183   18.9498 H   0  0  0  0  0  0
  -27.3816  -12.4234   17.8034 H   0  0  0  0  0  0
  -27.5265  -14.1543   19.3881 H   0  0  0  0  0  0
  -28.7507  -12.2755   21.4752 H   0  0  0  0  0  0
  -28.4150  -13.9757   21.7011 H   0  0  0  0  0  0
  -25.2691   -9.5620   22.4817 H   0  0  0  0  0  0
  -23.9937   -7.4556   22.7485 H   0  0  0  0  0  0
  -21.0775   -8.8728   19.8969 H   0  0  0  0  0  0
  -22.3627  -10.9642   19.6200 H   0  0  0  0  0  0
  -21.2015   -7.6129   23.9694 H   0  0  0  0  0  0
  -21.1476   -6.0529   25.9074 H   0  0  0  0  0  0
  -22.0598   -2.7581   23.2878 H   0  0  0  0  0  0
  -22.4019  -11.9865   22.4815 H   0  0  0  0  0  0
  -21.1101  -13.1337   22.2633 H   0  0  0  0  0  0
  -24.6797  -15.8428   20.5242 H   0  0  0  0  0  0
  -26.2879  -15.5962   20.0658 H   0  0  0  0  0  0
  -26.7216  -32.5428   23.1102 H   0  0  0  0  0  0
  -25.0084  -33.9753   25.0410 H   0  0  0  0  0  0
  -22.7222  -31.3000   21.3954 H   0  0  0  0  0  0
  -23.3754  -35.9610   23.3306 H   0  0  0  0  0  0
  -24.3572  -36.8892   22.2049 H   0  0  0  0  0  0
  -23.7242  -37.6481   23.6660 H   0  0  0  0  0  0
  -26.1162  -31.5340   20.6141 H   0  0  0  0  0  0
  -26.8551  -30.8209   22.0122 H   0  0  0  0  0  0
  -28.1314  -28.9311   21.1920 H   0  0  0  0  0  0
  -25.9410  -25.9401   18.9553 H   0  0  0  0  0  0
  -23.9792  -27.3246   18.9821 H   0  0  0  0  0  0
  -23.7705  -30.5935   19.4023 H   0  0  0  0  0  0
  -22.7661  -29.2514   19.8521 H   0  0  0  0  0  0
  -25.1298  -36.1920   25.0816 H   0  0  0  0  0  0
  -21.0024  -28.3287   24.1354 H   0  0  0  0  0  0
  -20.5638  -26.2325   23.3610 H   0  0  0  0  0  0
  -21.6647  -26.7409   22.1193 H   0  0  0  0  0  0
  -19.6914  -25.6299   21.1216 H   0  0  0  0  0  0
  -19.6674  -27.3187   20.6708 H   0  0  0  0  0  0
  -17.4199  -26.6672   21.4028 H   0  0  0  0  0  0
  -18.0352  -26.0061   22.9004 H   0  0  0  0  0  0
  -19.7951  -30.7272   24.2246 H   0  0  0  0  0  0
  -17.5027  -31.6244   24.5163 H   0  0  0  0  0  0
  -15.5363  -30.2969   23.7641 H   0  0  0  0  0  0
  -15.8696  -28.0788   22.7091 H   0  0  0  0  0  0
  -24.5928  -30.7066   25.7762 H   0  0  0  0  0  0
  -24.8892  -32.2906   26.4817 H   0  0  0  0  0  0
  -25.8046  -30.8949   27.0231 H   0  0  0  0  0  0
  -26.2916  -29.6765   24.1212 H   0  0  0  0  0  0
  -27.3993  -29.7244   25.4738 H   0  0  0  0  0  0
  -27.8831  -30.4259   23.9474 H   0  0  0  0  0  0
  -27.2674  -33.3638   26.2062 H   0  0  0  0  0  0
  -28.3890  -32.6879   25.0352 H   0  0  0  0  0  0
  -28.0716  -31.8466   26.5436 H   0  0  0  0  0  0
  -28.2595  -38.0083   24.7500 H   0  0  0  0  0  0
  -28.1065  -36.2620   24.6323 H   0  0  0  0  0  0
  -27.2294  -37.1461   25.8871 H   0  0  0  0  0  0
  -20.9383  -29.8790   21.6864 H   0  0  0  0  0  0
  -26.0170  -38.2839   24.1413 H   0  0  0  0  0  0
  -29.9337  -20.6047   22.2570 H   0  0  0  0  0  0
  -27.3321  -24.5711   19.5604 H   0  0  0  0  0  0
  -27.3970  -24.8243   21.2564 H   0  0  0  0  0  0
  -28.9690  -23.1884   21.4439 H   0  0  0  0  0  0
  -28.5509  -16.7999   18.6037 H   0  0  0  0  0  0
  -29.9088  -19.5364   17.5717 H   0  0  0  0  0  0
  -29.7568  -17.8862   17.5720 H   0  0  0  0  0  0
  -29.0154  -20.8780   18.4370 H   0  0  0  0  0  0
  -30.6216  -24.7303   19.5806 H   0  0  0  0  0  0
  -31.1645  -23.5941   20.6144 H   0  0  0  0  0  0
  -30.5446  -24.9964   21.1880 H   0  0  0  0  0  0
  1 25  1  0  0  0
  1 30  2  0  0  0
  1 75  1  0  0  0
  2  3  1  0  0  0
  2 25  1  0  0  0
  2 85  1  0  0  0
  2 86  1  0  0  0
  3  4  1  0  0  0
  3 87  1  0  0  0
  3 88  1  0  0  0
  4  5  1  0  0  0
  4 89  1  0  0  0
  4 90  1  0  0  0
  5  6  1  0  0  0
  5 26  1  0  0  0
  5 91  1  0  0  0
  6 25  1  0  0  0
  6 92  1  0  0  0
  6 93  1  0  0  0
  7  8  2  0  0  0
  7 26  1  0  0  0
  7 29  1  0  0  0
  8  9  1  0  0  0
  8 22  1  0  0  0
  9 10  1  0  0  0
  9 27  2  0  0  0
 10 11  2  0  0  0
 10 15  1  0  0  0
 11 12  1  0  0  0
 11 94  1  0  0  0
 12 13  2  0  0  0
 12 95  1  0  0  0
 13 14  1  0  0  0
 13 31  1  0  0  0
 14 15  2  0  0  0
 14 96  1  0  0  0
 15 97  1  0  0  0
 16 17  2  0  0  0
 16 21  1  0  0  0
 16 31  1  0  0  0
 17 18  1  0  0  0
 17 98  1  0  0  0
 18 19  2  0  0  0
 18 99  1  0  0  0
 19 20  1  0  0  0
 19 24  1  0  0  0
 20 21  2  0  0  0
 20100  1  0  0  0
 21 23  1  0  0  0
 22 28  1  0  0  0
 22 32  2  0  0  0
 26 27  1  0  0  0
 28101  1  0  0  0
 28102  1  0  0  0
 29103  1  0  0  0
 29104  1  0  0  0
 33 34  1  0  0  0
 33 66  1  0  0  0
 33 70  2  0  0  0
 34 36  1  0  0  0
 34 59  1  0  0  0
 34105  1  0  0  0
 35 44  2  0  0  0
 35 45  1  0  0  0
 35 68  1  0  0  0
 36 56  1  0  0  0
 36106  1  0  0  0
 37 39  1  0  0  0
 37 47  1  0  0  0
 37 66  1  0  0  0
 37107  1  0  0  0
 38 43  2  0  0  0
 38 46  1  0  0  0
 38 47  1  0  0  0
 39 64  1  0  0  0
 39 67  2  0  0  0
 40 52  1  0  0  0
 40 53  2  0  0  0
 40 58  1  0  0  0
 41108  1  0  0  0
 41109  1  0  0  0
 41110  1  0  0  0
 41 48  1  0  0  0
 42 43  1  0  0  0
 42 66  1  0  0  0
 42111  1  0  0  0
 42112  1  0  0  0
 43 44  1  0  0  0
 44113  1  0  0  0
 45 46  2  0  0  0
 45114  1  0  0  0
 46115  1  0  0  0
 47116  1  0  0  0
 47117  1  0  0  0
 48 56  1  0  0  0
 48 65  1  0  0  0
 48118  1  0  0  0
 49 50  1  0  0  0
 49 53  1  0  0  0
 49 64  1  0  0  0
 49119  1  0  0  0
 50 51  1  0  0  0
 50120  1  0  0  0
 50121  1  0  0  0
 51 52  1  0  0  0
 51122  1  0  0  0
 51123  1  0  0  0
 52124  1  0  0  0
 52125  1  0  0  0
 53 54  1  0  0  0
 54 55  2  0  0  0
 54126  1  0  0  0
 55 57  1  0  0  0
 55127  1  0  0  0
 56 69  2  0  0  0
 57 58  2  0  0  0
 57128  1  0  0  0
 58129  1  0  0  0
 59 60  1  0  0  0
 59 61  1  0  0  0
 59 62  1  0  0  0
 60130  1  0  0  0
 60131  1  0  0  0
 60132  1  0  0  0
 61133  1  0  0  0
 61134  1  0  0  0
 61135  1  0  0  0
 62136  1  0  0  0
 62137  1  0  0  0
 62138  1  0  0  0
 63 65  1  0  0  0
 63139  1  0  0  0
 63140  1  0  0  0
 63141  1  0  0  0
 64142  1  0  0  0
 65143  1  0  0  0
 68 77  1  0  0  0
 71 72  2  0  0  0
 71 84  1  0  0  0
 71144  1  0  0  0
 72 73  1  0  0  0
 72 81  1  0  0  0
 73 74  2  0  0  0
 73 80  1  0  0  0
 74 75  1  0  0  0
 74 84  1  0  0  0
 75 79  2  0  0  0
 76 78  1  0  0  0
 76 81  1  0  0  0
 76 83  2  0  0  0
 77 78  1  0  0  0
 77145  1  0  0  0
 77146  1  0  0  0
 78 82  1  0  0  0
 78147  1  0  0  0
 79148  1  0  0  0
 80149  1  0  0  0
 80150  1  0  0  0
 81151  1  0  0  0
 82152  1  0  0  0
 82153  1  0  0  0
 82154  1  0  0  0
M  CHG  1  82   1
M  ISO  4   1 100  68 101  75 100  77 101
M  END
> <chiral flag>
0

> <version>
0

> <s_m_source_file>
/data/baiqing/PycharmProjects/Reinvent-master-3.2/result/LINK_invent/BTK/process_docking_weight1_custom_product_contain_oxygen_bond_distance_aromatic_linkinvent_7_9_3/rearranged_h_0156.sdf

> <i_m_source_file_index>
63

> <r_mmod_Potential_Energy-OPLS-2005>
104.767066955566

> <r_mmod_Stretch_Energy-OPLS-2005>
132.463180541992

> <r_mmod_Bend_Energy-OPLS-2005>
286.888702392578

> <r_mmod_Torsional_Energy-OPLS-2005>
291.474578857422

> <r_mmod_Improper_Torsional_Energy-OPLS-2005>
25.3412170410156

> <r_mmod_Van_der_Waal_Energy-OPLS-2005>
134.302688598633

> <r_mmod_Electrostatic_Energy-OPLS-2005>
-391.318664550781

> <r_mmod_Solvation_Energy-OPLS-2005>
-489.503936767578

> <b_mmod_Minimization_Converged-OPLS-2005>
0

> <r_mmod_RMS_Derivative-OPLS-2005>
2.65063095092773

$$$$
63
                    3D
 Structure written by MMmdl.
163172  0  0  1  0            999 V2000
  -30.5409  -14.8290   20.4571 C   0  0  0  0  0  0
  -30.4549  -12.5093   19.4769 C   0  0  0  0  0  0
  -29.5228  -12.5303   18.2421 C   0  0  0  0  0  0
  -28.0514  -12.3277   18.6538 C   0  0  0  0  0  0
  -27.6460  -13.2276   19.8504 C   0  0  2  0  0  0
  -28.6915  -13.1614   20.9863 C   0  0  0  0  0  0
  -25.2548  -13.8169   20.5685 C   0  0  0  0  0  0
  -24.1834  -13.0428   20.9220 C   0  0  0  0  0  0
  -24.6410  -11.6899   20.8746 C   0  0  0  0  0  0
  -23.9068  -10.4285   21.0398 C   0  0  0  0  0  0
  -24.3616   -9.4203   21.9178 C   0  0  0  0  0  0
  -23.6296   -8.2236   22.0748 C   0  0  0  0  0  0
  -22.4276   -8.0276   21.3542 C   0  0  0  0  0  0
  -21.9911   -9.0252   20.4641 C   0  0  0  0  0  0
  -22.7235  -10.2133   20.3048 C   0  0  0  0  0  0
  -21.6852   -6.0728   22.5278 C   0  0  0  0  0  0
  -21.4013   -6.5635   23.8212 C   0  0  0  0  0  0
  -21.3659   -5.6785   24.9175 C   0  0  0  0  0  0
  -21.6052   -4.3046   24.7221 C   0  0  0  0  0  0
  -21.8820   -3.8140   23.4341 C   0  0  0  0  0  0
  -21.9196   -4.6959   22.3401 C   0  0  0  0  0  0
  -22.7852  -13.5225   21.1866 C   0  0  0  0  0  0
  -22.1658   -4.2153   21.0980 F   0  0  0  0  0  0
  -21.5637   -3.4523   25.7731 F   0  0  0  0  0  0
  -29.9872  -13.5603   20.4149 N   0  0  0  0  0  0
  -26.2966  -12.9360   20.3258 N   0  0  0  0  0  0
  -25.9342  -11.6511   20.5735 N   0  0  0  0  0  0
  -22.0483  -12.8226   22.0412 N   0  0  0  0  0  0
  -25.4233  -15.1892   20.4040 N   0  0  0  0  0  0
  -31.7168  -14.9891   20.1149 O   0  0  0  0  0  0
  -21.6643   -6.8871   21.4239 O   0  0  0  0  0  0
  -22.3544  -14.5519   20.6689 O   0  0  0  0  0  0
  -24.6345  -31.8512   23.1930 C   0  0  0  0  0  0
  -25.9141  -32.4736   23.8310 C   0  0  1  0  0  0
  -27.2237  -27.2155   20.1468 C   0  0  0  0  0  0
  -25.5918  -33.8539   24.2240 N   0  0  0  0  0  0
  -23.4368  -30.4695   21.5368 C   0  0  2  0  0  0
  -24.8893  -28.9039   20.1160 C   0  0  0  0  0  0
  -22.7540  -29.4573   22.4897 C   0  0  0  0  0  0
  -18.0300  -28.1389   22.8478 C   0  0  0  0  0  0
  -24.1495  -36.7284   23.2641 C   0  0  0  0  0  0
  -25.9864  -30.7509   21.3794 C   0  0  0  0  0  0
  -26.0634  -29.3656   20.7272 C   0  0  0  0  0  0
  -27.2378  -28.5356   20.7274 C   0  0  0  0  0  0
  -26.0290  -26.8306   19.5073 C   0  0  0  0  0  0
  -24.8790  -27.6457   19.4933 C   0  0  0  0  0  0
  -23.6612  -29.7963   20.1569 C   0  0  0  0  0  0
  -25.4121  -36.3068   24.0327 C   0  0  1  0  0  0
  -20.5909  -28.3706   23.1260 C   0  0  2  0  0  0
  -20.6787  -26.9416   22.5413 C   0  0  0  0  0  0
  -19.5760  -26.6378   21.5218 C   0  0  0  0  0  0
  -18.1941  -26.7930   22.1628 C   0  0  0  0  0  0
  -19.1555  -28.8863   23.2862 C   0  0  0  0  0  0
  -18.9471  -30.1463   23.8884 C   0  0  0  0  0  0
  -17.6467  -30.6588   24.0550 C   0  0  0  0  0  0
  -25.9061  -34.9429   23.5097 C   0  0  0  0  0  0
  -16.5360  -29.9082   23.6322 C   0  0  0  0  0  0
  -16.7283  -28.6499   23.0346 C   0  0  0  0  0  0
  -26.4483  -31.6555   25.0710 C   0  0  0  0  0  0
  -25.3696  -31.3715   26.1427 C   0  0  0  0  0  0
  -27.0310  -30.2952   24.6216 C   0  0  0  0  0  0
  -27.6041  -32.4282   25.7491 C   0  0  0  0  0  0
  -27.5587  -37.1800   24.8464 C   0  0  0  0  0  0
  -21.4242  -29.3043   22.3641 N   0  0  0  0  0  0
  -26.4299  -37.3764   23.9408 N   0  0  0  0  0  0
  -24.7053  -31.0438   22.0924 N   0  0  0  0  0  0
  -23.4216  -28.8126   23.3027 O   0  0  0  0  0  0
  -28.2817  -26.2634   20.1488 O   0  0  0  0  0  0
  -26.5652  -34.8903   22.4679 O   0  0  0  0  0  0
  -23.5479  -32.1348   23.7187 O   0  0  0  0  0  0
  -28.4221  -18.0404   20.7594 C   0  0  0  0  0  0
  -29.5913  -17.3007   20.5967 C   0  0  0  0  0  0
  -29.6631  -19.9645   20.2660 C   0  0  0  0  0  0
  -31.4467  -24.5215   20.0235 C   0  0  0  0  0  0
  -28.3363  -23.4582   20.5091 C   0  0  0  0  0  0
  -30.3743  -21.4932   18.3169 C   0  0  0  0  0  0
  -30.9507  -22.8918   18.1152 C   0  0  0  0  0  0
  -30.0883  -21.4422   19.8130 C   0  0  1  0  0  0
  -30.3651  -23.7673   19.2453 C   0  0  1  0  0  0
  -31.7636  -25.9098   19.5141 C   0  0  0  0  0  0
  -28.8041  -25.2739   22.3477 C   0  0  0  0  0  0
  -28.1125  -25.0175   21.0002 C   0  0  1  0  0  0
  -28.4547  -19.4591   20.5541 N   0  0  0  0  0  0
  -32.0525  -24.0315   21.0205 N   0  0  0  0  0  0
  -29.5277  -22.8814   20.0879 N   0  0  0  0  0  0
  -29.6652  -15.8837   20.7359 N   0  0  0  0  0  0
  -27.3636  -22.7121   20.6503 O   0  0  0  0  0  0
  -30.8314  -18.5416   20.2235 S   0  0  0  0  0  0
  -31.4890  -12.6704   19.1683 H   0  0  0  0  0  0
  -30.4375  -11.5306   19.9592 H   0  0  0  0  0  0
  -29.8235  -11.7589   17.5328 H   0  0  0  0  0  0
  -29.6272  -13.4823   17.7190 H   0  0  0  0  0  0
  -27.9263  -11.2780   18.9221 H   0  0  0  0  0  0
  -27.3904  -12.5028   17.8041 H   0  0  0  0  0  0
  -27.6357  -14.2484   19.4683 H   0  0  0  0  0  0
  -28.7500  -12.1536   21.4002 H   0  0  0  0  0  0
  -28.4060  -13.8107   21.8150 H   0  0  0  0  0  0
  -25.2767   -9.5678   22.4747 H   0  0  0  0  0  0
  -24.0020   -7.4620   22.7453 H   0  0  0  0  0  0
  -21.0855   -8.8755   19.8943 H   0  0  0  0  0  0
  -22.3700  -10.9664   19.6150 H   0  0  0  0  0  0
  -21.1993   -7.6135   23.9719 H   0  0  0  0  0  0
  -21.1490   -6.0510   25.9084 H   0  0  0  0  0  0
  -22.0605   -2.7601   23.2838 H   0  0  0  0  0  0
  -22.4094  -11.9900   22.4831 H   0  0  0  0  0  0
  -21.1087  -13.1239   22.2565 H   0  0  0  0  0  0
  -24.6400  -15.8290   20.4822 H   0  0  0  0  0  0
  -26.2361  -15.6089   19.9732 H   0  0  0  0  0  0
  -26.7216  -32.5380   23.1056 H   0  0  0  0  0  0
  -24.9980  -33.9664   25.0327 H   0  0  0  0  0  0
  -22.7339  -31.2909   21.3834 H   0  0  0  0  0  0
  -23.3759  -35.9613   23.3292 H   0  0  0  0  0  0
  -24.3583  -36.8922   22.2060 H   0  0  0  0  0  0
  -23.7247  -37.6478   23.6674 H   0  0  0  0  0  0
  -26.1262  -31.5058   20.6047 H   0  0  0  0  0  0
  -26.8631  -30.8078   22.0133 H   0  0  0  0  0  0
  -28.1400  -28.8847   21.2096 H   0  0  0  0  0  0
  -25.9749  -25.8596   19.0355 H   0  0  0  0  0  0
  -23.9805  -27.2860   19.0118 H   0  0  0  0  0  0
  -23.7898  -30.5687   19.3979 H   0  0  0  0  0  0
  -22.7801  -29.2295   19.8514 H   0  0  0  0  0  0
  -25.1302  -36.1915   25.0820 H   0  0  0  0  0  0
  -20.9990  -28.3291   24.1384 H   0  0  0  0  0  0
  -20.5684  -26.2320   23.3623 H   0  0  0  0  0  0
  -21.6651  -26.7428   22.1206 H   0  0  0  0  0  0
  -19.6916  -25.6282   21.1258 H   0  0  0  0  0  0
  -19.6700  -27.3180   20.6738 H   0  0  0  0  0  0
  -17.4212  -26.6674   21.4033 H   0  0  0  0  0  0
  -18.0335  -26.0081   22.9032 H   0  0  0  0  0  0
  -19.7945  -30.7282   24.2255 H   0  0  0  0  0  0
  -17.5015  -31.6263   24.5156 H   0  0  0  0  0  0
  -15.5357  -30.2970   23.7645 H   0  0  0  0  0  0
  -15.8691  -28.0803   22.7065 H   0  0  0  0  0  0
  -24.5874  -30.7061   25.7753 H   0  0  0  0  0  0
  -24.8876  -32.2880   26.4837 H   0  0  0  0  0  0
  -25.7997  -30.8896   27.0219 H   0  0  0  0  0  0
  -26.2888  -29.6725   24.1211 H   0  0  0  0  0  0
  -27.3928  -29.7191   25.4744 H   0  0  0  0  0  0
  -27.8800  -30.4191   23.9492 H   0  0  0  0  0  0
  -27.2655  -33.3592   26.2046 H   0  0  0  0  0  0
  -28.3865  -32.6825   25.0330 H   0  0  0  0  0  0
  -28.0688  -31.8416   26.5427 H   0  0  0  0  0  0
  -28.2592  -38.0107   24.7503 H   0  0  0  0  0  0
  -28.1096  -36.2636   24.6292 H   0  0  0  0  0  0
  -27.2304  -37.1449   25.8865 H   0  0  0  0  0  0
  -20.9444  -29.8752   21.6822 H   0  0  0  0  0  0
  -26.0180  -38.2838   24.1397 H   0  0  0  0  0  0
  -27.4580  -17.6189   21.0079 H   0  0  0  0  0  0
  -31.0736  -20.7203   17.9941 H   0  0  0  0  0  0
  -29.4478  -21.3609   17.7556 H   0  0  0  0  0  0
  -30.6999  -23.2834   17.1281 H   0  0  0  0  0  0
  -32.0405  -22.8494   18.1669 H   0  0  0  0  0  0
  -31.0635  -21.5058   20.2968 H   0  0  0  0  0  0
  -29.7344  -24.5119   18.7528 H   0  0  0  0  0  0
  -30.9336  -26.5866   19.7145 H   0  0  0  0  0  0
  -31.9400  -25.8879   18.4383 H   0  0  0  0  0  0
  -32.6560  -26.3091   19.9970 H   0  0  0  0  0  0
  -28.3315  -26.1037   22.8720 H   0  0  0  0  0  0
  -29.8548  -25.5238   22.2172 H   0  0  0  0  0  0
  -28.7482  -24.4025   23.0013 H   0  0  0  0  0  0
  -27.0522  -25.0088   21.2541 H   0  0  0  0  0  0
  -31.7382  -23.0943   21.2429 H   0  0  0  0  0  0
  -28.7831  -15.4934   21.0311 H   0  0  0  0  0  0
  1 25  1  0  0  0
  1 30  2  0  0  0
  1 86  1  0  0  0
  2  3  1  0  0  0
  2 25  1  0  0  0
  2 89  1  0  0  0
  2 90  1  0  0  0
  3  4  1  0  0  0
  3 91  1  0  0  0
  3 92  1  0  0  0
  4  5  1  0  0  0
  4 93  1  0  0  0
  4 94  1  0  0  0
  5  6  1  0  0  0
  5 26  1  0  0  0
  5 95  1  0  0  0
  6 25  1  0  0  0
  6 96  1  0  0  0
  6 97  1  0  0  0
  7  8  2  0  0  0
  7 26  1  0  0  0
  7 29  1  0  0  0
  8  9  1  0  0  0
  8 22  1  0  0  0
  9 10  1  0  0  0
  9 27  2  0  0  0
 10 11  2  0  0  0
 10 15  1  0  0  0
 11 12  1  0  0  0
 11 98  1  0  0  0
 12 13  2  0  0  0
 12 99  1  0  0  0
 13 14  1  0  0  0
 13 31  1  0  0  0
 14 15  2  0  0  0
 14100  1  0  0  0
 15101  1  0  0  0
 16 17  2  0  0  0
 16 21  1  0  0  0
 16 31  1  0  0  0
 17 18  1  0  0  0
 17102  1  0  0  0
 18 19  2  0  0  0
 18103  1  0  0  0
 19 20  1  0  0  0
 19 24  1  0  0  0
 20 21  2  0  0  0
 20104  1  0  0  0
 21 23  1  0  0  0
 22 28  1  0  0  0
 22 32  2  0  0  0
 26 27  1  0  0  0
 28105  1  0  0  0
 28106  1  0  0  0
 29107  1  0  0  0
 29108  1  0  0  0
 33 34  1  0  0  0
 33 66  1  0  0  0
 33 70  2  0  0  0
 34 36  1  0  0  0
 34 59  1  0  0  0
 34109  1  0  0  0
 35 44  2  0  0  0
 35 45  1  0  0  0
 35 68  1  0  0  0
 36 56  1  0  0  0
 36110  1  0  0  0
 37 39  1  0  0  0
 37 47  1  0  0  0
 37 66  1  0  0  0
 37111  1  0  0  0
 38 43  2  0  0  0
 38 46  1  0  0  0
 38 47  1  0  0  0
 39 64  1  0  0  0
 39 67  2  0  0  0
 40 52  1  0  0  0
 40 53  2  0  0  0
 40 58  1  0  0  0
 41112  1  0  0  0
 41113  1  0  0  0
 41114  1  0  0  0
 41 48  1  0  0  0
 42 43  1  0  0  0
 42 66  1  0  0  0
 42115  1  0  0  0
 42116  1  0  0  0
 43 44  1  0  0  0
 44117  1  0  0  0
 45 46  2  0  0  0
 45118  1  0  0  0
 46119  1  0  0  0
 47120  1  0  0  0
 47121  1  0  0  0
 48 56  1  0  0  0
 48 65  1  0  0  0
 48122  1  0  0  0
 49 50  1  0  0  0
 49 53  1  0  0  0
 49 64  1  0  0  0
 49123  1  0  0  0
 50 51  1  0  0  0
 50124  1  0  0  0
 50125  1  0  0  0
 51 52  1  0  0  0
 51126  1  0  0  0
 51127  1  0  0  0
 52128  1  0  0  0
 52129  1  0  0  0
 53 54  1  0  0  0
 54 55  2  0  0  0
 54130  1  0  0  0
 55 57  1  0  0  0
 55131  1  0  0  0
 56 69  2  0  0  0
 57 58  2  0  0  0
 57132  1  0  0  0
 58133  1  0  0  0
 59 60  1  0  0  0
 59 61  1  0  0  0
 59 62  1  0  0  0
 60134  1  0  0  0
 60135  1  0  0  0
 60136  1  0  0  0
 61137  1  0  0  0
 61138  1  0  0  0
 61139  1  0  0  0
 62140  1  0  0  0
 62141  1  0  0  0
 62142  1  0  0  0
 63 65  1  0  0  0
 63143  1  0  0  0
 63144  1  0  0  0
 63145  1  0  0  0
 64146  1  0  0  0
 65147  1  0  0  0
 68 82  1  0  0  0
 71 72  2  0  0  0
 71 83  1  0  0  0
 71148  1  0  0  0
 72 86  1  0  0  0
 72 88  1  0  0  0
 73 83  2  0  0  0
 73 88  1  0  0  0
 73 78  1  0  0  0
 74 80  1  0  0  0
 74 84  2  0  0  0
 74 79  1  0  0  0
 75 82  1  0  0  0
 75 85  1  0  0  0
 75 87  2  0  0  0
 76 77  1  0  0  0
 76 78  1  0  0  0
 76149  1  0  0  0
 76150  1  0  0  0
 77 79  1  0  0  0
 77151  1  0  0  0
 77152  1  0  0  0
 78 85  1  0  0  0
 78153  1  0  0  0
 79 85  1  0  0  0
 79154  1  0  0  0
 80155  1  0  0  0
 80156  1  0  0  0
 80157  1  0  0  0
 81158  1  0  0  0
 81159  1  0  0  0
 81160  1  0  0  0
 81 82  1  0  0  0
 82161  1  0  0  0
 84162  1  0  0  0
 86163  1  0  0  0
M  ISO  4   1 100  68 101  82 101  86 100
M  END
> <chiral flag>
0

> <version>
0

> <s_m_source_file>
/data/baiqing/PycharmProjects/Reinvent-master-3.2/result/LINK_invent/BTK/process_docking_weight1_custom_product_contain_oxygen_bond_distance_aromatic_linkinvent_7_9_3/rearranged_h_0156.sdf

> <i_m_source_file_index>
64

> <r_mmod_Potential_Energy-OPLS-2005>
403.380981445312

> <r_mmod_Stretch_Energy-OPLS-2005>
166.082733154297

> <r_mmod_Bend_Energy-OPLS-2005>
355.719543457031

> <r_mmod_Torsional_Energy-OPLS-2005>
308.496368408203

> <r_mmod_Improper_Torsional_Energy-OPLS-2005>
8.41767120361328

> <r_mmod_Van_der_Waal_Energy-OPLS-2005>
102.681396484375

> <r_mmod_Electrostatic_Energy-OPLS-2005>
-413.933258056641

> <r_mmod_Solvation_Energy-OPLS-2005>
-247.684722900391

> <b_mmod_Minimization_Converged-OPLS-2005>
0

> <r_mmod_RMS_Derivative-OPLS-2005>
1.71571636199951

$$$$
64
                    3D
 Structure written by MMmdl.
155164  0  0  1  0            999 V2000
  -30.6459  -14.6356   20.4706 C   0  0  0  0  0  0
  -30.4256  -12.3815   19.4622 C   0  0  0  0  0  0
  -29.5051  -12.5011   18.2283 C   0  0  0  0  0  0
  -28.0275  -12.3463   18.6389 C   0  0  0  0  0  0
  -27.6504  -13.2239   19.8629 C   0  0  2  0  0  0
  -28.6946  -13.1018   20.9956 C   0  0  0  0  0  0
  -25.2546  -13.8188   20.5704 C   0  0  0  0  0  0
  -24.1821  -13.0438   20.9198 C   0  0  0  0  0  0
  -24.6404  -11.6912   20.8751 C   0  0  0  0  0  0
  -23.9079  -10.4290   21.0409 C   0  0  0  0  0  0
  -24.3633   -9.4203   21.9181 C   0  0  0  0  0  0
  -23.6305   -8.2240   22.0749 C   0  0  0  0  0  0
  -22.4284   -8.0282   21.3544 C   0  0  0  0  0  0
  -21.9924   -9.0255   20.4643 C   0  0  0  0  0  0
  -22.7255  -10.2133   20.3053 C   0  0  0  0  0  0
  -21.6855   -6.0745   22.5281 C   0  0  0  0  0  0
  -21.4016   -6.5647   23.8217 C   0  0  0  0  0  0
  -21.3657   -5.6796   24.9176 C   0  0  0  0  0  0
  -21.6042   -4.3058   24.7223 C   0  0  0  0  0  0
  -21.8820   -3.8156   23.4342 C   0  0  0  0  0  0
  -21.9192   -4.6974   22.3401 C   0  0  0  0  0  0
  -22.7843  -13.5215   21.1864 C   0  0  0  0  0  0
  -22.1660   -4.2162   21.0977 F   0  0  0  0  0  0
  -21.5630   -3.4540   25.7735 F   0  0  0  0  0  0
  -30.0101  -13.4219   20.4256 N   0  0  0  0  0  0
  -26.2981  -12.9384   20.3340 N   0  0  0  0  0  0
  -25.9335  -11.6530   20.5780 N   0  0  0  0  0  0
  -22.0495  -12.8197   22.0420 N   0  0  0  0  0  0
  -25.4256  -15.1911   20.4122 N   0  0  0  0  0  0
  -31.8231  -14.7387   20.1122 O   0  0  0  0  0  0
  -21.6641   -6.8884   21.4244 O   0  0  0  0  0  0
  -22.3524  -14.5525   20.6718 O   0  0  0  0  0  0
  -24.6261  -31.8605   23.2037 C   0  0  0  0  0  0
  -25.9113  -32.4783   23.8368 C   0  0  1  0  0  0
  -27.2275  -27.3375   20.1035 C   0  0  0  0  0  0
  -25.5931  -33.8583   24.2293 N   0  0  0  0  0  0
  -23.4189  -30.4852   21.5454 C   0  0  2  0  0  0
  -24.8652  -28.9430   20.1074 C   0  0  0  0  0  0
  -22.7466  -29.4645   22.4941 C   0  0  0  0  0  0
  -18.0280  -28.1401   22.8493 C   0  0  0  0  0  0
  -24.1482  -36.7286   23.2637 C   0  0  0  0  0  0
  -25.9590  -30.7964   21.3725 C   0  0  0  0  0  0
  -26.0335  -29.4262   20.7110 C   0  0  0  0  0  0
  -27.2166  -28.6320   20.7042 C   0  0  0  0  0  0
  -26.0316  -26.8952   19.4934 C   0  0  0  0  0  0
  -24.8645  -27.6815   19.4919 C   0  0  0  0  0  0
  -23.6318  -29.8205   20.1600 C   0  0  0  0  0  0
  -25.4102  -36.3081   24.0336 C   0  0  1  0  0  0
  -20.5879  -28.3708   23.1285 C   0  0  2  0  0  0
  -20.6772  -26.9433   22.5413 C   0  0  0  0  0  0
  -19.5748  -26.6398   21.5218 C   0  0  0  0  0  0
  -18.1925  -26.7946   22.1628 C   0  0  0  0  0  0
  -19.1532  -28.8868   23.2887 C   0  0  0  0  0  0
  -18.9455  -30.1464   23.8916 C   0  0  0  0  0  0
  -17.6456  -30.6602   24.0567 C   0  0  0  0  0  0
  -25.9051  -34.9454   23.5111 C   0  0  0  0  0  0
  -16.5347  -29.9101   23.6337 C   0  0  0  0  0  0
  -16.7266  -28.6515   23.0365 C   0  0  0  0  0  0
  -26.4496  -31.6599   25.0744 C   0  0  0  0  0  0
  -25.3731  -31.3736   26.1476 C   0  0  0  0  0  0
  -27.0348  -30.3024   24.6213 C   0  0  0  0  0  0
  -27.6063  -32.4337   25.7505 C   0  0  0  0  0  0
  -27.5588  -37.1774   24.8448 C   0  0  0  0  0  0
  -21.4182  -29.3053   22.3673 N   0  0  0  0  0  0
  -26.4270  -37.3787   23.9438 N   0  0  0  0  0  0
  -24.6867  -31.0632   22.0978 N   0  0  0  0  0  0
  -23.4188  -28.8187   23.3025 O   0  0  0  0  0  0
  -28.3283  -26.4762   20.1890 O   0  0  0  0  0  0
  -26.5616  -34.8922   22.4675 O   0  0  0  0  0  0
  -23.5426  -32.1403   23.7366 O   0  0  0  0  0  0
  -30.7418  -18.9560   19.3635 C   0  0  0  0  0  0
  -30.9082  -17.5354   19.4147 C   0  0  0  0  0  0
  -29.8196  -19.3290   20.3098 C   0  0  0  0  0  0
  -30.0799  -17.0722   20.4031 C   0  0  0  0  0  0
  -28.7111  -24.1136   19.3748 C   0  0  0  0  0  0
  -28.4973  -25.4671   19.2389 C   0  0  0  0  0  0
  -29.3113  -20.6356   20.8207 C   0  0  0  0  0  0
  -28.9130  -23.2398   18.1542 C   0  0  0  0  0  0
  -28.7979  -23.1792   20.6034 C   0  0  0  0  0  0
  -29.4022  -21.8644   18.6408 C   0  0  0  0  0  0
  -29.1735  -21.8068   20.0892 N   0  0  0  0  0  0
  -29.8841  -15.7423   20.7631 N   0  0  0  0  0  0
  -28.9957  -20.6684   22.1237 N   0  3  0  0  0  0
  -29.3935  -18.1557   20.9526 O   0  0  0  0  0  0
  -31.4711  -12.4794   19.1644 H   0  0  0  0  0  0
  -30.3368  -11.3919   19.9131 H   0  0  0  0  0  0
  -29.7664  -11.7461   17.4859 H   0  0  0  0  0  0
  -29.6555  -13.4684   17.7459 H   0  0  0  0  0  0
  -27.8618  -11.2946   18.8755 H   0  0  0  0  0  0
  -27.3739  -12.5724   17.7956 H   0  0  0  0  0  0
  -27.6618  -14.2564   19.5133 H   0  0  0  0  0  0
  -28.7002  -12.0919   21.4079 H   0  0  0  0  0  0
  -28.4483  -13.7642   21.8268 H   0  0  0  0  0  0
  -25.2781   -9.5674   22.4751 H   0  0  0  0  0  0
  -24.0017   -7.4630   22.7462 H   0  0  0  0  0  0
  -21.0859   -8.8773   19.8948 H   0  0  0  0  0  0
  -22.3718  -10.9671   19.6160 H   0  0  0  0  0  0
  -21.2007   -7.6156   23.9728 H   0  0  0  0  0  0
  -21.1480   -6.0523   25.9080 H   0  0  0  0  0  0
  -22.0599   -2.7619   23.2841 H   0  0  0  0  0  0
  -22.4127  -11.9852   22.4788 H   0  0  0  0  0  0
  -21.1111  -13.1212   22.2635 H   0  0  0  0  0  0
  -24.6587  -15.8459   20.5187 H   0  0  0  0  0  0
  -26.2755  -15.6295   20.0805 H   0  0  0  0  0  0
  -26.7190  -32.5451   23.1128 H   0  0  0  0  0  0
  -25.0083  -33.9732   25.0442 H   0  0  0  0  0  0
  -22.7136  -31.3062   21.4030 H   0  0  0  0  0  0
  -23.3768  -35.9591   23.3243 H   0  0  0  0  0  0
  -24.3597  -36.8961   22.2065 H   0  0  0  0  0  0
  -23.7196  -37.6453   23.6694 H   0  0  0  0  0  0
  -26.0905  -31.5628   20.6072 H   0  0  0  0  0  0
  -26.8395  -30.8424   22.0023 H   0  0  0  0  0  0
  -28.1123  -28.9927   21.1900 H   0  0  0  0  0  0
  -25.9748  -25.9150   19.0429 H   0  0  0  0  0  0
  -23.9650  -27.2996   19.0293 H   0  0  0  0  0  0
  -23.7476  -30.5977   19.4038 H   0  0  0  0  0  0
  -22.7520  -29.2484   19.8595 H   0  0  0  0  0  0
  -25.1271  -36.1921   25.0826 H   0  0  0  0  0  0
  -20.9976  -28.3288   24.1403 H   0  0  0  0  0  0
  -20.5681  -26.2320   23.3615 H   0  0  0  0  0  0
  -21.6640  -26.7468   22.1200 H   0  0  0  0  0  0
  -19.6909  -25.6306   21.1255 H   0  0  0  0  0  0
  -19.6687  -27.3205   20.6742 H   0  0  0  0  0  0
  -17.4193  -26.6699   21.4028 H   0  0  0  0  0  0
  -18.0320  -26.0090   22.9023 H   0  0  0  0  0  0
  -19.7925  -30.7272   24.2312 H   0  0  0  0  0  0
  -17.5007  -31.6289   24.5157 H   0  0  0  0  0  0
  -15.5348  -30.3007   23.7659 H   0  0  0  0  0  0
  -15.8663  -28.0831   22.7096 H   0  0  0  0  0  0
  -24.5903  -30.7091   25.7804 H   0  0  0  0  0  0
  -24.8928  -32.2901   26.4913 H   0  0  0  0  0  0
  -25.8057  -30.8906   27.0245 H   0  0  0  0  0  0
  -26.2934  -29.6768   24.1233 H   0  0  0  0  0  0
  -27.4032  -29.7296   25.4732 H   0  0  0  0  0  0
  -27.8804  -30.4314   23.9456 H   0  0  0  0  0  0
  -27.2686  -33.3637   26.2091 H   0  0  0  0  0  0
  -28.3862  -32.6899   25.0323 H   0  0  0  0  0  0
  -28.0751  -31.8464   26.5411 H   0  0  0  0  0  0
  -28.2529  -38.0147   24.7608 H   0  0  0  0  0  0
  -28.1161  -36.2686   24.6116 H   0  0  0  0  0  0
  -27.2338  -37.1227   25.8854 H   0  0  0  0  0  0
  -20.9364  -29.8752   21.6860 H   0  0  0  0  0  0
  -26.0144  -38.2841   24.1517 H   0  0  0  0  0  0
  -31.2724  -19.6347   18.7121 H   0  0  0  0  0  0
  -31.5639  -16.9400   18.7942 H   0  0  0  0  0  0
  -28.4687  -25.9016   18.2482 H   0  0  0  0  0  0
  -29.6295  -23.6963   17.4700 H   0  0  0  0  0  0
  -27.9660  -23.1377   17.6222 H   0  0  0  0  0  0
  -27.8325  -23.1412   21.1075 H   0  0  0  0  0  0
  -29.5475  -23.5408   21.3066 H   0  0  0  0  0  0
  -30.4692  -21.7544   18.4485 H   0  0  0  0  0  0
  -28.8775  -21.0561   18.1311 H   0  0  0  0  0  0
  -28.9939  -15.5378   21.1897 H   0  0  0  0  0  0
  -29.0895  -19.8239   22.6680 H   0  0  0  0  0  0
  -28.6518  -21.4977   22.5798 H   0  0  0  0  0  0
  1 25  1  0  0  0
  1 30  2  0  0  0
  1 82  1  0  0  0
  2  3  1  0  0  0
  2 25  1  0  0  0
  2 85  1  0  0  0
  2 86  1  0  0  0
  3  4  1  0  0  0
  3 87  1  0  0  0
  3 88  1  0  0  0
  4  5  1  0  0  0
  4 89  1  0  0  0
  4 90  1  0  0  0
  5  6  1  0  0  0
  5 26  1  0  0  0
  5 91  1  0  0  0
  6 25  1  0  0  0
  6 92  1  0  0  0
  6 93  1  0  0  0
  7  8  2  0  0  0
  7 26  1  0  0  0
  7 29  1  0  0  0
  8  9  1  0  0  0
  8 22  1  0  0  0
  9 10  1  0  0  0
  9 27  2  0  0  0
 10 11  2  0  0  0
 10 15  1  0  0  0
 11 12  1  0  0  0
 11 94  1  0  0  0
 12 13  2  0  0  0
 12 95  1  0  0  0
 13 14  1  0  0  0
 13 31  1  0  0  0
 14 15  2  0  0  0
 14 96  1  0  0  0
 15 97  1  0  0  0
 16 17  2  0  0  0
 16 21  1  0  0  0
 16 31  1  0  0  0
 17 18  1  0  0  0
 17 98  1  0  0  0
 18 19  2  0  0  0
 18 99  1  0  0  0
 19 20  1  0  0  0
 19 24  1  0  0  0
 20 21  2  0  0  0
 20100  1  0  0  0
 21 23  1  0  0  0
 22 28  1  0  0  0
 22 32  2  0  0  0
 26 27  1  0  0  0
 28101  1  0  0  0
 28102  1  0  0  0
 29103  1  0  0  0
 29104  1  0  0  0
 33 34  1  0  0  0
 33 66  1  0  0  0
 33 70  2  0  0  0
 34 36  1  0  0  0
 34 59  1  0  0  0
 34105  1  0  0  0
 35 44  2  0  0  0
 35 45  1  0  0  0
 35 68  1  0  0  0
 36 56  1  0  0  0
 36106  1  0  0  0
 37 39  1  0  0  0
 37 47  1  0  0  0
 37 66  1  0  0  0
 37107  1  0  0  0
 38 43  2  0  0  0
 38 46  1  0  0  0
 38 47  1  0  0  0
 39 64  1  0  0  0
 39 67  2  0  0  0
 40 52  1  0  0  0
 40 53  2  0  0  0
 40 58  1  0  0  0
 41108  1  0  0  0
 41109  1  0  0  0
 41110  1  0  0  0
 41 48  1  0  0  0
 42 43  1  0  0  0
 42 66  1  0  0  0
 42111  1  0  0  0
 42112  1  0  0  0
 43 44  1  0  0  0
 44113  1  0  0  0
 45 46  2  0  0  0
 45114  1  0  0  0
 46115  1  0  0  0
 47116  1  0  0  0
 47117  1  0  0  0
 48 56  1  0  0  0
 48 65  1  0  0  0
 48118  1  0  0  0
 49 50  1  0  0  0
 49 53  1  0  0  0
 49 64  1  0  0  0
 49119  1  0  0  0
 50 51  1  0  0  0
 50120  1  0  0  0
 50121  1  0  0  0
 51 52  1  0  0  0
 51122  1  0  0  0
 51123  1  0  0  0
 52124  1  0  0  0
 52125  1  0  0  0
 53 54  1  0  0  0
 54 55  2  0  0  0
 54126  1  0  0  0
 55 57  1  0  0  0
 55127  1  0  0  0
 56 69  2  0  0  0
 57 58  2  0  0  0
 57128  1  0  0  0
 58129  1  0  0  0
 59 60  1  0  0  0
 59 61  1  0  0  0
 59 62  1  0  0  0
 60130  1  0  0  0
 60131  1  0  0  0
 60132  1  0  0  0
 61133  1  0  0  0
 61134  1  0  0  0
 61135  1  0  0  0
 62136  1  0  0  0
 62137  1  0  0  0
 62138  1  0  0  0
 63 65  1  0  0  0
 63139  1  0  0  0
 63140  1  0  0  0
 63141  1  0  0  0
 64142  1  0  0  0
 65143  1  0  0  0
 68 76  1  0  0  0
 71 72  1  0  0  0
 71 73  2  0  0  0
 71144  1  0  0  0
 72 74  2  0  0  0
 72145  1  0  0  0
 73 77  1  0  0  0
 73 84  1  0  0  0
 74 82  1  0  0  0
 74 84  1  0  0  0
 75 76  2  0  0  0
 75 78  1  0  0  0
 75 79  1  0  0  0
 76146  1  0  0  0
 77 81  1  0  0  0
 77 83  2  0  0  0
 78 80  1  0  0  0
 78147  1  0  0  0
 78148  1  0  0  0
 79 81  1  0  0  0
 79149  1  0  0  0
 79150  1  0  0  0
 80 81  1  0  0  0
 80151  1  0  0  0
 80152  1  0  0  0
 82153  1  0  0  0
 83154  1  0  0  0
 83155  1  0  0  0
M  CHG  1  83   1
M  ISO  4   1 100  68 101  76 101  82 100
M  END
> <chiral flag>
0

> <version>
0

> <s_m_source_file>
/data/baiqing/PycharmProjects/Reinvent-master-3.2/result/LINK_invent/BTK/process_docking_weight1_custom_product_contain_oxygen_bond_distance_aromatic_linkinvent_7_9_3/rearranged_h_0156.sdf

> <i_m_source_file_index>
65

> <r_mmod_Potential_Energy-OPLS-2005>
-81.9146347045898

> <r_mmod_Stretch_Energy-OPLS-2005>
69.0716705322266

> <r_mmod_Bend_Energy-OPLS-2005>
158.831665039062

> <r_mmod_Torsional_Energy-OPLS-2005>
243.942794799805

> <r_mmod_Improper_Torsional_Energy-OPLS-2005>
4.64406442642212

> <r_mmod_Van_der_Waal_Energy-OPLS-2005>
127.791969299316

> <r_mmod_Electrostatic_Energy-OPLS-2005>
-290.109649658203

> <r_mmod_Solvation_Energy-OPLS-2005>
-444.168273925781

> <b_mmod_Minimization_Converged-OPLS-2005>
0

> <r_mmod_RMS_Derivative-OPLS-2005>
0.983855366706848

$$$$
65
                    3D
 Structure written by MMmdl.
156165  0  0  1  0            999 V2000
  -30.6137  -14.7954   20.4996 C   0  0  0  0  0  0
  -30.4397  -12.4982   19.4853 C   0  0  0  0  0  0
  -29.5114  -12.4973   18.2499 C   0  0  0  0  0  0
  -28.0467  -12.3021   18.6817 C   0  0  0  0  0  0
  -27.6380  -13.2320   19.8520 C   0  0  2  0  0  0
  -28.6851  -13.2181   20.9877 C   0  0  0  0  0  0
  -25.2567  -13.8206   20.5855 C   0  0  0  0  0  0
  -24.1809  -13.0462   20.9217 C   0  0  0  0  0  0
  -24.6375  -11.6941   20.8744 C   0  0  0  0  0  0
  -23.9067  -10.4332   21.0423 C   0  0  0  0  0  0
  -24.3617   -9.4264   21.9208 C   0  0  0  0  0  0
  -23.6292   -8.2295   22.0779 C   0  0  0  0  0  0
  -22.4296   -8.0313   21.3557 C   0  0  0  0  0  0
  -21.9930   -9.0299   20.4679 C   0  0  0  0  0  0
  -22.7242  -10.2179   20.3092 C   0  0  0  0  0  0
  -21.6871   -6.0758   22.5273 C   0  0  0  0  0  0
  -21.4016   -6.5664   23.8200 C   0  0  0  0  0  0
  -21.3659   -5.6814   24.9159 C   0  0  0  0  0  0
  -21.6047   -4.3082   24.7230 C   0  0  0  0  0  0
  -21.8803   -3.8179   23.4350 C   0  0  0  0  0  0
  -21.9188   -4.6980   22.3401 C   0  0  0  0  0  0
  -22.7861  -13.5271   21.1870 C   0  0  0  0  0  0
  -22.1662   -4.2175   21.0975 F   0  0  0  0  0  0
  -21.5632   -3.4562   25.7737 F   0  0  0  0  0  0
  -29.9784  -13.5758   20.3928 N   0  0  0  0  0  0
  -26.2945  -12.9386   20.3372 N   0  0  0  0  0  0
  -25.9317  -11.6529   20.5812 N   0  0  0  0  0  0
  -22.0482  -12.8276   22.0418 N   0  0  0  0  0  0
  -25.4452  -15.1946   20.4555 N   0  0  0  0  0  0
  -31.8198  -14.8753   20.2388 O   0  0  0  0  0  0
  -21.6656   -6.8916   21.4259 O   0  0  0  0  0  0
  -22.3571  -14.5592   20.6719 O   0  0  0  0  0  0
  -24.6350  -31.8523   23.1978 C   0  0  0  0  0  0
  -25.9152  -32.4733   23.8329 C   0  0  1  0  0  0
  -27.2136  -27.2309   20.1696 C   0  0  0  0  0  0
  -25.5963  -33.8551   24.2273 N   0  0  0  0  0  0
  -23.4343  -30.4754   21.5394 C   0  0  2  0  0  0
  -24.8842  -28.9149   20.1130 C   0  0  0  0  0  0
  -22.7541  -29.4597   22.4909 C   0  0  0  0  0  0
  -18.0307  -28.1366   22.8494 C   0  0  0  0  0  0
  -24.1490  -36.7265   23.2643 C   0  0  0  0  0  0
  -25.9830  -30.7603   21.3782 C   0  0  0  0  0  0
  -26.0554  -29.3791   20.7279 C   0  0  0  0  0  0
  -27.2278  -28.5525   20.7379 C   0  0  0  0  0  0
  -26.0292  -26.8509   19.5029 C   0  0  0  0  0  0
  -24.8785  -27.6621   19.4823 C   0  0  0  0  0  0
  -23.6548  -29.8032   20.1582 C   0  0  0  0  0  0
  -25.4098  -36.3058   24.0349 C   0  0  1  0  0  0
  -20.5908  -28.3719   23.1241 C   0  0  2  0  0  0
  -20.6824  -26.9416   22.5428 C   0  0  0  0  0  0
  -19.5802  -26.6336   21.5255 C   0  0  0  0  0  0
  -18.1977  -26.7901   22.1642 C   0  0  0  0  0  0
  -19.1551  -28.8858   23.2852 C   0  0  0  0  0  0
  -18.9464  -30.1463   23.8879 C   0  0  0  0  0  0
  -17.6441  -30.6566   24.0547 C   0  0  0  0  0  0
  -25.9060  -34.9441   23.5097 C   0  0  0  0  0  0
  -16.5351  -29.9036   23.6299 C   0  0  0  0  0  0
  -16.7300  -28.6471   23.0338 C   0  0  0  0  0  0
  -26.4502  -31.6572   25.0745 C   0  0  0  0  0  0
  -25.3749  -31.3742   26.1489 C   0  0  0  0  0  0
  -27.0381  -30.3006   24.6245 C   0  0  0  0  0  0
  -27.6069  -32.4344   25.7506 C   0  0  0  0  0  0
  -27.5572  -37.1778   24.8465 C   0  0  0  0  0  0
  -21.4248  -29.3069   22.3630 N   0  0  0  0  0  0
  -26.4270  -37.3766   23.9433 N   0  0  0  0  0  0
  -24.7029  -31.0490   22.0940 N   0  0  0  0  0  0
  -23.4223  -28.8158   23.3043 O   0  0  0  0  0  0
  -28.2844  -26.3037   20.2514 O   0  0  0  0  0  0
  -26.5619  -34.8925   22.4664 O   0  0  0  0  0  0
  -23.5496  -32.1358   23.7276 O   0  0  0  0  0  0
  -31.4438  -18.9459   22.3670 C   0  0  0  0  0  0
  -30.8043  -20.0745   21.8014 C   0  0  0  0  0  0
  -31.1445  -17.6263   21.9527 C   0  0  0  0  0  0
  -29.5115  -18.5505   20.4073 C   0  0  0  0  0  0
  -29.8266  -19.9276   20.7893 C   0  0  0  0  0  0
  -30.1690  -17.3658   20.9609 C   0  0  0  0  0  0
  -28.6722  -23.7078   19.7420 C   0  0  0  0  0  0
  -29.3625  -21.1943   20.0362 C   0  0  0  0  0  0
  -28.3787  -24.3580   21.9973 C   0  0  0  0  0  0
  -28.5969  -22.8092   21.9130 C   0  0  0  0  0  0
  -27.9902  -24.8473   20.5904 C   0  0  1  0  0  0
  -28.9326  -22.4533   20.5126 N   0  0  0  0  0  0
  -29.8342  -15.9476   20.6164 N   0  0  0  0  0  0
  -29.4583  -21.0491   18.7142 N   0  3  0  0  0  0
  -28.9199  -23.8141   18.5364 O   0  0  0  0  0  0
  -31.4771  -12.6361   19.1755 H   0  0  0  0  0  0
  -30.4092  -11.5341   19.9982 H   0  0  0  0  0  0
  -29.8056  -11.7090   17.5593 H   0  0  0  0  0  0
  -29.6047  -13.4413   17.7082 H   0  0  0  0  0  0
  -27.9400  -11.2646   18.9942 H   0  0  0  0  0  0
  -27.3773  -12.4337   17.8351 H   0  0  0  0  0  0
  -27.6126  -14.2390   19.4358 H   0  0  0  0  0  0
  -28.7382  -12.2381   21.4654 H   0  0  0  0  0  0
  -28.4131  -13.9282   21.7716 H   0  0  0  0  0  0
  -25.2759   -9.5755   22.4792 H   0  0  0  0  0  0
  -23.9994   -7.4718   22.7522 H   0  0  0  0  0  0
  -21.0864   -8.8845   19.9004 H   0  0  0  0  0  0
  -22.3699  -10.9732   19.6220 H   0  0  0  0  0  0
  -21.2006   -7.6179   23.9702 H   0  0  0  0  0  0
  -21.1490   -6.0567   25.9055 H   0  0  0  0  0  0
  -22.0575   -2.7645   23.2824 H   0  0  0  0  0  0
  -22.4017  -11.9856   22.4720 H   0  0  0  0  0  0
  -21.1136  -13.1405   22.2658 H   0  0  0  0  0  0
  -24.7123  -15.8709   20.6435 H   0  0  0  0  0  0
  -26.3483  -15.6280   20.3119 H   0  0  0  0  0  0
  -26.7225  -32.5408   23.1076 H   0  0  0  0  0  0
  -25.0156  -33.9675   25.0450 H   0  0  0  0  0  0
  -22.7326  -31.2975   21.3876 H   0  0  0  0  0  0
  -23.3770  -35.9579   23.3291 H   0  0  0  0  0  0
  -24.3590  -36.8887   22.2056 H   0  0  0  0  0  0
  -23.7217  -37.6463   23.6651 H   0  0  0  0  0  0
  -26.1272  -31.5119   20.6000 H   0  0  0  0  0  0
  -26.8603  -30.8155   22.0099 H   0  0  0  0  0  0
  -28.1246  -28.9013   21.2321 H   0  0  0  0  0  0
  -25.9736  -25.8954   19.0027 H   0  0  0  0  0  0
  -23.9854  -27.2979   18.9956 H   0  0  0  0  0  0
  -23.7892  -30.5755   19.4016 H   0  0  0  0  0  0
  -22.7710  -29.2409   19.8548 H   0  0  0  0  0  0
  -25.1271  -36.1896   25.0841 H   0  0  0  0  0  0
  -20.9989  -28.3329   24.1369 H   0  0  0  0  0  0
  -20.5788  -26.2345   23.3658 H   0  0  0  0  0  0
  -21.6689  -26.7488   22.1181 H   0  0  0  0  0  0
  -19.6946  -25.6230   21.1375 H   0  0  0  0  0  0
  -19.6724  -27.3055   20.6722 H   0  0  0  0  0  0
  -17.4255  -26.6654   21.4008 H   0  0  0  0  0  0
  -18.0322  -26.0040   22.9036 H   0  0  0  0  0  0
  -19.7922  -30.7293   24.2235 H   0  0  0  0  0  0
  -17.4974  -31.6255   24.5110 H   0  0  0  0  0  0
  -15.5342  -30.2915   23.7602 H   0  0  0  0  0  0
  -15.8724  -28.0768   22.7004 H   0  0  0  0  0  0
  -24.5877  -30.7128   25.7832 H   0  0  0  0  0  0
  -24.8999  -32.2940   26.4943 H   0  0  0  0  0  0
  -25.8093  -30.8893   27.0239 H   0  0  0  0  0  0
  -26.2987  -29.6746   24.1245 H   0  0  0  0  0  0
  -27.4043  -29.7275   25.4760 H   0  0  0  0  0  0
  -27.8850  -30.4298   23.9513 H   0  0  0  0  0  0
  -27.2628  -33.3606   26.2113 H   0  0  0  0  0  0
  -28.3831  -32.6974   25.0317 H   0  0  0  0  0  0
  -28.0777  -31.8475   26.5389 H   0  0  0  0  0  0
  -28.2580  -38.0086   24.7550 H   0  0  0  0  0  0
  -28.1083  -36.2640   24.6230 H   0  0  0  0  0  0
  -27.2328  -37.1350   25.8877 H   0  0  0  0  0  0
  -20.9433  -29.8757   21.6804 H   0  0  0  0  0  0
  -26.0154  -38.2847   24.1449 H   0  0  0  0  0  0
  -32.2026  -19.0960   23.1256 H   0  0  0  0  0  0
  -31.1286  -21.0573   22.1117 H   0  0  0  0  0  0
  -31.6688  -16.8131   22.4304 H   0  0  0  0  0  0
  -28.7752  -18.4091   19.6279 H   0  0  0  0  0  0
  -29.2891  -24.8479   22.3466 H   0  0  0  0  0  0
  -27.5926  -24.5956   22.7147 H   0  0  0  0  0  0
  -27.6799  -22.2884   22.1942 H   0  0  0  0  0  0
  -29.3650  -22.4882   22.6181 H   0  0  0  0  0  0
  -26.9229  -24.6517   20.4987 H   0  0  0  0  0  0
  -28.8512  -15.7764   20.4725 H   0  0  0  0  0  0
  -29.9121  -20.2353   18.3328 H   0  0  0  0  0  0
  -29.2676  -21.8413   18.1146 H   0  0  0  0  0  0
  1 25  1  0  0  0
  1 30  2  0  0  0
  1 83  1  0  0  0
  2  3  1  0  0  0
  2 25  1  0  0  0
  2 86  1  0  0  0
  2 87  1  0  0  0
  3  4  1  0  0  0
  3 88  1  0  0  0
  3 89  1  0  0  0
  4  5  1  0  0  0
  4 90  1  0  0  0
  4 91  1  0  0  0
  5  6  1  0  0  0
  5 26  1  0  0  0
  5 92  1  0  0  0
  6 25  1  0  0  0
  6 93  1  0  0  0
  6 94  1  0  0  0
  7  8  2  0  0  0
  7 26  1  0  0  0
  7 29  1  0  0  0
  8  9  1  0  0  0
  8 22  1  0  0  0
  9 10  1  0  0  0
  9 27  2  0  0  0
 10 11  2  0  0  0
 10 15  1  0  0  0
 11 12  1  0  0  0
 11 95  1  0  0  0
 12 13  2  0  0  0
 12 96  1  0  0  0
 13 14  1  0  0  0
 13 31  1  0  0  0
 14 15  2  0  0  0
 14 97  1  0  0  0
 15 98  1  0  0  0
 16 17  2  0  0  0
 16 21  1  0  0  0
 16 31  1  0  0  0
 17 18  1  0  0  0
 17 99  1  0  0  0
 18 19  2  0  0  0
 18100  1  0  0  0
 19 20  1  0  0  0
 19 24  1  0  0  0
 20 21  2  0  0  0
 20101  1  0  0  0
 21 23  1  0  0  0
 22 28  1  0  0  0
 22 32  2  0  0  0
 26 27  1  0  0  0
 28102  1  0  0  0
 28103  1  0  0  0
 29104  1  0  0  0
 29105  1  0  0  0
 33 34  1  0  0  0
 33 66  1  0  0  0
 33 70  2  0  0  0
 34 36  1  0  0  0
 34 59  1  0  0  0
 34106  1  0  0  0
 35 44  2  0  0  0
 35 45  1  0  0  0
 35 68  1  0  0  0
 36 56  1  0  0  0
 36107  1  0  0  0
 37 39  1  0  0  0
 37 47  1  0  0  0
 37 66  1  0  0  0
 37108  1  0  0  0
 38 43  2  0  0  0
 38 46  1  0  0  0
 38 47  1  0  0  0
 39 64  1  0  0  0
 39 67  2  0  0  0
 40 52  1  0  0  0
 40 53  2  0  0  0
 40 58  1  0  0  0
 41109  1  0  0  0
 41110  1  0  0  0
 41111  1  0  0  0
 41 48  1  0  0  0
 42 43  1  0  0  0
 42 66  1  0  0  0
 42112  1  0  0  0
 42113  1  0  0  0
 43 44  1  0  0  0
 44114  1  0  0  0
 45 46  2  0  0  0
 45115  1  0  0  0
 46116  1  0  0  0
 47117  1  0  0  0
 47118  1  0  0  0
 48 56  1  0  0  0
 48 65  1  0  0  0
 48119  1  0  0  0
 49 50  1  0  0  0
 49 53  1  0  0  0
 49 64  1  0  0  0
 49120  1  0  0  0
 50 51  1  0  0  0
 50121  1  0  0  0
 50122  1  0  0  0
 51 52  1  0  0  0
 51123  1  0  0  0
 51124  1  0  0  0
 52125  1  0  0  0
 52126  1  0  0  0
 53 54  1  0  0  0
 54 55  2  0  0  0
 54127  1  0  0  0
 55 57  1  0  0  0
 55128  1  0  0  0
 56 69  2  0  0  0
 57 58  2  0  0  0
 57129  1  0  0  0
 58130  1  0  0  0
 59 60  1  0  0  0
 59 61  1  0  0  0
 59 62  1  0  0  0
 60131  1  0  0  0
 60132  1  0  0  0
 60133  1  0  0  0
 61134  1  0  0  0
 61135  1  0  0  0
 61136  1  0  0  0
 62137  1  0  0  0
 62138  1  0  0  0
 62139  1  0  0  0
 63 65  1  0  0  0
 63140  1  0  0  0
 63141  1  0  0  0
 63142  1  0  0  0
 64143  1  0  0  0
 65144  1  0  0  0
 68 81  1  0  0  0
 71 72  2  0  0  0
 71 73  1  0  0  0
 71145  1  0  0  0
 72 75  1  0  0  0
 72146  1  0  0  0
 73 76  2  0  0  0
 73147  1  0  0  0
 74 75  2  0  0  0
 74 76  1  0  0  0
 74148  1  0  0  0
 75 78  1  0  0  0
 76 83  1  0  0  0
 77 81  1  0  0  0
 77 82  1  0  0  0
 77 85  2  0  0  0
 78 82  1  0  0  0
 78 84  2  0  0  0
 79 80  1  0  0  0
 79 81  1  0  0  0
 79149  1  0  0  0
 79150  1  0  0  0
 80 82  1  0  0  0
 80151  1  0  0  0
 80152  1  0  0  0
 81153  1  0  0  0
 83154  1  0  0  0
 84155  1  0  0  0
 84156  1  0  0  0
M  CHG  1  84   1
M  ISO  4   1 100  68 101  81 101  83 100
M  END
> <chiral flag>
0

> <version>
0

> <s_m_source_file>
/data/baiqing/PycharmProjects/Reinvent-master-3.2/result/LINK_invent/BTK/process_docking_weight1_custom_product_contain_oxygen_bond_distance_aromatic_linkinvent_7_9_3/rearranged_h_0156.sdf

> <i_m_source_file_index>
66

> <r_mmod_Potential_Energy-OPLS-2005>
56.2223243713379

> <r_mmod_Stretch_Energy-OPLS-2005>
137.56755065918

> <r_mmod_Bend_Energy-OPLS-2005>
201.648345947266

> <r_mmod_Torsional_Energy-OPLS-2005>
277.085113525391

> <r_mmod_Improper_Torsional_Energy-OPLS-2005>
8.85951519012451

> <r_mmod_Van_der_Waal_Energy-OPLS-2005>
138.309005737305

> <r_mmod_Electrostatic_Energy-OPLS-2005>
-397.961883544922

> <r_mmod_Solvation_Energy-OPLS-2005>
-424.128601074219

> <b_mmod_Minimization_Converged-OPLS-2005>
0

> <r_mmod_RMS_Derivative-OPLS-2005>
5.30117511749268

$$$$
66
                    3D
 Structure written by MMmdl.
147155  0  0  1  0            999 V2000
  -30.2618  -15.8558   20.3124 C   0  0  0  0  0  0
  -30.3907  -13.2587   19.5231 C   0  0  0  0  0  0
  -29.5449  -12.7058   18.3362 C   0  0  0  0  0  0
  -28.1421  -12.3039   18.8026 C   0  0  0  0  0  0
  -27.5817  -13.3340   19.8059 C   0  0  2  0  0  0
  -28.5848  -13.7842   20.9011 C   0  0  0  0  0  0
  -25.2279  -13.8329   20.5855 C   0  0  0  0  0  0
  -24.1701  -13.0453   20.9310 C   0  0  0  0  0  0
  -24.6433  -11.6964   20.8765 C   0  0  0  0  0  0
  -23.9139  -10.4299   21.0387 C   0  0  0  0  0  0
  -24.3666   -9.4204   21.9171 C   0  0  0  0  0  0
  -23.6316   -8.2248   22.0746 C   0  0  0  0  0  0
  -22.4294   -8.0287   21.3538 C   0  0  0  0  0  0
  -21.9948   -9.0272   20.4644 C   0  0  0  0  0  0
  -22.7294  -10.2141   20.3041 C   0  0  0  0  0  0
  -21.6861   -6.0749   22.5279 C   0  0  0  0  0  0
  -21.4028   -6.5650   23.8213 C   0  0  0  0  0  0
  -21.3655   -5.6802   24.9180 C   0  0  0  0  0  0
  -21.6030   -4.3062   24.7227 C   0  0  0  0  0  0
  -21.8822   -3.8155   23.4346 C   0  0  0  0  0  0
  -21.9198   -4.6977   22.3407 C   0  0  0  0  0  0
  -22.7702  -13.5148   21.1926 C   0  0  0  0  0  0
  -22.1662   -4.2169   21.0983 F   0  0  0  0  0  0
  -21.5617   -3.4534   25.7729 F   0  0  0  0  0  0
  -29.7097  -14.4744   20.2085 N   0  0  0  0  0  0
  -26.2748  -12.9713   20.3290 N   0  0  0  0  0  0
  -25.9381  -11.6751   20.5706 N   0  0  0  0  0  0
  -22.0377  -12.8118   22.0485 N   0  0  0  0  0  0
  -25.3870  -15.2078   20.4320 N   0  0  0  0  0  0
  -31.4988  -15.6739   20.2239 O   0  0  0  0  0  0
  -21.6638   -6.8891   21.4237 O   0  0  0  0  0  0
  -22.3375  -14.5450   20.6757 O   0  0  0  0  0  0
  -24.6994  -31.7815   23.1389 C   0  0  0  0  0  0
  -25.9505  -32.4372   23.7983 C   0  0  1  0  0  0
  -27.2209  -26.5391   20.2288 C   0  0  0  0  0  0
  -25.6009  -33.8205   24.1856 N   0  0  0  0  0  0
  -23.5314  -30.3789   21.4968 C   0  0  2  0  0  0
  -24.9854  -28.6847   20.1229 C   0  0  0  0  0  0
  -22.7832  -29.4224   22.4670 C   0  0  0  0  0  0
  -18.0352  -28.1428   22.8450 C   0  0  0  0  0  0
  -24.1495  -36.7117   23.2666 C   0  0  0  0  0  0
  -26.1200  -30.4600   21.4266 C   0  0  0  0  0  0
  -26.1799  -29.0068   20.7786 C   0  0  0  0  0  0
  -27.2772  -27.9692   20.7887 C   0  0  0  0  0  0
  -25.9907  -26.4651   19.5162 C   0  0  0  0  0  0
  -24.9396  -27.4410   19.4667 C   0  0  0  0  0  0
  -23.7928  -29.6645   20.1377 C   0  0  0  0  0  0
  -25.4159  -36.2841   24.0270 C   0  0  1  0  0  0
  -20.5994  -28.3796   23.1110 C   0  0  2  0  0  0
  -20.6809  -26.9441   22.5402 C   0  0  0  0  0  0
  -19.5785  -26.6364   21.5215 C   0  0  0  0  0  0
  -18.1969  -26.7954   22.1619 C   0  0  0  0  0  0
  -19.1622  -28.8942   23.2757 C   0  0  0  0  0  0
  -18.9524  -30.1523   23.8809 C   0  0  0  0  0  0
  -17.6512  -30.6609   24.0549 C   0  0  0  0  0  0
  -25.9138  -34.9228   23.4910 C   0  0  0  0  0  0
  -16.5401  -29.9085   23.6358 C   0  0  0  0  0  0
  -16.7330  -28.6509   23.0368 C   0  0  0  0  0  0
  -26.4619  -31.6479   25.0682 C   0  0  0  0  0  0
  -25.3641  -31.3849   26.1270 C   0  0  0  0  0  0
  -27.0583  -30.2798   24.6705 C   0  0  0  0  0  0
  -27.6022  -32.4389   25.7521 C   0  0  0  0  0  0
  -27.5537  -37.1746   24.8493 C   0  0  0  0  0  0
  -21.4461  -29.3017   22.3407 N   0  0  0  0  0  0
  -26.4283  -37.3603   23.9371 N   0  0  0  0  0  0
  -24.8095  -30.9093   22.0740 N   0  0  0  0  0  0
  -23.4208  -28.7836   23.3084 O   0  0  0  0  0  0
  -28.1729  -25.2550   20.2564 O   0  0  0  0  0  0
  -26.5792  -34.8835   22.4540 O   0  0  0  0  0  0
  -23.5975  -32.0965   23.6240 O   0  0  0  0  0  0
  -29.9200  -20.4682   20.7343 C   0  0  0  0  0  0
  -27.9191  -19.9809   20.0087 C   0  0  0  0  0  0
  -30.4271  -18.8159   20.2454 C   0  0  0  0  0  0
  -28.3243  -18.2464   20.3743 C   0  0  0  0  0  0
  -28.7402  -21.5219   20.0581 C   0  0  0  0  0  0
  -28.0031  -23.4207   20.3392 C   0  0  0  0  0  0
  -29.6832  -17.3768   20.3026 N   0  0  0  0  0  0
  -29.1849  -21.6507   18.8073 F   0  0  0  0  0  0
  -31.3646  -13.5416   19.1213 H   0  0  0  0  0  0
  -30.6129  -12.4690   20.2438 H   0  0  0  0  0  0
  -30.0477  -11.8571   17.8722 H   0  0  0  0  0  0
  -29.4644  -13.4745   17.5667 H   0  0  0  0  0  0
  -28.2172  -11.3286   19.2868 H   0  0  0  0  0  0
  -27.4703  -12.1765   17.9527 H   0  0  0  0  0  0
  -27.4053  -14.2159   19.1874 H   0  0  0  0  0  0
  -28.9093  -12.9537   21.5301 H   0  0  0  0  0  0
  -28.1077  -14.5010   21.5707 H   0  0  0  0  0  0
  -25.2811   -9.5679   22.4753 H   0  0  0  0  0  0
  -24.0023   -7.4642   22.7468 H   0  0  0  0  0  0
  -21.0870   -8.8800   19.8952 H   0  0  0  0  0  0
  -22.3747  -10.9685   19.6151 H   0  0  0  0  0  0
  -21.2033   -7.6157   23.9731 H   0  0  0  0  0  0
  -21.1461   -6.0523   25.9083 H   0  0  0  0  0  0
  -22.0603   -2.7613   23.2835 H   0  0  0  0  0  0
  -22.4036  -11.9794   22.4879 H   0  0  0  0  0  0
  -21.0978  -13.1099   22.2692 H   0  0  0  0  0  0
  -24.6166  -15.8553   20.5526 H   0  0  0  0  0  0
  -26.2387  -15.6532   20.1186 H   0  0  0  0  0  0
  -26.7605  -32.4782   23.0703 H   0  0  0  0  0  0
  -25.0062  -33.9212   24.9941 H   0  0  0  0  0  0
  -22.8652  -31.2210   21.2963 H   0  0  0  0  0  0
  -23.3733  -35.9475   23.3370 H   0  0  0  0  0  0
  -24.3522  -36.8743   22.2069 H   0  0  0  0  0  0
  -23.7305  -37.6327   23.6728 H   0  0  0  0  0  0
  -26.3401  -31.1723   20.6301 H   0  0  0  0  0  0
  -26.9635  -30.5293   22.1008 H   0  0  0  0  0  0
  -28.1788  -28.2345   21.3213 H   0  0  0  0  0  0
  -25.7946  -25.5379   18.9968 H   0  0  0  0  0  0
  -24.0416  -27.1831   18.9203 H   0  0  0  0  0  0
  -23.9862  -30.4199   19.3756 H   0  0  0  0  0  0
  -22.8911  -29.1463   19.8084 H   0  0  0  0  0  0
  -25.1388  -36.1599   25.0762 H   0  0  0  0  0  0
  -21.0074  -28.3435   24.1237 H   0  0  0  0  0  0
  -20.5657  -26.2427   23.3677 H   0  0  0  0  0  0
  -21.6668  -26.7351   22.1233 H   0  0  0  0  0  0
  -19.6934  -25.6247   21.1312 H   0  0  0  0  0  0
  -19.6737  -27.3119   20.6701 H   0  0  0  0  0  0
  -17.4238  -26.6696   21.4023 H   0  0  0  0  0  0
  -18.0354  -26.0116   22.9036 H   0  0  0  0  0  0
  -19.8000  -30.7362   24.2133 H   0  0  0  0  0  0
  -17.5062  -31.6279   24.5167 H   0  0  0  0  0  0
  -15.5398  -30.2960   23.7726 H   0  0  0  0  0  0
  -15.8731  -28.0798   22.7129 H   0  0  0  0  0  0
  -24.5852  -30.7178   25.7562 H   0  0  0  0  0  0
  -24.8815  -32.3094   26.4448 H   0  0  0  0  0  0
  -25.7781  -30.9171   27.0214 H   0  0  0  0  0  0
  -26.3335  -29.6354   24.1727 H   0  0  0  0  0  0
  -27.3970  -29.7324   25.5510 H   0  0  0  0  0  0
  -27.9324  -30.3883   24.0284 H   0  0  0  0  0  0
  -27.2518  -33.3770   26.1838 H   0  0  0  0  0  0
  -28.3966  -32.6829   25.0458 H   0  0  0  0  0  0
  -28.0545  -31.8712   26.5663 H   0  0  0  0  0  0
  -28.2620  -37.9963   24.7360 H   0  0  0  0  0  0
  -28.0960  -36.2478   24.6562 H   0  0  0  0  0  0
  -27.2219  -37.1676   25.8888 H   0  0  0  0  0  0
  -20.9785  -29.8665   21.6444 H   0  0  0  0  0  0
  -26.0106  -38.2668   24.1277 H   0  0  0  0  0  0
  -30.8398  -21.0527   20.7093 H   0  0  0  0  0  0
  -29.6923  -20.4093   21.8005 H   0  0  0  0  0  0
  -27.0432  -20.1592   20.6326 H   0  0  0  0  0  0
  -27.4880  -19.9471   19.0081 H   0  0  0  0  0  0
  -31.3457  -18.6330   20.8029 H   0  0  0  0  0  0
  -30.7593  -18.9042   19.2088 H   0  0  0  0  0  0
  -27.5868  -17.6505   19.8386 H   0  0  0  0  0  0
  -28.0393  -18.1179   21.4199 H   0  0  0  0  0  0
  -27.6380  -23.3368   21.3619 H   0  0  0  0  0  0
  -27.0983  -23.3407   19.7371 H   0  0  0  0  0  0
  1 25  1  0  0  0
  1 30  2  0  0  0
  1 77  1  0  0  0
  2  3  1  0  0  0
  2 25  1  0  0  0
  2 79  1  0  0  0
  2 80  1  0  0  0
  3  4  1  0  0  0
  3 81  1  0  0  0
  3 82  1  0  0  0
  4  5  1  0  0  0
  4 83  1  0  0  0
  4 84  1  0  0  0
  5  6  1  0  0  0
  5 26  1  0  0  0
  5 85  1  0  0  0
  6 25  1  0  0  0
  6 86  1  0  0  0
  6 87  1  0  0  0
  7  8  2  0  0  0
  7 26  1  0  0  0
  7 29  1  0  0  0
  8  9  1  0  0  0
  8 22  1  0  0  0
  9 10  1  0  0  0
  9 27  2  0  0  0
 10 11  2  0  0  0
 10 15  1  0  0  0
 11 12  1  0  0  0
 11 88  1  0  0  0
 12 13  2  0  0  0
 12 89  1  0  0  0
 13 14  1  0  0  0
 13 31  1  0  0  0
 14 15  2  0  0  0
 14 90  1  0  0  0
 15 91  1  0  0  0
 16 17  2  0  0  0
 16 21  1  0  0  0
 16 31  1  0  0  0
 17 18  1  0  0  0
 17 92  1  0  0  0
 18 19  2  0  0  0
 18 93  1  0  0  0
 19 20  1  0  0  0
 19 24  1  0  0  0
 20 21  2  0  0  0
 20 94  1  0  0  0
 21 23  1  0  0  0
 22 28  1  0  0  0
 22 32  2  0  0  0
 26 27  1  0  0  0
 28 95  1  0  0  0
 28 96  1  0  0  0
 29 97  1  0  0  0
 29 98  1  0  0  0
 33 34  1  0  0  0
 33 66  1  0  0  0
 33 70  2  0  0  0
 34 36  1  0  0  0
 34 59  1  0  0  0
 34 99  1  0  0  0
 35 44  2  0  0  0
 35 45  1  0  0  0
 35 68  1  0  0  0
 36 56  1  0  0  0
 36100  1  0  0  0
 37 39  1  0  0  0
 37 47  1  0  0  0
 37 66  1  0  0  0
 37101  1  0  0  0
 38 43  2  0  0  0
 38 46  1  0  0  0
 38 47  1  0  0  0
 39 64  1  0  0  0
 39 67  2  0  0  0
 40 52  1  0  0  0
 40 53  2  0  0  0
 40 58  1  0  0  0
 41102  1  0  0  0
 41103  1  0  0  0
 41104  1  0  0  0
 41 48  1  0  0  0
 42 43  1  0  0  0
 42 66  1  0  0  0
 42105  1  0  0  0
 42106  1  0  0  0
 43 44  1  0  0  0
 44107  1  0  0  0
 45 46  2  0  0  0
 45108  1  0  0  0
 46109  1  0  0  0
 47110  1  0  0  0
 47111  1  0  0  0
 48 56  1  0  0  0
 48 65  1  0  0  0
 48112  1  0  0  0
 49 50  1  0  0  0
 49 53  1  0  0  0
 49 64  1  0  0  0
 49113  1  0  0  0
 50 51  1  0  0  0
 50114  1  0  0  0
 50115  1  0  0  0
 51 52  1  0  0  0
 51116  1  0  0  0
 51117  1  0  0  0
 52118  1  0  0  0
 52119  1  0  0  0
 53 54  1  0  0  0
 54 55  2  0  0  0
 54120  1  0  0  0
 55 57  1  0  0  0
 55121  1  0  0  0
 56 69  2  0  0  0
 57 58  2  0  0  0
 57122  1  0  0  0
 58123  1  0  0  0
 59 60  1  0  0  0
 59 61  1  0  0  0
 59 62  1  0  0  0
 60124  1  0  0  0
 60125  1  0  0  0
 60126  1  0  0  0
 61127  1  0  0  0
 61128  1  0  0  0
 61129  1  0  0  0
 62130  1  0  0  0
 62131  1  0  0  0
 62132  1  0  0  0
 63 65  1  0  0  0
 63133  1  0  0  0
 63134  1  0  0  0
 63135  1  0  0  0
 64136  1  0  0  0
 65137  1  0  0  0
 68 76  1  0  0  0
 71 73  1  0  0  0
 71 75  1  0  0  0
 71138  1  0  0  0
 71139  1  0  0  0
 72 74  1  0  0  0
 72 75  1  0  0  0
 72140  1  0  0  0
 72141  1  0  0  0
 73 77  1  0  0  0
 73142  1  0  0  0
 73143  1  0  0  0
 74 77  1  0  0  0
 74144  1  0  0  0
 74145  1  0  0  0
 75 76  1  0  0  0
 75 78  1  0  0  0
 76146  1  0  0  0
 76147  1  0  0  0
M  ISO  4   1 100  68 101  76 101  77 100
M  END
> <chiral flag>
0

> <version>
0

> <s_m_source_file>
/data/baiqing/PycharmProjects/Reinvent-master-3.2/result/LINK_invent/BTK/process_docking_weight1_custom_product_contain_oxygen_bond_distance_aromatic_linkinvent_7_9_3/rearranged_h_0156.sdf

> <i_m_source_file_index>
67

> <r_mmod_Potential_Energy-OPLS-2005>
3582.63232421875

> <r_mmod_Stretch_Energy-OPLS-2005>
1374.22375488281

> <r_mmod_Bend_Energy-OPLS-2005>
980.475646972656

> <r_mmod_Torsional_Energy-OPLS-2005>
326.853576660156

> <r_mmod_Improper_Torsional_Energy-OPLS-2005>
5.15878438949585

> <r_mmod_Van_der_Waal_Energy-OPLS-2005>
122.476455688477

> <r_mmod_Electrostatic_Energy-OPLS-2005>
-268.065521240234

> <r_mmod_Solvation_Energy-OPLS-2005>
-213.6064453125

> <b_mmod_Minimization_Converged-OPLS-2005>
0

> <r_mmod_RMS_Derivative-OPLS-2005>
2.81171846389771

$$$$
67
                    3D
 Structure written by MMmdl.
160169  0  0  1  0            999 V2000
  -30.6281  -14.7878   20.4424 C   0  0  0  0  0  0
  -30.4393  -12.4834   19.4667 C   0  0  0  0  0  0
  -29.5134  -12.5225   18.2304 C   0  0  0  0  0  0
  -28.0403  -12.3350   18.6401 C   0  0  0  0  0  0
  -27.6394  -13.2378   19.8368 C   0  0  2  0  0  0
  -28.6900  -13.2059   20.9687 C   0  0  0  0  0  0
  -25.2520  -13.8218   20.5684 C   0  0  0  0  0  0
  -24.1807  -13.0468   20.9217 C   0  0  0  0  0  0
  -24.6384  -11.6934   20.8698 C   0  0  0  0  0  0
  -23.9034  -10.4311   21.0354 C   0  0  0  0  0  0
  -24.3581   -9.4238   21.9140 C   0  0  0  0  0  0
  -23.6259   -8.2262   22.0736 C   0  0  0  0  0  0
  -22.4242   -8.0305   21.3514 C   0  0  0  0  0  0
  -21.9854   -9.0260   20.4616 C   0  0  0  0  0  0
  -22.7183  -10.2142   20.3016 C   0  0  0  0  0  0
  -21.6870   -6.0720   22.5258 C   0  0  0  0  0  0
  -21.4023   -6.5608   23.8200 C   0  0  0  0  0  0
  -21.3656   -5.6758   24.9166 C   0  0  0  0  0  0
  -21.6059   -4.3017   24.7194 C   0  0  0  0  0  0
  -21.8837   -3.8121   23.4322 C   0  0  0  0  0  0
  -21.9197   -4.6934   22.3379 C   0  0  0  0  0  0
  -22.7824  -13.5249   21.1876 C   0  0  0  0  0  0
  -22.1695   -4.2132   21.0951 F   0  0  0  0  0  0
  -21.5607   -3.4503   25.7695 F   0  0  0  0  0  0
  -29.9870  -13.5655   20.3741 N   0  0  0  0  0  0
  -26.2931  -12.9422   20.3200 N   0  0  0  0  0  0
  -25.9329  -11.6575   20.5681 N   0  0  0  0  0  0
  -22.0454  -12.8236   22.0430 N   0  0  0  0  0  0
  -25.4185  -15.1944   20.4112 N   0  0  0  0  0  0
  -31.8402  -14.8414   20.2121 O   0  0  0  0  0  0
  -21.6665   -6.8862   21.4214 O   0  0  0  0  0  0
  -22.3493  -14.5558   20.6709 O   0  0  0  0  0  0
  -24.6350  -31.8532   23.1932 C   0  0  0  0  0  0
  -25.9150  -32.4749   23.8331 C   0  0  1  0  0  0
  -27.2534  -27.2344   20.1261 C   0  0  0  0  0  0
  -25.5923  -33.8554   24.2244 N   0  0  0  0  0  0
  -23.4370  -30.4725   21.5375 C   0  0  2  0  0  0
  -24.8912  -28.9092   20.1169 C   0  0  0  0  0  0
  -22.7537  -29.4598   22.4884 C   0  0  0  0  0  0
  -18.0295  -28.1423   22.8472 C   0  0  0  0  0  0
  -24.1484  -36.7270   23.2642 C   0  0  0  0  0  0
  -25.9873  -30.7561   21.3820 C   0  0  0  0  0  0
  -26.0645  -29.3745   20.7246 C   0  0  0  0  0  0
  -27.2397  -28.5473   20.7238 C   0  0  0  0  0  0
  -26.0500  -26.8557   19.4789 C   0  0  0  0  0  0
  -24.8895  -27.6553   19.4917 C   0  0  0  0  0  0
  -23.6624  -29.8003   20.1575 C   0  0  0  0  0  0
  -25.4107  -36.3066   24.0333 C   0  0  1  0  0  0
  -20.5923  -28.3736   23.1246 C   0  0  2  0  0  0
  -20.6785  -26.9439   22.5395 C   0  0  0  0  0  0
  -19.5757  -26.6389   21.5212 C   0  0  0  0  0  0
  -18.1942  -26.7953   22.1622 C   0  0  0  0  0  0
  -19.1562  -28.8892   23.2855 C   0  0  0  0  0  0
  -18.9481  -30.1487   23.8886 C   0  0  0  0  0  0
  -17.6473  -30.6610   24.0574 C   0  0  0  0  0  0
  -25.9068  -34.9444   23.5101 C   0  0  0  0  0  0
  -16.5363  -29.9103   23.6336 C   0  0  0  0  0  0
  -16.7288  -28.6528   23.0357 C   0  0  0  0  0  0
  -26.4499  -31.6595   25.0746 C   0  0  0  0  0  0
  -25.3684  -31.3772   26.1440 C   0  0  0  0  0  0
  -27.0354  -30.2998   24.6289 C   0  0  0  0  0  0
  -27.6064  -32.4339   25.7490 C   0  0  0  0  0  0
  -27.5597  -37.1772   24.8458 C   0  0  0  0  0  0
  -21.4243  -29.3068   22.3627 N   0  0  0  0  0  0
  -26.4279  -37.3765   23.9435 N   0  0  0  0  0  0
  -24.7051  -31.0474   22.0935 N   0  0  0  0  0  0
  -23.4221  -28.8168   23.3013 O   0  0  0  0  0  0
  -28.3630  -26.3352   20.2091 O   0  0  0  0  0  0
  -26.5655  -34.8917   22.4681 O   0  0  0  0  0  0
  -23.5480  -32.1382   23.7185 O   0  0  0  0  0  0
  -31.1260  -19.6899   21.1099 C   0  0  0  0  0  0
  -29.9636  -19.7995   20.3794 C   0  0  0  0  0  0
  -30.2255  -17.3918   20.5718 C   0  0  0  0  0  0
  -28.5675  -24.8011   18.2214 C   0  0  0  0  0  0
  -29.0090  -23.6889   20.5951 C   0  0  0  0  0  0
  -31.0660  -21.9030   18.2483 C   0  0  0  0  0  0
  -29.7425  -21.1266   18.2784 C   0  0  0  0  0  0
  -31.0441  -22.7877   19.5001 C   0  0  0  0  0  0
  -29.3123  -21.1339   19.7541 C   0  0  2  0  0  0
  -29.8071  -25.5002   17.7047 C   0  0  0  0  0  0
  -28.2997  -24.8848   19.7287 C   0  0  1  0  0  0
  -29.4616  -18.4533   20.1324 N   0  0  0  0  0  0
  -27.7590  -24.2504   17.4162 N   0  0  0  0  0  0
  -29.7259  -22.5829   20.1018 N   0  0  0  0  0  0
  -29.8600  -15.9525   20.4677 N   0  0  0  0  0  0
  -28.8547  -23.7545   21.8194 O   0  0  0  0  0  0
  -31.6666  -18.0200   21.3708 S   0  0  0  0  0  0
  -31.4771  -12.6132   19.1584 H   0  0  0  0  0  0
  -30.3916  -11.5099   19.9581 H   0  0  0  0  0  0
  -29.8040  -11.7619   17.5041 H   0  0  0  0  0  0
  -29.6264  -13.4789   17.7184 H   0  0  0  0  0  0
  -27.8979  -11.2852   18.9008 H   0  0  0  0  0  0
  -27.3906  -12.5293   17.7870 H   0  0  0  0  0  0
  -27.6201  -14.2492   19.4336 H   0  0  0  0  0  0
  -28.7351  -12.2152   21.4249 H   0  0  0  0  0  0
  -28.4206  -13.9013   21.7658 H   0  0  0  0  0  0
  -25.2752   -9.5728   22.4666 H   0  0  0  0  0  0
  -24.0001   -7.4656   22.7418 H   0  0  0  0  0  0
  -21.0809   -8.8757   19.8913 H   0  0  0  0  0  0
  -22.3643  -10.9656   19.6107 H   0  0  0  0  0  0
  -21.2053   -7.6120   23.9687 H   0  0  0  0  0  0
  -21.1461   -6.0496   25.9062 H   0  0  0  0  0  0
  -22.0612   -2.7567   23.2829 H   0  0  0  0  0  0
  -22.4112  -11.9928   22.4854 H   0  0  0  0  0  0
  -21.1043  -13.1210   22.2548 H   0  0  0  0  0  0
  -24.6483  -15.8456   20.5217 H   0  0  0  0  0  0
  -26.2489  -15.6265   20.0236 H   0  0  0  0  0  0
  -26.7241  -32.5399   23.1088 H   0  0  0  0  0  0
  -25.0017  -33.9674   25.0358 H   0  0  0  0  0  0
  -22.7354  -31.2953   21.3822 H   0  0  0  0  0  0
  -23.3765  -35.9583   23.3255 H   0  0  0  0  0  0
  -24.3588  -36.8935   22.2065 H   0  0  0  0  0  0
  -23.7199  -37.6442   23.6690 H   0  0  0  0  0  0
  -26.1403  -31.5164   20.6141 H   0  0  0  0  0  0
  -26.8585  -30.8029   22.0239 H   0  0  0  0  0  0
  -28.1322  -28.9013   21.2236 H   0  0  0  0  0  0
  -25.9580  -25.9144   18.9607 H   0  0  0  0  0  0
  -23.9885  -27.2875   19.0166 H   0  0  0  0  0  0
  -23.7961  -30.5750   19.4001 H   0  0  0  0  0  0
  -22.7791  -29.2389   19.8456 H   0  0  0  0  0  0
  -25.1276  -36.1911   25.0822 H   0  0  0  0  0  0
  -20.9998  -28.3309   24.1378 H   0  0  0  0  0  0
  -20.5674  -26.2350   23.3614 H   0  0  0  0  0  0
  -21.6654  -26.7446   22.1215 H   0  0  0  0  0  0
  -19.6913  -25.6289   21.1278 H   0  0  0  0  0  0
  -19.6691  -27.3167   20.6724 H   0  0  0  0  0  0
  -17.4202  -26.6687   21.4039 H   0  0  0  0  0  0
  -18.0337  -26.0115   22.9034 H   0  0  0  0  0  0
  -19.7949  -30.7304   24.2256 H   0  0  0  0  0  0
  -17.5025  -31.6274   24.5173 H   0  0  0  0  0  0
  -15.5364  -30.3010   23.7658 H   0  0  0  0  0  0
  -15.8679  -28.0829   22.7093 H   0  0  0  0  0  0
  -24.5833  -30.7170   25.7732 H   0  0  0  0  0  0
  -24.8905  -32.2956   26.4865 H   0  0  0  0  0  0
  -25.7947  -30.8915   27.0218 H   0  0  0  0  0  0
  -26.2964  -29.6718   24.1288 H   0  0  0  0  0  0
  -27.3982  -29.7306   25.4856 H   0  0  0  0  0  0
  -27.8871  -30.4253   23.9590 H   0  0  0  0  0  0
  -27.2701  -33.3648   26.2056 H   0  0  0  0  0  0
  -28.3854  -32.6877   25.0291 H   0  0  0  0  0  0
  -28.0753  -31.8475   26.5389 H   0  0  0  0  0  0
  -28.2569  -38.0117   24.7582 H   0  0  0  0  0  0
  -28.1144  -36.2658   24.6172 H   0  0  0  0  0  0
  -27.2344  -37.1280   25.8866 H   0  0  0  0  0  0
  -20.9453  -29.8762   21.6796 H   0  0  0  0  0  0
  -26.0163  -38.2837   24.1462 H   0  0  0  0  0  0
  -31.7461  -20.5002   21.4681 H   0  0  0  0  0  0
  -31.1583  -22.4976   17.3385 H   0  0  0  0  0  0
  -31.9230  -21.2249   18.2817 H   0  0  0  0  0  0
  -29.8317  -20.1235   17.8592 H   0  0  0  0  0  0
  -29.0091  -21.6611   17.6748 H   0  0  0  0  0  0
  -31.2830  -23.8284   19.2751 H   0  0  0  0  0  0
  -31.8041  -22.4557   20.2082 H   0  0  0  0  0  0
  -28.2274  -21.0605   19.8193 H   0  0  0  0  0  0
  -30.3766  -25.9548   18.5145 H   0  0  0  0  0  0
  -29.5299  -26.2889   17.0051 H   0  0  0  0  0  0
  -30.4491  -24.7899   17.1843 H   0  0  0  0  0  0
  -27.2647  -24.5807   19.8723 H   0  0  0  0  0  0
  -28.0685  -24.3376   16.4556 H   0  0  0  0  0  0
  -28.8686  -15.7831   20.3972 H   0  0  0  0  0  0
  1 25  1  0  0  0
  1 30  2  0  0  0
  1 85  1  0  0  0
  2  3  1  0  0  0
  2 25  1  0  0  0
  2 88  1  0  0  0
  2 89  1  0  0  0
  3  4  1  0  0  0
  3 90  1  0  0  0
  3 91  1  0  0  0
  4  5  1  0  0  0
  4 92  1  0  0  0
  4 93  1  0  0  0
  5  6  1  0  0  0
  5 26  1  0  0  0
  5 94  1  0  0  0
  6 25  1  0  0  0
  6 95  1  0  0  0
  6 96  1  0  0  0
  7  8  2  0  0  0
  7 26  1  0  0  0
  7 29  1  0  0  0
  8  9  1  0  0  0
  8 22  1  0  0  0
  9 10  1  0  0  0
  9 27  2  0  0  0
 10 11  2  0  0  0
 10 15  1  0  0  0
 11 12  1  0  0  0
 11 97  1  0  0  0
 12 13  2  0  0  0
 12 98  1  0  0  0
 13 14  1  0  0  0
 13 31  1  0  0  0
 14 15  2  0  0  0
 14 99  1  0  0  0
 15100  1  0  0  0
 16 17  2  0  0  0
 16 21  1  0  0  0
 16 31  1  0  0  0
 17 18  1  0  0  0
 17101  1  0  0  0
 18 19  2  0  0  0
 18102  1  0  0  0
 19 20  1  0  0  0
 19 24  1  0  0  0
 20 21  2  0  0  0
 20103  1  0  0  0
 21 23  1  0  0  0
 22 28  1  0  0  0
 22 32  2  0  0  0
 26 27  1  0  0  0
 28104  1  0  0  0
 28105  1  0  0  0
 29106  1  0  0  0
 29107  1  0  0  0
 33 34  1  0  0  0
 33 66  1  0  0  0
 33 70  2  0  0  0
 34 36  1  0  0  0
 34 59  1  0  0  0
 34108  1  0  0  0
 35 44  2  0  0  0
 35 45  1  0  0  0
 35 68  1  0  0  0
 36 56  1  0  0  0
 36109  1  0  0  0
 37 39  1  0  0  0
 37 47  1  0  0  0
 37 66  1  0  0  0
 37110  1  0  0  0
 38 43  2  0  0  0
 38 46  1  0  0  0
 38 47  1  0  0  0
 39 64  1  0  0  0
 39 67  2  0  0  0
 40 52  1  0  0  0
 40 53  2  0  0  0
 40 58  1  0  0  0
 41111  1  0  0  0
 41112  1  0  0  0
 41113  1  0  0  0
 41 48  1  0  0  0
 42 43  1  0  0  0
 42 66  1  0  0  0
 42114  1  0  0  0
 42115  1  0  0  0
 43 44  1  0  0  0
 44116  1  0  0  0
 45 46  2  0  0  0
 45117  1  0  0  0
 46118  1  0  0  0
 47119  1  0  0  0
 47120  1  0  0  0
 48 56  1  0  0  0
 48 65  1  0  0  0
 48121  1  0  0  0
 49 50  1  0  0  0
 49 53  1  0  0  0
 49 64  1  0  0  0
 49122  1  0  0  0
 50 51  1  0  0  0
 50123  1  0  0  0
 50124  1  0  0  0
 51 52  1  0  0  0
 51125  1  0  0  0
 51126  1  0  0  0
 52127  1  0  0  0
 52128  1  0  0  0
 53 54  1  0  0  0
 54 55  2  0  0  0
 54129  1  0  0  0
 55 57  1  0  0  0
 55130  1  0  0  0
 56 69  2  0  0  0
 57 58  2  0  0  0
 57131  1  0  0  0
 58132  1  0  0  0
 59 60  1  0  0  0
 59 61  1  0  0  0
 59 62  1  0  0  0
 60133  1  0  0  0
 60134  1  0  0  0
 60135  1  0  0  0
 61136  1  0  0  0
 61137  1  0  0  0
 61138  1  0  0  0
 62139  1  0  0  0
 62140  1  0  0  0
 62141  1  0  0  0
 63 65  1  0  0  0
 63142  1  0  0  0
 63143  1  0  0  0
 63144  1  0  0  0
 64145  1  0  0  0
 65146  1  0  0  0
 68 81  1  0  0  0
 71 72  2  0  0  0
 71 87  1  0  0  0
 71147  1  0  0  0
 72 82  1  0  0  0
 72 79  1  0  0  0
 73 82  2  0  0  0
 73 85  1  0  0  0
 73 87  1  0  0  0
 74 80  1  0  0  0
 74 81  1  0  0  0
 74 83  2  0  0  0
 75 81  1  0  0  0
 75 84  1  0  0  0
 75 86  2  0  0  0
 76 77  1  0  0  0
 76 78  1  0  0  0
 76148  1  0  0  0
 76149  1  0  0  0
 77 79  1  0  0  0
 77150  1  0  0  0
 77151  1  0  0  0
 78 84  1  0  0  0
 78152  1  0  0  0
 78153  1  0  0  0
 79 84  1  0  0  0
 79154  1  0  0  0
 80155  1  0  0  0
 80156  1  0  0  0
 80157  1  0  0  0
 81158  1  0  0  0
 83159  1  0  0  0
 85160  1  0  0  0
M  ISO  4   1 100  68 101  81 101  85 100
M  END
> <chiral flag>
0

> <version>
0

> <s_m_source_file>
/data/baiqing/PycharmProjects/Reinvent-master-3.2/result/LINK_invent/BTK/process_docking_weight1_custom_product_contain_oxygen_bond_distance_aromatic_linkinvent_7_9_3/rearranged_h_0156.sdf

> <i_m_source_file_index>
68

> <r_mmod_Potential_Energy-OPLS-2005>
367.094635009766

> <r_mmod_Stretch_Energy-OPLS-2005>
160.448471069336

> <r_mmod_Bend_Energy-OPLS-2005>
245.460708618164

> <r_mmod_Torsional_Energy-OPLS-2005>
353.547943115234

> <r_mmod_Improper_Torsional_Energy-OPLS-2005>
9.30176448822021

> <r_mmod_Van_der_Waal_Energy-OPLS-2005>
104.218078613281

> <r_mmod_Electrostatic_Energy-OPLS-2005>
-370.267974853516

> <r_mmod_Solvation_Energy-OPLS-2005>
-240.999130249023

> <b_mmod_Minimization_Converged-OPLS-2005>
0

> <r_mmod_RMS_Derivative-OPLS-2005>
4.94684457778931

$$$$
68
                    3D
 Structure written by MMmdl.
154163  0  0  1  0            999 V2000
  -30.5622  -14.7576   20.4786 C   0  0  0  0  0  0
  -30.4535  -12.4655   19.4627 C   0  0  0  0  0  0
  -29.5166  -12.5170   18.2328 C   0  0  0  0  0  0
  -28.0423  -12.3310   18.6474 C   0  0  0  0  0  0
  -27.6490  -13.2192   19.8566 C   0  0  2  0  0  0
  -28.6966  -13.1165   20.9880 C   0  0  0  0  0  0
  -25.2553  -13.8165   20.5684 C   0  0  0  0  0  0
  -24.1825  -13.0428   20.9199 C   0  0  0  0  0  0
  -24.6399  -11.6902   20.8744 C   0  0  0  0  0  0
  -23.9067  -10.4287   21.0408 C   0  0  0  0  0  0
  -24.3617   -9.4203   21.9186 C   0  0  0  0  0  0
  -23.6291   -8.2240   22.0755 C   0  0  0  0  0  0
  -22.4274   -8.0280   21.3544 C   0  0  0  0  0  0
  -21.9910   -9.0255   20.4647 C   0  0  0  0  0  0
  -22.7240  -10.2133   20.3057 C   0  0  0  0  0  0
  -21.6852   -6.0735   22.5280 C   0  0  0  0  0  0
  -21.4014   -6.5640   23.8213 C   0  0  0  0  0  0
  -21.3658   -5.6792   24.9175 C   0  0  0  0  0  0
  -21.6044   -4.3055   24.7225 C   0  0  0  0  0  0
  -21.8819   -3.8147   23.4347 C   0  0  0  0  0  0
  -21.9192   -4.6963   22.3403 C   0  0  0  0  0  0
  -22.7848  -13.5223   21.1862 C   0  0  0  0  0  0
  -22.1661   -4.2149   21.0980 F   0  0  0  0  0  0
  -21.5628   -3.4539   25.7738 F   0  0  0  0  0  0
  -29.9983  -13.5006   20.4172 N   0  0  0  0  0  0
  -26.2974  -12.9344   20.3293 N   0  0  0  0  0  0
  -25.9327  -11.6501   20.5750 N   0  0  0  0  0  0
  -22.0489  -12.8216   22.0417 N   0  0  0  0  0  0
  -25.4251  -15.1888   20.4090 N   0  0  0  0  0  0
  -31.7356  -14.9350   20.1333 O   0  0  0  0  0  0
  -21.6637   -6.8879   21.4241 O   0  0  0  0  0  0
  -22.3538  -14.5531   20.6710 O   0  0  0  0  0  0
  -24.6336  -31.8545   23.1978 C   0  0  0  0  0  0
  -25.9157  -32.4748   23.8328 C   0  0  1  0  0  0
  -27.2223  -27.2484   20.1251 C   0  0  0  0  0  0
  -25.5948  -33.8551   24.2250 N   0  0  0  0  0  0
  -23.4307  -30.4774   21.5424 C   0  0  2  0  0  0
  -24.8780  -28.9253   20.1113 C   0  0  0  0  0  0
  -22.7517  -29.4592   22.4909 C   0  0  0  0  0  0
  -18.0295  -28.1383   22.8481 C   0  0  0  0  0  0
  -24.1492  -36.7277   23.2640 C   0  0  0  0  0  0
  -25.9795  -30.7633   21.3805 C   0  0  0  0  0  0
  -26.0527  -29.3858   20.7198 C   0  0  0  0  0  0
  -27.2278  -28.5621   20.7125 C   0  0  0  0  0  0
  -26.0188  -26.8631   19.4884 C   0  0  0  0  0  0
  -24.8676  -27.6723   19.4843 C   0  0  0  0  0  0
  -23.6498  -29.8138   20.1584 C   0  0  0  0  0  0
  -25.4119  -36.3062   24.0322 C   0  0  1  0  0  0
  -20.5901  -28.3696   23.1262 C   0  0  2  0  0  0
  -20.6782  -26.9411   22.5404 C   0  0  0  0  0  0
  -19.5755  -26.6379   21.5208 C   0  0  0  0  0  0
  -18.1936  -26.7924   22.1622 C   0  0  0  0  0  0
  -19.1549  -28.8858   23.2865 C   0  0  0  0  0  0
  -18.9469  -30.1459   23.8881 C   0  0  0  0  0  0
  -17.6468  -30.6585   24.0557 C   0  0  0  0  0  0
  -25.9062  -34.9435   23.5086 C   0  0  0  0  0  0
  -16.5359  -29.9079   23.6332 C   0  0  0  0  0  0
  -16.7281  -28.6497   23.0352 C   0  0  0  0  0  0
  -26.4514  -31.6579   25.0725 C   0  0  0  0  0  0
  -25.3726  -31.3737   26.1436 C   0  0  0  0  0  0
  -27.0370  -30.2992   24.6231 C   0  0  0  0  0  0
  -27.6060  -32.4329   25.7504 C   0  0  0  0  0  0
  -27.5578  -37.1796   24.8465 C   0  0  0  0  0  0
  -21.4221  -29.3042   22.3654 N   0  0  0  0  0  0
  -26.4291  -37.3763   23.9405 N   0  0  0  0  0  0
  -24.7004  -31.0498   22.0963 N   0  0  0  0  0  0
  -23.4209  -28.8129   23.3010 O   0  0  0  0  0  0
  -28.3121  -26.3370   20.1770 O   0  0  0  0  0  0
  -26.5634  -34.8913   22.4655 O   0  0  0  0  0  0
  -23.5480  -32.1375   23.7260 O   0  0  0  0  0  0
  -30.0361  -18.4040   20.0847 C   0  0  0  0  0  0
  -29.1440  -17.8480   22.0417 C   0  0  0  0  0  0
  -29.7128  -17.2652   20.9424 C   0  0  0  0  0  0
  -29.6637  -19.5973   20.7361 C   0  0  0  0  0  0
  -30.2788  -21.7238   19.2013 C   0  0  0  0  0  0
  -29.9966  -23.2689   19.1747 C   0  0  0  0  0  0
  -28.6114  -22.1992   20.8122 C   0  0  0  0  0  0
  -29.7953  -21.1721   20.5531 C   0  0  1  0  0  0
  -29.0981  -23.6603   20.3790 C   0  0  2  0  0  0
  -28.0191  -24.8541   20.1192 C   0  0  0  0  0  0
  -29.6776  -15.7902   20.7499 N   0  0  0  0  0  0
  -29.1341  -19.2202   21.9425 O   0  0  0  0  0  0
  -31.4884  -12.6248   19.1551 H   0  0  0  0  0  0
  -30.4268  -11.4799   19.9298 H   0  0  0  0  0  0
  -29.8010  -11.7515   17.5096 H   0  0  0  0  0  0
  -29.6332  -13.4753   17.7240 H   0  0  0  0  0  0
  -27.9017  -11.2800   18.9027 H   0  0  0  0  0  0
  -27.3828  -12.5289   17.8017 H   0  0  0  0  0  0
  -27.6505  -14.2452   19.4890 H   0  0  0  0  0  0
  -28.7391  -12.1003   21.3831 H   0  0  0  0  0  0
  -28.4242  -13.7521   21.8323 H   0  0  0  0  0  0
  -25.2763   -9.5677   22.4761 H   0  0  0  0  0  0
  -23.9999   -7.4630   22.7473 H   0  0  0  0  0  0
  -21.0842   -8.8774   19.8952 H   0  0  0  0  0  0
  -22.3700  -10.9672   19.6165 H   0  0  0  0  0  0
  -21.2009   -7.6149   23.9717 H   0  0  0  0  0  0
  -21.1480   -6.0523   25.9078 H   0  0  0  0  0  0
  -22.0599   -2.7610   23.2847 H   0  0  0  0  0  0
  -22.4103  -11.9874   22.4800 H   0  0  0  0  0  0
  -21.1110  -13.1245   22.2627 H   0  0  0  0  0  0
  -24.6525  -15.8379   20.5119 H   0  0  0  0  0  0
  -26.2630  -15.6290   20.0510 H   0  0  0  0  0  0
  -26.7224  -32.5395   23.1069 H   0  0  0  0  0  0
  -25.0095  -33.9685   25.0395 H   0  0  0  0  0  0
  -22.7275  -31.3001   21.3971 H   0  0  0  0  0  0
  -23.3755  -35.9610   23.3298 H   0  0  0  0  0  0
  -24.3581  -36.8906   22.2055 H   0  0  0  0  0  0
  -23.7247  -37.6475   23.6672 H   0  0  0  0  0  0
  -26.1228  -31.5252   20.6131 H   0  0  0  0  0  0
  -26.8547  -30.8096   22.0168 H   0  0  0  0  0  0
  -28.1260  -28.9114   21.2023 H   0  0  0  0  0  0
  -25.9261  -25.9100   18.9927 H   0  0  0  0  0  0
  -23.9695  -27.3139   19.0002 H   0  0  0  0  0  0
  -23.7762  -30.5917   19.4043 H   0  0  0  0  0  0
  -22.7677  -29.2486   19.8516 H   0  0  0  0  0  0
  -25.1303  -36.1902   25.0814 H   0  0  0  0  0  0
  -20.9991  -28.3274   24.1382 H   0  0  0  0  0  0
  -20.5683  -26.2305   23.3610 H   0  0  0  0  0  0
  -21.6651  -26.7435   22.1198 H   0  0  0  0  0  0
  -19.6921  -25.6286   21.1245 H   0  0  0  0  0  0
  -19.6694  -27.3184   20.6733 H   0  0  0  0  0  0
  -17.4207  -26.6666   21.4025 H   0  0  0  0  0  0
  -18.0339  -26.0067   22.9018 H   0  0  0  0  0  0
  -19.7947  -30.7277   24.2243 H   0  0  0  0  0  0
  -17.5023  -31.6263   24.5163 H   0  0  0  0  0  0
  -15.5358  -30.2976   23.7664 H   0  0  0  0  0  0
  -15.8679  -28.0814   22.7073 H   0  0  0  0  0  0
  -24.5907  -30.7081   25.7762 H   0  0  0  0  0  0
  -24.8912  -32.2911   26.4838 H   0  0  0  0  0  0
  -25.8033  -30.8931   27.0230 H   0  0  0  0  0  0
  -26.2965  -29.6727   24.1245 H   0  0  0  0  0  0
  -27.4034  -29.7269   25.4763 H   0  0  0  0  0  0
  -27.8850  -30.4257   23.9495 H   0  0  0  0  0  0
  -27.2663  -33.3641   26.2050 H   0  0  0  0  0  0
  -28.3889  -32.6870   25.0345 H   0  0  0  0  0  0
  -28.0707  -31.8474   26.5447 H   0  0  0  0  0  0
  -28.2592  -38.0097   24.7510 H   0  0  0  0  0  0
  -28.1077  -36.2626   24.6295 H   0  0  0  0  0  0
  -27.2295  -37.1447   25.8869 H   0  0  0  0  0  0
  -20.9409  -29.8769   21.6862 H   0  0  0  0  0  0
  -26.0164  -38.2834   24.1408 H   0  0  0  0  0  0
  -30.4836  -18.3623   19.1013 H   0  0  0  0  0  0
  -28.6924  -17.4590   22.9447 H   0  0  0  0  0  0
  -31.3303  -21.4949   19.0241 H   0  0  0  0  0  0
  -29.7134  -21.2463   18.3998 H   0  0  0  0  0  0
  -29.5169  -23.5317   18.2309 H   0  0  0  0  0  0
  -30.9296  -23.8332   19.2116 H   0  0  0  0  0  0
  -28.2911  -22.1807   21.8545 H   0  0  0  0  0  0
  -27.7472  -21.9109   20.2120 H   0  0  0  0  0  0
  -30.5650  -21.4619   21.2700 H   0  0  0  0  0  0
  -29.7509  -24.0021   21.1834 H   0  0  0  0  0  0
  -27.2166  -24.6895   20.8398 H   0  0  0  0  0  0
  -27.5846  -24.6366   19.1445 H   0  0  0  0  0  0
  -28.7962  -15.3906   21.0342 H   0  0  0  0  0  0
  1 25  1  0  0  0
  1 30  2  0  0  0
  1 81  1  0  0  0
  2  3  1  0  0  0
  2 25  1  0  0  0
  2 83  1  0  0  0
  2 84  1  0  0  0
  3  4  1  0  0  0
  3 85  1  0  0  0
  3 86  1  0  0  0
  4  5  1  0  0  0
  4 87  1  0  0  0
  4 88  1  0  0  0
  5  6  1  0  0  0
  5 26  1  0  0  0
  5 89  1  0  0  0
  6 25  1  0  0  0
  6 90  1  0  0  0
  6 91  1  0  0  0
  7  8  2  0  0  0
  7 26  1  0  0  0
  7 29  1  0  0  0
  8  9  1  0  0  0
  8 22  1  0  0  0
  9 10  1  0  0  0
  9 27  2  0  0  0
 10 11  2  0  0  0
 10 15  1  0  0  0
 11 12  1  0  0  0
 11 92  1  0  0  0
 12 13  2  0  0  0
 12 93  1  0  0  0
 13 14  1  0  0  0
 13 31  1  0  0  0
 14 15  2  0  0  0
 14 94  1  0  0  0
 15 95  1  0  0  0
 16 17  2  0  0  0
 16 21  1  0  0  0
 16 31  1  0  0  0
 17 18  1  0  0  0
 17 96  1  0  0  0
 18 19  2  0  0  0
 18 97  1  0  0  0
 19 20  1  0  0  0
 19 24  1  0  0  0
 20 21  2  0  0  0
 20 98  1  0  0  0
 21 23  1  0  0  0
 22 28  1  0  0  0
 22 32  2  0  0  0
 26 27  1  0  0  0
 28 99  1  0  0  0
 28100  1  0  0  0
 29101  1  0  0  0
 29102  1  0  0  0
 33 34  1  0  0  0
 33 66  1  0  0  0
 33 70  2  0  0  0
 34 36  1  0  0  0
 34 59  1  0  0  0
 34103  1  0  0  0
 35 44  2  0  0  0
 35 45  1  0  0  0
 35 68  1  0  0  0
 36 56  1  0  0  0
 36104  1  0  0  0
 37 39  1  0  0  0
 37 47  1  0  0  0
 37 66  1  0  0  0
 37105  1  0  0  0
 38 43  2  0  0  0
 38 46  1  0  0  0
 38 47  1  0  0  0
 39 64  1  0  0  0
 39 67  2  0  0  0
 40 52  1  0  0  0
 40 53  2  0  0  0
 40 58  1  0  0  0
 41106  1  0  0  0
 41107  1  0  0  0
 41108  1  0  0  0
 41 48  1  0  0  0
 42 43  1  0  0  0
 42 66  1  0  0  0
 42109  1  0  0  0
 42110  1  0  0  0
 43 44  1  0  0  0
 44111  1  0  0  0
 45 46  2  0  0  0
 45112  1  0  0  0
 46113  1  0  0  0
 47114  1  0  0  0
 47115  1  0  0  0
 48 56  1  0  0  0
 48 65  1  0  0  0
 48116  1  0  0  0
 49 50  1  0  0  0
 49 53  1  0  0  0
 49 64  1  0  0  0
 49117  1  0  0  0
 50 51  1  0  0  0
 50118  1  0  0  0
 50119  1  0  0  0
 51 52  1  0  0  0
 51120  1  0  0  0
 51121  1  0  0  0
 52122  1  0  0  0
 52123  1  0  0  0
 53 54  1  0  0  0
 54 55  2  0  0  0
 54124  1  0  0  0
 55 57  1  0  0  0
 55125  1  0  0  0
 56 69  2  0  0  0
 57 58  2  0  0  0
 57126  1  0  0  0
 58127  1  0  0  0
 59 60  1  0  0  0
 59 61  1  0  0  0
 59 62  1  0  0  0
 60128  1  0  0  0
 60129  1  0  0  0
 60130  1  0  0  0
 61131  1  0  0  0
 61132  1  0  0  0
 61133  1  0  0  0
 62134  1  0  0  0
 62135  1  0  0  0
 62136  1  0  0  0
 63 65  1  0  0  0
 63137  1  0  0  0
 63138  1  0  0  0
 63139  1  0  0  0
 64140  1  0  0  0
 65141  1  0  0  0
 68 80  1  0  0  0
 71 73  1  0  0  0
 71 74  2  0  0  0
 71142  1  0  0  0
 72 73  2  0  0  0
 72 82  1  0  0  0
 72143  1  0  0  0
 73 81  1  0  0  0
 74 82  1  0  0  0
 74 78  1  0  0  0
 75 76  1  0  0  0
 75 78  1  0  0  0
 75144  1  0  0  0
 75145  1  0  0  0
 76 79  1  0  0  0
 76146  1  0  0  0
 76147  1  0  0  0
 77 78  1  0  0  0
 77 79  1  0  0  0
 77148  1  0  0  0
 77149  1  0  0  0
 78150  1  0  0  0
 79 80  1  0  0  0
 79151  1  0  0  0
 80152  1  0  0  0
 80153  1  0  0  0
 81154  1  0  0  0
M  ISO  4   1 100  68 101  80 101  81 100
M  END
> <chiral flag>
0

> <version>
0

> <s_m_source_file>
/data/baiqing/PycharmProjects/Reinvent-master-3.2/result/LINK_invent/BTK/process_docking_weight1_custom_product_contain_oxygen_bond_distance_aromatic_linkinvent_7_9_3/rearranged_h_0156.sdf

> <i_m_source_file_index>
69

> <r_mmod_Potential_Energy-OPLS-2005>
289.158905029297

> <r_mmod_Stretch_Energy-OPLS-2005>
119.888122558594

> <r_mmod_Bend_Energy-OPLS-2005>
229.182159423828

> <r_mmod_Torsional_Energy-OPLS-2005>
282.327423095703

> <r_mmod_Improper_Torsional_Energy-OPLS-2005>
7.25974369049072

> <r_mmod_Van_der_Waal_Energy-OPLS-2005>
115.656631469727

> <r_mmod_Electrostatic_Energy-OPLS-2005>
-349.327026367188

> <r_mmod_Solvation_Energy-OPLS-2005>
-208.317932128906

> <b_mmod_Minimization_Converged-OPLS-2005>
0

> <r_mmod_RMS_Derivative-OPLS-2005>
0.363545805215836

$$$$
69
                    3D
 Structure written by MMmdl.
157166  0  0  1  0            999 V2000
  -30.6782  -14.5399   20.5304 C   0  0  0  0  0  0
  -30.4256  -12.3361   19.4403 C   0  0  0  0  0  0
  -29.4998  -12.5059   18.2170 C   0  0  0  0  0  0
  -28.0215  -12.3569   18.6270 C   0  0  0  0  0  0
  -27.6570  -13.2124   19.8698 C   0  0  2  0  0  0
  -28.7007  -13.0322   20.9966 C   0  0  0  0  0  0
  -25.2570  -13.8169   20.5701 C   0  0  0  0  0  0
  -24.1830  -13.0440   20.9200 C   0  0  0  0  0  0
  -24.6394  -11.6911   20.8750 C   0  0  0  0  0  0
  -23.9066  -10.4296   21.0411 C   0  0  0  0  0  0
  -24.3611   -9.4209   21.9193 C   0  0  0  0  0  0
  -23.6286   -8.2244   22.0763 C   0  0  0  0  0  0
  -22.4274   -8.0285   21.3543 C   0  0  0  0  0  0
  -21.9910   -9.0259   20.4650 C   0  0  0  0  0  0
  -22.7237  -10.2138   20.3062 C   0  0  0  0  0  0
  -21.6848   -6.0745   22.5285 C   0  0  0  0  0  0
  -21.4004   -6.5644   23.8218 C   0  0  0  0  0  0
  -21.3657   -5.6796   24.9181 C   0  0  0  0  0  0
  -21.6048   -4.3062   24.7226 C   0  0  0  0  0  0
  -21.8813   -3.8156   23.4347 C   0  0  0  0  0  0
  -21.9189   -4.6975   22.3406 C   0  0  0  0  0  0
  -22.7849  -13.5237   21.1864 C   0  0  0  0  0  0
  -22.1658   -4.2161   21.0978 F   0  0  0  0  0  0
  -21.5635   -3.4548   25.7739 F   0  0  0  0  0  0
  -30.0273  -13.3430   20.4396 N   0  0  0  0  0  0
  -26.3001  -12.9347   20.3353 N   0  0  0  0  0  0
  -25.9318  -11.6501   20.5760 N   0  0  0  0  0  0
  -22.0482  -12.8231   22.0411 N   0  0  0  0  0  0
  -25.4293  -15.1888   20.4115 N   0  0  0  0  0  0
  -31.8363  -14.6800   20.1251 O   0  0  0  0  0  0
  -21.6629   -6.8889   21.4246 O   0  0  0  0  0  0
  -22.3547  -14.5552   20.6725 O   0  0  0  0  0  0
  -24.6218  -31.8658   23.2103 C   0  0  0  0  0  0
  -25.9107  -32.4796   23.8396 C   0  0  1  0  0  0
  -27.2214  -27.3753   20.1009 C   0  0  0  0  0  0
  -25.5973  -33.8597   24.2335 N   0  0  0  0  0  0
  -23.4099  -30.4923   21.5511 C   0  0  2  0  0  0
  -24.8538  -28.9618   20.1113 C   0  0  0  0  0  0
  -22.7446  -29.4653   22.4975 C   0  0  0  0  0  0
  -18.0274  -28.1389   22.8476 C   0  0  0  0  0  0
  -24.1486  -36.7280   23.2644 C   0  0  0  0  0  0
  -25.9477  -30.8115   21.3762 C   0  0  0  0  0  0
  -26.0209  -29.4461   20.7153 C   0  0  0  0  0  0
  -27.2072  -28.6622   20.7062 C   0  0  0  0  0  0
  -26.0307  -26.9401   19.4664 C   0  0  0  0  0  0
  -24.8581  -27.7108   19.4811 C   0  0  0  0  0  0
  -23.6208  -29.8352   20.1633 C   0  0  0  0  0  0
  -25.4115  -36.3083   24.0337 C   0  0  1  0  0  0
  -20.5872  -28.3685   23.1288 C   0  0  2  0  0  0
  -20.6763  -26.9409   22.5418 C   0  0  0  0  0  0
  -19.5755  -26.6383   21.5194 C   0  0  0  0  0  0
  -18.1917  -26.7940   22.1587 C   0  0  0  0  0  0
  -19.1524  -28.8853   23.2880 C   0  0  0  0  0  0
  -18.9460  -30.1456   23.8898 C   0  0  0  0  0  0
  -17.6464  -30.6589   24.0563 C   0  0  0  0  0  0
  -25.9050  -34.9453   23.5119 C   0  0  0  0  0  0
  -16.5357  -29.9083   23.6336 C   0  0  0  0  0  0
  -16.7267  -28.6501   23.0360 C   0  0  0  0  0  0
  -26.4515  -31.6589   25.0743 C   0  0  0  0  0  0
  -25.3770  -31.3713   26.1485 C   0  0  0  0  0  0
  -27.0356  -30.3020   24.6178 C   0  0  0  0  0  0
  -27.6083  -32.4320   25.7509 C   0  0  0  0  0  0
  -27.5577  -37.1799   24.8476 C   0  0  0  0  0  0
  -21.4172  -29.3049   22.3704 N   0  0  0  0  0  0
  -26.4298  -37.3774   23.9410 N   0  0  0  0  0  0
  -24.6772  -31.0720   22.1024 N   0  0  0  0  0  0
  -23.4199  -28.8191   23.3028 O   0  0  0  0  0  0
  -28.3525  -26.5587   20.1558 O   0  0  0  0  0  0
  -26.5569  -34.8915   22.4657 O   0  0  0  0  0  0
  -23.5401  -32.1435   23.7473 O   0  0  0  0  0  0
  -29.1930  -17.9138   20.7550 C   0  0  0  0  0  0
  -29.8813  -19.0987   20.3261 C   0  0  0  0  0  0
  -30.1459  -16.9237   20.7149 C   0  0  0  0  0  0
  -29.1944  -24.1551   20.4713 C   0  0  0  0  0  0
  -28.6709  -21.8294   17.8211 C   0  0  0  0  0  0
  -29.1399  -20.4743   18.3713 C   0  0  0  0  0  0
  -29.5969  -22.9381   18.3320 C   0  0  0  0  0  0
  -30.0348  -21.7531   20.4281 C   0  0  0  0  0  0
  -29.2938  -20.4606   19.9089 C   0  0  2  0  0  0
  -28.1340  -25.1388   19.8802 C   0  0  0  0  0  0
  -31.1682  -18.8255   20.1199 N   0  0  0  0  0  0
  -29.5170  -23.0070   19.7969 N   0  0  0  0  0  0
  -29.9171  -15.5894   20.9268 N   0  0  0  0  0  0
  -29.6138  -24.3652   21.6146 O   0  0  0  0  0  0
  -31.3489  -17.4532   20.3679 O   0  0  0  0  0  0
  -31.4706  -12.4335   19.1407 H   0  0  0  0  0  0
  -30.3289  -11.3329   19.8578 H   0  0  0  0  0  0
  -29.7520  -11.7732   17.4494 H   0  0  0  0  0  0
  -29.6576  -13.4863   17.7648 H   0  0  0  0  0  0
  -27.8445  -11.3026   18.8398 H   0  0  0  0  0  0
  -27.3700  -12.6113   17.7898 H   0  0  0  0  0  0
  -27.6872  -14.2536   19.5489 H   0  0  0  0  0  0
  -28.6868  -12.0051   21.3661 H   0  0  0  0  0  0
  -28.4587  -13.6577   21.8574 H   0  0  0  0  0  0
  -25.2756   -9.5679   22.4769 H   0  0  0  0  0  0
  -24.0007   -7.4628   22.7473 H   0  0  0  0  0  0
  -21.0852   -8.8767   19.8940 H   0  0  0  0  0  0
  -22.3704  -10.9678   19.6170 H   0  0  0  0  0  0
  -21.1982   -7.6150   23.9730 H   0  0  0  0  0  0
  -21.1490   -6.0527   25.9087 H   0  0  0  0  0  0
  -22.0592   -2.7621   23.2847 H   0  0  0  0  0  0
  -22.4079  -11.9878   22.4784 H   0  0  0  0  0  0
  -21.1102  -13.1273   22.2615 H   0  0  0  0  0  0
  -24.6612  -15.8420   20.5179 H   0  0  0  0  0  0
  -26.2746  -15.6281   20.0712 H   0  0  0  0  0  0
  -26.7174  -32.5486   23.1153 H   0  0  0  0  0  0
  -25.0225  -33.9753   25.0554 H   0  0  0  0  0  0
  -22.7000  -31.3107   21.4136 H   0  0  0  0  0  0
  -23.3759  -35.9599   23.3304 H   0  0  0  0  0  0
  -24.3570  -36.8903   22.2056 H   0  0  0  0  0  0
  -23.7234  -37.6481   23.6660 H   0  0  0  0  0  0
  -26.0789  -31.5801   20.6133 H   0  0  0  0  0  0
  -26.8285  -30.8537   22.0045 H   0  0  0  0  0  0
  -28.1029  -29.0278   21.1878 H   0  0  0  0  0  0
  -25.9655  -25.9934   18.9528 H   0  0  0  0  0  0
  -23.9654  -27.3347   18.9999 H   0  0  0  0  0  0
  -23.7389  -30.6148   19.4098 H   0  0  0  0  0  0
  -22.7418  -29.2649   19.8574 H   0  0  0  0  0  0
  -25.1297  -36.1936   25.0830 H   0  0  0  0  0  0
  -20.9940  -28.3259   24.1418 H   0  0  0  0  0  0
  -20.5633  -26.2307   23.3620 H   0  0  0  0  0  0
  -21.6644  -26.7424   22.1239 H   0  0  0  0  0  0
  -19.6918  -25.6287   21.1247 H   0  0  0  0  0  0
  -19.6714  -27.3179   20.6710 H   0  0  0  0  0  0
  -17.4204  -26.6726   21.3959 H   0  0  0  0  0  0
  -18.0285  -26.0061   22.8947 H   0  0  0  0  0  0
  -19.7932  -30.7260   24.2287 H   0  0  0  0  0  0
  -17.5014  -31.6265   24.5176 H   0  0  0  0  0  0
  -15.5359  -30.2991   23.7664 H   0  0  0  0  0  0
  -15.8657  -28.0818   22.7095 H   0  0  0  0  0  0
  -24.6048  -30.6911   25.7876 H   0  0  0  0  0  0
  -24.8831  -32.2853   26.4783 H   0  0  0  0  0  0
  -25.8153  -30.9065   27.0328 H   0  0  0  0  0  0
  -26.2914  -29.6762   24.1242 H   0  0  0  0  0  0
  -27.4115  -29.7280   25.4662 H   0  0  0  0  0  0
  -27.8753  -30.4315   23.9346 H   0  0  0  0  0  0
  -27.2714  -33.3647   26.2042 H   0  0  0  0  0  0
  -28.3917  -32.6842   25.0347 H   0  0  0  0  0  0
  -28.0716  -31.8472   26.5468 H   0  0  0  0  0  0
  -28.2621  -38.0061   24.7467 H   0  0  0  0  0  0
  -28.1042  -36.2598   24.6366 H   0  0  0  0  0  0
  -27.2287  -37.1530   25.8876 H   0  0  0  0  0  0
  -20.9359  -29.8791   21.6927 H   0  0  0  0  0  0
  -26.0180  -38.2853   24.1404 H   0  0  0  0  0  0
  -28.1390  -17.8052   20.9635 H   0  0  0  0  0  0
  -27.6400  -22.0285   18.1175 H   0  0  0  0  0  0
  -28.6806  -21.8049   16.7305 H   0  0  0  0  0  0
  -30.1022  -20.2338   17.9164 H   0  0  0  0  0  0
  -28.4526  -19.6865   18.0595 H   0  0  0  0  0  0
  -29.3894  -23.8793   17.8259 H   0  0  0  0  0  0
  -30.6272  -22.7121   18.0493 H   0  0  0  0  0  0
  -31.1010  -21.6807   20.2125 H   0  0  0  0  0  0
  -29.9491  -21.7984   21.5145 H   0  0  0  0  0  0
  -28.2853  -20.5201   20.3194 H   0  0  0  0  0  0
  -27.2129  -24.8171   20.3703 H   0  0  0  0  0  0
  -27.9712  -25.0007   18.8150 H   0  0  0  0  0  0
  -28.9914  -15.3482   21.2379 H   0  0  0  0  0  0
  1 25  1  0  0  0
  1 30  2  0  0  0
  1 83  1  0  0  0
  2  3  1  0  0  0
  2 25  1  0  0  0
  2 86  1  0  0  0
  2 87  1  0  0  0
  3  4  1  0  0  0
  3 88  1  0  0  0
  3 89  1  0  0  0
  4  5  1  0  0  0
  4 90  1  0  0  0
  4 91  1  0  0  0
  5  6  1  0  0  0
  5 26  1  0  0  0
  5 92  1  0  0  0
  6 25  1  0  0  0
  6 93  1  0  0  0
  6 94  1  0  0  0
  7  8  2  0  0  0
  7 26  1  0  0  0
  7 29  1  0  0  0
  8  9  1  0  0  0
  8 22  1  0  0  0
  9 10  1  0  0  0
  9 27  2  0  0  0
 10 11  2  0  0  0
 10 15  1  0  0  0
 11 12  1  0  0  0
 11 95  1  0  0  0
 12 13  2  0  0  0
 12 96  1  0  0  0
 13 14  1  0  0  0
 13 31  1  0  0  0
 14 15  2  0  0  0
 14 97  1  0  0  0
 15 98  1  0  0  0
 16 17  2  0  0  0
 16 21  1  0  0  0
 16 31  1  0  0  0
 17 18  1  0  0  0
 17 99  1  0  0  0
 18 19  2  0  0  0
 18100  1  0  0  0
 19 20  1  0  0  0
 19 24  1  0  0  0
 20 21  2  0  0  0
 20101  1  0  0  0
 21 23  1  0  0  0
 22 28  1  0  0  0
 22 32  2  0  0  0
 26 27  1  0  0  0
 28102  1  0  0  0
 28103  1  0  0  0
 29104  1  0  0  0
 29105  1  0  0  0
 33 34  1  0  0  0
 33 66  1  0  0  0
 33 70  2  0  0  0
 34 36  1  0  0  0
 34 59  1  0  0  0
 34106  1  0  0  0
 35 44  2  0  0  0
 35 45  1  0  0  0
 35 68  1  0  0  0
 36 56  1  0  0  0
 36107  1  0  0  0
 37 39  1  0  0  0
 37 47  1  0  0  0
 37 66  1  0  0  0
 37108  1  0  0  0
 38 43  2  0  0  0
 38 46  1  0  0  0
 38 47  1  0  0  0
 39 64  1  0  0  0
 39 67  2  0  0  0
 40 52  1  0  0  0
 40 53  2  0  0  0
 40 58  1  0  0  0
 41109  1  0  0  0
 41110  1  0  0  0
 41111  1  0  0  0
 41 48  1  0  0  0
 42 43  1  0  0  0
 42 66  1  0  0  0
 42112  1  0  0  0
 42113  1  0  0  0
 43 44  1  0  0  0
 44114  1  0  0  0
 45 46  2  0  0  0
 45115  1  0  0  0
 46116  1  0  0  0
 47117  1  0  0  0
 47118  1  0  0  0
 48 56  1  0  0  0
 48 65  1  0  0  0
 48119  1  0  0  0
 49 50  1  0  0  0
 49 53  1  0  0  0
 49 64  1  0  0  0
 49120  1  0  0  0
 50 51  1  0  0  0
 50121  1  0  0  0
 50122  1  0  0  0
 51 52  1  0  0  0
 51123  1  0  0  0
 51124  1  0  0  0
 52125  1  0  0  0
 52126  1  0  0  0
 53 54  1  0  0  0
 54 55  2  0  0  0
 54127  1  0  0  0
 55 57  1  0  0  0
 55128  1  0  0  0
 56 69  2  0  0  0
 57 58  2  0  0  0
 57129  1  0  0  0
 58130  1  0  0  0
 59 60  1  0  0  0
 59 61  1  0  0  0
 59 62  1  0  0  0
 60131  1  0  0  0
 60132  1  0  0  0
 60133  1  0  0  0
 61134  1  0  0  0
 61135  1  0  0  0
 61136  1  0  0  0
 62137  1  0  0  0
 62138  1  0  0  0
 62139  1  0  0  0
 63 65  1  0  0  0
 63140  1  0  0  0
 63141  1  0  0  0
 63142  1  0  0  0
 64143  1  0  0  0
 65144  1  0  0  0
 68 80  1  0  0  0
 71 72  1  0  0  0
 71 73  2  0  0  0
 71145  1  0  0  0
 72 81  2  0  0  0
 72 79  1  0  0  0
 73 83  1  0  0  0
 73 85  1  0  0  0
 74 80  1  0  0  0
 74 82  1  0  0  0
 74 84  2  0  0  0
 75 76  1  0  0  0
 75 77  1  0  0  0
 75146  1  0  0  0
 75147  1  0  0  0
 76 79  1  0  0  0
 76148  1  0  0  0
 76149  1  0  0  0
 77 82  1  0  0  0
 77150  1  0  0  0
 77151  1  0  0  0
 78 79  1  0  0  0
 78 82  1  0  0  0
 78152  1  0  0  0
 78153  1  0  0  0
 79154  1  0  0  0
 80155  1  0  0  0
 80156  1  0  0  0
 81 85  1  0  0  0
 83157  1  0  0  0
M  ISO  4   1 100  68 101  80 101  83 100
M  END
> <chiral flag>
0

> <version>
0

> <s_m_source_file>
/data/baiqing/PycharmProjects/Reinvent-master-3.2/result/LINK_invent/BTK/process_docking_weight1_custom_product_contain_oxygen_bond_distance_aromatic_linkinvent_7_9_3/rearranged_h_0156.sdf

> <i_m_source_file_index>
70

> <r_mmod_Potential_Energy-OPLS-2005>
-14.5851516723633

> <r_mmod_Stretch_Energy-OPLS-2005>
54.063606262207

> <r_mmod_Bend_Energy-OPLS-2005>
119.744369506836

> <r_mmod_Torsional_Energy-OPLS-2005>
268.015533447266

> <r_mmod_Improper_Torsional_Energy-OPLS-2005>
7.74576044082642

> <r_mmod_Van_der_Waal_Energy-OPLS-2005>
144.30859375

> <r_mmod_Electrostatic_Energy-OPLS-2005>
-365.565979003906

> <r_mmod_Solvation_Energy-OPLS-2005>
-269.601440429688

> <b_mmod_Minimization_Converged-OPLS-2005>
0

> <r_mmod_RMS_Derivative-OPLS-2005>
1.52794528007507

$$$$
70
                    3D
 Structure written by MMmdl.
149158  0  0  1  0            999 V2000
  -30.6487  -14.8523   20.4447 C   0  0  0  0  0  0
  -30.4167  -12.5355   19.4871 C   0  0  0  0  0  0
  -29.5047  -12.5121   18.2434 C   0  0  0  0  0  0
  -28.0382  -12.3153   18.6653 C   0  0  0  0  0  0
  -27.6261  -13.2470   19.8358 C   0  0  2  0  0  0
  -28.6735  -13.2732   20.9708 C   0  0  0  0  0  0
  -25.2422  -13.8207   20.5703 C   0  0  0  0  0  0
  -24.1755  -13.0428   20.9245 C   0  0  0  0  0  0
  -24.6383  -11.6920   20.8773 C   0  0  0  0  0  0
  -23.9075  -10.4288   21.0415 C   0  0  0  0  0  0
  -24.3626   -9.4201   21.9189 C   0  0  0  0  0  0
  -23.6299   -8.2238   22.0755 C   0  0  0  0  0  0
  -22.4281   -8.0279   21.3545 C   0  0  0  0  0  0
  -21.9919   -9.0253   20.4648 C   0  0  0  0  0  0
  -22.7248  -10.2131   20.3061 C   0  0  0  0  0  0
  -21.6854   -6.0736   22.5279 C   0  0  0  0  0  0
  -21.4014   -6.5640   23.8211 C   0  0  0  0  0  0
  -21.3659   -5.6792   24.9174 C   0  0  0  0  0  0
  -21.6044   -4.3056   24.7224 C   0  0  0  0  0  0
  -21.8819   -3.8147   23.4344 C   0  0  0  0  0  0
  -21.9192   -4.6964   22.3402 C   0  0  0  0  0  0
  -22.7776  -13.5199   21.1891 C   0  0  0  0  0  0
  -22.1662   -4.2149   21.0980 F   0  0  0  0  0  0
  -21.5629   -3.4539   25.7737 F   0  0  0  0  0  0
  -29.9528  -13.6517   20.3596 N   0  0  0  0  0  0
  -26.2864  -12.9455   20.3255 N   0  0  0  0  0  0
  -25.9317  -11.6585   20.5767 N   0  0  0  0  0  0
  -22.0428  -12.8191   22.0448 N   0  0  0  0  0  0
  -25.4012  -15.1927   20.4071 N   0  0  0  0  0  0
  -31.8552  -14.8081   20.1806 O   0  0  0  0  0  0
  -21.6641   -6.8879   21.4241 O   0  0  0  0  0  0
  -22.3460  -14.5501   20.6727 O   0  0  0  0  0  0
  -24.6387  -31.8498   23.1946 C   0  0  0  0  0  0
  -25.9183  -32.4725   23.8312 C   0  0  1  0  0  0
  -27.2071  -27.1869   20.1447 C   0  0  0  0  0  0
  -25.5955  -33.8530   24.2230 N   0  0  0  0  0  0
  -23.4389  -30.4727   21.5396 C   0  0  2  0  0  0
  -24.8867  -28.9123   20.1101 C   0  0  0  0  0  0
  -22.7542  -29.4579   22.4885 C   0  0  0  0  0  0
  -18.0300  -28.1391   22.8479 C   0  0  0  0  0  0
  -24.1492  -36.7268   23.2641 C   0  0  0  0  0  0
  -25.9924  -30.7386   21.3883 C   0  0  0  0  0  0
  -26.0629  -29.3553   20.7296 C   0  0  0  0  0  0
  -27.2278  -28.5073   20.7338 C   0  0  0  0  0  0
  -26.0151  -26.8470   19.4679 C   0  0  0  0  0  0
  -24.8728  -27.6695   19.4638 C   0  0  0  0  0  0
  -23.6618  -29.8082   20.1564 C   0  0  0  0  0  0
  -25.4121  -36.3051   24.0321 C   0  0  1  0  0  0
  -20.5910  -28.3713   23.1246 C   0  0  2  0  0  0
  -20.6786  -26.9423   22.5402 C   0  0  0  0  0  0
  -19.5759  -26.6381   21.5210 C   0  0  0  0  0  0
  -18.1942  -26.7932   22.1624 C   0  0  0  0  0  0
  -19.1555  -28.8870   23.2855 C   0  0  0  0  0  0
  -18.9472  -30.1468   23.8878 C   0  0  0  0  0  0
  -17.6470  -30.6590   24.0557 C   0  0  0  0  0  0
  -25.9068  -34.9423   23.5079 C   0  0  0  0  0  0
  -16.5361  -29.9083   23.6335 C   0  0  0  0  0  0
  -16.7285  -28.6501   23.0357 C   0  0  0  0  0  0
  -26.4520  -31.6574   25.0733 C   0  0  0  0  0  0
  -25.3719  -31.3756   26.1439 C   0  0  0  0  0  0
  -27.0373  -30.2972   24.6286 C   0  0  0  0  0  0
  -27.6063  -32.4328   25.7508 C   0  0  0  0  0  0
  -27.5578  -37.1791   24.8464 C   0  0  0  0  0  0
  -21.4241  -29.3049   22.3626 N   0  0  0  0  0  0
  -26.4290  -37.3757   23.9408 N   0  0  0  0  0  0
  -24.7094  -31.0401   22.0960 N   0  0  0  0  0  0
  -23.4210  -28.8117   23.3008 O   0  0  0  0  0  0
  -28.2489  -26.2074   20.1959 O   0  0  0  0  0  0
  -26.5641  -34.8908   22.4650 O   0  0  0  0  0  0
  -23.5518  -32.1353   23.7197 O   0  0  0  0  0  0
  -29.9206  -20.1305   20.1013 C   0  0  0  0  0  0
  -29.9046  -18.6556   20.2730 C   0  0  0  0  0  0
  -28.7974  -18.1981   20.8608 C   0  0  0  0  0  0
  -28.7826  -20.8212   20.5741 C   0  0  0  0  0  0
  -28.8000  -23.4580   20.2697 C   0  0  0  0  0  0
  -30.7662  -17.4022   19.9940 C   0  0  0  0  0  0
  -28.7653  -16.6727   21.0380 C   0  0  0  0  0  0
  -27.8586  -24.7640   20.5612 C   0  0  0  0  0  0
  -30.0380  -16.1347   20.4455 N   0  0  0  0  0  0
  -28.3462  -22.1790   20.6302 N   0  0  0  0  0  0
  -29.8996  -23.6143   19.7320 O   0  0  0  0  0  0
  -27.7057  -19.5403   21.2380 S   0  0  0  0  0  0
  -31.4563  -12.6440   19.1747 H   0  0  0  0  0  0
  -30.3702  -11.5846   20.0202 H   0  0  0  0  0  0
  -29.8096  -11.7154   17.5636 H   0  0  0  0  0  0
  -29.6087  -13.4467   17.6898 H   0  0  0  0  0  0
  -27.9231  -11.2735   18.9662 H   0  0  0  0  0  0
  -27.3741  -12.4597   17.8122 H   0  0  0  0  0  0
  -27.5902  -14.2467   19.4043 H   0  0  0  0  0  0
  -28.7457  -12.3013   21.4613 H   0  0  0  0  0  0
  -28.3880  -13.9867   21.7441 H   0  0  0  0  0  0
  -25.2766   -9.5680   22.4770 H   0  0  0  0  0  0
  -24.0006   -7.4629   22.7474 H   0  0  0  0  0  0
  -21.0850   -8.8775   19.8953 H   0  0  0  0  0  0
  -22.3706  -10.9674   19.6176 H   0  0  0  0  0  0
  -21.2006   -7.6147   23.9715 H   0  0  0  0  0  0
  -21.1482   -6.0522   25.9077 H   0  0  0  0  0  0
  -22.0599   -2.7609   23.2843 H   0  0  0  0  0  0
  -22.4053  -11.9861   22.4845 H   0  0  0  0  0  0
  -21.1042  -13.1208   22.2651 H   0  0  0  0  0  0
  -24.6244  -15.8362   20.5126 H   0  0  0  0  0  0
  -26.2299  -15.6329   20.0315 H   0  0  0  0  0  0
  -26.7249  -32.5348   23.1046 H   0  0  0  0  0  0
  -25.0096  -33.9656   25.0372 H   0  0  0  0  0  0
  -22.7390  -31.2976   21.3910 H   0  0  0  0  0  0
  -23.3758  -35.9596   23.3295 H   0  0  0  0  0  0
  -24.3579  -36.8901   22.2056 H   0  0  0  0  0  0
  -23.7242  -37.6464   23.6673 H   0  0  0  0  0  0
  -26.1441  -31.4958   20.6180 H   0  0  0  0  0  0
  -26.8648  -30.7856   22.0284 H   0  0  0  0  0  0
  -28.1233  -28.8383   21.2410 H   0  0  0  0  0  0
  -25.9380  -25.9123   18.9336 H   0  0  0  0  0  0
  -23.9799  -27.3320   18.9556 H   0  0  0  0  0  0
  -23.7941  -30.5852   19.4026 H   0  0  0  0  0  0
  -22.7777  -29.2480   19.8468 H   0  0  0  0  0  0
  -25.1308  -36.1888   25.0814 H   0  0  0  0  0  0
  -21.0002  -28.3297   24.1366 H   0  0  0  0  0  0
  -20.5683  -26.2326   23.3615 H   0  0  0  0  0  0
  -21.6653  -26.7436   22.1197 H   0  0  0  0  0  0
  -19.6920  -25.6287   21.1253 H   0  0  0  0  0  0
  -19.6696  -27.3179   20.6730 H   0  0  0  0  0  0
  -17.4210  -26.6672   21.4029 H   0  0  0  0  0  0
  -18.0345  -26.0079   22.9026 H   0  0  0  0  0  0
  -19.7948  -30.7288   24.2239 H   0  0  0  0  0  0
  -17.5024  -31.6270   24.5161 H   0  0  0  0  0  0
  -15.5361  -30.2978   23.7670 H   0  0  0  0  0  0
  -15.8685  -28.0812   22.7085 H   0  0  0  0  0  0
  -24.5886  -30.7118   25.7760 H   0  0  0  0  0  0
  -24.8924  -32.2938   26.4840 H   0  0  0  0  0  0
  -25.8011  -30.8937   27.0233 H   0  0  0  0  0  0
  -26.2979  -29.6706   24.1285 H   0  0  0  0  0  0
  -27.3985  -29.7260   25.4848 H   0  0  0  0  0  0
  -27.8892  -30.4212   23.9596 H   0  0  0  0  0  0
  -27.2667  -33.3642   26.2051 H   0  0  0  0  0  0
  -28.3891  -32.6865   25.0348 H   0  0  0  0  0  0
  -28.0713  -31.8476   26.5453 H   0  0  0  0  0  0
  -28.2593  -38.0091   24.7510 H   0  0  0  0  0  0
  -28.1077  -36.2621   24.6294 H   0  0  0  0  0  0
  -27.2295  -37.1443   25.8867 H   0  0  0  0  0  0
  -20.9440  -29.8770   21.6819 H   0  0  0  0  0  0
  -26.0163  -38.2828   24.1405 H   0  0  0  0  0  0
  -30.7635  -20.6234   19.6370 H   0  0  0  0  0  0
  -31.7214  -17.4779   20.5155 H   0  0  0  0  0  0
  -30.9928  -17.3212   18.9301 H   0  0  0  0  0  0
  -27.9069  -16.2516   20.5222 H   0  0  0  0  0  0
  -28.6960  -16.4056   22.0930 H   0  0  0  0  0  0
  -27.6846  -24.7716   21.6374 H   0  0  0  0  0  0
  -26.8957  -24.4997   20.1323 H   0  0  0  0  0  0
  -27.4325  -22.2561   21.0577 H   0  0  0  0  0  0
  1 25  1  0  0  0
  1 30  2  0  0  0
  1 79  1  0  0  0
  2  3  1  0  0  0
  2 25  1  0  0  0
  2 83  1  0  0  0
  2 84  1  0  0  0
  3  4  1  0  0  0
  3 85  1  0  0  0
  3 86  1  0  0  0
  4  5  1  0  0  0
  4 87  1  0  0  0
  4 88  1  0  0  0
  5  6  1  0  0  0
  5 26  1  0  0  0
  5 89  1  0  0  0
  6 25  1  0  0  0
  6 90  1  0  0  0
  6 91  1  0  0  0
  7  8  2  0  0  0
  7 26  1  0  0  0
  7 29  1  0  0  0
  8  9  1  0  0  0
  8 22  1  0  0  0
  9 10  1  0  0  0
  9 27  2  0  0  0
 10 11  2  0  0  0
 10 15  1  0  0  0
 11 12  1  0  0  0
 11 92  1  0  0  0
 12 13  2  0  0  0
 12 93  1  0  0  0
 13 14  1  0  0  0
 13 31  1  0  0  0
 14 15  2  0  0  0
 14 94  1  0  0  0
 15 95  1  0  0  0
 16 17  2  0  0  0
 16 21  1  0  0  0
 16 31  1  0  0  0
 17 18  1  0  0  0
 17 96  1  0  0  0
 18 19  2  0  0  0
 18 97  1  0  0  0
 19 20  1  0  0  0
 19 24  1  0  0  0
 20 21  2  0  0  0
 20 98  1  0  0  0
 21 23  1  0  0  0
 22 28  1  0  0  0
 22 32  2  0  0  0
 26 27  1  0  0  0
 28 99  1  0  0  0
 28100  1  0  0  0
 29101  1  0  0  0
 29102  1  0  0  0
 33 34  1  0  0  0
 33 66  1  0  0  0
 33 70  2  0  0  0
 34 36  1  0  0  0
 34 59  1  0  0  0
 34103  1  0  0  0
 35 44  2  0  0  0
 35 45  1  0  0  0
 35 68  1  0  0  0
 36 56  1  0  0  0
 36104  1  0  0  0
 37 39  1  0  0  0
 37 47  1  0  0  0
 37 66  1  0  0  0
 37105  1  0  0  0
 38 43  2  0  0  0
 38 46  1  0  0  0
 38 47  1  0  0  0
 39 64  1  0  0  0
 39 67  2  0  0  0
 40 52  1  0  0  0
 40 53  2  0  0  0
 40 58  1  0  0  0
 41106  1  0  0  0
 41107  1  0  0  0
 41108  1  0  0  0
 41 48  1  0  0  0
 42 43  1  0  0  0
 42 66  1  0  0  0
 42109  1  0  0  0
 42110  1  0  0  0
 43 44  1  0  0  0
 44111  1  0  0  0
 45 46  2  0  0  0
 45112  1  0  0  0
 46113  1  0  0  0
 47114  1  0  0  0
 47115  1  0  0  0
 48 56  1  0  0  0
 48 65  1  0  0  0
 48116  1  0  0  0
 49 50  1  0  0  0
 49 53  1  0  0  0
 49 64  1  0  0  0
 49117  1  0  0  0
 50 51  1  0  0  0
 50118  1  0  0  0
 50119  1  0  0  0
 51 52  1  0  0  0
 51120  1  0  0  0
 51121  1  0  0  0
 52122  1  0  0  0
 52123  1  0  0  0
 53 54  1  0  0  0
 54 55  2  0  0  0
 54124  1  0  0  0
 55 57  1  0  0  0
 55125  1  0  0  0
 56 69  2  0  0  0
 57 58  2  0  0  0
 57126  1  0  0  0
 58127  1  0  0  0
 59 60  1  0  0  0
 59 61  1  0  0  0
 59 62  1  0  0  0
 60128  1  0  0  0
 60129  1  0  0  0
 60130  1  0  0  0
 61131  1  0  0  0
 61132  1  0  0  0
 61133  1  0  0  0
 62134  1  0  0  0
 62135  1  0  0  0
 62136  1  0  0  0
 63 65  1  0  0  0
 63137  1  0  0  0
 63138  1  0  0  0
 63139  1  0  0  0
 64140  1  0  0  0
 65141  1  0  0  0
 68 78  1  0  0  0
 71 72  1  0  0  0
 71 74  2  0  0  0
 71142  1  0  0  0
 72 73  2  0  0  0
 72 76  1  0  0  0
 73 77  1  0  0  0
 73 82  1  0  0  0
 74 80  1  0  0  0
 74 82  1  0  0  0
 75 78  1  0  0  0
 75 80  1  0  0  0
 75 81  2  0  0  0
 76 79  1  0  0  0
 76143  1  0  0  0
 76144  1  0  0  0
 77 79  1  0  0  0
 77145  1  0  0  0
 77146  1  0  0  0
 78147  1  0  0  0
 78148  1  0  0  0
 80149  1  0  0  0
M  ISO  4   1 100  68 101  78 101  79 100
M  END
> <chiral flag>
0

> <version>
0

> <s_m_source_file>
/data/baiqing/PycharmProjects/Reinvent-master-3.2/result/LINK_invent/BTK/process_docking_weight1_custom_product_contain_oxygen_bond_distance_aromatic_linkinvent_7_9_3/rearranged_h_0156.sdf

> <i_m_source_file_index>
71

> <r_mmod_Potential_Energy-OPLS-2005>
427.202453613281

> <r_mmod_Stretch_Energy-OPLS-2005>
167.784561157227

> <r_mmod_Bend_Energy-OPLS-2005>
306.031890869141

> <r_mmod_Torsional_Energy-OPLS-2005>
257.585876464844

> <r_mmod_Improper_Torsional_Energy-OPLS-2005>
10.344162940979

> <r_mmod_Van_der_Waal_Energy-OPLS-2005>
111.17017364502

> <r_mmod_Electrostatic_Energy-OPLS-2005>
-329.476287841797

> <r_mmod_Solvation_Energy-OPLS-2005>
-240.983840942383

> <b_mmod_Minimization_Converged-OPLS-2005>
0

> <r_mmod_RMS_Derivative-OPLS-2005>
0.333023279905319

$$$$
71
                    3D
 Structure written by MMmdl.
161170  0  0  1  0            999 V2000
  -30.5924  -14.7096   20.5082 C   0  0  0  0  0  0
  -30.4390  -12.4340   19.4760 C   0  0  0  0  0  0
  -29.5157  -12.5139   18.2387 C   0  0  0  0  0  0
  -28.0378  -12.3405   18.6443 C   0  0  0  0  0  0
  -27.6485  -13.2210   19.8617 C   0  0  2  0  0  0
  -28.6873  -13.1050   20.9977 C   0  0  0  0  0  0
  -25.2546  -13.8166   20.5676 C   0  0  0  0  0  0
  -24.1828  -13.0422   20.9183 C   0  0  0  0  0  0
  -24.6389  -11.6892   20.8721 C   0  0  0  0  0  0
  -23.9063  -10.4270   21.0385 C   0  0  0  0  0  0
  -24.3614   -9.4193   21.9172 C   0  0  0  0  0  0
  -23.6288   -8.2240   22.0749 C   0  0  0  0  0  0
  -22.4280   -8.0266   21.3525 C   0  0  0  0  0  0
  -21.9900   -9.0245   20.4646 C   0  0  0  0  0  0
  -22.7229  -10.2118   20.3041 C   0  0  0  0  0  0
  -21.6845   -6.0729   22.5278 C   0  0  0  0  0  0
  -21.4021   -6.5639   23.8212 C   0  0  0  0  0  0
  -21.3658   -5.6785   24.9170 C   0  0  0  0  0  0
  -21.6041   -4.3050   24.7215 C   0  0  0  0  0  0
  -21.8825   -3.8143   23.4340 C   0  0  0  0  0  0
  -21.9198   -4.6962   22.3395 C   0  0  0  0  0  0
  -22.7852  -13.5237   21.1863 C   0  0  0  0  0  0
  -22.1661   -4.2149   21.0974 F   0  0  0  0  0  0
  -21.5626   -3.4525   25.7732 F   0  0  0  0  0  0
  -29.9956  -13.4700   20.4385 N   0  0  0  0  0  0
  -26.2962  -12.9352   20.3289 N   0  0  0  0  0  0
  -25.9320  -11.6497   20.5729 N   0  0  0  0  0  0
  -22.0486  -12.8214   22.0409 N   0  0  0  0  0  0
  -25.4256  -15.1891   20.4132 N   0  0  0  0  0  0
  -31.7611  -14.8445   20.1212 O   0  0  0  0  0  0
  -21.6624   -6.8876   21.4247 O   0  0  0  0  0  0
  -22.3531  -14.5522   20.6692 O   0  0  0  0  0  0
  -24.6263  -31.8563   23.2014 C   0  0  0  0  0  0
  -25.9121  -32.4762   23.8350 C   0  0  1  0  0  0
  -27.2270  -27.2964   20.1815 C   0  0  0  0  0  0
  -25.5957  -33.8554   24.2303 N   0  0  0  0  0  0
  -23.4239  -30.4804   21.5371 C   0  0  2  0  0  0
  -24.8757  -28.9189   20.1218 C   0  0  0  0  0  0
  -22.7495  -29.4619   22.4869 C   0  0  0  0  0  0
  -18.0315  -28.1390   22.8498 C   0  0  0  0  0  0
  -24.1467  -36.7271   23.2627 C   0  0  0  0  0  0
  -25.9623  -30.7850   21.3703 C   0  0  0  0  0  0
  -26.0396  -29.4039   20.7343 C   0  0  0  0  0  0
  -27.2214  -28.6051   20.7522 C   0  0  0  0  0  0
  -26.0509  -26.8625   19.5351 C   0  0  0  0  0  0
  -24.8830  -27.6524   19.5120 C   0  0  0  0  0  0
  -23.6474  -29.8083   20.1544 C   0  0  0  0  0  0
  -25.4075  -36.3057   24.0342 C   0  0  1  0  0  0
  -20.5907  -28.3700   23.1264 C   0  0  2  0  0  0
  -20.6790  -26.9410   22.5392 C   0  0  0  0  0  0
  -19.5763  -26.6373   21.5203 C   0  0  0  0  0  0
  -18.1960  -26.7931   22.1628 C   0  0  0  0  0  0
  -19.1561  -28.8865   23.2900 C   0  0  0  0  0  0
  -18.9468  -30.1470   23.8896 C   0  0  0  0  0  0
  -17.6456  -30.6589   24.0557 C   0  0  0  0  0  0
  -25.9001  -34.9431   23.5097 C   0  0  0  0  0  0
  -16.5354  -29.9066   23.6333 C   0  0  0  0  0  0
  -16.7295  -28.6490   23.0350 C   0  0  0  0  0  0
  -26.4507  -31.6574   25.0712 C   0  0  0  0  0  0
  -25.3768  -31.3713   26.1472 C   0  0  0  0  0  0
  -27.0352  -30.3003   24.6154 C   0  0  0  0  0  0
  -27.6080  -32.4292   25.7486 C   0  0  0  0  0  0
  -27.5577  -37.1778   24.8454 C   0  0  0  0  0  0
  -21.4187  -29.3060   22.3641 N   0  0  0  0  0  0
  -26.4246  -37.3765   23.9447 N   0  0  0  0  0  0
  -24.6904  -31.0582   22.0958 N   0  0  0  0  0  0
  -23.4231  -28.8133   23.2917 O   0  0  0  0  0  0
  -28.3364  -26.4360   20.1583 O   0  0  0  0  0  0
  -26.5535  -34.8903   22.4642 O   0  0  0  0  0  0
  -23.5429  -32.1379   23.7336 O   0  0  0  0  0  0
  -29.1818  -18.2130   21.1542 C   0  0  0  0  0  0
  -29.8396  -19.4480   20.7543 C   0  0  0  0  0  0
  -29.9988  -17.1600   20.7307 C   0  0  0  0  0  0
  -28.1703  -26.0002   22.6501 C   0  0  0  0  0  0
  -29.2497  -21.8457   19.6974 C   0  0  0  0  0  0
  -28.5396  -21.4956   21.9871 C   0  0  0  0  0  0
  -29.2899  -23.4123   19.9115 C   0  0  0  0  0  0
  -28.5787  -23.0651   22.2209 C   0  0  0  0  0  0
  -29.5917  -21.0055   20.9620 C   0  0  1  0  0  0
  -26.7154  -25.7779   23.0548 C   0  0  0  0  0  0
  -28.6826  -25.4781   21.2739 C   0  0  1  0  0  0
  -30.9587  -19.1026   20.1134 N   0  0  0  0  0  0
  -29.8046  -15.7842   20.8812 N   0  0  0  0  0  0
  -28.4238  -23.9693   21.0070 N   0  3  1  0  0  0
  -28.9116  -26.5947   23.4384 O   0  0  0  0  0  0
  -31.0682  -17.6969   20.0891 O   0  0  0  0  0  0
  -31.4824  -12.5613   19.1788 H   0  0  0  0  0  0
  -30.3795  -11.4442   19.9310 H   0  0  0  0  0  0
  -29.7953  -11.7536   17.5070 H   0  0  0  0  0  0
  -29.6492  -13.4795   17.7497 H   0  0  0  0  0  0
  -27.8883  -11.2873   18.8851 H   0  0  0  0  0  0
  -27.3840  -12.5511   17.7963 H   0  0  0  0  0  0
  -27.6592  -14.2508   19.5057 H   0  0  0  0  0  0
  -28.7158  -12.0856   21.3867 H   0  0  0  0  0  0
  -28.4172  -13.7365   21.8447 H   0  0  0  0  0  0
  -25.2763   -9.5667   22.4726 H   0  0  0  0  0  0
  -23.9994   -7.4633   22.7460 H   0  0  0  0  0  0
  -21.0829   -8.8769   19.8948 H   0  0  0  0  0  0
  -22.3701  -10.9651   19.6135 H   0  0  0  0  0  0
  -21.2010   -7.6143   23.9721 H   0  0  0  0  0  0
  -21.1477   -6.0504   25.9076 H   0  0  0  0  0  0
  -22.0605   -2.7605   23.2826 H   0  0  0  0  0  0
  -22.4099  -11.9874   22.4787 H   0  0  0  0  0  0
  -21.1111  -13.1252   22.2634 H   0  0  0  0  0  0
  -24.6564  -15.8402   20.5281 H   0  0  0  0  0  0
  -26.2739  -15.6316   20.0840 H   0  0  0  0  0  0
  -26.7200  -32.5458   23.1112 H   0  0  0  0  0  0
  -25.0337  -33.9667   25.0614 H   0  0  0  0  0  0
  -22.7200  -31.3019   21.3875 H   0  0  0  0  0  0
  -23.3708  -35.9614   23.3237 H   0  0  0  0  0  0
  -24.3602  -36.8924   22.2049 H   0  0  0  0  0  0
  -23.7224  -37.6470   23.6658 H   0  0  0  0  0  0
  -26.0807  -31.5285   20.5808 H   0  0  0  0  0  0
  -26.8462  -30.8541   21.9919 H   0  0  0  0  0  0
  -28.1148  -28.9772   21.2365 H   0  0  0  0  0  0
  -26.0294  -25.8874   19.0710 H   0  0  0  0  0  0
  -23.9925  -27.2732   19.0265 H   0  0  0  0  0  0
  -23.7880  -30.5824   19.3988 H   0  0  0  0  0  0
  -22.7660  -29.2455   19.8375 H   0  0  0  0  0  0
  -25.1238  -36.1892   25.0834 H   0  0  0  0  0  0
  -21.0074  -28.3259   24.1346 H   0  0  0  0  0  0
  -20.5700  -26.2281   23.3578 H   0  0  0  0  0  0
  -21.6663  -26.7422   22.1188 H   0  0  0  0  0  0
  -19.6894  -25.6270   21.1256 H   0  0  0  0  0  0
  -19.6719  -27.3156   20.6713 H   0  0  0  0  0  0
  -17.4234  -26.6718   21.4024 H   0  0  0  0  0  0
  -18.0367  -26.0070   22.9023 H   0  0  0  0  0  0
  -19.7927  -30.7336   24.2239 H   0  0  0  0  0  0
  -17.4974  -31.6260   24.5152 H   0  0  0  0  0  0
  -15.5345  -30.2942   23.7627 H   0  0  0  0  0  0
  -15.8719  -28.0787   22.7024 H   0  0  0  0  0  0
  -24.5911  -30.7090   25.7822 H   0  0  0  0  0  0
  -24.8989  -32.2876   26.4936 H   0  0  0  0  0  0
  -25.8114  -30.8881   27.0234 H   0  0  0  0  0  0
  -26.2926  -29.6745   24.1183 H   0  0  0  0  0  0
  -27.4079  -29.7264   25.4650 H   0  0  0  0  0  0
  -27.8784  -30.4277   23.9361 H   0  0  0  0  0  0
  -27.2707  -33.3587   26.2069 H   0  0  0  0  0  0
  -28.3887  -32.6850   25.0318 H   0  0  0  0  0  0
  -28.0741  -31.8417   26.5405 H   0  0  0  0  0  0
  -28.2523  -38.0143   24.7575 H   0  0  0  0  0  0
  -28.1150  -36.2682   24.6151 H   0  0  0  0  0  0
  -27.2345  -37.1276   25.8868 H   0  0  0  0  0  0
  -20.9333  -29.8813   21.6895 H   0  0  0  0  0  0
  -26.0105  -38.2819   24.1509 H   0  0  0  0  0  0
  -28.2522  -18.1310   21.7011 H   0  0  0  0  0  0
  -29.9718  -21.6033   18.9207 H   0  0  0  0  0  0
  -28.2780  -21.5482   19.3039 H   0  0  0  0  0  0
  -27.5411  -21.1780   21.6816 H   0  0  0  0  0  0
  -28.7245  -20.9999   22.9414 H   0  0  0  0  0  0
  -29.0196  -23.9092   18.9803 H   0  0  0  0  0  0
  -30.3236  -23.6908   20.1218 H   0  0  0  0  0  0
  -29.5277  -23.3048   22.7044 H   0  0  0  0  0  0
  -27.8113  -23.2910   22.9597 H   0  0  0  0  0  0
  -30.5433  -21.3914   21.3359 H   0  0  0  0  0  0
  -26.1357  -26.6888   22.9083 H   0  0  0  0  0  0
  -26.6766  -25.5146   24.1126 H   0  0  0  0  0  0
  -26.2465  -24.9774   22.4854 H   0  0  0  0  0  0
  -29.7680  -25.5552   21.3350 H   0  0  0  0  0  0
  -28.8997  -15.5268   21.2398 H   0  0  0  0  0  0
  -27.4636  -23.8900   20.7060 H   0  0  0  0  0  0
  1 25  1  0  0  0
  1 30  2  0  0  0
  1 83  1  0  0  0
  2  3  1  0  0  0
  2 25  1  0  0  0
  2 87  1  0  0  0
  2 88  1  0  0  0
  3  4  1  0  0  0
  3 89  1  0  0  0
  3 90  1  0  0  0
  4  5  1  0  0  0
  4 91  1  0  0  0
  4 92  1  0  0  0
  5  6  1  0  0  0
  5 26  1  0  0  0
  5 93  1  0  0  0
  6 25  1  0  0  0
  6 94  1  0  0  0
  6 95  1  0  0  0
  7  8  2  0  0  0
  7 26  1  0  0  0
  7 29  1  0  0  0
  8  9  1  0  0  0
  8 22  1  0  0  0
  9 10  1  0  0  0
  9 27  2  0  0  0
 10 11  2  0  0  0
 10 15  1  0  0  0
 11 12  1  0  0  0
 11 96  1  0  0  0
 12 13  2  0  0  0
 12 97  1  0  0  0
 13 14  1  0  0  0
 13 31  1  0  0  0
 14 15  2  0  0  0
 14 98  1  0  0  0
 15 99  1  0  0  0
 16 17  2  0  0  0
 16 21  1  0  0  0
 16 31  1  0  0  0
 17 18  1  0  0  0
 17100  1  0  0  0
 18 19  2  0  0  0
 18101  1  0  0  0
 19 20  1  0  0  0
 19 24  1  0  0  0
 20 21  2  0  0  0
 20102  1  0  0  0
 21 23  1  0  0  0
 22 28  1  0  0  0
 22 32  2  0  0  0
 26 27  1  0  0  0
 28103  1  0  0  0
 28104  1  0  0  0
 29105  1  0  0  0
 29106  1  0  0  0
 33 34  1  0  0  0
 33 66  1  0  0  0
 33 70  2  0  0  0
 34 36  1  0  0  0
 34 59  1  0  0  0
 34107  1  0  0  0
 35 44  2  0  0  0
 35 45  1  0  0  0
 35 68  1  0  0  0
 36 56  1  0  0  0
 36108  1  0  0  0
 37 39  1  0  0  0
 37 47  1  0  0  0
 37 66  1  0  0  0
 37109  1  0  0  0
 38 43  2  0  0  0
 38 46  1  0  0  0
 38 47  1  0  0  0
 39 64  1  0  0  0
 39 67  2  0  0  0
 40 52  1  0  0  0
 40 53  2  0  0  0
 40 58  1  0  0  0
 41110  1  0  0  0
 41111  1  0  0  0
 41112  1  0  0  0
 41 48  1  0  0  0
 42 43  1  0  0  0
 42 66  1  0  0  0
 42113  1  0  0  0
 42114  1  0  0  0
 43 44  1  0  0  0
 44115  1  0  0  0
 45 46  2  0  0  0
 45116  1  0  0  0
 46117  1  0  0  0
 47118  1  0  0  0
 47119  1  0  0  0
 48 56  1  0  0  0
 48 65  1  0  0  0
 48120  1  0  0  0
 49 50  1  0  0  0
 49 53  1  0  0  0
 49 64  1  0  0  0
 49121  1  0  0  0
 50 51  1  0  0  0
 50122  1  0  0  0
 50123  1  0  0  0
 51 52  1  0  0  0
 51124  1  0  0  0
 51125  1  0  0  0
 52126  1  0  0  0
 52127  1  0  0  0
 53 54  1  0  0  0
 54 55  2  0  0  0
 54128  1  0  0  0
 55 57  1  0  0  0
 55129  1  0  0  0
 56 69  2  0  0  0
 57 58  2  0  0  0
 57130  1  0  0  0
 58131  1  0  0  0
 59 60  1  0  0  0
 59 61  1  0  0  0
 59 62  1  0  0  0
 60132  1  0  0  0
 60133  1  0  0  0
 60134  1  0  0  0
 61135  1  0  0  0
 61136  1  0  0  0
 61137  1  0  0  0
 62138  1  0  0  0
 62139  1  0  0  0
 62140  1  0  0  0
 63 65  1  0  0  0
 63141  1  0  0  0
 63142  1  0  0  0
 63143  1  0  0  0
 64144  1  0  0  0
 65145  1  0  0  0
 68 81  1  0  0  0
 71 72  1  0  0  0
 71 73  2  0  0  0
 71146  1  0  0  0
 72 82  2  0  0  0
 72 79  1  0  0  0
 73 83  1  0  0  0
 73 86  1  0  0  0
 74 80  1  0  0  0
 74 81  1  0  0  0
 74 85  2  0  0  0
 75 77  1  0  0  0
 75 79  1  0  0  0
 75147  1  0  0  0
 75148  1  0  0  0
 76 78  1  0  0  0
 76 79  1  0  0  0
 76149  1  0  0  0
 76150  1  0  0  0
 77151  1  0  0  0
 77152  1  0  0  0
 77 84  1  0  0  0
 78 84  1  0  0  0
 78153  1  0  0  0
 78154  1  0  0  0
 79155  1  0  0  0
 80156  1  0  0  0
 80157  1  0  0  0
 80158  1  0  0  0
 81 84  1  0  0  0
 81159  1  0  0  0
 82 86  1  0  0  0
 83160  1  0  0  0
 84161  1  0  0  0
M  CHG  1  84   1
M  ISO  4   1 100  68 101  81 101  83 100
M  END
> <chiral flag>
0

> <version>
0

> <s_m_source_file>
/data/baiqing/PycharmProjects/Reinvent-master-3.2/result/LINK_invent/BTK/process_docking_weight1_custom_product_contain_oxygen_bond_distance_aromatic_linkinvent_7_9_3/rearranged_h_0156.sdf

> <i_m_source_file_index>
72

> <r_mmod_Potential_Energy-OPLS-2005>
-163.614532470703

> <r_mmod_Stretch_Energy-OPLS-2005>
101.624565124512

> <r_mmod_Bend_Energy-OPLS-2005>
201.270309448242

> <r_mmod_Torsional_Energy-OPLS-2005>
270.994750976562

> <r_mmod_Improper_Torsional_Energy-OPLS-2005>
3.51512002944946

> <r_mmod_Van_der_Waal_Energy-OPLS-2005>
117.439018249512

> <r_mmod_Electrostatic_Energy-OPLS-2005>
-411.339935302734

> <r_mmod_Solvation_Energy-OPLS-2005>
-512.662536621094

> <b_mmod_Minimization_Converged-OPLS-2005>
0

> <r_mmod_RMS_Derivative-OPLS-2005>
4.01467037200928

$$$$
72
                    3D
 Structure written by MMmdl.
155164  0  0  1  0            999 V2000
  -30.6082  -14.6431   20.4863 C   0  0  0  0  0  0
  -30.4412  -12.3932   19.4401 C   0  0  0  0  0  0
  -29.5044  -12.5067   18.2160 C   0  0  0  0  0  0
  -28.0257  -12.3533   18.6295 C   0  0  0  0  0  0
  -27.6512  -13.2184   19.8628 C   0  0  2  0  0  0
  -28.6993  -13.0669   20.9876 C   0  0  0  0  0  0
  -25.2546  -13.8189   20.5666 C   0  0  0  0  0  0
  -24.1828  -13.0431   20.9199 C   0  0  0  0  0  0
  -24.6421  -11.6912   20.8759 C   0  0  0  0  0  0
  -23.9103  -10.4289   21.0417 C   0  0  0  0  0  0
  -24.3646   -9.4200   21.9192 C   0  0  0  0  0  0
  -23.6317   -8.2241   22.0755 C   0  0  0  0  0  0
  -22.4289   -8.0305   21.3550 C   0  0  0  0  0  0
  -21.9939   -9.0288   20.4652 C   0  0  0  0  0  0
  -22.7277  -10.2156   20.3061 C   0  0  0  0  0  0
  -21.6868   -6.0762   22.5291 C   0  0  0  0  0  0
  -21.4012   -6.5656   23.8231 C   0  0  0  0  0  0
  -21.3653   -5.6801   24.9184 C   0  0  0  0  0  0
  -21.6044   -4.3065   24.7224 C   0  0  0  0  0  0
  -21.8815   -3.8168   23.4333 C   0  0  0  0  0  0
  -21.9200   -4.6994   22.3401 C   0  0  0  0  0  0
  -22.7852  -13.5215   21.1869 C   0  0  0  0  0  0
  -22.1677   -4.2188   21.0980 F   0  0  0  0  0  0
  -21.5627   -3.4537   25.7733 F   0  0  0  0  0  0
  -30.0101  -13.4131   20.4158 N   0  0  0  0  0  0
  -26.2983  -12.9371   20.3331 N   0  0  0  0  0  0
  -25.9347  -11.6525   20.5787 N   0  0  0  0  0  0
  -22.0497  -12.8201   22.0427 N   0  0  0  0  0  0
  -25.4180  -15.1909   20.4005 N   0  0  0  0  0  0
  -31.7921  -14.8025   20.1713 O   0  0  0  0  0  0
  -21.6649   -6.8913   21.4258 O   0  0  0  0  0  0
  -22.3526  -14.5524   20.6731 O   0  0  0  0  0  0
  -24.6247  -31.8599   23.2028 C   0  0  0  0  0  0
  -25.9099  -32.4773   23.8354 C   0  0  1  0  0  0
  -27.2290  -27.3429   20.1145 C   0  0  0  0  0  0
  -25.5920  -33.8574   24.2280 N   0  0  0  0  0  0
  -23.4189  -30.4814   21.5443 C   0  0  2  0  0  0
  -24.8691  -28.9389   20.1102 C   0  0  0  0  0  0
  -22.7465  -29.4613   22.4940 C   0  0  0  0  0  0
  -18.0285  -28.1381   22.8485 C   0  0  0  0  0  0
  -24.1492  -36.7295   23.2640 C   0  0  0  0  0  0
  -25.9558  -30.7996   21.3692 C   0  0  0  0  0  0
  -26.0363  -29.4275   20.7129 C   0  0  0  0  0  0
  -27.2240  -28.6399   20.7074 C   0  0  0  0  0  0
  -26.0474  -26.8992   19.4871 C   0  0  0  0  0  0
  -24.8747  -27.6782   19.4889 C   0  0  0  0  0  0
  -23.6331  -29.8141   20.1603 C   0  0  0  0  0  0
  -25.4113  -36.3083   24.0337 C   0  0  1  0  0  0
  -20.5884  -28.3684   23.1285 C   0  0  2  0  0  0
  -20.6773  -26.9401   22.5423 C   0  0  0  0  0  0
  -19.5758  -26.6380   21.5212 C   0  0  0  0  0  0
  -18.1931  -26.7933   22.1607 C   0  0  0  0  0  0
  -19.1534  -28.8848   23.2884 C   0  0  0  0  0  0
  -18.9457  -30.1457   23.8895 C   0  0  0  0  0  0
  -17.6458  -30.6589   24.0561 C   0  0  0  0  0  0
  -25.9050  -34.9450   23.5102 C   0  0  0  0  0  0
  -16.5355  -29.9088   23.6328 C   0  0  0  0  0  0
  -16.7272  -28.6504   23.0343 C   0  0  0  0  0  0
  -26.4497  -31.6579   25.0711 C   0  0  0  0  0  0
  -25.3749  -31.3698   26.1445 C   0  0  0  0  0  0
  -27.0347  -30.3012   24.6150 C   0  0  0  0  0  0
  -27.6069  -32.4305   25.7473 C   0  0  0  0  0  0
  -27.5588  -37.1781   24.8451 C   0  0  0  0  0  0
  -21.4179  -29.3038   22.3685 N   0  0  0  0  0  0
  -26.4278  -37.3785   23.9434 N   0  0  0  0  0  0
  -24.6852  -31.0620   22.0969 N   0  0  0  0  0  0
  -23.4190  -28.8170   23.3026 O   0  0  0  0  0  0
  -28.3112  -26.4601   20.1504 O   0  0  0  0  0  0
  -26.5616  -34.8917   22.4665 O   0  0  0  0  0  0
  -23.5413  -32.1367   23.7378 O   0  0  0  0  0  0
  -28.9254  -18.1446   20.4702 C   0  0  0  0  0  0
  -31.1035  -17.8551   20.8608 C   0  0  0  0  0  0
  -29.9504  -17.1466   20.6543 C   0  0  0  0  0  0
  -29.5060  -19.4003   20.5775 C   0  0  0  0  0  0
  -29.2443  -23.3849   19.7659 C   0  0  0  0  0  0
  -28.5777  -23.8870   20.8340 C   0  0  0  0  0  0
  -29.6347  -21.8863   19.5730 C   0  0  0  0  0  0
  -28.1679  -22.9069   21.9400 C   0  0  0  0  0  0
  -28.9079  -21.5333   21.9352 C   0  0  0  0  0  0
  -28.9588  -20.8598   20.5494 C   0  0  2  0  0  0
  -28.1452  -25.3736   21.1259 C   0  0  0  0  0  0
  -29.7522  -15.6975   20.6821 N   0  0  0  0  0  0
  -30.8451  -19.2141   20.8298 O   0  0  0  0  0  0
  -31.4813  -12.5292   19.1373 H   0  0  0  0  0  0
  -30.3832  -11.3959   19.8791 H   0  0  0  0  0  0
  -29.7603  -11.7528   17.4697 H   0  0  0  0  0  0
  -29.6512  -13.4756   17.7363 H   0  0  0  0  0  0
  -27.8540  -11.2990   18.8480 H   0  0  0  0  0  0
  -27.3735  -12.5977   17.7900 H   0  0  0  0  0  0
  -27.6656  -14.2547   19.5263 H   0  0  0  0  0  0
  -28.7113  -12.0439   21.3659 H   0  0  0  0  0  0
  -28.4548  -13.6998   21.8428 H   0  0  0  0  0  0
  -25.2798   -9.5685   22.4755 H   0  0  0  0  0  0
  -24.0049   -7.4628   22.7458 H   0  0  0  0  0  0
  -21.0873   -8.8831   19.8939 H   0  0  0  0  0  0
  -22.3774  -10.9710   19.6173 H   0  0  0  0  0  0
  -21.1990   -7.6166   23.9755 H   0  0  0  0  0  0
  -21.1480   -6.0519   25.9103 H   0  0  0  0  0  0
  -22.0579   -2.7630   23.2831 H   0  0  0  0  0  0
  -22.4126  -11.9864   22.4808 H   0  0  0  0  0  0
  -21.1127  -13.1235   22.2659 H   0  0  0  0  0  0
  -24.6318  -15.8283   20.4798 H   0  0  0  0  0  0
  -26.2449  -15.6322   20.0191 H   0  0  0  0  0  0
  -26.7161  -32.5461   23.1103 H   0  0  0  0  0  0
  -25.0098  -33.9725   25.0446 H   0  0  0  0  0  0
  -22.7142  -31.3023   21.4008 H   0  0  0  0  0  0
  -23.3772  -35.9601   23.3253 H   0  0  0  0  0  0
  -24.3599  -36.8970   22.2065 H   0  0  0  0  0  0
  -23.7204  -37.6466   23.6690 H   0  0  0  0  0  0
  -26.0782  -31.5663   20.6029 H   0  0  0  0  0  0
  -26.8381  -30.8509   21.9950 H   0  0  0  0  0  0
  -28.1195  -29.0079   21.1890 H   0  0  0  0  0  0
  -26.0299  -25.9257   19.0171 H   0  0  0  0  0  0
  -23.9801  -27.2975   19.0158 H   0  0  0  0  0  0
  -23.7474  -30.5889   19.4014 H   0  0  0  0  0  0
  -22.7554  -29.2387   19.8602 H   0  0  0  0  0  0
  -25.1283  -36.1926   25.0824 H   0  0  0  0  0  0
  -20.9957  -28.3258   24.1407 H   0  0  0  0  0  0
  -20.5656  -26.2295   23.3629 H   0  0  0  0  0  0
  -21.6647  -26.7433   22.1236 H   0  0  0  0  0  0
  -19.6930  -25.6292   21.1248 H   0  0  0  0  0  0
  -19.6707  -27.3187   20.6746 H   0  0  0  0  0  0
  -17.4211  -26.6689   21.3997 H   0  0  0  0  0  0
  -18.0315  -26.0068   22.8987 H   0  0  0  0  0  0
  -19.7940  -30.7274   24.2257 H   0  0  0  0  0  0
  -17.5017  -31.6262   24.5172 H   0  0  0  0  0  0
  -15.5353  -30.2984   23.7665 H   0  0  0  0  0  0
  -15.8673  -28.0836   22.7037 H   0  0  0  0  0  0
  -24.5962  -30.6993   25.7781 H   0  0  0  0  0  0
  -24.8898  -32.2852   26.4841 H   0  0  0  0  0  0
  -25.8100  -30.8915   27.0234 H   0  0  0  0  0  0
  -26.2911  -29.6740   24.1215 H   0  0  0  0  0  0
  -27.4104  -29.7278   25.4641 H   0  0  0  0  0  0
  -27.8754  -30.4318   23.9330 H   0  0  0  0  0  0
  -27.2699  -33.3613   26.2047 H   0  0  0  0  0  0
  -28.3876  -32.6844   25.0286 H   0  0  0  0  0  0
  -28.0740  -31.8426   26.5386 H   0  0  0  0  0  0
  -28.2552  -38.0135   24.7581 H   0  0  0  0  0  0
  -28.1139  -36.2666   24.6162 H   0  0  0  0  0  0
  -27.2329  -37.1300   25.8858 H   0  0  0  0  0  0
  -20.9356  -29.8757   21.6898 H   0  0  0  0  0  0
  -26.0160  -38.2846   24.1493 H   0  0  0  0  0  0
  -27.8721  -17.9746   20.2950 H   0  0  0  0  0  0
  -32.1305  -17.5798   21.0624 H   0  0  0  0  0  0
  -29.5593  -24.0599   18.9810 H   0  0  0  0  0  0
  -30.7175  -21.8306   19.6926 H   0  0  0  0  0  0
  -29.4260  -21.5972   18.5430 H   0  0  0  0  0  0
  -27.0934  -22.7427   21.8527 H   0  0  0  0  0  0
  -28.3239  -23.3850   22.9070 H   0  0  0  0  0  0
  -28.4149  -20.8665   22.6439 H   0  0  0  0  0  0
  -29.9249  -21.6621   22.3071 H   0  0  0  0  0  0
  -27.9190  -20.7844   20.2229 H   0  0  0  0  0  0
  -28.6821  -25.6880   22.0219 H   0  0  0  0  0  0
  -27.0990  -25.3164   21.4378 H   0  0  0  0  0  0
  -28.7933  -15.4017   20.7873 H   0  0  0  0  0  0
  1 25  1  0  0  0
  1 30  2  0  0  0
  1 82  1  0  0  0
  2  3  1  0  0  0
  2 25  1  0  0  0
  2 84  1  0  0  0
  2 85  1  0  0  0
  3  4  1  0  0  0
  3 86  1  0  0  0
  3 87  1  0  0  0
  4  5  1  0  0  0
  4 88  1  0  0  0
  4 89  1  0  0  0
  5  6  1  0  0  0
  5 26  1  0  0  0
  5 90  1  0  0  0
  6 25  1  0  0  0
  6 91  1  0  0  0
  6 92  1  0  0  0
  7  8  2  0  0  0
  7 26  1  0  0  0
  7 29  1  0  0  0
  8  9  1  0  0  0
  8 22  1  0  0  0
  9 10  1  0  0  0
  9 27  2  0  0  0
 10 11  2  0  0  0
 10 15  1  0  0  0
 11 12  1  0  0  0
 11 93  1  0  0  0
 12 13  2  0  0  0
 12 94  1  0  0  0
 13 14  1  0  0  0
 13 31  1  0  0  0
 14 15  2  0  0  0
 14 95  1  0  0  0
 15 96  1  0  0  0
 16 17  2  0  0  0
 16 21  1  0  0  0
 16 31  1  0  0  0
 17 18  1  0  0  0
 17 97  1  0  0  0
 18 19  2  0  0  0
 18 98  1  0  0  0
 19 20  1  0  0  0
 19 24  1  0  0  0
 20 21  2  0  0  0
 20 99  1  0  0  0
 21 23  1  0  0  0
 22 28  1  0  0  0
 22 32  2  0  0  0
 26 27  1  0  0  0
 28100  1  0  0  0
 28101  1  0  0  0
 29102  1  0  0  0
 29103  1  0  0  0
 33 34  1  0  0  0
 33 66  1  0  0  0
 33 70  2  0  0  0
 34 36  1  0  0  0
 34 59  1  0  0  0
 34104  1  0  0  0
 35 44  2  0  0  0
 35 45  1  0  0  0
 35 68  1  0  0  0
 36 56  1  0  0  0
 36105  1  0  0  0
 37 39  1  0  0  0
 37 47  1  0  0  0
 37 66  1  0  0  0
 37106  1  0  0  0
 38 43  2  0  0  0
 38 46  1  0  0  0
 38 47  1  0  0  0
 39 64  1  0  0  0
 39 67  2  0  0  0
 40 52  1  0  0  0
 40 53  2  0  0  0
 40 58  1  0  0  0
 41107  1  0  0  0
 41108  1  0  0  0
 41109  1  0  0  0
 41 48  1  0  0  0
 42 43  1  0  0  0
 42 66  1  0  0  0
 42110  1  0  0  0
 42111  1  0  0  0
 43 44  1  0  0  0
 44112  1  0  0  0
 45 46  2  0  0  0
 45113  1  0  0  0
 46114  1  0  0  0
 47115  1  0  0  0
 47116  1  0  0  0
 48 56  1  0  0  0
 48 65  1  0  0  0
 48117  1  0  0  0
 49 50  1  0  0  0
 49 53  1  0  0  0
 49 64  1  0  0  0
 49118  1  0  0  0
 50 51  1  0  0  0
 50119  1  0  0  0
 50120  1  0  0  0
 51 52  1  0  0  0
 51121  1  0  0  0
 51122  1  0  0  0
 52123  1  0  0  0
 52124  1  0  0  0
 53 54  1  0  0  0
 54 55  2  0  0  0
 54125  1  0  0  0
 55 57  1  0  0  0
 55126  1  0  0  0
 56 69  2  0  0  0
 57 58  2  0  0  0
 57127  1  0  0  0
 58128  1  0  0  0
 59 60  1  0  0  0
 59 61  1  0  0  0
 59 62  1  0  0  0
 60129  1  0  0  0
 60130  1  0  0  0
 60131  1  0  0  0
 61132  1  0  0  0
 61133  1  0  0  0
 61134  1  0  0  0
 62135  1  0  0  0
 62136  1  0  0  0
 62137  1  0  0  0
 63 65  1  0  0  0
 63138  1  0  0  0
 63139  1  0  0  0
 63140  1  0  0  0
 64141  1  0  0  0
 65142  1  0  0  0
 68 81  1  0  0  0
 71 73  1  0  0  0
 71 74  2  0  0  0
 71143  1  0  0  0
 72 73  2  0  0  0
 72 83  1  0  0  0
 72144  1  0  0  0
 73 82  1  0  0  0
 74 83  1  0  0  0
 74 80  1  0  0  0
 75 76  2  0  0  0
 75 77  1  0  0  0
 75145  1  0  0  0
 76 78  1  0  0  0
 76 81  1  0  0  0
 77 80  1  0  0  0
 77146  1  0  0  0
 77147  1  0  0  0
 78 79  1  0  0  0
 78148  1  0  0  0
 78149  1  0  0  0
 79 80  1  0  0  0
 79150  1  0  0  0
 79151  1  0  0  0
 80152  1  0  0  0
 81153  1  0  0  0
 81154  1  0  0  0
 82155  1  0  0  0
M  ISO  4   1 100  68 101  81 101  82 100
M  END
> <chiral flag>
0

> <version>
0

> <s_m_source_file>
/data/baiqing/PycharmProjects/Reinvent-master-3.2/result/LINK_invent/BTK/process_docking_weight1_custom_product_contain_oxygen_bond_distance_aromatic_linkinvent_7_9_3/rearranged_h_0156.sdf

> <i_m_source_file_index>
73

> <r_mmod_Potential_Energy-OPLS-2005>
88.9338836669922

> <r_mmod_Stretch_Energy-OPLS-2005>
70.3886642456055

> <r_mmod_Bend_Energy-OPLS-2005>
146.059494018555

> <r_mmod_Torsional_Energy-OPLS-2005>
247.239730834961

> <r_mmod_Improper_Torsional_Energy-OPLS-2005>
6.38330173492432

> <r_mmod_Van_der_Waal_Energy-OPLS-2005>
121.65412902832

> <r_mmod_Electrostatic_Energy-OPLS-2005>
-350.815399169922

> <r_mmod_Solvation_Energy-OPLS-2005>
-200.712112426758

> <b_mmod_Minimization_Converged-OPLS-2005>
0

> <r_mmod_RMS_Derivative-OPLS-2005>
2.30436587333679

$$$$
73
                    3D
 Structure written by MMmdl.
146154  0  0  1  0            999 V2000
  -30.3896  -15.3605   20.3758 C   0  0  0  0  0  0
  -30.4277  -12.8714   19.5585 C   0  0  0  0  0  0
  -29.5419  -12.5959   18.3130 C   0  0  0  0  0  0
  -28.0952  -12.2859   18.7336 C   0  0  0  0  0  0
  -27.5991  -13.2782   19.8124 C   0  0  2  0  0  0
  -28.6162  -13.4905   20.9546 C   0  0  0  0  0  0
  -25.2322  -13.8222   20.5723 C   0  0  0  0  0  0
  -24.1681  -13.0412   20.9237 C   0  0  0  0  0  0
  -24.6341  -11.6913   20.8724 C   0  0  0  0  0  0
  -23.9054  -10.4275   21.0387 C   0  0  0  0  0  0
  -24.3597   -9.4199   21.9178 C   0  0  0  0  0  0
  -23.6279   -8.2233   22.0766 C   0  0  0  0  0  0
  -22.4270   -8.0266   21.3552 C   0  0  0  0  0  0
  -21.9885   -9.0228   20.4652 C   0  0  0  0  0  0
  -22.7213  -10.2105   20.3053 C   0  0  0  0  0  0
  -21.6841   -6.0719   22.5285 C   0  0  0  0  0  0
  -21.4008   -6.5631   23.8214 C   0  0  0  0  0  0
  -21.3665   -5.6787   24.9175 C   0  0  0  0  0  0
  -21.6044   -4.3046   24.7222 C   0  0  0  0  0  0
  -21.8818   -3.8144   23.4344 C   0  0  0  0  0  0
  -21.9185   -4.6953   22.3396 C   0  0  0  0  0  0
  -22.7703  -13.5178   21.1901 C   0  0  0  0  0  0
  -22.1656   -4.2133   21.0972 F   0  0  0  0  0  0
  -21.5631   -3.4532   25.7737 F   0  0  0  0  0  0
  -29.8482  -14.0297   20.3505 N   0  0  0  0  0  0
  -26.2724  -12.9516   20.3130 N   0  0  0  0  0  0
  -25.9258  -11.6618   20.5644 N   0  0  0  0  0  0
  -22.0352  -12.8178   22.0463 N   0  0  0  0  0  0
  -25.3962  -15.1965   20.4193 N   0  0  0  0  0  0
  -31.6024  -15.3517   20.1124 O   0  0  0  0  0  0
  -21.6639   -6.8863   21.4251 O   0  0  0  0  0  0
  -22.3395  -14.5474   20.6736 O   0  0  0  0  0  0
  -24.6708  -31.8160   23.1680 C   0  0  0  0  0  0
  -25.9355  -32.4566   23.8156 C   0  0  1  0  0  0
  -27.2082  -26.8272   20.1828 C   0  0  0  0  0  0
  -25.5972  -33.8372   24.2067 N   0  0  0  0  0  0
  -23.4914  -30.4259   21.5189 C   0  0  2  0  0  0
  -24.9438  -28.8059   20.1158 C   0  0  0  0  0  0
  -22.7705  -29.4413   22.4776 C   0  0  0  0  0  0
  -18.0330  -28.1410   22.8467 C   0  0  0  0  0  0
  -24.1491  -36.7221   23.2661 C   0  0  0  0  0  0
  -26.0653  -30.5858   21.4168 C   0  0  0  0  0  0
  -26.1254  -29.1610   20.7765 C   0  0  0  0  0  0
  -27.2379  -28.1894   20.8021 C   0  0  0  0  0  0
  -26.0307  -26.7085   19.4020 C   0  0  0  0  0  0
  -24.9292  -27.6007   19.4073 C   0  0  0  0  0  0
  -23.7319  -29.7373   20.1485 C   0  0  0  0  0  0
  -25.4144  -36.2966   24.0295 C   0  0  1  0  0  0
  -20.5954  -28.3763   23.1176 C   0  0  2  0  0  0
  -20.6793  -26.9429   22.5406 C   0  0  0  0  0  0
  -19.5766  -26.6370   21.5223 C   0  0  0  0  0  0
  -18.1957  -26.7940   22.1630 C   0  0  0  0  0  0
  -19.1591  -28.8917   23.2802 C   0  0  0  0  0  0
  -18.9494  -30.1501   23.8846 C   0  0  0  0  0  0
  -17.6481  -30.6601   24.0556 C   0  0  0  0  0  0
  -25.9087  -34.9330   23.5015 C   0  0  0  0  0  0
  -16.5379  -29.9079   23.6334 C   0  0  0  0  0  0
  -16.7306  -28.6493   23.0373 C   0  0  0  0  0  0
  -26.4572  -31.6526   25.0703 C   0  0  0  0  0  0
  -25.3680  -31.3800   26.1351 C   0  0  0  0  0  0
  -27.0477  -30.2884   24.6466 C   0  0  0  0  0  0
  -27.6044  -32.4340   25.7537 C   0  0  0  0  0  0
  -27.5528  -37.1845   24.8515 C   0  0  0  0  0  0
  -21.4369  -29.3034   22.3521 N   0  0  0  0  0  0
  -26.4326  -37.3660   23.9328 N   0  0  0  0  0  0
  -24.7663  -30.9719   22.0879 N   0  0  0  0  0  0
  -23.4213  -28.7970   23.3043 O   0  0  0  0  0  0
  -28.2072  -25.6780   20.2785 O   0  0  0  0  0  0
  -26.5684  -34.8877   22.4603 O   0  0  0  0  0  0
  -23.5754  -32.1180   23.6703 O   0  0  0  0  0  0
  -28.6708  -21.1445   19.8578 C   0  0  0  0  0  0
  -29.3672  -22.3986   21.6353 C   0  0  0  0  0  0
  -28.6650  -22.6124   20.4689 C   0  0  0  0  0  0
  -29.2768  -19.9308   20.4780 C   0  0  0  0  0  0
  -26.7759  -23.6972   19.1981 C   0  0  0  0  0  0
  -29.7318  -18.2702   19.9816 C   0  0  0  0  0  0
  -29.6246  -16.6541   20.5001 N   0  0  0  0  0  0
  -27.9671  -23.9865   19.9785 N   0  0  0  0  0  0
  -29.8848  -20.6843   21.9584 S   0  0  0  0  0  0
  -31.4464  -13.0834   19.2297 H   0  0  0  0  0  0
  -30.5116  -11.9795   20.1812 H   0  0  0  0  0  0
  -29.9518  -11.7712   17.7272 H   0  0  0  0  0  0
  -29.5494  -13.4728   17.6638 H   0  0  0  0  0  0
  -28.0746  -11.2700   19.1361 H   0  0  0  0  0  0
  -27.4344  -12.2843   17.8663 H   0  0  0  0  0  0
  -27.5036  -14.2288   19.2869 H   0  0  0  0  0  0
  -28.7886  -12.5626   21.4979 H   0  0  0  0  0  0
  -28.2226  -14.2036   21.6807 H   0  0  0  0  0  0
  -25.2724   -9.5680   22.4757 H   0  0  0  0  0  0
  -23.9973   -7.4632   22.7484 H   0  0  0  0  0  0
  -21.0818   -8.8738   19.8955 H   0  0  0  0  0  0
  -22.3665  -10.9635   19.6158 H   0  0  0  0  0  0
  -21.2018   -7.6140   23.9712 H   0  0  0  0  0  0
  -21.1487   -6.0517   25.9074 H   0  0  0  0  0  0
  -22.0597   -2.7604   23.2847 H   0  0  0  0  0  0
  -22.3972  -11.9833   22.4871 H   0  0  0  0  0  0
  -21.0976  -13.1221   22.2670 H   0  0  0  0  0  0
  -24.6277  -15.8463   20.5440 H   0  0  0  0  0  0
  -26.2377  -15.6403   20.0767 H   0  0  0  0  0  0
  -26.7429  -32.5084   23.0871 H   0  0  0  0  0  0
  -25.0074  -33.9440   25.0191 H   0  0  0  0  0  0
  -22.8109  -31.2607   21.3423 H   0  0  0  0  0  0
  -23.3691  -35.9631   23.3483 H   0  0  0  0  0  0
  -24.3515  -36.8693   22.2038 H   0  0  0  0  0  0
  -23.7365  -37.6511   23.6611 H   0  0  0  0  0  0
  -26.2398  -31.3086   20.6175 H   0  0  0  0  0  0
  -26.9314  -30.6661   22.0619 H   0  0  0  0  0  0
  -28.1242  -28.4539   21.3620 H   0  0  0  0  0  0
  -25.8954  -25.8791   18.7386 H   0  0  0  0  0  0
  -24.0579  -27.3458   18.8202 H   0  0  0  0  0  0
  -23.8837  -30.4986   19.3827 H   0  0  0  0  0  0
  -22.8432  -29.1811   19.8423 H   0  0  0  0  0  0
  -25.1379  -36.1809   25.0796 H   0  0  0  0  0  0
  -21.0050  -28.3371   24.1300 H   0  0  0  0  0  0
  -20.5656  -26.2381   23.3653 H   0  0  0  0  0  0
  -21.6653  -26.7374   22.1228 H   0  0  0  0  0  0
  -19.6915  -25.6267   21.1284 H   0  0  0  0  0  0
  -19.6712  -27.3144   20.6730 H   0  0  0  0  0  0
  -17.4216  -26.6688   21.4040 H   0  0  0  0  0  0
  -18.0353  -26.0107   22.9046 H   0  0  0  0  0  0
  -19.7973  -30.7334   24.2196 H   0  0  0  0  0  0
  -17.5033  -31.6277   24.5152 H   0  0  0  0  0  0
  -15.5376  -30.2960   23.7697 H   0  0  0  0  0  0
  -15.8716  -28.0794   22.7123 H   0  0  0  0  0  0
  -24.5907  -30.7086   25.7690 H   0  0  0  0  0  0
  -24.8809  -32.2992   26.4590 H   0  0  0  0  0  0
  -25.7894  -30.9120   27.0252 H   0  0  0  0  0  0
  -26.3160  -29.6573   24.1407 H   0  0  0  0  0  0
  -27.3929  -29.7237   25.5137 H   0  0  0  0  0  0
  -27.9129  -30.4079   23.9949 H   0  0  0  0  0  0
  -27.2608  -33.3713   26.1934 H   0  0  0  0  0  0
  -28.3964  -32.6777   25.0444 H   0  0  0  0  0  0
  -28.0580  -31.8568   26.5609 H   0  0  0  0  0  0
  -28.2764  -37.9899   24.7185 H   0  0  0  0  0  0
  -28.0791  -36.2433   24.6856 H   0  0  0  0  0  0
  -27.2179  -37.2111   25.8898 H   0  0  0  0  0  0
  -20.9652  -29.8722   21.6626 H   0  0  0  0  0  0
  -26.0201  -38.2778   24.1085 H   0  0  0  0  0  0
  -28.2133  -21.0378   18.8839 H   0  0  0  0  0  0
  -29.5957  -23.1473   22.3835 H   0  0  0  0  0  0
  -25.8946  -24.0807   19.7060 H   0  0  0  0  0  0
  -26.6041  -22.6285   19.0872 H   0  0  0  0  0  0
  -26.8590  -24.1083   18.1925 H   0  0  0  0  0  0
  -30.7856  -18.3532   19.7058 H   0  0  0  0  0  0
  -29.2341  -18.1680   19.0193 H   0  0  0  0  0  0
  -28.6740  -16.4436   20.7687 H   0  0  0  0  0  0
  1 25  1  0  0  0
  1 30  2  0  0  0
  1 77  1  0  0  0
  2  3  1  0  0  0
  2 25  1  0  0  0
  2 80  1  0  0  0
  2 81  1  0  0  0
  3  4  1  0  0  0
  3 82  1  0  0  0
  3 83  1  0  0  0
  4  5  1  0  0  0
  4 84  1  0  0  0
  4 85  1  0  0  0
  5  6  1  0  0  0
  5 26  1  0  0  0
  5 86  1  0  0  0
  6 25  1  0  0  0
  6 87  1  0  0  0
  6 88  1  0  0  0
  7  8  2  0  0  0
  7 26  1  0  0  0
  7 29  1  0  0  0
  8  9  1  0  0  0
  8 22  1  0  0  0
  9 10  1  0  0  0
  9 27  2  0  0  0
 10 11  2  0  0  0
 10 15  1  0  0  0
 11 12  1  0  0  0
 11 89  1  0  0  0
 12 13  2  0  0  0
 12 90  1  0  0  0
 13 14  1  0  0  0
 13 31  1  0  0  0
 14 15  2  0  0  0
 14 91  1  0  0  0
 15 92  1  0  0  0
 16 17  2  0  0  0
 16 21  1  0  0  0
 16 31  1  0  0  0
 17 18  1  0  0  0
 17 93  1  0  0  0
 18 19  2  0  0  0
 18 94  1  0  0  0
 19 20  1  0  0  0
 19 24  1  0  0  0
 20 21  2  0  0  0
 20 95  1  0  0  0
 21 23  1  0  0  0
 22 28  1  0  0  0
 22 32  2  0  0  0
 26 27  1  0  0  0
 28 96  1  0  0  0
 28 97  1  0  0  0
 29 98  1  0  0  0
 29 99  1  0  0  0
 33 34  1  0  0  0
 33 66  1  0  0  0
 33 70  2  0  0  0
 34 36  1  0  0  0
 34 59  1  0  0  0
 34100  1  0  0  0
 35 44  2  0  0  0
 35 45  1  0  0  0
 35 68  1  0  0  0
 36 56  1  0  0  0
 36101  1  0  0  0
 37 39  1  0  0  0
 37 47  1  0  0  0
 37 66  1  0  0  0
 37102  1  0  0  0
 38 43  2  0  0  0
 38 46  1  0  0  0
 38 47  1  0  0  0
 39 64  1  0  0  0
 39 67  2  0  0  0
 40 52  1  0  0  0
 40 53  2  0  0  0
 40 58  1  0  0  0
 41103  1  0  0  0
 41104  1  0  0  0
 41105  1  0  0  0
 41 48  1  0  0  0
 42 43  1  0  0  0
 42 66  1  0  0  0
 42106  1  0  0  0
 42107  1  0  0  0
 43 44  1  0  0  0
 44108  1  0  0  0
 45 46  2  0  0  0
 45109  1  0  0  0
 46110  1  0  0  0
 47111  1  0  0  0
 47112  1  0  0  0
 48 56  1  0  0  0
 48 65  1  0  0  0
 48113  1  0  0  0
 49 50  1  0  0  0
 49 53  1  0  0  0
 49 64  1  0  0  0
 49114  1  0  0  0
 50 51  1  0  0  0
 50115  1  0  0  0
 50116  1  0  0  0
 51 52  1  0  0  0
 51117  1  0  0  0
 51118  1  0  0  0
 52119  1  0  0  0
 52120  1  0  0  0
 53 54  1  0  0  0
 54 55  2  0  0  0
 54121  1  0  0  0
 55 57  1  0  0  0
 55122  1  0  0  0
 56 69  2  0  0  0
 57 58  2  0  0  0
 57123  1  0  0  0
 58124  1  0  0  0
 59 60  1  0  0  0
 59 61  1  0  0  0
 59 62  1  0  0  0
 60125  1  0  0  0
 60126  1  0  0  0
 60127  1  0  0  0
 61128  1  0  0  0
 61129  1  0  0  0
 61130  1  0  0  0
 62131  1  0  0  0
 62132  1  0  0  0
 62133  1  0  0  0
 63 65  1  0  0  0
 63134  1  0  0  0
 63135  1  0  0  0
 63136  1  0  0  0
 64137  1  0  0  0
 65138  1  0  0  0
 68 78  1  0  0  0
 71 73  1  0  0  0
 71 74  2  0  0  0
 71139  1  0  0  0
 72 73  2  0  0  0
 72 79  1  0  0  0
 72140  1  0  0  0
 73 78  1  0  0  0
 74 76  1  0  0  0
 74 79  1  0  0  0
 75 78  1  0  0  0
 75141  1  0  0  0
 75142  1  0  0  0
 75143  1  0  0  0
 76 77  1  0  0  0
 76144  1  0  0  0
 76145  1  0  0  0
 77146  1  0  0  0
M  ISO  4   1 100  68 101  77 100  78 101
M  END
> <chiral flag>
0

> <version>
0

> <s_m_source_file>
/data/baiqing/PycharmProjects/Reinvent-master-3.2/result/LINK_invent/BTK/process_docking_weight1_custom_product_contain_oxygen_bond_distance_aromatic_linkinvent_7_9_3/rearranged_h_0156.sdf

> <i_m_source_file_index>
74

> <r_mmod_Potential_Energy-OPLS-2005>
1503.68322753906

> <r_mmod_Stretch_Energy-OPLS-2005>
700.076416015625

> <r_mmod_Bend_Energy-OPLS-2005>
520.731811523438

> <r_mmod_Torsional_Energy-OPLS-2005>
212.742416381836

> <r_mmod_Improper_Torsional_Energy-OPLS-2005>
6.18232583999634

> <r_mmod_Van_der_Waal_Energy-OPLS-2005>
122.233924865723

> <r_mmod_Electrostatic_Energy-OPLS-2005>
-409.330749511719

> <r_mmod_Solvation_Energy-OPLS-2005>
-231.442962646484

> <b_mmod_Minimization_Converged-OPLS-2005>
0

> <r_mmod_RMS_Derivative-OPLS-2005>
4.51825141906738

$$$$
74
                    3D
 Structure written by MMmdl.
152161  0  0  1  0            999 V2000
  -30.5842  -14.7860   20.5431 C   0  0  0  0  0  0
  -30.4486  -12.5037   19.4635 C   0  0  0  0  0  0
  -29.5137  -12.5415   18.2328 C   0  0  0  0  0  0
  -28.0425  -12.3439   18.6476 C   0  0  0  0  0  0
  -27.6481  -13.2297   19.8581 C   0  0  2  0  0  0
  -28.6924  -13.1309   20.9891 C   0  0  0  0  0  0
  -25.2542  -13.8186   20.5701 C   0  0  0  0  0  0
  -24.1818  -13.0438   20.9190 C   0  0  0  0  0  0
  -24.6407  -11.6913   20.8731 C   0  0  0  0  0  0
  -23.9079  -10.4294   21.0400 C   0  0  0  0  0  0
  -24.3630   -9.4209   21.9179 C   0  0  0  0  0  0
  -23.6303   -8.2247   22.0752 C   0  0  0  0  0  0
  -22.4284   -8.0284   21.3544 C   0  0  0  0  0  0
  -21.9921   -9.0257   20.4645 C   0  0  0  0  0  0
  -22.7252  -10.2134   20.3051 C   0  0  0  0  0  0
  -21.6854   -6.0740   22.5284 C   0  0  0  0  0  0
  -21.4013   -6.5641   23.8217 C   0  0  0  0  0  0
  -21.3658   -5.6793   24.9177 C   0  0  0  0  0  0
  -21.6046   -4.3058   24.7228 C   0  0  0  0  0  0
  -21.8819   -3.8149   23.4348 C   0  0  0  0  0  0
  -21.9192   -4.6966   22.3406 C   0  0  0  0  0  0
  -22.7838  -13.5225   21.1855 C   0  0  0  0  0  0
  -22.1659   -4.2152   21.0985 F   0  0  0  0  0  0
  -21.5632   -3.4541   25.7739 F   0  0  0  0  0  0
  -29.9910  -13.5380   20.4252 N   0  0  0  0  0  0
  -26.2972  -12.9388   20.3304 N   0  0  0  0  0  0
  -25.9342  -11.6529   20.5740 N   0  0  0  0  0  0
  -22.0484  -12.8210   22.0412 N   0  0  0  0  0  0
  -25.4264  -15.1909   20.4152 N   0  0  0  0  0  0
  -31.7011  -14.9750   20.0484 O   0  0  0  0  0  0
  -21.6645   -6.8881   21.4244 O   0  0  0  0  0  0
  -22.3518  -14.5530   20.6704 O   0  0  0  0  0  0
  -24.6373  -31.8511   23.1964 C   0  0  0  0  0  0
  -25.9176  -32.4732   23.8322 C   0  0  1  0  0  0
  -27.2174  -27.2077   20.1264 C   0  0  0  0  0  0
  -25.5949  -33.8536   24.2237 N   0  0  0  0  0  0
  -23.4368  -30.4747   21.5411 C   0  0  2  0  0  0
  -24.8847  -28.9198   20.1080 C   0  0  0  0  0  0
  -22.7533  -29.4586   22.4893 C   0  0  0  0  0  0
  -18.0296  -28.1396   22.8480 C   0  0  0  0  0  0
  -24.1486  -36.7270   23.2640 C   0  0  0  0  0  0
  -25.9895  -30.7446   21.3884 C   0  0  0  0  0  0
  -26.0601  -29.3644   20.7263 C   0  0  0  0  0  0
  -27.2266  -28.5211   20.7273 C   0  0  0  0  0  0
  -26.0189  -26.8615   19.4569 C   0  0  0  0  0  0
  -24.8728  -27.6780   19.4613 C   0  0  0  0  0  0
  -23.6578  -29.8118   20.1573 C   0  0  0  0  0  0
  -25.4115  -36.3057   24.0322 C   0  0  1  0  0  0
  -20.5904  -28.3714   23.1250 C   0  0  2  0  0  0
  -20.6781  -26.9424   22.5403 C   0  0  0  0  0  0
  -19.5756  -26.6386   21.5210 C   0  0  0  0  0  0
  -18.1937  -26.7937   22.1621 C   0  0  0  0  0  0
  -19.1552  -28.8872   23.2860 C   0  0  0  0  0  0
  -18.9471  -30.1470   23.8886 C   0  0  0  0  0  0
  -17.6468  -30.6595   24.0562 C   0  0  0  0  0  0
  -25.9064  -34.9428   23.5084 C   0  0  0  0  0  0
  -16.5358  -29.9087   23.6340 C   0  0  0  0  0  0
  -16.7280  -28.6505   23.0360 C   0  0  0  0  0  0
  -26.4517  -31.6582   25.0740 C   0  0  0  0  0  0
  -25.3717  -31.3754   26.1445 C   0  0  0  0  0  0
  -27.0377  -30.2984   24.6289 C   0  0  0  0  0  0
  -27.6055  -32.4341   25.7518 C   0  0  0  0  0  0
  -27.5578  -37.1791   24.8465 C   0  0  0  0  0  0
  -21.4234  -29.3054   22.3636 N   0  0  0  0  0  0
  -26.4286  -37.3763   23.9412 N   0  0  0  0  0  0
  -24.7072  -31.0425   22.0974 N   0  0  0  0  0  0
  -23.4204  -28.8122   23.3013 O   0  0  0  0  0  0
  -28.2769  -26.2488   20.2083 O   0  0  0  0  0  0
  -26.5641  -34.8912   22.4656 O   0  0  0  0  0  0
  -23.5507  -32.1362   23.7222 O   0  0  0  0  0  0
  -29.5784  -20.0224   21.0339 C   0  0  0  0  0  0
  -28.9284  -19.9162   18.9321 C   0  0  0  0  0  0
  -29.0914  -20.8450   19.9346 C   0  0  0  0  0  0
  -29.6046  -18.6619   20.6520 C   0  0  0  0  0  0
  -28.8713  -23.5290   20.3586 C   0  0  0  0  0  0
  -30.7229  -17.1259   22.5958 C   0  0  0  0  0  0
  -30.1725  -15.7007   22.6718 C   0  0  0  0  0  0
  -29.6980  -17.3193   21.5066 C   0  0  2  0  0  0
  -27.9799  -24.7923   19.8495 C   0  0  0  0  0  0
  -29.8690  -15.7833   21.2168 N   0  0  0  0  0  0
  -28.6524  -22.2772   19.7775 N   0  0  0  0  0  0
  -29.7063  -23.6877   21.2530 O   0  0  0  0  0  0
  -29.2157  -18.6194   19.3420 O   0  0  0  0  0  0
  -31.4821  -12.6658   19.1524 H   0  0  0  0  0  0
  -30.4316  -11.5173   19.9301 H   0  0  0  0  0  0
  -29.8059  -11.7778   17.5107 H   0  0  0  0  0  0
  -29.6220  -13.5003   17.7231 H   0  0  0  0  0  0
  -27.9078  -11.2917   18.9012 H   0  0  0  0  0  0
  -27.3814  -12.5396   17.8026 H   0  0  0  0  0  0
  -27.6514  -14.2594   19.4988 H   0  0  0  0  0  0
  -28.7459  -12.1131   21.3781 H   0  0  0  0  0  0
  -28.3948  -13.7546   21.8313 H   0  0  0  0  0  0
  -25.2777   -9.5686   22.4751 H   0  0  0  0  0  0
  -24.0010   -7.4641   22.7473 H   0  0  0  0  0  0
  -21.0851   -8.8782   19.8951 H   0  0  0  0  0  0
  -22.3715  -10.9674   19.6160 H   0  0  0  0  0  0
  -21.2001   -7.6149   23.9722 H   0  0  0  0  0  0
  -21.1479   -6.0523   25.9082 H   0  0  0  0  0  0
  -22.0596   -2.7612   23.2852 H   0  0  0  0  0  0
  -22.4101  -11.9869   22.4799 H   0  0  0  0  0  0
  -21.1097  -13.1227   22.2615 H   0  0  0  0  0  0
  -24.6676  -15.8528   20.5355 H   0  0  0  0  0  0
  -26.2929  -15.6283   20.1262 H   0  0  0  0  0  0
  -26.7242  -32.5358   23.1057 H   0  0  0  0  0  0
  -25.0083  -33.9666   25.0375 H   0  0  0  0  0  0
  -22.7363  -31.2995   21.3937 H   0  0  0  0  0  0
  -23.3758  -35.9593   23.3290 H   0  0  0  0  0  0
  -24.3576  -36.8908   22.2058 H   0  0  0  0  0  0
  -23.7227  -37.6458   23.6678 H   0  0  0  0  0  0
  -26.1403  -31.5041   20.6202 H   0  0  0  0  0  0
  -26.8622  -30.7896   22.0280 H   0  0  0  0  0  0
  -28.1199  -28.8530   21.2374 H   0  0  0  0  0  0
  -25.9195  -25.9249   18.9305 H   0  0  0  0  0  0
  -23.9775  -27.3362   18.9604 H   0  0  0  0  0  0
  -23.7864  -30.5895   19.4037 H   0  0  0  0  0  0
  -22.7746  -29.2492   19.8492 H   0  0  0  0  0  0
  -25.1300  -36.1894   25.0814 H   0  0  0  0  0  0
  -20.9992  -28.3295   24.1373 H   0  0  0  0  0  0
  -20.5677  -26.2327   23.3616 H   0  0  0  0  0  0
  -21.6649  -26.7442   22.1200 H   0  0  0  0  0  0
  -19.6917  -25.6292   21.1254 H   0  0  0  0  0  0
  -19.6693  -27.3187   20.6733 H   0  0  0  0  0  0
  -17.4204  -26.6685   21.4025 H   0  0  0  0  0  0
  -18.0337  -26.0082   22.9020 H   0  0  0  0  0  0
  -19.7943  -30.7292   24.2248 H   0  0  0  0  0  0
  -17.5020  -31.6275   24.5162 H   0  0  0  0  0  0
  -15.5359  -30.2985   23.7676 H   0  0  0  0  0  0
  -15.8677  -28.0819   22.7090 H   0  0  0  0  0  0
  -24.5894  -30.7103   25.7770 H   0  0  0  0  0  0
  -24.8909  -32.2931   26.4842 H   0  0  0  0  0  0
  -25.8012  -30.8946   27.0244 H   0  0  0  0  0  0
  -26.2989  -29.6715   24.1282 H   0  0  0  0  0  0
  -27.3988  -29.7270   25.4851 H   0  0  0  0  0  0
  -27.8899  -30.4232   23.9605 H   0  0  0  0  0  0
  -27.2650  -33.3651   26.2061 H   0  0  0  0  0  0
  -28.3882  -32.6884   25.0359 H   0  0  0  0  0  0
  -28.0705  -31.8492   26.5463 H   0  0  0  0  0  0
  -28.2585  -38.0099   24.7523 H   0  0  0  0  0  0
  -28.1085  -36.2629   24.6274 H   0  0  0  0  0  0
  -27.2302  -37.1415   25.8869 H   0  0  0  0  0  0
  -20.9431  -29.8770   21.6828 H   0  0  0  0  0  0
  -26.0158  -38.2832   24.1422 H   0  0  0  0  0  0
  -29.7741  -20.3675   22.0395 H   0  0  0  0  0  0
  -28.5717  -19.9847   17.9132 H   0  0  0  0  0  0
  -31.7523  -17.1902   22.2379 H   0  0  0  0  0  0
  -30.5614  -17.7278   23.4904 H   0  0  0  0  0  0
  -29.2869  -15.5992   23.3042 H   0  0  0  0  0  0
  -30.9326  -14.9803   22.9875 H   0  0  0  0  0  0
  -28.7317  -17.4096   22.0144 H   0  0  0  0  0  0
  -26.9863  -24.5493   20.2266 H   0  0  0  0  0  0
  -27.9245  -24.7273   18.7623 H   0  0  0  0  0  0
  -28.0102  -22.3832   19.0031 H   0  0  0  0  0  0
  1 25  1  0  0  0
  1 30  2  0  0  0
  1 80  1  0  0  0
  2  3  1  0  0  0
  2 25  1  0  0  0
  2 84  1  0  0  0
  2 85  1  0  0  0
  3  4  1  0  0  0
  3 86  1  0  0  0
  3 87  1  0  0  0
  4  5  1  0  0  0
  4 88  1  0  0  0
  4 89  1  0  0  0
  5  6  1  0  0  0
  5 26  1  0  0  0
  5 90  1  0  0  0
  6 25  1  0  0  0
  6 91  1  0  0  0
  6 92  1  0  0  0
  7  8  2  0  0  0
  7 26  1  0  0  0
  7 29  1  0  0  0
  8  9  1  0  0  0
  8 22  1  0  0  0
  9 10  1  0  0  0
  9 27  2  0  0  0
 10 11  2  0  0  0
 10 15  1  0  0  0
 11 12  1  0  0  0
 11 93  1  0  0  0
 12 13  2  0  0  0
 12 94  1  0  0  0
 13 14  1  0  0  0
 13 31  1  0  0  0
 14 15  2  0  0  0
 14 95  1  0  0  0
 15 96  1  0  0  0
 16 17  2  0  0  0
 16 21  1  0  0  0
 16 31  1  0  0  0
 17 18  1  0  0  0
 17 97  1  0  0  0
 18 19  2  0  0  0
 18 98  1  0  0  0
 19 20  1  0  0  0
 19 24  1  0  0  0
 20 21  2  0  0  0
 20 99  1  0  0  0
 21 23  1  0  0  0
 22 28  1  0  0  0
 22 32  2  0  0  0
 26 27  1  0  0  0
 28100  1  0  0  0
 28101  1  0  0  0
 29102  1  0  0  0
 29103  1  0  0  0
 33 34  1  0  0  0
 33 66  1  0  0  0
 33 70  2  0  0  0
 34 36  1  0  0  0
 34 59  1  0  0  0
 34104  1  0  0  0
 35 44  2  0  0  0
 35 45  1  0  0  0
 35 68  1  0  0  0
 36 56  1  0  0  0
 36105  1  0  0  0
 37 39  1  0  0  0
 37 47  1  0  0  0
 37 66  1  0  0  0
 37106  1  0  0  0
 38 43  2  0  0  0
 38 46  1  0  0  0
 38 47  1  0  0  0
 39 64  1  0  0  0
 39 67  2  0  0  0
 40 52  1  0  0  0
 40 53  2  0  0  0
 40 58  1  0  0  0
 41107  1  0  0  0
 41108  1  0  0  0
 41109  1  0  0  0
 41 48  1  0  0  0
 42 43  1  0  0  0
 42 66  1  0  0  0
 42110  1  0  0  0
 42111  1  0  0  0
 43 44  1  0  0  0
 44112  1  0  0  0
 45 46  2  0  0  0
 45113  1  0  0  0
 46114  1  0  0  0
 47115  1  0  0  0
 47116  1  0  0  0
 48 56  1  0  0  0
 48 65  1  0  0  0
 48117  1  0  0  0
 49 50  1  0  0  0
 49 53  1  0  0  0
 49 64  1  0  0  0
 49118  1  0  0  0
 50 51  1  0  0  0
 50119  1  0  0  0
 50120  1  0  0  0
 51 52  1  0  0  0
 51121  1  0  0  0
 51122  1  0  0  0
 52123  1  0  0  0
 52124  1  0  0  0
 53 54  1  0  0  0
 54 55  2  0  0  0
 54125  1  0  0  0
 55 57  1  0  0  0
 55126  1  0  0  0
 56 69  2  0  0  0
 57 58  2  0  0  0
 57127  1  0  0  0
 58128  1  0  0  0
 59 60  1  0  0  0
 59 61  1  0  0  0
 59 62  1  0  0  0
 60129  1  0  0  0
 60130  1  0  0  0
 60131  1  0  0  0
 61132  1  0  0  0
 61133  1  0  0  0
 61134  1  0  0  0
 62135  1  0  0  0
 62136  1  0  0  0
 62137  1  0  0  0
 63 65  1  0  0  0
 63138  1  0  0  0
 63139  1  0  0  0
 63140  1  0  0  0
 64141  1  0  0  0
 65142  1  0  0  0
 68 79  1  0  0  0
 71 73  1  0  0  0
 71 74  2  0  0  0
 71143  1  0  0  0
 72 73  2  0  0  0
 72 83  1  0  0  0
 72144  1  0  0  0
 73 81  1  0  0  0
 74 83  1  0  0  0
 74 78  1  0  0  0
 75 79  1  0  0  0
 75 81  1  0  0  0
 75 82  2  0  0  0
 76 77  1  0  0  0
 76 78  1  0  0  0
 76145  1  0  0  0
 76146  1  0  0  0
 77 80  1  0  0  0
 77147  1  0  0  0
 77148  1  0  0  0
 78 80  1  0  0  0
 78149  1  0  0  0
 79150  1  0  0  0
 79151  1  0  0  0
 81152  1  0  0  0
M  ISO  4   1 100  68 101  79 101  80 100
M  END
> <chiral flag>
0

> <version>
0

> <s_m_source_file>
/data/baiqing/PycharmProjects/Reinvent-master-3.2/result/LINK_invent/BTK/process_docking_weight1_custom_product_contain_oxygen_bond_distance_aromatic_linkinvent_7_9_3/rearranged_h_0156.sdf

> <i_m_source_file_index>
75

> <r_mmod_Potential_Energy-OPLS-2005>
433.593383789062

> <r_mmod_Stretch_Energy-OPLS-2005>
164.771270751953

> <r_mmod_Bend_Energy-OPLS-2005>
335.83349609375

> <r_mmod_Torsional_Energy-OPLS-2005>
260.210052490234

> <r_mmod_Improper_Torsional_Energy-OPLS-2005>
12.5714597702026

> <r_mmod_Van_der_Waal_Energy-OPLS-2005>
127.620422363281

> <r_mmod_Electrostatic_Energy-OPLS-2005>
-339.035949707031

> <r_mmod_Solvation_Energy-OPLS-2005>
-243.166702270508

> <b_mmod_Minimization_Converged-OPLS-2005>
0

> <r_mmod_RMS_Derivative-OPLS-2005>
0.586183547973633

$$$$
75
                    3D
 Structure written by MMmdl.
151160  0  0  1  0            999 V2000
  -30.5878  -14.8096   20.4501 C   0  0  0  0  0  0
  -30.4370  -12.4929   19.4947 C   0  0  0  0  0  0
  -29.5188  -12.5216   18.2513 C   0  0  0  0  0  0
  -28.0457  -12.3342   18.6605 C   0  0  0  0  0  0
  -27.6425  -13.2390   19.8550 C   0  0  2  0  0  0
  -28.6842  -13.1927   20.9952 C   0  0  0  0  0  0
  -25.2506  -13.8209   20.5707 C   0  0  0  0  0  0
  -24.1801  -13.0444   20.9207 C   0  0  0  0  0  0
  -24.6402  -11.6924   20.8745 C   0  0  0  0  0  0
  -23.9079  -10.4296   21.0404 C   0  0  0  0  0  0
  -24.3627   -9.4211   21.9183 C   0  0  0  0  0  0
  -23.6300   -8.2247   22.0753 C   0  0  0  0  0  0
  -22.4280   -8.0285   21.3545 C   0  0  0  0  0  0
  -21.9919   -9.0259   20.4646 C   0  0  0  0  0  0
  -22.7250  -10.2137   20.3055 C   0  0  0  0  0  0
  -21.6855   -6.0739   22.5281 C   0  0  0  0  0  0
  -21.4015   -6.5642   23.8214 C   0  0  0  0  0  0
  -21.3660   -5.6794   24.9176 C   0  0  0  0  0  0
  -21.6045   -4.3057   24.7226 C   0  0  0  0  0  0
  -21.8819   -3.8149   23.4346 C   0  0  0  0  0  0
  -21.9193   -4.6966   22.3402 C   0  0  0  0  0  0
  -22.7819  -13.5219   21.1865 C   0  0  0  0  0  0
  -22.1660   -4.2152   21.0980 F   0  0  0  0  0  0
  -21.5630   -3.4541   25.7738 F   0  0  0  0  0  0
  -29.9840  -13.5641   20.4204 N   0  0  0  0  0  0
  -26.2943  -12.9430   20.3301 N   0  0  0  0  0  0
  -25.9339  -11.6564   20.5757 N   0  0  0  0  0  0
  -22.0469  -12.8208   22.0422 N   0  0  0  0  0  0
  -25.4194  -15.1935   20.4137 N   0  0  0  0  0  0
  -31.7644  -14.9028   20.0853 O   0  0  0  0  0  0
  -21.6643   -6.8883   21.4243 O   0  0  0  0  0  0
  -22.3501  -14.5523   20.6711 O   0  0  0  0  0  0
  -24.6366  -31.8518   23.1973 C   0  0  0  0  0  0
  -25.9173  -32.4735   23.8327 C   0  0  1  0  0  0
  -27.2104  -27.1994   20.1360 C   0  0  0  0  0  0
  -25.5953  -33.8540   24.2242 N   0  0  0  0  0  0
  -23.4364  -30.4756   21.5414 C   0  0  2  0  0  0
  -24.8850  -28.9211   20.1077 C   0  0  0  0  0  0
  -22.7534  -29.4584   22.4888 C   0  0  0  0  0  0
  -18.0299  -28.1390   22.8484 C   0  0  0  0  0  0
  -24.1493  -36.7271   23.2640 C   0  0  0  0  0  0
  -25.9891  -30.7408   21.3939 C   0  0  0  0  0  0
  -26.0574  -29.3586   20.7368 C   0  0  0  0  0  0
  -27.2181  -28.5069   20.7505 C   0  0  0  0  0  0
  -26.0268  -26.8771   19.4295 C   0  0  0  0  0  0
  -24.8786  -27.6898   19.4418 C   0  0  0  0  0  0
  -23.6591  -29.8145   20.1566 C   0  0  0  0  0  0
  -25.4122  -36.3057   24.0321 C   0  0  1  0  0  0
  -20.5907  -28.3711   23.1250 C   0  0  2  0  0  0
  -20.6785  -26.9421   22.5405 C   0  0  0  0  0  0
  -19.5757  -26.6382   21.5213 C   0  0  0  0  0  0
  -18.1938  -26.7930   22.1626 C   0  0  0  0  0  0
  -19.1554  -28.8868   23.2860 C   0  0  0  0  0  0
  -18.9473  -30.1467   23.8882 C   0  0  0  0  0  0
  -17.6470  -30.6590   24.0561 C   0  0  0  0  0  0
  -25.9066  -34.9428   23.5084 C   0  0  0  0  0  0
  -16.5361  -29.9084   23.6334 C   0  0  0  0  0  0
  -16.7285  -28.6501   23.0357 C   0  0  0  0  0  0
  -26.4516  -31.6577   25.0741 C   0  0  0  0  0  0
  -25.3717  -31.3752   26.1447 C   0  0  0  0  0  0
  -27.0373  -30.2978   24.6289 C   0  0  0  0  0  0
  -27.6060  -32.4331   25.7515 C   0  0  0  0  0  0
  -27.5578  -37.1795   24.8466 C   0  0  0  0  0  0
  -21.4234  -29.3049   22.3630 N   0  0  0  0  0  0
  -26.4292  -37.3762   23.9405 N   0  0  0  0  0  0
  -24.7063  -31.0426   22.0990 N   0  0  0  0  0  0
  -23.4207  -28.8120   23.3005 O   0  0  0  0  0  0
  -28.2648  -26.2325   20.2097 O   0  0  0  0  0  0
  -26.5641  -34.8910   22.4656 O   0  0  0  0  0  0
  -23.5500  -32.1376   23.7225 O   0  0  0  0  0  0
  -29.4153  -18.5100   20.9585 C   0  0  0  0  0  0
  -30.4445  -19.5213   19.1534 C   0  0  0  0  0  0
  -29.6998  -19.8002   20.2693 C   0  0  0  0  0  0
  -29.9547  -17.3138   20.4027 C   0  0  0  0  0  0
  -28.7700  -23.6598   20.3186 C   0  0  0  0  0  0
  -27.9835  -24.8091   20.1627 C   0  0  0  0  0  0
  -30.2266  -23.5518   20.6919 C   0  0  0  0  0  0
  -28.3447  -22.1467   20.1550 C   0  0  0  0  0  0
  -30.4793  -22.0666   21.1271 C   0  0  0  0  0  0
  -29.3759  -21.1881   20.6975 N   0  0  0  0  0  0
  -29.8301  -15.9451   20.7712 N   0  0  0  0  0  0
  -30.8269  -17.8107   18.9627 S   0  0  0  0  0  0
  -31.4779  -12.6202   19.1929 H   0  0  0  0  0  0
  -30.3900  -11.5202   19.9868 H   0  0  0  0  0  0
  -29.8130  -11.7440   17.5449 H   0  0  0  0  0  0
  -29.6371  -13.4722   17.7286 H   0  0  0  0  0  0
  -27.9112  -11.2861   18.9304 H   0  0  0  0  0  0
  -27.3893  -12.5154   17.8087 H   0  0  0  0  0  0
  -27.6316  -14.2580   19.4673 H   0  0  0  0  0  0
  -28.7308  -12.1976   21.4398 H   0  0  0  0  0  0
  -28.4048  -13.8731   21.8010 H   0  0  0  0  0  0
  -25.2772   -9.5686   22.4757 H   0  0  0  0  0  0
  -24.0010   -7.4638   22.7473 H   0  0  0  0  0  0
  -21.0850   -8.8781   19.8951 H   0  0  0  0  0  0
  -22.3711  -10.9677   19.6165 H   0  0  0  0  0  0
  -21.2009   -7.6150   23.9718 H   0  0  0  0  0  0
  -21.1482   -6.0524   25.9078 H   0  0  0  0  0  0
  -22.0596   -2.7611   23.2847 H   0  0  0  0  0  0
  -22.4095  -11.9875   22.4813 H   0  0  0  0  0  0
  -21.1085  -13.1225   22.2627 H   0  0  0  0  0  0
  -24.6508  -15.8464   20.5220 H   0  0  0  0  0  0
  -26.2669  -15.6336   20.0782 H   0  0  0  0  0  0
  -26.7237  -32.5362   23.1059 H   0  0  0  0  0  0
  -25.0091  -33.9673   25.0382 H   0  0  0  0  0  0
  -22.7355  -31.3001   21.3946 H   0  0  0  0  0  0
  -23.3757  -35.9600   23.3300 H   0  0  0  0  0  0
  -24.3578  -36.8900   22.2054 H   0  0  0  0  0  0
  -23.7245  -37.6470   23.6669 H   0  0  0  0  0  0
  -26.1417  -31.4975   20.6233 H   0  0  0  0  0  0
  -26.8616  -30.7873   22.0336 H   0  0  0  0  0  0
  -28.1067  -28.8292   21.2750 H   0  0  0  0  0  0
  -25.9480  -25.9660   18.8575 H   0  0  0  0  0  0
  -23.9915  -27.3609   18.9180 H   0  0  0  0  0  0
  -23.7896  -30.5935   19.4045 H   0  0  0  0  0  0
  -22.7756  -29.2534   19.8464 H   0  0  0  0  0  0
  -25.1307  -36.1899   25.0815 H   0  0  0  0  0  0
  -21.0002  -28.3296   24.1370 H   0  0  0  0  0  0
  -20.5684  -26.2324   23.3618 H   0  0  0  0  0  0
  -21.6651  -26.7435   22.1200 H   0  0  0  0  0  0
  -19.6918  -25.6290   21.1250 H   0  0  0  0  0  0
  -19.6690  -27.3186   20.6736 H   0  0  0  0  0  0
  -17.4208  -26.6679   21.4029 H   0  0  0  0  0  0
  -18.0336  -26.0073   22.9024 H   0  0  0  0  0  0
  -19.7948  -30.7287   24.2243 H   0  0  0  0  0  0
  -17.5023  -31.6267   24.5166 H   0  0  0  0  0  0
  -15.5361  -30.2981   23.7664 H   0  0  0  0  0  0
  -15.8686  -28.0813   22.7082 H   0  0  0  0  0  0
  -24.5900  -30.7092   25.7773 H   0  0  0  0  0  0
  -24.8900  -32.2929   26.4831 H   0  0  0  0  0  0
  -25.8015  -30.8957   27.0250 H   0  0  0  0  0  0
  -26.2981  -29.6712   24.1286 H   0  0  0  0  0  0
  -27.3986  -29.7263   25.4848 H   0  0  0  0  0  0
  -27.8891  -30.4222   23.9601 H   0  0  0  0  0  0
  -27.2663  -33.3646   26.2055 H   0  0  0  0  0  0
  -28.3887  -32.6867   25.0353 H   0  0  0  0  0  0
  -28.0708  -31.8481   26.5462 H   0  0  0  0  0  0
  -28.2597  -38.0091   24.7508 H   0  0  0  0  0  0
  -28.1074  -36.2621   24.6300 H   0  0  0  0  0  0
  -27.2293  -37.1454   25.8869 H   0  0  0  0  0  0
  -20.9428  -29.8775   21.6831 H   0  0  0  0  0  0
  -26.0165  -38.2835   24.1403 H   0  0  0  0  0  0
  -28.8289  -18.5123   21.8663 H   0  0  0  0  0  0
  -30.8337  -20.2250   18.4291 H   0  0  0  0  0  0
  -26.9467  -24.6137   19.9524 H   0  0  0  0  0  0
  -30.4956  -24.2658   21.4712 H   0  0  0  0  0  0
  -30.8218  -23.7849   19.8085 H   0  0  0  0  0  0
  -28.1962  -21.9403   19.0939 H   0  0  0  0  0  0
  -27.3855  -21.9835   20.6480 H   0  0  0  0  0  0
  -30.5447  -22.0136   22.2151 H   0  0  0  0  0  0
  -31.4381  -21.7141   20.7425 H   0  0  0  0  0  0
  -28.9684  -15.7185   21.2454 H   0  0  0  0  0  0
  1 25  1  0  0  0
  1 30  2  0  0  0
  1 81  1  0  0  0
  2  3  1  0  0  0
  2 25  1  0  0  0
  2 83  1  0  0  0
  2 84  1  0  0  0
  3  4  1  0  0  0
  3 85  1  0  0  0
  3 86  1  0  0  0
  4  5  1  0  0  0
  4 87  1  0  0  0
  4 88  1  0  0  0
  5  6  1  0  0  0
  5 26  1  0  0  0
  5 89  1  0  0  0
  6 25  1  0  0  0
  6 90  1  0  0  0
  6 91  1  0  0  0
  7  8  2  0  0  0
  7 26  1  0  0  0
  7 29  1  0  0  0
  8  9  1  0  0  0
  8 22  1  0  0  0
  9 10  1  0  0  0
  9 27  2  0  0  0
 10 11  2  0  0  0
 10 15  1  0  0  0
 11 12  1  0  0  0
 11 92  1  0  0  0
 12 13  2  0  0  0
 12 93  1  0  0  0
 13 14  1  0  0  0
 13 31  1  0  0  0
 14 15  2  0  0  0
 14 94  1  0  0  0
 15 95  1  0  0  0
 16 17  2  0  0  0
 16 21  1  0  0  0
 16 31  1  0  0  0
 17 18  1  0  0  0
 17 96  1  0  0  0
 18 19  2  0  0  0
 18 97  1  0  0  0
 19 20  1  0  0  0
 19 24  1  0  0  0
 20 21  2  0  0  0
 20 98  1  0  0  0
 21 23  1  0  0  0
 22 28  1  0  0  0
 22 32  2  0  0  0
 26 27  1  0  0  0
 28 99  1  0  0  0
 28100  1  0  0  0
 29101  1  0  0  0
 29102  1  0  0  0
 33 34  1  0  0  0
 33 66  1  0  0  0
 33 70  2  0  0  0
 34 36  1  0  0  0
 34 59  1  0  0  0
 34103  1  0  0  0
 35 44  2  0  0  0
 35 45  1  0  0  0
 35 68  1  0  0  0
 36 56  1  0  0  0
 36104  1  0  0  0
 37 39  1  0  0  0
 37 47  1  0  0  0
 37 66  1  0  0  0
 37105  1  0  0  0
 38 43  2  0  0  0
 38 46  1  0  0  0
 38 47  1  0  0  0
 39 64  1  0  0  0
 39 67  2  0  0  0
 40 52  1  0  0  0
 40 53  2  0  0  0
 40 58  1  0  0  0
 41106  1  0  0  0
 41107  1  0  0  0
 41108  1  0  0  0
 41 48  1  0  0  0
 42 43  1  0  0  0
 42 66  1  0  0  0
 42109  1  0  0  0
 42110  1  0  0  0
 43 44  1  0  0  0
 44111  1  0  0  0
 45 46  2  0  0  0
 45112  1  0  0  0
 46113  1  0  0  0
 47114  1  0  0  0
 47115  1  0  0  0
 48 56  1  0  0  0
 48 65  1  0  0  0
 48116  1  0  0  0
 49 50  1  0  0  0
 49 53  1  0  0  0
 49 64  1  0  0  0
 49117  1  0  0  0
 50 51  1  0  0  0
 50118  1  0  0  0
 50119  1  0  0  0
 51 52  1  0  0  0
 51120  1  0  0  0
 51121  1  0  0  0
 52122  1  0  0  0
 52123  1  0  0  0
 53 54  1  0  0  0
 54 55  2  0  0  0
 54124  1  0  0  0
 55 57  1  0  0  0
 55125  1  0  0  0
 56 69  2  0  0  0
 57 58  2  0  0  0
 57126  1  0  0  0
 58127  1  0  0  0
 59 60  1  0  0  0
 59 61  1  0  0  0
 59 62  1  0  0  0
 60128  1  0  0  0
 60129  1  0  0  0
 60130  1  0  0  0
 61131  1  0  0  0
 61132  1  0  0  0
 61133  1  0  0  0
 62134  1  0  0  0
 62135  1  0  0  0
 62136  1  0  0  0
 63 65  1  0  0  0
 63137  1  0  0  0
 63138  1  0  0  0
 63139  1  0  0  0
 64140  1  0  0  0
 65141  1  0  0  0
 68 76  1  0  0  0
 71 73  1  0  0  0
 71 74  2  0  0  0
 71142  1  0  0  0
 72 73  2  0  0  0
 72 82  1  0  0  0
 72143  1  0  0  0
 73 80  1  0  0  0
 74 81  1  0  0  0
 74 82  1  0  0  0
 75 76  2  0  0  0
 75 77  1  0  0  0
 75 78  1  0  0  0
 76144  1  0  0  0
 77 79  1  0  0  0
 77145  1  0  0  0
 77146  1  0  0  0
 78 80  1  0  0  0
 78147  1  0  0  0
 78148  1  0  0  0
 79 80  1  0  0  0
 79149  1  0  0  0
 79150  1  0  0  0
 81151  1  0  0  0
M  ISO  4   1 100  68 101  76 101  81 100
M  END
> <chiral flag>
0

> <version>
0

> <s_m_source_file>
/data/baiqing/PycharmProjects/Reinvent-master-3.2/result/LINK_invent/BTK/process_docking_weight1_custom_product_contain_oxygen_bond_distance_aromatic_linkinvent_7_9_3/rearranged_h_0156.sdf

> <i_m_source_file_index>
76

> <r_mmod_Potential_Energy-OPLS-2005>
261.416229248047

> <r_mmod_Stretch_Energy-OPLS-2005>
140.032333374023

> <r_mmod_Bend_Energy-OPLS-2005>
205.00390625

> <r_mmod_Torsional_Energy-OPLS-2005>
272.081848144531

> <r_mmod_Improper_Torsional_Energy-OPLS-2005>
6.49410200119019

> <r_mmod_Van_der_Waal_Energy-OPLS-2005>
119.202217102051

> <r_mmod_Electrostatic_Energy-OPLS-2005>
-374.257934570312

> <r_mmod_Solvation_Energy-OPLS-2005>
-231.269165039062

> <b_mmod_Minimization_Converged-OPLS-2005>
0

> <r_mmod_RMS_Derivative-OPLS-2005>
0.298797279596329

$$$$
76
                    3D
 Structure written by MMmdl.
153161  0  0  1  0            999 V2000
  -30.6203  -14.6324   20.4942 C   0  0  0  0  0  0
  -30.4386  -12.3849   19.4520 C   0  0  0  0  0  0
  -29.5064  -12.5040   18.2253 C   0  0  0  0  0  0
  -28.0295  -12.3423   18.6395 C   0  0  0  0  0  0
  -27.6542  -13.2152   19.8672 C   0  0  2  0  0  0
  -28.6999  -13.0639   20.9953 C   0  0  0  0  0  0
  -25.2562  -13.8172   20.5706 C   0  0  0  0  0  0
  -24.1812  -13.0427   20.9144 C   0  0  0  0  0  0
  -24.6388  -11.6905   20.8716 C   0  0  0  0  0  0
  -23.9057  -10.4288   21.0392 C   0  0  0  0  0  0
  -24.3614   -9.4209   21.9173 C   0  0  0  0  0  0
  -23.6293   -8.2243   22.0751 C   0  0  0  0  0  0
  -22.4274   -8.0276   21.3542 C   0  0  0  0  0  0
  -21.9906   -9.0250   20.4642 C   0  0  0  0  0  0
  -22.7232  -10.2127   20.3043 C   0  0  0  0  0  0
  -21.6850   -6.0734   22.5278 C   0  0  0  0  0  0
  -21.4012   -6.5640   23.8213 C   0  0  0  0  0  0
  -21.3658   -5.6792   24.9175 C   0  0  0  0  0  0
  -21.6044   -4.3054   24.7225 C   0  0  0  0  0  0
  -21.8820   -3.8146   23.4346 C   0  0  0  0  0  0
  -21.9197   -4.6962   22.3402 C   0  0  0  0  0  0
  -22.7840  -13.5222   21.1834 C   0  0  0  0  0  0
  -22.1661   -4.2148   21.0977 F   0  0  0  0  0  0
  -21.5633   -3.4533   25.7738 F   0  0  0  0  0  0
  -30.0168  -13.4041   20.4323 N   0  0  0  0  0  0
  -26.3001  -12.9353   20.3368 N   0  0  0  0  0  0
  -25.9324  -11.6504   20.5775 N   0  0  0  0  0  0
  -22.0503  -12.8211   22.0406 N   0  0  0  0  0  0
  -25.4269  -15.1900   20.4256 N   0  0  0  0  0  0
  -31.7804  -14.7991   20.1064 O   0  0  0  0  0  0
  -21.6637   -6.8874   21.4239 O   0  0  0  0  0  0
  -22.3514  -14.5532   20.6703 O   0  0  0  0  0  0
  -24.6247  -31.8599   23.2041 C   0  0  0  0  0  0
  -25.9101  -32.4783   23.8364 C   0  0  1  0  0  0
  -27.2241  -27.3341   20.1182 C   0  0  0  0  0  0
  -25.5922  -33.8585   24.2297 N   0  0  0  0  0  0
  -23.4182  -30.4839   21.5462 C   0  0  2  0  0  0
  -24.8655  -28.9406   20.1122 C   0  0  0  0  0  0
  -22.7470  -29.4621   22.4944 C   0  0  0  0  0  0
  -18.0282  -28.1381   22.8497 C   0  0  0  0  0  0
  -24.1479  -36.7274   23.2637 C   0  0  0  0  0  0
  -25.9583  -30.7961   21.3732 C   0  0  0  0  0  0
  -26.0337  -29.4243   20.7158 C   0  0  0  0  0  0
  -27.2191  -28.6326   20.7091 C   0  0  0  0  0  0
  -26.0395  -26.9039   19.4816 C   0  0  0  0  0  0
  -24.8689  -27.6852   19.4853 C   0  0  0  0  0  0
  -23.6315  -29.8172   20.1616 C   0  0  0  0  0  0
  -25.4104  -36.3082   24.0338 C   0  0  1  0  0  0
  -20.5882  -28.3675   23.1290 C   0  0  2  0  0  0
  -20.6768  -26.9400   22.5413 C   0  0  0  0  0  0
  -19.5741  -26.6380   21.5217 C   0  0  0  0  0  0
  -18.1922  -26.7930   22.1629 C   0  0  0  0  0  0
  -19.1536  -28.8847   23.2888 C   0  0  0  0  0  0
  -18.9462  -30.1452   23.8902 C   0  0  0  0  0  0
  -17.6464  -30.6586   24.0572 C   0  0  0  0  0  0
  -25.9045  -34.9456   23.5114 C   0  0  0  0  0  0
  -16.5351  -29.9089   23.6339 C   0  0  0  0  0  0
  -16.7271  -28.6504   23.0362 C   0  0  0  0  0  0
  -26.4495  -31.6590   25.0726 C   0  0  0  0  0  0
  -25.3745  -31.3729   26.1462 C   0  0  0  0  0  0
  -27.0325  -30.3018   24.6161 C   0  0  0  0  0  0
  -27.6064  -32.4313   25.7489 C   0  0  0  0  0  0
  -27.5581  -37.1774   24.8460 C   0  0  0  0  0  0
  -21.4184  -29.3032   22.3690 N   0  0  0  0  0  0
  -26.4275  -37.3786   23.9435 N   0  0  0  0  0  0
  -24.6858  -31.0627   22.0982 N   0  0  0  0  0  0
  -23.4206  -28.8155   23.3010 O   0  0  0  0  0  0
  -28.3308  -26.4796   20.1445 O   0  0  0  0  0  0
  -26.5608  -34.8925   22.4677 O   0  0  0  0  0  0
  -23.5413  -32.1380   23.7384 O   0  0  0  0  0  0
  -28.7267  -19.3155   20.9921 C   0  0  0  0  0  0
  -30.8789  -17.8248   19.9672 C   0  0  0  0  0  0
  -28.7958  -17.8991   21.1791 C   0  0  0  0  0  0
  -29.7364  -20.0249   20.2899 C   0  0  0  0  0  0
  -29.8702  -17.1173   20.6705 C   0  0  0  0  0  0
  -30.8098  -19.2375   19.7848 C   0  0  0  0  0  0
  -29.0232  -23.9634   20.1096 C   0  0  0  0  0  0
  -28.7723  -22.4670   20.5647 C   0  0  0  0  0  0
  -28.0607  -25.1022   20.6188 C   0  0  0  0  0  0
  -27.7770  -17.2488   21.8796 N   0  0  0  0  0  0
  -29.8108  -15.6694   20.8651 N   0  0  0  0  0  0
  -29.7369  -21.4424   20.0556 N   0  0  0  0  0  0
  -29.9715  -24.2227   19.3588 O   0  0  0  0  0  0
  -31.8005  -19.8559   19.0957 F   0  0  0  0  0  0
  -31.4800  -12.5086   19.1503 H   0  0  0  0  0  0
  -30.3720  -11.3884   19.8922 H   0  0  0  0  0  0
  -29.7698  -11.7537   17.4782 H   0  0  0  0  0  0
  -29.6476  -13.4742   17.7471 H   0  0  0  0  0  0
  -27.8687  -11.2897   18.8753 H   0  0  0  0  0  0
  -27.3726  -12.5670   17.7985 H   0  0  0  0  0  0
  -27.6728  -14.2513   19.5270 H   0  0  0  0  0  0
  -28.7087  -12.0418   21.3757 H   0  0  0  0  0  0
  -28.4473  -13.6940   21.8500 H   0  0  0  0  0  0
  -25.2761   -9.5690   22.4742 H   0  0  0  0  0  0
  -24.0005   -7.4637   22.7469 H   0  0  0  0  0  0
  -21.0835   -8.8760   19.8947 H   0  0  0  0  0  0
  -22.3687  -10.9660   19.6146 H   0  0  0  0  0  0
  -21.1994   -7.6148   23.9716 H   0  0  0  0  0  0
  -21.1479   -6.0519   25.9079 H   0  0  0  0  0  0
  -22.0599   -2.7609   23.2844 H   0  0  0  0  0  0
  -22.4127  -11.9862   22.4769 H   0  0  0  0  0  0
  -21.1129  -13.1234   22.2645 H   0  0  0  0  0  0
  -24.6715  -15.8415   20.6052 H   0  0  0  0  0  0
  -26.3235  -15.6557   20.3329 H   0  0  0  0  0  0
  -26.7172  -32.5459   23.1117 H   0  0  0  0  0  0
  -25.0106  -33.9740   25.0466 H   0  0  0  0  0  0
  -22.7112  -31.3037   21.4034 H   0  0  0  0  0  0
  -23.3767  -35.9576   23.3270 H   0  0  0  0  0  0
  -24.3584  -36.8920   22.2057 H   0  0  0  0  0  0
  -23.7190  -37.6454   23.6666 H   0  0  0  0  0  0
  -26.0893  -31.5609   20.6063 H   0  0  0  0  0  0
  -26.8396  -30.8433   22.0017 H   0  0  0  0  0  0
  -28.1159  -28.9998   21.1887 H   0  0  0  0  0  0
  -26.0065  -25.9497   18.9761 H   0  0  0  0  0  0
  -23.9761  -27.3127   19.0025 H   0  0  0  0  0  0
  -23.7467  -30.5924   19.4030 H   0  0  0  0  0  0
  -22.7533  -29.2417   19.8630 H   0  0  0  0  0  0
  -25.1281  -36.1922   25.0827 H   0  0  0  0  0  0
  -20.9976  -28.3232   24.1408 H   0  0  0  0  0  0
  -20.5659  -26.2283   23.3607 H   0  0  0  0  0  0
  -21.6631  -26.7418   22.1201 H   0  0  0  0  0  0
  -19.6896  -25.6294   21.1237 H   0  0  0  0  0  0
  -19.6685  -27.3203   20.6758 H   0  0  0  0  0  0
  -17.4192  -26.6690   21.4028 H   0  0  0  0  0  0
  -18.0316  -26.0076   22.9022 H   0  0  0  0  0  0
  -19.7940  -30.7269   24.2263 H   0  0  0  0  0  0
  -17.5022  -31.6271   24.5163 H   0  0  0  0  0  0
  -15.5354  -30.2990   23.7667 H   0  0  0  0  0  0
  -15.8670  -28.0827   22.7069 H   0  0  0  0  0  0
  -24.5910  -30.7086   25.7798 H   0  0  0  0  0  0
  -24.8951  -32.2900   26.4894 H   0  0  0  0  0  0
  -25.8084  -30.8903   27.0228 H   0  0  0  0  0  0
  -26.2884  -29.6769   24.1209 H   0  0  0  0  0  0
  -27.4060  -29.7267   25.4641 H   0  0  0  0  0  0
  -27.8740  -30.4315   23.9355 H   0  0  0  0  0  0
  -27.2699  -33.3635   26.2037 H   0  0  0  0  0  0
  -28.3889  -32.6831   25.0320 H   0  0  0  0  0  0
  -28.0709  -31.8448   26.5427 H   0  0  0  0  0  0
  -28.2557  -38.0114   24.7579 H   0  0  0  0  0  0
  -28.1120  -36.2652   24.6189 H   0  0  0  0  0  0
  -27.2320  -37.1298   25.8865 H   0  0  0  0  0  0
  -20.9349  -29.8772   21.6924 H   0  0  0  0  0  0
  -26.0151  -38.2845   24.1502 H   0  0  0  0  0  0
  -27.8851  -19.8612   21.3918 H   0  0  0  0  0  0
  -31.7172  -17.2966   19.5399 H   0  0  0  0  0  0
  -27.7626  -22.1913   20.2586 H   0  0  0  0  0  0
  -28.7812  -22.4462   21.6553 H   0  0  0  0  0  0
  -28.1196  -25.1146   21.7068 H   0  0  0  0  0  0
  -27.0462  -24.7832   20.3865 H   0  0  0  0  0  0
  -27.0876  -17.8487   22.3199 H   0  0  0  0  0  0
  -28.0769  -16.5294   22.5272 H   0  0  0  0  0  0
  -28.9129  -15.3698   21.2129 H   0  0  0  0  0  0
  -30.5206  -21.8179   19.5243 H   0  0  0  0  0  0
  1 25  1  0  0  0
  1 30  2  0  0  0
  1 81  1  0  0  0
  2  3  1  0  0  0
  2 25  1  0  0  0
  2 85  1  0  0  0
  2 86  1  0  0  0
  3  4  1  0  0  0
  3 87  1  0  0  0
  3 88  1  0  0  0
  4  5  1  0  0  0
  4 89  1  0  0  0
  4 90  1  0  0  0
  5  6  1  0  0  0
  5 26  1  0  0  0
  5 91  1  0  0  0
  6 25  1  0  0  0
  6 92  1  0  0  0
  6 93  1  0  0  0
  7  8  2  0  0  0
  7 26  1  0  0  0
  7 29  1  0  0  0
  8  9  1  0  0  0
  8 22  1  0  0  0
  9 10  1  0  0  0
  9 27  2  0  0  0
 10 11  2  0  0  0
 10 15  1  0  0  0
 11 12  1  0  0  0
 11 94  1  0  0  0
 12 13  2  0  0  0
 12 95  1  0  0  0
 13 14  1  0  0  0
 13 31  1  0  0  0
 14 15  2  0  0  0
 14 96  1  0  0  0
 15 97  1  0  0  0
 16 17  2  0  0  0
 16 21  1  0  0  0
 16 31  1  0  0  0
 17 18  1  0  0  0
 17 98  1  0  0  0
 18 19  2  0  0  0
 18 99  1  0  0  0
 19 20  1  0  0  0
 19 24  1  0  0  0
 20 21  2  0  0  0
 20100  1  0  0  0
 21 23  1  0  0  0
 22 28  1  0  0  0
 22 32  2  0  0  0
 26 27  1  0  0  0
 28101  1  0  0  0
 28102  1  0  0  0
 29103  1  0  0  0
 29104  1  0  0  0
 33 34  1  0  0  0
 33 66  1  0  0  0
 33 70  2  0  0  0
 34 36  1  0  0  0
 34 59  1  0  0  0
 34105  1  0  0  0
 35 44  2  0  0  0
 35 45  1  0  0  0
 35 68  1  0  0  0
 36 56  1  0  0  0
 36106  1  0  0  0
 37 39  1  0  0  0
 37 47  1  0  0  0
 37 66  1  0  0  0
 37107  1  0  0  0
 38 43  2  0  0  0
 38 46  1  0  0  0
 38 47  1  0  0  0
 39 64  1  0  0  0
 39 67  2  0  0  0
 40 52  1  0  0  0
 40 53  2  0  0  0
 40 58  1  0  0  0
 41108  1  0  0  0
 41109  1  0  0  0
 41110  1  0  0  0
 41 48  1  0  0  0
 42 43  1  0  0  0
 42 66  1  0  0  0
 42111  1  0  0  0
 42112  1  0  0  0
 43 44  1  0  0  0
 44113  1  0  0  0
 45 46  2  0  0  0
 45114  1  0  0  0
 46115  1  0  0  0
 47116  1  0  0  0
 47117  1  0  0  0
 48 56  1  0  0  0
 48 65  1  0  0  0
 48118  1  0  0  0
 49 50  1  0  0  0
 49 53  1  0  0  0
 49 64  1  0  0  0
 49119  1  0  0  0
 50 51  1  0  0  0
 50120  1  0  0  0
 50121  1  0  0  0
 51 52  1  0  0  0
 51122  1  0  0  0
 51123  1  0  0  0
 52124  1  0  0  0
 52125  1  0  0  0
 53 54  1  0  0  0
 54 55  2  0  0  0
 54126  1  0  0  0
 55 57  1  0  0  0
 55127  1  0  0  0
 56 69  2  0  0  0
 57 58  2  0  0  0
 57128  1  0  0  0
 58129  1  0  0  0
 59 60  1  0  0  0
 59 61  1  0  0  0
 59 62  1  0  0  0
 60130  1  0  0  0
 60131  1  0  0  0
 60132  1  0  0  0
 61133  1  0  0  0
 61134  1  0  0  0
 61135  1  0  0  0
 62136  1  0  0  0
 62137  1  0  0  0
 62138  1  0  0  0
 63 65  1  0  0  0
 63139  1  0  0  0
 63140  1  0  0  0
 63141  1  0  0  0
 64142  1  0  0  0
 65143  1  0  0  0
 68 79  1  0  0  0
 71 73  2  0  0  0
 71 74  1  0  0  0
 71144  1  0  0  0
 72 75  2  0  0  0
 72 76  1  0  0  0
 72145  1  0  0  0
 73 75  1  0  0  0
 73 80  1  0  0  0
 74 76  2  0  0  0
 74 82  1  0  0  0
 75 81  1  0  0  0
 76 84  1  0  0  0
 77 78  1  0  0  0
 77 79  1  0  0  0
 77 83  2  0  0  0
 78 82  1  0  0  0
 78146  1  0  0  0
 78147  1  0  0  0
 79148  1  0  0  0
 79149  1  0  0  0
 80150  1  0  0  0
 80151  1  0  0  0
 81152  1  0  0  0
 82153  1  0  0  0
M  ISO  4   1 100  68 101  79 101  81 100
M  END
> <chiral flag>
0

> <version>
0

> <s_m_source_file>
/data/baiqing/PycharmProjects/Reinvent-master-3.2/result/LINK_invent/BTK/process_docking_weight1_custom_product_contain_oxygen_bond_distance_aromatic_linkinvent_7_9_3/rearranged_h_0156.sdf

> <i_m_source_file_index>
77

> <r_mmod_Potential_Energy-OPLS-2005>
4.69331502914429

> <r_mmod_Stretch_Energy-OPLS-2005>
73.4748992919922

> <r_mmod_Bend_Energy-OPLS-2005>
143.483322143555

> <r_mmod_Torsional_Energy-OPLS-2005>
222.942092895508

> <r_mmod_Improper_Torsional_Energy-OPLS-2005>
8.90297031402588

> <r_mmod_Van_der_Waal_Energy-OPLS-2005>
144.878463745117

> <r_mmod_Electrostatic_Energy-OPLS-2005>
-393.823577880859

> <r_mmod_Solvation_Energy-OPLS-2005>
-240.305999755859

> <b_mmod_Minimization_Converged-OPLS-2005>
0

> <r_mmod_RMS_Derivative-OPLS-2005>
0.995653808116913

$$$$
77
                    3D
 Structure written by MMmdl.
153161  0  0  1  0            999 V2000
  -30.5905  -14.7898   20.4424 C   0  0  0  0  0  0
  -30.4333  -12.4774   19.4946 C   0  0  0  0  0  0
  -29.5183  -12.5116   18.2490 C   0  0  0  0  0  0
  -28.0441  -12.3295   18.6573 C   0  0  0  0  0  0
  -27.6409  -13.2353   19.8515 C   0  0  2  0  0  0
  -28.6808  -13.1908   20.9938 C   0  0  0  0  0  0
  -25.2506  -13.8201   20.5702 C   0  0  0  0  0  0
  -24.1802  -13.0444   20.9206 C   0  0  0  0  0  0
  -24.6390  -11.6919   20.8738 C   0  0  0  0  0  0
  -23.9065  -10.4298   21.0398 C   0  0  0  0  0  0
  -24.3618   -9.4213   21.9179 C   0  0  0  0  0  0
  -23.6296   -8.2245   22.0749 C   0  0  0  0  0  0
  -22.4276   -8.0283   21.3542 C   0  0  0  0  0  0
  -21.9909   -9.0257   20.4643 C   0  0  0  0  0  0
  -22.7233  -10.2138   20.3049 C   0  0  0  0  0  0
  -21.6856   -6.0736   22.5280 C   0  0  0  0  0  0
  -21.4017   -6.5641   23.8215 C   0  0  0  0  0  0
  -21.3660   -5.6789   24.9179 C   0  0  0  0  0  0
  -21.6042   -4.3053   24.7227 C   0  0  0  0  0  0
  -21.8819   -3.8144   23.4348 C   0  0  0  0  0  0
  -21.9196   -4.6962   22.3404 C   0  0  0  0  0  0
  -22.7823  -13.5225   21.1871 C   0  0  0  0  0  0
  -22.1664   -4.2148   21.0981 F   0  0  0  0  0  0
  -21.5626   -3.4535   25.7740 F   0  0  0  0  0  0
  -29.9814  -13.5502   20.4168 N   0  0  0  0  0  0
  -26.2929  -12.9413   20.3271 N   0  0  0  0  0  0
  -25.9324  -11.6552   20.5733 N   0  0  0  0  0  0
  -22.0465  -12.8222   22.0426 N   0  0  0  0  0  0
  -25.4198  -15.1931   20.4151 N   0  0  0  0  0  0
  -31.7709  -14.8819   20.0935 O   0  0  0  0  0  0
  -21.6641   -6.8878   21.4242 O   0  0  0  0  0  0
  -22.3512  -14.5535   20.6716 O   0  0  0  0  0  0
  -24.6357  -31.8519   23.1976 C   0  0  0  0  0  0
  -25.9163  -32.4729   23.8337 C   0  0  1  0  0  0
  -27.2075  -27.2130   20.1393 C   0  0  0  0  0  0
  -25.5940  -33.8534   24.2251 N   0  0  0  0  0  0
  -23.4349  -30.4769   21.5405 C   0  0  2  0  0  0
  -24.8818  -28.9241   20.1049 C   0  0  0  0  0  0
  -22.7529  -29.4589   22.4878 C   0  0  0  0  0  0
  -18.0301  -28.1388   22.8483 C   0  0  0  0  0  0
  -24.1495  -36.7282   23.2644 C   0  0  0  0  0  0
  -25.9856  -30.7493   21.3871 C   0  0  0  0  0  0
  -26.0551  -29.3696   20.7269 C   0  0  0  0  0  0
  -27.2190  -28.5261   20.7360 C   0  0  0  0  0  0
  -26.0183  -26.8668   19.4554 C   0  0  0  0  0  0
  -24.8723  -27.6835   19.4546 C   0  0  0  0  0  0
  -23.6561  -29.8167   20.1549 C   0  0  0  0  0  0
  -25.4123  -36.3057   24.0324 C   0  0  1  0  0  0
  -20.5908  -28.3707   23.1241 C   0  0  2  0  0  0
  -20.6787  -26.9420   22.5388 C   0  0  0  0  0  0
  -19.5752  -26.6381   21.5205 C   0  0  0  0  0  0
  -18.1944  -26.7924   22.1640 C   0  0  0  0  0  0
  -19.1556  -28.8866   23.2857 C   0  0  0  0  0  0
  -18.9473  -30.1466   23.8874 C   0  0  0  0  0  0
  -17.6469  -30.6587   24.0556 C   0  0  0  0  0  0
  -25.9057  -34.9422   23.5092 C   0  0  0  0  0  0
  -16.5361  -29.9081   23.6330 C   0  0  0  0  0  0
  -16.7286  -28.6500   23.0351 C   0  0  0  0  0  0
  -26.4511  -31.6567   25.0746 C   0  0  0  0  0  0
  -25.3735  -31.3735   26.1475 C   0  0  0  0  0  0
  -27.0360  -30.2971   24.6274 C   0  0  0  0  0  0
  -27.6060  -32.4313   25.7515 C   0  0  0  0  0  0
  -27.5563  -37.1821   24.8481 C   0  0  0  0  0  0
  -21.4230  -29.3050   22.3622 N   0  0  0  0  0  0
  -26.4306  -37.3747   23.9380 N   0  0  0  0  0  0
  -24.7047  -31.0450   22.0971 N   0  0  0  0  0  0
  -23.4210  -28.8123   23.2987 O   0  0  0  0  0  0
  -28.2606  -26.2551   20.2437 O   0  0  0  0  0  0
  -26.5631  -34.8896   22.4661 O   0  0  0  0  0  0
  -23.5494  -32.1356   23.7245 O   0  0  0  0  0  0
  -29.3393  -20.6570   21.9362 C   0  0  0  0  0  0
  -29.6759  -19.2488   21.9840 C   0  0  0  0  0  0
  -29.6559  -18.7326   20.7006 C   0  0  0  0  0  0
  -29.1256  -21.0097   20.6296 C   0  0  0  0  0  0
  -30.0520  -18.4443   23.1700 C   0  0  0  0  0  0
  -28.7993  -23.5809   20.6215 C   0  0  0  0  0  0
  -29.6495  -19.0060   24.5248 C   0  0  0  0  0  0
  -30.0440  -17.3402   20.0188 C   0  0  0  0  0  0
  -27.9703  -24.7886   19.9314 C   0  0  0  0  0  0
  -28.7047  -22.2692   20.1386 N   0  0  0  0  0  0
  -29.8110  -15.9347   20.6120 N   0  0  0  0  0  0
  -30.6581  -17.3729   23.1054 O   0  0  0  0  0  0
  -29.5086  -23.8464   21.5972 O   0  0  0  0  0  0
  -29.2901  -19.8298   19.8687 O   0  0  0  0  0  0
  -31.4757  -12.6003   19.1956 H   0  0  0  0  0  0
  -30.3794  -11.5051   19.9867 H   0  0  0  0  0  0
  -29.8105  -11.7321   17.5442 H   0  0  0  0  0  0
  -29.6414  -13.4615   17.7256 H   0  0  0  0  0  0
  -27.9067  -11.2820   18.9275 H   0  0  0  0  0  0
  -27.3890  -12.5111   17.8048 H   0  0  0  0  0  0
  -27.6298  -14.2527   19.4609 H   0  0  0  0  0  0
  -28.7219  -12.1999   21.4482 H   0  0  0  0  0  0
  -28.4058  -13.8824   21.7915 H   0  0  0  0  0  0
  -25.2760   -9.5702   22.4753 H   0  0  0  0  0  0
  -24.0014   -7.4636   22.7465 H   0  0  0  0  0  0
  -21.0837   -8.8772   19.8950 H   0  0  0  0  0  0
  -22.3682  -10.9679   19.6162 H   0  0  0  0  0  0
  -21.2012   -7.6148   23.9722 H   0  0  0  0  0  0
  -21.1479   -6.0517   25.9083 H   0  0  0  0  0  0
  -22.0597   -2.7605   23.2844 H   0  0  0  0  0  0
  -22.4078  -11.9890   22.4829 H   0  0  0  0  0  0
  -21.1086  -13.1260   22.2628 H   0  0  0  0  0  0
  -24.6505  -15.8441   20.5290 H   0  0  0  0  0  0
  -26.2655  -15.6357   20.0791 H   0  0  0  0  0  0
  -26.7233  -32.5363   23.1079 H   0  0  0  0  0  0
  -25.0073  -33.9660   25.0387 H   0  0  0  0  0  0
  -22.7339  -31.3015   21.3955 H   0  0  0  0  0  0
  -23.3716  -35.9665   23.3386 H   0  0  0  0  0  0
  -24.3565  -36.8818   22.2042 H   0  0  0  0  0  0
  -23.7311  -37.6537   23.6613 H   0  0  0  0  0  0
  -26.1344  -31.5090   20.6186 H   0  0  0  0  0  0
  -26.8595  -30.7956   22.0253 H   0  0  0  0  0  0
  -28.1088  -28.8556   21.2542 H   0  0  0  0  0  0
  -25.9299  -25.9319   18.9236 H   0  0  0  0  0  0
  -23.9805  -27.3450   18.9454 H   0  0  0  0  0  0
  -23.7858  -30.5965   19.4033 H   0  0  0  0  0  0
  -22.7725  -29.2561   19.8447 H   0  0  0  0  0  0
  -25.1315  -36.1919   25.0820 H   0  0  0  0  0  0
  -21.0009  -28.3288   24.1358 H   0  0  0  0  0  0
  -20.5699  -26.2314   23.3597 H   0  0  0  0  0  0
  -21.6648  -26.7442   22.1169 H   0  0  0  0  0  0
  -19.6910  -25.6290   21.1240 H   0  0  0  0  0  0
  -19.6673  -27.3182   20.6726 H   0  0  0  0  0  0
  -17.4197  -26.6637   21.4065 H   0  0  0  0  0  0
  -18.0375  -26.0081   22.9059 H   0  0  0  0  0  0
  -19.7948  -30.7288   24.2228 H   0  0  0  0  0  0
  -17.5023  -31.6264   24.5163 H   0  0  0  0  0  0
  -15.5359  -30.2974   23.7664 H   0  0  0  0  0  0
  -15.8690  -28.0813   22.7069 H   0  0  0  0  0  0
  -24.5825  -30.7200   25.7777 H   0  0  0  0  0  0
  -24.9048  -32.2926   26.5004 H   0  0  0  0  0  0
  -25.8039  -30.8786   27.0194 H   0  0  0  0  0  0
  -26.2954  -29.6709   24.1288 H   0  0  0  0  0  0
  -27.3991  -29.7250   25.4823 H   0  0  0  0  0  0
  -27.8863  -30.4212   23.9564 H   0  0  0  0  0  0
  -27.2661  -33.3600   26.2109 H   0  0  0  0  0  0
  -28.3867  -32.6896   25.0349 H   0  0  0  0  0  0
  -28.0746  -31.8441   26.5423 H   0  0  0  0  0  0
  -28.2649  -38.0046   24.7413 H   0  0  0  0  0  0
  -28.0990  -36.2570   24.6471 H   0  0  0  0  0  0
  -27.2258  -37.1668   25.8882 H   0  0  0  0  0  0
  -20.9419  -29.8778   21.6829 H   0  0  0  0  0  0
  -26.0185  -38.2842   24.1295 H   0  0  0  0  0  0
  -29.2708  -21.3307   22.7789 H   0  0  0  0  0  0
  -30.1214  -19.9744   24.6888 H   0  0  0  0  0  0
  -29.9543  -18.3287   25.3231 H   0  0  0  0  0  0
  -28.5673  -19.1290   24.5677 H   0  0  0  0  0  0
  -31.1019  -17.4018   19.7608 H   0  0  0  0  0  0
  -29.5405  -17.3138   19.0513 H   0  0  0  0  0  0
  -26.9467  -24.5662   20.2331 H   0  0  0  0  0  0
  -28.0117  -24.6534   18.8504 H   0  0  0  0  0  0
  -28.2055  -22.2126   19.2617 H   0  0  0  0  0  0
  -28.8744  -15.7637   20.9432 H   0  0  0  0  0  0
  1 25  1  0  0  0
  1 30  2  0  0  0
  1 81  1  0  0  0
  2  3  1  0  0  0
  2 25  1  0  0  0
  2 85  1  0  0  0
  2 86  1  0  0  0
  3  4  1  0  0  0
  3 87  1  0  0  0
  3 88  1  0  0  0
  4  5  1  0  0  0
  4 89  1  0  0  0
  4 90  1  0  0  0
  5  6  1  0  0  0
  5 26  1  0  0  0
  5 91  1  0  0  0
  6 25  1  0  0  0
  6 92  1  0  0  0
  6 93  1  0  0  0
  7  8  2  0  0  0
  7 26  1  0  0  0
  7 29  1  0  0  0
  8  9  1  0  0  0
  8 22  1  0  0  0
  9 10  1  0  0  0
  9 27  2  0  0  0
 10 11  2  0  0  0
 10 15  1  0  0  0
 11 12  1  0  0  0
 11 94  1  0  0  0
 12 13  2  0  0  0
 12 95  1  0  0  0
 13 14  1  0  0  0
 13 31  1  0  0  0
 14 15  2  0  0  0
 14 96  1  0  0  0
 15 97  1  0  0  0
 16 17  2  0  0  0
 16 21  1  0  0  0
 16 31  1  0  0  0
 17 18  1  0  0  0
 17 98  1  0  0  0
 18 19  2  0  0  0
 18 99  1  0  0  0
 19 20  1  0  0  0
 19 24  1  0  0  0
 20 21  2  0  0  0
 20100  1  0  0  0
 21 23  1  0  0  0
 22 28  1  0  0  0
 22 32  2  0  0  0
 26 27  1  0  0  0
 28101  1  0  0  0
 28102  1  0  0  0
 29103  1  0  0  0
 29104  1  0  0  0
 33 34  1  0  0  0
 33 66  1  0  0  0
 33 70  2  0  0  0
 34 36  1  0  0  0
 34 59  1  0  0  0
 34105  1  0  0  0
 35 44  2  0  0  0
 35 45  1  0  0  0
 35 68  1  0  0  0
 36 56  1  0  0  0
 36106  1  0  0  0
 37 39  1  0  0  0
 37 47  1  0  0  0
 37 66  1  0  0  0
 37107  1  0  0  0
 38 43  2  0  0  0
 38 46  1  0  0  0
 38 47  1  0  0  0
 39 64  1  0  0  0
 39 67  2  0  0  0
 40 52  1  0  0  0
 40 53  2  0  0  0
 40 58  1  0  0  0
 41108  1  0  0  0
 41109  1  0  0  0
 41110  1  0  0  0
 41 48  1  0  0  0
 42 43  1  0  0  0
 42 66  1  0  0  0
 42111  1  0  0  0
 42112  1  0  0  0
 43 44  1  0  0  0
 44113  1  0  0  0
 45 46  2  0  0  0
 45114  1  0  0  0
 46115  1  0  0  0
 47116  1  0  0  0
 47117  1  0  0  0
 48 56  1  0  0  0
 48 65  1  0  0  0
 48118  1  0  0  0
 49 50  1  0  0  0
 49 53  1  0  0  0
 49 64  1  0  0  0
 49119  1  0  0  0
 50 51  1  0  0  0
 50120  1  0  0  0
 50121  1  0  0  0
 51 52  1  0  0  0
 51122  1  0  0  0
 51123  1  0  0  0
 52124  1  0  0  0
 52125  1  0  0  0
 53 54  1  0  0  0
 54 55  2  0  0  0
 54126  1  0  0  0
 55 57  1  0  0  0
 55127  1  0  0  0
 56 69  2  0  0  0
 57 58  2  0  0  0
 57128  1  0  0  0
 58129  1  0  0  0
 59 60  1  0  0  0
 59 61  1  0  0  0
 59 62  1  0  0  0
 60130  1  0  0  0
 60131  1  0  0  0
 60132  1  0  0  0
 61133  1  0  0  0
 61134  1  0  0  0
 61135  1  0  0  0
 62136  1  0  0  0
 62137  1  0  0  0
 62138  1  0  0  0
 63 65  1  0  0  0
 63139  1  0  0  0
 63140  1  0  0  0
 63141  1  0  0  0
 64142  1  0  0  0
 65143  1  0  0  0
 68 79  1  0  0  0
 71 72  1  0  0  0
 71 74  2  0  0  0
 71144  1  0  0  0
 72 73  2  0  0  0
 72 75  1  0  0  0
 73 78  1  0  0  0
 73 84  1  0  0  0
 74 80  1  0  0  0
 74 84  1  0  0  0
 75 77  1  0  0  0
 75 82  2  0  0  0
 76 79  1  0  0  0
 76 80  1  0  0  0
 76 83  2  0  0  0
 77145  1  0  0  0
 77146  1  0  0  0
 77147  1  0  0  0
 78 81  1  0  0  0
 78148  1  0  0  0
 78149  1  0  0  0
 79150  1  0  0  0
 79151  1  0  0  0
 80152  1  0  0  0
 81153  1  0  0  0
M  ISO  4   1 100  68 101  79 101  81 100
M  END
> <chiral flag>
0

> <version>
0

> <s_m_source_file>
/data/baiqing/PycharmProjects/Reinvent-master-3.2/result/LINK_invent/BTK/process_docking_weight1_custom_product_contain_oxygen_bond_distance_aromatic_linkinvent_7_9_3/rearranged_h_0156.sdf

> <i_m_source_file_index>
78

> <r_mmod_Potential_Energy-OPLS-2005>
84.9629135131836

> <r_mmod_Stretch_Energy-OPLS-2005>
145.668106079102

> <r_mmod_Bend_Energy-OPLS-2005>
192.371505737305

> <r_mmod_Torsional_Energy-OPLS-2005>
244.61213684082

> <r_mmod_Improper_Torsional_Energy-OPLS-2005>
7.31381797790527

> <r_mmod_Van_der_Waal_Energy-OPLS-2005>
119.733787536621

> <r_mmod_Electrostatic_Energy-OPLS-2005>
-482.439849853516

> <r_mmod_Solvation_Energy-OPLS-2005>
-258.812133789062

> <b_mmod_Minimization_Converged-OPLS-2005>
0

> <r_mmod_RMS_Derivative-OPLS-2005>
1.17883121967316

$$$$
78
                    3D
 Structure written by MMmdl.
151159  0  0  1  0            999 V2000
  -30.6191  -14.7821   20.4335 C   0  0  0  0  0  0
  -30.4262  -12.4772   19.4835 C   0  0  0  0  0  0
  -29.5099  -12.5051   18.2411 C   0  0  0  0  0  0
  -28.0376  -12.3251   18.6556 C   0  0  0  0  0  0
  -27.6360  -13.2394   19.8442 C   0  0  2  0  0  0
  -28.6799  -13.2122   20.9816 C   0  0  0  0  0  0
  -25.2482  -13.8211   20.5700 C   0  0  0  0  0  0
  -24.1787  -13.0442   20.9210 C   0  0  0  0  0  0
  -24.6392  -11.6924   20.8747 C   0  0  0  0  0  0
  -23.9072  -10.4294   21.0405 C   0  0  0  0  0  0
  -24.3623   -9.4210   21.9183 C   0  0  0  0  0  0
  -23.6295   -8.2246   22.0755 C   0  0  0  0  0  0
  -22.4278   -8.0281   21.3545 C   0  0  0  0  0  0
  -21.9916   -9.0254   20.4647 C   0  0  0  0  0  0
  -22.7244  -10.2133   20.3055 C   0  0  0  0  0  0
  -21.6856   -6.0734   22.5276 C   0  0  0  0  0  0
  -21.4018   -6.5640   23.8209 C   0  0  0  0  0  0
  -21.3659   -5.6794   24.9171 C   0  0  0  0  0  0
  -21.6043   -4.3056   24.7223 C   0  0  0  0  0  0
  -21.8819   -3.8147   23.4345 C   0  0  0  0  0  0
  -21.9194   -4.6962   22.3401 C   0  0  0  0  0  0
  -22.7808  -13.5216   21.1868 C   0  0  0  0  0  0
  -22.1661   -4.2148   21.0979 F   0  0  0  0  0  0
  -21.5626   -3.4540   25.7737 F   0  0  0  0  0  0
  -29.9758  -13.5617   20.3904 N   0  0  0  0  0  0
  -26.2910  -12.9433   20.3265 N   0  0  0  0  0  0
  -25.9325  -11.6567   20.5752 N   0  0  0  0  0  0
  -22.0461  -12.8203   22.0427 N   0  0  0  0  0  0
  -25.4157  -15.1936   20.4116 N   0  0  0  0  0  0
  -31.8229  -14.8253   20.1669 O   0  0  0  0  0  0
  -21.6642   -6.8878   21.4238 O   0  0  0  0  0  0
  -22.3489  -14.5518   20.6710 O   0  0  0  0  0  0
  -24.6348  -31.8530   23.1971 C   0  0  0  0  0  0
  -25.9162  -32.4741   23.8323 C   0  0  1  0  0  0
  -27.2105  -27.2294   20.1400 C   0  0  0  0  0  0
  -25.5947  -33.8545   24.2241 N   0  0  0  0  0  0
  -23.4333  -30.4756   21.5409 C   0  0  2  0  0  0
  -24.8813  -28.9218   20.1089 C   0  0  0  0  0  0
  -22.7520  -29.4589   22.4897 C   0  0  0  0  0  0
  -18.0293  -28.1388   22.8477 C   0  0  0  0  0  0
  -24.1494  -36.7275   23.2641 C   0  0  0  0  0  0
  -25.9829  -30.7559   21.3836 C   0  0  0  0  0  0
  -26.0553  -29.3764   20.7247 C   0  0  0  0  0  0
  -27.2260  -28.5438   20.7281 C   0  0  0  0  0  0
  -26.0217  -26.8631   19.4724 C   0  0  0  0  0  0
  -24.8719  -27.6749   19.4681 C   0  0  0  0  0  0
  -23.6534  -29.8118   20.1569 C   0  0  0  0  0  0
  -25.4120  -36.3059   24.0324 C   0  0  1  0  0  0
  -20.5900  -28.3704   23.1255 C   0  0  2  0  0  0
  -20.6781  -26.9415   22.5405 C   0  0  0  0  0  0
  -19.5756  -26.6382   21.5208 C   0  0  0  0  0  0
  -18.1935  -26.7926   22.1619 C   0  0  0  0  0  0
  -19.1548  -28.8863   23.2856 C   0  0  0  0  0  0
  -18.9470  -30.1460   23.8880 C   0  0  0  0  0  0
  -17.6470  -30.6586   24.0558 C   0  0  0  0  0  0
  -25.9065  -34.9431   23.5086 C   0  0  0  0  0  0
  -16.5359  -29.9082   23.6335 C   0  0  0  0  0  0
  -16.7278  -28.6503   23.0350 C   0  0  0  0  0  0
  -26.4513  -31.6578   25.0726 C   0  0  0  0  0  0
  -25.3722  -31.3741   26.1437 C   0  0  0  0  0  0
  -27.0369  -30.2987   24.6245 C   0  0  0  0  0  0
  -27.6057  -32.4332   25.7504 C   0  0  0  0  0  0
  -27.5575  -37.1790   24.8465 C   0  0  0  0  0  0
  -21.4224  -29.3045   22.3641 N   0  0  0  0  0  0
  -26.4290  -37.3761   23.9407 N   0  0  0  0  0  0
  -24.7027  -31.0466   22.0965 N   0  0  0  0  0  0
  -23.4202  -28.8126   23.3008 O   0  0  0  0  0  0
  -28.2627  -26.2759   20.1891 O   0  0  0  0  0  0
  -26.5638  -34.8915   22.4656 O   0  0  0  0  0  0
  -23.5492  -32.1370   23.7243 O   0  0  0  0  0  0
  -29.7300  -20.0894   20.1141 C   0  0  0  0  0  0
  -27.9735  -19.9370   21.4403 C   0  0  0  0  0  0
  -28.6918  -20.8853   20.7520 C   0  0  0  0  0  0
  -29.5678  -18.7275   20.4517 C   0  0  0  0  0  0
  -28.7475  -23.5603   20.2952 C   0  0  0  0  0  0
  -30.6386  -17.3884   18.5904 C   0  0  0  0  0  0
  -27.8983  -24.8848   20.6848 C   0  0  0  0  0  0
  -30.3512  -17.3825   20.1050 C   0  0  2  0  0  0
  -28.3113  -22.3352   20.7924 N   0  0  0  0  0  0
  -29.8824  -15.9680   20.5104 N   0  0  0  0  0  0
  -29.7478  -23.6540   19.5787 O   0  0  0  0  0  0
  -28.4823  -18.6589   21.2796 O   0  0  0  0  0  0
  -31.4679  -12.5931   19.1798 H   0  0  0  0  0  0
  -30.3684  -11.5107   19.9867 H   0  0  0  0  0  0
  -29.7997  -11.7213   17.5399 H   0  0  0  0  0  0
  -29.6319  -13.4519   17.7125 H   0  0  0  0  0  0
  -27.9030  -11.2791   18.9338 H   0  0  0  0  0  0
  -27.3794  -12.4993   17.8037 H   0  0  0  0  0  0
  -27.6192  -14.2536   19.4444 H   0  0  0  0  0  0
  -28.7229  -12.2284   21.4517 H   0  0  0  0  0  0
  -28.4109  -13.9201   21.7673 H   0  0  0  0  0  0
  -25.2767   -9.5685   22.4760 H   0  0  0  0  0  0
  -24.0001   -7.4640   22.7480 H   0  0  0  0  0  0
  -21.0845   -8.8774   19.8956 H   0  0  0  0  0  0
  -22.3700  -10.9671   19.6165 H   0  0  0  0  0  0
  -21.2014   -7.6150   23.9711 H   0  0  0  0  0  0
  -21.1480   -6.0525   25.9074 H   0  0  0  0  0  0
  -22.0600   -2.7609   23.2846 H   0  0  0  0  0  0
  -22.4090  -11.9867   22.4809 H   0  0  0  0  0  0
  -21.1079  -13.1221   22.2637 H   0  0  0  0  0  0
  -24.6462  -15.8448   20.5230 H   0  0  0  0  0  0
  -26.2602  -15.6363   20.0732 H   0  0  0  0  0  0
  -26.7228  -32.5375   23.1062 H   0  0  0  0  0  0
  -25.0083  -33.9682   25.0379 H   0  0  0  0  0  0
  -22.7311  -31.2990   21.3940 H   0  0  0  0  0  0
  -23.3756  -35.9606   23.3304 H   0  0  0  0  0  0
  -24.3580  -36.8904   22.2055 H   0  0  0  0  0  0
  -23.7254  -37.6476   23.6672 H   0  0  0  0  0  0
  -26.1276  -31.5160   20.6144 H   0  0  0  0  0  0
  -26.8585  -30.8031   22.0198 H   0  0  0  0  0  0
  -28.1212  -28.8830   21.2301 H   0  0  0  0  0  0
  -25.9610  -25.9151   18.9577 H   0  0  0  0  0  0
  -23.9789  -27.3269   18.9675 H   0  0  0  0  0  0
  -23.7805  -30.5898   19.4030 H   0  0  0  0  0  0
  -22.7708  -29.2482   19.8490 H   0  0  0  0  0  0
  -25.1303  -36.1901   25.0816 H   0  0  0  0  0  0
  -20.9985  -28.3294   24.1379 H   0  0  0  0  0  0
  -20.5684  -26.2311   23.3614 H   0  0  0  0  0  0
  -21.6645  -26.7436   22.1195 H   0  0  0  0  0  0
  -19.6926  -25.6291   21.1242 H   0  0  0  0  0  0
  -19.6702  -27.3185   20.6733 H   0  0  0  0  0  0
  -17.4201  -26.6666   21.4024 H   0  0  0  0  0  0
  -18.0340  -26.0073   22.9023 H   0  0  0  0  0  0
  -19.7951  -30.7275   24.2239 H   0  0  0  0  0  0
  -17.5030  -31.6265   24.5161 H   0  0  0  0  0  0
  -15.5359  -30.2980   23.7674 H   0  0  0  0  0  0
  -15.8675  -28.0821   22.7074 H   0  0  0  0  0  0
  -24.5904  -30.7084   25.7762 H   0  0  0  0  0  0
  -24.8901  -32.2912   26.4829 H   0  0  0  0  0  0
  -25.8025  -30.8939   27.0234 H   0  0  0  0  0  0
  -26.2965  -29.6723   24.1256 H   0  0  0  0  0  0
  -27.4017  -29.7266   25.4786 H   0  0  0  0  0  0
  -27.8861  -30.4242   23.9524 H   0  0  0  0  0  0
  -27.2654  -33.3646   26.2042 H   0  0  0  0  0  0
  -28.3884  -32.6873   25.0343 H   0  0  0  0  0  0
  -28.0706  -31.8484   26.5451 H   0  0  0  0  0  0
  -28.2585  -38.0092   24.7499 H   0  0  0  0  0  0
  -28.1078  -36.2617   24.6305 H   0  0  0  0  0  0
  -27.2287  -37.1452   25.8867 H   0  0  0  0  0  0
  -20.9417  -29.8770   21.6843 H   0  0  0  0  0  0
  -26.0167  -38.2833   24.1408 H   0  0  0  0  0  0
  -30.5157  -20.4651   19.4736 H   0  0  0  0  0  0
  -27.1007  -19.9873   22.0774 H   0  0  0  0  0  0
  -31.1442  -18.3066   18.2908 H   0  0  0  0  0  0
  -29.7139  -17.3219   18.0165 H   0  0  0  0  0  0
  -31.2817  -16.5657   18.2795 H   0  0  0  0  0  0
  -27.9164  -24.9454   21.7734 H   0  0  0  0  0  0
  -26.8658  -24.6396   20.4437 H   0  0  0  0  0  0
  -31.3206  -17.4848   20.5960 H   0  0  0  0  0  0
  -27.4847  -22.4839   21.3562 H   0  0  0  0  0  0
  -28.9006  -15.8737   20.7203 H   0  0  0  0  0  0
  1 25  1  0  0  0
  1 30  2  0  0  0
  1 80  1  0  0  0
  2  3  1  0  0  0
  2 25  1  0  0  0
  2 83  1  0  0  0
  2 84  1  0  0  0
  3  4  1  0  0  0
  3 85  1  0  0  0
  3 86  1  0  0  0
  4  5  1  0  0  0
  4 87  1  0  0  0
  4 88  1  0  0  0
  5  6  1  0  0  0
  5 26  1  0  0  0
  5 89  1  0  0  0
  6 25  1  0  0  0
  6 90  1  0  0  0
  6 91  1  0  0  0
  7  8  2  0  0  0
  7 26  1  0  0  0
  7 29  1  0  0  0
  8  9  1  0  0  0
  8 22  1  0  0  0
  9 10  1  0  0  0
  9 27  2  0  0  0
 10 11  2  0  0  0
 10 15  1  0  0  0
 11 12  1  0  0  0
 11 92  1  0  0  0
 12 13  2  0  0  0
 12 93  1  0  0  0
 13 14  1  0  0  0
 13 31  1  0  0  0
 14 15  2  0  0  0
 14 94  1  0  0  0
 15 95  1  0  0  0
 16 17  2  0  0  0
 16 21  1  0  0  0
 16 31  1  0  0  0
 17 18  1  0  0  0
 17 96  1  0  0  0
 18 19  2  0  0  0
 18 97  1  0  0  0
 19 20  1  0  0  0
 19 24  1  0  0  0
 20 21  2  0  0  0
 20 98  1  0  0  0
 21 23  1  0  0  0
 22 28  1  0  0  0
 22 32  2  0  0  0
 26 27  1  0  0  0
 28 99  1  0  0  0
 28100  1  0  0  0
 29101  1  0  0  0
 29102  1  0  0  0
 33 34  1  0  0  0
 33 66  1  0  0  0
 33 70  2  0  0  0
 34 36  1  0  0  0
 34 59  1  0  0  0
 34103  1  0  0  0
 35 44  2  0  0  0
 35 45  1  0  0  0
 35 68  1  0  0  0
 36 56  1  0  0  0
 36104  1  0  0  0
 37 39  1  0  0  0
 37 47  1  0  0  0
 37 66  1  0  0  0
 37105  1  0  0  0
 38 43  2  0  0  0
 38 46  1  0  0  0
 38 47  1  0  0  0
 39 64  1  0  0  0
 39 67  2  0  0  0
 40 52  1  0  0  0
 40 53  2  0  0  0
 40 58  1  0  0  0
 41106  1  0  0  0
 41107  1  0  0  0
 41108  1  0  0  0
 41 48  1  0  0  0
 42 43  1  0  0  0
 42 66  1  0  0  0
 42109  1  0  0  0
 42110  1  0  0  0
 43 44  1  0  0  0
 44111  1  0  0  0
 45 46  2  0  0  0
 45112  1  0  0  0
 46113  1  0  0  0
 47114  1  0  0  0
 47115  1  0  0  0
 48 56  1  0  0  0
 48 65  1  0  0  0
 48116  1  0  0  0
 49 50  1  0  0  0
 49 53  1  0  0  0
 49 64  1  0  0  0
 49117  1  0  0  0
 50 51  1  0  0  0
 50118  1  0  0  0
 50119  1  0  0  0
 51 52  1  0  0  0
 51120  1  0  0  0
 51121  1  0  0  0
 52122  1  0  0  0
 52123  1  0  0  0
 53 54  1  0  0  0
 54 55  2  0  0  0
 54124  1  0  0  0
 55 57  1  0  0  0
 55125  1  0  0  0
 56 69  2  0  0  0
 57 58  2  0  0  0
 57126  1  0  0  0
 58127  1  0  0  0
 59 60  1  0  0  0
 59 61  1  0  0  0
 59 62  1  0  0  0
 60128  1  0  0  0
 60129  1  0  0  0
 60130  1  0  0  0
 61131  1  0  0  0
 61132  1  0  0  0
 61133  1  0  0  0
 62134  1  0  0  0
 62135  1  0  0  0
 62136  1  0  0  0
 63 65  1  0  0  0
 63137  1  0  0  0
 63138  1  0  0  0
 63139  1  0  0  0
 64140  1  0  0  0
 65141  1  0  0  0
 68 77  1  0  0  0
 71 73  1  0  0  0
 71 74  2  0  0  0
 71142  1  0  0  0
 72 73  2  0  0  0
 72 82  1  0  0  0
 72143  1  0  0  0
 73 79  1  0  0  0
 74 78  1  0  0  0
 74 82  1  0  0  0
 75 77  1  0  0  0
 75 79  1  0  0  0
 75 81  2  0  0  0
 76144  1  0  0  0
 76145  1  0  0  0
 76146  1  0  0  0
 76 78  1  0  0  0
 77147  1  0  0  0
 77148  1  0  0  0
 78 80  1  0  0  0
 78149  1  0  0  0
 79150  1  0  0  0
 80151  1  0  0  0
M  ISO  4   1 100  68 101  77 101  80 100
M  END
> <chiral flag>
0

> <version>
0

> <s_m_source_file>
/data/baiqing/PycharmProjects/Reinvent-master-3.2/result/LINK_invent/BTK/process_docking_weight1_custom_product_contain_oxygen_bond_distance_aromatic_linkinvent_7_9_3/rearranged_h_0156.sdf

> <i_m_source_file_index>
79

> <r_mmod_Potential_Energy-OPLS-2005>
158.272079467773

> <r_mmod_Stretch_Energy-OPLS-2005>
138.675033569336

> <r_mmod_Bend_Energy-OPLS-2005>
217.660125732422

> <r_mmod_Torsional_Energy-OPLS-2005>
229.374633789062

> <r_mmod_Improper_Torsional_Energy-OPLS-2005>
6.22260475158691

> <r_mmod_Van_der_Waal_Energy-OPLS-2005>
115.879211425781

> <r_mmod_Electrostatic_Energy-OPLS-2005>
-414.742309570312

> <r_mmod_Solvation_Energy-OPLS-2005>
-244.566329956055

> <b_mmod_Minimization_Converged-OPLS-2005>
0

> <r_mmod_RMS_Derivative-OPLS-2005>
0.533059060573578

$$$$
79
                    3D
 Structure written by MMmdl.
160169  0  0  1  0            999 V2000
  -30.6578  -14.5119   20.5710 C   0  0  0  0  0  0
  -30.4398  -12.3283   19.4266 C   0  0  0  0  0  0
  -29.5044  -12.5127   18.2114 C   0  0  0  0  0  0
  -28.0238  -12.3690   18.6199 C   0  0  0  0  0  0
  -27.6658  -13.2032   19.8787 C   0  0  2  0  0  0
  -28.7070  -12.9689   20.9971 C   0  0  0  0  0  0
  -25.2600  -13.8143   20.5660 C   0  0  0  0  0  0
  -24.1847  -13.0430   20.9161 C   0  0  0  0  0  0
  -24.6395  -11.6899   20.8726 C   0  0  0  0  0  0
  -23.9054  -10.4293   21.0401 C   0  0  0  0  0  0
  -24.3605   -9.4209   21.9181 C   0  0  0  0  0  0
  -23.6282   -8.2246   22.0754 C   0  0  0  0  0  0
  -22.4266   -8.0282   21.3546 C   0  0  0  0  0  0
  -21.9897   -9.0259   20.4653 C   0  0  0  0  0  0
  -22.7221  -10.2138   20.3057 C   0  0  0  0  0  0
  -21.6856   -6.0731   22.5277 C   0  0  0  0  0  0
  -21.4017   -6.5638   23.8209 C   0  0  0  0  0  0
  -21.3656   -5.6791   24.9171 C   0  0  0  0  0  0
  -21.6039   -4.3052   24.7223 C   0  0  0  0  0  0
  -21.8821   -3.8142   23.4346 C   0  0  0  0  0  0
  -21.9195   -4.6958   22.3401 C   0  0  0  0  0  0
  -22.7873  -13.5240   21.1832 C   0  0  0  0  0  0
  -22.1665   -4.2144   21.0979 F   0  0  0  0  0  0
  -21.5620   -3.4536   25.7736 F   0  0  0  0  0  0
  -30.0393  -13.3011   20.4567 N   0  0  0  0  0  0
  -26.3045  -12.9308   20.3368 N   0  0  0  0  0  0
  -25.9324  -11.6473   20.5762 N   0  0  0  0  0  0
  -22.0512  -12.8257   22.0405 N   0  0  0  0  0  0
  -25.4309  -15.1853   20.4050 N   0  0  0  0  0  0
  -31.7637  -14.7513   20.0750 O   0  0  0  0  0  0
  -21.6635   -6.8876   21.4240 O   0  0  0  0  0  0
  -22.3564  -14.5547   20.6676 O   0  0  0  0  0  0
  -24.6185  -31.8653   23.2082 C   0  0  0  0  0  0
  -25.9063  -32.4808   23.8386 C   0  0  1  0  0  0
  -27.2385  -27.4011   20.0811 C   0  0  0  0  0  0
  -25.5908  -33.8608   24.2316 N   0  0  0  0  0  0
  -23.4080  -30.4900   21.5494 C   0  0  2  0  0  0
  -24.8536  -28.9550   20.1113 C   0  0  0  0  0  0
  -22.7431  -29.4647   22.4969 C   0  0  0  0  0  0
  -18.0276  -28.1378   22.8491 C   0  0  0  0  0  0
  -24.1489  -36.7312   23.2639 C   0  0  0  0  0  0
  -25.9417  -30.8184   21.3684 C   0  0  0  0  0  0
  -26.0164  -29.4517   20.7112 C   0  0  0  0  0  0
  -27.2054  -28.6796   20.6988 C   0  0  0  0  0  0
  -26.0434  -26.9246   19.4897 C   0  0  0  0  0  0
  -24.8638  -27.6913   19.5011 C   0  0  0  0  0  0
  -23.6177  -29.8255   20.1631 C   0  0  0  0  0  0
  -25.4110  -36.3103   24.0336 C   0  0  1  0  0  0
  -20.5870  -28.3670   23.1306 C   0  0  2  0  0  0
  -20.6765  -26.9402   22.5417 C   0  0  0  0  0  0
  -19.5745  -26.6382   21.5214 C   0  0  0  0  0  0
  -18.1923  -26.7924   22.1624 C   0  0  0  0  0  0
  -19.1527  -28.8840   23.2896 C   0  0  0  0  0  0
  -18.9454  -30.1445   23.8909 C   0  0  0  0  0  0
  -17.6455  -30.6584   24.0564 C   0  0  0  0  0  0
  -25.9039  -34.9468   23.5124 C   0  0  0  0  0  0
  -16.5346  -29.9086   23.6323 C   0  0  0  0  0  0
  -16.7266  -28.6502   23.0348 C   0  0  0  0  0  0
  -26.4482  -31.6598   25.0727 C   0  0  0  0  0  0
  -25.3745  -31.3728   26.1479 C   0  0  0  0  0  0
  -27.0304  -30.3029   24.6132 C   0  0  0  0  0  0
  -27.6063  -32.4320   25.7475 C   0  0  0  0  0  0
  -27.5583  -37.1807   24.8466 C   0  0  0  0  0  0
  -21.4154  -29.3033   22.3708 N   0  0  0  0  0  0
  -26.4297  -37.3787   23.9408 N   0  0  0  0  0  0
  -24.6744  -31.0728   22.0998 N   0  0  0  0  0  0
  -23.4189  -28.8185   23.3020 O   0  0  0  0  0  0
  -28.4091  -26.6523   20.1332 O   0  0  0  0  0  0
  -26.5602  -34.8922   22.4685 O   0  0  0  0  0  0
  -23.5368  -32.1418   23.7457 O   0  0  0  0  0  0
  -30.5523  -17.7361   20.3532 C   0  0  0  0  0  0
  -28.5541  -18.9634   20.4260 C   0  0  0  0  0  0
  -29.8815  -18.9915   20.1002 C   0  0  0  0  0  0
  -29.7200  -16.7594   20.8737 C   0  0  0  0  0  0
  -30.5326  -20.1375   19.4137 C   0  0  0  0  0  0
  -30.2871  -23.7158   18.5418 C   0  0  0  0  0  0
  -28.7403  -23.2814   20.4361 C   0  0  0  0  0  0
  -31.1622  -22.5263   18.9945 C   0  0  0  0  0  0
  -29.6055  -22.0454   20.8437 C   0  0  0  0  0  0
  -29.5374  -24.3962   19.7065 C   0  0  0  0  0  0
  -28.6714  -25.5949   19.1783 C   0  0  0  0  0  0
  -30.3785  -21.4794   19.7053 N   0  0  0  0  0  0
  -29.9283  -15.4508   21.2127 N   0  0  0  0  0  0
  -31.3279  -19.7782   18.3921 N   0  3  0  0  0  0
  -30.4603  -24.8835   20.5388 F   0  0  0  0  0  0
  -28.1173  -17.4258   21.1164 S   0  0  0  0  0  0
  -31.4819  -12.4506   19.1252 H   0  0  0  0  0  0
  -30.3622  -11.3139   19.8209 H   0  0  0  0  0  0
  -29.7485  -11.7853   17.4360 H   0  0  0  0  0  0
  -29.6678  -13.4963   17.7685 H   0  0  0  0  0  0
  -27.8344  -11.3121   18.8116 H   0  0  0  0  0  0
  -27.3757  -12.6467   17.7875 H   0  0  0  0  0  0
  -27.7113  -14.2536   19.5895 H   0  0  0  0  0  0
  -28.6924  -11.9238   21.3104 H   0  0  0  0  0  0
  -28.4543  -13.5366   21.8933 H   0  0  0  0  0  0
  -25.2754   -9.5678   22.4750 H   0  0  0  0  0  0
  -23.9988   -7.4637   22.7472 H   0  0  0  0  0  0
  -21.0823   -8.8776   19.8971 H   0  0  0  0  0  0
  -22.3674  -10.9676   19.6165 H   0  0  0  0  0  0
  -21.2018   -7.6149   23.9712 H   0  0  0  0  0  0
  -21.1473   -6.0522   25.9073 H   0  0  0  0  0  0
  -22.0604   -2.7604   23.2849 H   0  0  0  0  0  0
  -22.4113  -11.9916   22.4803 H   0  0  0  0  0  0
  -21.1142  -13.1310   22.2624 H   0  0  0  0  0  0
  -24.6666  -15.8427   20.5165 H   0  0  0  0  0  0
  -26.2868  -15.6231   20.0900 H   0  0  0  0  0  0
  -26.7132  -32.5508   23.1144 H   0  0  0  0  0  0
  -25.0062  -33.9766   25.0464 H   0  0  0  0  0  0
  -22.6983  -31.3082   21.4109 H   0  0  0  0  0  0
  -23.3741  -35.9657   23.3316 H   0  0  0  0  0  0
  -24.3579  -36.8911   22.2050 H   0  0  0  0  0  0
  -23.7255  -37.6528   23.6643 H   0  0  0  0  0  0
  -26.0633  -31.5854   20.6022 H   0  0  0  0  0  0
  -26.8262  -30.8673   21.9917 H   0  0  0  0  0  0
  -28.1010  -29.0598   21.1704 H   0  0  0  0  0  0
  -25.9671  -25.9491   19.0385 H   0  0  0  0  0  0
  -23.9654  -27.2972   19.0458 H   0  0  0  0  0  0
  -23.7291  -30.6026   19.4062 H   0  0  0  0  0  0
  -22.7403  -29.2490   19.8642 H   0  0  0  0  0  0
  -25.1288  -36.1967   25.0829 H   0  0  0  0  0  0
  -20.9966  -28.3241   24.1426 H   0  0  0  0  0  0
  -20.5664  -26.2282   23.3609 H   0  0  0  0  0  0
  -21.6637  -26.7436   22.1215 H   0  0  0  0  0  0
  -19.6906  -25.6296   21.1234 H   0  0  0  0  0  0
  -19.6684  -27.3198   20.6749 H   0  0  0  0  0  0
  -17.4195  -26.6675   21.4025 H   0  0  0  0  0  0
  -18.0321  -26.0062   22.9017 H   0  0  0  0  0  0
  -19.7931  -30.7254   24.2290 H   0  0  0  0  0  0
  -17.5011  -31.6265   24.5163 H   0  0  0  0  0  0
  -15.5347  -30.2993   23.7638 H   0  0  0  0  0  0
  -15.8666  -28.0823   22.7058 H   0  0  0  0  0  0
  -24.5910  -30.7078   25.7829 H   0  0  0  0  0  0
  -24.8948  -32.2893   26.4924 H   0  0  0  0  0  0
  -25.8097  -30.8904   27.0239 H   0  0  0  0  0  0
  -26.2847  -29.6789   24.1190 H   0  0  0  0  0  0
  -27.4056  -29.7274   25.4605 H   0  0  0  0  0  0
  -27.8697  -30.4328   23.9295 H   0  0  0  0  0  0
  -27.2688  -33.3610   26.2085 H   0  0  0  0  0  0
  -28.3845  -32.6900   25.0279 H   0  0  0  0  0  0
  -28.0763  -31.8428   26.5360 H   0  0  0  0  0  0
  -28.2619  -38.0087   24.7492 H   0  0  0  0  0  0
  -28.1058  -36.2618   24.6311 H   0  0  0  0  0  0
  -27.2299  -37.1483   25.8870 H   0  0  0  0  0  0
  -20.9318  -29.8767   21.6937 H   0  0  0  0  0  0
  -26.0186  -38.2867   24.1400 H   0  0  0  0  0  0
  -31.5985  -17.5912   20.1236 H   0  0  0  0  0  0
  -27.7995  -19.7279   20.2914 H   0  0  0  0  0  0
  -29.5743  -23.3726   17.7904 H   0  0  0  0  0  0
  -30.9225  -24.4461   18.0392 H   0  0  0  0  0  0
  -28.2698  -23.7020   21.3253 H   0  0  0  0  0  0
  -27.9221  -22.9416   19.7997 H   0  0  0  0  0  0
  -31.9462  -22.8768   19.6665 H   0  0  0  0  0  0
  -31.6754  -22.1378   18.1184 H   0  0  0  0  0  0
  -28.9765  -21.2973   21.3157 H   0  0  0  0  0  0
  -30.3220  -22.3449   21.6089 H   0  0  0  0  0  0
  -27.7932  -25.1753   18.6987 H   0  0  0  0  0  0
  -29.2164  -26.0866   18.3718 H   0  0  0  0  0  0
  -29.1470  -15.0346   21.6966 H   0  0  0  0  0  0
  -31.3857  -18.8097   18.1179 H   0  0  0  0  0  0
  -31.8244  -20.4556   17.8360 H   0  0  0  0  0  0
  1 25  1  0  0  0
  1 30  2  0  0  0
  1 83  1  0  0  0
  2  3  1  0  0  0
  2 25  1  0  0  0
  2 87  1  0  0  0
  2 88  1  0  0  0
  3  4  1  0  0  0
  3 89  1  0  0  0
  3 90  1  0  0  0
  4  5  1  0  0  0
  4 91  1  0  0  0
  4 92  1  0  0  0
  5  6  1  0  0  0
  5 26  1  0  0  0
  5 93  1  0  0  0
  6 25  1  0  0  0
  6 94  1  0  0  0
  6 95  1  0  0  0
  7  8  2  0  0  0
  7 26  1  0  0  0
  7 29  1  0  0  0
  8  9  1  0  0  0
  8 22  1  0  0  0
  9 10  1  0  0  0
  9 27  2  0  0  0
 10 11  2  0  0  0
 10 15  1  0  0  0
 11 12  1  0  0  0
 11 96  1  0  0  0
 12 13  2  0  0  0
 12 97  1  0  0  0
 13 14  1  0  0  0
 13 31  1  0  0  0
 14 15  2  0  0  0
 14 98  1  0  0  0
 15 99  1  0  0  0
 16 17  2  0  0  0
 16 21  1  0  0  0
 16 31  1  0  0  0
 17 18  1  0  0  0
 17100  1  0  0  0
 18 19  2  0  0  0
 18101  1  0  0  0
 19 20  1  0  0  0
 19 24  1  0  0  0
 20 21  2  0  0  0
 20102  1  0  0  0
 21 23  1  0  0  0
 22 28  1  0  0  0
 22 32  2  0  0  0
 26 27  1  0  0  0
 28103  1  0  0  0
 28104  1  0  0  0
 29105  1  0  0  0
 29106  1  0  0  0
 33 34  1  0  0  0
 33 66  1  0  0  0
 33 70  2  0  0  0
 34 36  1  0  0  0
 34 59  1  0  0  0
 34107  1  0  0  0
 35 44  2  0  0  0
 35 45  1  0  0  0
 35 68  1  0  0  0
 36 56  1  0  0  0
 36108  1  0  0  0
 37 39  1  0  0  0
 37 47  1  0  0  0
 37 66  1  0  0  0
 37109  1  0  0  0
 38 43  2  0  0  0
 38 46  1  0  0  0
 38 47  1  0  0  0
 39 64  1  0  0  0
 39 67  2  0  0  0
 40 52  1  0  0  0
 40 53  2  0  0  0
 40 58  1  0  0  0
 41110  1  0  0  0
 41111  1  0  0  0
 41112  1  0  0  0
 41 48  1  0  0  0
 42 43  1  0  0  0
 42 66  1  0  0  0
 42113  1  0  0  0
 42114  1  0  0  0
 43 44  1  0  0  0
 44115  1  0  0  0
 45 46  2  0  0  0
 45116  1  0  0  0
 46117  1  0  0  0
 47118  1  0  0  0
 47119  1  0  0  0
 48 56  1  0  0  0
 48 65  1  0  0  0
 48120  1  0  0  0
 49 50  1  0  0  0
 49 53  1  0  0  0
 49 64  1  0  0  0
 49121  1  0  0  0
 50 51  1  0  0  0
 50122  1  0  0  0
 50123  1  0  0  0
 51 52  1  0  0  0
 51124  1  0  0  0
 51125  1  0  0  0
 52126  1  0  0  0
 52127  1  0  0  0
 53 54  1  0  0  0
 54 55  2  0  0  0
 54128  1  0  0  0
 55 57  1  0  0  0
 55129  1  0  0  0
 56 69  2  0  0  0
 57 58  2  0  0  0
 57130  1  0  0  0
 58131  1  0  0  0
 59 60  1  0  0  0
 59 61  1  0  0  0
 59 62  1  0  0  0
 60132  1  0  0  0
 60133  1  0  0  0
 60134  1  0  0  0
 61135  1  0  0  0
 61136  1  0  0  0
 61137  1  0  0  0
 62138  1  0  0  0
 62139  1  0  0  0
 62140  1  0  0  0
 63 65  1  0  0  0
 63141  1  0  0  0
 63142  1  0  0  0
 63143  1  0  0  0
 64144  1  0  0  0
 65145  1  0  0  0
 68 81  1  0  0  0
 71 73  1  0  0  0
 71 74  2  0  0  0
 71146  1  0  0  0
 72 73  2  0  0  0
 72 86  1  0  0  0
 72147  1  0  0  0
 73 75  1  0  0  0
 74 83  1  0  0  0
 74 86  1  0  0  0
 75 82  1  0  0  0
 75 84  2  0  0  0
 76 78  1  0  0  0
 76 80  1  0  0  0
 76148  1  0  0  0
 76149  1  0  0  0
 77 79  1  0  0  0
 77 80  1  0  0  0
 77150  1  0  0  0
 77151  1  0  0  0
 78 82  1  0  0  0
 78152  1  0  0  0
 78153  1  0  0  0
 79 82  1  0  0  0
 79154  1  0  0  0
 79155  1  0  0  0
 80 81  1  0  0  0
 80 85  1  0  0  0
 81156  1  0  0  0
 81157  1  0  0  0
 83158  1  0  0  0
 84159  1  0  0  0
 84160  1  0  0  0
M  CHG  1  84   1
M  ISO  4   1 100  68 101  81 101  83 100
M  END
> <chiral flag>
0

> <version>
0

> <s_m_source_file>
/data/baiqing/PycharmProjects/Reinvent-master-3.2/result/LINK_invent/BTK/process_docking_weight1_custom_product_contain_oxygen_bond_distance_aromatic_linkinvent_7_9_3/rearranged_h_0156.sdf

> <i_m_source_file_index>
80

> <r_mmod_Potential_Energy-OPLS-2005>
-137.898574829102

> <r_mmod_Stretch_Energy-OPLS-2005>
48.647029876709

> <r_mmod_Bend_Energy-OPLS-2005>
137.347396850586

> <r_mmod_Torsional_Energy-OPLS-2005>
260.749206542969

> <r_mmod_Improper_Torsional_Energy-OPLS-2005>
5.59037637710571

> <r_mmod_Van_der_Waal_Energy-OPLS-2005>
142.299224853516

> <r_mmod_Electrostatic_Energy-OPLS-2005>
-297.617645263672

> <r_mmod_Solvation_Energy-OPLS-2005>
-453.234680175781

> <b_mmod_Minimization_Converged-OPLS-2005>
0

> <r_mmod_RMS_Derivative-OPLS-2005>
0.764033436775208

$$$$
80
                    3D
 Structure written by MMmdl.
160169  0  0  1  0            999 V2000
  -30.7383  -14.5529   20.5714 C   0  0  0  0  0  0
  -30.4132  -12.3647   19.4452 C   0  0  0  0  0  0
  -29.4875  -12.4821   18.2154 C   0  0  0  0  0  0
  -28.0170  -12.2934   18.6308 C   0  0  0  0  0  0
  -27.6455  -13.1726   19.8459 C   0  0  2  0  0  0
  -28.6936  -13.0297   20.9842 C   0  0  0  0  0  0
  -25.2564  -13.8051   20.5624 C   0  0  0  0  0  0
  -24.1805  -13.0387   20.9170 C   0  0  0  0  0  0
  -24.6313  -11.6845   20.8732 C   0  0  0  0  0  0
  -23.8984  -10.4257   21.0408 C   0  0  0  0  0  0
  -24.3571   -9.4176   21.9171 C   0  0  0  0  0  0
  -23.6253   -8.2211   22.0731 C   0  0  0  0  0  0
  -22.4226   -8.0251   21.3528 C   0  0  0  0  0  0
  -21.9840   -9.0224   20.4640 C   0  0  0  0  0  0
  -22.7152  -10.2111   20.3060 C   0  0  0  0  0  0
  -21.6822   -6.0711   22.5262 C   0  0  0  0  0  0
  -21.3987   -6.5624   23.8184 C   0  0  0  0  0  0
  -21.3664   -5.6779   24.9147 C   0  0  0  0  0  0
  -21.6054   -4.3043   24.7204 C   0  0  0  0  0  0
  -21.8804   -3.8133   23.4330 C   0  0  0  0  0  0
  -21.9175   -4.6946   22.3380 C   0  0  0  0  0  0
  -22.7846  -13.5229   21.1866 C   0  0  0  0  0  0
  -22.1639   -4.2135   21.0961 F   0  0  0  0  0  0
  -21.5674   -3.4535   25.7723 F   0  0  0  0  0  0
  -30.0066  -13.3943   20.4332 N   0  0  0  0  0  0
  -26.2929  -12.9148   20.3229 N   0  0  0  0  0  0
  -25.9217  -11.6360   20.5740 N   0  0  0  0  0  0
  -22.0483  -12.8238   22.0441 N   0  0  0  0  0  0
  -25.4285  -15.1771   20.4028 N   0  0  0  0  0  0
  -31.8768  -14.5946   20.0899 O   0  0  0  0  0  0
  -21.6604   -6.8845   21.4213 O   0  0  0  0  0  0
  -22.3542  -14.5541   20.6706 O   0  0  0  0  0  0
  -24.6185  -31.8665   23.2106 C   0  0  0  0  0  0
  -25.9075  -32.4811   23.8390 C   0  0  1  0  0  0
  -27.2357  -27.4119   20.0838 C   0  0  0  0  0  0
  -25.5940  -33.8609   24.2328 N   0  0  0  0  0  0
  -23.4059  -30.4922   21.5512 C   0  0  2  0  0  0
  -24.8485  -28.9570   20.1153 C   0  0  0  0  0  0
  -22.7416  -29.4670   22.4979 C   0  0  0  0  0  0
  -18.0277  -28.1378   22.8508 C   0  0  0  0  0  0
  -24.1483  -36.7296   23.2635 C   0  0  0  0  0  0
  -25.9370  -30.8231   21.3686 C   0  0  0  0  0  0
  -26.0110  -29.4571   20.7121 C   0  0  0  0  0  0
  -27.2014  -28.6901   20.6965 C   0  0  0  0  0  0
  -26.0396  -26.9235   19.5039 C   0  0  0  0  0  0
  -24.8592  -27.6883   19.5135 C   0  0  0  0  0  0
  -23.6152  -29.8299   20.1642 C   0  0  0  0  0  0
  -25.4104  -36.3093   24.0330 C   0  0  1  0  0  0
  -20.5869  -28.3674   23.1308 C   0  0  2  0  0  0
  -20.6769  -26.9406   22.5423 C   0  0  0  0  0  0
  -19.5747  -26.6396   21.5214 C   0  0  0  0  0  0
  -18.1924  -26.7936   22.1625 C   0  0  0  0  0  0
  -19.1525  -28.8843   23.2913 C   0  0  0  0  0  0
  -18.9452  -30.1446   23.8919 C   0  0  0  0  0  0
  -17.6454  -30.6594   24.0567 C   0  0  0  0  0  0
  -25.9040  -34.9466   23.5118 C   0  0  0  0  0  0
  -16.5348  -29.9094   23.6326 C   0  0  0  0  0  0
  -16.7263  -28.6508   23.0360 C   0  0  0  0  0  0
  -26.4494  -31.6593   25.0723 C   0  0  0  0  0  0
  -25.3757  -31.3717   26.1474 C   0  0  0  0  0  0
  -27.0320  -30.3029   24.6112 C   0  0  0  0  0  0
  -27.6063  -32.4315   25.7492 C   0  0  0  0  0  0
  -27.5570  -37.1802   24.8467 C   0  0  0  0  0  0
  -21.4147  -29.3045   22.3712 N   0  0  0  0  0  0
  -26.4285  -37.3778   23.9413 N   0  0  0  0  0  0
  -24.6718  -31.0756   22.1017 N   0  0  0  0  0  0
  -23.4186  -28.8211   23.3022 O   0  0  0  0  0  0
  -28.4195  -26.6881   20.1231 O   0  0  0  0  0  0
  -26.5583  -34.8929   22.4667 O   0  0  0  0  0  0
  -23.5379  -32.1437   23.7496 O   0  0  0  0  0  0
  -28.8737  -19.9350   21.9627 C   0  0  0  0  0  0
  -27.9184  -20.6199   22.6909 C   0  0  0  0  0  0
  -28.4726  -22.2864   21.2322 C   0  0  0  0  0  0
  -29.1750  -24.3239   19.9850 C   0  0  0  0  0  0
  -28.4954  -17.5495   21.1503 C   0  0  0  0  0  0
  -30.7455  -18.0986   22.1241 C   0  0  0  0  0  0
  -28.8378  -16.0724   21.4326 C   0  0  0  0  0  0
  -31.1643  -16.8844   21.2340 C   0  0  0  0  0  0
  -29.2446  -18.4652   22.1132 C   0  0  0  0  0  0
  -27.0732  -20.1111   23.8209 C   0  0  0  0  0  0
  -28.6506  -25.5729   19.2349 C   0  0  0  0  0  0
  -27.6917  -21.9323   22.2527 N   0  0  0  0  0  0
  -30.2438  -15.7095   21.1544 N   0  0  0  0  0  0
  -28.2769  -23.5621   20.6327 N   0  0  0  0  0  0
  -30.3825  -24.0677   19.9723 O   0  0  0  0  0  0
  -29.5576  -20.9826   20.7172 S   0  0  0  0  0  0
  -31.4549  -12.4495   19.1312 H   0  0  0  0  0  0
  -30.3365  -11.3675   19.8847 H   0  0  0  0  0  0
  -29.7580  -11.7382   17.4655 H   0  0  0  0  0  0
  -29.6185  -13.4581   17.7458 H   0  0  0  0  0  0
  -27.8712  -11.2405   18.8753 H   0  0  0  0  0  0
  -27.3545  -12.5019   17.7899 H   0  0  0  0  0  0
  -27.6501  -14.1741   19.4260 H   0  0  0  0  0  0
  -28.7182  -11.9968   21.3348 H   0  0  0  0  0  0
  -28.4298  -13.6012   21.8708 H   0  0  0  0  0  0
  -25.2727   -9.5664   22.4711 H   0  0  0  0  0  0
  -23.9968   -7.4598   22.7439 H   0  0  0  0  0  0
  -21.0750   -8.8746   19.8975 H   0  0  0  0  0  0
  -22.3588  -10.9645   19.6174 H   0  0  0  0  0  0
  -21.1952   -7.6130   23.9672 H   0  0  0  0  0  0
  -21.1538   -6.0526   25.9050 H   0  0  0  0  0  0
  -22.0594   -2.7602   23.2818 H   0  0  0  0  0  0
  -22.4070  -11.9869   22.4798 H   0  0  0  0  0  0
  -21.1121  -13.1306   22.2671 H   0  0  0  0  0  0
  -24.6590  -15.8258   20.5235 H   0  0  0  0  0  0
  -26.2787  -15.6220   20.0848 H   0  0  0  0  0  0
  -26.7133  -32.5512   23.1144 H   0  0  0  0  0  0
  -25.0123  -33.9762   25.0495 H   0  0  0  0  0  0
  -22.6959  -31.3098   21.4133 H   0  0  0  0  0  0
  -23.3740  -35.9634   23.3316 H   0  0  0  0  0  0
  -24.3575  -36.8902   22.2048 H   0  0  0  0  0  0
  -23.7246  -37.6508   23.6639 H   0  0  0  0  0  0
  -26.0535  -31.5908   20.6026 H   0  0  0  0  0  0
  -26.8230  -30.8735   21.9892 H   0  0  0  0  0  0
  -28.1003  -29.0752   21.1580 H   0  0  0  0  0  0
  -25.9640  -25.9444   19.0596 H   0  0  0  0  0  0
  -23.9591  -27.2878   19.0670 H   0  0  0  0  0  0
  -23.7348  -30.6074   19.4087 H   0  0  0  0  0  0
  -22.7362  -29.2588   19.8598 H   0  0  0  0  0  0
  -25.1282  -36.1946   25.0818 H   0  0  0  0  0  0
  -20.9963  -28.3245   24.1428 H   0  0  0  0  0  0
  -20.5671  -26.2278   23.3612 H   0  0  0  0  0  0
  -21.6634  -26.7467   22.1199 H   0  0  0  0  0  0
  -19.6910  -25.6311   21.1236 H   0  0  0  0  0  0
  -19.6675  -27.3208   20.6742 H   0  0  0  0  0  0
  -17.4196  -26.6699   21.4026 H   0  0  0  0  0  0
  -18.0319  -26.0059   22.8995 H   0  0  0  0  0  0
  -19.7920  -30.7256   24.2308 H   0  0  0  0  0  0
  -17.5007  -31.6274   24.5157 H   0  0  0  0  0  0
  -15.5345  -30.3005   23.7634 H   0  0  0  0  0  0
  -15.8666  -28.0828   22.7073 H   0  0  0  0  0  0
  -24.5918  -30.7079   25.7816 H   0  0  0  0  0  0
  -24.8969  -32.2885   26.4923 H   0  0  0  0  0  0
  -25.8120  -30.8885   27.0229 H   0  0  0  0  0  0
  -26.2872  -29.6801   24.1151 H   0  0  0  0  0  0
  -27.4061  -29.7262   25.4579 H   0  0  0  0  0  0
  -27.8719  -30.4331   23.9284 H   0  0  0  0  0  0
  -27.2665  -33.3596   26.2107 H   0  0  0  0  0  0
  -28.3858  -32.6923   25.0317 H   0  0  0  0  0  0
  -28.0744  -31.8422   26.5388 H   0  0  0  0  0  0
  -28.2596  -38.0087   24.7494 H   0  0  0  0  0  0
  -28.1061  -36.2625   24.6316 H   0  0  0  0  0  0
  -27.2293  -37.1478   25.8872 H   0  0  0  0  0  0
  -20.9317  -29.8755   21.6913 H   0  0  0  0  0  0
  -26.0176  -38.2854   24.1422 H   0  0  0  0  0  0
  -27.4221  -17.6994   21.2740 H   0  0  0  0  0  0
  -28.7267  -17.8051   20.1156 H   0  0  0  0  0  0
  -31.3464  -18.9586   21.8274 H   0  0  0  0  0  0
  -31.0421  -17.8963   23.1545 H   0  0  0  0  0  0
  -28.1556  -15.5264   20.8121 H   0  0  0  0  0  0
  -28.6002  -15.8176   22.4666 H   0  0  0  0  0  0
  -31.2997  -17.2468   20.2135 H   0  0  0  0  0  0
  -32.1537  -16.5670   21.5683 H   0  0  0  0  0  0
  -28.8978  -18.1609   23.0999 H   0  0  0  0  0  0
  -26.1433  -19.6819   23.4485 H   0  0  0  0  0  0
  -26.8048  -20.9132   24.5090 H   0  0  0  0  0  0
  -27.5806  -19.3496   24.4114 H   0  0  0  0  0  0
  -27.8174  -25.2769   18.6047 H   0  0  0  0  0  0
  -29.4226  -25.8873   18.5321 H   0  0  0  0  0  0
  -27.3432  -23.9379   20.6963 H   0  0  0  0  0  0
  1 25  1  0  0  0
  1 30  2  0  0  0
  1 83  1  0  0  0
  2  3  1  0  0  0
  2 25  1  0  0  0
  2 87  1  0  0  0
  2 88  1  0  0  0
  3  4  1  0  0  0
  3 89  1  0  0  0
  3 90  1  0  0  0
  4  5  1  0  0  0
  4 91  1  0  0  0
  4 92  1  0  0  0
  5  6  1  0  0  0
  5 26  1  0  0  0
  5 93  1  0  0  0
  6 25  1  0  0  0
  6 94  1  0  0  0
  6 95  1  0  0  0
  7  8  2  0  0  0
  7 26  1  0  0  0
  7 29  1  0  0  0
  8  9  1  0  0  0
  8 22  1  0  0  0
  9 10  1  0  0  0
  9 27  2  0  0  0
 10 11  2  0  0  0
 10 15  1  0  0  0
 11 12  1  0  0  0
 11 96  1  0  0  0
 12 13  2  0  0  0
 12 97  1  0  0  0
 13 14  1  0  0  0
 13 31  1  0  0  0
 14 15  2  0  0  0
 14 98  1  0  0  0
 15 99  1  0  0  0
 16 17  2  0  0  0
 16 21  1  0  0  0
 16 31  1  0  0  0
 17 18  1  0  0  0
 17100  1  0  0  0
 18 19  2  0  0  0
 18101  1  0  0  0
 19 20  1  0  0  0
 19 24  1  0  0  0
 20 21  2  0  0  0
 20102  1  0  0  0
 21 23  1  0  0  0
 22 28  1  0  0  0
 22 32  2  0  0  0
 26 27  1  0  0  0
 28103  1  0  0  0
 28104  1  0  0  0
 29105  1  0  0  0
 29106  1  0  0  0
 33 34  1  0  0  0
 33 66  1  0  0  0
 33 70  2  0  0  0
 34 36  1  0  0  0
 34 59  1  0  0  0
 34107  1  0  0  0
 35 44  2  0  0  0
 35 45  1  0  0  0
 35 68  1  0  0  0
 36 56  1  0  0  0
 36108  1  0  0  0
 37 39  1  0  0  0
 37 47  1  0  0  0
 37 66  1  0  0  0
 37109  1  0  0  0
 38 43  2  0  0  0
 38 46  1  0  0  0
 38 47  1  0  0  0
 39 64  1  0  0  0
 39 67  2  0  0  0
 40 52  1  0  0  0
 40 53  2  0  0  0
 40 58  1  0  0  0
 41110  1  0  0  0
 41111  1  0  0  0
 41112  1  0  0  0
 41 48  1  0  0  0
 42 43  1  0  0  0
 42 66  1  0  0  0
 42113  1  0  0  0
 42114  1  0  0  0
 43 44  1  0  0  0
 44115  1  0  0  0
 45 46  2  0  0  0
 45116  1  0  0  0
 46117  1  0  0  0
 47118  1  0  0  0
 47119  1  0  0  0
 48 56  1  0  0  0
 48 65  1  0  0  0
 48120  1  0  0  0
 49 50  1  0  0  0
 49 53  1  0  0  0
 49 64  1  0  0  0
 49121  1  0  0  0
 50 51  1  0  0  0
 50122  1  0  0  0
 50123  1  0  0  0
 51 52  1  0  0  0
 51124  1  0  0  0
 51125  1  0  0  0
 52126  1  0  0  0
 52127  1  0  0  0
 53 54  1  0  0  0
 54 55  2  0  0  0
 54128  1  0  0  0
 55 57  1  0  0  0
 55129  1  0  0  0
 56 69  2  0  0  0
 57 58  2  0  0  0
 57130  1  0  0  0
 58131  1  0  0  0
 59 60  1  0  0  0
 59 61  1  0  0  0
 59 62  1  0  0  0
 60132  1  0  0  0
 60133  1  0  0  0
 60134  1  0  0  0
 61135  1  0  0  0
 61136  1  0  0  0
 61137  1  0  0  0
 62138  1  0  0  0
 62139  1  0  0  0
 62140  1  0  0  0
 63 65  1  0  0  0
 63141  1  0  0  0
 63142  1  0  0  0
 63143  1  0  0  0
 64144  1  0  0  0
 65145  1  0  0  0
 68 81  1  0  0  0
 71 72  2  0  0  0
 71 86  1  0  0  0
 71 79  1  0  0  0
 72 80  1  0  0  0
 72 82  1  0  0  0
 73 82  2  0  0  0
 73 84  1  0  0  0
 73 86  1  0  0  0
 74 81  1  0  0  0
 74 84  1  0  0  0
 74 85  2  0  0  0
 75 77  1  0  0  0
 75 79  1  0  0  0
 75146  1  0  0  0
 75147  1  0  0  0
 76 78  1  0  0  0
 76 79  1  0  0  0
 76148  1  0  0  0
 76149  1  0  0  0
 77 83  1  0  0  0
 77150  1  0  0  0
 77151  1  0  0  0
 78 83  1  0  0  0
 78152  1  0  0  0
 78153  1  0  0  0
 79154  1  0  0  0
 80155  1  0  0  0
 80156  1  0  0  0
 80157  1  0  0  0
 81158  1  0  0  0
 81159  1  0  0  0
 84160  1  0  0  0
M  ISO  4   1 100  68 101  81 101  83 100
M  END
> <chiral flag>
0

> <version>
0

> <s_m_source_file>
/data/baiqing/PycharmProjects/Reinvent-master-3.2/result/LINK_invent/BTK/process_docking_weight1_custom_product_contain_oxygen_bond_distance_aromatic_linkinvent_7_9_3/rearranged_h_0156.sdf

> <i_m_source_file_index>
81

> <r_mmod_Potential_Energy-OPLS-2005>
97.2821426391602

> <r_mmod_Stretch_Energy-OPLS-2005>
51.1013603210449

> <r_mmod_Bend_Energy-OPLS-2005>
160.492584228516

> <r_mmod_Torsional_Energy-OPLS-2005>
290.060729980469

> <r_mmod_Improper_Torsional_Energy-OPLS-2005>
3.1286187171936

> <r_mmod_Van_der_Waal_Energy-OPLS-2005>
153.758651733398

> <r_mmod_Electrostatic_Energy-OPLS-2005>
-355.425170898438

> <r_mmod_Solvation_Energy-OPLS-2005>
-230.251800537109

> <b_mmod_Minimization_Converged-OPLS-2005>
0

> <r_mmod_RMS_Derivative-OPLS-2005>
2.39671492576599

$$$$
81
                    3D
 Structure written by MMmdl.
157166  0  0  1  0            999 V2000
  -30.5782  -14.8043   20.4282 C   0  0  0  0  0  0
  -30.4422  -12.4816   19.4881 C   0  0  0  0  0  0
  -29.5171  -12.4983   18.2489 C   0  0  0  0  0  0
  -28.0426  -12.3188   18.6616 C   0  0  0  0  0  0
  -27.6423  -13.2319   19.8514 C   0  0  2  0  0  0
  -28.6888  -13.1819   20.9870 C   0  0  0  0  0  0
  -25.2513  -13.8204   20.5706 C   0  0  0  0  0  0
  -24.1812  -13.0445   20.9220 C   0  0  0  0  0  0
  -24.6415  -11.6915   20.8768 C   0  0  0  0  0  0
  -23.9090  -10.4283   21.0435 C   0  0  0  0  0  0
  -24.3623   -9.4188   21.9211 C   0  0  0  0  0  0
  -23.6277   -8.2234   22.0769 C   0  0  0  0  0  0
  -22.4262   -8.0283   21.3545 C   0  0  0  0  0  0
  -21.9904   -9.0282   20.4666 C   0  0  0  0  0  0
  -22.7258  -10.2149   20.3087 C   0  0  0  0  0  0
  -21.6849   -6.0734   22.5284 C   0  0  0  0  0  0
  -21.4026   -6.5643   23.8213 C   0  0  0  0  0  0
  -21.3650   -5.6788   24.9174 C   0  0  0  0  0  0
  -21.6033   -4.3051   24.7225 C   0  0  0  0  0  0
  -21.8809   -3.8146   23.4341 C   0  0  0  0  0  0
  -21.9190   -4.6964   22.3397 C   0  0  0  0  0  0
  -22.7824  -13.5223   21.1860 C   0  0  0  0  0  0
  -22.1656   -4.2147   21.0973 F   0  0  0  0  0  0
  -21.5619   -3.4536   25.7737 F   0  0  0  0  0  0
  -29.9854  -13.5537   20.4052 N   0  0  0  0  0  0
  -26.2952  -12.9408   20.3297 N   0  0  0  0  0  0
  -25.9348  -11.6554   20.5779 N   0  0  0  0  0  0
  -22.0463  -12.8254   22.0429 N   0  0  0  0  0  0
  -25.4198  -15.1923   20.4095 N   0  0  0  0  0  0
  -31.7649  -14.9123   20.1025 O   0  0  0  0  0  0
  -21.6618   -6.8890   21.4242 O   0  0  0  0  0  0
  -22.3508  -14.5520   20.6686 O   0  0  0  0  0  0
  -24.6333  -31.8530   23.1952 C   0  0  0  0  0  0
  -25.9141  -32.4732   23.8337 C   0  0  1  0  0  0
  -27.2151  -27.2209   20.1219 C   0  0  0  0  0  0
  -25.5909  -33.8541   24.2234 N   0  0  0  0  0  0
  -23.4324  -30.4778   21.5384 C   0  0  2  0  0  0
  -24.8781  -28.9161   20.1130 C   0  0  0  0  0  0
  -22.7503  -29.4620   22.4875 C   0  0  0  0  0  0
  -18.0309  -28.1368   22.8496 C   0  0  0  0  0  0
  -24.1480  -36.7272   23.2655 C   0  0  0  0  0  0
  -25.9856  -30.7473   21.3897 C   0  0  0  0  0  0
  -26.0538  -29.3700   20.7236 C   0  0  0  0  0  0
  -27.2231  -28.5335   20.7202 C   0  0  0  0  0  0
  -26.0136  -26.8524   19.4756 C   0  0  0  0  0  0
  -24.8635  -27.6640   19.4835 C   0  0  0  0  0  0
  -23.6522  -29.8085   20.1577 C   0  0  0  0  0  0
  -25.4104  -36.3053   24.0332 C   0  0  1  0  0  0
  -20.5911  -28.3700   23.1228 C   0  0  2  0  0  0
  -20.6770  -26.9413   22.5393 C   0  0  0  0  0  0
  -19.5744  -26.6368   21.5195 C   0  0  0  0  0  0
  -18.1933  -26.7913   22.1622 C   0  0  0  0  0  0
  -19.1562  -28.8851   23.2865 C   0  0  0  0  0  0
  -18.9489  -30.1450   23.8893 C   0  0  0  0  0  0
  -17.6488  -30.6579   24.0563 C   0  0  0  0  0  0
  -25.9047  -34.9426   23.5087 C   0  0  0  0  0  0
  -16.5379  -29.9074   23.6339 C   0  0  0  0  0  0
  -16.7298  -28.6479   23.0379 C   0  0  0  0  0  0
  -26.4472  -31.6602   25.0780 C   0  0  0  0  0  0
  -25.3663  -31.3821   26.1493 C   0  0  0  0  0  0
  -27.0362  -30.3007   24.6375 C   0  0  0  0  0  0
  -27.5996  -32.4393   25.7534 C   0  0  0  0  0  0
  -27.5569  -37.1786   24.8460 C   0  0  0  0  0  0
  -21.4207  -29.3051   22.3603 N   0  0  0  0  0  0
  -26.4278  -37.3755   23.9412 N   0  0  0  0  0  0
  -24.7025  -31.0464   22.0949 N   0  0  0  0  0  0
  -23.4189  -28.8177   23.3001 O   0  0  0  0  0  0
  -28.2910  -26.2887   20.1859 O   0  0  0  0  0  0
  -26.5650  -34.8908   22.4678 O   0  0  0  0  0  0
  -23.5474  -32.1386   23.7219 O   0  0  0  0  0  0
  -29.0697  -18.3491   20.8090 C   0  0  0  0  0  0
  -30.6952  -19.2360   19.5810 C   0  0  0  0  0  0
  -29.5800  -19.6176   20.2860 C   0  0  0  0  0  0
  -29.9161  -17.3028   20.4082 C   0  0  0  0  0  0
  -28.9915  -23.0936   21.7178 C   0  0  0  0  0  0
  -29.4731  -21.6137   21.7665 C   0  0  0  0  0  0
  -28.9297  -22.1224   19.5350 C   0  0  0  0  0  0
  -29.0740  -23.5793   20.2508 C   0  0  1  0  0  0
  -31.5443  -23.4833   20.1370 C   0  0  0  0  0  0
  -28.0498  -24.8133   19.8805 C   0  0  0  0  0  0
  -29.0876  -20.9785   20.5124 N   0  0  0  0  0  0
  -29.7697  -15.9175   20.6653 N   0  0  0  0  0  0
  -30.9165  -17.8606   19.6510 O   0  0  0  0  0  0
  -30.3301  -24.1866   19.9107 O   0  0  0  0  0  0
  -31.4806  -12.6185   19.1822 H   0  0  0  0  0  0
  -30.4085  -11.5130   19.9893 H   0  0  0  0  0  0
  -29.8030  -11.7087   17.5520 H   0  0  0  0  0  0
  -29.6358  -13.4392   17.7101 H   0  0  0  0  0  0
  -27.9094  -11.2720   18.9394 H   0  0  0  0  0  0
  -27.3816  -12.4960   17.8123 H   0  0  0  0  0  0
  -27.6281  -14.2485   19.4607 H   0  0  0  0  0  0
  -28.7387  -12.1829   21.4200 H   0  0  0  0  0  0
  -28.4156  -13.8533   21.8036 H   0  0  0  0  0  0
  -25.2779   -9.5633   22.4781 H   0  0  0  0  0  0
  -23.9979   -7.4608   22.7483 H   0  0  0  0  0  0
  -21.0827   -8.8818   19.8975 H   0  0  0  0  0  0
  -22.3736  -10.9693   19.6186 H   0  0  0  0  0  0
  -21.2042   -7.6157   23.9724 H   0  0  0  0  0  0
  -21.1472   -6.0521   25.9076 H   0  0  0  0  0  0
  -22.0600   -2.7615   23.2842 H   0  0  0  0  0  0
  -22.4094  -11.9923   22.4818 H   0  0  0  0  0  0
  -21.1109  -13.1336   22.2674 H   0  0  0  0  0  0
  -24.6489  -15.8431   20.5148 H   0  0  0  0  0  0
  -26.2537  -15.6286   20.0368 H   0  0  0  0  0  0
  -26.7224  -32.5360   23.1089 H   0  0  0  0  0  0
  -24.9978  -33.9665   25.0326 H   0  0  0  0  0  0
  -22.7333  -31.3030   21.3871 H   0  0  0  0  0  0
  -23.3734  -35.9607   23.3305 H   0  0  0  0  0  0
  -24.3582  -36.8921   22.2075 H   0  0  0  0  0  0
  -23.7241  -37.6471   23.6696 H   0  0  0  0  0  0
  -26.1490  -31.5111   20.6288 H   0  0  0  0  0  0
  -26.8526  -30.7825   22.0391 H   0  0  0  0  0  0
  -28.1175  -28.8710   21.2250 H   0  0  0  0  0  0
  -25.9231  -25.9028   18.9714 H   0  0  0  0  0  0
  -23.9603  -27.3056   19.0088 H   0  0  0  0  0  0
  -23.7785  -30.5806   19.3992 H   0  0  0  0  0  0
  -22.7700  -29.2431   19.8536 H   0  0  0  0  0  0
  -25.1285  -36.1885   25.0826 H   0  0  0  0  0  0
  -21.0043  -28.3294   24.1330 H   0  0  0  0  0  0
  -20.5594  -26.2349   23.3624 H   0  0  0  0  0  0
  -21.6639  -26.7366   22.1233 H   0  0  0  0  0  0
  -19.6892  -25.6266   21.1247 H   0  0  0  0  0  0
  -19.6653  -27.3151   20.6702 H   0  0  0  0  0  0
  -17.4193  -26.6683   21.4042 H   0  0  0  0  0  0
  -18.0336  -26.0041   22.9001 H   0  0  0  0  0  0
  -19.7971  -30.7263   24.2252 H   0  0  0  0  0  0
  -17.5050  -31.6256   24.5160 H   0  0  0  0  0  0
  -15.5378  -30.2975   23.7649 H   0  0  0  0  0  0
  -15.8700  -28.0774   22.7120 H   0  0  0  0  0  0
  -24.5742  -30.7289   25.7814 H   0  0  0  0  0  0
  -24.8967  -32.3038   26.4944 H   0  0  0  0  0  0
  -25.7921  -30.8939   27.0270 H   0  0  0  0  0  0
  -26.3031  -29.6732   24.1302 H   0  0  0  0  0  0
  -27.3899  -29.7304   25.4975 H   0  0  0  0  0  0
  -27.8950  -30.4264   23.9781 H   0  0  0  0  0  0
  -27.2549  -33.3661   26.2130 H   0  0  0  0  0  0
  -28.3764  -32.7039   25.0347 H   0  0  0  0  0  0
  -28.0723  -31.8552   26.5439 H   0  0  0  0  0  0
  -28.2577  -38.0090   24.7501 H   0  0  0  0  0  0
  -28.1080  -36.2626   24.6269 H   0  0  0  0  0  0
  -27.2317  -37.1419   25.8874 H   0  0  0  0  0  0
  -20.9388  -29.8801   21.6827 H   0  0  0  0  0  0
  -26.0147  -38.2834   24.1389 H   0  0  0  0  0  0
  -28.1826  -18.2273   21.4128 H   0  0  0  0  0  0
  -31.4407  -19.7850   19.0224 H   0  0  0  0  0  0
  -29.5197  -23.7378   22.4215 H   0  0  0  0  0  0
  -27.9449  -23.1020   22.0214 H   0  0  0  0  0  0
  -29.0509  -21.0855   22.6209 H   0  0  0  0  0  0
  -30.5570  -21.5578   21.8699 H   0  0  0  0  0  0
  -29.6161  -22.0158   18.6947 H   0  0  0  0  0  0
  -27.9295  -22.0396   19.1074 H   0  0  0  0  0  0
  -32.3752  -24.1011   19.7936 H   0  0  0  0  0  0
  -31.5921  -22.5482   19.5810 H   0  0  0  0  0  0
  -31.7091  -23.2866   21.1960 H   0  0  0  0  0  0
  -27.0869  -24.5408   20.3147 H   0  0  0  0  0  0
  -27.8997  -24.7661   18.8010 H   0  0  0  0  0  0
  -28.8625  -15.6612   21.0186 H   0  0  0  0  0  0
  1 25  1  0  0  0
  1 30  2  0  0  0
  1 82  1  0  0  0
  2  3  1  0  0  0
  2 25  1  0  0  0
  2 85  1  0  0  0
  2 86  1  0  0  0
  3  4  1  0  0  0
  3 87  1  0  0  0
  3 88  1  0  0  0
  4  5  1  0  0  0
  4 89  1  0  0  0
  4 90  1  0  0  0
  5  6  1  0  0  0
  5 26  1  0  0  0
  5 91  1  0  0  0
  6 25  1  0  0  0
  6 92  1  0  0  0
  6 93  1  0  0  0
  7  8  2  0  0  0
  7 26  1  0  0  0
  7 29  1  0  0  0
  8  9  1  0  0  0
  8 22  1  0  0  0
  9 10  1  0  0  0
  9 27  2  0  0  0
 10 11  2  0  0  0
 10 15  1  0  0  0
 11 12  1  0  0  0
 11 94  1  0  0  0
 12 13  2  0  0  0
 12 95  1  0  0  0
 13 14  1  0  0  0
 13 31  1  0  0  0
 14 15  2  0  0  0
 14 96  1  0  0  0
 15 97  1  0  0  0
 16 17  2  0  0  0
 16 21  1  0  0  0
 16 31  1  0  0  0
 17 18  1  0  0  0
 17 98  1  0  0  0
 18 19  2  0  0  0
 18 99  1  0  0  0
 19 20  1  0  0  0
 19 24  1  0  0  0
 20 21  2  0  0  0
 20100  1  0  0  0
 21 23  1  0  0  0
 22 28  1  0  0  0
 22 32  2  0  0  0
 26 27  1  0  0  0
 28101  1  0  0  0
 28102  1  0  0  0
 29103  1  0  0  0
 29104  1  0  0  0
 33 34  1  0  0  0
 33 66  1  0  0  0
 33 70  2  0  0  0
 34 36  1  0  0  0
 34 59  1  0  0  0
 34105  1  0  0  0
 35 44  2  0  0  0
 35 45  1  0  0  0
 35 68  1  0  0  0
 36 56  1  0  0  0
 36106  1  0  0  0
 37 39  1  0  0  0
 37 47  1  0  0  0
 37 66  1  0  0  0
 37107  1  0  0  0
 38 43  2  0  0  0
 38 46  1  0  0  0
 38 47  1  0  0  0
 39 64  1  0  0  0
 39 67  2  0  0  0
 40 52  1  0  0  0
 40 53  2  0  0  0
 40 58  1  0  0  0
 41108  1  0  0  0
 41109  1  0  0  0
 41110  1  0  0  0
 41 48  1  0  0  0
 42 43  1  0  0  0
 42 66  1  0  0  0
 42111  1  0  0  0
 42112  1  0  0  0
 43 44  1  0  0  0
 44113  1  0  0  0
 45 46  2  0  0  0
 45114  1  0  0  0
 46115  1  0  0  0
 47116  1  0  0  0
 47117  1  0  0  0
 48 56  1  0  0  0
 48 65  1  0  0  0
 48118  1  0  0  0
 49 50  1  0  0  0
 49 53  1  0  0  0
 49 64  1  0  0  0
 49119  1  0  0  0
 50 51  1  0  0  0
 50120  1  0  0  0
 50121  1  0  0  0
 51 52  1  0  0  0
 51122  1  0  0  0
 51123  1  0  0  0
 52124  1  0  0  0
 52125  1  0  0  0
 53 54  1  0  0  0
 54 55  2  0  0  0
 54126  1  0  0  0
 55 57  1  0  0  0
 55127  1  0  0  0
 56 69  2  0  0  0
 57 58  2  0  0  0
 57128  1  0  0  0
 58129  1  0  0  0
 59 60  1  0  0  0
 59 61  1  0  0  0
 59 62  1  0  0  0
 60130  1  0  0  0
 60131  1  0  0  0
 60132  1  0  0  0
 61133  1  0  0  0
 61134  1  0  0  0
 61135  1  0  0  0
 62136  1  0  0  0
 62137  1  0  0  0
 62138  1  0  0  0
 63 65  1  0  0  0
 63139  1  0  0  0
 63140  1  0  0  0
 63141  1  0  0  0
 64142  1  0  0  0
 65143  1  0  0  0
 68 80  1  0  0  0
 71 73  1  0  0  0
 71 74  2  0  0  0
 71144  1  0  0  0
 72 73  2  0  0  0
 72 83  1  0  0  0
 72145  1  0  0  0
 73 81  1  0  0  0
 74 82  1  0  0  0
 74 83  1  0  0  0
 75 76  1  0  0  0
 75 78  1  0  0  0
 75146  1  0  0  0
 75147  1  0  0  0
 76 81  1  0  0  0
 76148  1  0  0  0
 76149  1  0  0  0
 77 78  1  0  0  0
 77 81  1  0  0  0
 77150  1  0  0  0
 77151  1  0  0  0
 78 80  1  0  0  0
 78 84  1  0  0  0
 79 84  1  0  0  0
 79152  1  0  0  0
 79153  1  0  0  0
 79154  1  0  0  0
 80155  1  0  0  0
 80156  1  0  0  0
 82157  1  0  0  0
M  ISO  4   1 100  68 101  80 101  82 100
M  END
> <chiral flag>
0

> <version>
0

> <s_m_source_file>
/data/baiqing/PycharmProjects/Reinvent-master-3.2/result/LINK_invent/BTK/process_docking_weight1_custom_product_contain_oxygen_bond_distance_aromatic_linkinvent_7_9_3/rearranged_h_0156.sdf

> <i_m_source_file_index>
82

> <r_mmod_Potential_Energy-OPLS-2005>
338.931488037109

> <r_mmod_Stretch_Energy-OPLS-2005>
139.314956665039

> <r_mmod_Bend_Energy-OPLS-2005>
239.302764892578

> <r_mmod_Torsional_Energy-OPLS-2005>
305.356872558594

> <r_mmod_Improper_Torsional_Energy-OPLS-2005>
7.26054048538208

> <r_mmod_Van_der_Waal_Energy-OPLS-2005>
117.618965148926

> <r_mmod_Electrostatic_Energy-OPLS-2005>
-337.8056640625

> <r_mmod_Solvation_Energy-OPLS-2005>
-245.911193847656

> <b_mmod_Minimization_Converged-OPLS-2005>
0

> <r_mmod_RMS_Derivative-OPLS-2005>
3.31726455688477

$$$$
82
                    3D
 Structure written by MMmdl.
156166  0  0  1  0            999 V2000
  -30.4913  -15.0750   20.4086 C   0  0  0  0  0  0
  -30.4504  -12.6790   19.5058 C   0  0  0  0  0  0
  -29.5263  -12.5360   18.2708 C   0  0  0  0  0  0
  -28.0711  -12.2840   18.7051 C   0  0  0  0  0  0
  -27.6258  -13.2476   19.8336 C   0  0  2  0  0  0
  -28.6676  -13.3374   20.9696 C   0  0  0  0  0  0
  -25.2468  -13.8207   20.5712 C   0  0  0  0  0  0
  -24.1779  -13.0444   20.9229 C   0  0  0  0  0  0
  -24.6396  -11.6923   20.8778 C   0  0  0  0  0  0
  -23.9081  -10.4294   21.0416 C   0  0  0  0  0  0
  -24.3629   -9.4203   21.9185 C   0  0  0  0  0  0
  -23.6288   -8.2244   22.0758 C   0  0  0  0  0  0
  -22.4270   -8.0284   21.3543 C   0  0  0  0  0  0
  -21.9919   -9.0263   20.4651 C   0  0  0  0  0  0
  -22.7256  -10.2136   20.3052 C   0  0  0  0  0  0
  -21.6853   -6.0730   22.5271 C   0  0  0  0  0  0
  -21.4021   -6.5643   23.8205 C   0  0  0  0  0  0
  -21.3661   -5.6797   24.9171 C   0  0  0  0  0  0
  -21.6033   -4.3055   24.7223 C   0  0  0  0  0  0
  -21.8826   -3.8146   23.4351 C   0  0  0  0  0  0
  -21.9201   -4.6958   22.3401 C   0  0  0  0  0  0
  -22.7805  -13.5225   21.1877 C   0  0  0  0  0  0
  -22.1666   -4.2141   21.0977 F   0  0  0  0  0  0
  -21.5627   -3.4542   25.7741 F   0  0  0  0  0  0
  -29.9272  -13.7897   20.3610 N   0  0  0  0  0  0
  -26.2882  -12.9432   20.3255 N   0  0  0  0  0  0
  -25.9319  -11.6572   20.5759 N   0  0  0  0  0  0
  -22.0463  -12.8195   22.0434 N   0  0  0  0  0  0
  -25.4163  -15.1931   20.4115 N   0  0  0  0  0  0
  -31.7028  -15.1397   20.1621 O   0  0  0  0  0  0
  -21.6643   -6.8870   21.4226 O   0  0  0  0  0  0
  -22.3491  -14.5519   20.6705 O   0  0  0  0  0  0
  -24.6516  -31.8360   23.1781 C   0  0  0  0  0  0
  -25.9240  -32.4648   23.8208 C   0  0  1  0  0  0
  -27.2160  -27.0429   20.1828 C   0  0  0  0  0  0
  -25.5967  -33.8457   24.2120 N   0  0  0  0  0  0
  -23.4592  -30.4558   21.5249 C   0  0  2  0  0  0
  -24.9099  -28.8620   20.1156 C   0  0  0  0  0  0
  -22.7595  -29.4533   22.4787 C   0  0  0  0  0  0
  -18.0314  -28.1427   22.8493 C   0  0  0  0  0  0
  -24.1488  -36.7228   23.2645 C   0  0  0  0  0  0
  -26.0234  -30.6814   21.3912 C   0  0  0  0  0  0
  -26.0910  -29.2814   20.7421 C   0  0  0  0  0  0
  -27.2437  -28.3930   20.7506 C   0  0  0  0  0  0
  -26.0099  -26.7539   19.5062 C   0  0  0  0  0  0
  -24.8869  -27.6137   19.4790 C   0  0  0  0  0  0
  -23.6934  -29.7805   20.1478 C   0  0  0  0  0  0
  -25.4119  -36.2982   24.0306 C   0  0  1  0  0  0
  -20.5940  -28.3747   23.1204 C   0  0  2  0  0  0
  -20.6809  -26.9436   22.5396 C   0  0  0  0  0  0
  -19.5771  -26.6392   21.5223 C   0  0  0  0  0  0
  -18.1950  -26.7974   22.1628 C   0  0  0  0  0  0
  -19.1575  -28.8904   23.2855 C   0  0  0  0  0  0
  -18.9496  -30.1518   23.8867 C   0  0  0  0  0  0
  -17.6491  -30.6622   24.0578 C   0  0  0  0  0  0
  -25.9087  -34.9381   23.5015 C   0  0  0  0  0  0
  -16.5379  -29.9122   23.6364 C   0  0  0  0  0  0
  -16.7301  -28.6543   23.0370 C   0  0  0  0  0  0
  -26.4554  -31.6546   25.0673 C   0  0  0  0  0  0
  -25.3711  -31.3793   26.1344 C   0  0  0  0  0  0
  -27.0434  -30.2934   24.6306 C   0  0  0  0  0  0
  -27.6057  -32.4349   25.7467 C   0  0  0  0  0  0
  -27.5568  -37.1766   24.8464 C   0  0  0  0  0  0
  -21.4272  -29.3067   22.3555 N   0  0  0  0  0  0
  -26.4270  -37.3704   23.9420 N   0  0  0  0  0  0
  -24.7320  -31.0159   22.0855 N   0  0  0  0  0  0
  -23.4195  -28.8086   23.2975 O   0  0  0  0  0  0
  -28.2567  -26.0106   20.2121 O   0  0  0  0  0  0
  -26.5668  -34.8899   22.4597 O   0  0  0  0  0  0
  -23.5607  -32.1265   23.6968 O   0  0  0  0  0  0
  -30.8658  -18.5815   20.5835 C   0  0  0  0  0  0
  -30.6529  -20.0618   20.5896 C   0  0  0  0  0  0
  -29.3408  -20.5539   20.4294 C   0  0  0  0  0  0
  -29.7822  -17.7148   20.4830 C   0  0  0  0  0  0
  -29.1641  -23.2650   20.5533 C   0  0  0  0  0  0
  -33.1640  -20.4989   21.3471 C   0  0  0  0  0  0
  -32.2865  -21.4672   22.1005 C   0  0  0  0  0  0
  -27.0237  -23.6013   19.6655 C   0  0  0  0  0  0
  -27.3518  -22.0778   19.9151 C   0  0  0  0  0  0
  -31.8497  -20.9668   20.7401 C   0  0  0  0  0  0
  -28.0062  -24.4488   20.4952 C   0  0  2  0  0  0
  -28.7529  -21.9098   20.3369 N   0  0  0  0  0  0
  -29.6599  -16.2523   20.5166 N   0  0  0  0  0  0
  -30.3282  -23.5812   20.8051 O   0  0  0  0  0  0
  -28.4206  -18.9502   20.3376 S   0  0  0  0  0  0
  -31.4717  -12.8750   19.1776 H   0  0  0  0  0  0
  -30.4958  -11.7485   20.0732 H   0  0  0  0  0  0
  -29.8749  -11.7226   17.6331 H   0  0  0  0  0  0
  -29.5733  -13.4438   17.6667 H   0  0  0  0  0  0
  -28.0121  -11.2546   19.0606 H   0  0  0  0  0  0
  -27.3961  -12.3520   17.8509 H   0  0  0  0  0  0
  -27.5715  -14.2308   19.3660 H   0  0  0  0  0  0
  -28.7943  -12.3785   21.4731 H   0  0  0  0  0  0
  -28.3400  -14.0447   21.7327 H   0  0  0  0  0  0
  -25.2774   -9.5682   22.4760 H   0  0  0  0  0  0
  -24.0006   -7.4637   22.7475 H   0  0  0  0  0  0
  -21.0853   -8.8771   19.8952 H   0  0  0  0  0  0
  -22.3708  -10.9668   19.6159 H   0  0  0  0  0  0
  -21.2011   -7.6152   23.9701 H   0  0  0  0  0  0
  -21.1470   -6.0532   25.9072 H   0  0  0  0  0  0
  -22.0601   -2.7605   23.2850 H   0  0  0  0  0  0
  -22.4112  -11.9859   22.4800 H   0  0  0  0  0  0
  -21.1071  -13.1198   22.2653 H   0  0  0  0  0  0
  -24.6468  -15.8448   20.5141 H   0  0  0  0  0  0
  -26.2549  -15.6279   20.0500 H   0  0  0  0  0  0
  -26.7306  -32.5225   23.0925 H   0  0  0  0  0  0
  -25.0145  -33.9555   25.0294 H   0  0  0  0  0  0
  -22.7693  -31.2872   21.3649 H   0  0  0  0  0  0
  -23.3746  -35.9562   23.3261 H   0  0  0  0  0  0
  -24.3593  -36.8897   22.2069 H   0  0  0  0  0  0
  -23.7243  -37.6414   23.6718 H   0  0  0  0  0  0
  -26.1910  -31.4262   20.6114 H   0  0  0  0  0  0
  -26.8909  -30.7344   22.0372 H   0  0  0  0  0  0
  -28.1439  -28.7194   21.2525 H   0  0  0  0  0  0
  -25.9082  -25.8168   18.9859 H   0  0  0  0  0  0
  -23.9917  -27.2905   18.9644 H   0  0  0  0  0  0
  -23.8449  -30.5542   19.3939 H   0  0  0  0  0  0
  -22.8042  -29.2335   19.8295 H   0  0  0  0  0  0
  -25.1319  -36.1773   25.0798 H   0  0  0  0  0  0
  -21.0077  -28.3344   24.1302 H   0  0  0  0  0  0
  -20.5713  -26.2359   23.3628 H   0  0  0  0  0  0
  -21.6678  -26.7449   22.1186 H   0  0  0  0  0  0
  -19.6909  -25.6287   21.1282 H   0  0  0  0  0  0
  -19.6715  -27.3197   20.6742 H   0  0  0  0  0  0
  -17.4234  -26.6749   21.4010 H   0  0  0  0  0  0
  -18.0323  -26.0129   22.9025 H   0  0  0  0  0  0
  -19.7968  -30.7373   24.2177 H   0  0  0  0  0  0
  -17.5039  -31.6284   24.5206 H   0  0  0  0  0  0
  -15.5379  -30.3018   23.7702 H   0  0  0  0  0  0
  -15.8704  -28.0871   22.7066 H   0  0  0  0  0  0
  -24.5877  -30.7153   25.7677 H   0  0  0  0  0  0
  -24.8925  -32.3011   26.4673 H   0  0  0  0  0  0
  -25.7964  -30.9025   27.0181 H   0  0  0  0  0  0
  -26.3074  -29.6620   24.1315 H   0  0  0  0  0  0
  -27.4042  -29.7261   25.4899 H   0  0  0  0  0  0
  -27.8979  -30.4164   23.9644 H   0  0  0  0  0  0
  -27.2631  -33.3697   26.1926 H   0  0  0  0  0  0
  -28.3934  -32.6836   25.0337 H   0  0  0  0  0  0
  -28.0650  -31.8542   26.5474 H   0  0  0  0  0  0
  -28.2565  -38.0087   24.7532 H   0  0  0  0  0  0
  -28.1079  -36.2614   24.6256 H   0  0  0  0  0  0
  -27.2305  -37.1384   25.8874 H   0  0  0  0  0  0
  -20.9455  -29.8778   21.6758 H   0  0  0  0  0  0
  -26.0098  -38.2749   24.1450 H   0  0  0  0  0  0
  -31.8666  -18.1873   20.6764 H   0  0  0  0  0  0
  -33.2528  -19.5022   21.7744 H   0  0  0  0  0  0
  -34.0803  -20.8890   20.9058 H   0  0  0  0  0  0
  -32.6246  -22.5001   22.1731 H   0  0  0  0  0  0
  -31.7584  -21.0885   22.9735 H   0  0  0  0  0  0
  -25.9880  -23.8053   19.9424 H   0  0  0  0  0  0
  -27.1349  -23.8305   18.6059 H   0  0  0  0  0  0
  -27.1545  -21.4906   19.0171 H   0  0  0  0  0  0
  -26.7076  -21.6807   20.7008 H   0  0  0  0  0  0
  -31.9299  -21.6551   19.9010 H   0  0  0  0  0  0
  -27.6228  -24.4515   21.5162 H   0  0  0  0  0  0
  -28.6987  -15.9642   20.6233 H   0  0  0  0  0  0
  1 25  1  0  0  0
  1 30  2  0  0  0
  1 83  1  0  0  0
  2  3  1  0  0  0
  2 25  1  0  0  0
  2 86  1  0  0  0
  2 87  1  0  0  0
  3  4  1  0  0  0
  3 88  1  0  0  0
  3 89  1  0  0  0
  4  5  1  0  0  0
  4 90  1  0  0  0
  4 91  1  0  0  0
  5  6  1  0  0  0
  5 26  1  0  0  0
  5 92  1  0  0  0
  6 25  1  0  0  0
  6 93  1  0  0  0
  6 94  1  0  0  0
  7  8  2  0  0  0
  7 26  1  0  0  0
  7 29  1  0  0  0
  8  9  1  0  0  0
  8 22  1  0  0  0
  9 10  1  0  0  0
  9 27  2  0  0  0
 10 11  2  0  0  0
 10 15  1  0  0  0
 11 12  1  0  0  0
 11 95  1  0  0  0
 12 13  2  0  0  0
 12 96  1  0  0  0
 13 14  1  0  0  0
 13 31  1  0  0  0
 14 15  2  0  0  0
 14 97  1  0  0  0
 15 98  1  0  0  0
 16 17  2  0  0  0
 16 21  1  0  0  0
 16 31  1  0  0  0
 17 18  1  0  0  0
 17 99  1  0  0  0
 18 19  2  0  0  0
 18100  1  0  0  0
 19 20  1  0  0  0
 19 24  1  0  0  0
 20 21  2  0  0  0
 20101  1  0  0  0
 21 23  1  0  0  0
 22 28  1  0  0  0
 22 32  2  0  0  0
 26 27  1  0  0  0
 28102  1  0  0  0
 28103  1  0  0  0
 29104  1  0  0  0
 29105  1  0  0  0
 33 34  1  0  0  0
 33 66  1  0  0  0
 33 70  2  0  0  0
 34 36  1  0  0  0
 34 59  1  0  0  0
 34106  1  0  0  0
 35 44  2  0  0  0
 35 45  1  0  0  0
 35 68  1  0  0  0
 36 56  1  0  0  0
 36107  1  0  0  0
 37 39  1  0  0  0
 37 47  1  0  0  0
 37 66  1  0  0  0
 37108  1  0  0  0
 38 43  2  0  0  0
 38 46  1  0  0  0
 38 47  1  0  0  0
 39 64  1  0  0  0
 39 67  2  0  0  0
 40 52  1  0  0  0
 40 53  2  0  0  0
 40 58  1  0  0  0
 41109  1  0  0  0
 41110  1  0  0  0
 41111  1  0  0  0
 41 48  1  0  0  0
 42 43  1  0  0  0
 42 66  1  0  0  0
 42112  1  0  0  0
 42113  1  0  0  0
 43 44  1  0  0  0
 44114  1  0  0  0
 45 46  2  0  0  0
 45115  1  0  0  0
 46116  1  0  0  0
 47117  1  0  0  0
 47118  1  0  0  0
 48 56  1  0  0  0
 48 65  1  0  0  0
 48119  1  0  0  0
 49 50  1  0  0  0
 49 53  1  0  0  0
 49 64  1  0  0  0
 49120  1  0  0  0
 50 51  1  0  0  0
 50121  1  0  0  0
 50122  1  0  0  0
 51 52  1  0  0  0
 51123  1  0  0  0
 51124  1  0  0  0
 52125  1  0  0  0
 52126  1  0  0  0
 53 54  1  0  0  0
 54 55  2  0  0  0
 54127  1  0  0  0
 55 57  1  0  0  0
 55128  1  0  0  0
 56 69  2  0  0  0
 57 58  2  0  0  0
 57129  1  0  0  0
 58130  1  0  0  0
 59 60  1  0  0  0
 59 61  1  0  0  0
 59 62  1  0  0  0
 60131  1  0  0  0
 60132  1  0  0  0
 60133  1  0  0  0
 61134  1  0  0  0
 61135  1  0  0  0
 61136  1  0  0  0
 62137  1  0  0  0
 62138  1  0  0  0
 62139  1  0  0  0
 63 65  1  0  0  0
 63140  1  0  0  0
 63141  1  0  0  0
 63142  1  0  0  0
 64143  1  0  0  0
 65144  1  0  0  0
 68 81  1  0  0  0
 71 72  1  0  0  0
 71 74  2  0  0  0
 71145  1  0  0  0
 72 73  2  0  0  0
 72 80  1  0  0  0
 73 82  1  0  0  0
 73 85  1  0  0  0
 74 83  1  0  0  0
 74 85  1  0  0  0
 75 81  1  0  0  0
 75 82  1  0  0  0
 75 84  2  0  0  0
 76 77  1  0  0  0
 76 80  1  0  0  0
 76146  1  0  0  0
 76147  1  0  0  0
 77 80  1  0  0  0
 77148  1  0  0  0
 77149  1  0  0  0
 78 79  1  0  0  0
 78 81  1  0  0  0
 78150  1  0  0  0
 78151  1  0  0  0
 79 82  1  0  0  0
 79152  1  0  0  0
 79153  1  0  0  0
 80154  1  0  0  0
 81155  1  0  0  0
 83156  1  0  0  0
M  ISO  4   1 100  68 101  81 101  83 100
M  END
> <chiral flag>
0

> <version>
0

> <s_m_source_file>
/data/baiqing/PycharmProjects/Reinvent-master-3.2/result/LINK_invent/BTK/process_docking_weight1_custom_product_contain_oxygen_bond_distance_aromatic_linkinvent_7_9_3/rearranged_h_0156.sdf

> <i_m_source_file_index>
83

> <r_mmod_Potential_Energy-OPLS-2005>
791.602111816406

> <r_mmod_Stretch_Energy-OPLS-2005>
308.167114257812

> <r_mmod_Bend_Energy-OPLS-2005>
363.413818359375

> <r_mmod_Torsional_Energy-OPLS-2005>
275.207336425781

> <r_mmod_Improper_Torsional_Energy-OPLS-2005>
4.5963773727417

> <r_mmod_Van_der_Waal_Energy-OPLS-2005>
101.548561096191

> <r_mmod_Electrostatic_Energy-OPLS-2005>
-326.746704101562

> <r_mmod_Solvation_Energy-OPLS-2005>
-222.820587158203

> <b_mmod_Minimization_Converged-OPLS-2005>
0

> <r_mmod_RMS_Derivative-OPLS-2005>
2.79423666000366

$$$$
83
                    3D
 Structure written by MMmdl.
161169  0  0  1  0            999 V2000
  -30.5794  -14.7456   20.4839 C   0  0  0  0  0  0
  -30.4468  -12.4588   19.4695 C   0  0  0  0  0  0
  -29.5160  -12.5214   18.2360 C   0  0  0  0  0  0
  -28.0410  -12.3387   18.6463 C   0  0  0  0  0  0
  -27.6491  -13.2236   19.8581 C   0  0  2  0  0  0
  -28.6935  -13.1213   20.9924 C   0  0  0  0  0  0
  -25.2556  -13.8190   20.5671 C   0  0  0  0  0  0
  -24.1832  -13.0453   20.9198 C   0  0  0  0  0  0
  -24.6403  -11.6922   20.8745 C   0  0  0  0  0  0
  -23.9068  -10.4303   21.0408 C   0  0  0  0  0  0
  -24.3619   -9.4215   21.9185 C   0  0  0  0  0  0
  -23.6297   -8.2247   22.0752 C   0  0  0  0  0  0
  -22.4279   -8.0285   21.3543 C   0  0  0  0  0  0
  -21.9914   -9.0260   20.4646 C   0  0  0  0  0  0
  -22.7240  -10.2142   20.3057 C   0  0  0  0  0  0
  -21.6854   -6.0739   22.5280 C   0  0  0  0  0  0
  -21.4014   -6.5641   23.8214 C   0  0  0  0  0  0
  -21.3660   -5.6792   24.9175 C   0  0  0  0  0  0
  -21.6046   -4.3055   24.7224 C   0  0  0  0  0  0
  -21.8820   -3.8147   23.4344 C   0  0  0  0  0  0
  -21.9193   -4.6966   22.3402 C   0  0  0  0  0  0
  -22.7855  -13.5246   21.1859 C   0  0  0  0  0  0
  -22.1661   -4.2152   21.0980 F   0  0  0  0  0  0
  -21.5631   -3.4538   25.7735 F   0  0  0  0  0  0
  -29.9987  -13.4962   20.4265 N   0  0  0  0  0  0
  -26.2975  -12.9371   20.3287 N   0  0  0  0  0  0
  -25.9331  -11.6524   20.5749 N   0  0  0  0  0  0
  -22.0491  -12.8236   22.0411 N   0  0  0  0  0  0
  -25.4283  -15.1906   20.4046 N   0  0  0  0  0  0
  -31.7444  -14.9086   20.1074 O   0  0  0  0  0  0
  -21.6642   -6.8882   21.4241 O   0  0  0  0  0  0
  -22.3539  -14.5549   20.6705 O   0  0  0  0  0  0
  -24.6332  -31.8541   23.1974 C   0  0  0  0  0  0
  -25.9151  -32.4748   23.8326 C   0  0  1  0  0  0
  -27.2275  -27.2569   20.1146 C   0  0  0  0  0  0
  -25.5940  -33.8551   24.2246 N   0  0  0  0  0  0
  -23.4310  -30.4771   21.5411 C   0  0  2  0  0  0
  -24.8797  -28.9260   20.1072 C   0  0  0  0  0  0
  -22.7517  -29.4597   22.4900 C   0  0  0  0  0  0
  -18.0295  -28.1390   22.8480 C   0  0  0  0  0  0
  -24.1490  -36.7280   23.2640 C   0  0  0  0  0  0
  -25.9791  -30.7640   21.3797 C   0  0  0  0  0  0
  -26.0533  -29.3871   20.7183 C   0  0  0  0  0  0
  -27.2280  -28.5634   20.7163 C   0  0  0  0  0  0
  -26.0207  -26.8615   19.4909 C   0  0  0  0  0  0
  -24.8685  -27.6701   19.4844 C   0  0  0  0  0  0
  -23.6502  -29.8130   20.1569 C   0  0  0  0  0  0
  -25.4117  -36.3064   24.0323 C   0  0  1  0  0  0
  -20.5902  -28.3704   23.1261 C   0  0  2  0  0  0
  -20.6782  -26.9418   22.5406 C   0  0  0  0  0  0
  -19.5756  -26.6383   21.5211 C   0  0  0  0  0  0
  -18.1938  -26.7931   22.1623 C   0  0  0  0  0  0
  -19.1550  -28.8863   23.2866 C   0  0  0  0  0  0
  -18.9468  -30.1463   23.8885 C   0  0  0  0  0  0
  -17.6467  -30.6589   24.0561 C   0  0  0  0  0  0
  -25.9060  -34.9437   23.5086 C   0  0  0  0  0  0
  -16.5358  -29.9084   23.6334 C   0  0  0  0  0  0
  -16.7281  -28.6504   23.0351 C   0  0  0  0  0  0
  -26.4510  -31.6580   25.0724 C   0  0  0  0  0  0
  -25.3723  -31.3733   26.1436 C   0  0  0  0  0  0
  -27.0359  -30.2992   24.6227 C   0  0  0  0  0  0
  -27.6057  -32.4325   25.7504 C   0  0  0  0  0  0
  -27.5577  -37.1795   24.8465 C   0  0  0  0  0  0
  -21.4221  -29.3045   22.3646 N   0  0  0  0  0  0
  -26.4287  -37.3766   23.9408 N   0  0  0  0  0  0
  -24.7001  -31.0496   22.0954 N   0  0  0  0  0  0
  -23.4209  -28.8136   23.3006 O   0  0  0  0  0  0
  -28.2929  -26.3207   20.1966 O   0  0  0  0  0  0
  -26.5635  -34.8914   22.4657 O   0  0  0  0  0  0
  -23.5476  -32.1370   23.7257 O   0  0  0  0  0  0
  -30.2089  -19.6829   20.9362 C   0  0  0  0  0  0
  -30.4495  -18.2798   21.1788 C   0  0  0  0  0  0
  -28.4786  -19.1033   19.3727 C   0  0  0  0  0  0
  -29.2208  -20.1558   20.0178 C   0  0  0  0  0  0
  -29.7174  -17.2418   20.5249 C   0  0  0  0  0  0
  -28.7179  -17.7071   19.6323 C   0  0  0  0  0  0
  -28.4055  -25.3032   19.2175 C   0  0  0  0  0  0
  -27.4413  -19.4360   18.3586 C   0  0  0  0  0  0
  -28.6631  -23.9275   19.1575 C   0  0  0  0  0  0
  -28.9566  -22.8503   20.1853 C   0  0  0  0  0  0
  -25.4955  -18.1077   17.4037 C   0  0  0  0  0  0
  -25.0718  -20.0607   18.9782 C   0  0  0  0  0  0
  -26.0200  -18.9067   18.6099 C   0  0  0  0  0  0
  -29.0214  -21.5833   19.6133 N   0  0  0  0  0  0
  -29.7623  -15.7955   20.8630 N   0  0  0  0  0  0
  -27.6546  -20.1716   17.3888 O   0  0  0  0  0  0
  -29.1240  -23.0384   21.3909 O   0  0  0  0  0  0
  -28.6387  -23.4566   17.8956 O   0  0  0  0  0  0
  -27.9619  -16.7637   19.0144 F   0  0  0  0  0  0
  -31.4846  -12.6047   19.1652 H   0  0  0  0  0  0
  -30.4077  -11.4722   19.9339 H   0  0  0  0  0  0
  -29.7997  -11.7591   17.5092 H   0  0  0  0  0  0
  -29.6377  -13.4827   17.7340 H   0  0  0  0  0  0
  -27.8948  -11.2871   18.8955 H   0  0  0  0  0  0
  -27.3843  -12.5448   17.8001 H   0  0  0  0  0  0
  -27.6528  -14.2503   19.4939 H   0  0  0  0  0  0
  -28.7304  -12.1065   21.3917 H   0  0  0  0  0  0
  -28.4201  -13.7617   21.8322 H   0  0  0  0  0  0
  -25.2762   -9.5691   22.4760 H   0  0  0  0  0  0
  -24.0008   -7.4637   22.7471 H   0  0  0  0  0  0
  -21.0846   -8.8780   19.8951 H   0  0  0  0  0  0
  -22.3698  -10.9683   19.6169 H   0  0  0  0  0  0
  -21.2005   -7.6149   23.9719 H   0  0  0  0  0  0
  -21.1482   -6.0520   25.9079 H   0  0  0  0  0  0
  -22.0598   -2.7609   23.2843 H   0  0  0  0  0  0
  -22.4102  -11.9897   22.4803 H   0  0  0  0  0  0
  -21.1111  -13.1268   22.2614 H   0  0  0  0  0  0
  -24.6522  -15.8364   20.4924 H   0  0  0  0  0  0
  -26.2571  -15.6161   20.0080 H   0  0  0  0  0  0
  -26.7219  -32.5393   23.1068 H   0  0  0  0  0  0
  -25.0075  -33.9689   25.0382 H   0  0  0  0  0  0
  -22.7278  -31.2996   21.3951 H   0  0  0  0  0  0
  -23.3754  -35.9611   23.3299 H   0  0  0  0  0  0
  -24.3579  -36.8908   22.2055 H   0  0  0  0  0  0
  -23.7242  -37.6477   23.6672 H   0  0  0  0  0  0
  -26.1207  -31.5257   20.6117 H   0  0  0  0  0  0
  -26.8549  -30.8114   22.0150 H   0  0  0  0  0  0
  -28.1224  -28.9073   21.2164 H   0  0  0  0  0  0
  -25.9342  -25.8866   19.0339 H   0  0  0  0  0  0
  -23.9671  -27.3052   19.0115 H   0  0  0  0  0  0
  -23.7745  -30.5904   19.4023 H   0  0  0  0  0  0
  -22.7681  -29.2474   19.8511 H   0  0  0  0  0  0
  -25.1301  -36.1904   25.0816 H   0  0  0  0  0  0
  -20.9994  -28.3282   24.1382 H   0  0  0  0  0  0
  -20.5678  -26.2315   23.3615 H   0  0  0  0  0  0
  -21.6649  -26.7435   22.1201 H   0  0  0  0  0  0
  -19.6919  -25.6291   21.1247 H   0  0  0  0  0  0
  -19.6693  -27.3187   20.6736 H   0  0  0  0  0  0
  -17.4207  -26.6673   21.4028 H   0  0  0  0  0  0
  -18.0340  -26.0078   22.9024 H   0  0  0  0  0  0
  -19.7943  -30.7282   24.2249 H   0  0  0  0  0  0
  -17.5020  -31.6268   24.5163 H   0  0  0  0  0  0
  -15.5356  -30.2978   23.7670 H   0  0  0  0  0  0
  -15.8682  -28.0819   22.7068 H   0  0  0  0  0  0
  -24.5908  -30.7075   25.7758 H   0  0  0  0  0  0
  -24.8905  -32.2903   26.4839 H   0  0  0  0  0  0
  -25.8032  -30.8923   27.0227 H   0  0  0  0  0  0
  -26.2948  -29.6734   24.1240 H   0  0  0  0  0  0
  -27.4018  -29.7262   25.4757 H   0  0  0  0  0  0
  -27.8839  -30.4256   23.9492 H   0  0  0  0  0  0
  -27.2661  -33.3632   26.2063 H   0  0  0  0  0  0
  -28.3882  -32.6873   25.0344 H   0  0  0  0  0  0
  -28.0714  -31.8462   26.5436 H   0  0  0  0  0  0
  -28.2591  -38.0095   24.7510 H   0  0  0  0  0  0
  -28.1074  -36.2624   24.6291 H   0  0  0  0  0  0
  -27.2296  -37.1444   25.8868 H   0  0  0  0  0  0
  -20.9411  -29.8771   21.6851 H   0  0  0  0  0  0
  -26.0162  -38.2838   24.1410 H   0  0  0  0  0  0
  -30.8193  -20.4057   21.4596 H   0  0  0  0  0  0
  -31.1994  -18.0063   21.9071 H   0  0  0  0  0  0
  -28.2395  -25.7916   18.2661 H   0  0  0  0  0  0
  -26.1772  -17.2991   17.1366 H   0  0  0  0  0  0
  -25.3736  -18.7423   16.5250 H   0  0  0  0  0  0
  -24.5279  -17.6573   17.6253 H   0  0  0  0  0  0
  -25.4480  -20.6253   19.8325 H   0  0  0  0  0  0
  -24.0837  -19.6851   19.2441 H   0  0  0  0  0  0
  -24.9494  -20.7582   18.1484 H   0  0  0  0  0  0
  -26.0632  -18.2343   19.4668 H   0  0  0  0  0  0
  -28.7817  -21.6933   18.6320 H   0  0  0  0  0  0
  -28.8564  -15.4386   21.1245 H   0  0  0  0  0  0
  -28.4611  -24.1860   17.3167 H   0  0  0  0  0  0
  1 25  1  0  0  0
  1 30  2  0  0  0
  1 85  1  0  0  0
  2  3  1  0  0  0
  2 25  1  0  0  0
  2 90  1  0  0  0
  2 91  1  0  0  0
  3  4  1  0  0  0
  3 92  1  0  0  0
  3 93  1  0  0  0
  4  5  1  0  0  0
  4 94  1  0  0  0
  4 95  1  0  0  0
  5  6  1  0  0  0
  5 26  1  0  0  0
  5 96  1  0  0  0
  6 25  1  0  0  0
  6 97  1  0  0  0
  6 98  1  0  0  0
  7  8  2  0  0  0
  7 26  1  0  0  0
  7 29  1  0  0  0
  8  9  1  0  0  0
  8 22  1  0  0  0
  9 10  1  0  0  0
  9 27  2  0  0  0
 10 11  2  0  0  0
 10 15  1  0  0  0
 11 12  1  0  0  0
 11 99  1  0  0  0
 12 13  2  0  0  0
 12100  1  0  0  0
 13 14  1  0  0  0
 13 31  1  0  0  0
 14 15  2  0  0  0
 14101  1  0  0  0
 15102  1  0  0  0
 16 17  2  0  0  0
 16 21  1  0  0  0
 16 31  1  0  0  0
 17 18  1  0  0  0
 17103  1  0  0  0
 18 19  2  0  0  0
 18104  1  0  0  0
 19 20  1  0  0  0
 19 24  1  0  0  0
 20 21  2  0  0  0
 20105  1  0  0  0
 21 23  1  0  0  0
 22 28  1  0  0  0
 22 32  2  0  0  0
 26 27  1  0  0  0
 28106  1  0  0  0
 28107  1  0  0  0
 29108  1  0  0  0
 29109  1  0  0  0
 33 34  1  0  0  0
 33 66  1  0  0  0
 33 70  2  0  0  0
 34 36  1  0  0  0
 34 59  1  0  0  0
 34110  1  0  0  0
 35 44  2  0  0  0
 35 45  1  0  0  0
 35 68  1  0  0  0
 36 56  1  0  0  0
 36111  1  0  0  0
 37 39  1  0  0  0
 37 47  1  0  0  0
 37 66  1  0  0  0
 37112  1  0  0  0
 38 43  2  0  0  0
 38 46  1  0  0  0
 38 47  1  0  0  0
 39 64  1  0  0  0
 39 67  2  0  0  0
 40 52  1  0  0  0
 40 53  2  0  0  0
 40 58  1  0  0  0
 41113  1  0  0  0
 41114  1  0  0  0
 41115  1  0  0  0
 41 48  1  0  0  0
 42 43  1  0  0  0
 42 66  1  0  0  0
 42116  1  0  0  0
 42117  1  0  0  0
 43 44  1  0  0  0
 44118  1  0  0  0
 45 46  2  0  0  0
 45119  1  0  0  0
 46120  1  0  0  0
 47121  1  0  0  0
 47122  1  0  0  0
 48 56  1  0  0  0
 48 65  1  0  0  0
 48123  1  0  0  0
 49 50  1  0  0  0
 49 53  1  0  0  0
 49 64  1  0  0  0
 49124  1  0  0  0
 50 51  1  0  0  0
 50125  1  0  0  0
 50126  1  0  0  0
 51 52  1  0  0  0
 51127  1  0  0  0
 51128  1  0  0  0
 52129  1  0  0  0
 52130  1  0  0  0
 53 54  1  0  0  0
 54 55  2  0  0  0
 54131  1  0  0  0
 55 57  1  0  0  0
 55132  1  0  0  0
 56 69  2  0  0  0
 57 58  2  0  0  0
 57133  1  0  0  0
 58134  1  0  0  0
 59 60  1  0  0  0
 59 61  1  0  0  0
 59 62  1  0  0  0
 60135  1  0  0  0
 60136  1  0  0  0
 60137  1  0  0  0
 61138  1  0  0  0
 61139  1  0  0  0
 61140  1  0  0  0
 62141  1  0  0  0
 62142  1  0  0  0
 62143  1  0  0  0
 63 65  1  0  0  0
 63144  1  0  0  0
 63145  1  0  0  0
 63146  1  0  0  0
 64147  1  0  0  0
 65148  1  0  0  0
 68 77  1  0  0  0
 71 72  2  0  0  0
 71 74  1  0  0  0
 71149  1  0  0  0
 72 75  1  0  0  0
 72150  1  0  0  0
 73 74  2  0  0  0
 73 76  1  0  0  0
 73 78  1  0  0  0
 74 84  1  0  0  0
 75 76  2  0  0  0
 75 85  1  0  0  0
 76 89  1  0  0  0
 77 79  2  0  0  0
 77151  1  0  0  0
 78 83  1  0  0  0
 78 86  2  0  0  0
 79 80  1  0  0  0
 79 88  1  0  0  0
 80 84  1  0  0  0
 80 87  2  0  0  0
 81152  1  0  0  0
 81153  1  0  0  0
 81154  1  0  0  0
 81 83  1  0  0  0
 82 83  1  0  0  0
 82155  1  0  0  0
 82156  1  0  0  0
 82157  1  0  0  0
 83158  1  0  0  0
 84159  1  0  0  0
 85160  1  0  0  0
 88161  1  0  0  0
M  ISO  4   1 100  68 101  77 101  85 100
M  END
> <chiral flag>
0

> <version>
0

> <s_m_source_file>
/data/baiqing/PycharmProjects/Reinvent-master-3.2/result/LINK_invent/BTK/process_docking_weight1_custom_product_contain_oxygen_bond_distance_aromatic_linkinvent_7_9_3/rearranged_h_0156.sdf

> <i_m_source_file_index>
84

> <r_mmod_Potential_Energy-OPLS-2005>
245.260528564453

> <r_mmod_Stretch_Energy-OPLS-2005>
119.032417297363

> <r_mmod_Bend_Energy-OPLS-2005>
233.910797119141

> <r_mmod_Torsional_Energy-OPLS-2005>
297.730255126953

> <r_mmod_Improper_Torsional_Energy-OPLS-2005>
7.44509649276733

> <r_mmod_Van_der_Waal_Energy-OPLS-2005>
142.717086791992

> <r_mmod_Electrostatic_Energy-OPLS-2005>
-412.105529785156

> <r_mmod_Solvation_Energy-OPLS-2005>
-233.732269287109

> <b_mmod_Minimization_Converged-OPLS-2005>
0

> <r_mmod_RMS_Derivative-OPLS-2005>
0.385471314191818

$$$$
84
                    3D
 Structure written by MMmdl.
152161  0  0  1  0            999 V2000
  -30.6474  -14.7509   20.4723 C   0  0  0  0  0  0
  -30.4203  -12.4622   19.4847 C   0  0  0  0  0  0
  -29.5052  -12.4985   18.2425 C   0  0  0  0  0  0
  -28.0354  -12.3177   18.6622 C   0  0  0  0  0  0
  -27.6371  -13.2363   19.8483 C   0  0  2  0  0  0
  -28.6802  -13.2043   20.9871 C   0  0  0  0  0  0
  -25.2485  -13.8205   20.5708 C   0  0  0  0  0  0
  -24.1783  -13.0444   20.9216 C   0  0  0  0  0  0
  -24.6383  -11.6926   20.8757 C   0  0  0  0  0  0
  -23.9061  -10.4291   21.0411 C   0  0  0  0  0  0
  -24.3613   -9.4207   21.9190 C   0  0  0  0  0  0
  -23.6291   -8.2244   22.0758 C   0  0  0  0  0  0
  -22.4275   -8.0280   21.3548 C   0  0  0  0  0  0
  -21.9909   -9.0248   20.4648 C   0  0  0  0  0  0
  -22.7234  -10.2131   20.3058 C   0  0  0  0  0  0
  -21.6852   -6.0736   22.5277 C   0  0  0  0  0  0
  -21.4016   -6.5640   23.8210 C   0  0  0  0  0  0
  -21.3659   -5.6794   24.9171 C   0  0  0  0  0  0
  -21.6042   -4.3056   24.7224 C   0  0  0  0  0  0
  -21.8818   -3.8146   23.4345 C   0  0  0  0  0  0
  -21.9192   -4.6960   22.3404 C   0  0  0  0  0  0
  -22.7804  -13.5219   21.1871 C   0  0  0  0  0  0
  -22.1660   -4.2148   21.0980 F   0  0  0  0  0  0
  -21.5626   -3.4543   25.7739 F   0  0  0  0  0  0
  -29.9786  -13.5467   20.3974 N   0  0  0  0  0  0
  -26.2913  -12.9424   20.3288 N   0  0  0  0  0  0
  -25.9319  -11.6562   20.5772 N   0  0  0  0  0  0
  -22.0455  -12.8208   22.0428 N   0  0  0  0  0  0
  -25.4170  -15.1931   20.4133 N   0  0  0  0  0  0
  -31.8326  -14.7904   20.1341 O   0  0  0  0  0  0
  -21.6641   -6.8879   21.4240 O   0  0  0  0  0  0
  -22.3492  -14.5523   20.6712 O   0  0  0  0  0  0
  -24.6355  -31.8526   23.1984 C   0  0  0  0  0  0
  -25.9163  -32.4742   23.8336 C   0  0  1  0  0  0
  -27.2118  -27.2315   20.1328 C   0  0  0  0  0  0
  -25.5935  -33.8545   24.2244 N   0  0  0  0  0  0
  -23.4337  -30.4773   21.5415 C   0  0  2  0  0  0
  -24.8811  -28.9281   20.1067 C   0  0  0  0  0  0
  -22.7531  -29.4588   22.4894 C   0  0  0  0  0  0
  -18.0292  -28.1385   22.8482 C   0  0  0  0  0  0
  -24.1488  -36.7272   23.2642 C   0  0  0  0  0  0
  -25.9858  -30.7561   21.3866 C   0  0  0  0  0  0
  -26.0559  -29.3799   20.7217 C   0  0  0  0  0  0
  -27.2249  -28.5459   20.7215 C   0  0  0  0  0  0
  -26.0166  -26.8679   19.4693 C   0  0  0  0  0  0
  -24.8694  -27.6811   19.4673 C   0  0  0  0  0  0
  -23.6532  -29.8170   20.1565 C   0  0  0  0  0  0
  -25.4121  -36.3054   24.0317 C   0  0  1  0  0  0
  -20.5907  -28.3699   23.1257 C   0  0  2  0  0  0
  -20.6776  -26.9410   22.5403 C   0  0  0  0  0  0
  -19.5744  -26.6376   21.5211 C   0  0  0  0  0  0
  -18.1927  -26.7925   22.1624 C   0  0  0  0  0  0
  -19.1552  -28.8860   23.2857 C   0  0  0  0  0  0
  -18.9467  -30.1456   23.8879 C   0  0  0  0  0  0
  -17.6464  -30.6587   24.0556 C   0  0  0  0  0  0
  -25.9067  -34.9427   23.5086 C   0  0  0  0  0  0
  -16.5355  -29.9083   23.6337 C   0  0  0  0  0  0
  -16.7281  -28.6499   23.0362 C   0  0  0  0  0  0
  -26.4512  -31.6595   25.0750 C   0  0  0  0  0  0
  -25.3722  -31.3743   26.1462 C   0  0  0  0  0  0
  -27.0376  -30.3000   24.6299 C   0  0  0  0  0  0
  -27.6052  -32.4372   25.7514 C   0  0  0  0  0  0
  -27.5574  -37.1787   24.8467 C   0  0  0  0  0  0
  -21.4235  -29.3039   22.3641 N   0  0  0  0  0  0
  -26.4288  -37.3762   23.9405 N   0  0  0  0  0  0
  -24.7038  -31.0481   22.0965 N   0  0  0  0  0  0
  -23.4228  -28.8120   23.2994 O   0  0  0  0  0  0
  -28.2758  -26.2909   20.2250 O   0  0  0  0  0  0
  -26.5647  -34.8895   22.4663 O   0  0  0  0  0  0
  -23.5496  -32.1352   23.7262 O   0  0  0  0  0  0
  -29.3458  -19.8216   20.1227 C   0  0  0  0  0  0
  -29.9579  -18.7574   20.9463 C   0  0  0  0  0  0
  -30.2474  -19.2731   22.1636 C   0  0  0  0  0  0
  -29.2384  -21.1105   20.7173 C   0  0  0  0  0  0
  -28.8975  -23.6629   20.5854 C   0  0  0  0  0  0
  -31.0375  -18.4013   23.0499 C   0  0  0  0  0  0
  -31.5667  -17.3293   22.0746 C   0  0  0  0  0  0
  -30.6474  -17.3236   20.8063 C   0  0  1  0  0  0
  -27.9829  -24.8252   19.9475 C   0  0  0  0  0  0
  -28.7339  -22.3263   20.2034 N   0  0  0  0  0  0
  -29.9775  -15.9428   20.7509 N   0  0  0  0  0  0
  -29.7495  -23.9907   21.4153 O   0  0  0  0  0  0
  -29.8483  -20.9669   22.3656 S   0  0  0  0  0  0
  -31.4649  -12.5607   19.1844 H   0  0  0  0  0  0
  -30.3490  -11.4951   19.9856 H   0  0  0  0  0  0
  -29.7911  -11.7148   17.5397 H   0  0  0  0  0  0
  -29.6275  -13.4467   17.7163 H   0  0  0  0  0  0
  -27.9089  -11.2736   18.9496 H   0  0  0  0  0  0
  -27.3717  -12.4798   17.8122 H   0  0  0  0  0  0
  -27.6238  -14.2504   19.4481 H   0  0  0  0  0  0
  -28.7190  -12.2195   21.4551 H   0  0  0  0  0  0
  -28.4127  -13.9104   21.7752 H   0  0  0  0  0  0
  -25.2755   -9.5694   22.4769 H   0  0  0  0  0  0
  -23.9997   -7.4644   22.7485 H   0  0  0  0  0  0
  -21.0839   -8.8769   19.8957 H   0  0  0  0  0  0
  -22.3689  -10.9671   19.6172 H   0  0  0  0  0  0
  -21.2011   -7.6149   23.9715 H   0  0  0  0  0  0
  -21.1479   -6.0525   25.9076 H   0  0  0  0  0  0
  -22.0595   -2.7611   23.2847 H   0  0  0  0  0  0
  -22.4079  -11.9871   22.4809 H   0  0  0  0  0  0
  -21.1078  -13.1228   22.2647 H   0  0  0  0  0  0
  -24.6486  -15.8458   20.5232 H   0  0  0  0  0  0
  -26.2659  -15.6343   20.0840 H   0  0  0  0  0  0
  -26.7232  -32.5360   23.1071 H   0  0  0  0  0  0
  -25.0049  -33.9687   25.0363 H   0  0  0  0  0  0
  -22.7291  -31.2988   21.3970 H   0  0  0  0  0  0
  -23.3747  -35.9609   23.3321 H   0  0  0  0  0  0
  -24.3566  -36.8893   22.2053 H   0  0  0  0  0  0
  -23.7251  -37.6471   23.6676 H   0  0  0  0  0  0
  -26.1414  -31.5209   20.6247 H   0  0  0  0  0  0
  -26.8552  -30.7918   22.0311 H   0  0  0  0  0  0
  -28.1223  -28.8853   21.2195 H   0  0  0  0  0  0
  -25.9241  -25.9213   18.9579 H   0  0  0  0  0  0
  -23.9725  -27.3332   18.9726 H   0  0  0  0  0  0
  -23.7794  -30.5954   19.4036 H   0  0  0  0  0  0
  -22.7705  -29.2537   19.8489 H   0  0  0  0  0  0
  -25.1306  -36.1886   25.0808 H   0  0  0  0  0  0
  -20.9993  -28.3276   24.1378 H   0  0  0  0  0  0
  -20.5672  -26.2304   23.3608 H   0  0  0  0  0  0
  -21.6639  -26.7419   22.1193 H   0  0  0  0  0  0
  -19.6899  -25.6288   21.1239 H   0  0  0  0  0  0
  -19.6682  -27.3182   20.6738 H   0  0  0  0  0  0
  -17.4196  -26.6672   21.4026 H   0  0  0  0  0  0
  -18.0318  -26.0066   22.9014 H   0  0  0  0  0  0
  -19.7945  -30.7268   24.2246 H   0  0  0  0  0  0
  -17.5024  -31.6269   24.5151 H   0  0  0  0  0  0
  -15.5354  -30.2972   23.7684 H   0  0  0  0  0  0
  -15.8677  -28.0813   22.7097 H   0  0  0  0  0  0
  -24.5911  -30.7084   25.7779 H   0  0  0  0  0  0
  -24.8896  -32.2903   26.4880 H   0  0  0  0  0  0
  -25.8029  -30.8923   27.0248 H   0  0  0  0  0  0
  -26.2988  -29.6721   24.1308 H   0  0  0  0  0  0
  -27.3998  -29.7299   25.4863 H   0  0  0  0  0  0
  -27.8888  -30.4246   23.9605 H   0  0  0  0  0  0
  -27.2657  -33.3697   26.2041 H   0  0  0  0  0  0
  -28.3872  -32.6912   25.0344 H   0  0  0  0  0  0
  -28.0711  -31.8539   26.5466 H   0  0  0  0  0  0
  -28.2593  -38.0079   24.7516 H   0  0  0  0  0  0
  -28.1067  -36.2612   24.6307 H   0  0  0  0  0  0
  -27.2286  -37.1458   25.8866 H   0  0  0  0  0  0
  -20.9428  -29.8771   21.6847 H   0  0  0  0  0  0
  -26.0157  -38.2829   24.1412 H   0  0  0  0  0  0
  -29.0825  -19.6221   19.0937 H   0  0  0  0  0  0
  -30.3947  -17.9598   23.8124 H   0  0  0  0  0  0
  -31.8456  -18.9378   23.5490 H   0  0  0  0  0  0
  -31.6940  -16.3637   22.5643 H   0  0  0  0  0  0
  -32.5646  -17.6364   21.7576 H   0  0  0  0  0  0
  -31.2900  -17.3651   19.9252 H   0  0  0  0  0  0
  -26.9863  -24.5888   20.3220 H   0  0  0  0  0  0
  -27.9577  -24.6775   18.8680 H   0  0  0  0  0  0
  -28.1032  -22.2143   19.4205 H   0  0  0  0  0  0
  -28.9942  -15.8930   20.9691 H   0  0  0  0  0  0
  1 25  1  0  0  0
  1 30  2  0  0  0
  1 81  1  0  0  0
  2  3  1  0  0  0
  2 25  1  0  0  0
  2 84  1  0  0  0
  2 85  1  0  0  0
  3  4  1  0  0  0
  3 86  1  0  0  0
  3 87  1  0  0  0
  4  5  1  0  0  0
  4 88  1  0  0  0
  4 89  1  0  0  0
  5  6  1  0  0  0
  5 26  1  0  0  0
  5 90  1  0  0  0
  6 25  1  0  0  0
  6 91  1  0  0  0
  6 92  1  0  0  0
  7  8  2  0  0  0
  7 26  1  0  0  0
  7 29  1  0  0  0
  8  9  1  0  0  0
  8 22  1  0  0  0
  9 10  1  0  0  0
  9 27  2  0  0  0
 10 11  2  0  0  0
 10 15  1  0  0  0
 11 12  1  0  0  0
 11 93  1  0  0  0
 12 13  2  0  0  0
 12 94  1  0  0  0
 13 14  1  0  0  0
 13 31  1  0  0  0
 14 15  2  0  0  0
 14 95  1  0  0  0
 15 96  1  0  0  0
 16 17  2  0  0  0
 16 21  1  0  0  0
 16 31  1  0  0  0
 17 18  1  0  0  0
 17 97  1  0  0  0
 18 19  2  0  0  0
 18 98  1  0  0  0
 19 20  1  0  0  0
 19 24  1  0  0  0
 20 21  2  0  0  0
 20 99  1  0  0  0
 21 23  1  0  0  0
 22 28  1  0  0  0
 22 32  2  0  0  0
 26 27  1  0  0  0
 28100  1  0  0  0
 28101  1  0  0  0
 29102  1  0  0  0
 29103  1  0  0  0
 33 34  1  0  0  0
 33 66  1  0  0  0
 33 70  2  0  0  0
 34 36  1  0  0  0
 34 59  1  0  0  0
 34104  1  0  0  0
 35 44  2  0  0  0
 35 45  1  0  0  0
 35 68  1  0  0  0
 36 56  1  0  0  0
 36105  1  0  0  0
 37 39  1  0  0  0
 37 47  1  0  0  0
 37 66  1  0  0  0
 37106  1  0  0  0
 38 43  2  0  0  0
 38 46  1  0  0  0
 38 47  1  0  0  0
 39 64  1  0  0  0
 39 67  2  0  0  0
 40 52  1  0  0  0
 40 53  2  0  0  0
 40 58  1  0  0  0
 41107  1  0  0  0
 41108  1  0  0  0
 41109  1  0  0  0
 41 48  1  0  0  0
 42 43  1  0  0  0
 42 66  1  0  0  0
 42110  1  0  0  0
 42111  1  0  0  0
 43 44  1  0  0  0
 44112  1  0  0  0
 45 46  2  0  0  0
 45113  1  0  0  0
 46114  1  0  0  0
 47115  1  0  0  0
 47116  1  0  0  0
 48 56  1  0  0  0
 48 65  1  0  0  0
 48117  1  0  0  0
 49 50  1  0  0  0
 49 53  1  0  0  0
 49 64  1  0  0  0
 49118  1  0  0  0
 50 51  1  0  0  0
 50119  1  0  0  0
 50120  1  0  0  0
 51 52  1  0  0  0
 51121  1  0  0  0
 51122  1  0  0  0
 52123  1  0  0  0
 52124  1  0  0  0
 53 54  1  0  0  0
 54 55  2  0  0  0
 54125  1  0  0  0
 55 57  1  0  0  0
 55126  1  0  0  0
 56 69  2  0  0  0
 57 58  2  0  0  0
 57127  1  0  0  0
 58128  1  0  0  0
 59 60  1  0  0  0
 59 61  1  0  0  0
 59 62  1  0  0  0
 60129  1  0  0  0
 60130  1  0  0  0
 60131  1  0  0  0
 61132  1  0  0  0
 61133  1  0  0  0
 61134  1  0  0  0
 62135  1  0  0  0
 62136  1  0  0  0
 62137  1  0  0  0
 63 65  1  0  0  0
 63138  1  0  0  0
 63139  1  0  0  0
 63140  1  0  0  0
 64141  1  0  0  0
 65142  1  0  0  0
 68 79  1  0  0  0
 71 72  1  0  0  0
 71 74  2  0  0  0
 71143  1  0  0  0
 72 73  2  0  0  0
 72 78  1  0  0  0
 73 76  1  0  0  0
 73 83  1  0  0  0
 74 80  1  0  0  0
 74 83  1  0  0  0
 75 79  1  0  0  0
 75 80  1  0  0  0
 75 82  2  0  0  0
 76 77  1  0  0  0
 76144  1  0  0  0
 76145  1  0  0  0
 77 78  1  0  0  0
 77146  1  0  0  0
 77147  1  0  0  0
 78 81  1  0  0  0
 78148  1  0  0  0
 79149  1  0  0  0
 79150  1  0  0  0
 80151  1  0  0  0
 81152  1  0  0  0
M  ISO  4   1 100  68 101  79 101  81 100
M  END
> <chiral flag>
0

> <version>
0

> <s_m_source_file>
/data/baiqing/PycharmProjects/Reinvent-master-3.2/result/LINK_invent/BTK/process_docking_weight1_custom_product_contain_oxygen_bond_distance_aromatic_linkinvent_7_9_3/rearranged_h_0156.sdf

> <i_m_source_file_index>
85

> <r_mmod_Potential_Energy-OPLS-2005>
188.786682128906

> <r_mmod_Stretch_Energy-OPLS-2005>
136.316436767578

> <r_mmod_Bend_Energy-OPLS-2005>
261.216094970703

> <r_mmod_Torsional_Energy-OPLS-2005>
219.968292236328

> <r_mmod_Improper_Torsional_Energy-OPLS-2005>
7.53589963912964

> <r_mmod_Van_der_Waal_Energy-OPLS-2005>
124.544410705566

> <r_mmod_Electrostatic_Energy-OPLS-2005>
-411.174926757812

> <r_mmod_Solvation_Energy-OPLS-2005>
-250.350448608398

> <b_mmod_Minimization_Converged-OPLS-2005>
0

> <r_mmod_RMS_Derivative-OPLS-2005>
1.42936515808105

$$$$
85
                    3D
 Structure written by MMmdl.
161169  0  0  1  0            999 V2000
  -30.6499  -14.5102   20.5415 C   0  0  0  0  0  0
  -30.4301  -12.3021   19.4681 C   0  0  0  0  0  0
  -29.5189  -12.4730   18.2313 C   0  0  0  0  0  0
  -28.0314  -12.3551   18.6156 C   0  0  0  0  0  0
  -27.6639  -13.1960   19.8714 C   0  0  2  0  0  0
  -28.6917  -13.0007   21.0103 C   0  0  0  0  0  0
  -25.2670  -13.8152   20.5669 C   0  0  0  0  0  0
  -24.1897  -13.0458   20.9165 C   0  0  0  0  0  0
  -24.6394  -11.6894   20.8710 C   0  0  0  0  0  0
  -23.9051  -10.4308   21.0403 C   0  0  0  0  0  0
  -24.3625   -9.4248   21.9186 C   0  0  0  0  0  0
  -23.6320   -8.2266   22.0775 C   0  0  0  0  0  0
  -22.4301   -8.0307   21.3569 C   0  0  0  0  0  0
  -21.9920   -9.0251   20.4649 C   0  0  0  0  0  0
  -22.7222  -10.2133   20.3061 C   0  0  0  0  0  0
  -21.6852   -6.0783   22.5289 C   0  0  0  0  0  0
  -21.3998   -6.5674   23.8220 C   0  0  0  0  0  0
  -21.3658   -5.6816   24.9173 C   0  0  0  0  0  0
  -21.6027   -4.3090   24.7218 C   0  0  0  0  0  0
  -21.8824   -3.8188   23.4330 C   0  0  0  0  0  0
  -21.9196   -4.7011   22.3392 C   0  0  0  0  0  0
  -22.7927  -13.5304   21.1800 C   0  0  0  0  0  0
  -22.1681   -4.2206   21.0973 F   0  0  0  0  0  0
  -21.5631   -3.4564   25.7731 F   0  0  0  0  0  0
  -30.0246  -13.3025   20.4690 N   0  0  0  0  0  0
  -26.3034  -12.9250   20.3275 N   0  0  0  0  0  0
  -25.9304  -11.6428   20.5646 N   0  0  0  0  0  0
  -22.0570  -12.8282   22.0344 N   0  0  0  0  0  0
  -25.4552  -15.1842   20.4087 N   0  0  0  0  0  0
  -31.7909  -14.6952   20.1049 O   0  0  0  0  0  0
  -21.6650   -6.8924   21.4259 O   0  0  0  0  0  0
  -22.3624  -14.5608   20.6668 O   0  0  0  0  0  0
  -24.6214  -31.8651   23.2053 C   0  0  0  0  0  0
  -25.9092  -32.4798   23.8364 C   0  0  1  0  0  0
  -27.2246  -27.3724   20.0994 C   0  0  0  0  0  0
  -25.5938  -33.8600   24.2299 N   0  0  0  0  0  0
  -23.4117  -30.4900   21.5496 C   0  0  2  0  0  0
  -24.8568  -28.9486   20.1143 C   0  0  0  0  0  0
  -22.7436  -29.4666   22.4970 C   0  0  0  0  0  0
  -18.0274  -28.1390   22.8502 C   0  0  0  0  0  0
  -24.1505  -36.7293   23.2635 C   0  0  0  0  0  0
  -25.9505  -30.8044   21.3760 C   0  0  0  0  0  0
  -26.0225  -29.4376   20.7171 C   0  0  0  0  0  0
  -27.2096  -28.6588   20.7038 C   0  0  0  0  0  0
  -26.0398  -26.9209   19.4739 C   0  0  0  0  0  0
  -24.8633  -27.6934   19.4890 C   0  0  0  0  0  0
  -23.6239  -29.8249   20.1651 C   0  0  0  0  0  0
  -25.4128  -36.3088   24.0327 C   0  0  1  0  0  0
  -20.5875  -28.3696   23.1295 C   0  0  2  0  0  0
  -20.6790  -26.9426   22.5428 C   0  0  0  0  0  0
  -19.5763  -26.6386   21.5232 C   0  0  0  0  0  0
  -18.1931  -26.7935   22.1626 C   0  0  0  0  0  0
  -19.1533  -28.8850   23.2898 C   0  0  0  0  0  0
  -18.9464  -30.1457   23.8901 C   0  0  0  0  0  0
  -17.6478  -30.6603   24.0572 C   0  0  0  0  0  0
  -25.9058  -34.9458   23.5096 C   0  0  0  0  0  0
  -16.5362  -29.9113   23.6351 C   0  0  0  0  0  0
  -16.7273  -28.6534   23.0363 C   0  0  0  0  0  0
  -26.4498  -31.6586   25.0710 C   0  0  0  0  0  0
  -25.3722  -31.3721   26.1418 C   0  0  0  0  0  0
  -27.0376  -30.3029   24.6154 C   0  0  0  0  0  0
  -27.6084  -32.4303   25.7468 C   0  0  0  0  0  0
  -27.5598  -37.1791   24.8456 C   0  0  0  0  0  0
  -21.4153  -29.3055   22.3694 N   0  0  0  0  0  0
  -26.4310  -37.3786   23.9398 N   0  0  0  0  0  0
  -24.6800  -31.0686   22.0999 N   0  0  0  0  0  0
  -23.4186  -28.8199   23.3014 O   0  0  0  0  0  0
  -28.3668  -26.5795   20.1079 O   0  0  0  0  0  0
  -26.5637  -34.8924   22.4669 O   0  0  0  0  0  0
  -23.5396  -32.1447   23.7397 O   0  0  0  0  0  0
  -29.4172  -16.6177   18.7814 C   0  0  0  0  0  0
  -29.1852  -17.7529   17.9922 C   0  0  0  0  0  0
  -29.6597  -18.0459   20.7363 C   0  0  0  0  0  0
  -29.6760  -16.7420   20.1625 C   0  0  0  0  0  0
  -29.2126  -19.0422   18.5528 C   0  0  0  0  0  0
  -29.4441  -19.2190   19.9465 C   0  0  0  0  0  0
  -29.4715  -24.3123   20.1995 C   0  0  0  0  0  0
  -29.0669  -21.7351   20.3203 C   0  0  0  0  0  0
  -29.0670  -23.1269   22.4412 C   0  0  0  0  0  0
  -31.2332  -22.7684   21.2092 C   0  0  0  0  0  0
  -28.1654  -25.1536   20.3607 C   0  0  0  0  0  0
  -29.6969  -22.9834   21.0319 C   0  0  0  0  0  0
  -29.0305  -20.1112   17.6818 N   0  0  0  0  0  0
  -29.6139  -20.5133   20.5703 N   0  0  0  0  0  0
  -29.8779  -15.5505   20.9426 N   0  0  0  0  0  0
  -30.3310  -24.6919   19.3918 O   0  0  0  0  0  0
  -28.0626  -21.8733   19.6155 O   0  0  0  0  0  0
  -31.4817  -12.3977   19.1852 H   0  0  0  0  0  0
  -30.3278  -11.2976   19.8851 H   0  0  0  0  0  0
  -29.7723  -11.7271   17.4801 H   0  0  0  0  0  0
  -29.7080  -13.4411   17.7653 H   0  0  0  0  0  0
  -27.8103  -11.3010   18.7864 H   0  0  0  0  0  0
  -27.4154  -12.6580   17.7703 H   0  0  0  0  0  0
  -27.7017  -14.2393   19.5622 H   0  0  0  0  0  0
  -28.6664  -11.9747   21.3819 H   0  0  0  0  0  0
  -28.4374  -13.6264   21.8672 H   0  0  0  0  0  0
  -25.2764   -9.5748   22.4751 H   0  0  0  0  0  0
  -24.0045   -7.4646   22.7480 H   0  0  0  0  0  0
  -21.0883   -8.8748   19.8895 H   0  0  0  0  0  0
  -22.3701  -10.9681   19.6184 H   0  0  0  0  0  0
  -21.1981   -7.6180   23.9755 H   0  0  0  0  0  0
  -21.1480   -6.0547   25.9078 H   0  0  0  0  0  0
  -22.0604   -2.7662   23.2816 H   0  0  0  0  0  0
  -22.4156  -11.9902   22.4654 H   0  0  0  0  0  0
  -21.1184  -13.1318   22.2523 H   0  0  0  0  0  0
  -24.7076  -15.8591   20.5241 H   0  0  0  0  0  0
  -26.3223  -15.5994   20.0915 H   0  0  0  0  0  0
  -26.7163  -32.5486   23.1125 H   0  0  0  0  0  0
  -25.0080  -33.9777   25.0436 H   0  0  0  0  0  0
  -22.7040  -31.3094   21.4081 H   0  0  0  0  0  0
  -23.3774  -35.9620   23.3282 H   0  0  0  0  0  0
  -24.3609  -36.8931   22.2058 H   0  0  0  0  0  0
  -23.7261  -37.6485   23.6675 H   0  0  0  0  0  0
  -26.0825  -31.5666   20.6071 H   0  0  0  0  0  0
  -26.8317  -30.8489   22.0059 H   0  0  0  0  0  0
  -28.1066  -29.0267   21.1815 H   0  0  0  0  0  0
  -25.9994  -25.9763   18.9524 H   0  0  0  0  0  0
  -23.9704  -27.3135   19.0125 H   0  0  0  0  0  0
  -23.7446  -30.6010   19.4090 H   0  0  0  0  0  0
  -22.7442  -29.2547   19.8630 H   0  0  0  0  0  0
  -25.1317  -36.1943   25.0828 H   0  0  0  0  0  0
  -20.9981  -28.3285   24.1405 H   0  0  0  0  0  0
  -20.5716  -26.2308   23.3627 H   0  0  0  0  0  0
  -21.6653  -26.7486   22.1194 H   0  0  0  0  0  0
  -19.6924  -25.6288   21.1270 H   0  0  0  0  0  0
  -19.6693  -27.3196   20.6758 H   0  0  0  0  0  0
  -17.4212  -26.6707   21.4018 H   0  0  0  0  0  0
  -18.0304  -26.0083   22.9015 H   0  0  0  0  0  0
  -19.7943  -30.7279   24.2267 H   0  0  0  0  0  0
  -17.5033  -31.6275   24.5170 H   0  0  0  0  0  0
  -15.5365  -30.3019   23.7650 H   0  0  0  0  0  0
  -15.8678  -28.0851   22.7068 H   0  0  0  0  0  0
  -24.5867  -30.7141   25.7688 H   0  0  0  0  0  0
  -24.8950  -32.2895   26.4867 H   0  0  0  0  0  0
  -25.7994  -30.8825   27.0171 H   0  0  0  0  0  0
  -26.2971  -29.6720   24.1231 H   0  0  0  0  0  0
  -27.4159  -29.7339   25.4649 H   0  0  0  0  0  0
  -27.8783  -30.4335   23.9343 H   0  0  0  0  0  0
  -27.2732  -33.3590   26.2091 H   0  0  0  0  0  0
  -28.3863  -32.6870   25.0266 H   0  0  0  0  0  0
  -28.0793  -31.8387   26.5326 H   0  0  0  0  0  0
  -28.2582  -38.0124   24.7558 H   0  0  0  0  0  0
  -28.1133  -36.2649   24.6225 H   0  0  0  0  0  0
  -27.2314  -37.1380   25.8860 H   0  0  0  0  0  0
  -20.9318  -29.8787   21.6921 H   0  0  0  0  0  0
  -26.0177  -38.2852   24.1430 H   0  0  0  0  0  0
  -29.3863  -15.6508   18.3043 H   0  0  0  0  0  0
  -28.9974  -17.6071   16.9378 H   0  0  0  0  0  0
  -29.8409  -18.1529   21.7956 H   0  0  0  0  0  0
  -27.9823  -23.0081   22.4189 H   0  0  0  0  0  0
  -29.2832  -24.1005   22.8839 H   0  0  0  0  0  0
  -29.4475  -22.3777   23.1366 H   0  0  0  0  0  0
  -31.7094  -22.4472   20.2794 H   0  0  0  0  0  0
  -31.4666  -22.0171   21.9657 H   0  0  0  0  0  0
  -31.7454  -23.6795   21.5246 H   0  0  0  0  0  0
  -27.7678  -25.0551   21.3697 H   0  0  0  0  0  0
  -27.4197  -24.7154   19.6960 H   0  0  0  0  0  0
  -28.4451  -19.9097   16.8778 H   0  0  0  0  0  0
  -28.7003  -20.9471   18.1659 H   0  0  0  0  0  0
  -30.2967  -20.5225   21.3126 H   0  0  0  0  0  0
  -29.0806  -15.2808   21.5034 H   0  0  0  0  0  0
  1 25  1  0  0  0
  1 30  2  0  0  0
  1 85  1  0  0  0
  2  3  1  0  0  0
  2 25  1  0  0  0
  2 88  1  0  0  0
  2 89  1  0  0  0
  3  4  1  0  0  0
  3 90  1  0  0  0
  3 91  1  0  0  0
  4  5  1  0  0  0
  4 92  1  0  0  0
  4 93  1  0  0  0
  5  6  1  0  0  0
  5 26  1  0  0  0
  5 94  1  0  0  0
  6 25  1  0  0  0
  6 95  1  0  0  0
  6 96  1  0  0  0
  7  8  2  0  0  0
  7 26  1  0  0  0
  7 29  1  0  0  0
  8  9  1  0  0  0
  8 22  1  0  0  0
  9 10  1  0  0  0
  9 27  2  0  0  0
 10 11  2  0  0  0
 10 15  1  0  0  0
 11 12  1  0  0  0
 11 97  1  0  0  0
 12 13  2  0  0  0
 12 98  1  0  0  0
 13 14  1  0  0  0
 13 31  1  0  0  0
 14 15  2  0  0  0
 14 99  1  0  0  0
 15100  1  0  0  0
 16 17  2  0  0  0
 16 21  1  0  0  0
 16 31  1  0  0  0
 17 18  1  0  0  0
 17101  1  0  0  0
 18 19  2  0  0  0
 18102  1  0  0  0
 19 20  1  0  0  0
 19 24  1  0  0  0
 20 21  2  0  0  0
 20103  1  0  0  0
 21 23  1  0  0  0
 22 28  1  0  0  0
 22 32  2  0  0  0
 26 27  1  0  0  0
 28104  1  0  0  0
 28105  1  0  0  0
 29106  1  0  0  0
 29107  1  0  0  0
 33 34  1  0  0  0
 33 66  1  0  0  0
 33 70  2  0  0  0
 34 36  1  0  0  0
 34 59  1  0  0  0
 34108  1  0  0  0
 35 44  2  0  0  0
 35 45  1  0  0  0
 35 68  1  0  0  0
 36 56  1  0  0  0
 36109  1  0  0  0
 37 39  1  0  0  0
 37 47  1  0  0  0
 37 66  1  0  0  0
 37110  1  0  0  0
 38 43  2  0  0  0
 38 46  1  0  0  0
 38 47  1  0  0  0
 39 64  1  0  0  0
 39 67  2  0  0  0
 40 52  1  0  0  0
 40 53  2  0  0  0
 40 58  1  0  0  0
 41111  1  0  0  0
 41112  1  0  0  0
 41113  1  0  0  0
 41 48  1  0  0  0
 42 43  1  0  0  0
 42 66  1  0  0  0
 42114  1  0  0  0
 42115  1  0  0  0
 43 44  1  0  0  0
 44116  1  0  0  0
 45 46  2  0  0  0
 45117  1  0  0  0
 46118  1  0  0  0
 47119  1  0  0  0
 47120  1  0  0  0
 48 56  1  0  0  0
 48 65  1  0  0  0
 48121  1  0  0  0
 49 50  1  0  0  0
 49 53  1  0  0  0
 49 64  1  0  0  0
 49122  1  0  0  0
 50 51  1  0  0  0
 50123  1  0  0  0
 50124  1  0  0  0
 51 52  1  0  0  0
 51125  1  0  0  0
 51126  1  0  0  0
 52127  1  0  0  0
 52128  1  0  0  0
 53 54  1  0  0  0
 54 55  2  0  0  0
 54129  1  0  0  0
 55 57  1  0  0  0
 55130  1  0  0  0
 56 69  2  0  0  0
 57 58  2  0  0  0
 57131  1  0  0  0
 58132  1  0  0  0
 59 60  1  0  0  0
 59 61  1  0  0  0
 59 62  1  0  0  0
 60133  1  0  0  0
 60134  1  0  0  0
 60135  1  0  0  0
 61136  1  0  0  0
 61137  1  0  0  0
 61138  1  0  0  0
 62139  1  0  0  0
 62140  1  0  0  0
 62141  1  0  0  0
 63 65  1  0  0  0
 63142  1  0  0  0
 63143  1  0  0  0
 63144  1  0  0  0
 64145  1  0  0  0
 65146  1  0  0  0
 68 81  1  0  0  0
 71 72  2  0  0  0
 71 74  1  0  0  0
 71147  1  0  0  0
 72 75  1  0  0  0
 72148  1  0  0  0
 73 74  2  0  0  0
 73 76  1  0  0  0
 73149  1  0  0  0
 74 85  1  0  0  0
 75 76  2  0  0  0
 75 83  1  0  0  0
 76 84  1  0  0  0
 77 81  1  0  0  0
 77 82  1  0  0  0
 77 86  2  0  0  0
 78 82  1  0  0  0
 78 84  1  0  0  0
 78 87  2  0  0  0
 79150  1  0  0  0
 79151  1  0  0  0
 79152  1  0  0  0
 79 82  1  0  0  0
 80 82  1  0  0  0
 80153  1  0  0  0
 80154  1  0  0  0
 80155  1  0  0  0
 81156  1  0  0  0
 81157  1  0  0  0
 83158  1  0  0  0
 83159  1  0  0  0
 84160  1  0  0  0
 85161  1  0  0  0
M  ISO  4   1 100  68 101  81 101  85 100
M  END
> <chiral flag>
0

> <version>
0

> <s_m_source_file>
/data/baiqing/PycharmProjects/Reinvent-master-3.2/result/LINK_invent/BTK/process_docking_weight1_custom_product_contain_oxygen_bond_distance_aromatic_linkinvent_7_9_3/rearranged_h_0156.sdf

> <i_m_source_file_index>
86

> <r_mmod_Potential_Energy-OPLS-2005>
-33.0430297851562

> <r_mmod_Stretch_Energy-OPLS-2005>
59.3215141296387

> <r_mmod_Bend_Energy-OPLS-2005>
112.025466918945

> <r_mmod_Torsional_Energy-OPLS-2005>
313.560729980469

> <r_mmod_Improper_Torsional_Energy-OPLS-2005>
13.2637224197388

> <r_mmod_Van_der_Waal_Energy-OPLS-2005>
167.533676147461

> <r_mmod_Electrostatic_Energy-OPLS-2005>
-472.606872558594

> <r_mmod_Solvation_Energy-OPLS-2005>
-249.133880615234

> <b_mmod_Minimization_Converged-OPLS-2005>
0

> <r_mmod_RMS_Derivative-OPLS-2005>
5.11905956268311

$$$$
86
                    3D
 Structure written by MMmdl.
154163  0  0  1  0            999 V2000
  -30.5755  -14.7720   20.4399 C   0  0  0  0  0  0
  -30.4431  -12.4654   19.4827 C   0  0  0  0  0  0
  -29.5159  -12.5096   18.2462 C   0  0  0  0  0  0
  -28.0417  -12.3307   18.6590 C   0  0  0  0  0  0
  -27.6452  -13.2304   19.8610 C   0  0  2  0  0  0
  -28.6895  -13.1584   20.9977 C   0  0  0  0  0  0
  -25.2562  -13.8168   20.5920 C   0  0  0  0  0  0
  -24.1778  -13.0407   20.9215 C   0  0  0  0  0  0
  -24.6353  -11.6898   20.8686 C   0  0  0  0  0  0
  -23.9024  -10.4292   21.0338 C   0  0  0  0  0  0
  -24.3586   -9.4242   21.9140 C   0  0  0  0  0  0
  -23.6287   -8.2264   22.0727 C   0  0  0  0  0  0
  -22.4255   -8.0279   21.3539 C   0  0  0  0  0  0
  -21.9871   -9.0229   20.4625 C   0  0  0  0  0  0
  -22.7177  -10.2135   20.3012 C   0  0  0  0  0  0
  -21.6871   -6.0737   22.5282 C   0  0  0  0  0  0
  -21.4026   -6.5628   23.8217 C   0  0  0  0  0  0
  -21.3661   -5.6778   24.9168 C   0  0  0  0  0  0
  -21.6043   -4.3040   24.7214 C   0  0  0  0  0  0
  -21.8825   -3.8134   23.4328 C   0  0  0  0  0  0
  -21.9202   -4.6966   22.3387 C   0  0  0  0  0  0
  -22.7813  -13.5236   21.1876 C   0  0  0  0  0  0
  -22.1673   -4.2151   21.0973 F   0  0  0  0  0  0
  -21.5627   -3.4508   25.7714 F   0  0  0  0  0  0
  -29.9950  -13.5198   20.4264 N   0  0  0  0  0  0
  -26.2947  -12.9381   20.3381 N   0  0  0  0  0  0
  -25.9289  -11.6512   20.5691 N   0  0  0  0  0  0
  -22.0426  -12.8228   22.0415 N   0  0  0  0  0  0
  -25.4346  -15.1909   20.4812 N   0  0  0  0  0  0
  -31.7320  -14.9083   20.0283 O   0  0  0  0  0  0
  -21.6644   -6.8862   21.4230 O   0  0  0  0  0  0
  -22.3517  -14.5536   20.6717 O   0  0  0  0  0  0
  -24.6283  -31.8565   23.1985 C   0  0  0  0  0  0
  -25.9107  -32.4772   23.8357 C   0  0  1  0  0  0
  -27.2078  -27.2343   20.1658 C   0  0  0  0  0  0
  -25.5940  -33.8570   24.2308 N   0  0  0  0  0  0
  -23.4299  -30.4782   21.5380 C   0  0  2  0  0  0
  -24.8809  -28.9247   20.1076 C   0  0  0  0  0  0
  -22.7485  -29.4592   22.4846 C   0  0  0  0  0  0
  -18.0306  -28.1352   22.8526 C   0  0  0  0  0  0
  -24.1491  -36.7247   23.2624 C   0  0  0  0  0  0
  -25.9756  -30.7661   21.3807 C   0  0  0  0  0  0
  -26.0504  -29.3859   20.7220 C   0  0  0  0  0  0
  -27.2221  -28.5587   20.7294 C   0  0  0  0  0  0
  -26.0215  -26.8470   19.5096 C   0  0  0  0  0  0
  -24.8724  -27.6664   19.4823 C   0  0  0  0  0  0
  -23.6525  -29.8175   20.1523 C   0  0  0  0  0  0
  -25.4112  -36.3086   24.0363 C   0  0  1  0  0  0
  -20.5922  -28.3665   23.1274 C   0  0  2  0  0  0
  -20.6780  -26.9377   22.5423 C   0  0  0  0  0  0
  -19.5752  -26.6376   21.5218 C   0  0  0  0  0  0
  -18.1940  -26.7909   22.1645 C   0  0  0  0  0  0
  -19.1568  -28.8818   23.2912 C   0  0  0  0  0  0
  -18.9477  -30.1416   23.8939 C   0  0  0  0  0  0
  -17.6475  -30.6591   24.0534 C   0  0  0  0  0  0
  -25.9060  -34.9448   23.5152 C   0  0  0  0  0  0
  -16.5358  -29.9085   23.6325 C   0  0  0  0  0  0
  -16.7284  -28.6472   23.0409 C   0  0  0  0  0  0
  -26.4461  -31.6577   25.0720 C   0  0  0  0  0  0
  -25.3686  -31.3770   26.1447 C   0  0  0  0  0  0
  -27.0211  -30.2964   24.6192 C   0  0  0  0  0  0
  -27.6072  -32.4243   25.7451 C   0  0  0  0  0  0
  -27.5615  -37.1768   24.8445 C   0  0  0  0  0  0
  -21.4190  -29.3029   22.3637 N   0  0  0  0  0  0
  -26.4271  -37.3816   23.9467 N   0  0  0  0  0  0
  -24.6970  -31.0520   22.0951 N   0  0  0  0  0  0
  -23.4181  -28.8098   23.2934 O   0  0  0  0  0  0
  -28.2854  -26.3125   20.2060 O   0  0  0  0  0  0
  -26.5607  -34.8916   22.4704 O   0  0  0  0  0  0
  -23.5450  -32.1372   23.7323 O   0  0  0  0  0  0
  -29.5787  -18.4894   21.2416 C   0  0  0  0  0  0
  -29.8178  -17.8024   19.1409 C   0  0  0  0  0  0
  -29.7900  -17.3007   20.4195 C   0  0  0  0  0  0
  -29.5546  -19.6410   20.4403 C   0  0  0  0  0  0
  -30.5536  -21.9995   19.7482 C   0  0  0  0  0  0
  -30.2137  -23.4985   19.9530 C   0  0  0  0  0  0
  -29.5855  -21.2286   20.6638 C   0  0  1  0  0  0
  -28.6830  -23.5415   20.0897 C   0  0  2  0  0  0
  -28.0517  -24.9091   20.7433 C   0  0  0  0  0  0
  -29.8035  -15.8630   20.8330 N   0  0  0  0  0  0
  -28.3706  -22.1521   20.6915 N   0  3  0  0  0  0
  -29.6660  -19.1841   19.1432 O   0  0  0  0  0  0
  -31.4791  -12.6086   19.1684 H   0  0  0  0  0  0
  -30.4076  -11.4866   19.9614 H   0  0  0  0  0  0
  -29.8003  -11.7369   17.5298 H   0  0  0  0  0  0
  -29.6350  -13.4634   17.7303 H   0  0  0  0  0  0
  -27.9010  -11.2834   18.9281 H   0  0  0  0  0  0
  -27.3782  -12.5177   17.8141 H   0  0  0  0  0  0
  -27.6369  -14.2560   19.4908 H   0  0  0  0  0  0
  -28.7219  -12.1586   21.4303 H   0  0  0  0  0  0
  -28.4149  -13.8265   21.8171 H   0  0  0  0  0  0
  -25.2743   -9.5752   22.4694 H   0  0  0  0  0  0
  -24.0022   -7.4669   22.7456 H   0  0  0  0  0  0
  -21.0795   -8.8723   19.8954 H   0  0  0  0  0  0
  -22.3599  -10.9647   19.6105 H   0  0  0  0  0  0
  -21.2028   -7.6145   23.9709 H   0  0  0  0  0  0
  -21.1477   -6.0512   25.9083 H   0  0  0  0  0  0
  -22.0604   -2.7594   23.2811 H   0  0  0  0  0  0
  -22.4010  -11.9909   22.4846 H   0  0  0  0  0  0
  -21.1043  -13.1267   22.2613 H   0  0  0  0  0  0
  -24.7057  -15.8277   20.7849 H   0  0  0  0  0  0
  -26.3478  -15.6279   20.4351 H   0  0  0  0  0  0
  -26.7111  -32.5396   23.1052 H   0  0  0  0  0  0
  -25.0073  -33.9713   25.0446 H   0  0  0  0  0  0
  -22.7288  -31.3043   21.3928 H   0  0  0  0  0  0
  -23.3814  -35.9506   23.3230 H   0  0  0  0  0  0
  -24.3621  -36.8924   22.2044 H   0  0  0  0  0  0
  -23.7123  -37.6409   23.6624 H   0  0  0  0  0  0
  -26.1281  -31.5322   20.6199 H   0  0  0  0  0  0
  -26.8483  -30.8114   22.0206 H   0  0  0  0  0  0
  -28.1190  -28.9118   21.2175 H   0  0  0  0  0  0
  -25.9671  -25.8816   19.0236 H   0  0  0  0  0  0
  -23.9770  -27.3188   18.9856 H   0  0  0  0  0  0
  -23.7793  -30.5980   19.3975 H   0  0  0  0  0  0
  -22.7696  -29.2572   19.8430 H   0  0  0  0  0  0
  -25.1281  -36.1955   25.0856 H   0  0  0  0  0  0
  -21.0088  -28.3218   24.1364 H   0  0  0  0  0  0
  -20.5657  -26.2257   23.3619 H   0  0  0  0  0  0
  -21.6634  -26.7387   22.1208 H   0  0  0  0  0  0
  -19.6887  -25.6299   21.1231 H   0  0  0  0  0  0
  -19.6682  -27.3187   20.6744 H   0  0  0  0  0  0
  -17.4221  -26.6693   21.4026 H   0  0  0  0  0  0
  -18.0314  -26.0035   22.9023 H   0  0  0  0  0  0
  -19.7932  -30.7231   24.2342 H   0  0  0  0  0  0
  -17.5018  -31.6280   24.5117 H   0  0  0  0  0  0
  -15.5362  -30.3004   23.7595 H   0  0  0  0  0  0
  -15.8679  -28.0760   22.7179 H   0  0  0  0  0  0
  -24.5921  -30.7013   25.7828 H   0  0  0  0  0  0
  -24.8741  -32.2919   26.4713 H   0  0  0  0  0  0
  -25.8026  -30.9108   27.0298 H   0  0  0  0  0  0
  -26.2729  -29.6786   24.1175 H   0  0  0  0  0  0
  -27.3799  -29.7186   25.4725 H   0  0  0  0  0  0
  -27.8698  -30.4208   23.9456 H   0  0  0  0  0  0
  -27.2798  -33.3642   26.1891 H   0  0  0  0  0  0
  -28.3917  -32.6624   25.0256 H   0  0  0  0  0  0
  -28.0601  -31.8367   26.5446 H   0  0  0  0  0  0
  -28.2560  -38.0148   24.7713 H   0  0  0  0  0  0
  -28.1228  -36.2732   24.6022 H   0  0  0  0  0  0
  -27.2386  -37.1088   25.8849 H   0  0  0  0  0  0
  -20.9317  -29.8785   21.6905 H   0  0  0  0  0  0
  -26.0187  -38.2889   24.1588 H   0  0  0  0  0  0
  -29.5122  -18.5091   22.3228 H   0  0  0  0  0  0
  -29.9015  -17.3626   18.1534 H   0  0  0  0  0  0
  -31.5923  -21.7478   19.9657 H   0  0  0  0  0  0
  -30.3647  -21.7291   18.7083 H   0  0  0  0  0  0
  -30.5635  -24.1239   19.1308 H   0  0  0  0  0  0
  -30.6848  -23.8664   20.8667 H   0  0  0  0  0  0
  -29.9996  -21.3508   21.6657 H   0  0  0  0  0  0
  -28.2761  -23.4929   19.0793 H   0  0  0  0  0  0
  -28.3855  -24.9470   21.7798 H   0  0  0  0  0  0
  -26.9758  -24.7483   20.8228 H   0  0  0  0  0  0
  -29.0087  -15.5903   21.3925 H   0  0  0  0  0  0
  -28.0937  -22.2340   21.6568 H   0  0  0  0  0  0
  -27.6080  -21.7183   20.1983 H   0  0  0  0  0  0
  1 25  1  0  0  0
  1 30  2  0  0  0
  1 80  1  0  0  0
  2  3  1  0  0  0
  2 25  1  0  0  0
  2 83  1  0  0  0
  2 84  1  0  0  0
  3  4  1  0  0  0
  3 85  1  0  0  0
  3 86  1  0  0  0
  4  5  1  0  0  0
  4 87  1  0  0  0
  4 88  1  0  0  0
  5  6  1  0  0  0
  5 26  1  0  0  0
  5 89  1  0  0  0
  6 25  1  0  0  0
  6 90  1  0  0  0
  6 91  1  0  0  0
  7  8  2  0  0  0
  7 26  1  0  0  0
  7 29  1  0  0  0
  8  9  1  0  0  0
  8 22  1  0  0  0
  9 10  1  0  0  0
  9 27  2  0  0  0
 10 11  2  0  0  0
 10 15  1  0  0  0
 11 12  1  0  0  0
 11 92  1  0  0  0
 12 13  2  0  0  0
 12 93  1  0  0  0
 13 14  1  0  0  0
 13 31  1  0  0  0
 14 15  2  0  0  0
 14 94  1  0  0  0
 15 95  1  0  0  0
 16 17  2  0  0  0
 16 21  1  0  0  0
 16 31  1  0  0  0
 17 18  1  0  0  0
 17 96  1  0  0  0
 18 19  2  0  0  0
 18 97  1  0  0  0
 19 20  1  0  0  0
 19 24  1  0  0  0
 20 21  2  0  0  0
 20 98  1  0  0  0
 21 23  1  0  0  0
 22 28  1  0  0  0
 22 32  2  0  0  0
 26 27  1  0  0  0
 28 99  1  0  0  0
 28100  1  0  0  0
 29101  1  0  0  0
 29102  1  0  0  0
 33 34  1  0  0  0
 33 66  1  0  0  0
 33 70  2  0  0  0
 34 36  1  0  0  0
 34 59  1  0  0  0
 34103  1  0  0  0
 35 44  2  0  0  0
 35 45  1  0  0  0
 35 68  1  0  0  0
 36 56  1  0  0  0
 36104  1  0  0  0
 37 39  1  0  0  0
 37 47  1  0  0  0
 37 66  1  0  0  0
 37105  1  0  0  0
 38 43  2  0  0  0
 38 46  1  0  0  0
 38 47  1  0  0  0
 39 64  1  0  0  0
 39 67  2  0  0  0
 40 52  1  0  0  0
 40 53  2  0  0  0
 40 58  1  0  0  0
 41106  1  0  0  0
 41107  1  0  0  0
 41108  1  0  0  0
 41 48  1  0  0  0
 42 43  1  0  0  0
 42 66  1  0  0  0
 42109  1  0  0  0
 42110  1  0  0  0
 43 44  1  0  0  0
 44111  1  0  0  0
 45 46  2  0  0  0
 45112  1  0  0  0
 46113  1  0  0  0
 47114  1  0  0  0
 47115  1  0  0  0
 48 56  1  0  0  0
 48 65  1  0  0  0
 48116  1  0  0  0
 49 50  1  0  0  0
 49 53  1  0  0  0
 49 64  1  0  0  0
 49117  1  0  0  0
 50 51  1  0  0  0
 50118  1  0  0  0
 50119  1  0  0  0
 51 52  1  0  0  0
 51120  1  0  0  0
 51121  1  0  0  0
 52122  1  0  0  0
 52123  1  0  0  0
 53 54  1  0  0  0
 54 55  2  0  0  0
 54124  1  0  0  0
 55 57  1  0  0  0
 55125  1  0  0  0
 56 69  2  0  0  0
 57 58  2  0  0  0
 57126  1  0  0  0
 58127  1  0  0  0
 59 60  1  0  0  0
 59 61  1  0  0  0
 59 62  1  0  0  0
 60128  1  0  0  0
 60129  1  0  0  0
 60130  1  0  0  0
 61131  1  0  0  0
 61132  1  0  0  0
 61133  1  0  0  0
 62134  1  0  0  0
 62135  1  0  0  0
 62136  1  0  0  0
 63 65  1  0  0  0
 63137  1  0  0  0
 63138  1  0  0  0
 63139  1  0  0  0
 64140  1  0  0  0
 65141  1  0  0  0
 68 79  1  0  0  0
 71 73  1  0  0  0
 71 74  2  0  0  0
 71142  1  0  0  0
 72 73  2  0  0  0
 72 82  1  0  0  0
 72143  1  0  0  0
 73 80  1  0  0  0
 74 82  1  0  0  0
 74 77  1  0  0  0
 75 76  1  0  0  0
 75 77  1  0  0  0
 75144  1  0  0  0
 75145  1  0  0  0
 76 78  1  0  0  0
 76146  1  0  0  0
 76147  1  0  0  0
 77 81  1  0  0  0
 77148  1  0  0  0
 78 79  1  0  0  0
 78 81  1  0  0  0
 78149  1  0  0  0
 79150  1  0  0  0
 79151  1  0  0  0
 80152  1  0  0  0
 81153  1  0  0  0
 81154  1  0  0  0
M  CHG  1  81   1
M  ISO  4   1 100  68 101  79 101  80 100
M  END
> <chiral flag>
0

> <version>
0

> <s_m_source_file>
/data/baiqing/PycharmProjects/Reinvent-master-3.2/result/LINK_invent/BTK/process_docking_weight1_custom_product_contain_oxygen_bond_distance_aromatic_linkinvent_7_9_3/rearranged_h_0156.sdf

> <i_m_source_file_index>
87

> <r_mmod_Potential_Energy-OPLS-2005>
140.792007446289

> <r_mmod_Stretch_Energy-OPLS-2005>
134.208755493164

> <r_mmod_Bend_Energy-OPLS-2005>
213.561401367188

> <r_mmod_Torsional_Energy-OPLS-2005>
312.774993896484

> <r_mmod_Improper_Torsional_Energy-OPLS-2005>
5.4899115562439

> <r_mmod_Van_der_Waal_Energy-OPLS-2005>
110.338722229004

> <r_mmod_Electrostatic_Energy-OPLS-2005>
-267.477416992188

> <r_mmod_Solvation_Energy-OPLS-2005>
-469.911285400391

> <b_mmod_Minimization_Converged-OPLS-2005>
0

> <r_mmod_RMS_Derivative-OPLS-2005>
6.09767293930054

$$$$
87
                    3D
 Structure written by MMmdl.
149158  0  0  1  0            999 V2000
  -30.6487  -14.8523   20.4447 C   0  0  0  0  0  0
  -30.4167  -12.5355   19.4871 C   0  0  0  0  0  0
  -29.5047  -12.5121   18.2434 C   0  0  0  0  0  0
  -28.0382  -12.3153   18.6653 C   0  0  0  0  0  0
  -27.6261  -13.2470   19.8358 C   0  0  2  0  0  0
  -28.6735  -13.2732   20.9708 C   0  0  0  0  0  0
  -25.2422  -13.8207   20.5703 C   0  0  0  0  0  0
  -24.1755  -13.0428   20.9245 C   0  0  0  0  0  0
  -24.6383  -11.6920   20.8773 C   0  0  0  0  0  0
  -23.9075  -10.4288   21.0415 C   0  0  0  0  0  0
  -24.3626   -9.4201   21.9189 C   0  0  0  0  0  0
  -23.6299   -8.2238   22.0755 C   0  0  0  0  0  0
  -22.4281   -8.0279   21.3545 C   0  0  0  0  0  0
  -21.9919   -9.0253   20.4648 C   0  0  0  0  0  0
  -22.7248  -10.2131   20.3061 C   0  0  0  0  0  0
  -21.6854   -6.0736   22.5279 C   0  0  0  0  0  0
  -21.4014   -6.5640   23.8211 C   0  0  0  0  0  0
  -21.3659   -5.6792   24.9174 C   0  0  0  0  0  0
  -21.6044   -4.3056   24.7224 C   0  0  0  0  0  0
  -21.8819   -3.8147   23.4344 C   0  0  0  0  0  0
  -21.9192   -4.6964   22.3402 C   0  0  0  0  0  0
  -22.7776  -13.5199   21.1891 C   0  0  0  0  0  0
  -22.1662   -4.2149   21.0980 F   0  0  0  0  0  0
  -21.5629   -3.4539   25.7737 F   0  0  0  0  0  0
  -29.9528  -13.6517   20.3596 N   0  0  0  0  0  0
  -26.2864  -12.9455   20.3255 N   0  0  0  0  0  0
  -25.9317  -11.6585   20.5767 N   0  0  0  0  0  0
  -22.0428  -12.8191   22.0448 N   0  0  0  0  0  0
  -25.4012  -15.1927   20.4071 N   0  0  0  0  0  0
  -31.8552  -14.8081   20.1806 O   0  0  0  0  0  0
  -21.6641   -6.8879   21.4241 O   0  0  0  0  0  0
  -22.3460  -14.5501   20.6727 O   0  0  0  0  0  0
  -24.6387  -31.8498   23.1946 C   0  0  0  0  0  0
  -25.9183  -32.4725   23.8312 C   0  0  1  0  0  0
  -27.2071  -27.1869   20.1447 C   0  0  0  0  0  0
  -25.5955  -33.8530   24.2230 N   0  0  0  0  0  0
  -23.4389  -30.4727   21.5396 C   0  0  2  0  0  0
  -24.8867  -28.9123   20.1101 C   0  0  0  0  0  0
  -22.7542  -29.4579   22.4885 C   0  0  0  0  0  0
  -18.0300  -28.1391   22.8479 C   0  0  0  0  0  0
  -24.1492  -36.7268   23.2641 C   0  0  0  0  0  0
  -25.9924  -30.7386   21.3883 C   0  0  0  0  0  0
  -26.0629  -29.3553   20.7296 C   0  0  0  0  0  0
  -27.2278  -28.5073   20.7338 C   0  0  0  0  0  0
  -26.0151  -26.8470   19.4679 C   0  0  0  0  0  0
  -24.8728  -27.6695   19.4638 C   0  0  0  0  0  0
  -23.6618  -29.8082   20.1564 C   0  0  0  0  0  0
  -25.4121  -36.3051   24.0321 C   0  0  1  0  0  0
  -20.5910  -28.3713   23.1246 C   0  0  2  0  0  0
  -20.6786  -26.9423   22.5402 C   0  0  0  0  0  0
  -19.5759  -26.6381   21.5210 C   0  0  0  0  0  0
  -18.1942  -26.7932   22.1624 C   0  0  0  0  0  0
  -19.1555  -28.8870   23.2855 C   0  0  0  0  0  0
  -18.9472  -30.1468   23.8878 C   0  0  0  0  0  0
  -17.6470  -30.6590   24.0557 C   0  0  0  0  0  0
  -25.9068  -34.9423   23.5079 C   0  0  0  0  0  0
  -16.5361  -29.9083   23.6335 C   0  0  0  0  0  0
  -16.7285  -28.6501   23.0357 C   0  0  0  0  0  0
  -26.4520  -31.6574   25.0733 C   0  0  0  0  0  0
  -25.3719  -31.3756   26.1439 C   0  0  0  0  0  0
  -27.0373  -30.2972   24.6286 C   0  0  0  0  0  0
  -27.6063  -32.4328   25.7508 C   0  0  0  0  0  0
  -27.5578  -37.1791   24.8464 C   0  0  0  0  0  0
  -21.4241  -29.3049   22.3626 N   0  0  0  0  0  0
  -26.4290  -37.3757   23.9408 N   0  0  0  0  0  0
  -24.7094  -31.0401   22.0960 N   0  0  0  0  0  0
  -23.4210  -28.8117   23.3008 O   0  0  0  0  0  0
  -28.2489  -26.2074   20.1959 O   0  0  0  0  0  0
  -26.5641  -34.8908   22.4650 O   0  0  0  0  0  0
  -23.5518  -32.1353   23.7197 O   0  0  0  0  0  0
  -29.9206  -20.1305   20.1013 C   0  0  0  0  0  0
  -29.9046  -18.6556   20.2730 C   0  0  0  0  0  0
  -28.7974  -18.1981   20.8608 C   0  0  0  0  0  0
  -28.7826  -20.8212   20.5741 C   0  0  0  0  0  0
  -28.8000  -23.4580   20.2697 C   0  0  0  0  0  0
  -30.7662  -17.4022   19.9940 C   0  0  0  0  0  0
  -28.7653  -16.6727   21.0380 C   0  0  0  0  0  0
  -27.8586  -24.7640   20.5612 C   0  0  0  0  0  0
  -30.0380  -16.1347   20.4455 N   0  0  0  0  0  0
  -28.3462  -22.1790   20.6302 N   0  0  0  0  0  0
  -29.8996  -23.6143   19.7320 O   0  0  0  0  0  0
  -27.7057  -19.5403   21.2380 S   0  0  0  0  0  0
  -31.4563  -12.6440   19.1747 H   0  0  0  0  0  0
  -30.3702  -11.5846   20.0202 H   0  0  0  0  0  0
  -29.8096  -11.7154   17.5636 H   0  0  0  0  0  0
  -29.6087  -13.4467   17.6898 H   0  0  0  0  0  0
  -27.9231  -11.2735   18.9662 H   0  0  0  0  0  0
  -27.3741  -12.4597   17.8122 H   0  0  0  0  0  0
  -27.5902  -14.2467   19.4043 H   0  0  0  0  0  0
  -28.7457  -12.3013   21.4613 H   0  0  0  0  0  0
  -28.3880  -13.9867   21.7441 H   0  0  0  0  0  0
  -25.2766   -9.5680   22.4770 H   0  0  0  0  0  0
  -24.0006   -7.4629   22.7474 H   0  0  0  0  0  0
  -21.0850   -8.8775   19.8953 H   0  0  0  0  0  0
  -22.3706  -10.9674   19.6176 H   0  0  0  0  0  0
  -21.2006   -7.6147   23.9715 H   0  0  0  0  0  0
  -21.1482   -6.0522   25.9077 H   0  0  0  0  0  0
  -22.0599   -2.7609   23.2843 H   0  0  0  0  0  0
  -22.4053  -11.9861   22.4845 H   0  0  0  0  0  0
  -21.1042  -13.1208   22.2651 H   0  0  0  0  0  0
  -24.6244  -15.8362   20.5126 H   0  0  0  0  0  0
  -26.2299  -15.6329   20.0315 H   0  0  0  0  0  0
  -26.7249  -32.5348   23.1046 H   0  0  0  0  0  0
  -25.0096  -33.9656   25.0372 H   0  0  0  0  0  0
  -22.7390  -31.2976   21.3910 H   0  0  0  0  0  0
  -23.3758  -35.9596   23.3295 H   0  0  0  0  0  0
  -24.3579  -36.8901   22.2056 H   0  0  0  0  0  0
  -23.7242  -37.6464   23.6673 H   0  0  0  0  0  0
  -26.1441  -31.4958   20.6180 H   0  0  0  0  0  0
  -26.8648  -30.7856   22.0284 H   0  0  0  0  0  0
  -28.1233  -28.8383   21.2410 H   0  0  0  0  0  0
  -25.9380  -25.9123   18.9336 H   0  0  0  0  0  0
  -23.9799  -27.3320   18.9556 H   0  0  0  0  0  0
  -23.7941  -30.5852   19.4026 H   0  0  0  0  0  0
  -22.7777  -29.2480   19.8468 H   0  0  0  0  0  0
  -25.1308  -36.1888   25.0814 H   0  0  0  0  0  0
  -21.0002  -28.3297   24.1366 H   0  0  0  0  0  0
  -20.5683  -26.2326   23.3615 H   0  0  0  0  0  0
  -21.6653  -26.7436   22.1197 H   0  0  0  0  0  0
  -19.6920  -25.6287   21.1253 H   0  0  0  0  0  0
  -19.6696  -27.3179   20.6730 H   0  0  0  0  0  0
  -17.4210  -26.6672   21.4029 H   0  0  0  0  0  0
  -18.0345  -26.0079   22.9026 H   0  0  0  0  0  0
  -19.7948  -30.7288   24.2239 H   0  0  0  0  0  0
  -17.5024  -31.6270   24.5161 H   0  0  0  0  0  0
  -15.5361  -30.2978   23.7670 H   0  0  0  0  0  0
  -15.8685  -28.0812   22.7085 H   0  0  0  0  0  0
  -24.5886  -30.7118   25.7760 H   0  0  0  0  0  0
  -24.8924  -32.2938   26.4840 H   0  0  0  0  0  0
  -25.8011  -30.8937   27.0233 H   0  0  0  0  0  0
  -26.2979  -29.6706   24.1285 H   0  0  0  0  0  0
  -27.3985  -29.7260   25.4848 H   0  0  0  0  0  0
  -27.8892  -30.4212   23.9596 H   0  0  0  0  0  0
  -27.2667  -33.3642   26.2051 H   0  0  0  0  0  0
  -28.3891  -32.6865   25.0348 H   0  0  0  0  0  0
  -28.0713  -31.8476   26.5453 H   0  0  0  0  0  0
  -28.2593  -38.0091   24.7510 H   0  0  0  0  0  0
  -28.1077  -36.2621   24.6294 H   0  0  0  0  0  0
  -27.2295  -37.1443   25.8867 H   0  0  0  0  0  0
  -20.9440  -29.8770   21.6819 H   0  0  0  0  0  0
  -26.0163  -38.2828   24.1405 H   0  0  0  0  0  0
  -30.7635  -20.6234   19.6370 H   0  0  0  0  0  0
  -31.7214  -17.4779   20.5155 H   0  0  0  0  0  0
  -30.9928  -17.3212   18.9301 H   0  0  0  0  0  0
  -27.9069  -16.2516   20.5222 H   0  0  0  0  0  0
  -28.6960  -16.4056   22.0930 H   0  0  0  0  0  0
  -27.6846  -24.7716   21.6374 H   0  0  0  0  0  0
  -26.8957  -24.4997   20.1323 H   0  0  0  0  0  0
  -27.4325  -22.2561   21.0577 H   0  0  0  0  0  0
  1 25  1  0  0  0
  1 30  2  0  0  0
  1 79  1  0  0  0
  2  3  1  0  0  0
  2 25  1  0  0  0
  2 83  1  0  0  0
  2 84  1  0  0  0
  3  4  1  0  0  0
  3 85  1  0  0  0
  3 86  1  0  0  0
  4  5  1  0  0  0
  4 87  1  0  0  0
  4 88  1  0  0  0
  5  6  1  0  0  0
  5 26  1  0  0  0
  5 89  1  0  0  0
  6 25  1  0  0  0
  6 90  1  0  0  0
  6 91  1  0  0  0
  7  8  2  0  0  0
  7 26  1  0  0  0
  7 29  1  0  0  0
  8  9  1  0  0  0
  8 22  1  0  0  0
  9 10  1  0  0  0
  9 27  2  0  0  0
 10 11  2  0  0  0
 10 15  1  0  0  0
 11 12  1  0  0  0
 11 92  1  0  0  0
 12 13  2  0  0  0
 12 93  1  0  0  0
 13 14  1  0  0  0
 13 31  1  0  0  0
 14 15  2  0  0  0
 14 94  1  0  0  0
 15 95  1  0  0  0
 16 17  2  0  0  0
 16 21  1  0  0  0
 16 31  1  0  0  0
 17 18  1  0  0  0
 17 96  1  0  0  0
 18 19  2  0  0  0
 18 97  1  0  0  0
 19 20  1  0  0  0
 19 24  1  0  0  0
 20 21  2  0  0  0
 20 98  1  0  0  0
 21 23  1  0  0  0
 22 28  1  0  0  0
 22 32  2  0  0  0
 26 27  1  0  0  0
 28 99  1  0  0  0
 28100  1  0  0  0
 29101  1  0  0  0
 29102  1  0  0  0
 33 34  1  0  0  0
 33 66  1  0  0  0
 33 70  2  0  0  0
 34 36  1  0  0  0
 34 59  1  0  0  0
 34103  1  0  0  0
 35 44  2  0  0  0
 35 45  1  0  0  0
 35 68  1  0  0  0
 36 56  1  0  0  0
 36104  1  0  0  0
 37 39  1  0  0  0
 37 47  1  0  0  0
 37 66  1  0  0  0
 37105  1  0  0  0
 38 43  2  0  0  0
 38 46  1  0  0  0
 38 47  1  0  0  0
 39 64  1  0  0  0
 39 67  2  0  0  0
 40 52  1  0  0  0
 40 53  2  0  0  0
 40 58  1  0  0  0
 41106  1  0  0  0
 41107  1  0  0  0
 41108  1  0  0  0
 41 48  1  0  0  0
 42 43  1  0  0  0
 42 66  1  0  0  0
 42109  1  0  0  0
 42110  1  0  0  0
 43 44  1  0  0  0
 44111  1  0  0  0
 45 46  2  0  0  0
 45112  1  0  0  0
 46113  1  0  0  0
 47114  1  0  0  0
 47115  1  0  0  0
 48 56  1  0  0  0
 48 65  1  0  0  0
 48116  1  0  0  0
 49 50  1  0  0  0
 49 53  1  0  0  0
 49 64  1  0  0  0
 49117  1  0  0  0
 50 51  1  0  0  0
 50118  1  0  0  0
 50119  1  0  0  0
 51 52  1  0  0  0
 51120  1  0  0  0
 51121  1  0  0  0
 52122  1  0  0  0
 52123  1  0  0  0
 53 54  1  0  0  0
 54 55  2  0  0  0
 54124  1  0  0  0
 55 57  1  0  0  0
 55125  1  0  0  0
 56 69  2  0  0  0
 57 58  2  0  0  0
 57126  1  0  0  0
 58127  1  0  0  0
 59 60  1  0  0  0
 59 61  1  0  0  0
 59 62  1  0  0  0
 60128  1  0  0  0
 60129  1  0  0  0
 60130  1  0  0  0
 61131  1  0  0  0
 61132  1  0  0  0
 61133  1  0  0  0
 62134  1  0  0  0
 62135  1  0  0  0
 62136  1  0  0  0
 63 65  1  0  0  0
 63137  1  0  0  0
 63138  1  0  0  0
 63139  1  0  0  0
 64140  1  0  0  0
 65141  1  0  0  0
 68 78  1  0  0  0
 71 72  1  0  0  0
 71 74  2  0  0  0
 71142  1  0  0  0
 72 73  2  0  0  0
 72 76  1  0  0  0
 73 77  1  0  0  0
 73 82  1  0  0  0
 74 80  1  0  0  0
 74 82  1  0  0  0
 75 78  1  0  0  0
 75 80  1  0  0  0
 75 81  2  0  0  0
 76 79  1  0  0  0
 76143  1  0  0  0
 76144  1  0  0  0
 77 79  1  0  0  0
 77145  1  0  0  0
 77146  1  0  0  0
 78147  1  0  0  0
 78148  1  0  0  0
 80149  1  0  0  0
M  ISO  4   1 100  68 101  78 101  79 100
M  END
> <chiral flag>
0

> <version>
0

> <s_m_source_file>
/data/baiqing/PycharmProjects/Reinvent-master-3.2/result/LINK_invent/BTK/process_docking_weight1_custom_product_contain_oxygen_bond_distance_aromatic_linkinvent_7_9_3/rearranged_h_0156.sdf

> <i_m_source_file_index>
88

> <r_mmod_Potential_Energy-OPLS-2005>
427.202453613281

> <r_mmod_Stretch_Energy-OPLS-2005>
167.784561157227

> <r_mmod_Bend_Energy-OPLS-2005>
306.031890869141

> <r_mmod_Torsional_Energy-OPLS-2005>
257.585876464844

> <r_mmod_Improper_Torsional_Energy-OPLS-2005>
10.344162940979

> <r_mmod_Van_der_Waal_Energy-OPLS-2005>
111.17017364502

> <r_mmod_Electrostatic_Energy-OPLS-2005>
-329.476287841797

> <r_mmod_Solvation_Energy-OPLS-2005>
-240.983840942383

> <b_mmod_Minimization_Converged-OPLS-2005>
0

> <r_mmod_RMS_Derivative-OPLS-2005>
0.333023279905319

$$$$
88
                    3D
 Structure written by MMmdl.
160168  0  0  1  0            999 V2000
  -30.6156  -14.7216   20.4519 C   0  0  0  0  0  0
  -30.4357  -12.4341   19.4842 C   0  0  0  0  0  0
  -29.5167  -12.5076   18.2434 C   0  0  0  0  0  0
  -28.0402  -12.3388   18.6507 C   0  0  0  0  0  0
  -27.6485  -13.2306   19.8593 C   0  0  2  0  0  0
  -28.6917  -13.1468   20.9983 C   0  0  0  0  0  0
  -25.2527  -13.8199   20.5700 C   0  0  0  0  0  0
  -24.1810  -13.0443   20.9202 C   0  0  0  0  0  0
  -24.6399  -11.6921   20.8739 C   0  0  0  0  0  0
  -23.9078  -10.4296   21.0403 C   0  0  0  0  0  0
  -24.3625   -9.4210   21.9181 C   0  0  0  0  0  0
  -23.6296   -8.2248   22.0754 C   0  0  0  0  0  0
  -22.4276   -8.0290   21.3547 C   0  0  0  0  0  0
  -21.9918   -9.0265   20.4650 C   0  0  0  0  0  0
  -22.7251  -10.2140   20.3056 C   0  0  0  0  0  0
  -21.6857   -6.0740   22.5280 C   0  0  0  0  0  0
  -21.4016   -6.5638   23.8213 C   0  0  0  0  0  0
  -21.3658   -5.6789   24.9173 C   0  0  0  0  0  0
  -21.6047   -4.3054   24.7222 C   0  0  0  0  0  0
  -21.8819   -3.8149   23.4341 C   0  0  0  0  0  0
  -21.9189   -4.6966   22.3400 C   0  0  0  0  0  0
  -22.7829  -13.5228   21.1854 C   0  0  0  0  0  0
  -22.1660   -4.2150   21.0978 F   0  0  0  0  0  0
  -21.5625   -3.4538   25.7736 F   0  0  0  0  0  0
  -30.0019  -13.4897   20.4288 N   0  0  0  0  0  0
  -26.2969  -12.9411   20.3310 N   0  0  0  0  0  0
  -25.9337  -11.6554   20.5762 N   0  0  0  0  0  0
  -22.0463  -12.8230   22.0411 N   0  0  0  0  0  0
  -25.4206  -15.1924   20.4113 N   0  0  0  0  0  0
  -31.7825  -14.8387   20.0681 O   0  0  0  0  0  0
  -21.6642   -6.8887   21.4244 O   0  0  0  0  0  0
  -22.3518  -14.5531   20.6694 O   0  0  0  0  0  0
  -24.6315  -31.8567   23.2005 C   0  0  0  0  0  0
  -25.9143  -32.4761   23.8348 C   0  0  1  0  0  0
  -27.2129  -27.2627   20.1261 C   0  0  0  0  0  0
  -25.5941  -33.8562   24.2269 N   0  0  0  0  0  0
  -23.4273  -30.4817   21.5436 C   0  0  2  0  0  0
  -24.8742  -28.9357   20.1065 C   0  0  0  0  0  0
  -22.7506  -29.4613   22.4907 C   0  0  0  0  0  0
  -18.0293  -28.1391   22.8488 C   0  0  0  0  0  0
  -24.1488  -36.7286   23.2635 C   0  0  0  0  0  0
  -25.9743  -30.7693   21.3825 C   0  0  0  0  0  0
  -26.0466  -29.3942   20.7211 C   0  0  0  0  0  0
  -27.2187  -28.5702   20.7203 C   0  0  0  0  0  0
  -26.0219  -26.8886   19.4590 C   0  0  0  0  0  0
  -24.8678  -27.6914   19.4642 C   0  0  0  0  0  0
  -23.6455  -29.8213   20.1581 C   0  0  0  0  0  0
  -25.4115  -36.3071   24.0325 C   0  0  1  0  0  0
  -20.5898  -28.3710   23.1264 C   0  0  2  0  0  0
  -20.6784  -26.9428   22.5404 C   0  0  0  0  0  0
  -19.5756  -26.6390   21.5210 C   0  0  0  0  0  0
  -18.1937  -26.7933   22.1624 C   0  0  0  0  0  0
  -19.1548  -28.8867   23.2870 C   0  0  0  0  0  0
  -18.9467  -30.1466   23.8891 C   0  0  0  0  0  0
  -17.6467  -30.6592   24.0567 C   0  0  0  0  0  0
  -25.9057  -34.9441   23.5096 C   0  0  0  0  0  0
  -16.5357  -29.9092   23.6331 C   0  0  0  0  0  0
  -16.7281  -28.6506   23.0356 C   0  0  0  0  0  0
  -26.4506  -31.6583   25.0735 C   0  0  0  0  0  0
  -25.3727  -31.3738   26.1456 C   0  0  0  0  0  0
  -27.0354  -30.2995   24.6225 C   0  0  0  0  0  0
  -27.6052  -32.4328   25.7511 C   0  0  0  0  0  0
  -27.5578  -37.1802   24.8465 C   0  0  0  0  0  0
  -21.4212  -29.3054   22.3650 N   0  0  0  0  0  0
  -26.4289  -37.3772   23.9407 N   0  0  0  0  0  0
  -24.6966  -31.0539   22.0982 N   0  0  0  0  0  0
  -23.4212  -28.8145   23.3001 O   0  0  0  0  0  0
  -28.2873  -26.3405   20.2181 O   0  0  0  0  0  0
  -26.5624  -34.8913   22.4661 O   0  0  0  0  0  0
  -23.5464  -32.1384   23.7304 O   0  0  0  0  0  0
  -29.2548  -19.7820   20.0217 C   0  0  0  0  0  0
  -30.1345  -21.1119   21.8272 C   0  0  0  0  0  0
  -29.3848  -21.0906   20.6298 C   0  0  0  0  0  0
  -29.8365  -18.5817   20.5901 C   0  0  0  0  0  0
  -30.6959  -19.9228   22.3703 C   0  0  0  0  0  0
  -27.0727  -24.5874   21.4862 C   0  0  0  0  0  0
  -32.1409  -21.1216   23.9626 C   0  0  0  0  0  0
  -29.8842  -17.1568   19.8996 C   0  0  0  0  0  0
  -29.1679  -23.7514   20.3439 C   0  0  0  0  0  0
  -27.9895  -24.8577   20.2740 C   0  0  2  0  0  0
  -30.5159  -18.7316   21.7436 N   0  3  0  0  0  0
  -28.7865  -22.3000   20.0894 N   0  0  0  0  0  0
  -31.4630  -19.9047   23.5433 N   0  0  0  0  0  0
  -29.8320  -15.8393   20.6627 N   0  0  0  0  0  0
  -31.4790  -12.5471   19.1860 H   0  0  0  0  0  0
  -30.3703  -11.4528   19.9568 H   0  0  0  0  0  0
  -29.7973  -11.7396   17.5215 H   0  0  0  0  0  0
  -29.6518  -13.4659   17.7390 H   0  0  0  0  0  0
  -27.8884  -11.2891   18.9046 H   0  0  0  0  0  0
  -27.3875  -12.5430   17.8010 H   0  0  0  0  0  0
  -27.6496  -14.2563   19.4902 H   0  0  0  0  0  0
  -28.7147  -12.1444   21.4279 H   0  0  0  0  0  0
  -28.4294  -13.8207   21.8151 H   0  0  0  0  0  0
  -25.2771   -9.5682   22.4759 H   0  0  0  0  0  0
  -24.0003   -7.4638   22.7476 H   0  0  0  0  0  0
  -21.0849   -8.8797   19.8955 H   0  0  0  0  0  0
  -22.3719  -10.9684   19.6166 H   0  0  0  0  0  0
  -21.2016   -7.6147   23.9721 H   0  0  0  0  0  0
  -21.1479   -6.0515   25.9076 H   0  0  0  0  0  0
  -22.0597   -2.7611   23.2840 H   0  0  0  0  0  0
  -22.4076  -11.9902   22.4825 H   0  0  0  0  0  0
  -21.1074  -13.1263   22.2595 H   0  0  0  0  0  0
  -24.6493  -15.8425   20.5191 H   0  0  0  0  0  0
  -26.2622  -15.6332   20.0645 H   0  0  0  0  0  0
  -26.7203  -32.5411   23.1083 H   0  0  0  0  0  0
  -25.0091  -33.9699   25.0417 H   0  0  0  0  0  0
  -22.7226  -31.3038   21.4002 H   0  0  0  0  0  0
  -23.3748  -35.9621   23.3298 H   0  0  0  0  0  0
  -24.3573  -36.8913   22.2049 H   0  0  0  0  0  0
  -23.7246  -37.6487   23.6664 H   0  0  0  0  0  0
  -26.1152  -31.5313   20.6148 H   0  0  0  0  0  0
  -26.8506  -30.8155   22.0175 H   0  0  0  0  0  0
  -28.1110  -28.9092   21.2275 H   0  0  0  0  0  0
  -25.9377  -25.9442   18.9463 H   0  0  0  0  0  0
  -23.9729  -27.3383   18.9699 H   0  0  0  0  0  0
  -23.7713  -30.5997   19.4048 H   0  0  0  0  0  0
  -22.7636  -29.2567   19.8504 H   0  0  0  0  0  0
  -25.1294  -36.1918   25.0820 H   0  0  0  0  0  0
  -20.9989  -28.3289   24.1386 H   0  0  0  0  0  0
  -20.5685  -26.2321   23.3610 H   0  0  0  0  0  0
  -21.6653  -26.7457   22.1196 H   0  0  0  0  0  0
  -19.6921  -25.6296   21.1249 H   0  0  0  0  0  0
  -19.6690  -27.3188   20.6728 H   0  0  0  0  0  0
  -17.4207  -26.6679   21.4028 H   0  0  0  0  0  0
  -18.0346  -26.0070   22.9017 H   0  0  0  0  0  0
  -19.7943  -30.7286   24.2256 H   0  0  0  0  0  0
  -17.5022  -31.6270   24.5174 H   0  0  0  0  0  0
  -15.5358  -30.2997   23.7657 H   0  0  0  0  0  0
  -15.8678  -28.0825   22.7081 H   0  0  0  0  0  0
  -24.5910  -30.7073   25.7795 H   0  0  0  0  0  0
  -24.8907  -32.2908   26.4854 H   0  0  0  0  0  0
  -25.8048  -30.8943   27.0248 H   0  0  0  0  0  0
  -26.2941  -29.6740   24.1235 H   0  0  0  0  0  0
  -27.4010  -29.7262   25.4754 H   0  0  0  0  0  0
  -27.8835  -30.4256   23.9488 H   0  0  0  0  0  0
  -27.2651  -33.3635   26.2060 H   0  0  0  0  0  0
  -28.3879  -32.6879   25.0356 H   0  0  0  0  0  0
  -28.0696  -31.8473   26.5452 H   0  0  0  0  0  0
  -28.2595  -38.0099   24.7509 H   0  0  0  0  0  0
  -28.1074  -36.2631   24.6295 H   0  0  0  0  0  0
  -27.2294  -37.1454   25.8867 H   0  0  0  0  0  0
  -20.9398  -29.8785   21.6859 H   0  0  0  0  0  0
  -26.0165  -38.2845   24.1412 H   0  0  0  0  0  0
  -28.7203  -19.6951   19.0861 H   0  0  0  0  0  0
  -30.2663  -22.0441   22.3494 H   0  0  0  0  0  0
  -26.7777  -23.5389   21.5287 H   0  0  0  0  0  0
  -26.1509  -25.1655   21.4656 H   0  0  0  0  0  0
  -27.5853  -24.8186   22.4196 H   0  0  0  0  0  0
  -32.8906  -20.8891   24.7188 H   0  0  0  0  0  0
  -31.4357  -21.8312   24.3960 H   0  0  0  0  0  0
  -32.6502  -21.5955   23.1229 H   0  0  0  0  0  0
  -30.7745  -17.1556   19.2684 H   0  0  0  0  0  0
  -29.0512  -17.1272   19.1963 H   0  0  0  0  0  0
  -29.6814  -23.8466   21.3003 H   0  0  0  0  0  0
  -29.9120  -24.0125   19.5896 H   0  0  0  0  0  0
  -27.4556  -24.6061   19.3599 H   0  0  0  0  0  0
  -30.9507  -17.8929   22.1380 H   0  0  0  0  0  0
  -28.1985  -22.1592   19.2738 H   0  0  0  0  0  0
  -31.8701  -19.0337   23.8512 H   0  0  0  0  0  0
  -28.9303  -15.6396   21.0672 H   0  0  0  0  0  0
  1 25  1  0  0  0
  1 30  2  0  0  0
  1 84  1  0  0  0
  2  3  1  0  0  0
  2 25  1  0  0  0
  2 85  1  0  0  0
  2 86  1  0  0  0
  3  4  1  0  0  0
  3 87  1  0  0  0
  3 88  1  0  0  0
  4  5  1  0  0  0
  4 89  1  0  0  0
  4 90  1  0  0  0
  5  6  1  0  0  0
  5 26  1  0  0  0
  5 91  1  0  0  0
  6 25  1  0  0  0
  6 92  1  0  0  0
  6 93  1  0  0  0
  7  8  2  0  0  0
  7 26  1  0  0  0
  7 29  1  0  0  0
  8  9  1  0  0  0
  8 22  1  0  0  0
  9 10  1  0  0  0
  9 27  2  0  0  0
 10 11  2  0  0  0
 10 15  1  0  0  0
 11 12  1  0  0  0
 11 94  1  0  0  0
 12 13  2  0  0  0
 12 95  1  0  0  0
 13 14  1  0  0  0
 13 31  1  0  0  0
 14 15  2  0  0  0
 14 96  1  0  0  0
 15 97  1  0  0  0
 16 17  2  0  0  0
 16 21  1  0  0  0
 16 31  1  0  0  0
 17 18  1  0  0  0
 17 98  1  0  0  0
 18 19  2  0  0  0
 18 99  1  0  0  0
 19 20  1  0  0  0
 19 24  1  0  0  0
 20 21  2  0  0  0
 20100  1  0  0  0
 21 23  1  0  0  0
 22 28  1  0  0  0
 22 32  2  0  0  0
 26 27  1  0  0  0
 28101  1  0  0  0
 28102  1  0  0  0
 29103  1  0  0  0
 29104  1  0  0  0
 33 34  1  0  0  0
 33 66  1  0  0  0
 33 70  2  0  0  0
 34 36  1  0  0  0
 34 59  1  0  0  0
 34105  1  0  0  0
 35 44  2  0  0  0
 35 45  1  0  0  0
 35 68  1  0  0  0
 36 56  1  0  0  0
 36106  1  0  0  0
 37 39  1  0  0  0
 37 47  1  0  0  0
 37 66  1  0  0  0
 37107  1  0  0  0
 38 43  2  0  0  0
 38 46  1  0  0  0
 38 47  1  0  0  0
 39 64  1  0  0  0
 39 67  2  0  0  0
 40 52  1  0  0  0
 40 53  2  0  0  0
 40 58  1  0  0  0
 41108  1  0  0  0
 41109  1  0  0  0
 41110  1  0  0  0
 41 48  1  0  0  0
 42 43  1  0  0  0
 42 66  1  0  0  0
 42111  1  0  0  0
 42112  1  0  0  0
 43 44  1  0  0  0
 44113  1  0  0  0
 45 46  2  0  0  0
 45114  1  0  0  0
 46115  1  0  0  0
 47116  1  0  0  0
 47117  1  0  0  0
 48 56  1  0  0  0
 48 65  1  0  0  0
 48118  1  0  0  0
 49 50  1  0  0  0
 49 53  1  0  0  0
 49 64  1  0  0  0
 49119  1  0  0  0
 50 51  1  0  0  0
 50120  1  0  0  0
 50121  1  0  0  0
 51 52  1  0  0  0
 51122  1  0  0  0
 51123  1  0  0  0
 52124  1  0  0  0
 52125  1  0  0  0
 53 54  1  0  0  0
 54 55  2  0  0  0
 54126  1  0  0  0
 55 57  1  0  0  0
 55127  1  0  0  0
 56 69  2  0  0  0
 57 58  2  0  0  0
 57128  1  0  0  0
 58129  1  0  0  0
 59 60  1  0  0  0
 59 61  1  0  0  0
 59 62  1  0  0  0
 60130  1  0  0  0
 60131  1  0  0  0
 60132  1  0  0  0
 61133  1  0  0  0
 61134  1  0  0  0
 61135  1  0  0  0
 62136  1  0  0  0
 62137  1  0  0  0
 62138  1  0  0  0
 63 65  1  0  0  0
 63139  1  0  0  0
 63140  1  0  0  0
 63141  1  0  0  0
 64142  1  0  0  0
 65143  1  0  0  0
 68 80  1  0  0  0
 71 73  2  0  0  0
 71 74  1  0  0  0
 71144  1  0  0  0
 72 73  1  0  0  0
 72 75  2  0  0  0
 72145  1  0  0  0
 73 82  1  0  0  0
 74 78  1  0  0  0
 74 81  2  0  0  0
 75 81  1  0  0  0
 75 83  1  0  0  0
 76146  1  0  0  0
 76147  1  0  0  0
 76148  1  0  0  0
 76 80  1  0  0  0
 77 83  1  0  0  0
 77149  1  0  0  0
 77150  1  0  0  0
 77151  1  0  0  0
 78 84  1  0  0  0
 78152  1  0  0  0
 78153  1  0  0  0
 79 80  1  0  0  0
 79 82  1  0  0  0
 79154  1  0  0  0
 79155  1  0  0  0
 80156  1  0  0  0
 81157  1  0  0  0
 82158  1  0  0  0
 83159  1  0  0  0
 84160  1  0  0  0
M  CHG  1  81   1
M  ISO  4   1 100  68 101  80 101  84 100
M  END
> <chiral flag>
0

> <version>
0

> <s_m_source_file>
/data/baiqing/PycharmProjects/Reinvent-master-3.2/result/LINK_invent/BTK/process_docking_weight1_custom_product_contain_oxygen_bond_distance_aromatic_linkinvent_7_9_3/rearranged_h_0156.sdf

> <i_m_source_file_index>
89

> <r_mmod_Potential_Energy-OPLS-2005>
-118.664260864258

> <r_mmod_Stretch_Energy-OPLS-2005>
114.307769775391

> <r_mmod_Bend_Energy-OPLS-2005>
175.065658569336

> <r_mmod_Torsional_Energy-OPLS-2005>
213.685958862305

> <r_mmod_Improper_Torsional_Energy-OPLS-2005>
10.6521472930908

> <r_mmod_Van_der_Waal_Energy-OPLS-2005>
146.835388183594

> <r_mmod_Electrostatic_Energy-OPLS-2005>
-427.459594726562

> <r_mmod_Solvation_Energy-OPLS-2005>
-434.911834716797

> <b_mmod_Minimization_Converged-OPLS-2005>
0

> <r_mmod_RMS_Derivative-OPLS-2005>
1.00944447517395

$$$$
89
                    3D
 Structure written by MMmdl.
148156  0  0  1  0            999 V2000
  -30.6984  -14.5427   20.5310 C   0  0  0  0  0  0
  -30.4169  -12.3410   19.4476 C   0  0  0  0  0  0
  -29.4981  -12.4993   18.2192 C   0  0  0  0  0  0
  -28.0208  -12.3545   18.6310 C   0  0  0  0  0  0
  -27.6531  -13.2192   19.8673 C   0  0  2  0  0  0
  -28.6946  -13.0672   20.9986 C   0  0  0  0  0  0
  -25.2548  -13.8174   20.5689 C   0  0  0  0  0  0
  -24.1810  -13.0446   20.9193 C   0  0  0  0  0  0
  -24.6381  -11.6917   20.8734 C   0  0  0  0  0  0
  -23.9055  -10.4296   21.0404 C   0  0  0  0  0  0
  -24.3606   -9.4211   21.9183 C   0  0  0  0  0  0
  -23.6281   -8.2242   22.0742 C   0  0  0  0  0  0
  -22.4260   -8.0276   21.3533 C   0  0  0  0  0  0
  -21.9900   -9.0253   20.4638 C   0  0  0  0  0  0
  -22.7231  -10.2134   20.3056 C   0  0  0  0  0  0
  -21.6851   -6.0729   22.5268 C   0  0  0  0  0  0
  -21.4021   -6.5629   23.8210 C   0  0  0  0  0  0
  -21.3667   -5.6778   24.9164 C   0  0  0  0  0  0
  -21.6047   -4.3042   24.7209 C   0  0  0  0  0  0
  -21.8823   -3.8142   23.4331 C   0  0  0  0  0  0
  -21.9199   -4.6960   22.3395 C   0  0  0  0  0  0
  -22.7839  -13.5247   21.1865 C   0  0  0  0  0  0
  -22.1661   -4.2154   21.0967 F   0  0  0  0  0  0
  -21.5640   -3.4523   25.7721 F   0  0  0  0  0  0
  -30.0167  -13.3642   20.4308 N   0  0  0  0  0  0
  -26.2978  -12.9368   20.3334 N   0  0  0  0  0  0
  -25.9309  -11.6517   20.5751 N   0  0  0  0  0  0
  -22.0477  -12.8230   22.0404 N   0  0  0  0  0  0
  -25.4285  -15.1885   20.4093 N   0  0  0  0  0  0
  -31.8588  -14.6546   20.1305 O   0  0  0  0  0  0
  -21.6626   -6.8866   21.4231 O   0  0  0  0  0  0
  -22.3534  -14.5572   20.6731 O   0  0  0  0  0  0
  -24.6193  -31.8641   23.2056 C   0  0  0  0  0  0
  -25.9062  -32.4797   23.8377 C   0  0  1  0  0  0
  -27.2282  -27.3843   20.1135 C   0  0  0  0  0  0
  -25.5900  -33.8599   24.2307 N   0  0  0  0  0  0
  -23.4108  -30.4860   21.5469 C   0  0  2  0  0  0
  -24.8587  -28.9470   20.1135 C   0  0  0  0  0  0
  -22.7440  -29.4635   22.4960 C   0  0  0  0  0  0
  -18.0279  -28.1372   22.8483 C   0  0  0  0  0  0
  -24.1494  -36.7310   23.2636 C   0  0  0  0  0  0
  -25.9447  -30.8155   21.3671 C   0  0  0  0  0  0
  -26.0226  -29.4470   20.7120 C   0  0  0  0  0  0
  -27.2147  -28.6763   20.7024 C   0  0  0  0  0  0
  -26.0496  -26.9183   19.4924 C   0  0  0  0  0  0
  -24.8697  -27.6850   19.4967 C   0  0  0  0  0  0
  -23.6228  -29.8182   20.1625 C   0  0  0  0  0  0
  -25.4110  -36.3096   24.0336 C   0  0  1  0  0  0
  -20.5873  -28.3672   23.1296 C   0  0  2  0  0  0
  -20.6766  -26.9401   22.5409 C   0  0  0  0  0  0
  -19.5745  -26.6377   21.5203 C   0  0  0  0  0  0
  -18.1925  -26.7917   22.1616 C   0  0  0  0  0  0
  -19.1530  -28.8838   23.2885 C   0  0  0  0  0  0
  -18.9454  -30.1440   23.8903 C   0  0  0  0  0  0
  -17.6455  -30.6574   24.0563 C   0  0  0  0  0  0
  -25.9040  -34.9458   23.5119 C   0  0  0  0  0  0
  -16.5347  -29.9076   23.6317 C   0  0  0  0  0  0
  -16.7268  -28.6492   23.0344 C   0  0  0  0  0  0
  -26.4476  -31.6585   25.0718 C   0  0  0  0  0  0
  -25.3737  -31.3697   26.1467 C   0  0  0  0  0  0
  -27.0299  -30.3017   24.6113 C   0  0  0  0  0  0
  -27.6048  -32.4314   25.7480 C   0  0  0  0  0  0
  -27.5591  -37.1795   24.8452 C   0  0  0  0  0  0
  -21.4160  -29.3035   22.3700 N   0  0  0  0  0  0
  -26.4287  -37.3788   23.9417 N   0  0  0  0  0  0
  -24.6765  -31.0706   22.0976 N   0  0  0  0  0  0
  -23.4192  -28.8168   23.3011 O   0  0  0  0  0  0
  -28.3552  -26.5778   20.1322 O   0  0  0  0  0  0
  -26.5606  -34.8920   22.4686 O   0  0  0  0  0  0
  -23.5370  -32.1414   23.7415 O   0  0  0  0  0  0
  -28.4596  -18.5077   21.5341 C   0  0  0  0  0  0
  -29.6727  -18.2282   20.9596 C   0  0  0  0  0  0
  -29.1990  -20.3839   20.6389 C   0  0  0  0  0  0
  -28.8085  -22.6743   20.5158 C   0  0  0  0  0  0
  -28.9865  -24.1200   20.0110 C   0  0  0  0  0  0
  -30.5941  -17.0121   20.9079 C   0  0  0  0  0  0
  -28.1486  -25.2415   20.6913 C   0  0  0  0  0  0
  -28.1750  -19.8625   21.3255 N   0  0  0  0  0  0
  -29.4710  -21.6298   20.1468 N   0  0  0  0  0  0
  -30.0055  -15.6455   20.9145 N   0  0  0  0  0  0
  -29.7707  -24.4002   19.0939 O   0  0  0  0  0  0
  -30.1292  -19.4055   20.3879 O   0  0  0  0  0  0
  -31.4639  -12.4269   19.1518 H   0  0  0  0  0  0
  -30.3113  -11.3436   19.8785 H   0  0  0  0  0  0
  -29.7472  -11.7551   17.4624 H   0  0  0  0  0  0
  -29.6594  -13.4730   17.7551 H   0  0  0  0  0  0
  -27.8428  -11.3009   18.8500 H   0  0  0  0  0  0
  -27.3722  -12.6043   17.7911 H   0  0  0  0  0  0
  -27.6787  -14.2574   19.5357 H   0  0  0  0  0  0
  -28.6803  -12.0520   21.3989 H   0  0  0  0  0  0
  -28.4560  -13.7229   21.8372 H   0  0  0  0  0  0
  -25.2743   -9.5698   22.4762 H   0  0  0  0  0  0
  -24.0000   -7.4627   22.7444 H   0  0  0  0  0  0
  -21.0844   -8.8776   19.8928 H   0  0  0  0  0  0
  -22.3687  -10.9676   19.6170 H   0  0  0  0  0  0
  -21.2000   -7.6133   23.9717 H   0  0  0  0  0  0
  -21.1500   -6.0497   25.9070 H   0  0  0  0  0  0
  -22.0603   -2.7604   23.2828 H   0  0  0  0  0  0
  -22.4065  -11.9876   22.4792 H   0  0  0  0  0  0
  -21.1115  -13.1287   22.2650 H   0  0  0  0  0  0
  -24.6617  -15.8452   20.5032 H   0  0  0  0  0  0
  -26.2743  -15.6187   20.0591 H   0  0  0  0  0  0
  -26.7130  -32.5499   23.1137 H   0  0  0  0  0  0
  -25.0068  -33.9759   25.0463 H   0  0  0  0  0  0
  -22.7019  -31.3039   21.4037 H   0  0  0  0  0  0
  -23.3755  -35.9643   23.3281 H   0  0  0  0  0  0
  -24.3602  -36.8943   22.2055 H   0  0  0  0  0  0
  -23.7246  -37.6508   23.6665 H   0  0  0  0  0  0
  -26.0672  -31.5804   20.5993 H   0  0  0  0  0  0
  -26.8288  -30.8667   21.9909 H   0  0  0  0  0  0
  -28.1122  -29.0548   21.1725 H   0  0  0  0  0  0
  -26.0369  -25.9539   19.0046 H   0  0  0  0  0  0
  -23.9785  -27.2965   19.0240 H   0  0  0  0  0  0
  -23.7367  -30.5925   19.4031 H   0  0  0  0  0  0
  -22.7469  -29.2402   19.8630 H   0  0  0  0  0  0
  -25.1282  -36.1951   25.0825 H   0  0  0  0  0  0
  -20.9962  -28.3237   24.1417 H   0  0  0  0  0  0
  -20.5653  -26.2279   23.3601 H   0  0  0  0  0  0
  -21.6639  -26.7428   22.1212 H   0  0  0  0  0  0
  -19.6909  -25.6288   21.1228 H   0  0  0  0  0  0
  -19.6673  -27.3190   20.6734 H   0  0  0  0  0  0
  -17.4189  -26.6663   21.4023 H   0  0  0  0  0  0
  -18.0327  -26.0055   22.9008 H   0  0  0  0  0  0
  -19.7931  -30.7250   24.2278 H   0  0  0  0  0  0
  -17.5011  -31.6253   24.5165 H   0  0  0  0  0  0
  -15.5348  -30.2983   23.7627 H   0  0  0  0  0  0
  -15.8669  -28.0807   22.7059 H   0  0  0  0  0  0
  -24.5906  -30.7045   25.7807 H   0  0  0  0  0  0
  -24.8937  -32.2852   26.4935 H   0  0  0  0  0  0
  -25.8101  -30.8854   27.0212 H   0  0  0  0  0  0
  -26.2836  -29.6785   24.1169 H   0  0  0  0  0  0
  -27.4052  -29.7253   25.4579 H   0  0  0  0  0  0
  -27.8690  -30.4321   23.9274 H   0  0  0  0  0  0
  -27.2655  -33.3600   26.2088 H   0  0  0  0  0  0
  -28.3839  -32.6898   25.0293 H   0  0  0  0  0  0
  -28.0737  -31.8422   26.5372 H   0  0  0  0  0  0
  -28.2565  -38.0133   24.7555 H   0  0  0  0  0  0
  -28.1128  -36.2668   24.6197 H   0  0  0  0  0  0
  -27.2322  -37.1348   25.8854 H   0  0  0  0  0  0
  -20.9323  -29.8778   21.6939 H   0  0  0  0  0  0
  -26.0171  -38.2858   24.1442 H   0  0  0  0  0  0
  -27.7977  -17.8649   22.0992 H   0  0  0  0  0  0
  -28.0273  -22.5614   21.2728 H   0  0  0  0  0  0
  -31.2797  -17.0703   21.7555 H   0  0  0  0  0  0
  -31.2239  -17.1169   20.0229 H   0  0  0  0  0  0
  -28.4298  -25.2760   21.7433 H   0  0  0  0  0  0
  -27.1012  -24.9433   20.6716 H   0  0  0  0  0  0
  -29.0426  -15.5321   21.1928 H   0  0  0  0  0  0
  1 25  1  0  0  0
  1 30  2  0  0  0
  1 80  1  0  0  0
  2  3  1  0  0  0
  2 25  1  0  0  0
  2 83  1  0  0  0
  2 84  1  0  0  0
  3  4  1  0  0  0
  3 85  1  0  0  0
  3 86  1  0  0  0
  4  5  1  0  0  0
  4 87  1  0  0  0
  4 88  1  0  0  0
  5  6  1  0  0  0
  5 26  1  0  0  0
  5 89  1  0  0  0
  6 25  1  0  0  0
  6 90  1  0  0  0
  6 91  1  0  0  0
  7  8  2  0  0  0
  7 26  1  0  0  0
  7 29  1  0  0  0
  8  9  1  0  0  0
  8 22  1  0  0  0
  9 10  1  0  0  0
  9 27  2  0  0  0
 10 11  2  0  0  0
 10 15  1  0  0  0
 11 12  1  0  0  0
 11 92  1  0  0  0
 12 13  2  0  0  0
 12 93  1  0  0  0
 13 14  1  0  0  0
 13 31  1  0  0  0
 14 15  2  0  0  0
 14 94  1  0  0  0
 15 95  1  0  0  0
 16 17  2  0  0  0
 16 21  1  0  0  0
 16 31  1  0  0  0
 17 18  1  0  0  0
 17 96  1  0  0  0
 18 19  2  0  0  0
 18 97  1  0  0  0
 19 20  1  0  0  0
 19 24  1  0  0  0
 20 21  2  0  0  0
 20 98  1  0  0  0
 21 23  1  0  0  0
 22 28  1  0  0  0
 22 32  2  0  0  0
 26 27  1  0  0  0
 28 99  1  0  0  0
 28100  1  0  0  0
 29101  1  0  0  0
 29102  1  0  0  0
 33 34  1  0  0  0
 33 66  1  0  0  0
 33 70  2  0  0  0
 34 36  1  0  0  0
 34 59  1  0  0  0
 34103  1  0  0  0
 35 44  2  0  0  0
 35 45  1  0  0  0
 35 68  1  0  0  0
 36 56  1  0  0  0
 36104  1  0  0  0
 37 39  1  0  0  0
 37 47  1  0  0  0
 37 66  1  0  0  0
 37105  1  0  0  0
 38 43  2  0  0  0
 38 46  1  0  0  0
 38 47  1  0  0  0
 39 64  1  0  0  0
 39 67  2  0  0  0
 40 52  1  0  0  0
 40 53  2  0  0  0
 40 58  1  0  0  0
 41106  1  0  0  0
 41107  1  0  0  0
 41108  1  0  0  0
 41 48  1  0  0  0
 42 43  1  0  0  0
 42 66  1  0  0  0
 42109  1  0  0  0
 42110  1  0  0  0
 43 44  1  0  0  0
 44111  1  0  0  0
 45 46  2  0  0  0
 45112  1  0  0  0
 46113  1  0  0  0
 47114  1  0  0  0
 47115  1  0  0  0
 48 56  1  0  0  0
 48 65  1  0  0  0
 48116  1  0  0  0
 49 50  1  0  0  0
 49 53  1  0  0  0
 49 64  1  0  0  0
 49117  1  0  0  0
 50 51  1  0  0  0
 50118  1  0  0  0
 50119  1  0  0  0
 51 52  1  0  0  0
 51120  1  0  0  0
 51121  1  0  0  0
 52122  1  0  0  0
 52123  1  0  0  0
 53 54  1  0  0  0
 54 55  2  0  0  0
 54124  1  0  0  0
 55 57  1  0  0  0
 55125  1  0  0  0
 56 69  2  0  0  0
 57 58  2  0  0  0
 57126  1  0  0  0
 58127  1  0  0  0
 59 60  1  0  0  0
 59 61  1  0  0  0
 59 62  1  0  0  0
 60128  1  0  0  0
 60129  1  0  0  0
 60130  1  0  0  0
 61131  1  0  0  0
 61132  1  0  0  0
 61133  1  0  0  0
 62134  1  0  0  0
 62135  1  0  0  0
 62136  1  0  0  0
 63 65  1  0  0  0
 63137  1  0  0  0
 63138  1  0  0  0
 63139  1  0  0  0
 64140  1  0  0  0
 65141  1  0  0  0
 68 77  1  0  0  0
 71 72  2  0  0  0
 71 78  1  0  0  0
 71142  1  0  0  0
 72 76  1  0  0  0
 72 82  1  0  0  0
 73 78  2  0  0  0
 73 79  1  0  0  0
 73 82  1  0  0  0
 74 75  1  0  0  0
 74 79  2  0  0  0
 74143  1  0  0  0
 75 77  1  0  0  0
 75 81  2  0  0  0
 76 80  1  0  0  0
 76144  1  0  0  0
 76145  1  0  0  0
 77146  1  0  0  0
 77147  1  0  0  0
 80148  1  0  0  0
M  ISO  4   1 100  68 101  77 101  80 100
M  END
> <chiral flag>
0

> <version>
0

> <s_m_source_file>
/data/baiqing/PycharmProjects/Reinvent-master-3.2/result/LINK_invent/BTK/process_docking_weight1_custom_product_contain_oxygen_bond_distance_aromatic_linkinvent_7_9_3/rearranged_h_0156.sdf

> <i_m_source_file_index>
90

> <r_mmod_Potential_Energy-OPLS-2005>
-168.50163269043

> <r_mmod_Stretch_Energy-OPLS-2005>
49.1995887756348

> <r_mmod_Bend_Energy-OPLS-2005>
109.2216796875

> <r_mmod_Torsional_Energy-OPLS-2005>
212.182083129883

> <r_mmod_Improper_Torsional_Energy-OPLS-2005>
4.11737871170044

> <r_mmod_Van_der_Waal_Energy-OPLS-2005>
129.386749267578

> <r_mmod_Electrostatic_Energy-OPLS-2005>
-442.812744140625

> <r_mmod_Solvation_Energy-OPLS-2005>
-255.842056274414

> <b_mmod_Minimization_Converged-OPLS-2005>
0

> <r_mmod_RMS_Derivative-OPLS-2005>
1.57509982585907

$$$$
