0
                    3D
 Structure written by MMmdl.
156164  0  0  1  0            999 V2000
  -30.6630  -14.6090   20.5879 C   0  0  0  0  0  0
  -30.4309  -12.3998   19.4526 C   0  0  0  0  0  0
  -29.5059  -12.5433   18.2237 C   0  0  0  0  0  0
  -28.0252  -12.3799   18.6213 C   0  0  0  0  0  0
  -27.6545  -13.2192   19.8715 C   0  0  2  0  0  0
  -28.6906  -13.0212   20.9958 C   0  0  0  0  0  0
  -25.2541  -13.8176   20.5674 C   0  0  0  0  0  0
  -24.1817  -13.0431   20.9181 C   0  0  0  0  0  0
  -24.6401  -11.6904   20.8731 C   0  0  0  0  0  0
  -23.9075  -10.4286   21.0397 C   0  0  0  0  0  0
  -24.3624   -9.4202   21.9175 C   0  0  0  0  0  0
  -23.6294   -8.2242   22.0749 C   0  0  0  0  0  0
  -22.4275   -8.0280   21.3545 C   0  0  0  0  0  0
  -21.9914   -9.0251   20.4647 C   0  0  0  0  0  0
  -22.7248  -10.2126   20.3048 C   0  0  0  0  0  0
  -21.6853   -6.0739   22.5283 C   0  0  0  0  0  0
  -21.4013   -6.5641   23.8218 C   0  0  0  0  0  0
  -21.3657   -5.6793   24.9177 C   0  0  0  0  0  0
  -21.6043   -4.3057   24.7230 C   0  0  0  0  0  0
  -21.8818   -3.8150   23.4350 C   0  0  0  0  0  0
  -21.9187   -4.6965   22.3403 C   0  0  0  0  0  0
  -22.7840  -13.5214   21.1850 C   0  0  0  0  0  0
  -22.1656   -4.2154   21.0981 F   0  0  0  0  0  0
  -21.5626   -3.4534   25.7740 F   0  0  0  0  0  0
  -30.0150  -13.3971   20.4663 N   0  0  0  0  0  0
  -26.2980  -12.9363   20.3321 N   0  0  0  0  0  0
  -25.9329  -11.6512   20.5743 N   0  0  0  0  0  0
  -22.0495  -12.8196   22.0410 N   0  0  0  0  0  0
  -25.4251  -15.1903   20.4083 N   0  0  0  0  0  0
  -31.7414  -14.8068   20.0159 O   0  0  0  0  0  0
  -21.6637   -6.8881   21.4245 O   0  0  0  0  0  0
  -22.3513  -14.5527   20.6716 O   0  0  0  0  0  0
  -24.6239  -31.8607   23.2037 C   0  0  0  0  0  0
  -25.9091  -32.4783   23.8359 C   0  0  1  0  0  0
  -27.2251  -27.3333   20.1208 C   0  0  0  0  0  0
  -25.5909  -33.8584   24.2284 N   0  0  0  0  0  0
  -23.4174  -30.4839   21.5460 C   0  0  2  0  0  0
  -24.8642  -28.9388   20.1131 C   0  0  0  0  0  0
  -22.7456  -29.4633   22.4948 C   0  0  0  0  0  0
  -18.0283  -28.1391   22.8491 C   0  0  0  0  0  0
  -24.1488  -36.7294   23.2640 C   0  0  0  0  0  0
  -25.9565  -30.7971   21.3717 C   0  0  0  0  0  0
  -26.0324  -29.4255   20.7144 C   0  0  0  0  0  0
  -27.2187  -28.6353   20.7056 C   0  0  0  0  0  0
  -26.0388  -26.8974   19.4916 C   0  0  0  0  0  0
  -24.8686  -27.6798   19.4925 C   0  0  0  0  0  0
  -23.6307  -29.8170   20.1619 C   0  0  0  0  0  0
  -25.4114  -36.3092   24.0332 C   0  0  1  0  0  0
  -20.5882  -28.3685   23.1294 C   0  0  2  0  0  0
  -20.6776  -26.9403   22.5426 C   0  0  0  0  0  0
  -19.5756  -26.6383   21.5227 C   0  0  0  0  0  0
  -18.1932  -26.7929   22.1631 C   0  0  0  0  0  0
  -19.1535  -28.8855   23.2886 C   0  0  0  0  0  0
  -18.9462  -30.1457   23.8898 C   0  0  0  0  0  0
  -17.6463  -30.6595   24.0565 C   0  0  0  0  0  0
  -25.9050  -34.9455   23.5112 C   0  0  0  0  0  0
  -16.5356  -29.9093   23.6336 C   0  0  0  0  0  0
  -16.7272  -28.6504   23.0364 C   0  0  0  0  0  0
  -26.4489  -31.6582   25.0719 C   0  0  0  0  0  0
  -25.3730  -31.3697   26.1446 C   0  0  0  0  0  0
  -27.0324  -30.3010   24.6149 C   0  0  0  0  0  0
  -27.6053  -32.4311   25.7483 C   0  0  0  0  0  0
  -27.5578  -37.1803   24.8468 C   0  0  0  0  0  0
  -21.4175  -29.3039   22.3681 N   0  0  0  0  0  0
  -26.4296  -37.3784   23.9409 N   0  0  0  0  0  0
  -24.6847  -31.0631   22.0978 N   0  0  0  0  0  0
  -23.4189  -28.8177   23.3026 O   0  0  0  0  0  0
  -28.3429  -26.4923   20.1354 O   0  0  0  0  0  0
  -26.5623  -34.8916   22.4684 O   0  0  0  0  0  0
  -23.5408  -32.1403   23.7376 O   0  0  0  0  0  0
  -30.4824  -17.7521   19.9136 C   0  0  0  0  0  0
  -28.9187  -19.5272   21.4015 C   0  0  0  0  0  0
  -29.8366  -17.1973   21.0542 C   0  0  0  0  0  0
  -30.3655  -19.1249   19.5418 C   0  0  0  0  0  0
  -29.0133  -18.1488   21.7695 C   0  0  0  0  0  0
  -29.6001  -20.0630   20.2838 C   0  0  0  0  0  0
  -30.0652  -15.7237   21.5257 C   0  0  0  0  0  0
  -28.9915  -23.9287   19.9693 C   0  0  0  0  0  0
  -28.1487  -25.1075   20.6210 C   0  0  0  0  0  0
  -28.8061  -22.4552   20.5561 C   0  0  0  0  0  0
  -29.8304  -15.4133   22.7345 N   0  0  0  0  0  0
  -31.0321  -19.5761   18.4051 N   0  0  0  0  0  0
  -28.2424  -17.7904   22.8821 N   0  0  0  0  0  0
  -29.5678  -21.4136   19.8650 O   0  0  0  0  0  0
  -31.4730  -12.5207   19.1532 H   0  0  0  0  0  0
  -30.3645  -11.3909   19.8628 H   0  0  0  0  0  0
  -29.7721  -11.8117   17.4598 H   0  0  0  0  0  0
  -29.6535  -13.5246   17.7700 H   0  0  0  0  0  0
  -27.8444  -11.3226   18.8184 H   0  0  0  0  0  0
  -27.3818  -12.6484   17.7827 H   0  0  0  0  0  0
  -27.6912  -14.2677   19.5738 H   0  0  0  0  0  0
  -28.7020  -11.9790   21.3183 H   0  0  0  0  0  0
  -28.3877  -13.5762   21.8794 H   0  0  0  0  0  0
  -25.2770   -9.5674   22.4752 H   0  0  0  0  0  0
  -24.0003   -7.4630   22.7460 H   0  0  0  0  0  0
  -21.0850   -8.8779   19.8949 H   0  0  0  0  0  0
  -22.3715  -10.9669   19.6159 H   0  0  0  0  0  0
  -21.2015   -7.6151   23.9729 H   0  0  0  0  0  0
  -21.1479   -6.0519   25.9083 H   0  0  0  0  0  0
  -22.0603   -2.7616   23.2851 H   0  0  0  0  0  0
  -22.4103  -11.9857   22.4803 H   0  0  0  0  0  0
  -21.1123  -13.1237   22.2631 H   0  0  0  0  0  0
  -24.6604  -15.8473   20.5203 H   0  0  0  0  0  0
  -26.2788  -15.6313   20.0908 H   0  0  0  0  0  0
  -26.7148  -32.5463   23.1101 H   0  0  0  0  0  0
  -25.0043  -33.9740   25.0415 H   0  0  0  0  0  0
  -22.7106  -31.3039   21.4027 H   0  0  0  0  0  0
  -23.3757  -35.9621   23.3317 H   0  0  0  0  0  0
  -24.3589  -36.8920   22.2057 H   0  0  0  0  0  0
  -23.7235  -37.6494   23.6654 H   0  0  0  0  0  0
  -26.0847  -31.5618   20.6042 H   0  0  0  0  0  0
  -26.8369  -30.8483   21.9996 H   0  0  0  0  0  0
  -28.1169  -29.0066   21.1792 H   0  0  0  0  0  0
  -26.0103  -25.9363   18.9976 H   0  0  0  0  0  0
  -23.9743  -27.3053   19.0133 H   0  0  0  0  0  0
  -23.7438  -30.5925   19.4034 H   0  0  0  0  0  0
  -22.7513  -29.2443   19.8623 H   0  0  0  0  0  0
  -25.1296  -36.1957   25.0826 H   0  0  0  0  0  0
  -20.9976  -28.3269   24.1410 H   0  0  0  0  0  0
  -20.5688  -26.2286   23.3624 H   0  0  0  0  0  0
  -21.6640  -26.7439   22.1198 H   0  0  0  0  0  0
  -19.6915  -25.6287   21.1281 H   0  0  0  0  0  0
  -19.6702  -27.3186   20.6751 H   0  0  0  0  0  0
  -17.4201  -26.6655   21.4036 H   0  0  0  0  0  0
  -18.0332  -26.0081   22.9038 H   0  0  0  0  0  0
  -19.7945  -30.7267   24.2260 H   0  0  0  0  0  0
  -17.5029  -31.6277   24.5165 H   0  0  0  0  0  0
  -15.5355  -30.3001   23.7647 H   0  0  0  0  0  0
  -15.8673  -28.0817   22.7087 H   0  0  0  0  0  0
  -24.5924  -30.7023   25.7772 H   0  0  0  0  0  0
  -24.8881  -32.2842   26.4862 H   0  0  0  0  0  0
  -25.8068  -30.8888   27.0221 H   0  0  0  0  0  0
  -26.2877  -29.6770   24.1186 H   0  0  0  0  0  0
  -27.4050  -29.7260   25.4638 H   0  0  0  0  0  0
  -27.8740  -30.4319   23.9343 H   0  0  0  0  0  0
  -27.2674  -33.3624   26.2042 H   0  0  0  0  0  0
  -28.3861  -32.6861   25.0300 H   0  0  0  0  0  0
  -28.0711  -31.8443   26.5414 H   0  0  0  0  0  0
  -28.2598  -38.0096   24.7521 H   0  0  0  0  0  0
  -28.1077  -36.2636   24.6292 H   0  0  0  0  0  0
  -27.2297  -37.1451   25.8870 H   0  0  0  0  0  0
  -20.9352  -29.8749   21.6878 H   0  0  0  0  0  0
  -26.0188  -38.2863   24.1410 H   0  0  0  0  0  0
  -31.1136  -17.1178   19.3102 H   0  0  0  0  0  0
  -28.3024  -20.1881   21.9931 H   0  0  0  0  0  0
  -30.0485  -24.1880   20.0361 H   0  0  0  0  0  0
  -28.7602  -23.9028   18.9042 H   0  0  0  0  0  0
  -28.3847  -25.1309   21.6855 H   0  0  0  0  0  0
  -27.1000  -24.8158   20.5811 H   0  0  0  0  0  0
  -27.7496  -22.1887   20.5187 H   0  0  0  0  0  0
  -29.0904  -22.4561   21.6089 H   0  0  0  0  0  0
  -29.4803  -16.2390   23.2171 H   0  0  0  0  0  0
  -30.7289  -20.4813   18.0573 H   0  0  0  0  0  0
  -31.1937  -18.9096   17.6571 H   0  0  0  0  0  0
  -27.8276  -16.8634   22.8761 H   0  0  0  0  0  0
  -27.5842  -18.4791   23.2321 H   0  0  0  0  0  0
  1 25  1  0  0  0
  1 30  2  0  0  0
  1 77  1  0  0  0
  2  3  1  0  0  0
  2 25  1  0  0  0
  2 85  1  0  0  0
  2 86  1  0  0  0
  3  4  1  0  0  0
  3 87  1  0  0  0
  3 88  1  0  0  0
  4  5  1  0  0  0
  4 89  1  0  0  0
  4 90  1  0  0  0
  5  6  1  0  0  0
  5 26  1  0  0  0
  5 91  1  0  0  0
  6 25  1  0  0  0
  6 92  1  0  0  0
  6 93  1  0  0  0
  7  8  2  0  0  0
  7 26  1  0  0  0
  7 29  1  0  0  0
  8  9  1  0  0  0
  8 22  1  0  0  0
  9 10  1  0  0  0
  9 27  2  0  0  0
 10 11  2  0  0  0
 10 15  1  0  0  0
 11 12  1  0  0  0
 11 94  1  0  0  0
 12 13  2  0  0  0
 12 95  1  0  0  0
 13 14  1  0  0  0
 13 31  1  0  0  0
 14 15  2  0  0  0
 14 96  1  0  0  0
 15 97  1  0  0  0
 16 17  2  0  0  0
 16 21  1  0  0  0
 16 31  1  0  0  0
 17 18  1  0  0  0
 17 98  1  0  0  0
 18 19  2  0  0  0
 18 99  1  0  0  0
 19 20  1  0  0  0
 19 24  1  0  0  0
 20 21  2  0  0  0
 20100  1  0  0  0
 21 23  1  0  0  0
 22 28  1  0  0  0
 22 32  2  0  0  0
 26 27  1  0  0  0
 28101  1  0  0  0
 28102  1  0  0  0
 29103  1  0  0  0
 29104  1  0  0  0
 33 34  1  0  0  0
 33 66  1  0  0  0
 33 70  2  0  0  0
 34 36  1  0  0  0
 34 59  1  0  0  0
 34105  1  0  0  0
 35 44  2  0  0  0
 35 45  1  0  0  0
 35 68  1  0  0  0
 36 56  1  0  0  0
 36106  1  0  0  0
 37 39  1  0  0  0
 37 47  1  0  0  0
 37 66  1  0  0  0
 37107  1  0  0  0
 38 43  2  0  0  0
 38 46  1  0  0  0
 38 47  1  0  0  0
 39 64  1  0  0  0
 39 67  2  0  0  0
 40 52  1  0  0  0
 40 53  2  0  0  0
 40 58  1  0  0  0
 41108  1  0  0  0
 41109  1  0  0  0
 41110  1  0  0  0
 41 48  1  0  0  0
 42 43  1  0  0  0
 42 66  1  0  0  0
 42111  1  0  0  0
 42112  1  0  0  0
 43 44  1  0  0  0
 44113  1  0  0  0
 45 46  2  0  0  0
 45114  1  0  0  0
 46115  1  0  0  0
 47116  1  0  0  0
 47117  1  0  0  0
 48 56  1  0  0  0
 48 65  1  0  0  0
 48118  1  0  0  0
 49 50  1  0  0  0
 49 53  1  0  0  0
 49 64  1  0  0  0
 49119  1  0  0  0
 50 51  1  0  0  0
 50120  1  0  0  0
 50121  1  0  0  0
 51 52  1  0  0  0
 51122  1  0  0  0
 51123  1  0  0  0
 52124  1  0  0  0
 52125  1  0  0  0
 53 54  1  0  0  0
 54 55  2  0  0  0
 54126  1  0  0  0
 55 57  1  0  0  0
 55127  1  0  0  0
 56 69  2  0  0  0
 57 58  2  0  0  0
 57128  1  0  0  0
 58129  1  0  0  0
 59 60  1  0  0  0
 59 61  1  0  0  0
 59 62  1  0  0  0
 60130  1  0  0  0
 60131  1  0  0  0
 60132  1  0  0  0
 61133  1  0  0  0
 61134  1  0  0  0
 61135  1  0  0  0
 62136  1  0  0  0
 62137  1  0  0  0
 62138  1  0  0  0
 63 65  1  0  0  0
 63139  1  0  0  0
 63140  1  0  0  0
 63141  1  0  0  0
 64142  1  0  0  0
 65143  1  0  0  0
 68 79  1  0  0  0
 71 73  2  0  0  0
 71 74  1  0  0  0
 71144  1  0  0  0
 72 75  2  0  0  0
 72 76  1  0  0  0
 72145  1  0  0  0
 73 75  1  0  0  0
 73 77  1  0  0  0
 74 76  2  0  0  0
 74 82  1  0  0  0
 75 83  1  0  0  0
 76 84  1  0  0  0
 77 81  2  0  0  0
 78 79  1  0  0  0
 78 80  1  0  0  0
 78146  1  0  0  0
 78147  1  0  0  0
 79148  1  0  0  0
 79149  1  0  0  0
 80 84  1  0  0  0
 80150  1  0  0  0
 80151  1  0  0  0
 81152  1  0  0  0
 82153  1  0  0  0
 82154  1  0  0  0
 83155  1  0  0  0
 83156  1  0  0  0
M  ISO  4   1 100  68 101  77 100  79 101
M  END
> <chiral flag>
0

> <version>
0

> <s_m_source_file>
/data/baiqing/PycharmProjects/Reinvent-master-3.2/result/LINK_invent/BTK/process_docking_weight1_custom_product_contain_oxygen_bond_distance_aromatic_linkinvent_7_9_3/rearranged_h_0095.sdf

> <i_m_source_file_index>
1

> <r_mmod_Potential_Energy-OPLS-2005>
207.243209838867

> <r_mmod_Stretch_Energy-OPLS-2005>
94.0333251953125

> <r_mmod_Bend_Energy-OPLS-2005>
155.381286621094

> <r_mmod_Torsional_Energy-OPLS-2005>
221.868499755859

> <r_mmod_Improper_Torsional_Energy-OPLS-2005>
10.880051612854

> <r_mmod_Van_der_Waal_Energy-OPLS-2005>
159.395477294922

> <r_mmod_Electrostatic_Energy-OPLS-2005>
-255.119003295898

> <r_mmod_Solvation_Energy-OPLS-2005>
-217.673141479492

> <b_mmod_Minimization_Converged-OPLS-2005>
0

> <r_mmod_RMS_Derivative-OPLS-2005>
1.57947278022766

$$$$
1
                    3D
 Structure written by MMmdl.
160168  0  0  1  0            999 V2000
  -30.5814  -14.9105   20.5101 C   0  0  0  0  0  0
  -30.4389  -12.5762   19.5054 C   0  0  0  0  0  0
  -29.5233  -12.5493   18.2593 C   0  0  0  0  0  0
  -28.0543  -12.3329   18.6652 C   0  0  0  0  0  0
  -27.6356  -13.2464   19.8442 C   0  0  2  0  0  0
  -28.6703  -13.2313   20.9854 C   0  0  0  0  0  0
  -25.2478  -13.8215   20.5693 C   0  0  0  0  0  0
  -24.1784  -13.0437   20.9188 C   0  0  0  0  0  0
  -24.6399  -11.6920   20.8720 C   0  0  0  0  0  0
  -23.9079  -10.4290   21.0387 C   0  0  0  0  0  0
  -24.3620   -9.4210   21.9175 C   0  0  0  0  0  0
  -23.6288   -8.2250   22.0757 C   0  0  0  0  0  0
  -22.4272   -8.0284   21.3544 C   0  0  0  0  0  0
  -21.9904   -9.0261   20.4649 C   0  0  0  0  0  0
  -22.7241  -10.2133   20.3047 C   0  0  0  0  0  0
  -21.6851   -6.0734   22.5278 C   0  0  0  0  0  0
  -21.4014   -6.5642   23.8210 C   0  0  0  0  0  0
  -21.3660   -5.6798   24.9174 C   0  0  0  0  0  0
  -21.6041   -4.3061   24.7228 C   0  0  0  0  0  0
  -21.8816   -3.8147   23.4350 C   0  0  0  0  0  0
  -21.9191   -4.6961   22.3403 C   0  0  0  0  0  0
  -22.7805  -13.5208   21.1867 C   0  0  0  0  0  0
  -22.1664   -4.2146   21.0982 F   0  0  0  0  0  0
  -21.5623   -3.4545   25.7741 F   0  0  0  0  0  0
  -29.9643  -13.6557   20.4236 N   0  0  0  0  0  0
  -26.2906  -12.9445   20.3231 N   0  0  0  0  0  0
  -25.9337  -11.6572   20.5708 N   0  0  0  0  0  0
  -22.0465  -12.8194   22.0427 N   0  0  0  0  0  0
  -25.4170  -15.1944   20.4178 N   0  0  0  0  0  0
  -31.7148  -15.0096   20.0255 O   0  0  0  0  0  0
  -21.6636   -6.8877   21.4240 O   0  0  0  0  0  0
  -22.3483  -14.5513   20.6720 O   0  0  0  0  0  0
  -24.6459  -31.8453   23.1930 C   0  0  0  0  0  0
  -25.9231  -32.4702   23.8302 C   0  0  1  0  0  0
  -27.1995  -27.1130   20.1374 C   0  0  0  0  0  0
  -25.5976  -33.8510   24.2210 N   0  0  0  0  0  0
  -23.4495  -30.4708   21.5400 C   0  0  2  0  0  0
  -24.8973  -28.9125   20.1051 C   0  0  0  0  0  0
  -22.7582  -29.4556   22.4858 C   0  0  0  0  0  0
  -18.0307  -28.1396   22.8473 C   0  0  0  0  0  0
  -24.1495  -36.7249   23.2639 C   0  0  0  0  0  0
  -26.0111  -30.7080   21.4033 C   0  0  0  0  0  0
  -26.0771  -29.3213   20.7393 C   0  0  0  0  0  0
  -27.2254  -28.4355   20.7498 C   0  0  0  0  0  0
  -26.0069  -26.8565   19.4191 C   0  0  0  0  0  0
  -24.8769  -27.6914   19.4290 C   0  0  0  0  0  0
  -23.6766  -29.8151   20.1553 C   0  0  0  0  0  0
  -25.4126  -36.3034   24.0316 C   0  0  1  0  0  0
  -20.5925  -28.3726   23.1224 C   0  0  2  0  0  0
  -20.6794  -26.9430   22.5397 C   0  0  0  0  0  0
  -19.5765  -26.6383   21.5209 C   0  0  0  0  0  0
  -18.1947  -26.7936   22.1622 C   0  0  0  0  0  0
  -19.1565  -28.8879   23.2843 C   0  0  0  0  0  0
  -18.9482  -30.1473   23.8872 C   0  0  0  0  0  0
  -17.6479  -30.6592   24.0557 C   0  0  0  0  0  0
  -25.9080  -34.9410   23.5065 C   0  0  0  0  0  0
  -16.5369  -29.9084   23.6335 C   0  0  0  0  0  0
  -16.7293  -28.6504   23.0353 C   0  0  0  0  0  0
  -26.4537  -31.6569   25.0746 C   0  0  0  0  0  0
  -25.3709  -31.3769   26.1430 C   0  0  0  0  0  0
  -27.0404  -30.2957   24.6351 C   0  0  0  0  0  0
  -27.6064  -32.4333   25.7531 C   0  0  0  0  0  0
  -27.5577  -37.1785   24.8467 C   0  0  0  0  0  0
  -21.4271  -29.3054   22.3597 N   0  0  0  0  0  0
  -26.4289  -37.3748   23.9408 N   0  0  0  0  0  0
  -24.7219  -31.0291   22.0993 N   0  0  0  0  0  0
  -23.4218  -28.8081   23.2997 O   0  0  0  0  0  0
  -28.2105  -26.0667   20.2418 O   0  0  0  0  0  0
  -26.5653  -34.8901   22.4636 O   0  0  0  0  0  0
  -23.5571  -32.1346   23.7129 O   0  0  0  0  0  0
  -30.4685  -18.6148   21.3590 C   0  0  0  0  0  0
  -30.1606  -20.0286   21.1732 C   0  0  0  0  0  0
  -28.8133  -18.0095   19.7957 C   0  0  0  0  0  0
  -29.8127  -17.5101   20.6943 C   0  0  0  0  0  0
  -29.1294  -20.5147   20.3049 C   0  0  0  0  0  0
  -28.4824  -19.4190   19.6243 C   0  0  0  0  0  0
  -30.1850  -15.0167   23.3964 C   0  0  0  0  0  0
  -29.7593  -15.9636   22.5336 C   0  0  0  0  0  0
  -28.9239  -23.2902   20.4565 C   0  0  0  0  0  0
  -27.7125  -24.3531   18.4768 C   0  0  0  0  0  0
  -26.6232  -24.1911   20.8365 C   0  0  0  0  0  0
  -27.8990  -24.5307   20.0082 C   0  0  0  0  0  0
  -27.4260  -19.7331   18.7658 N   0  0  0  0  0  0
  -28.6494  -21.9513   20.0658 N   0  0  0  0  0  0
  -29.9607  -16.0380   21.1336 N   0  0  0  0  0  0
  -29.9085  -23.5529   21.1500 O   0  0  0  0  0  0
  -31.4750  -12.7239   19.1974 H   0  0  0  0  0  0
  -30.4232  -11.6109   20.0140 H   0  0  0  0  0  0
  -29.8411  -11.7647   17.5713 H   0  0  0  0  0  0
  -29.6185  -13.4912   17.7169 H   0  0  0  0  0  0
  -27.9408  -11.2866   18.9511 H   0  0  0  0  0  0
  -27.3953  -12.4876   17.8100 H   0  0  0  0  0  0
  -27.6144  -14.2604   19.4442 H   0  0  0  0  0  0
  -28.7468  -12.2402   21.4349 H   0  0  0  0  0  0
  -28.3302  -13.8946   21.7775 H   0  0  0  0  0  0
  -25.2767   -9.5688   22.4746 H   0  0  0  0  0  0
  -23.9989   -7.4649   22.7488 H   0  0  0  0  0  0
  -21.0830   -8.8783   19.8962 H   0  0  0  0  0  0
  -22.3694  -10.9670   19.6156 H   0  0  0  0  0  0
  -21.2007   -7.6151   23.9710 H   0  0  0  0  0  0
  -21.1486   -6.0532   25.9075 H   0  0  0  0  0  0
  -22.0590   -2.7608   23.2855 H   0  0  0  0  0  0
  -22.4088  -11.9858   22.4816 H   0  0  0  0  0  0
  -21.1084  -13.1213   22.2642 H   0  0  0  0  0  0
  -26.2849  -15.6380   20.1466 H   0  0  0  0  0  0
  -24.6562  -15.8524   20.5468 H   0  0  0  0  0  0
  -26.7291  -32.5301   23.1020 H   0  0  0  0  0  0
  -25.0108  -33.9627   25.0348 H   0  0  0  0  0  0
  -22.7528  -31.2987   21.3920 H   0  0  0  0  0  0
  -23.3766  -35.9572   23.3292 H   0  0  0  0  0  0
  -24.3584  -36.8888   22.2056 H   0  0  0  0  0  0
  -23.7242  -37.6439   23.6679 H   0  0  0  0  0  0
  -26.1775  -31.4646   20.6350 H   0  0  0  0  0  0
  -26.8784  -30.7503   22.0502 H   0  0  0  0  0  0
  -28.1121  -28.7363   21.2902 H   0  0  0  0  0  0
  -25.8738  -25.9542   18.8519 H   0  0  0  0  0  0
  -23.9866  -27.3814   18.8988 H   0  0  0  0  0  0
  -23.8158  -30.5972   19.4083 H   0  0  0  0  0  0
  -22.7898  -29.2629   19.8389 H   0  0  0  0  0  0
  -25.1316  -36.1860   25.0808 H   0  0  0  0  0  0
  -21.0015  -28.3321   24.1346 H   0  0  0  0  0  0
  -20.5685  -26.2344   23.3618 H   0  0  0  0  0  0
  -21.6660  -26.7433   22.1194 H   0  0  0  0  0  0
  -19.6928  -25.6284   21.1256 H   0  0  0  0  0  0
  -19.6702  -27.3177   20.6725 H   0  0  0  0  0  0
  -17.4213  -26.6670   21.4030 H   0  0  0  0  0  0
  -18.0353  -26.0091   22.9033 H   0  0  0  0  0  0
  -19.7957  -30.7292   24.2239 H   0  0  0  0  0  0
  -17.5030  -31.6271   24.5157 H   0  0  0  0  0  0
  -15.5366  -30.2973   23.7674 H   0  0  0  0  0  0
  -15.8696  -28.0810   22.7083 H   0  0  0  0  0  0
  -24.5901  -30.7101   25.7750 H   0  0  0  0  0  0
  -24.8878  -32.2957   26.4767 H   0  0  0  0  0  0
  -25.7982  -30.9003   27.0262 H   0  0  0  0  0  0
  -26.3041  -29.6680   24.1322 H   0  0  0  0  0  0
  -27.3966  -29.7256   25.4938 H   0  0  0  0  0  0
  -27.8973  -30.4180   23.9725 H   0  0  0  0  0  0
  -27.2661  -33.3656   26.2046 H   0  0  0  0  0  0
  -28.3912  -32.6852   25.0390 H   0  0  0  0  0  0
  -28.0686  -31.8495   26.5497 H   0  0  0  0  0  0
  -28.2586  -38.0088   24.7512 H   0  0  0  0  0  0
  -28.1084  -36.2618   24.6301 H   0  0  0  0  0  0
  -27.2295  -37.1440   25.8870 H   0  0  0  0  0  0
  -20.9477  -29.8784   21.6791 H   0  0  0  0  0  0
  -26.0155  -38.2817   24.1406 H   0  0  0  0  0  0
  -31.2274  -18.3764   22.0908 H   0  0  0  0  0  0
  -30.7195  -20.7501   21.7519 H   0  0  0  0  0  0
  -28.2196  -17.2771   19.2677 H   0  0  0  0  0  0
  -29.9442  -15.0978   24.4472 H   0  0  0  0  0  0
  -30.7696  -14.1564   23.1025 H   0  0  0  0  0  0
  -29.1786  -16.7911   22.9196 H   0  0  0  0  0  0
  -28.4858  -23.7361   18.0173 H   0  0  0  0  0  0
  -27.7701  -25.3025   17.9466 H   0  0  0  0  0  0
  -26.7552  -23.8909   18.2353 H   0  0  0  0  0  0
  -26.4430  -23.1188   20.9210 H   0  0  0  0  0  0
  -25.6932  -24.5791   20.4354 H   0  0  0  0  0  0
  -26.7210  -24.5712   21.8538 H   0  0  0  0  0  0
  -26.8963  -18.9453   18.4076 H   0  0  0  0  0  0
  -26.7933  -20.4591   19.0787 H   0  0  0  0  0  0
  -27.8724  -21.9460   19.4218 H   0  0  0  0  0  0
  1 25  1  0  0  0
  1 30  2  0  0  0
  1 85  1  0  0  0
  2  3  1  0  0  0
  2 25  1  0  0  0
  2 87  1  0  0  0
  2 88  1  0  0  0
  3  4  1  0  0  0
  3 89  1  0  0  0
  3 90  1  0  0  0
  4  5  1  0  0  0
  4 91  1  0  0  0
  4 92  1  0  0  0
  5  6  1  0  0  0
  5 26  1  0  0  0
  5 93  1  0  0  0
  6 25  1  0  0  0
  6 94  1  0  0  0
  6 95  1  0  0  0
  7  8  2  0  0  0
  7 26  1  0  0  0
  7 29  1  0  0  0
  8  9  1  0  0  0
  8 22  1  0  0  0
  9 10  1  0  0  0
  9 27  2  0  0  0
 10 11  2  0  0  0
 10 15  1  0  0  0
 11 12  1  0  0  0
 11 96  1  0  0  0
 12 13  2  0  0  0
 12 97  1  0  0  0
 13 14  1  0  0  0
 13 31  1  0  0  0
 14 15  2  0  0  0
 14 98  1  0  0  0
 15 99  1  0  0  0
 16 17  2  0  0  0
 16 21  1  0  0  0
 16 31  1  0  0  0
 17 18  1  0  0  0
 17100  1  0  0  0
 18 19  2  0  0  0
 18101  1  0  0  0
 19 20  1  0  0  0
 19 24  1  0  0  0
 20 21  2  0  0  0
 20102  1  0  0  0
 21 23  1  0  0  0
 22 28  1  0  0  0
 22 32  2  0  0  0
 26 27  1  0  0  0
 28103  1  0  0  0
 28104  1  0  0  0
 29105  1  0  0  0
 29106  1  0  0  0
 33 34  1  0  0  0
 33 66  1  0  0  0
 33 70  2  0  0  0
 34 36  1  0  0  0
 34 59  1  0  0  0
 34107  1  0  0  0
 35 44  2  0  0  0
 35 45  1  0  0  0
 35 68  1  0  0  0
 36 56  1  0  0  0
 36108  1  0  0  0
 37 39  1  0  0  0
 37 47  1  0  0  0
 37 66  1  0  0  0
 37109  1  0  0  0
 38 43  2  0  0  0
 38 46  1  0  0  0
 38 47  1  0  0  0
 39 64  1  0  0  0
 39 67  2  0  0  0
 40 52  1  0  0  0
 40 53  2  0  0  0
 40 58  1  0  0  0
 41110  1  0  0  0
 41111  1  0  0  0
 41112  1  0  0  0
 41 48  1  0  0  0
 42 43  1  0  0  0
 42 66  1  0  0  0
 42113  1  0  0  0
 42114  1  0  0  0
 43 44  1  0  0  0
 44115  1  0  0  0
 45 46  2  0  0  0
 45116  1  0  0  0
 46117  1  0  0  0
 47118  1  0  0  0
 47119  1  0  0  0
 48 56  1  0  0  0
 48 65  1  0  0  0
 48120  1  0  0  0
 49 50  1  0  0  0
 49 53  1  0  0  0
 49 64  1  0  0  0
 49121  1  0  0  0
 50 51  1  0  0  0
 50122  1  0  0  0
 50123  1  0  0  0
 51 52  1  0  0  0
 51124  1  0  0  0
 51125  1  0  0  0
 52126  1  0  0  0
 52127  1  0  0  0
 53 54  1  0  0  0
 54 55  2  0  0  0
 54128  1  0  0  0
 55 57  1  0  0  0
 55129  1  0  0  0
 56 69  2  0  0  0
 57 58  2  0  0  0
 57130  1  0  0  0
 58131  1  0  0  0
 59 60  1  0  0  0
 59 61  1  0  0  0
 59 62  1  0  0  0
 60132  1  0  0  0
 60133  1  0  0  0
 60134  1  0  0  0
 61135  1  0  0  0
 61136  1  0  0  0
 61137  1  0  0  0
 62138  1  0  0  0
 62139  1  0  0  0
 62140  1  0  0  0
 63 65  1  0  0  0
 63141  1  0  0  0
 63142  1  0  0  0
 63143  1  0  0  0
 64144  1  0  0  0
 65145  1  0  0  0
 68 82  1  0  0  0
 71 72  2  0  0  0
 71 74  1  0  0  0
 71146  1  0  0  0
 72 75  1  0  0  0
 72147  1  0  0  0
 73 74  2  0  0  0
 73 76  1  0  0  0
 73148  1  0  0  0
 74 85  1  0  0  0
 75 76  2  0  0  0
 75 84  1  0  0  0
 76 83  1  0  0  0
 77 78  2  0  0  0
 77149  1  0  0  0
 77150  1  0  0  0
 78 85  1  0  0  0
 78151  1  0  0  0
 79 82  1  0  0  0
 79 84  1  0  0  0
 79 86  2  0  0  0
 80152  1  0  0  0
 80153  1  0  0  0
 80154  1  0  0  0
 80 82  1  0  0  0
 81 82  1  0  0  0
 81155  1  0  0  0
 81156  1  0  0  0
 81157  1  0  0  0
 83158  1  0  0  0
 83159  1  0  0  0
 84160  1  0  0  0
M  ISO  4   1 100  68 101  82 101  85 100
M  END
> <chiral flag>
0

> <version>
0

> <s_m_source_file>
/data/baiqing/PycharmProjects/Reinvent-master-3.2/result/LINK_invent/BTK/process_docking_weight1_custom_product_contain_oxygen_bond_distance_aromatic_linkinvent_7_9_3/rearranged_h_0095.sdf

> <i_m_source_file_index>
2

> <r_mmod_Potential_Energy-OPLS-2005>
634.966064453125

> <r_mmod_Stretch_Energy-OPLS-2005>
258.386779785156

> <r_mmod_Bend_Energy-OPLS-2005>
282.728698730469

> <r_mmod_Torsional_Energy-OPLS-2005>
341.184936523438

> <r_mmod_Improper_Torsional_Energy-OPLS-2005>
9.59132194519043

> <r_mmod_Van_der_Waal_Energy-OPLS-2005>
164.145553588867

> <r_mmod_Electrostatic_Energy-OPLS-2005>
-380.764221191406

> <r_mmod_Solvation_Energy-OPLS-2005>
-233.011444091797

> <b_mmod_Minimization_Converged-OPLS-2005>
0

> <r_mmod_RMS_Derivative-OPLS-2005>
0.735836446285248

$$$$
2
                    3D
 Structure written by MMmdl.
151159  0  0  1  0            999 V2000
  -30.5199  -15.0466   20.3752 C   0  0  0  0  0  0
  -30.4351  -12.6505   19.5081 C   0  0  0  0  0  0
  -29.5259  -12.5349   18.2630 C   0  0  0  0  0  0
  -28.0632  -12.2996   18.6825 C   0  0  0  0  0  0
  -27.6201  -13.2537   19.8215 C   0  0  2  0  0  0
  -28.6574  -13.3464   20.9596 C   0  0  0  0  0  0
  -25.2438  -13.8216   20.5681 C   0  0  0  0  0  0
  -24.1762  -13.0441   20.9203 C   0  0  0  0  0  0
  -24.6386  -11.6926   20.8733 C   0  0  0  0  0  0
  -23.9071  -10.4297   21.0399 C   0  0  0  0  0  0
  -24.3629   -9.4210   21.9172 C   0  0  0  0  0  0
  -23.6309   -8.2241   22.0740 C   0  0  0  0  0  0
  -22.4287   -8.0281   21.3531 C   0  0  0  0  0  0
  -21.9924   -9.0250   20.4629 C   0  0  0  0  0  0
  -22.7248  -10.2129   20.3039 C   0  0  0  0  0  0
  -21.6849   -6.0741   22.5280 C   0  0  0  0  0  0
  -21.4009   -6.5639   23.8219 C   0  0  0  0  0  0
  -21.3662   -5.6784   24.9170 C   0  0  0  0  0  0
  -21.6060   -4.3052   24.7216 C   0  0  0  0  0  0
  -21.8825   -3.8149   23.4333 C   0  0  0  0  0  0
  -21.9194   -4.6969   22.3395 C   0  0  0  0  0  0
  -22.7786  -13.5212   21.1858 C   0  0  0  0  0  0
  -22.1656   -4.2162   21.0966 F   0  0  0  0  0  0
  -21.5632   -3.4531   25.7722 F   0  0  0  0  0  0
  -29.9210  -13.7771   20.3495 N   0  0  0  0  0  0
  -26.2843  -12.9450   20.3162 N   0  0  0  0  0  0
  -25.9316  -11.6579   20.5695 N   0  0  0  0  0  0
  -22.0430  -12.8216   22.0412 N   0  0  0  0  0  0
  -25.4141  -15.1947   20.4117 N   0  0  0  0  0  0
  -31.7344  -15.0431   20.1420 O   0  0  0  0  0  0
  -21.6631   -6.8890   21.4246 O   0  0  0  0  0  0
  -22.3482  -14.5510   20.6691 O   0  0  0  0  0  0
  -24.6516  -31.8376   23.1830 C   0  0  0  0  0  0
  -25.9270  -32.4652   23.8239 C   0  0  1  0  0  0
  -27.2129  -27.0744   20.1534 C   0  0  0  0  0  0
  -25.5984  -33.8446   24.2161 N   0  0  0  0  0  0
  -23.4554  -30.4579   21.5305 C   0  0  2  0  0  0
  -24.9036  -28.8743   20.1111 C   0  0  0  0  0  0
  -22.7599  -29.4533   22.4839 C   0  0  0  0  0  0
  -18.0314  -28.1409   22.8484 C   0  0  0  0  0  0
  -24.1487  -36.7221   23.2639 C   0  0  0  0  0  0
  -26.0179  -30.6925   21.3895 C   0  0  0  0  0  0
  -26.0875  -29.2985   20.7288 C   0  0  0  0  0  0
  -27.2433  -28.4188   20.7274 C   0  0  0  0  0  0
  -25.9992  -26.7678   19.4984 C   0  0  0  0  0  0
  -24.8763  -27.6234   19.4796 C   0  0  0  0  0  0
  -23.6833  -29.7842   20.1524 C   0  0  0  0  0  0
  -25.4116  -36.2985   24.0317 C   0  0  1  0  0  0
  -20.5931  -28.3738   23.1211 C   0  0  2  0  0  0
  -20.6787  -26.9432   22.5394 C   0  0  0  0  0  0
  -19.5747  -26.6387   21.5215 C   0  0  0  0  0  0
  -18.1941  -26.7941   22.1646 C   0  0  0  0  0  0
  -19.1575  -28.8894   23.2834 C   0  0  0  0  0  0
  -18.9487  -30.1502   23.8839 C   0  0  0  0  0  0
  -17.6474  -30.6589   24.0573 C   0  0  0  0  0  0
  -25.9089  -34.9374   23.5055 C   0  0  0  0  0  0
  -16.5365  -29.9081   23.6355 C   0  0  0  0  0  0
  -16.7300  -28.6517   23.0353 C   0  0  0  0  0  0
  -26.4549  -31.6539   25.0711 C   0  0  0  0  0  0
  -25.3727  -31.3771   26.1416 C   0  0  0  0  0  0
  -27.0414  -30.2906   24.6371 C   0  0  0  0  0  0
  -27.6063  -32.4330   25.7502 C   0  0  0  0  0  0
  -27.5576  -37.1752   24.8458 C   0  0  0  0  0  0
  -21.4291  -29.3047   22.3569 N   0  0  0  0  0  0
  -26.4259  -37.3727   23.9436 N   0  0  0  0  0  0
  -24.7283  -31.0198   22.0881 N   0  0  0  0  0  0
  -23.4208  -28.8085   23.3012 O   0  0  0  0  0  0
  -28.2382  -26.0385   20.2065 O   0  0  0  0  0  0
  -26.5676  -34.8886   22.4637 O   0  0  0  0  0  0
  -23.5630  -32.1273   23.7029 O   0  0  0  0  0  0
  -29.5151  -20.4016   20.2605 C   0  0  0  0  0  0
  -28.5862  -21.5772   20.3664 C   0  0  0  0  0  0
  -27.2662  -21.1106   20.6573 C   0  0  0  0  0  0
  -29.1561  -18.9502   20.4059 C   0  0  0  0  0  0
  -26.9884  -19.7154   20.7582 C   0  0  0  0  0  0
  -28.9375  -23.1953   20.2305 C   0  0  0  0  0  0
  -30.1361  -17.6553   20.3047 C   0  0  0  0  0  0
  -27.8616  -24.4947   20.1745 C   0  0  0  0  0  0
  -27.8532  -18.6902   20.6474 N   0  0  0  0  0  0
  -26.1821  -21.9657   20.9037 N   0  0  0  0  0  0
  -25.6828  -19.3240   21.0139 N   0  0  0  0  0  0
  -29.7628  -16.2722   20.4588 N   0  0  0  0  0  0
  -30.1303  -23.5098   20.1252 O   0  0  0  0  0  0
  -31.3144  -17.9350   20.0564 O   0  0  0  0  0  0
  -31.4667  -12.8072   19.1913 H   0  0  0  0  0  0
  -30.4395  -11.7186   20.0753 H   0  0  0  0  0  0
  -29.8690  -11.7287   17.6130 H   0  0  0  0  0  0
  -29.5967  -13.4523   17.6743 H   0  0  0  0  0  0
  -27.9743  -11.2647   19.0146 H   0  0  0  0  0  0
  -27.4020  -12.3964   17.8197 H   0  0  0  0  0  0
  -27.5642  -14.2372   19.3549 H   0  0  0  0  0  0
  -28.7680  -12.3910   21.4735 H   0  0  0  0  0  0
  -28.3348  -14.0653   21.7143 H   0  0  0  0  0  0
  -25.2781   -9.5688   22.4738 H   0  0  0  0  0  0
  -24.0024   -7.4634   22.7465 H   0  0  0  0  0  0
  -21.0856   -8.8777   19.8943 H   0  0  0  0  0  0
  -22.3715  -10.9660   19.6138 H   0  0  0  0  0  0
  -21.1991   -7.6151   23.9730 H   0  0  0  0  0  0
  -21.1476   -6.0496   25.9076 H   0  0  0  0  0  0
  -22.0604   -2.7612   23.2811 H   0  0  0  0  0  0
  -22.4038  -11.9861   22.4793 H   0  0  0  0  0  0
  -21.1044  -13.1233   22.2624 H   0  0  0  0  0  0
  -24.6419  -15.8427   20.5145 H   0  0  0  0  0  0
  -26.2665  -15.6379   20.0954 H   0  0  0  0  0  0
  -26.7344  -32.5207   23.0967 H   0  0  0  0  0  0
  -25.0097  -33.9546   25.0289 H   0  0  0  0  0  0
  -22.7626  -31.2876   21.3746 H   0  0  0  0  0  0
  -23.3759  -35.9541   23.3241 H   0  0  0  0  0  0
  -24.3592  -36.8912   22.2065 H   0  0  0  0  0  0
  -23.7222  -37.6390   23.6717 H   0  0  0  0  0  0
  -26.1895  -31.4449   20.6180 H   0  0  0  0  0  0
  -26.8818  -30.7357   22.0425 H   0  0  0  0  0  0
  -28.1431  -28.7447   21.2302 H   0  0  0  0  0  0
  -25.8778  -25.8160   19.0077 H   0  0  0  0  0  0
  -23.9728  -27.2919   18.9856 H   0  0  0  0  0  0
  -23.8241  -30.5559   19.3942 H   0  0  0  0  0  0
  -22.7964  -29.2294   19.8426 H   0  0  0  0  0  0
  -25.1306  -36.1786   25.0807 H   0  0  0  0  0  0
  -21.0039  -28.3310   24.1330 H   0  0  0  0  0  0
  -20.5672  -26.2351   23.3614 H   0  0  0  0  0  0
  -21.6648  -26.7418   22.1191 H   0  0  0  0  0  0
  -19.6881  -25.6293   21.1259 H   0  0  0  0  0  0
  -19.6668  -27.3194   20.6732 H   0  0  0  0  0  0
  -17.4209  -26.6707   21.4049 H   0  0  0  0  0  0
  -18.0339  -26.0090   22.9050 H   0  0  0  0  0  0
  -19.7955  -30.7367   24.2140 H   0  0  0  0  0  0
  -17.5022  -31.6259   24.5204 H   0  0  0  0  0  0
  -15.5367  -30.2960   23.7697 H   0  0  0  0  0  0
  -15.8717  -28.0834   22.7050 H   0  0  0  0  0  0
  -24.5852  -30.7191   25.7735 H   0  0  0  0  0  0
  -24.8990  -32.2975   26.4822 H   0  0  0  0  0  0
  -25.7985  -30.8920   27.0209 H   0  0  0  0  0  0
  -26.3052  -29.6613   24.1356 H   0  0  0  0  0  0
  -27.3939  -29.7246   25.5002 H   0  0  0  0  0  0
  -27.9003  -30.4090   23.9766 H   0  0  0  0  0  0
  -27.2644  -33.3663   26.1994 H   0  0  0  0  0  0
  -28.3903  -32.6841   25.0349 H   0  0  0  0  0  0
  -28.0703  -31.8517   26.5486 H   0  0  0  0  0  0
  -28.2534  -38.0106   24.7581 H   0  0  0  0  0  0
  -28.1130  -36.2640   24.6177 H   0  0  0  0  0  0
  -27.2329  -37.1274   25.8868 H   0  0  0  0  0  0
  -20.9506  -29.8756   21.6749 H   0  0  0  0  0  0
  -26.0098  -38.2781   24.1472 H   0  0  0  0  0  0
  -30.5549  -20.6202   20.0598 H   0  0  0  0  0  0
  -27.1557  -24.3528   20.9912 H   0  0  0  0  0  0
  -27.2974  -24.3223   19.2605 H   0  0  0  0  0  0
  -26.3808  -22.8066   21.4310 H   0  0  0  0  0  0
  -25.4340  -21.4626   21.3733 H   0  0  0  0  0  0
  -25.0058  -19.9843   20.6563 H   0  0  0  0  0  0
  -25.4647  -18.3689   20.7673 H   0  0  0  0  0  0
  -28.7758  -16.1655   20.6264 H   0  0  0  0  0  0
  1 25  1  0  0  0
  1 30  2  0  0  0
  1 82  1  0  0  0
  2  3  1  0  0  0
  2 25  1  0  0  0
  2 85  1  0  0  0
  2 86  1  0  0  0
  3  4  1  0  0  0
  3 87  1  0  0  0
  3 88  1  0  0  0
  4  5  1  0  0  0
  4 89  1  0  0  0
  4 90  1  0  0  0
  5  6  1  0  0  0
  5 26  1  0  0  0
  5 91  1  0  0  0
  6 25  1  0  0  0
  6 92  1  0  0  0
  6 93  1  0  0  0
  7  8  2  0  0  0
  7 26  1  0  0  0
  7 29  1  0  0  0
  8  9  1  0  0  0
  8 22  1  0  0  0
  9 10  1  0  0  0
  9 27  2  0  0  0
 10 11  2  0  0  0
 10 15  1  0  0  0
 11 12  1  0  0  0
 11 94  1  0  0  0
 12 13  2  0  0  0
 12 95  1  0  0  0
 13 14  1  0  0  0
 13 31  1  0  0  0
 14 15  2  0  0  0
 14 96  1  0  0  0
 15 97  1  0  0  0
 16 17  2  0  0  0
 16 21  1  0  0  0
 16 31  1  0  0  0
 17 18  1  0  0  0
 17 98  1  0  0  0
 18 19  2  0  0  0
 18 99  1  0  0  0
 19 20  1  0  0  0
 19 24  1  0  0  0
 20 21  2  0  0  0
 20100  1  0  0  0
 21 23  1  0  0  0
 22 28  1  0  0  0
 22 32  2  0  0  0
 26 27  1  0  0  0
 28101  1  0  0  0
 28102  1  0  0  0
 29103  1  0  0  0
 29104  1  0  0  0
 33 34  1  0  0  0
 33 66  1  0  0  0
 33 70  2  0  0  0
 34 36  1  0  0  0
 34 59  1  0  0  0
 34105  1  0  0  0
 35 44  2  0  0  0
 35 45  1  0  0  0
 35 68  1  0  0  0
 36 56  1  0  0  0
 36106  1  0  0  0
 37 39  1  0  0  0
 37 47  1  0  0  0
 37 66  1  0  0  0
 37107  1  0  0  0
 38 43  2  0  0  0
 38 46  1  0  0  0
 38 47  1  0  0  0
 39 64  1  0  0  0
 39 67  2  0  0  0
 40 52  1  0  0  0
 40 53  2  0  0  0
 40 58  1  0  0  0
 41108  1  0  0  0
 41109  1  0  0  0
 41110  1  0  0  0
 41 48  1  0  0  0
 42 43  1  0  0  0
 42 66  1  0  0  0
 42111  1  0  0  0
 42112  1  0  0  0
 43 44  1  0  0  0
 44113  1  0  0  0
 45 46  2  0  0  0
 45114  1  0  0  0
 46115  1  0  0  0
 47116  1  0  0  0
 47117  1  0  0  0
 48 56  1  0  0  0
 48 65  1  0  0  0
 48118  1  0  0  0
 49 50  1  0  0  0
 49 53  1  0  0  0
 49 64  1  0  0  0
 49119  1  0  0  0
 50 51  1  0  0  0
 50120  1  0  0  0
 50121  1  0  0  0
 51 52  1  0  0  0
 51122  1  0  0  0
 51123  1  0  0  0
 52124  1  0  0  0
 52125  1  0  0  0
 53 54  1  0  0  0
 54 55  2  0  0  0
 54126  1  0  0  0
 55 57  1  0  0  0
 55127  1  0  0  0
 56 69  2  0  0  0
 57 58  2  0  0  0
 57128  1  0  0  0
 58129  1  0  0  0
 59 60  1  0  0  0
 59 61  1  0  0  0
 59 62  1  0  0  0
 60130  1  0  0  0
 60131  1  0  0  0
 60132  1  0  0  0
 61133  1  0  0  0
 61134  1  0  0  0
 61135  1  0  0  0
 62136  1  0  0  0
 62137  1  0  0  0
 62138  1  0  0  0
 63 65  1  0  0  0
 63139  1  0  0  0
 63140  1  0  0  0
 63141  1  0  0  0
 64142  1  0  0  0
 65143  1  0  0  0
 68 78  1  0  0  0
 71 72  2  0  0  0
 71 74  1  0  0  0
 71144  1  0  0  0
 72 73  1  0  0  0
 72 76  1  0  0  0
 73 75  2  0  0  0
 73 80  1  0  0  0
 74 77  1  0  0  0
 74 79  2  0  0  0
 75 79  1  0  0  0
 75 81  1  0  0  0
 76 78  1  0  0  0
 76 83  2  0  0  0
 77 82  1  0  0  0
 77 84  2  0  0  0
 78145  1  0  0  0
 78146  1  0  0  0
 80147  1  0  0  0
 80148  1  0  0  0
 81149  1  0  0  0
 81150  1  0  0  0
 82151  1  0  0  0
M  ISO  4   1 100  68 101  78 101  82 100
M  END
> <chiral flag>
0

> <version>
0

> <s_m_source_file>
/data/baiqing/PycharmProjects/Reinvent-master-3.2/result/LINK_invent/BTK/process_docking_weight1_custom_product_contain_oxygen_bond_distance_aromatic_linkinvent_7_9_3/rearranged_h_0095.sdf

> <i_m_source_file_index>
3

> <r_mmod_Potential_Energy-OPLS-2005>
289.60693359375

> <r_mmod_Stretch_Energy-OPLS-2005>
324.978302001953

> <r_mmod_Bend_Energy-OPLS-2005>
269.174713134766

> <r_mmod_Torsional_Energy-OPLS-2005>
255.503372192383

> <r_mmod_Improper_Torsional_Energy-OPLS-2005>
14.7447986602783

> <r_mmod_Van_der_Waal_Energy-OPLS-2005>
146.908905029297

> <r_mmod_Electrostatic_Energy-OPLS-2005>
-728.382995605469

> <r_mmod_Solvation_Energy-OPLS-2005>
-254.49836730957

> <b_mmod_Minimization_Converged-OPLS-2005>
0

> <r_mmod_RMS_Derivative-OPLS-2005>
2.66339921951294

$$$$
3
                    3D
 Structure written by MMmdl.
156165  0  0  1  0            999 V2000
  -30.6180  -14.6583   20.4806 C   0  0  0  0  0  0
  -30.4430  -12.4044   19.4410 C   0  0  0  0  0  0
  -29.5106  -12.5265   18.2145 C   0  0  0  0  0  0
  -28.0286  -12.3680   18.6205 C   0  0  0  0  0  0
  -27.6521  -13.2278   19.8579 C   0  0  2  0  0  0
  -28.7031  -13.0930   20.9838 C   0  0  0  0  0  0
  -25.2539  -13.8195   20.5663 C   0  0  0  0  0  0
  -24.1820  -13.0454   20.9183 C   0  0  0  0  0  0
  -24.6408  -11.6923   20.8729 C   0  0  0  0  0  0
  -23.9074  -10.4303   21.0396 C   0  0  0  0  0  0
  -24.3615   -9.4216   21.9188 C   0  0  0  0  0  0
  -23.6284   -8.2259   22.0758 C   0  0  0  0  0  0
  -22.4273   -8.0279   21.3538 C   0  0  0  0  0  0
  -21.9903   -9.0265   20.4660 C   0  0  0  0  0  0
  -22.7235  -10.2146   20.3057 C   0  0  0  0  0  0
  -21.6859   -6.0729   22.5278 C   0  0  0  0  0  0
  -21.4012   -6.5622   23.8208 C   0  0  0  0  0  0
  -21.3661   -5.6775   24.9168 C   0  0  0  0  0  0
  -21.6042   -4.3037   24.7226 C   0  0  0  0  0  0
  -21.8820   -3.8134   23.4336 C   0  0  0  0  0  0
  -21.9199   -4.6948   22.3401 C   0  0  0  0  0  0
  -22.7831  -13.5235   21.1823 C   0  0  0  0  0  0
  -22.1666   -4.2130   21.0980 F   0  0  0  0  0  0
  -21.5629   -3.4530   25.7745 F   0  0  0  0  0  0
  -30.0181  -13.4284   20.4133 N   0  0  0  0  0  0
  -26.2992  -12.9399   20.3283 N   0  0  0  0  0  0
  -25.9346  -11.6551   20.5743 N   0  0  0  0  0  0
  -22.0432  -12.8281   22.0389 N   0  0  0  0  0  0
  -25.4186  -15.1926   20.4016 N   0  0  0  0  0  0
  -31.7992  -14.8227   20.1611 O   0  0  0  0  0  0
  -21.6629   -6.8881   21.4245 O   0  0  0  0  0  0
  -22.3526  -14.5558   20.6649 O   0  0  0  0  0  0
  -24.6355  -31.8590   23.2020 C   0  0  0  0  0  0
  -25.9196  -32.4770   23.8345 C   0  0  1  0  0  0
  -27.2261  -27.3039   20.1082 C   0  0  0  0  0  0
  -25.5999  -33.8555   24.2265 N   0  0  0  0  0  0
  -23.4284  -30.4853   21.5479 C   0  0  2  0  0  0
  -24.8742  -28.9470   20.1117 C   0  0  0  0  0  0
  -22.7504  -29.4614   22.4899 C   0  0  0  0  0  0
  -18.0287  -28.1367   22.8487 C   0  0  0  0  0  0
  -24.1497  -36.7262   23.2628 C   0  0  0  0  0  0
  -25.9753  -30.7907   21.3718 C   0  0  0  0  0  0
  -26.0514  -29.4195   20.7053 C   0  0  0  0  0  0
  -27.2361  -28.6146   20.6847 C   0  0  0  0  0  0
  -26.0257  -26.9083   19.4684 C   0  0  0  0  0  0
  -24.8645  -27.6934   19.4871 C   0  0  0  0  0  0
  -23.6482  -29.8357   20.1605 C   0  0  0  0  0  0
  -25.4110  -36.3040   24.0316 C   0  0  1  0  0  0
  -20.5899  -28.3678   23.1269 C   0  0  2  0  0  0
  -20.6770  -26.9391   22.5402 C   0  0  0  0  0  0
  -19.5753  -26.6375   21.5192 C   0  0  0  0  0  0
  -18.1931  -26.7922   22.1609 C   0  0  0  0  0  0
  -19.1543  -28.8826   23.2890 C   0  0  0  0  0  0
  -18.9459  -30.1425   23.8908 C   0  0  0  0  0  0
  -17.6457  -30.6566   24.0552 C   0  0  0  0  0  0
  -25.9064  -34.9426   23.5062 C   0  0  0  0  0  0
  -16.5346  -29.9053   23.6337 C   0  0  0  0  0  0
  -16.7273  -28.6473   23.0356 C   0  0  0  0  0  0
  -26.4544  -31.6561   25.0713 C   0  0  0  0  0  0
  -25.3765  -31.3771   26.1442 C   0  0  0  0  0  0
  -27.0359  -30.2962   24.6176 C   0  0  0  0  0  0
  -27.6113  -32.4253   25.7500 C   0  0  0  0  0  0
  -27.5569  -37.1778   24.8446 C   0  0  0  0  0  0
  -21.4199  -29.3059   22.3672 N   0  0  0  0  0  0
  -26.4263  -37.3748   23.9422 N   0  0  0  0  0  0
  -24.6993  -31.0577   22.0999 N   0  0  0  0  0  0
  -23.4191  -28.8121   23.2971 O   0  0  0  0  0  0
  -28.3025  -26.3934   20.1813 O   0  0  0  0  0  0
  -26.5590  -34.8917   22.4607 O   0  0  0  0  0  0
  -23.5501  -32.1414   23.7306 O   0  0  0  0  0  0
  -28.9831  -19.3176   19.7296 C   0  0  0  0  0  0
  -29.0246  -17.8923   19.7383 C   0  0  0  0  0  0
  -30.3290  -23.7645   20.4017 C   0  0  0  0  0  0
  -30.7208  -17.9415   21.4405 C   0  0  0  0  0  0
  -28.9049  -23.7703   20.4852 C   0  0  0  0  0  0
  -29.7769  -20.1055   20.6045 C   0  0  0  0  0  0
  -29.8987  -17.1601   20.5855 C   0  0  0  0  0  0
  -30.6419  -19.3722   21.4737 C   0  0  0  0  0  0
  -28.5659  -22.4189   20.6336 C   0  0  0  0  0  0
  -30.7710  -22.4650   20.4743 C   0  0  0  0  0  0
  -27.2022  -21.8283   20.8251 C   0  0  0  0  0  0
  -27.8976  -24.9756   20.4110 C   0  0  0  0  0  0
  -29.7045  -21.5780   20.5826 N   0  0  0  0  0  0
  -29.7610  -15.7070   20.6885 N   0  0  0  0  0  0
  -32.0531  -22.0104   20.4279 O   0  0  0  0  0  0
  -31.3831  -20.0287   22.4005 F   0  0  0  0  0  0
  -31.4842  -12.5316   19.1381 H   0  0  0  0  0  0
  -30.3710  -11.4076   19.8796 H   0  0  0  0  0  0
  -29.7770  -11.7868   17.4571 H   0  0  0  0  0  0
  -29.6603  -13.5005   17.7431 H   0  0  0  0  0  0
  -27.8498  -11.3152   18.8282 H   0  0  0  0  0  0
  -27.3865  -12.6266   17.7782 H   0  0  0  0  0  0
  -27.6597  -14.2611   19.5128 H   0  0  0  0  0  0
  -28.7118  -12.0782   21.3854 H   0  0  0  0  0  0
  -28.4544  -13.7436   21.8228 H   0  0  0  0  0  0
  -25.2757   -9.5699   22.4752 H   0  0  0  0  0  0
  -23.9987   -7.4656   22.7470 H   0  0  0  0  0  0
  -21.0835   -8.8796   19.8978 H   0  0  0  0  0  0
  -22.3692  -10.9671   19.6160 H   0  0  0  0  0  0
  -21.2004   -7.6131   23.9703 H   0  0  0  0  0  0
  -21.1480   -6.0503   25.9068 H   0  0  0  0  0  0
  -22.0603   -2.7594   23.2845 H   0  0  0  0  0  0
  -22.3991  -11.9949   22.4854 H   0  0  0  0  0  0
  -21.1049  -13.1360   22.2548 H   0  0  0  0  0  0
  -24.6348  -15.8318   20.4643 H   0  0  0  0  0  0
  -26.2594  -15.6343   20.0553 H   0  0  0  0  0  0
  -26.7267  -32.5447   23.1100 H   0  0  0  0  0  0
  -25.0172  -33.9702   25.0423 H   0  0  0  0  0  0
  -22.7289  -31.3111   21.4087 H   0  0  0  0  0  0
  -23.3752  -35.9600   23.3248 H   0  0  0  0  0  0
  -24.3608  -36.8925   22.2052 H   0  0  0  0  0  0
  -23.7274  -37.6459   23.6683 H   0  0  0  0  0  0
  -26.1020  -31.5575   20.6062 H   0  0  0  0  0  0
  -26.8590  -30.8396   21.9971 H   0  0  0  0  0  0
  -28.1436  -28.9791   21.1453 H   0  0  0  0  0  0
  -25.9325  -25.9732   18.9433 H   0  0  0  0  0  0
  -23.9704  -27.3122   19.0176 H   0  0  0  0  0  0
  -23.7992  -30.6276   19.4255 H   0  0  0  0  0  0
  -22.7630  -29.2908   19.8311 H   0  0  0  0  0  0
  -25.1293  -36.1839   25.0806 H   0  0  0  0  0  0
  -21.0005  -28.3235   24.1381 H   0  0  0  0  0  0
  -20.5636  -26.2268   23.3590 H   0  0  0  0  0  0
  -21.6649  -26.7401   22.1230 H   0  0  0  0  0  0
  -19.6916  -25.6284   21.1218 H   0  0  0  0  0  0
  -19.6695  -27.3180   20.6715 H   0  0  0  0  0  0
  -17.4199  -26.6658   21.4010 H   0  0  0  0  0  0
  -18.0331  -26.0061   22.9006 H   0  0  0  0  0  0
  -19.7926  -30.7243   24.2296 H   0  0  0  0  0  0
  -17.5002  -31.6264   24.5132 H   0  0  0  0  0  0
  -15.5339  -30.2940   23.7676 H   0  0  0  0  0  0
  -15.8678  -28.0791   22.7073 H   0  0  0  0  0  0
  -24.5829  -30.7259   25.7764 H   0  0  0  0  0  0
  -24.9107  -32.2993   26.4927 H   0  0  0  0  0  0
  -25.8056  -30.8852   27.0181 H   0  0  0  0  0  0
  -26.2931  -29.6700   24.1220 H   0  0  0  0  0  0
  -27.4059  -29.7230   25.4690 H   0  0  0  0  0  0
  -27.8812  -30.4205   23.9402 H   0  0  0  0  0  0
  -27.2759  -33.3553   26.2110 H   0  0  0  0  0  0
  -28.3958  -32.6792   25.0355 H   0  0  0  0  0  0
  -28.0756  -31.8335   26.5415 H   0  0  0  0  0  0
  -28.2531  -38.0116   24.7501 H   0  0  0  0  0  0
  -28.1113  -36.2637   24.6226 H   0  0  0  0  0  0
  -27.2316  -37.1395   25.8857 H   0  0  0  0  0  0
  -20.9311  -29.8839   21.6983 H   0  0  0  0  0  0
  -26.0109  -38.2802   24.1455 H   0  0  0  0  0  0
  -28.3046  -19.8087   19.0488 H   0  0  0  0  0  0
  -28.3569  -17.3629   19.0733 H   0  0  0  0  0  0
  -30.9639  -24.6331   20.2793 H   0  0  0  0  0  0
  -31.3845  -17.4446   22.1302 H   0  0  0  0  0  0
  -26.5723  -22.4829   21.4267 H   0  0  0  0  0  0
  -27.2391  -20.8761   21.3553 H   0  0  0  0  0  0
  -26.7133  -21.6658   19.8640 H   0  0  0  0  0  0
  -27.2923  -24.9552   21.3172 H   0  0  0  0  0  0
  -27.2458  -24.6300   19.6118 H   0  0  0  0  0  0
  -28.8074  -15.3871   20.7646 H   0  0  0  0  0  0
  -32.6310  -22.7511   20.5736 H   0  0  0  0  0  0
  1 25  1  0  0  0
  1 30  2  0  0  0
  1 84  1  0  0  0
  2  3  1  0  0  0
  2 25  1  0  0  0
  2 87  1  0  0  0
  2 88  1  0  0  0
  3  4  1  0  0  0
  3 89  1  0  0  0
  3 90  1  0  0  0
  4  5  1  0  0  0
  4 91  1  0  0  0
  4 92  1  0  0  0
  5  6  1  0  0  0
  5 26  1  0  0  0
  5 93  1  0  0  0
  6 25  1  0  0  0
  6 94  1  0  0  0
  6 95  1  0  0  0
  7  8  2  0  0  0
  7 26  1  0  0  0
  7 29  1  0  0  0
  8  9  1  0  0  0
  8 22  1  0  0  0
  9 10  1  0  0  0
  9 27  2  0  0  0
 10 11  2  0  0  0
 10 15  1  0  0  0
 11 12  1  0  0  0
 11 96  1  0  0  0
 12 13  2  0  0  0
 12 97  1  0  0  0
 13 14  1  0  0  0
 13 31  1  0  0  0
 14 15  2  0  0  0
 14 98  1  0  0  0
 15 99  1  0  0  0
 16 17  2  0  0  0
 16 21  1  0  0  0
 16 31  1  0  0  0
 17 18  1  0  0  0
 17100  1  0  0  0
 18 19  2  0  0  0
 18101  1  0  0  0
 19 20  1  0  0  0
 19 24  1  0  0  0
 20 21  2  0  0  0
 20102  1  0  0  0
 21 23  1  0  0  0
 22 28  1  0  0  0
 22 32  2  0  0  0
 26 27  1  0  0  0
 28103  1  0  0  0
 28104  1  0  0  0
 29105  1  0  0  0
 29106  1  0  0  0
 33 34  1  0  0  0
 33 66  1  0  0  0
 33 70  2  0  0  0
 34 36  1  0  0  0
 34 59  1  0  0  0
 34107  1  0  0  0
 35 44  2  0  0  0
 35 45  1  0  0  0
 35 68  1  0  0  0
 36 56  1  0  0  0
 36108  1  0  0  0
 37 39  1  0  0  0
 37 47  1  0  0  0
 37 66  1  0  0  0
 37109  1  0  0  0
 38 43  2  0  0  0
 38 46  1  0  0  0
 38 47  1  0  0  0
 39 64  1  0  0  0
 39 67  2  0  0  0
 40 52  1  0  0  0
 40 53  2  0  0  0
 40 58  1  0  0  0
 41110  1  0  0  0
 41111  1  0  0  0
 41112  1  0  0  0
 41 48  1  0  0  0
 42 43  1  0  0  0
 42 66  1  0  0  0
 42113  1  0  0  0
 42114  1  0  0  0
 43 44  1  0  0  0
 44115  1  0  0  0
 45 46  2  0  0  0
 45116  1  0  0  0
 46117  1  0  0  0
 47118  1  0  0  0
 47119  1  0  0  0
 48 56  1  0  0  0
 48 65  1  0  0  0
 48120  1  0  0  0
 49 50  1  0  0  0
 49 53  1  0  0  0
 49 64  1  0  0  0
 49121  1  0  0  0
 50 51  1  0  0  0
 50122  1  0  0  0
 50123  1  0  0  0
 51 52  1  0  0  0
 51124  1  0  0  0
 51125  1  0  0  0
 52126  1  0  0  0
 52127  1  0  0  0
 53 54  1  0  0  0
 54 55  2  0  0  0
 54128  1  0  0  0
 55 57  1  0  0  0
 55129  1  0  0  0
 56 69  2  0  0  0
 57 58  2  0  0  0
 57130  1  0  0  0
 58131  1  0  0  0
 59 60  1  0  0  0
 59 61  1  0  0  0
 59 62  1  0  0  0
 60132  1  0  0  0
 60133  1  0  0  0
 60134  1  0  0  0
 61135  1  0  0  0
 61136  1  0  0  0
 61137  1  0  0  0
 62138  1  0  0  0
 62139  1  0  0  0
 62140  1  0  0  0
 63 65  1  0  0  0
 63141  1  0  0  0
 63142  1  0  0  0
 63143  1  0  0  0
 64144  1  0  0  0
 65145  1  0  0  0
 68 82  1  0  0  0
 71 72  2  0  0  0
 71 76  1  0  0  0
 71146  1  0  0  0
 72 77  1  0  0  0
 72147  1  0  0  0
 73 75  1  0  0  0
 73 80  2  0  0  0
 73148  1  0  0  0
 74 77  2  0  0  0
 74 78  1  0  0  0
 74149  1  0  0  0
 75 79  2  0  0  0
 75 82  1  0  0  0
 76 78  2  0  0  0
 76 83  1  0  0  0
 77 84  1  0  0  0
 78 86  1  0  0  0
 79 81  1  0  0  0
 79 83  1  0  0  0
 80 83  1  0  0  0
 80 85  1  0  0  0
 81150  1  0  0  0
 81151  1  0  0  0
 81152  1  0  0  0
 82153  1  0  0  0
 82154  1  0  0  0
 84155  1  0  0  0
 85156  1  0  0  0
M  ISO  4   1 100  68 101  82 101  84 100
M  END
> <chiral flag>
0

> <version>
0

> <s_m_source_file>
/data/baiqing/PycharmProjects/Reinvent-master-3.2/result/LINK_invent/BTK/process_docking_weight1_custom_product_contain_oxygen_bond_distance_aromatic_linkinvent_7_9_3/rearranged_h_0095.sdf

> <i_m_source_file_index>
4

> <r_mmod_Potential_Energy-OPLS-2005>
122.042633056641

> <r_mmod_Stretch_Energy-OPLS-2005>
84.289794921875

> <r_mmod_Bend_Energy-OPLS-2005>
142.028213500977

> <r_mmod_Torsional_Energy-OPLS-2005>
261.091949462891

> <r_mmod_Improper_Torsional_Energy-OPLS-2005>
7.37341165542603

> <r_mmod_Van_der_Waal_Energy-OPLS-2005>
141.186935424805

> <r_mmod_Electrostatic_Energy-OPLS-2005>
-345.759796142578

> <r_mmod_Solvation_Energy-OPLS-2005>
-229.201751708984

> <b_mmod_Minimization_Converged-OPLS-2005>
0

> <r_mmod_RMS_Derivative-OPLS-2005>
4.68253946304321

$$$$
4
                    3D
 Structure written by MMmdl.
160169  0  0  1  0            999 V2000
  -30.6280  -14.6630   20.4747 C   0  0  0  0  0  0
  -30.4368  -12.4056   19.4446 C   0  0  0  0  0  0
  -29.5032  -12.5166   18.2181 C   0  0  0  0  0  0
  -28.0270  -12.3495   18.6307 C   0  0  0  0  0  0
  -27.6466  -13.2147   19.8606 C   0  0  2  0  0  0
  -28.7015  -13.0919   20.9849 C   0  0  0  0  0  0
  -25.2441  -13.7997   20.5690 C   0  0  0  0  0  0
  -24.1762  -13.0299   20.9246 C   0  0  0  0  0  0
  -24.6401  -11.6803   20.8812 C   0  0  0  0  0  0
  -23.9091  -10.4217   21.0456 C   0  0  0  0  0  0
  -24.3646   -9.4133   21.9218 C   0  0  0  0  0  0
  -23.6303   -8.2187   22.0778 C   0  0  0  0  0  0
  -22.4284   -8.0265   21.3557 C   0  0  0  0  0  0
  -21.9922   -9.0242   20.4664 C   0  0  0  0  0  0
  -22.7278  -10.2097   20.3080 C   0  0  0  0  0  0
  -21.6823   -6.0762   22.5300 C   0  0  0  0  0  0
  -21.3989   -6.5658   23.8244 C   0  0  0  0  0  0
  -21.3656   -5.6805   24.9192 C   0  0  0  0  0  0
  -21.6044   -4.3070   24.7231 C   0  0  0  0  0  0
  -21.8809   -3.8170   23.4351 C   0  0  0  0  0  0
  -21.9179   -4.6993   22.3414 C   0  0  0  0  0  0
  -22.7789  -13.5124   21.1882 C   0  0  0  0  0  0
  -22.1658   -4.2190   21.0985 F   0  0  0  0  0  0
  -21.5630   -3.4549   25.7739 F   0  0  0  0  0  0
  -30.0134  -13.4368   20.4121 N   0  0  0  0  0  0
  -26.2950  -12.9275   20.3339 N   0  0  0  0  0  0
  -25.9327  -11.6429   20.5794 N   0  0  0  0  0  0
  -22.0436  -12.8166   22.0474 N   0  0  0  0  0  0
  -25.3853  -15.1673   20.4019 N   0  0  0  0  0  0
  -31.8062  -14.8044   20.1365 O   0  0  0  0  0  0
  -21.6611   -6.8898   21.4267 O   0  0  0  0  0  0
  -22.3501  -14.5426   20.6692 O   0  0  0  0  0  0
  -24.6269  -31.8606   23.2041 C   0  0  0  0  0  0
  -25.9125  -32.4783   23.8357 C   0  0  1  0  0  0
  -27.2236  -27.3274   20.1166 C   0  0  0  0  0  0
  -25.5948  -33.8582   24.2287 N   0  0  0  0  0  0
  -23.4179  -30.4853   21.5474 C   0  0  2  0  0  0
  -24.8641  -28.9448   20.1097 C   0  0  0  0  0  0
  -22.7474  -29.4623   22.4948 C   0  0  0  0  0  0
  -18.0294  -28.1386   22.8492 C   0  0  0  0  0  0
  -24.1488  -36.7293   23.2631 C   0  0  0  0  0  0
  -25.9586  -30.7959   21.3705 C   0  0  0  0  0  0
  -26.0335  -29.4235   20.7142 C   0  0  0  0  0  0
  -27.2160  -28.6265   20.7079 C   0  0  0  0  0  0
  -26.0343  -26.9107   19.4678 C   0  0  0  0  0  0
  -24.8680  -27.6947   19.4763 C   0  0  0  0  0  0
  -23.6307  -29.8233   20.1622 C   0  0  0  0  0  0
  -25.4109  -36.3076   24.0328 C   0  0  1  0  0  0
  -20.5889  -28.3685   23.1295 C   0  0  2  0  0  0
  -20.6773  -26.9410   22.5415 C   0  0  0  0  0  0
  -19.5750  -26.6393   21.5210 C   0  0  0  0  0  0
  -18.1930  -26.7936   22.1629 C   0  0  0  0  0  0
  -19.1542  -28.8856   23.2887 C   0  0  0  0  0  0
  -18.9462  -30.1461   23.8901 C   0  0  0  0  0  0
  -17.6459  -30.6589   24.0562 C   0  0  0  0  0  0
  -25.9052  -34.9450   23.5099 C   0  0  0  0  0  0
  -16.5349  -29.9083   23.6328 C   0  0  0  0  0  0
  -16.7275  -28.6505   23.0348 C   0  0  0  0  0  0
  -26.4506  -31.6588   25.0723 C   0  0  0  0  0  0
  -25.3744  -31.3739   26.1457 C   0  0  0  0  0  0
  -27.0330  -30.3013   24.6157 C   0  0  0  0  0  0
  -27.6067  -32.4311   25.7509 C   0  0  0  0  0  0
  -27.5577  -37.1797   24.8470 C   0  0  0  0  0  0
  -21.4190  -29.3038   22.3690 N   0  0  0  0  0  0
  -26.4288  -37.3773   23.9413 N   0  0  0  0  0  0
  -24.6868  -31.0631   22.0982 N   0  0  0  0  0  0
  -23.4204  -28.8143   23.3005 O   0  0  0  0  0  0
  -28.3375  -26.4755   20.2012 O   0  0  0  0  0  0
  -26.5609  -34.8917   22.4659 O   0  0  0  0  0  0
  -23.5439  -32.1399   23.7381 O   0  0  0  0  0  0
  -28.8793  -19.3901   20.0501 C   0  0  0  0  0  0
  -31.0324  -19.3747   21.0971 C   0  0  0  0  0  0
  -28.8738  -17.9648   20.0519 C   0  0  0  0  0  0
  -29.9550  -20.1476   20.5674 C   0  0  0  0  0  0
  -31.0353  -17.9436   21.1085 C   0  0  0  0  0  0
  -29.9459  -17.1890   20.5873 C   0  0  0  0  0  0
  -30.9619  -22.4749   20.5232 C   0  0  0  0  0  0
  -30.5333  -23.9428   20.3706 C   0  0  0  0  0  0
  -28.6778  -22.4335   20.3873 C   0  0  0  0  0  0
  -29.0345  -23.9381   20.6776 C   0  0  2  0  0  0
  -27.6400  -17.2981   19.4981 C   0  0  0  0  0  0
  -28.1236  -25.0305   19.9741 C   0  0  0  0  0  0
  -29.9108  -21.6220   20.5536 N   0  0  0  0  0  0
  -32.1118  -17.2815   21.6902 N   0  0  0  0  0  0
  -29.8020  -15.7293   20.7229 N   0  0  0  0  0  0
  -32.1561  -22.1684   20.5955 O   0  0  0  0  0  0
  -31.4782  -12.5295   19.1428 H   0  0  0  0  0  0
  -30.3726  -11.4139   19.8939 H   0  0  0  0  0  0
  -29.7711  -11.7681   17.4709 H   0  0  0  0  0  0
  -29.6366  -13.4884   17.7399 H   0  0  0  0  0  0
  -27.8643  -11.2954   18.8548 H   0  0  0  0  0  0
  -27.3727  -12.5900   17.7911 H   0  0  0  0  0  0
  -27.6486  -14.2456   19.5140 H   0  0  0  0  0  0
  -28.7224  -12.0757   21.3828 H   0  0  0  0  0  0
  -28.4523  -13.7404   21.8275 H   0  0  0  0  0  0
  -25.2807   -9.5586   22.4783 H   0  0  0  0  0  0
  -24.0016   -7.4570   22.7486 H   0  0  0  0  0  0
  -21.0856   -8.8779   19.8974 H   0  0  0  0  0  0
  -22.3787  -10.9647   19.6185 H   0  0  0  0  0  0
  -21.1966   -7.6162   23.9755 H   0  0  0  0  0  0
  -21.1493   -6.0533   25.9101 H   0  0  0  0  0  0
  -22.0590   -2.7640   23.2826 H   0  0  0  0  0  0
  -22.4042  -11.9816   22.4845 H   0  0  0  0  0  0
  -21.1078  -13.1223   22.2710 H   0  0  0  0  0  0
  -24.5957  -15.7951   20.5051 H   0  0  0  0  0  0
  -26.1990  -15.6132   20.0058 H   0  0  0  0  0  0
  -26.7186  -32.5443   23.1090 H   0  0  0  0  0  0
  -25.0100  -33.9737   25.0436 H   0  0  0  0  0  0
  -22.7098  -31.3043   21.4075 H   0  0  0  0  0  0
  -23.3739  -35.9638   23.3299 H   0  0  0  0  0  0
  -24.3568  -36.8910   22.2045 H   0  0  0  0  0  0
  -23.7268  -37.6506   23.6649 H   0  0  0  0  0  0
  -26.0872  -31.5560   20.5979 H   0  0  0  0  0  0
  -26.8411  -30.8479   21.9968 H   0  0  0  0  0  0
  -28.1142  -28.9900   21.1896 H   0  0  0  0  0  0
  -25.9679  -25.9613   18.9550 H   0  0  0  0  0  0
  -23.9762  -27.3247   18.9897 H   0  0  0  0  0  0
  -23.7493  -30.6007   19.4081 H   0  0  0  0  0  0
  -22.7486  -29.2574   19.8585 H   0  0  0  0  0  0
  -25.1284  -36.1915   25.0822 H   0  0  0  0  0  0
  -20.9994  -28.3258   24.1408 H   0  0  0  0  0  0
  -20.5670  -26.2287   23.3603 H   0  0  0  0  0  0
  -21.6635  -26.7423   22.1200 H   0  0  0  0  0  0
  -19.6894  -25.6303   21.1231 H   0  0  0  0  0  0
  -19.6691  -27.3206   20.6736 H   0  0  0  0  0  0
  -17.4194  -26.6689   21.4035 H   0  0  0  0  0  0
  -18.0329  -26.0077   22.9025 H   0  0  0  0  0  0
  -19.7932  -30.7281   24.2270 H   0  0  0  0  0  0
  -17.5006  -31.6267   24.5163 H   0  0  0  0  0  0
  -15.5349  -30.2977   23.7659 H   0  0  0  0  0  0
  -15.8675  -28.0819   22.7058 H   0  0  0  0  0  0
  -24.5933  -30.7062   25.7807 H   0  0  0  0  0  0
  -24.8916  -32.2909   26.4847 H   0  0  0  0  0  0
  -25.8082  -30.8964   27.0249 H   0  0  0  0  0  0
  -26.2893  -29.6789   24.1171 H   0  0  0  0  0  0
  -27.4016  -29.7256   25.4652 H   0  0  0  0  0  0
  -27.8766  -30.4296   23.9376 H   0  0  0  0  0  0
  -27.2680  -33.3607   26.2092 H   0  0  0  0  0  0
  -28.3893  -32.6874   25.0360 H   0  0  0  0  0  0
  -28.0708  -31.8425   26.5431 H   0  0  0  0  0  0
  -28.2593  -38.0090   24.7481 H   0  0  0  0  0  0
  -28.1071  -36.2617   24.6321 H   0  0  0  0  0  0
  -27.2292  -37.1479   25.8873 H   0  0  0  0  0  0
  -20.9364  -29.8775   21.6912 H   0  0  0  0  0  0
  -26.0162  -38.2848   24.1402 H   0  0  0  0  0  0
  -28.0210  -19.9100   19.6484 H   0  0  0  0  0  0
  -31.8719  -19.8871   21.5434 H   0  0  0  0  0  0
  -30.7321  -24.2627   19.3478 H   0  0  0  0  0  0
  -31.0857  -24.5910   21.0508 H   0  0  0  0  0  0
  -28.3251  -22.3236   19.3602 H   0  0  0  0  0  0
  -27.8858  -22.0747   21.0451 H   0  0  0  0  0  0
  -28.9282  -24.0882   21.7548 H   0  0  0  0  0  0
  -27.0322  -17.0199   20.3519 H   0  0  0  0  0  0
  -27.8846  -16.4243   18.8959 H   0  0  0  0  0  0
  -27.0557  -17.9773   18.8761 H   0  0  0  0  0  0
  -27.1268  -24.7751   20.3369 H   0  0  0  0  0  0
  -28.1122  -24.8559   18.8969 H   0  0  0  0  0  0
  -32.9661  -17.8145   21.8091 H   0  0  0  0  0  0
  -32.2905  -16.3627   21.2846 H   0  0  0  0  0  0
  -28.8570  -15.4323   20.8962 H   0  0  0  0  0  0
  1 25  1  0  0  0
  1 30  2  0  0  0
  1 85  1  0  0  0
  2  3  1  0  0  0
  2 25  1  0  0  0
  2 87  1  0  0  0
  2 88  1  0  0  0
  3  4  1  0  0  0
  3 89  1  0  0  0
  3 90  1  0  0  0
  4  5  1  0  0  0
  4 91  1  0  0  0
  4 92  1  0  0  0
  5  6  1  0  0  0
  5 26  1  0  0  0
  5 93  1  0  0  0
  6 25  1  0  0  0
  6 94  1  0  0  0
  6 95  1  0  0  0
  7  8  2  0  0  0
  7 26  1  0  0  0
  7 29  1  0  0  0
  8  9  1  0  0  0
  8 22  1  0  0  0
  9 10  1  0  0  0
  9 27  2  0  0  0
 10 11  2  0  0  0
 10 15  1  0  0  0
 11 12  1  0  0  0
 11 96  1  0  0  0
 12 13  2  0  0  0
 12 97  1  0  0  0
 13 14  1  0  0  0
 13 31  1  0  0  0
 14 15  2  0  0  0
 14 98  1  0  0  0
 15 99  1  0  0  0
 16 17  2  0  0  0
 16 21  1  0  0  0
 16 31  1  0  0  0
 17 18  1  0  0  0
 17100  1  0  0  0
 18 19  2  0  0  0
 18101  1  0  0  0
 19 20  1  0  0  0
 19 24  1  0  0  0
 20 21  2  0  0  0
 20102  1  0  0  0
 21 23  1  0  0  0
 22 28  1  0  0  0
 22 32  2  0  0  0
 26 27  1  0  0  0
 28103  1  0  0  0
 28104  1  0  0  0
 29105  1  0  0  0
 29106  1  0  0  0
 33 34  1  0  0  0
 33 66  1  0  0  0
 33 70  2  0  0  0
 34 36  1  0  0  0
 34 59  1  0  0  0
 34107  1  0  0  0
 35 44  2  0  0  0
 35 45  1  0  0  0
 35 68  1  0  0  0
 36 56  1  0  0  0
 36108  1  0  0  0
 37 39  1  0  0  0
 37 47  1  0  0  0
 37 66  1  0  0  0
 37109  1  0  0  0
 38 43  2  0  0  0
 38 46  1  0  0  0
 38 47  1  0  0  0
 39 64  1  0  0  0
 39 67  2  0  0  0
 40 52  1  0  0  0
 40 53  2  0  0  0
 40 58  1  0  0  0
 41110  1  0  0  0
 41111  1  0  0  0
 41112  1  0  0  0
 41 48  1  0  0  0
 42 43  1  0  0  0
 42 66  1  0  0  0
 42113  1  0  0  0
 42114  1  0  0  0
 43 44  1  0  0  0
 44115  1  0  0  0
 45 46  2  0  0  0
 45116  1  0  0  0
 46117  1  0  0  0
 47118  1  0  0  0
 47119  1  0  0  0
 48 56  1  0  0  0
 48 65  1  0  0  0
 48120  1  0  0  0
 49 50  1  0  0  0
 49 53  1  0  0  0
 49 64  1  0  0  0
 49121  1  0  0  0
 50 51  1  0  0  0
 50122  1  0  0  0
 50123  1  0  0  0
 51 52  1  0  0  0
 51124  1  0  0  0
 51125  1  0  0  0
 52126  1  0  0  0
 52127  1  0  0  0
 53 54  1  0  0  0
 54 55  2  0  0  0
 54128  1  0  0  0
 55 57  1  0  0  0
 55129  1  0  0  0
 56 69  2  0  0  0
 57 58  2  0  0  0
 57130  1  0  0  0
 58131  1  0  0  0
 59 60  1  0  0  0
 59 61  1  0  0  0
 59 62  1  0  0  0
 60132  1  0  0  0
 60133  1  0  0  0
 60134  1  0  0  0
 61135  1  0  0  0
 61136  1  0  0  0
 61137  1  0  0  0
 62138  1  0  0  0
 62139  1  0  0  0
 62140  1  0  0  0
 63 65  1  0  0  0
 63141  1  0  0  0
 63142  1  0  0  0
 63143  1  0  0  0
 64144  1  0  0  0
 65145  1  0  0  0
 68 82  1  0  0  0
 71 73  2  0  0  0
 71 74  1  0  0  0
 71146  1  0  0  0
 72 74  2  0  0  0
 72 75  1  0  0  0
 72147  1  0  0  0
 73 76  1  0  0  0
 73 81  1  0  0  0
 74 83  1  0  0  0
 75 76  2  0  0  0
 75 84  1  0  0  0
 76 85  1  0  0  0
 77 78  1  0  0  0
 77 83  1  0  0  0
 77 86  2  0  0  0
 78 80  1  0  0  0
 78148  1  0  0  0
 78149  1  0  0  0
 79 80  1  0  0  0
 79 83  1  0  0  0
 79150  1  0  0  0
 79151  1  0  0  0
 80 82  1  0  0  0
 80152  1  0  0  0
 81153  1  0  0  0
 81154  1  0  0  0
 81155  1  0  0  0
 82156  1  0  0  0
 82157  1  0  0  0
 84158  1  0  0  0
 84159  1  0  0  0
 85160  1  0  0  0
M  ISO  4   1 100  68 101  82 101  85 100
M  END
> <chiral flag>
0

> <version>
0

> <s_m_source_file>
/data/baiqing/PycharmProjects/Reinvent-master-3.2/result/LINK_invent/BTK/process_docking_weight1_custom_product_contain_oxygen_bond_distance_aromatic_linkinvent_7_9_3/rearranged_h_0095.sdf

> <i_m_source_file_index>
5

> <r_mmod_Potential_Energy-OPLS-2005>
27.1991519927979

> <r_mmod_Stretch_Energy-OPLS-2005>
77.9766845703125

> <r_mmod_Bend_Energy-OPLS-2005>
168.825469970703

> <r_mmod_Torsional_Energy-OPLS-2005>
278.243988037109

> <r_mmod_Improper_Torsional_Energy-OPLS-2005>
10.8945188522339

> <r_mmod_Van_der_Waal_Energy-OPLS-2005>
154.298889160156

> <r_mmod_Electrostatic_Energy-OPLS-2005>
-488.075653076172

> <r_mmod_Solvation_Energy-OPLS-2005>
-228.389984130859

> <b_mmod_Minimization_Converged-OPLS-2005>
0

> <r_mmod_RMS_Derivative-OPLS-2005>
2.52089428901672

$$$$
5
                    3D
 Structure written by MMmdl.
157166  0  0  1  0            999 V2000
  -30.6229  -14.6052   20.5354 C   0  0  0  0  0  0
  -30.4392  -12.3752   19.4537 C   0  0  0  0  0  0
  -29.5098  -12.5113   18.2265 C   0  0  0  0  0  0
  -28.0300  -12.3579   18.6336 C   0  0  0  0  0  0
  -27.6603  -13.2120   19.8740 C   0  0  2  0  0  0
  -28.6996  -13.0359   21.0035 C   0  0  0  0  0  0
  -25.2609  -13.8149   20.5707 C   0  0  0  0  0  0
  -24.1846  -13.0426   20.9152 C   0  0  0  0  0  0
  -24.6383  -11.6889   20.8704 C   0  0  0  0  0  0
  -23.9049  -10.4269   21.0346 C   0  0  0  0  0  0
  -24.3592   -9.4200   21.9145 C   0  0  0  0  0  0
  -23.6274   -8.2236   22.0732 C   0  0  0  0  0  0
  -22.4265   -8.0257   21.3513 C   0  0  0  0  0  0
  -21.9880   -9.0235   20.4631 C   0  0  0  0  0  0
  -22.7207  -10.2109   20.3015 C   0  0  0  0  0  0
  -21.6856   -6.0704   22.5263 C   0  0  0  0  0  0
  -21.4028   -6.5614   23.8196 C   0  0  0  0  0  0
  -21.3676   -5.6773   24.9164 C   0  0  0  0  0  0
  -21.6040   -4.3037   24.7216 C   0  0  0  0  0  0
  -21.8836   -3.8120   23.4347 C   0  0  0  0  0  0
  -21.9207   -4.6928   22.3397 C   0  0  0  0  0  0
  -22.7878  -13.5243   21.1811 C   0  0  0  0  0  0
  -22.1665   -4.2105   21.0974 F   0  0  0  0  0  0
  -21.5630   -3.4528   25.7738 F   0  0  0  0  0  0
  -30.0212  -13.3774   20.4542 N   0  0  0  0  0  0
  -26.3029  -12.9317   20.3359 N   0  0  0  0  0  0
  -25.9322  -11.6466   20.5752 N   0  0  0  0  0  0
  -22.0529  -12.8246   22.0375 N   0  0  0  0  0  0
  -25.4362  -15.1872   20.4193 N   0  0  0  0  0  0
  -31.7567  -14.7975   20.0853 O   0  0  0  0  0  0
  -21.6631   -6.8850   21.4220 O   0  0  0  0  0  0
  -22.3557  -14.5554   20.6660 O   0  0  0  0  0  0
  -24.6264  -31.8618   23.2049 C   0  0  0  0  0  0
  -25.9109  -32.4791   23.8384 C   0  0  1  0  0  0
  -27.2074  -27.3127   20.1088 C   0  0  0  0  0  0
  -25.5926  -33.8593   24.2321 N   0  0  0  0  0  0
  -23.4193  -30.4890   21.5491 C   0  0  2  0  0  0
  -24.8613  -28.9513   20.1088 C   0  0  0  0  0  0
  -22.7491  -29.4633   22.4945 C   0  0  0  0  0  0
  -18.0297  -28.1376   22.8486 C   0  0  0  0  0  0
  -24.1486  -36.7304   23.2638 C   0  0  0  0  0  0
  -25.9634  -30.7901   21.3776 C   0  0  0  0  0  0
  -26.0338  -29.4187   20.7169 C   0  0  0  0  0  0
  -27.2110  -28.6102   20.7106 C   0  0  0  0  0  0
  -26.0146  -26.9143   19.4597 C   0  0  0  0  0  0
  -24.8551  -27.7056   19.4700 C   0  0  0  0  0  0
  -23.6306  -29.8318   20.1621 C   0  0  0  0  0  0
  -25.4106  -36.3100   24.0343 C   0  0  1  0  0  0
  -20.5897  -28.3690   23.1279 C   0  0  2  0  0  0
  -20.6786  -26.9415   22.5402 C   0  0  0  0  0  0
  -19.5759  -26.6384   21.5207 C   0  0  0  0  0  0
  -18.1941  -26.7923   22.1621 C   0  0  0  0  0  0
  -19.1549  -28.8850   23.2873 C   0  0  0  0  0  0
  -18.9462  -30.1449   23.8894 C   0  0  0  0  0  0
  -17.6458  -30.6573   24.0563 C   0  0  0  0  0  0
  -25.9042  -34.9460   23.5133 C   0  0  0  0  0  0
  -16.5352  -29.9066   23.6324 C   0  0  0  0  0  0
  -16.7282  -28.6483   23.0351 C   0  0  0  0  0  0
  -26.4485  -31.6577   25.0744 C   0  0  0  0  0  0
  -25.3719  -31.3709   26.1475 C   0  0  0  0  0  0
  -27.0311  -30.3001   24.6172 C   0  0  0  0  0  0
  -27.6058  -32.4298   25.7496 C   0  0  0  0  0  0
  -27.5585  -37.1807   24.8461 C   0  0  0  0  0  0
  -21.4206  -29.3043   22.3681 N   0  0  0  0  0  0
  -26.4295  -37.3789   23.9408 N   0  0  0  0  0  0
  -24.6891  -31.0629   22.1004 N   0  0  0  0  0  0
  -23.4225  -28.8162   23.3010 O   0  0  0  0  0  0
  -28.3028  -26.4335   20.1607 O   0  0  0  0  0  0
  -26.5610  -34.8918   22.4699 O   0  0  0  0  0  0
  -23.5424  -32.1420   23.7367 O   0  0  0  0  0  0
  -29.8777  -19.0440   19.2989 C   0  0  0  0  0  0
  -29.5583  -17.9633   21.8376 C   0  0  0  0  0  0
  -29.6076  -19.9678   20.3555 C   0  0  0  0  0  0
  -30.0059  -17.6366   19.4961 C   0  0  0  0  0  0
  -29.8628  -17.0581   20.7859 C   0  0  0  0  0  0
  -29.4348  -19.3728   21.6383 C   0  0  0  0  0  0
  -30.2121  -22.1073   19.1734 C   0  0  0  0  0  0
  -29.8768  -23.6010   19.1264 C   0  0  0  0  0  0
  -28.6872  -22.4245   20.8535 C   0  0  0  0  0  0
  -29.1142  -23.8871   20.4221 C   0  0  2  0  0  0
  -27.9788  -24.9888   20.2789 C   0  0  0  0  0  0
  -29.5235  -21.4297   20.1186 N   0  0  0  0  0  0
  -30.2328  -16.8245   18.3866 N   0  0  0  0  0  0
  -29.8563  -15.6165   21.0355 N   0  0  0  0  0  0
  -31.0517  -21.6314   18.4028 O   0  0  0  0  0  0
  -29.1615  -20.1466   22.7152 F   0  0  0  0  0  0
  -31.4805  -12.5039   19.1524 H   0  0  0  0  0  0
  -30.3750  -11.3704   19.8742 H   0  0  0  0  0  0
  -29.7652  -11.7618   17.4754 H   0  0  0  0  0  0
  -29.6628  -13.4814   17.7524 H   0  0  0  0  0  0
  -27.8544  -11.3036   18.8483 H   0  0  0  0  0  0
  -27.3771  -12.6096   17.7958 H   0  0  0  0  0  0
  -27.6919  -14.2535   19.5511 H   0  0  0  0  0  0
  -28.7006  -12.0072   21.3666 H   0  0  0  0  0  0
  -28.4391  -13.6493   21.8663 H   0  0  0  0  0  0
  -25.2724   -9.5700   22.4729 H   0  0  0  0  0  0
  -23.9975   -7.4649   22.7486 H   0  0  0  0  0  0
  -21.0786   -8.8775   19.8983 H   0  0  0  0  0  0
  -22.3649  -10.9645   19.6130 H   0  0  0  0  0  0
  -21.2027   -7.6130   23.9688 H   0  0  0  0  0  0
  -21.1476   -6.0498   25.9069 H   0  0  0  0  0  0
  -22.0604   -2.7579   23.2856 H   0  0  0  0  0  0
  -22.4139  -11.9909   22.4771 H   0  0  0  0  0  0
  -21.1160  -13.1294   22.2605 H   0  0  0  0  0  0
  -24.6746  -15.8456   20.5394 H   0  0  0  0  0  0
  -26.2982  -15.6278   20.1221 H   0  0  0  0  0  0
  -26.7179  -32.5458   23.1127 H   0  0  0  0  0  0
  -25.0076  -33.9744   25.0469 H   0  0  0  0  0  0
  -22.7126  -31.3105   21.4139 H   0  0  0  0  0  0
  -23.3747  -35.9635   23.3290 H   0  0  0  0  0  0
  -24.3586  -36.8925   22.2052 H   0  0  0  0  0  0
  -23.7228  -37.6508   23.6650 H   0  0  0  0  0  0
  -26.0979  -31.5525   20.6086 H   0  0  0  0  0  0
  -26.8432  -30.8361   22.0076 H   0  0  0  0  0  0
  -28.1083  -28.9612   21.2009 H   0  0  0  0  0  0
  -25.9322  -25.9818   18.9267 H   0  0  0  0  0  0
  -23.9619  -27.3522   18.9730 H   0  0  0  0  0  0
  -23.7471  -30.6117   19.4091 H   0  0  0  0  0  0
  -22.7485  -29.2641   19.8607 H   0  0  0  0  0  0
  -25.1269  -36.1975   25.0839 H   0  0  0  0  0  0
  -20.9997  -28.3261   24.1395 H   0  0  0  0  0  0
  -20.5701  -26.2302   23.3602 H   0  0  0  0  0  0
  -21.6653  -26.7450   22.1193 H   0  0  0  0  0  0
  -19.6920  -25.6302   21.1223 H   0  0  0  0  0  0
  -19.6677  -27.3204   20.6746 H   0  0  0  0  0  0
  -17.4215  -26.6681   21.4015 H   0  0  0  0  0  0
  -18.0328  -26.0063   22.9014 H   0  0  0  0  0  0
  -19.7935  -30.7270   24.2271 H   0  0  0  0  0  0
  -17.5002  -31.6255   24.5167 H   0  0  0  0  0  0
  -15.5345  -30.2956   23.7647 H   0  0  0  0  0  0
  -15.8691  -28.0791   22.7064 H   0  0  0  0  0  0
  -24.5897  -30.7054   25.7803 H   0  0  0  0  0  0
  -24.8901  -32.2871   26.4900 H   0  0  0  0  0  0
  -25.8042  -30.8891   27.0254 H   0  0  0  0  0  0
  -26.2879  -29.6770   24.1189 H   0  0  0  0  0  0
  -27.4004  -29.7226   25.4654 H   0  0  0  0  0  0
  -27.8750  -30.4277   23.9392 H   0  0  0  0  0  0
  -27.2687  -33.3597   26.2079 H   0  0  0  0  0  0
  -28.3848  -32.6859   25.0305 H   0  0  0  0  0  0
  -28.0750  -31.8428   26.5397 H   0  0  0  0  0  0
  -28.2595  -38.0116   24.7527 H   0  0  0  0  0  0
  -28.1094  -36.2646   24.6254 H   0  0  0  0  0  0
  -27.2317  -37.1423   25.8872 H   0  0  0  0  0  0
  -20.9396  -29.8777   21.6894 H   0  0  0  0  0  0
  -26.0182  -38.2873   24.1400 H   0  0  0  0  0  0
  -29.9693  -19.4144   18.2887 H   0  0  0  0  0  0
  -29.4100  -17.5773   22.8346 H   0  0  0  0  0  0
  -29.2566  -23.7819   18.2475 H   0  0  0  0  0  0
  -30.7758  -24.2113   19.0458 H   0  0  0  0  0  0
  -27.6404  -22.2456   20.6067 H   0  0  0  0  0  0
  -28.7871  -22.3161   21.9331 H   0  0  0  0  0  0
  -29.8278  -24.2470   21.1644 H   0  0  0  0  0  0
  -27.3157  -24.8876   21.1399 H   0  0  0  0  0  0
  -27.4005  -24.6642   19.4172 H   0  0  0  0  0  0
  -30.5755  -17.2715   17.5442 H   0  0  0  0  0  0
  -30.7384  -15.9640   18.5814 H   0  0  0  0  0  0
  -29.0487  -15.2864   21.5406 H   0  0  0  0  0  0
  1 25  1  0  0  0
  1 30  2  0  0  0
  1 84  1  0  0  0
  2  3  1  0  0  0
  2 25  1  0  0  0
  2 87  1  0  0  0
  2 88  1  0  0  0
  3  4  1  0  0  0
  3 89  1  0  0  0
  3 90  1  0  0  0
  4  5  1  0  0  0
  4 91  1  0  0  0
  4 92  1  0  0  0
  5  6  1  0  0  0
  5 26  1  0  0  0
  5 93  1  0  0  0
  6 25  1  0  0  0
  6 94  1  0  0  0
  6 95  1  0  0  0
  7  8  2  0  0  0
  7 26  1  0  0  0
  7 29  1  0  0  0
  8  9  1  0  0  0
  8 22  1  0  0  0
  9 10  1  0  0  0
  9 27  2  0  0  0
 10 11  2  0  0  0
 10 15  1  0  0  0
 11 12  1  0  0  0
 11 96  1  0  0  0
 12 13  2  0  0  0
 12 97  1  0  0  0
 13 14  1  0  0  0
 13 31  1  0  0  0
 14 15  2  0  0  0
 14 98  1  0  0  0
 15 99  1  0  0  0
 16 17  2  0  0  0
 16 21  1  0  0  0
 16 31  1  0  0  0
 17 18  1  0  0  0
 17100  1  0  0  0
 18 19  2  0  0  0
 18101  1  0  0  0
 19 20  1  0  0  0
 19 24  1  0  0  0
 20 21  2  0  0  0
 20102  1  0  0  0
 21 23  1  0  0  0
 22 28  1  0  0  0
 22 32  2  0  0  0
 26 27  1  0  0  0
 28103  1  0  0  0
 28104  1  0  0  0
 29105  1  0  0  0
 29106  1  0  0  0
 33 34  1  0  0  0
 33 66  1  0  0  0
 33 70  2  0  0  0
 34 36  1  0  0  0
 34 59  1  0  0  0
 34107  1  0  0  0
 35 44  2  0  0  0
 35 45  1  0  0  0
 35 68  1  0  0  0
 36 56  1  0  0  0
 36108  1  0  0  0
 37 39  1  0  0  0
 37 47  1  0  0  0
 37 66  1  0  0  0
 37109  1  0  0  0
 38 43  2  0  0  0
 38 46  1  0  0  0
 38 47  1  0  0  0
 39 64  1  0  0  0
 39 67  2  0  0  0
 40 52  1  0  0  0
 40 53  2  0  0  0
 40 58  1  0  0  0
 41110  1  0  0  0
 41111  1  0  0  0
 41112  1  0  0  0
 41 48  1  0  0  0
 42 43  1  0  0  0
 42 66  1  0  0  0
 42113  1  0  0  0
 42114  1  0  0  0
 43 44  1  0  0  0
 44115  1  0  0  0
 45 46  2  0  0  0
 45116  1  0  0  0
 46117  1  0  0  0
 47118  1  0  0  0
 47119  1  0  0  0
 48 56  1  0  0  0
 48 65  1  0  0  0
 48120  1  0  0  0
 49 50  1  0  0  0
 49 53  1  0  0  0
 49 64  1  0  0  0
 49121  1  0  0  0
 50 51  1  0  0  0
 50122  1  0  0  0
 50123  1  0  0  0
 51 52  1  0  0  0
 51124  1  0  0  0
 51125  1  0  0  0
 52126  1  0  0  0
 52127  1  0  0  0
 53 54  1  0  0  0
 54 55  2  0  0  0
 54128  1  0  0  0
 55 57  1  0  0  0
 55129  1  0  0  0
 56 69  2  0  0  0
 57 58  2  0  0  0
 57130  1  0  0  0
 58131  1  0  0  0
 59 60  1  0  0  0
 59 61  1  0  0  0
 59 62  1  0  0  0
 60132  1  0  0  0
 60133  1  0  0  0
 60134  1  0  0  0
 61135  1  0  0  0
 61136  1  0  0  0
 61137  1  0  0  0
 62138  1  0  0  0
 62139  1  0  0  0
 62140  1  0  0  0
 63 65  1  0  0  0
 63141  1  0  0  0
 63142  1  0  0  0
 63143  1  0  0  0
 64144  1  0  0  0
 65145  1  0  0  0
 68 81  1  0  0  0
 71 73  2  0  0  0
 71 74  1  0  0  0
 71146  1  0  0  0
 72 75  1  0  0  0
 72 76  2  0  0  0
 72147  1  0  0  0
 73 76  1  0  0  0
 73 82  1  0  0  0
 74 75  2  0  0  0
 74 83  1  0  0  0
 75 84  1  0  0  0
 76 86  1  0  0  0
 77 78  1  0  0  0
 77 82  1  0  0  0
 77 85  2  0  0  0
 78 80  1  0  0  0
 78148  1  0  0  0
 78149  1  0  0  0
 79 80  1  0  0  0
 79 82  1  0  0  0
 79150  1  0  0  0
 79151  1  0  0  0
 80 81  1  0  0  0
 80152  1  0  0  0
 81153  1  0  0  0
 81154  1  0  0  0
 83155  1  0  0  0
 83156  1  0  0  0
 84157  1  0  0  0
M  ISO  4   1 100  68 101  81 101  84 100
M  END
> <chiral flag>
0

> <version>
0

> <s_m_source_file>
/data/baiqing/PycharmProjects/Reinvent-master-3.2/result/LINK_invent/BTK/process_docking_weight1_custom_product_contain_oxygen_bond_distance_aromatic_linkinvent_7_9_3/rearranged_h_0095.sdf

> <i_m_source_file_index>
6

> <r_mmod_Potential_Energy-OPLS-2005>
9.10152149200439

> <r_mmod_Stretch_Energy-OPLS-2005>
80.3566741943359

> <r_mmod_Bend_Energy-OPLS-2005>
156.260650634766

> <r_mmod_Torsional_Energy-OPLS-2005>
297.050659179688

> <r_mmod_Improper_Torsional_Energy-OPLS-2005>
8.16922569274902

> <r_mmod_Van_der_Waal_Energy-OPLS-2005>
155.45051574707

> <r_mmod_Electrostatic_Energy-OPLS-2005>
-513.630798339844

> <r_mmod_Solvation_Energy-OPLS-2005>
-220.741195678711

> <b_mmod_Minimization_Converged-OPLS-2005>
0

> <r_mmod_RMS_Derivative-OPLS-2005>
2.8162956237793

$$$$
6
                    3D
 Structure written by MMmdl.
160169  0  0  1  0            999 V2000
  -30.6216  -14.7189   20.3551 C   0  0  0  0  0  0
  -30.4358  -12.4139   19.4483 C   0  0  0  0  0  0
  -29.4960  -12.4196   18.2203 C   0  0  0  0  0  0
  -28.0203  -12.2980   18.6492 C   0  0  0  0  0  0
  -27.6370  -13.2119   19.8459 C   0  0  2  0  0  0
  -28.6996  -13.1729   20.9647 C   0  0  0  0  0  0
  -25.2518  -13.8138   20.5718 C   0  0  0  0  0  0
  -24.1789  -13.0409   20.9201 C   0  0  0  0  0  0
  -24.6369  -11.6887   20.8768 C   0  0  0  0  0  0
  -23.9051  -10.4272   21.0424 C   0  0  0  0  0  0
  -24.3601   -9.4182   21.9193 C   0  0  0  0  0  0
  -23.6274   -8.2222   22.0757 C   0  0  0  0  0  0
  -22.4261   -8.0264   21.3539 C   0  0  0  0  0  0
  -21.9886   -9.0250   20.4656 C   0  0  0  0  0  0
  -22.7224  -10.2125   20.3073 C   0  0  0  0  0  0
  -21.6846   -6.0728   22.5280 C   0  0  0  0  0  0
  -21.4010   -6.5643   23.8209 C   0  0  0  0  0  0
  -21.3642   -5.6802   24.9174 C   0  0  0  0  0  0
  -21.6034   -4.3065   24.7235 C   0  0  0  0  0  0
  -21.8819   -3.8151   23.4363 C   0  0  0  0  0  0
  -21.9200   -4.6959   22.3414 C   0  0  0  0  0  0
  -22.7822  -13.5204   21.1881 C   0  0  0  0  0  0
  -22.1659   -4.2140   21.0991 F   0  0  0  0  0  0
  -21.5631   -3.4556   25.7752 F   0  0  0  0  0  0
  -29.9922  -13.4959   20.3486 N   0  0  0  0  0  0
  -26.2931  -12.9304   20.3354 N   0  0  0  0  0  0
  -25.9295  -11.6472   20.5839 N   0  0  0  0  0  0
  -22.0483  -12.8172   22.0438 N   0  0  0  0  0  0
  -25.4256  -15.1853   20.4141 N   0  0  0  0  0  0
  -31.8508  -14.7724   20.2627 O   0  0  0  0  0  0
  -21.6633   -6.8857   21.4232 O   0  0  0  0  0  0
  -22.3512  -14.5530   20.6758 O   0  0  0  0  0  0
  -24.6265  -31.8576   23.1993 C   0  0  0  0  0  0
  -25.9107  -32.4760   23.8315 C   0  0  1  0  0  0
  -27.2321  -27.3009   20.1167 C   0  0  0  0  0  0
  -25.5919  -33.8561   24.2250 N   0  0  0  0  0  0
  -23.4211  -30.4796   21.5419 C   0  0  2  0  0  0
  -24.8677  -28.9298   20.1100 C   0  0  0  0  0  0
  -22.7485  -29.4606   22.4923 C   0  0  0  0  0  0
  -18.0289  -28.1377   22.8505 C   0  0  0  0  0  0
  -24.1467  -36.7255   23.2640 C   0  0  0  0  0  0
  -25.9619  -30.7831   21.3712 C   0  0  0  0  0  0
  -26.0348  -29.4071   20.7169 C   0  0  0  0  0  0
  -27.2136  -28.6025   20.7141 C   0  0  0  0  0  0
  -26.0324  -26.8770   19.4954 C   0  0  0  0  0  0
  -24.8693  -27.6709   19.4913 C   0  0  0  0  0  0
  -23.6363  -29.8101   20.1583 C   0  0  0  0  0  0
  -25.4103  -36.3069   24.0330 C   0  0  1  0  0  0
  -20.5888  -28.3685   23.1280 C   0  0  2  0  0  0
  -20.6767  -26.9408   22.5412 C   0  0  0  0  0  0
  -19.5735  -26.6389   21.5216 C   0  0  0  0  0  0
  -18.1922  -26.7927   22.1631 C   0  0  0  0  0  0
  -19.1543  -28.8852   23.2885 C   0  0  0  0  0  0
  -18.9473  -30.1458   23.8892 C   0  0  0  0  0  0
  -17.6477  -30.6591   24.0567 C   0  0  0  0  0  0
  -25.9057  -34.9443   23.5095 C   0  0  0  0  0  0
  -16.5364  -29.9097   23.6334 C   0  0  0  0  0  0
  -16.7279  -28.6505   23.0372 C   0  0  0  0  0  0
  -26.4506  -31.6578   25.0688 C   0  0  0  0  0  0
  -25.3755  -31.3715   26.1430 C   0  0  0  0  0  0
  -27.0339  -30.3008   24.6109 C   0  0  0  0  0  0
  -27.6055  -32.4318   25.7458 C   0  0  0  0  0  0
  -27.5562  -37.1778   24.8472 C   0  0  0  0  0  0
  -21.4193  -29.3033   22.3674 N   0  0  0  0  0  0
  -26.4264  -37.3784   23.9434 N   0  0  0  0  0  0
  -24.6887  -31.0587   22.0936 N   0  0  0  0  0  0
  -23.4214  -28.8156   23.3011 O   0  0  0  0  0  0
  -28.3687  -26.4715   20.2044 O   0  0  0  0  0  0
  -26.5629  -34.8930   22.4663 O   0  0  0  0  0  0
  -23.5428  -32.1352   23.7334 O   0  0  0  0  0  0
  -28.3370  -19.2651   20.2964 C   0  0  0  0  0  0
  -28.4968  -17.8540   20.1734 C   0  0  0  0  0  0
  -29.1793  -23.6716   21.6329 C   0  0  0  0  0  0
  -30.6563  -19.4531   20.8845 C   0  0  0  0  0  0
  -28.8182  -23.8349   20.2598 C   0  0  0  0  0  0
  -29.4190  -20.1162   20.6291 C   0  0  0  0  0  0
  -29.7445  -17.1870   20.3558 C   0  0  0  0  0  0
  -30.8278  -18.0345   20.7508 C   0  0  0  0  0  0
  -29.4305  -22.3423   21.8826 C   0  0  0  0  0  0
  -28.8672  -22.5266   19.7655 C   0  0  0  0  0  0
  -30.5449  -15.9150   17.5355 C   0  0  0  0  0  0
  -29.6095  -15.7895   18.4964 C   0  0  0  0  0  0
  -28.4992  -25.1751   19.4884 C   0  0  0  0  0  0
  -29.2530  -21.5735   20.7387 N   0  0  0  0  0  0
  -32.0992  -17.5022   20.9589 N   0  0  0  0  0  0
  -29.8675  -15.7904   19.8795 N   0  0  0  0  0  0
  -29.7975  -21.7579   23.0568 O   0  0  0  0  0  0
  -28.6071  -22.0990   18.4972 O   0  0  0  0  0  0
  -31.4718  -12.5451   19.1296 H   0  0  0  0  0  0
  -30.3988  -11.4543   19.9647 H   0  0  0  0  0  0
  -29.7474  -11.5952   17.5518 H   0  0  0  0  0  0
  -29.6370  -13.3211   17.6282 H   0  0  0  0  0  0
  -27.8580  -11.2550   18.9235 H   0  0  0  0  0  0
  -27.3622  -12.4937   17.8016 H   0  0  0  0  0  0
  -27.6070  -14.2240   19.4573 H   0  0  0  0  0  0
  -28.7335  -12.1898   21.4379 H   0  0  0  0  0  0
  -28.4628  -13.8948   21.7484 H   0  0  0  0  0  0
  -25.2738   -9.5666   22.4775 H   0  0  0  0  0  0
  -23.9992   -7.4610   22.7469 H   0  0  0  0  0  0
  -21.0818   -8.8778   19.8962 H   0  0  0  0  0  0
  -22.3674  -10.9675   19.6208 H   0  0  0  0  0  0
  -21.1984   -7.6149   23.9694 H   0  0  0  0  0  0
  -21.1450   -6.0540   25.9069 H   0  0  0  0  0  0
  -22.0605   -2.7615   23.2879 H   0  0  0  0  0  0
  -22.4099  -11.9807   22.4759 H   0  0  0  0  0  0
  -21.1121  -13.1207   22.2727 H   0  0  0  0  0  0
  -24.6674  -15.8483   20.5283 H   0  0  0  0  0  0
  -26.3022  -15.6215   20.1634 H   0  0  0  0  0  0
  -26.7162  -32.5433   23.1051 H   0  0  0  0  0  0
  -25.0097  -33.9676   25.0418 H   0  0  0  0  0  0
  -22.7148  -31.2995   21.3974 H   0  0  0  0  0  0
  -23.3744  -35.9570   23.3300 H   0  0  0  0  0  0
  -24.3566  -36.8879   22.2056 H   0  0  0  0  0  0
  -23.7190  -37.6444   23.6664 H   0  0  0  0  0  0
  -26.0947  -31.5415   20.5985 H   0  0  0  0  0  0
  -26.8431  -30.8341   21.9993 H   0  0  0  0  0  0
  -28.1075  -28.9659   21.2016 H   0  0  0  0  0  0
  -25.9360  -25.9092   19.0322 H   0  0  0  0  0  0
  -23.9720  -27.2940   19.0198 H   0  0  0  0  0  0
  -23.7570  -30.5820   19.3983 H   0  0  0  0  0  0
  -22.7564  -29.2378   19.8572 H   0  0  0  0  0  0
  -25.1285  -36.1893   25.0821 H   0  0  0  0  0  0
  -20.9988  -28.3253   24.1396 H   0  0  0  0  0  0
  -20.5659  -26.2304   23.3622 H   0  0  0  0  0  0
  -21.6635  -26.7436   22.1201 H   0  0  0  0  0  0
  -19.6889  -25.6307   21.1233 H   0  0  0  0  0  0
  -19.6642  -27.3211   20.6755 H   0  0  0  0  0  0
  -17.4192  -26.6692   21.4032 H   0  0  0  0  0  0
  -18.0306  -26.0067   22.9021 H   0  0  0  0  0  0
  -19.7958  -30.7274   24.2240 H   0  0  0  0  0  0
  -17.5043  -31.6264   24.5173 H   0  0  0  0  0  0
  -15.5365  -30.3002   23.7656 H   0  0  0  0  0  0
  -15.8679  -28.0819   22.7093 H   0  0  0  0  0  0
  -24.5945  -30.7028   25.7793 H   0  0  0  0  0  0
  -24.8920  -32.2875   26.4823 H   0  0  0  0  0  0
  -25.8108  -30.8945   27.0218 H   0  0  0  0  0  0
  -26.2886  -29.6762   24.1164 H   0  0  0  0  0  0
  -27.4102  -29.7252   25.4573 H   0  0  0  0  0  0
  -27.8738  -30.4311   23.9281 H   0  0  0  0  0  0
  -27.2661  -33.3646   26.1962 H   0  0  0  0  0  0
  -28.3902  -32.6816   25.0310 H   0  0  0  0  0  0
  -28.0667  -31.8480   26.5428 H   0  0  0  0  0  0
  -28.2588  -38.0071   24.7562 H   0  0  0  0  0  0
  -28.1047  -36.2610   24.6250 H   0  0  0  0  0  0
  -27.2294  -37.1382   25.8880 H   0  0  0  0  0  0
  -20.9376  -29.8757   21.6882 H   0  0  0  0  0  0
  -26.0124  -38.2841   24.1495 H   0  0  0  0  0  0
  -27.3671  -19.7034   20.1095 H   0  0  0  0  0  0
  -27.6370  -17.2803   19.8637 H   0  0  0  0  0  0
  -29.2546  -24.4653   22.3637 H   0  0  0  0  0  0
  -31.5036  -20.0621   21.1675 H   0  0  0  0  0  0
  -30.2672  -15.9235   16.4902 H   0  0  0  0  0  0
  -31.5949  -16.0134   17.7711 H   0  0  0  0  0  0
  -28.5619  -15.7079   18.2492 H   0  0  0  0  0  0
  -27.6979  -24.9687   18.7867 H   0  0  0  0  0  0
  -29.3620  -25.3203   18.8370 H   0  0  0  0  0  0
  -32.2586  -16.5429   20.6397 H   0  0  0  0  0  0
  -32.9085  -18.1015   20.8305 H   0  0  0  0  0  0
  -29.7981  -22.4331   23.7284 H   0  0  0  0  0  0
  -28.2770  -22.8355   17.9937 H   0  0  0  0  0  0
  1 25  1  0  0  0
  1 30  2  0  0  0
  1 86  1  0  0  0
  2  3  1  0  0  0
  2 25  1  0  0  0
  2 89  1  0  0  0
  2 90  1  0  0  0
  3  4  1  0  0  0
  3 91  1  0  0  0
  3 92  1  0  0  0
  4  5  1  0  0  0
  4 93  1  0  0  0
  4 94  1  0  0  0
  5  6  1  0  0  0
  5 26  1  0  0  0
  5 95  1  0  0  0
  6 25  1  0  0  0
  6 96  1  0  0  0
  6 97  1  0  0  0
  7  8  2  0  0  0
  7 26  1  0  0  0
  7 29  1  0  0  0
  8  9  1  0  0  0
  8 22  1  0  0  0
  9 10  1  0  0  0
  9 27  2  0  0  0
 10 11  2  0  0  0
 10 15  1  0  0  0
 11 12  1  0  0  0
 11 98  1  0  0  0
 12 13  2  0  0  0
 12 99  1  0  0  0
 13 14  1  0  0  0
 13 31  1  0  0  0
 14 15  2  0  0  0
 14100  1  0  0  0
 15101  1  0  0  0
 16 17  2  0  0  0
 16 21  1  0  0  0
 16 31  1  0  0  0
 17 18  1  0  0  0
 17102  1  0  0  0
 18 19  2  0  0  0
 18103  1  0  0  0
 19 20  1  0  0  0
 19 24  1  0  0  0
 20 21  2  0  0  0
 20104  1  0  0  0
 21 23  1  0  0  0
 22 28  1  0  0  0
 22 32  2  0  0  0
 26 27  1  0  0  0
 28105  1  0  0  0
 28106  1  0  0  0
 29107  1  0  0  0
 29108  1  0  0  0
 33 34  1  0  0  0
 33 66  1  0  0  0
 33 70  2  0  0  0
 34 36  1  0  0  0
 34 59  1  0  0  0
 34109  1  0  0  0
 35 44  2  0  0  0
 35 45  1  0  0  0
 35 68  1  0  0  0
 36 56  1  0  0  0
 36110  1  0  0  0
 37 39  1  0  0  0
 37 47  1  0  0  0
 37 66  1  0  0  0
 37111  1  0  0  0
 38 43  2  0  0  0
 38 46  1  0  0  0
 38 47  1  0  0  0
 39 64  1  0  0  0
 39 67  2  0  0  0
 40 52  1  0  0  0
 40 53  2  0  0  0
 40 58  1  0  0  0
 41112  1  0  0  0
 41113  1  0  0  0
 41114  1  0  0  0
 41 48  1  0  0  0
 42 43  1  0  0  0
 42 66  1  0  0  0
 42115  1  0  0  0
 42116  1  0  0  0
 43 44  1  0  0  0
 44117  1  0  0  0
 45 46  2  0  0  0
 45118  1  0  0  0
 46119  1  0  0  0
 47120  1  0  0  0
 47121  1  0  0  0
 48 56  1  0  0  0
 48 65  1  0  0  0
 48122  1  0  0  0
 49 50  1  0  0  0
 49 53  1  0  0  0
 49 64  1  0  0  0
 49123  1  0  0  0
 50 51  1  0  0  0
 50124  1  0  0  0
 50125  1  0  0  0
 51 52  1  0  0  0
 51126  1  0  0  0
 51127  1  0  0  0
 52128  1  0  0  0
 52129  1  0  0  0
 53 54  1  0  0  0
 54 55  2  0  0  0
 54130  1  0  0  0
 55 57  1  0  0  0
 55131  1  0  0  0
 56 69  2  0  0  0
 57 58  2  0  0  0
 57132  1  0  0  0
 58133  1  0  0  0
 59 60  1  0  0  0
 59 61  1  0  0  0
 59 62  1  0  0  0
 60134  1  0  0  0
 60135  1  0  0  0
 60136  1  0  0  0
 61137  1  0  0  0
 61138  1  0  0  0
 61139  1  0  0  0
 62140  1  0  0  0
 62141  1  0  0  0
 62142  1  0  0  0
 63 65  1  0  0  0
 63143  1  0  0  0
 63144  1  0  0  0
 63145  1  0  0  0
 64146  1  0  0  0
 65147  1  0  0  0
 68 83  1  0  0  0
 71 72  2  0  0  0
 71 76  1  0  0  0
 71148  1  0  0  0
 72 77  1  0  0  0
 72149  1  0  0  0
 73 75  1  0  0  0
 73 79  2  0  0  0
 73150  1  0  0  0
 74 76  2  0  0  0
 74 78  1  0  0  0
 74151  1  0  0  0
 75 80  2  0  0  0
 75 83  1  0  0  0
 76 84  1  0  0  0
 77 78  2  0  0  0
 77 86  1  0  0  0
 78 85  1  0  0  0
 79 84  1  0  0  0
 79 87  1  0  0  0
 80 84  1  0  0  0
 80 88  1  0  0  0
 81 82  2  0  0  0
 81152  1  0  0  0
 81153  1  0  0  0
 82 86  1  0  0  0
 82154  1  0  0  0
 83155  1  0  0  0
 83156  1  0  0  0
 85157  1  0  0  0
 85158  1  0  0  0
 87159  1  0  0  0
 88160  1  0  0  0
M  ISO  4   1 100  68 101  83 101  86 100
M  END
> <chiral flag>
0

> <version>
0

> <s_m_source_file>
/data/baiqing/PycharmProjects/Reinvent-master-3.2/result/LINK_invent/BTK/process_docking_weight1_custom_product_contain_oxygen_bond_distance_aromatic_linkinvent_7_9_3/rearranged_h_0095.sdf

> <i_m_source_file_index>
7

> <r_mmod_Potential_Energy-OPLS-2005>
332.808258056641

> <r_mmod_Stretch_Energy-OPLS-2005>
93.2347717285156

> <r_mmod_Bend_Energy-OPLS-2005>
167.668701171875

> <r_mmod_Torsional_Energy-OPLS-2005>
386.885131835938

> <r_mmod_Improper_Torsional_Energy-OPLS-2005>
27.4196872711182

> <r_mmod_Van_der_Waal_Energy-OPLS-2005>
145.078109741211

> <r_mmod_Electrostatic_Energy-OPLS-2005>
-339.267364501953

> <r_mmod_Solvation_Energy-OPLS-2005>
-227.114196777344

> <b_mmod_Minimization_Converged-OPLS-2005>
0

> <r_mmod_RMS_Derivative-OPLS-2005>
2.37762665748596

$$$$
7
                    3D
 Structure written by MMmdl.
149157  0  0  1  0            999 V2000
  -30.4275  -15.1645   20.4019 C   0  0  0  0  0  0
  -30.4576  -12.7412   19.5272 C   0  0  0  0  0  0
  -29.5345  -12.5700   18.2896 C   0  0  0  0  0  0
  -28.0824  -12.2882   18.7158 C   0  0  0  0  0  0
  -27.6239  -13.2450   19.8435 C   0  0  2  0  0  0
  -28.6658  -13.3145   20.9805 C   0  0  0  0  0  0
  -25.2451  -13.8182   20.5778 C   0  0  0  0  0  0
  -24.1715  -13.0400   20.9148 C   0  0  0  0  0  0
  -24.6328  -11.6881   20.8693 C   0  0  0  0  0  0
  -23.9003  -10.4278   21.0383 C   0  0  0  0  0  0
  -24.3565   -9.4199   21.9171 C   0  0  0  0  0  0
  -23.6243   -8.2240   22.0760 C   0  0  0  0  0  0
  -22.4226   -8.0271   21.3555 C   0  0  0  0  0  0
  -21.9836   -9.0221   20.4656 C   0  0  0  0  0  0
  -22.7153  -10.2108   20.3049 C   0  0  0  0  0  0
  -21.6843   -6.0686   22.5274 C   0  0  0  0  0  0
  -21.4024   -6.5604   23.8196 C   0  0  0  0  0  0
  -21.3673   -5.6783   24.9165 C   0  0  0  0  0  0
  -21.6053   -4.3035   24.7230 C   0  0  0  0  0  0
  -21.8810   -3.8099   23.4345 C   0  0  0  0  0  0
  -21.9179   -4.6914   22.3389 C   0  0  0  0  0  0
  -22.7759  -13.5219   21.1800 C   0  0  0  0  0  0
  -22.1650   -4.2092   21.0967 F   0  0  0  0  0  0
  -21.5631   -3.4529   25.7738 F   0  0  0  0  0  0
  -29.9122  -13.8412   20.3913 N   0  0  0  0  0  0
  -26.2856  -12.9394   20.3311 N   0  0  0  0  0  0
  -25.9272  -11.6508   20.5717 N   0  0  0  0  0  0
  -22.0442  -12.8245   22.0403 N   0  0  0  0  0  0
  -25.4210  -15.1901   20.4427 N   0  0  0  0  0  0
  -31.6296  -15.2445   20.1055 O   0  0  0  0  0  0
  -21.6628   -6.8827   21.4227 O   0  0  0  0  0  0
  -22.3426  -14.5492   20.6615 O   0  0  0  0  0  0
  -24.6540  -31.8324   23.1805 C   0  0  0  0  0  0
  -25.9255  -32.4648   23.8209 C   0  0  1  0  0  0
  -27.2260  -27.0172   20.1752 C   0  0  0  0  0  0
  -25.5947  -33.8455   24.2126 N   0  0  0  0  0  0
  -23.4650  -30.4480   21.5275 C   0  0  2  0  0  0
  -24.9210  -28.8533   20.1106 C   0  0  0  0  0  0
  -22.7637  -29.4479   22.4799 C   0  0  0  0  0  0
  -18.0332  -28.1421   22.8474 C   0  0  0  0  0  0
  -24.1474  -36.7253   23.2654 C   0  0  0  0  0  0
  -26.0278  -30.6680   21.3967 C   0  0  0  0  0  0
  -26.1001  -29.2639   20.7442 C   0  0  0  0  0  0
  -27.2480  -28.3658   20.7564 C   0  0  0  0  0  0
  -26.0221  -26.7336   19.4942 C   0  0  0  0  0  0
  -24.9048  -27.6060   19.4620 C   0  0  0  0  0  0
  -23.7007  -29.7712   20.1493 C   0  0  0  0  0  0
  -25.4121  -36.3025   24.0302 C   0  0  1  0  0  0
  -20.5941  -28.3753   23.1222 C   0  0  2  0  0  0
  -20.6834  -26.9457   22.5389 C   0  0  0  0  0  0
  -19.5789  -26.6402   21.5212 C   0  0  0  0  0  0
  -18.1953  -26.7959   22.1603 C   0  0  0  0  0  0
  -19.1588  -28.8902   23.2841 C   0  0  0  0  0  0
  -18.9484  -30.1495   23.8872 C   0  0  0  0  0  0
  -17.6484  -30.6622   24.0564 C   0  0  0  0  0  0
  -25.9064  -34.9399   23.5031 C   0  0  0  0  0  0
  -16.5387  -29.9110   23.6363 C   0  0  0  0  0  0
  -16.7303  -28.6537   23.0359 C   0  0  0  0  0  0
  -26.4546  -31.6574   25.0675 C   0  0  0  0  0  0
  -25.3687  -31.3758   26.1324 C   0  0  0  0  0  0
  -27.0481  -30.2997   24.6295 C   0  0  0  0  0  0
  -27.6064  -32.4395   25.7435 C   0  0  0  0  0  0
  -27.5583  -37.1764   24.8465 C   0  0  0  0  0  0
  -21.4308  -29.3068   22.3578 N   0  0  0  0  0  0
  -26.4286  -37.3739   23.9415 N   0  0  0  0  0  0
  -24.7362  -31.0052   22.0918 N   0  0  0  0  0  0
  -23.4242  -28.8054   23.2995 O   0  0  0  0  0  0
  -28.2528  -25.9669   20.2579 O   0  0  0  0  0  0
  -26.5677  -34.8921   22.4620 O   0  0  0  0  0  0
  -23.5643  -32.1242   23.6949 O   0  0  0  0  0  0
  -30.1109  -19.2128   21.4055 C   0  0  0  0  0  0
  -29.9187  -20.6775   21.3702 C   0  0  0  0  0  0
  -28.8457  -19.0396   19.4833 C   0  0  0  0  0  0
  -29.5895  -18.2447   20.4604 C   0  0  0  0  0  0
  -29.1504  -21.4723   20.4172 C   0  0  0  0  0  0
  -28.6420  -20.5137   19.4366 C   0  0  0  0  0  0
  -29.4325  -16.5787   20.6621 C   0  0  0  0  0  0
  -29.1138  -23.1664   20.5291 C   0  0  0  0  0  0
  -27.9952  -24.3789   20.0889 C   0  0  0  0  0  0
  -28.2692  -16.3506   21.1021 N   0  0  0  0  0  0
  -27.8927  -20.9851   18.3503 N   0  0  0  0  0  0
  -30.1021  -23.6541   21.0939 O   0  0  0  0  0  0
  -31.4719  -12.9596   19.1901 H   0  0  0  0  0  0
  -30.5282  -11.8122   20.0946 H   0  0  0  0  0  0
  -29.9084  -11.7700   17.6479 H   0  0  0  0  0  0
  -29.5510  -13.4813   17.6890 H   0  0  0  0  0  0
  -28.0382  -11.2581   19.0714 H   0  0  0  0  0  0
  -27.4130  -12.3463   17.8590 H   0  0  0  0  0  0
  -27.5654  -14.2321   19.3844 H   0  0  0  0  0  0
  -28.8122  -12.3302   21.4255 H   0  0  0  0  0  0
  -28.3211  -13.9394   21.8022 H   0  0  0  0  0  0
  -25.2718   -9.5692   22.4734 H   0  0  0  0  0  0
  -23.9958   -7.4645   22.7490 H   0  0  0  0  0  0
  -21.0765   -8.8703   19.8981 H   0  0  0  0  0  0
  -22.3578  -10.9626   19.6163 H   0  0  0  0  0  0
  -21.2047   -7.6131   23.9655 H   0  0  0  0  0  0
  -21.1529   -6.0542   25.9067 H   0  0  0  0  0  0
  -22.0580   -2.7557   23.2869 H   0  0  0  0  0  0
  -22.4066  -11.9936   22.4832 H   0  0  0  0  0  0
  -21.1100  -13.1344   22.2677 H   0  0  0  0  0  0
  -24.6954  -15.8545   20.6866 H   0  0  0  0  0  0
  -26.3544  -15.5977   20.4380 H   0  0  0  0  0  0
  -26.7288  -32.5249   23.0913 H   0  0  0  0  0  0
  -25.0068  -33.9500   25.0259 H   0  0  0  0  0  0
  -22.7690  -31.2748   21.3689 H   0  0  0  0  0  0
  -23.3748  -35.9564   23.3264 H   0  0  0  0  0  0
  -24.3532  -36.8966   22.2074 H   0  0  0  0  0  0
  -23.7193  -37.6411   23.6748 H   0  0  0  0  0  0
  -26.1841  -31.4093   20.6109 H   0  0  0  0  0  0
  -26.8980  -30.7384   22.0385 H   0  0  0  0  0  0
  -28.1408  -28.6761   21.2779 H   0  0  0  0  0  0
  -25.9179  -25.7787   18.9978 H   0  0  0  0  0  0
  -24.0138  -27.2904   18.9364 H   0  0  0  0  0  0
  -23.8493  -30.5430   19.3951 H   0  0  0  0  0  0
  -22.8117  -29.2238   19.8353 H   0  0  0  0  0  0
  -25.1317  -36.1832   25.0785 H   0  0  0  0  0  0
  -21.0032  -28.3372   24.1338 H   0  0  0  0  0  0
  -20.5764  -26.2351   23.3591 H   0  0  0  0  0  0
  -21.6684  -26.7479   22.1153 H   0  0  0  0  0  0
  -19.6907  -25.6305   21.1266 H   0  0  0  0  0  0
  -19.6737  -27.3185   20.6719 H   0  0  0  0  0  0
  -17.4250  -26.6739   21.3987 H   0  0  0  0  0  0
  -18.0315  -26.0082   22.8963 H   0  0  0  0  0  0
  -19.7967  -30.7332   24.2207 H   0  0  0  0  0  0
  -17.5047  -31.6268   24.5200 H   0  0  0  0  0  0
  -15.5375  -30.3005   23.7712 H   0  0  0  0  0  0
  -15.8685  -28.0863   22.7078 H   0  0  0  0  0  0
  -24.5966  -30.6998   25.7614 H   0  0  0  0  0  0
  -24.8733  -32.2927   26.4567 H   0  0  0  0  0  0
  -25.7941  -30.9077   27.0208 H   0  0  0  0  0  0
  -26.3144  -29.6609   24.1367 H   0  0  0  0  0  0
  -27.4195  -29.7413   25.4899 H   0  0  0  0  0  0
  -27.8987  -30.4279   23.9585 H   0  0  0  0  0  0
  -27.2722  -33.3809   26.1811 H   0  0  0  0  0  0
  -28.3942  -32.6770   25.0266 H   0  0  0  0  0  0
  -28.0637  -31.8633   26.5481 H   0  0  0  0  0  0
  -28.2609  -38.0068   24.7573 H   0  0  0  0  0  0
  -28.1086  -36.2604   24.6271 H   0  0  0  0  0  0
  -27.2273  -37.1392   25.8859 H   0  0  0  0  0  0
  -20.9518  -29.8781   21.6753 H   0  0  0  0  0  0
  -26.0155  -38.2781   24.1500 H   0  0  0  0  0  0
  -30.6493  -18.8183   22.2612 H   0  0  0  0  0  0
  -30.3868  -21.2317   22.1751 H   0  0  0  0  0  0
  -28.3581  -18.4532   18.7165 H   0  0  0  0  0  0
  -27.0995  -24.1579   20.6737 H   0  0  0  0  0  0
  -27.7180  -24.1921   19.0481 H   0  0  0  0  0  0
  -27.7763  -17.2235   21.2518 H   0  0  0  0  0  0
  -27.5632  -20.3176   17.6543 H   0  0  0  0  0  0
  -28.1196  -21.8840   17.9334 H   0  0  0  0  0  0
  1 25  1  0  0  0
  1 30  2  0  0  0
  1 77  1  0  0  0
  2  3  1  0  0  0
  2 25  1  0  0  0
  2 83  1  0  0  0
  2 84  1  0  0  0
  3  4  1  0  0  0
  3 85  1  0  0  0
  3 86  1  0  0  0
  4  5  1  0  0  0
  4 87  1  0  0  0
  4 88  1  0  0  0
  5  6  1  0  0  0
  5 26  1  0  0  0
  5 89  1  0  0  0
  6 25  1  0  0  0
  6 90  1  0  0  0
  6 91  1  0  0  0
  7  8  2  0  0  0
  7 26  1  0  0  0
  7 29  1  0  0  0
  8  9  1  0  0  0
  8 22  1  0  0  0
  9 10  1  0  0  0
  9 27  2  0  0  0
 10 11  2  0  0  0
 10 15  1  0  0  0
 11 12  1  0  0  0
 11 92  1  0  0  0
 12 13  2  0  0  0
 12 93  1  0  0  0
 13 14  1  0  0  0
 13 31  1  0  0  0
 14 15  2  0  0  0
 14 94  1  0  0  0
 15 95  1  0  0  0
 16 17  2  0  0  0
 16 21  1  0  0  0
 16 31  1  0  0  0
 17 18  1  0  0  0
 17 96  1  0  0  0
 18 19  2  0  0  0
 18 97  1  0  0  0
 19 20  1  0  0  0
 19 24  1  0  0  0
 20 21  2  0  0  0
 20 98  1  0  0  0
 21 23  1  0  0  0
 22 28  1  0  0  0
 22 32  2  0  0  0
 26 27  1  0  0  0
 28 99  1  0  0  0
 28100  1  0  0  0
 29101  1  0  0  0
 29102  1  0  0  0
 33 34  1  0  0  0
 33 66  1  0  0  0
 33 70  2  0  0  0
 34 36  1  0  0  0
 34 59  1  0  0  0
 34103  1  0  0  0
 35 44  2  0  0  0
 35 45  1  0  0  0
 35 68  1  0  0  0
 36 56  1  0  0  0
 36104  1  0  0  0
 37 39  1  0  0  0
 37 47  1  0  0  0
 37 66  1  0  0  0
 37105  1  0  0  0
 38 43  2  0  0  0
 38 46  1  0  0  0
 38 47  1  0  0  0
 39 64  1  0  0  0
 39 67  2  0  0  0
 40 52  1  0  0  0
 40 53  2  0  0  0
 40 58  1  0  0  0
 41106  1  0  0  0
 41107  1  0  0  0
 41108  1  0  0  0
 41 48  1  0  0  0
 42 43  1  0  0  0
 42 66  1  0  0  0
 42109  1  0  0  0
 42110  1  0  0  0
 43 44  1  0  0  0
 44111  1  0  0  0
 45 46  2  0  0  0
 45112  1  0  0  0
 46113  1  0  0  0
 47114  1  0  0  0
 47115  1  0  0  0
 48 56  1  0  0  0
 48 65  1  0  0  0
 48116  1  0  0  0
 49 50  1  0  0  0
 49 53  1  0  0  0
 49 64  1  0  0  0
 49117  1  0  0  0
 50 51  1  0  0  0
 50118  1  0  0  0
 50119  1  0  0  0
 51 52  1  0  0  0
 51120  1  0  0  0
 51121  1  0  0  0
 52122  1  0  0  0
 52123  1  0  0  0
 53 54  1  0  0  0
 54 55  2  0  0  0
 54124  1  0  0  0
 55 57  1  0  0  0
 55125  1  0  0  0
 56 69  2  0  0  0
 57 58  2  0  0  0
 57126  1  0  0  0
 58127  1  0  0  0
 59 60  1  0  0  0
 59 61  1  0  0  0
 59 62  1  0  0  0
 60128  1  0  0  0
 60129  1  0  0  0
 60130  1  0  0  0
 61131  1  0  0  0
 61132  1  0  0  0
 61133  1  0  0  0
 62134  1  0  0  0
 62135  1  0  0  0
 62136  1  0  0  0
 63 65  1  0  0  0
 63137  1  0  0  0
 63138  1  0  0  0
 63139  1  0  0  0
 64140  1  0  0  0
 65141  1  0  0  0
 68 79  1  0  0  0
 71 72  2  0  0  0
 71 74  1  0  0  0
 71142  1  0  0  0
 72 75  1  0  0  0
 72143  1  0  0  0
 73 74  2  0  0  0
 73 76  1  0  0  0
 73144  1  0  0  0
 74 77  1  0  0  0
 75 76  2  0  0  0
 75 78  1  0  0  0
 76 81  1  0  0  0
 77 80  2  0  0  0
 78 79  1  0  0  0
 78 82  2  0  0  0
 79145  1  0  0  0
 79146  1  0  0  0
 80147  1  0  0  0
 81148  1  0  0  0
 81149  1  0  0  0
M  ISO  4   1 100  68 101  77 100  79 101
M  END
> <chiral flag>
0

> <version>
0

> <s_m_source_file>
/data/baiqing/PycharmProjects/Reinvent-master-3.2/result/LINK_invent/BTK/process_docking_weight1_custom_product_contain_oxygen_bond_distance_aromatic_linkinvent_7_9_3/rearranged_h_0095.sdf

> <i_m_source_file_index>
8

> <r_mmod_Potential_Energy-OPLS-2005>
1176.28698730469

> <r_mmod_Stretch_Energy-OPLS-2005>
455.815704345703

> <r_mmod_Bend_Energy-OPLS-2005>
388.740966796875

> <r_mmod_Torsional_Energy-OPLS-2005>
245.227096557617

> <r_mmod_Improper_Torsional_Energy-OPLS-2005>
11.5115556716919

> <r_mmod_Van_der_Waal_Energy-OPLS-2005>
134.236450195312

> <r_mmod_Electrostatic_Energy-OPLS-2005>
-182.472412109375

> <r_mmod_Solvation_Energy-OPLS-2005>
-223.30290222168

> <b_mmod_Minimization_Converged-OPLS-2005>
0

> <r_mmod_RMS_Derivative-OPLS-2005>
5.2270679473877

$$$$
8
                    3D
 Structure written by MMmdl.
159168  0  0  1  0            999 V2000
  -30.6192  -14.7678   20.4528 C   0  0  0  0  0  0
  -30.4292  -12.4717   19.4702 C   0  0  0  0  0  0
  -29.5088  -12.5089   18.2314 C   0  0  0  0  0  0
  -28.0356  -12.3298   18.6481 C   0  0  0  0  0  0
  -27.6379  -13.2357   19.8446 C   0  0  2  0  0  0
  -28.6854  -13.1885   20.9777 C   0  0  0  0  0  0
  -25.2496  -13.8199   20.5698 C   0  0  0  0  0  0
  -24.1794  -13.0439   20.9212 C   0  0  0  0  0  0
  -24.6388  -11.6919   20.8744 C   0  0  0  0  0  0
  -23.9062  -10.4295   21.0407 C   0  0  0  0  0  0
  -24.3613   -9.4210   21.9184 C   0  0  0  0  0  0
  -23.6293   -8.2238   22.0751 C   0  0  0  0  0  0
  -22.4277   -8.0273   21.3538 C   0  0  0  0  0  0
  -21.9910   -9.0245   20.4641 C   0  0  0  0  0  0
  -22.7234  -10.2129   20.3054 C   0  0  0  0  0  0
  -21.6850   -6.0729   22.5277 C   0  0  0  0  0  0
  -21.4014   -6.5635   23.8211 C   0  0  0  0  0  0
  -21.3663   -5.6789   24.9173 C   0  0  0  0  0  0
  -21.6046   -4.3050   24.7225 C   0  0  0  0  0  0
  -21.8819   -3.8140   23.4346 C   0  0  0  0  0  0
  -21.9191   -4.6956   22.3403 C   0  0  0  0  0  0
  -22.7815  -13.5219   21.1869 C   0  0  0  0  0  0
  -22.1661   -4.2143   21.0979 F   0  0  0  0  0  0
  -21.5632   -3.4532   25.7738 F   0  0  0  0  0  0
  -29.9785  -13.5481   20.3842 N   0  0  0  0  0  0
  -26.2919  -12.9411   20.3260 N   0  0  0  0  0  0
  -25.9321  -11.6552   20.5743 N   0  0  0  0  0  0
  -22.0450  -12.8213   22.0419 N   0  0  0  0  0  0
  -25.4169  -15.1928   20.4128 N   0  0  0  0  0  0
  -31.8174  -14.8227   20.1622 O   0  0  0  0  0  0
  -21.6639   -6.8870   21.4240 O   0  0  0  0  0  0
  -22.3504  -14.5522   20.6707 O   0  0  0  0  0  0
  -24.6331  -31.8534   23.1951 C   0  0  0  0  0  0
  -25.9148  -32.4743   23.8309 C   0  0  1  0  0  0
  -27.2248  -27.2535   20.1372 C   0  0  0  0  0  0
  -25.5941  -33.8543   24.2246 N   0  0  0  0  0  0
  -23.4297  -30.4731   21.5397 C   0  0  2  0  0  0
  -24.8777  -28.9090   20.1165 C   0  0  0  0  0  0
  -22.7507  -29.4594   22.4923 C   0  0  0  0  0  0
  -18.0293  -28.1384   22.8487 C   0  0  0  0  0  0
  -24.1489  -36.7272   23.2642 C   0  0  0  0  0  0
  -25.9752  -30.7660   21.3713 C   0  0  0  0  0  0
  -26.0503  -29.3842   20.7186 C   0  0  0  0  0  0
  -27.2306  -28.5721   20.7097 C   0  0  0  0  0  0
  -26.0285  -26.8356   19.5220 C   0  0  0  0  0  0
  -24.8722  -27.6435   19.5050 C   0  0  0  0  0  0
  -23.6479  -29.7979   20.1592 C   0  0  0  0  0  0
  -25.4116  -36.3060   24.0328 C   0  0  1  0  0  0
  -20.5899  -28.3695   23.1278 C   0  0  2  0  0  0
  -20.6778  -26.9410   22.5411 C   0  0  0  0  0  0
  -19.5752  -26.6382   21.5216 C   0  0  0  0  0  0
  -18.1933  -26.7928   22.1626 C   0  0  0  0  0  0
  -19.1548  -28.8860   23.2874 C   0  0  0  0  0  0
  -18.9464  -30.1462   23.8885 C   0  0  0  0  0  0
  -17.6462  -30.6582   24.0563 C   0  0  0  0  0  0
  -25.9062  -34.9434   23.5093 C   0  0  0  0  0  0
  -16.5353  -29.9076   23.6333 C   0  0  0  0  0  0
  -16.7280  -28.6497   23.0352 C   0  0  0  0  0  0
  -26.4515  -31.6561   25.0695 C   0  0  0  0  0  0
  -25.3735  -31.3692   26.1409 C   0  0  0  0  0  0
  -27.0372  -30.2981   24.6173 C   0  0  0  0  0  0
  -27.6074  -32.4298   25.7476 C   0  0  0  0  0  0
  -27.5577  -37.1793   24.8468 C   0  0  0  0  0  0
  -21.4212  -29.3045   22.3671 N   0  0  0  0  0  0
  -26.4288  -37.3760   23.9410 N   0  0  0  0  0  0
  -24.6990  -31.0494   22.0925 N   0  0  0  0  0  0
  -23.4203  -28.8145   23.3034 O   0  0  0  0  0  0
  -28.3263  -26.3691   20.1194 O   0  0  0  0  0  0
  -26.5632  -34.8921   22.4661 O   0  0  0  0  0  0
  -23.5479  -32.1364   23.7247 O   0  0  0  0  0  0
  -31.5513  -17.6150   21.3273 C   0  0  0  0  0  0
  -29.9042  -19.9429   20.7101 C   0  0  0  0  0  0
  -31.9839  -18.9183   21.6166 C   0  0  0  0  0  0
  -30.2855  -17.3647   20.7597 C   0  0  0  0  0  0
  -31.1869  -20.0527   21.3362 C   0  0  0  0  0  0
  -29.4760  -18.5532   20.4603 C   0  0  0  0  0  0
  -29.4185  -22.5132   20.1793 C   0  0  0  0  0  0
  -27.1029  -22.6016   20.5275 C   0  0  0  0  0  0
  -27.6131  -21.1410   20.3861 C   0  0  0  0  0  0
  -28.2206  -23.5413   20.0347 C   0  0  1  0  0  0
  -28.2149  -25.0104   20.7641 C   0  0  0  0  0  0
  -29.0730  -21.1843   20.4315 N   0  0  0  0  0  0
  -33.2206  -19.0966   22.2437 N   0  0  0  0  0  0
  -31.7463  -21.2626   21.7531 N   0  0  0  0  0  0
  -29.8640  -15.9352   20.5917 N   0  0  0  0  0  0
  -30.5664  -22.9214   19.9827 O   0  0  0  0  0  0
  -28.2548  -18.3407   19.9130 F   0  0  0  0  0  0
  -31.4711  -12.5912   19.1689 H   0  0  0  0  0  0
  -30.3731  -11.5009   19.9652 H   0  0  0  0  0  0
  -29.7960  -11.7303   17.5235 H   0  0  0  0  0  0
  -29.6316  -13.4593   17.7093 H   0  0  0  0  0  0
  -27.8992  -11.2820   18.9190 H   0  0  0  0  0  0
  -27.3756  -12.5121   17.7990 H   0  0  0  0  0  0
  -27.6250  -14.2537   19.4551 H   0  0  0  0  0  0
  -28.7310  -12.1938   21.4245 H   0  0  0  0  0  0
  -28.4212  -13.8742   21.7840 H   0  0  0  0  0  0
  -25.2754   -9.5688   22.4763 H   0  0  0  0  0  0
  -23.9997   -7.4633   22.7475 H   0  0  0  0  0  0
  -21.0835   -8.8759   19.8954 H   0  0  0  0  0  0
  -22.3684  -10.9660   19.6161 H   0  0  0  0  0  0
  -21.2006   -7.6146   23.9712 H   0  0  0  0  0  0
  -21.1490   -6.0519   25.9075 H   0  0  0  0  0  0
  -22.0598   -2.7603   23.2845 H   0  0  0  0  0  0
  -22.4053  -11.9874   22.4817 H   0  0  0  0  0  0
  -21.1065  -13.1239   22.2610 H   0  0  0  0  0  0
  -24.6454  -15.8417   20.5242 H   0  0  0  0  0  0
  -26.2579  -15.6375   20.0685 H   0  0  0  0  0  0
  -26.7216  -32.5395   23.1054 H   0  0  0  0  0  0
  -25.0083  -33.9672   25.0390 H   0  0  0  0  0  0
  -22.7260  -31.2948   21.3894 H   0  0  0  0  0  0
  -23.3758  -35.9596   23.3296 H   0  0  0  0  0  0
  -24.3586  -36.8903   22.2058 H   0  0  0  0  0  0
  -23.7233  -37.6468   23.6672 H   0  0  0  0  0  0
  -26.1101  -31.5230   20.5975 H   0  0  0  0  0  0
  -26.8541  -30.8212   22.0022 H   0  0  0  0  0  0
  -28.1346  -28.9385   21.1761 H   0  0  0  0  0  0
  -25.9857  -25.8604   19.0578 H   0  0  0  0  0  0
  -23.9742  -27.2736   19.0296 H   0  0  0  0  0  0
  -23.7713  -30.5702   19.3987 H   0  0  0  0  0  0
  -22.7657  -29.2299   19.8576 H   0  0  0  0  0  0
  -25.1297  -36.1904   25.0819 H   0  0  0  0  0  0
  -20.9996  -28.3266   24.1399 H   0  0  0  0  0  0
  -20.5687  -26.2296   23.3613 H   0  0  0  0  0  0
  -21.6641  -26.7436   22.1201 H   0  0  0  0  0  0
  -19.6910  -25.6297   21.1239 H   0  0  0  0  0  0
  -19.6688  -27.3199   20.6752 H   0  0  0  0  0  0
  -17.4207  -26.6692   21.4024 H   0  0  0  0  0  0
  -18.0324  -26.0068   22.9020 H   0  0  0  0  0  0
  -19.7941  -30.7288   24.2239 H   0  0  0  0  0  0
  -17.5012  -31.6262   24.5163 H   0  0  0  0  0  0
  -15.5352  -30.2969   23.7661 H   0  0  0  0  0  0
  -15.8685  -28.0812   22.7060 H   0  0  0  0  0  0
  -24.5930  -30.7025   25.7720 H   0  0  0  0  0  0
  -24.8903  -32.2849   26.4823 H   0  0  0  0  0  0
  -25.8052  -30.8872   27.0188 H   0  0  0  0  0  0
  -26.2952  -29.6709   24.1216 H   0  0  0  0  0  0
  -27.4086  -29.7260   25.4684 H   0  0  0  0  0  0
  -27.8814  -30.4263   23.9393 H   0  0  0  0  0  0
  -27.2690  -33.3612   26.2026 H   0  0  0  0  0  0
  -28.3900  -32.6824   25.0310 H   0  0  0  0  0  0
  -28.0720  -31.8428   26.5411 H   0  0  0  0  0  0
  -28.2587  -38.0097   24.7522 H   0  0  0  0  0  0
  -28.1081  -36.2629   24.6285 H   0  0  0  0  0  0
  -27.2301  -37.1427   25.8874 H   0  0  0  0  0  0
  -20.9400  -29.8744   21.6855 H   0  0  0  0  0  0
  -26.0166  -38.2835   24.1404 H   0  0  0  0  0  0
  -32.1999  -16.7954   21.5975 H   0  0  0  0  0  0
  -26.8986  -22.7980   21.5810 H   0  0  0  0  0  0
  -26.1685  -22.7574   19.9877 H   0  0  0  0  0  0
  -27.3013  -20.7225   19.4276 H   0  0  0  0  0  0
  -27.2108  -20.5031   21.1738 H   0  0  0  0  0  0
  -28.0910  -23.6980   18.9637 H   0  0  0  0  0  0
  -29.0316  -24.9874   21.4860 H   0  0  0  0  0  0
  -27.3264  -25.0534   21.3943 H   0  0  0  0  0  0
  -33.5942  -18.2901   22.7316 H   0  0  0  0  0  0
  -33.2490  -19.9213   22.8341 H   0  0  0  0  0  0
  -31.4541  -22.0546   21.1758 H   0  0  0  0  0  0
  -32.7586  -21.2065   21.7668 H   0  0  0  0  0  0
  -28.8669  -15.7870   20.6002 H   0  0  0  0  0  0
  1 25  1  0  0  0
  1 30  2  0  0  0
  1 85  1  0  0  0
  2  3  1  0  0  0
  2 25  1  0  0  0
  2 88  1  0  0  0
  2 89  1  0  0  0
  3  4  1  0  0  0
  3 90  1  0  0  0
  3 91  1  0  0  0
  4  5  1  0  0  0
  4 92  1  0  0  0
  4 93  1  0  0  0
  5  6  1  0  0  0
  5 26  1  0  0  0
  5 94  1  0  0  0
  6 25  1  0  0  0
  6 95  1  0  0  0
  6 96  1  0  0  0
  7  8  2  0  0  0
  7 26  1  0  0  0
  7 29  1  0  0  0
  8  9  1  0  0  0
  8 22  1  0  0  0
  9 10  1  0  0  0
  9 27  2  0  0  0
 10 11  2  0  0  0
 10 15  1  0  0  0
 11 12  1  0  0  0
 11 97  1  0  0  0
 12 13  2  0  0  0
 12 98  1  0  0  0
 13 14  1  0  0  0
 13 31  1  0  0  0
 14 15  2  0  0  0
 14 99  1  0  0  0
 15100  1  0  0  0
 16 17  2  0  0  0
 16 21  1  0  0  0
 16 31  1  0  0  0
 17 18  1  0  0  0
 17101  1  0  0  0
 18 19  2  0  0  0
 18102  1  0  0  0
 19 20  1  0  0  0
 19 24  1  0  0  0
 20 21  2  0  0  0
 20103  1  0  0  0
 21 23  1  0  0  0
 22 28  1  0  0  0
 22 32  2  0  0  0
 26 27  1  0  0  0
 28104  1  0  0  0
 28105  1  0  0  0
 29106  1  0  0  0
 29107  1  0  0  0
 33 34  1  0  0  0
 33 66  1  0  0  0
 33 70  2  0  0  0
 34 36  1  0  0  0
 34 59  1  0  0  0
 34108  1  0  0  0
 35 44  2  0  0  0
 35 45  1  0  0  0
 35 68  1  0  0  0
 36 56  1  0  0  0
 36109  1  0  0  0
 37 39  1  0  0  0
 37 47  1  0  0  0
 37 66  1  0  0  0
 37110  1  0  0  0
 38 43  2  0  0  0
 38 46  1  0  0  0
 38 47  1  0  0  0
 39 64  1  0  0  0
 39 67  2  0  0  0
 40 52  1  0  0  0
 40 53  2  0  0  0
 40 58  1  0  0  0
 41111  1  0  0  0
 41112  1  0  0  0
 41113  1  0  0  0
 41 48  1  0  0  0
 42 43  1  0  0  0
 42 66  1  0  0  0
 42114  1  0  0  0
 42115  1  0  0  0
 43 44  1  0  0  0
 44116  1  0  0  0
 45 46  2  0  0  0
 45117  1  0  0  0
 46118  1  0  0  0
 47119  1  0  0  0
 47120  1  0  0  0
 48 56  1  0  0  0
 48 65  1  0  0  0
 48121  1  0  0  0
 49 50  1  0  0  0
 49 53  1  0  0  0
 49 64  1  0  0  0
 49122  1  0  0  0
 50 51  1  0  0  0
 50123  1  0  0  0
 50124  1  0  0  0
 51 52  1  0  0  0
 51125  1  0  0  0
 51126  1  0  0  0
 52127  1  0  0  0
 52128  1  0  0  0
 53 54  1  0  0  0
 54 55  2  0  0  0
 54129  1  0  0  0
 55 57  1  0  0  0
 55130  1  0  0  0
 56 69  2  0  0  0
 57 58  2  0  0  0
 57131  1  0  0  0
 58132  1  0  0  0
 59 60  1  0  0  0
 59 61  1  0  0  0
 59 62  1  0  0  0
 60133  1  0  0  0
 60134  1  0  0  0
 60135  1  0  0  0
 61136  1  0  0  0
 61137  1  0  0  0
 61138  1  0  0  0
 62139  1  0  0  0
 62140  1  0  0  0
 62141  1  0  0  0
 63 65  1  0  0  0
 63142  1  0  0  0
 63143  1  0  0  0
 63144  1  0  0  0
 64145  1  0  0  0
 65146  1  0  0  0
 68 81  1  0  0  0
 71 73  2  0  0  0
 71 74  1  0  0  0
 71147  1  0  0  0
 72 75  2  0  0  0
 72 76  1  0  0  0
 72 82  1  0  0  0
 73 75  1  0  0  0
 73 83  1  0  0  0
 74 76  2  0  0  0
 74 85  1  0  0  0
 75 84  1  0  0  0
 76 87  1  0  0  0
 77 80  1  0  0  0
 77 82  1  0  0  0
 77 86  2  0  0  0
 78 79  1  0  0  0
 78 80  1  0  0  0
 78148  1  0  0  0
 78149  1  0  0  0
 79 82  1  0  0  0
 79150  1  0  0  0
 79151  1  0  0  0
 80 81  1  0  0  0
 80152  1  0  0  0
 81153  1  0  0  0
 81154  1  0  0  0
 83155  1  0  0  0
 83156  1  0  0  0
 84157  1  0  0  0
 84158  1  0  0  0
 85159  1  0  0  0
M  ISO  4   1 100  68 101  81 101  85 100
M  END
> <chiral flag>
0

> <version>
0

> <s_m_source_file>
/data/baiqing/PycharmProjects/Reinvent-master-3.2/result/LINK_invent/BTK/process_docking_weight1_custom_product_contain_oxygen_bond_distance_aromatic_linkinvent_7_9_3/rearranged_h_0095.sdf

> <i_m_source_file_index>
9

> <r_mmod_Potential_Energy-OPLS-2005>
161.609130859375

> <r_mmod_Stretch_Energy-OPLS-2005>
149.749603271484

> <r_mmod_Bend_Energy-OPLS-2005>
215.125610351562

> <r_mmod_Torsional_Energy-OPLS-2005>
299.916931152344

> <r_mmod_Improper_Torsional_Energy-OPLS-2005>
17.5053958892822

> <r_mmod_Van_der_Waal_Energy-OPLS-2005>
161.059844970703

> <r_mmod_Electrostatic_Energy-OPLS-2005>
-547.356201171875

> <r_mmod_Solvation_Energy-OPLS-2005>
-225.023193359375

> <b_mmod_Minimization_Converged-OPLS-2005>
0

> <r_mmod_RMS_Derivative-OPLS-2005>
1.22409701347351

$$$$
9
                    3D
 Structure written by MMmdl.
163172  0  0  1  0            999 V2000
  -30.6680  -14.6867   20.3815 C   0  0  0  0  0  0
  -30.4273  -12.3928   19.4683 C   0  0  0  0  0  0
  -29.5028  -12.4195   18.2318 C   0  0  0  0  0  0
  -28.0246  -12.3049   18.6563 C   0  0  0  0  0  0
  -27.6398  -13.2219   19.8525 C   0  0  2  0  0  0
  -28.6990  -13.1874   20.9743 C   0  0  0  0  0  0
  -25.2518  -13.8171   20.5768 C   0  0  0  0  0  0
  -24.1792  -13.0427   20.9225 C   0  0  0  0  0  0
  -24.6364  -11.6897   20.8772 C   0  0  0  0  0  0
  -23.9045  -10.4279   21.0424 C   0  0  0  0  0  0
  -24.3596   -9.4198   21.9204 C   0  0  0  0  0  0
  -23.6277   -8.2232   22.0770 C   0  0  0  0  0  0
  -22.4257   -8.0268   21.3560 C   0  0  0  0  0  0
  -21.9897   -9.0237   20.4663 C   0  0  0  0  0  0
  -22.7216  -10.2128   20.3078 C   0  0  0  0  0  0
  -21.6849   -6.0718   22.5285 C   0  0  0  0  0  0
  -21.4014   -6.5640   23.8207 C   0  0  0  0  0  0
  -21.3636   -5.6810   24.9182 C   0  0  0  0  0  0
  -21.6027   -4.3067   24.7236 C   0  0  0  0  0  0
  -21.8822   -3.8150   23.4362 C   0  0  0  0  0  0
  -21.9188   -4.6952   22.3417 C   0  0  0  0  0  0
  -22.7826  -13.5232   21.1876 C   0  0  0  0  0  0
  -22.1659   -4.2141   21.0998 F   0  0  0  0  0  0
  -21.5618   -3.4549   25.7736 F   0  0  0  0  0  0
  -29.9950  -13.4904   20.3555 N   0  0  0  0  0  0
  -26.2960  -12.9359   20.3425 N   0  0  0  0  0  0
  -25.9309  -11.6508   20.5848 N   0  0  0  0  0  0
  -22.0466  -12.8230   22.0447 N   0  0  0  0  0  0
  -25.4204  -15.1890   20.4193 N   0  0  0  0  0  0
  -31.8952  -14.6924   20.2512 O   0  0  0  0  0  0
  -21.6630   -6.8859   21.4241 O   0  0  0  0  0  0
  -22.3520  -14.5544   20.6715 O   0  0  0  0  0  0
  -24.6236  -31.8639   23.2035 C   0  0  0  0  0  0
  -25.9071  -32.4824   23.8365 C   0  0  1  0  0  0
  -27.2280  -27.3395   20.1144 C   0  0  0  0  0  0
  -25.5911  -33.8626   24.2308 N   0  0  0  0  0  0
  -23.4171  -30.4863   21.5468 C   0  0  2  0  0  0
  -24.8629  -28.9452   20.1107 C   0  0  0  0  0  0
  -22.7467  -29.4646   22.4965 C   0  0  0  0  0  0
  -18.0283  -28.1385   22.8508 C   0  0  0  0  0  0
  -24.1478  -36.7274   23.2643 C   0  0  0  0  0  0
  -25.9561  -30.8019   21.3686 C   0  0  0  0  0  0
  -26.0314  -29.4306   20.7117 C   0  0  0  0  0  0
  -27.2163  -28.6404   20.6993 C   0  0  0  0  0  0
  -26.0349  -26.9064   19.4870 C   0  0  0  0  0  0
  -24.8655  -27.6877   19.4888 C   0  0  0  0  0  0
  -23.6281  -29.8182   20.1628 C   0  0  0  0  0  0
  -25.4109  -36.3122   24.0347 C   0  0  1  0  0  0
  -20.5877  -28.3676   23.1308 C   0  0  2  0  0  0
  -20.6770  -26.9411   22.5415 C   0  0  0  0  0  0
  -19.5745  -26.6396   21.5219 C   0  0  0  0  0  0
  -18.1924  -26.7943   22.1621 C   0  0  0  0  0  0
  -19.1533  -28.8847   23.2907 C   0  0  0  0  0  0
  -18.9450  -30.1452   23.8925 C   0  0  0  0  0  0
  -17.6451  -30.6595   24.0570 C   0  0  0  0  0  0
  -25.9050  -34.9490   23.5126 C   0  0  0  0  0  0
  -16.5341  -29.9088   23.6345 C   0  0  0  0  0  0
  -16.7267  -28.6497   23.0378 C   0  0  0  0  0  0
  -26.4460  -31.6630   25.0723 C   0  0  0  0  0  0
  -25.3700  -31.3722   26.1440 C   0  0  0  0  0  0
  -27.0302  -30.3089   24.6116 C   0  0  0  0  0  0
  -27.6036  -32.4353   25.7467 C   0  0  0  0  0  0
  -27.5577  -37.1793   24.8477 C   0  0  0  0  0  0
  -21.4182  -29.3037   22.3701 N   0  0  0  0  0  0
  -26.4291  -37.3806   23.9426 N   0  0  0  0  0  0
  -24.6849  -31.0664   22.0969 N   0  0  0  0  0  0
  -23.4214  -28.8202   23.3036 O   0  0  0  0  0  0
  -28.3518  -26.5028   20.1695 O   0  0  0  0  0  0
  -26.5607  -34.8943   22.4688 O   0  0  0  0  0  0
  -23.5391  -32.1410   23.7376 O   0  0  0  0  0  0
  -28.7155  -19.3114   20.8553 C   0  0  0  0  0  0
  -28.7661  -17.9003   20.6349 C   0  0  0  0  0  0
  -31.1144  -19.3624   20.8624 C   0  0  0  0  0  0
  -29.8965  -20.0914   20.9767 C   0  0  0  0  0  0
  -29.9877  -17.1751   20.5074 C   0  0  0  0  0  0
  -31.1733  -17.9605   20.6253 C   0  0  0  0  0  0
  -30.7092  -22.0421   22.2095 C   0  0  0  0  0  0
  -31.0318  -23.5441   22.2583 C   0  0  0  0  0  0
  -29.8463  -24.4450   21.9125 C   0  0  0  0  0  0
  -28.9248  -22.4934   20.5631 C   0  0  0  0  0  0
  -29.2772  -24.0557   20.5500 C   0  0  1  0  0  0
  -29.7743  -15.8705   18.4978 C   0  0  0  0  0  0
  -28.1161  -25.0457   20.1209 C   0  0  0  0  0  0
  -29.9050  -21.5501   21.2232 N   0  0  0  0  0  0
  -32.4359  -17.4018   20.4299 N   0  0  0  0  0  0
  -29.9586  -15.8067   19.9617 N   0  0  0  0  0  0
  -31.2255  -21.3350   23.0823 O   0  0  0  0  0  0
  -31.4716  -12.4867   19.1637 H   0  0  0  0  0  0
  -30.3536  -11.4369   19.9896 H   0  0  0  0  0  0
  -29.7630  -11.6030   17.5565 H   0  0  0  0  0  0
  -29.6550  -13.3258   17.6520 H   0  0  0  0  0  0
  -27.8595  -11.2631   18.9355 H   0  0  0  0  0  0
  -27.3689  -12.4987   17.8062 H   0  0  0  0  0  0
  -27.6122  -14.2370   19.4673 H   0  0  0  0  0  0
  -28.7283  -12.2093   21.4552 H   0  0  0  0  0  0
  -28.4610  -13.9172   21.7514 H   0  0  0  0  0  0
  -25.2738   -9.5671   22.4793 H   0  0  0  0  0  0
  -23.9961   -7.4635   22.7518 H   0  0  0  0  0  0
  -21.0821   -8.8752   19.8988 H   0  0  0  0  0  0
  -22.3668  -10.9663   19.6188 H   0  0  0  0  0  0
  -21.2026   -7.6153   23.9709 H   0  0  0  0  0  0
  -21.1456   -6.0548   25.9082 H   0  0  0  0  0  0
  -22.0622   -2.7618   23.2865 H   0  0  0  0  0  0
  -22.4038  -11.9853   22.4815 H   0  0  0  0  0  0
  -21.1121  -13.1304   22.2712 H   0  0  0  0  0  0
  -24.6452  -15.8358   20.5130 H   0  0  0  0  0  0
  -26.2791  -15.6385   20.1295 H   0  0  0  0  0  0
  -26.7132  -32.5509   23.1114 H   0  0  0  0  0  0
  -25.0121  -33.9782   25.0486 H   0  0  0  0  0  0
  -22.7101  -31.3055   21.4055 H   0  0  0  0  0  0
  -23.3783  -35.9564   23.3322 H   0  0  0  0  0  0
  -24.3596  -36.8869   22.2061 H   0  0  0  0  0  0
  -23.7154  -37.6454   23.6632 H   0  0  0  0  0  0
  -26.0795  -31.5658   20.5994 H   0  0  0  0  0  0
  -26.8399  -30.8566   21.9908 H   0  0  0  0  0  0
  -28.1141  -29.0099   21.1740 H   0  0  0  0  0  0
  -25.9770  -25.9492   18.9935 H   0  0  0  0  0  0
  -23.9688  -27.3117   19.0134 H   0  0  0  0  0  0
  -23.7338  -30.5925   19.4017 H   0  0  0  0  0  0
  -22.7524  -29.2378   19.8703 H   0  0  0  0  0  0
  -25.1286  -36.1995   25.0838 H   0  0  0  0  0  0
  -20.9975  -28.3221   24.1422 H   0  0  0  0  0  0
  -20.5694  -26.2279   23.3596 H   0  0  0  0  0  0
  -21.6631  -26.7472   22.1177 H   0  0  0  0  0  0
  -19.6909  -25.6314   21.1230 H   0  0  0  0  0  0
  -19.6686  -27.3217   20.6760 H   0  0  0  0  0  0
  -17.4204  -26.6718   21.4007 H   0  0  0  0  0  0
  -18.0312  -26.0075   22.9000 H   0  0  0  0  0  0
  -19.7924  -30.7264   24.2305 H   0  0  0  0  0  0
  -17.5005  -31.6289   24.5145 H   0  0  0  0  0  0
  -15.5341  -30.2991   23.7672 H   0  0  0  0  0  0
  -15.8664  -28.0819   22.7094 H   0  0  0  0  0  0
  -24.5895  -30.7062   25.7733 H   0  0  0  0  0  0
  -24.8839  -32.2866   26.4866 H   0  0  0  0  0  0
  -25.8018  -30.8891   27.0217 H   0  0  0  0  0  0
  -26.2850  -29.6862   24.1150 H   0  0  0  0  0  0
  -27.4071  -29.7323   25.4570 H   0  0  0  0  0  0
  -27.8696  -30.4447   23.9290 H   0  0  0  0  0  0
  -27.2687  -33.3686   26.2005 H   0  0  0  0  0  0
  -28.3841  -32.6864   25.0271 H   0  0  0  0  0  0
  -28.0706  -31.8503   26.5400 H   0  0  0  0  0  0
  -28.2601  -38.0086   24.7576 H   0  0  0  0  0  0
  -28.1067  -36.2632   24.6254 H   0  0  0  0  0  0
  -27.2321  -37.1383   25.8884 H   0  0  0  0  0  0
  -20.9347  -29.8759   21.6916 H   0  0  0  0  0  0
  -26.0197  -38.2891   24.1444 H   0  0  0  0  0  0
  -27.7496  -19.7922   20.9310 H   0  0  0  0  0  0
  -27.8303  -17.3752   20.4999 H   0  0  0  0  0  0
  -32.0440  -19.9099   20.9297 H   0  0  0  0  0  0
  -31.8474  -23.7275   21.5571 H   0  0  0  0  0  0
  -31.4157  -23.8048   23.2447 H   0  0  0  0  0  0
  -30.1797  -25.4852   21.8940 H   0  0  0  0  0  0
  -29.0807  -24.3781   22.6864 H   0  0  0  0  0  0
  -28.7582  -22.1609   19.5380 H   0  0  0  0  0  0
  -27.9715  -22.3584   21.0751 H   0  0  0  0  0  0
  -30.0808  -24.1965   19.8249 H   0  0  0  0  0  0
  -28.8176  -15.4581   18.1855 H   0  0  0  0  0  0
  -30.5687  -15.3544   17.9535 H   0  0  0  0  0  0
  -29.8032  -16.8955   18.1234 H   0  0  0  0  0  0
  -27.2500  -24.8193   20.7443 H   0  0  0  0  0  0
  -27.8335  -24.7846   19.1009 H   0  0  0  0  0  0
  -32.4983  -16.3811   20.4001 H   0  0  0  0  0  0
  -33.2589  -17.8538   20.8139 H   0  0  0  0  0  0
  1 25  1  0  0  0
  1 30  2  0  0  0
  1 86  1  0  0  0
  2  3  1  0  0  0
  2 25  1  0  0  0
  2 88  1  0  0  0
  2 89  1  0  0  0
  3  4  1  0  0  0
  3 90  1  0  0  0
  3 91  1  0  0  0
  4  5  1  0  0  0
  4 92  1  0  0  0
  4 93  1  0  0  0
  5  6  1  0  0  0
  5 26  1  0  0  0
  5 94  1  0  0  0
  6 25  1  0  0  0
  6 95  1  0  0  0
  6 96  1  0  0  0
  7  8  2  0  0  0
  7 26  1  0  0  0
  7 29  1  0  0  0
  8  9  1  0  0  0
  8 22  1  0  0  0
  9 10  1  0  0  0
  9 27  2  0  0  0
 10 11  2  0  0  0
 10 15  1  0  0  0
 11 12  1  0  0  0
 11 97  1  0  0  0
 12 13  2  0  0  0
 12 98  1  0  0  0
 13 14  1  0  0  0
 13 31  1  0  0  0
 14 15  2  0  0  0
 14 99  1  0  0  0
 15100  1  0  0  0
 16 17  2  0  0  0
 16 21  1  0  0  0
 16 31  1  0  0  0
 17 18  1  0  0  0
 17101  1  0  0  0
 18 19  2  0  0  0
 18102  1  0  0  0
 19 20  1  0  0  0
 19 24  1  0  0  0
 20 21  2  0  0  0
 20103  1  0  0  0
 21 23  1  0  0  0
 22 28  1  0  0  0
 22 32  2  0  0  0
 26 27  1  0  0  0
 28104  1  0  0  0
 28105  1  0  0  0
 29106  1  0  0  0
 29107  1  0  0  0
 33 34  1  0  0  0
 33 66  1  0  0  0
 33 70  2  0  0  0
 34 36  1  0  0  0
 34 59  1  0  0  0
 34108  1  0  0  0
 35 44  2  0  0  0
 35 45  1  0  0  0
 35 68  1  0  0  0
 36 56  1  0  0  0
 36109  1  0  0  0
 37 39  1  0  0  0
 37 47  1  0  0  0
 37 66  1  0  0  0
 37110  1  0  0  0
 38 43  2  0  0  0
 38 46  1  0  0  0
 38 47  1  0  0  0
 39 64  1  0  0  0
 39 67  2  0  0  0
 40 52  1  0  0  0
 40 53  2  0  0  0
 40 58  1  0  0  0
 41111  1  0  0  0
 41112  1  0  0  0
 41113  1  0  0  0
 41 48  1  0  0  0
 42 43  1  0  0  0
 42 66  1  0  0  0
 42114  1  0  0  0
 42115  1  0  0  0
 43 44  1  0  0  0
 44116  1  0  0  0
 45 46  2  0  0  0
 45117  1  0  0  0
 46118  1  0  0  0
 47119  1  0  0  0
 47120  1  0  0  0
 48 56  1  0  0  0
 48 65  1  0  0  0
 48121  1  0  0  0
 49 50  1  0  0  0
 49 53  1  0  0  0
 49 64  1  0  0  0
 49122  1  0  0  0
 50 51  1  0  0  0
 50123  1  0  0  0
 50124  1  0  0  0
 51 52  1  0  0  0
 51125  1  0  0  0
 51126  1  0  0  0
 52127  1  0  0  0
 52128  1  0  0  0
 53 54  1  0  0  0
 54 55  2  0  0  0
 54129  1  0  0  0
 55 57  1  0  0  0
 55130  1  0  0  0
 56 69  2  0  0  0
 57 58  2  0  0  0
 57131  1  0  0  0
 58132  1  0  0  0
 59 60  1  0  0  0
 59 61  1  0  0  0
 59 62  1  0  0  0
 60133  1  0  0  0
 60134  1  0  0  0
 60135  1  0  0  0
 61136  1  0  0  0
 61137  1  0  0  0
 61138  1  0  0  0
 62139  1  0  0  0
 62140  1  0  0  0
 62141  1  0  0  0
 63 65  1  0  0  0
 63142  1  0  0  0
 63143  1  0  0  0
 63144  1  0  0  0
 64145  1  0  0  0
 65146  1  0  0  0
 68 83  1  0  0  0
 71 72  2  0  0  0
 71 74  1  0  0  0
 71147  1  0  0  0
 72 75  1  0  0  0
 72148  1  0  0  0
 73 74  2  0  0  0
 73 76  1  0  0  0
 73149  1  0  0  0
 74 84  1  0  0  0
 75 76  2  0  0  0
 75 86  1  0  0  0
 76 85  1  0  0  0
 77 78  1  0  0  0
 77 84  1  0  0  0
 77 87  2  0  0  0
 78 79  1  0  0  0
 78150  1  0  0  0
 78151  1  0  0  0
 79 81  1  0  0  0
 79152  1  0  0  0
 79153  1  0  0  0
 80 81  1  0  0  0
 80 84  1  0  0  0
 80154  1  0  0  0
 80155  1  0  0  0
 81 83  1  0  0  0
 81156  1  0  0  0
 82 86  1  0  0  0
 82157  1  0  0  0
 82158  1  0  0  0
 82159  1  0  0  0
 83160  1  0  0  0
 83161  1  0  0  0
 85162  1  0  0  0
 85163  1  0  0  0
M  ISO  4   1 100  68 101  83 101  86 100
M  END
> <chiral flag>
0

> <version>
0

> <s_m_source_file>
/data/baiqing/PycharmProjects/Reinvent-master-3.2/result/LINK_invent/BTK/process_docking_weight1_custom_product_contain_oxygen_bond_distance_aromatic_linkinvent_7_9_3/rearranged_h_0095.sdf

> <i_m_source_file_index>
10

> <r_mmod_Potential_Energy-OPLS-2005>
337.807098388672

> <r_mmod_Stretch_Energy-OPLS-2005>
90.7452239990234

> <r_mmod_Bend_Energy-OPLS-2005>
151.481536865234

> <r_mmod_Torsional_Energy-OPLS-2005>
394.317535400391

> <r_mmod_Improper_Torsional_Energy-OPLS-2005>
28.6119594573975

> <r_mmod_Van_der_Waal_Energy-OPLS-2005>
167.928314208984

> <r_mmod_Electrostatic_Energy-OPLS-2005>
-352.623840332031

> <r_mmod_Solvation_Energy-OPLS-2005>
-209.025329589844

> <b_mmod_Minimization_Converged-OPLS-2005>
0

> <r_mmod_RMS_Derivative-OPLS-2005>
3.50634622573853

$$$$
10
                    3D
 Structure written by MMmdl.
151159  0  0  1  0            999 V2000
  -30.6287  -14.8083   20.4126 C   0  0  0  0  0  0
  -30.4123  -12.4869   19.4922 C   0  0  0  0  0  0
  -29.5048  -12.5025   18.2440 C   0  0  0  0  0  0
  -28.0329  -12.3250   18.6576 C   0  0  0  0  0  0
  -27.6299  -13.2454   19.8409 C   0  0  2  0  0  0
  -28.6741  -13.2414   20.9786 C   0  0  0  0  0  0
  -25.2467  -13.8229   20.5749 C   0  0  0  0  0  0
  -24.1771  -13.0451   20.9237 C   0  0  0  0  0  0
  -24.6382  -11.6936   20.8760 C   0  0  0  0  0  0
  -23.9067  -10.4300   21.0410 C   0  0  0  0  0  0
  -24.3624   -9.4212   21.9183 C   0  0  0  0  0  0
  -23.6304   -8.2243   22.0754 C   0  0  0  0  0  0
  -22.4284   -8.0281   21.3546 C   0  0  0  0  0  0
  -21.9916   -9.0254   20.4651 C   0  0  0  0  0  0
  -22.7242  -10.2135   20.3057 C   0  0  0  0  0  0
  -21.6852   -6.0739   22.5284 C   0  0  0  0  0  0
  -21.4017   -6.5645   23.8218 C   0  0  0  0  0  0
  -21.3657   -5.6797   24.9176 C   0  0  0  0  0  0
  -21.6040   -4.3059   24.7230 C   0  0  0  0  0  0
  -21.8820   -3.8151   23.4349 C   0  0  0  0  0  0
  -21.9196   -4.6965   22.3406 C   0  0  0  0  0  0
  -22.7793  -13.5217   21.1897 C   0  0  0  0  0  0
  -22.1662   -4.2149   21.0986 F   0  0  0  0  0  0
  -21.5626   -3.4543   25.7742 F   0  0  0  0  0  0
  -29.9647  -13.5932   20.3804 N   0  0  0  0  0  0
  -26.2883  -12.9457   20.3276 N   0  0  0  0  0  0
  -25.9313  -11.6584   20.5754 N   0  0  0  0  0  0
  -22.0443  -12.8195   22.0442 N   0  0  0  0  0  0
  -25.4159  -15.1962   20.4222 N   0  0  0  0  0  0
  -31.8348  -14.7720   20.1536 O   0  0  0  0  0  0
  -21.6645   -6.8881   21.4248 O   0  0  0  0  0  0
  -22.3472  -14.5514   20.6729 O   0  0  0  0  0  0
  -24.6332  -31.8503   23.1917 C   0  0  0  0  0  0
  -25.9140  -32.4720   23.8280 C   0  0  1  0  0  0
  -27.2138  -27.2221   20.1334 C   0  0  0  0  0  0
  -25.5923  -33.8531   24.2201 N   0  0  0  0  0  0
  -23.4308  -30.4705   21.5359 C   0  0  2  0  0  0
  -24.8764  -28.9056   20.1047 C   0  0  0  0  0  0
  -22.7508  -29.4576   22.4893 C   0  0  0  0  0  0
  -18.0288  -28.1395   22.8486 C   0  0  0  0  0  0
  -24.1485  -36.7274   23.2641 C   0  0  0  0  0  0
  -25.9778  -30.7498   21.3764 C   0  0  0  0  0  0
  -26.0466  -29.3684   20.7176 C   0  0  0  0  0  0
  -27.2152  -28.5386   20.7182 C   0  0  0  0  0  0
  -26.0200  -26.8268   19.4947 C   0  0  0  0  0  0
  -24.8698  -27.6461   19.4814 C   0  0  0  0  0  0
  -23.6499  -29.7986   20.1529 C   0  0  0  0  0  0
  -25.4119  -36.3052   24.0316 C   0  0  1  0  0  0
  -20.5896  -28.3700   23.1273 C   0  0  2  0  0  0
  -20.6783  -26.9419   22.5414 C   0  0  0  0  0  0
  -19.5753  -26.6385   21.5223 C   0  0  0  0  0  0
  -18.1932  -26.7933   22.1635 C   0  0  0  0  0  0
  -19.1543  -28.8869   23.2867 C   0  0  0  0  0  0
  -18.9463  -30.1472   23.8880 C   0  0  0  0  0  0
  -17.6463  -30.6593   24.0569 C   0  0  0  0  0  0
  -25.9062  -34.9422   23.5064 C   0  0  0  0  0  0
  -16.5354  -29.9090   23.6339 C   0  0  0  0  0  0
  -16.7276  -28.6513   23.0351 C   0  0  0  0  0  0
  -26.4489  -31.6568   25.0691 C   0  0  0  0  0  0
  -25.3713  -31.3774   26.1422 C   0  0  0  0  0  0
  -27.0313  -30.2964   24.6211 C   0  0  0  0  0  0
  -27.6031  -32.4328   25.7465 C   0  0  0  0  0  0
  -27.5576  -37.1792   24.8462 C   0  0  0  0  0  0
  -21.4211  -29.3037   22.3652 N   0  0  0  0  0  0
  -26.4285  -37.3758   23.9407 N   0  0  0  0  0  0
  -24.6999  -31.0436   22.0905 N   0  0  0  0  0  0
  -23.4196  -28.8141   23.3024 O   0  0  0  0  0  0
  -28.3232  -26.3426   20.2209 O   0  0  0  0  0  0
  -26.5646  -34.8905   22.4640 O   0  0  0  0  0  0
  -23.5477  -32.1348   23.7196 O   0  0  0  0  0  0
  -28.3962  -19.0887   20.1138 C   0  0  0  0  0  0
  -27.9188  -20.4585   20.1637 C   0  0  0  0  0  0
  -30.5161  -19.8625   20.8569 C   0  0  0  0  0  0
  -29.7302  -18.7263   20.4751 C   0  0  0  0  0  0
  -30.0560  -21.2259   20.9149 C   0  0  0  0  0  0
  -28.7128  -21.5901   20.5647 C   0  0  0  0  0  0
  -30.4409  -17.3225   20.2937 C   0  0  0  0  0  0
  -28.3663  -24.8876   19.7553 C   0  0  0  0  0  0
  -30.9868  -22.1730   21.3567 N   0  0  0  0  0  0
  -29.9314  -16.0318   20.5242 N   0  0  0  0  0  0
  -31.6117  -17.4551   19.9206 O   0  0  0  0  0  0
  -28.3124  -23.7285   22.2434 O   0  0  0  0  0  0
  -26.4532  -23.1474   20.6827 O   0  0  0  0  0  0
  -27.9040  -23.3390   20.8793 S   0  0  0  0  0  0
  -31.4563  -12.5784   19.1900 H   0  0  0  0  0  0
  -30.3404  -11.5275   20.0077 H   0  0  0  0  0  0
  -29.7959  -11.7103   17.5531 H   0  0  0  0  0  0
  -29.6300  -13.4433   17.7058 H   0  0  0  0  0  0
  -27.8975  -11.2802   18.9394 H   0  0  0  0  0  0
  -27.3746  -12.4949   17.8043 H   0  0  0  0  0  0
  -27.6058  -14.2549   19.4302 H   0  0  0  0  0  0
  -28.7242  -12.2638   21.4601 H   0  0  0  0  0  0
  -28.4030  -13.9576   21.7553 H   0  0  0  0  0  0
  -25.2765   -9.5687   22.4763 H   0  0  0  0  0  0
  -24.0018   -7.4629   22.7468 H   0  0  0  0  0  0
  -21.0851   -8.8765   19.8957 H   0  0  0  0  0  0
  -22.3693  -10.9673   19.6171 H   0  0  0  0  0  0
  -21.2002   -7.6154   23.9719 H   0  0  0  0  0  0
  -21.1480   -6.0529   25.9081 H   0  0  0  0  0  0
  -22.0597   -2.7613   23.2850 H   0  0  0  0  0  0
  -22.4075  -11.9860   22.4825 H   0  0  0  0  0  0
  -21.1057  -13.1209   22.2656 H   0  0  0  0  0  0
  -24.6531  -15.8514   20.5544 H   0  0  0  0  0  0
  -26.2634  -15.6379   20.0920 H   0  0  0  0  0  0
  -26.7203  -32.5338   23.1016 H   0  0  0  0  0  0
  -25.0068  -33.9670   25.0343 H   0  0  0  0  0  0
  -22.7272  -31.2928   21.3873 H   0  0  0  0  0  0
  -23.3744  -35.9607   23.3287 H   0  0  0  0  0  0
  -24.3586  -36.8911   22.2060 H   0  0  0  0  0  0
  -23.7231  -37.6464   23.6685 H   0  0  0  0  0  0
  -26.1241  -31.5081   20.6060 H   0  0  0  0  0  0
  -26.8535  -30.7981   22.0126 H   0  0  0  0  0  0
  -28.1106  -28.8867   21.2137 H   0  0  0  0  0  0
  -25.9419  -25.8576   19.0265 H   0  0  0  0  0  0
  -23.9714  -27.2852   18.9986 H   0  0  0  0  0  0
  -23.7770  -30.5716   19.3937 H   0  0  0  0  0  0
  -22.7668  -29.2330   19.8503 H   0  0  0  0  0  0
  -25.1306  -36.1887   25.0809 H   0  0  0  0  0  0
  -20.9986  -28.3273   24.1397 H   0  0  0  0  0  0
  -20.5690  -26.2314   23.3619 H   0  0  0  0  0  0
  -21.6653  -26.7448   22.1213 H   0  0  0  0  0  0
  -19.6911  -25.6292   21.1257 H   0  0  0  0  0  0
  -19.6688  -27.3198   20.6753 H   0  0  0  0  0  0
  -17.4215  -26.6682   21.4025 H   0  0  0  0  0  0
  -18.0320  -26.0076   22.9036 H   0  0  0  0  0  0
  -19.7940  -30.7293   24.2230 H   0  0  0  0  0  0
  -17.5021  -31.6267   24.5179 H   0  0  0  0  0  0
  -15.5353  -30.2991   23.7665 H   0  0  0  0  0  0
  -15.8680  -28.0829   22.7065 H   0  0  0  0  0  0
  -24.5819  -30.7202   25.7757 H   0  0  0  0  0  0
  -24.9002  -32.2988   26.4860 H   0  0  0  0  0  0
  -25.8020  -30.8913   27.0186 H   0  0  0  0  0  0
  -26.2892  -29.6724   24.1218 H   0  0  0  0  0  0
  -27.3940  -29.7223   25.4744 H   0  0  0  0  0  0
  -27.8799  -30.4190   23.9479 H   0  0  0  0  0  0
  -27.2606  -33.3635   26.2005 H   0  0  0  0  0  0
  -28.3855  -32.6883   25.0307 H   0  0  0  0  0  0
  -28.0679  -31.8484   26.5411 H   0  0  0  0  0  0
  -28.2591  -38.0090   24.7513 H   0  0  0  0  0  0
  -28.1073  -36.2626   24.6284 H   0  0  0  0  0  0
  -27.2310  -37.1436   25.8868 H   0  0  0  0  0  0
  -20.9406  -29.8741   21.6837 H   0  0  0  0  0  0
  -26.0146  -38.2823   24.1416 H   0  0  0  0  0  0
  -27.7227  -18.3153   19.7709 H   0  0  0  0  0  0
  -26.8850  -20.6421   19.9101 H   0  0  0  0  0  0
  -31.5489  -19.6750   21.1176 H   0  0  0  0  0  0
  -27.8585  -24.7485   18.8033 H   0  0  0  0  0  0
  -29.4107  -24.7015   19.5097 H   0  0  0  0  0  0
  -31.8180  -21.8248   21.8246 H   0  0  0  0  0  0
  -30.6201  -22.9970   21.8254 H   0  0  0  0  0  0
  -28.9567  -15.9770   20.7662 H   0  0  0  0  0  0
  1 25  1  0  0  0
  1 30  2  0  0  0
  1 80  1  0  0  0
  2  3  1  0  0  0
  2 25  1  0  0  0
  2 85  1  0  0  0
  2 86  1  0  0  0
  3  4  1  0  0  0
  3 87  1  0  0  0
  3 88  1  0  0  0
  4  5  1  0  0  0
  4 89  1  0  0  0
  4 90  1  0  0  0
  5  6  1  0  0  0
  5 26  1  0  0  0
  5 91  1  0  0  0
  6 25  1  0  0  0
  6 92  1  0  0  0
  6 93  1  0  0  0
  7  8  2  0  0  0
  7 26  1  0  0  0
  7 29  1  0  0  0
  8  9  1  0  0  0
  8 22  1  0  0  0
  9 10  1  0  0  0
  9 27  2  0  0  0
 10 11  2  0  0  0
 10 15  1  0  0  0
 11 12  1  0  0  0
 11 94  1  0  0  0
 12 13  2  0  0  0
 12 95  1  0  0  0
 13 14  1  0  0  0
 13 31  1  0  0  0
 14 15  2  0  0  0
 14 96  1  0  0  0
 15 97  1  0  0  0
 16 17  2  0  0  0
 16 21  1  0  0  0
 16 31  1  0  0  0
 17 18  1  0  0  0
 17 98  1  0  0  0
 18 19  2  0  0  0
 18 99  1  0  0  0
 19 20  1  0  0  0
 19 24  1  0  0  0
 20 21  2  0  0  0
 20100  1  0  0  0
 21 23  1  0  0  0
 22 28  1  0  0  0
 22 32  2  0  0  0
 26 27  1  0  0  0
 28101  1  0  0  0
 28102  1  0  0  0
 29103  1  0  0  0
 29104  1  0  0  0
 33 34  1  0  0  0
 33 66  1  0  0  0
 33 70  2  0  0  0
 34 36  1  0  0  0
 34 59  1  0  0  0
 34105  1  0  0  0
 35 44  2  0  0  0
 35 45  1  0  0  0
 35 68  1  0  0  0
 36 56  1  0  0  0
 36106  1  0  0  0
 37 39  1  0  0  0
 37 47  1  0  0  0
 37 66  1  0  0  0
 37107  1  0  0  0
 38 43  2  0  0  0
 38 46  1  0  0  0
 38 47  1  0  0  0
 39 64  1  0  0  0
 39 67  2  0  0  0
 40 52  1  0  0  0
 40 53  2  0  0  0
 40 58  1  0  0  0
 41108  1  0  0  0
 41109  1  0  0  0
 41110  1  0  0  0
 41 48  1  0  0  0
 42 43  1  0  0  0
 42 66  1  0  0  0
 42111  1  0  0  0
 42112  1  0  0  0
 43 44  1  0  0  0
 44113  1  0  0  0
 45 46  2  0  0  0
 45114  1  0  0  0
 46115  1  0  0  0
 47116  1  0  0  0
 47117  1  0  0  0
 48 56  1  0  0  0
 48 65  1  0  0  0
 48118  1  0  0  0
 49 50  1  0  0  0
 49 53  1  0  0  0
 49 64  1  0  0  0
 49119  1  0  0  0
 50 51  1  0  0  0
 50120  1  0  0  0
 50121  1  0  0  0
 51 52  1  0  0  0
 51122  1  0  0  0
 51123  1  0  0  0
 52124  1  0  0  0
 52125  1  0  0  0
 53 54  1  0  0  0
 54 55  2  0  0  0
 54126  1  0  0  0
 55 57  1  0  0  0
 55127  1  0  0  0
 56 69  2  0  0  0
 57 58  2  0  0  0
 57128  1  0  0  0
 58129  1  0  0  0
 59 60  1  0  0  0
 59 61  1  0  0  0
 59 62  1  0  0  0
 60130  1  0  0  0
 60131  1  0  0  0
 60132  1  0  0  0
 61133  1  0  0  0
 61134  1  0  0  0
 61135  1  0  0  0
 62136  1  0  0  0
 62137  1  0  0  0
 62138  1  0  0  0
 63 65  1  0  0  0
 63139  1  0  0  0
 63140  1  0  0  0
 63141  1  0  0  0
 64142  1  0  0  0
 65143  1  0  0  0
 68 78  1  0  0  0
 71 72  2  0  0  0
 71 74  1  0  0  0
 71144  1  0  0  0
 72 76  1  0  0  0
 72145  1  0  0  0
 73 74  2  0  0  0
 73 75  1  0  0  0
 73146  1  0  0  0
 74 77  1  0  0  0
 75 76  2  0  0  0
 75 79  1  0  0  0
 76 84  1  0  0  0
 77 80  1  0  0  0
 77 81  2  0  0  0
 78147  1  0  0  0
 78148  1  0  0  0
 78 84  1  0  0  0
 79149  1  0  0  0
 79150  1  0  0  0
 80151  1  0  0  0
 82 84  2  0  0  0
 83 84  2  0  0  0
M  ISO  4   1 100  68 101  78 101  80 100
M  END
> <chiral flag>
0

> <version>
0

> <s_m_source_file>
/data/baiqing/PycharmProjects/Reinvent-master-3.2/result/LINK_invent/BTK/process_docking_weight1_custom_product_contain_oxygen_bond_distance_aromatic_linkinvent_7_9_3/rearranged_h_0095.sdf

> <i_m_source_file_index>
11

> <r_mmod_Potential_Energy-OPLS-2005>
272.866912841797

> <r_mmod_Stretch_Energy-OPLS-2005>
163.764846801758

> <r_mmod_Bend_Energy-OPLS-2005>
242.822265625

> <r_mmod_Torsional_Energy-OPLS-2005>
219.613388061523

> <r_mmod_Improper_Torsional_Energy-OPLS-2005>
10.7850799560547

> <r_mmod_Van_der_Waal_Energy-OPLS-2005>
140.407043457031

> <r_mmod_Electrostatic_Energy-OPLS-2005>
-312.299224853516

> <r_mmod_Solvation_Energy-OPLS-2005>
-304.794921875

> <b_mmod_Minimization_Converged-OPLS-2005>
0

> <r_mmod_RMS_Derivative-OPLS-2005>
1.44322776794434

$$$$
11
                    3D
 Structure written by MMmdl.
158167  0  0  1  0            999 V2000
  -30.6217  -14.7218   20.5633 C   0  0  0  0  0  0
  -30.4333  -12.4642   19.4634 C   0  0  0  0  0  0
  -29.5054  -12.5353   18.2291 C   0  0  0  0  0  0
  -28.0331  -12.3461   18.6389 C   0  0  0  0  0  0
  -27.6443  -13.2247   19.8545 C   0  0  2  0  0  0
  -28.6813  -13.1045   20.9872 C   0  0  0  0  0  0
  -25.2527  -13.8185   20.5684 C   0  0  0  0  0  0
  -24.1805  -13.0436   20.9172 C   0  0  0  0  0  0
  -24.6388  -11.6912   20.8720 C   0  0  0  0  0  0
  -23.9068  -10.4296   21.0405 C   0  0  0  0  0  0
  -24.3622   -9.4217   21.9187 C   0  0  0  0  0  0
  -23.6300   -8.2252   22.0760 C   0  0  0  0  0  0
  -22.4283   -8.0284   21.3544 C   0  0  0  0  0  0
  -21.9912   -9.0261   20.4648 C   0  0  0  0  0  0
  -22.7240  -10.2140   20.3057 C   0  0  0  0  0  0
  -21.6863   -6.0734   22.5276 C   0  0  0  0  0  0
  -21.4020   -6.5638   23.8209 C   0  0  0  0  0  0
  -21.3658   -5.6794   24.9173 C   0  0  0  0  0  0
  -21.6050   -4.3057   24.7226 C   0  0  0  0  0  0
  -21.8820   -3.8145   23.4348 C   0  0  0  0  0  0
  -21.9200   -4.6961   22.3403 C   0  0  0  0  0  0
  -22.7837  -13.5232   21.1865 C   0  0  0  0  0  0
  -22.1669   -4.2142   21.0980 F   0  0  0  0  0  0
  -21.5632   -3.4541   25.7741 F   0  0  0  0  0  0
  -29.9926  -13.4936   20.4391 N   0  0  0  0  0  0
  -26.2939  -12.9374   20.3263 N   0  0  0  0  0  0
  -25.9314  -11.6520   20.5715 N   0  0  0  0  0  0
  -22.0501  -12.8205   22.0416 N   0  0  0  0  0  0
  -25.4252  -15.1905   20.4142 N   0  0  0  0  0  0
  -31.7221  -14.8938   20.0265 O   0  0  0  0  0  0
  -21.6654   -6.8875   21.4235 O   0  0  0  0  0  0
  -22.3511  -14.5550   20.6742 O   0  0  0  0  0  0
  -24.6293  -31.8534   23.1952 C   0  0  0  0  0  0
  -25.9130  -32.4734   23.8296 C   0  0  1  0  0  0
  -27.2350  -27.2645   20.1258 C   0  0  0  0  0  0
  -25.5936  -33.8540   24.2230 N   0  0  0  0  0  0
  -23.4250  -30.4725   21.5373 C   0  0  2  0  0  0
  -24.8757  -28.9119   20.1076 C   0  0  0  0  0  0
  -22.7482  -29.4597   22.4911 C   0  0  0  0  0  0
  -18.0289  -28.1396   22.8473 C   0  0  0  0  0  0
  -24.1494  -36.7276   23.2641 C   0  0  0  0  0  0
  -25.9676  -30.7666   21.3737 C   0  0  0  0  0  0
  -26.0422  -29.3873   20.7175 C   0  0  0  0  0  0
  -27.2175  -28.5725   20.7192 C   0  0  0  0  0  0
  -26.0443  -26.8465   19.4933 C   0  0  0  0  0  0
  -24.8821  -27.6499   19.4869 C   0  0  0  0  0  0
  -23.6427  -29.7968   20.1557 C   0  0  0  0  0  0
  -25.4126  -36.3053   24.0314 C   0  0  1  0  0  0
  -20.5887  -28.3702   23.1273 C   0  0  2  0  0  0
  -20.6779  -26.9424   22.5411 C   0  0  0  0  0  0
  -19.5765  -26.6387   21.5205 C   0  0  0  0  0  0
  -18.1940  -26.7936   22.1613 C   0  0  0  0  0  0
  -19.1539  -28.8868   23.2864 C   0  0  0  0  0  0
  -18.9469  -30.1468   23.8882 C   0  0  0  0  0  0
  -17.6472  -30.6595   24.0563 C   0  0  0  0  0  0
  -25.9064  -34.9426   23.5073 C   0  0  0  0  0  0
  -16.5360  -29.9096   23.6336 C   0  0  0  0  0  0
  -16.7279  -28.6516   23.0348 C   0  0  0  0  0  0
  -26.4503  -31.6557   25.0693 C   0  0  0  0  0  0
  -25.3722  -31.3719   26.1414 C   0  0  0  0  0  0
  -27.0353  -30.2967   24.6190 C   0  0  0  0  0  0
  -27.6053  -32.4294   25.7476 C   0  0  0  0  0  0
  -27.5570  -37.1804   24.8469 C   0  0  0  0  0  0
  -21.4193  -29.3042   22.3657 N   0  0  0  0  0  0
  -26.4296  -37.3752   23.9394 N   0  0  0  0  0  0
  -24.6925  -31.0495   22.0920 N   0  0  0  0  0  0
  -23.4186  -28.8152   23.3017 O   0  0  0  0  0  0
  -28.3612  -26.4154   20.2265 O   0  0  0  0  0  0
  -26.5641  -34.8899   22.4643 O   0  0  0  0  0  0
  -23.5448  -32.1367   23.7253 O   0  0  0  0  0  0
  -30.1064  -19.3772   19.8020 C   0  0  0  0  0  0
  -30.4052  -17.9769   20.0163 C   0  0  0  0  0  0
  -28.3850  -19.2689   21.3890 C   0  0  0  0  0  0
  -29.0820  -20.1179   20.4830 C   0  0  0  0  0  0
  -29.6952  -17.1564   20.9481 C   0  0  0  0  0  0
  -28.6483  -17.8784   21.6066 C   0  0  0  0  0  0
  -28.3040  -22.3881   19.2293 C   0  0  0  0  0  0
  -29.2074  -22.6865   21.0395 C   0  0  0  0  0  0
  -28.2165  -23.6251   20.2304 C   0  0  1  0  0  0
  -30.9917  -16.3495   23.5606 C   0  0  0  0  0  0
  -28.5179  -25.0739   19.5663 C   0  0  0  0  0  0
  -30.0441  -15.4313   22.7724 C   0  0  0  0  0  0
  -28.6556  -21.5371   20.2922 N   0  0  0  0  0  0
  -30.0216  -15.7306   21.3194 N   0  0  0  0  0  0
  -28.2084  -22.1853   18.0368 O   0  0  0  0  0  0
  -27.8315  -17.2411   22.4778 F   0  0  0  0  0  0
  -31.4719  -12.6013   19.1593 H   0  0  0  0  0  0
  -30.3899  -11.4719   19.9166 H   0  0  0  0  0  0
  -29.7897  -11.7789   17.4961 H   0  0  0  0  0  0
  -29.6251  -13.5002   17.7341 H   0  0  0  0  0  0
  -27.8897  -11.2926   18.8837 H   0  0  0  0  0  0
  -27.3728  -12.5534   17.7954 H   0  0  0  0  0  0
  -27.6570  -14.2588   19.5097 H   0  0  0  0  0  0
  -28.7179  -12.0845   21.3738 H   0  0  0  0  0  0
  -28.3639  -13.7237   21.8227 H   0  0  0  0  0  0
  -25.2765   -9.5709   22.4758 H   0  0  0  0  0  0
  -24.0016   -7.4654   22.7479 H   0  0  0  0  0  0
  -21.0846   -8.8780   19.8958 H   0  0  0  0  0  0
  -22.3695  -10.9682   19.6169 H   0  0  0  0  0  0
  -21.2008   -7.6150   23.9703 H   0  0  0  0  0  0
  -21.1482   -6.0529   25.9072 H   0  0  0  0  0  0
  -22.0600   -2.7607   23.2853 H   0  0  0  0  0  0
  -22.4130  -11.9838   22.4745 H   0  0  0  0  0  0
  -21.1135  -13.1227   22.2691 H   0  0  0  0  0  0
  -24.6701  -15.8518   20.5560 H   0  0  0  0  0  0
  -26.2983  -15.6335   20.1596 H   0  0  0  0  0  0
  -26.7186  -32.5382   23.1021 H   0  0  0  0  0  0
  -25.0067  -33.9668   25.0366 H   0  0  0  0  0  0
  -22.7213  -31.2940   21.3870 H   0  0  0  0  0  0
  -23.3741  -35.9624   23.3327 H   0  0  0  0  0  0
  -24.3565  -36.8889   22.2049 H   0  0  0  0  0  0
  -23.7274  -37.6489   23.6666 H   0  0  0  0  0  0
  -26.1051  -31.5271   20.6037 H   0  0  0  0  0  0
  -26.8442  -30.8165   22.0083 H   0  0  0  0  0  0
  -28.1085  -28.9313   21.2162 H   0  0  0  0  0  0
  -25.9823  -25.8727   19.0313 H   0  0  0  0  0  0
  -23.9835  -27.2779   19.0135 H   0  0  0  0  0  0
  -23.7625  -30.5683   19.3944 H   0  0  0  0  0  0
  -22.7614  -29.2269   19.8545 H   0  0  0  0  0  0
  -25.1319  -36.1885   25.0807 H   0  0  0  0  0  0
  -20.9972  -28.3287   24.1396 H   0  0  0  0  0  0
  -20.5679  -26.2315   23.3611 H   0  0  0  0  0  0
  -21.6651  -26.7457   22.1208 H   0  0  0  0  0  0
  -19.6935  -25.6293   21.1250 H   0  0  0  0  0  0
  -19.6707  -27.3182   20.6720 H   0  0  0  0  0  0
  -17.4208  -26.6664   21.4018 H   0  0  0  0  0  0
  -18.0359  -26.0083   22.9019 H   0  0  0  0  0  0
  -19.7949  -30.7284   24.2236 H   0  0  0  0  0  0
  -17.5034  -31.6275   24.5176 H   0  0  0  0  0  0
  -15.5364  -30.3000   23.7679 H   0  0  0  0  0  0
  -15.8669  -28.0838   22.7070 H   0  0  0  0  0  0
  -24.5887  -30.7084   25.7738 H   0  0  0  0  0  0
  -24.8931  -32.2899   26.4827 H   0  0  0  0  0  0
  -25.8035  -30.8894   27.0196 H   0  0  0  0  0  0
  -26.2941  -29.6707   24.1210 H   0  0  0  0  0  0
  -27.4024  -29.7243   25.4721 H   0  0  0  0  0  0
  -27.8821  -30.4234   23.9439 H   0  0  0  0  0  0
  -27.2655  -33.3595   26.2040 H   0  0  0  0  0  0
  -28.3878  -32.6853   25.0322 H   0  0  0  0  0  0
  -28.0701  -31.8428   26.5411 H   0  0  0  0  0  0
  -28.2614  -38.0074   24.7465 H   0  0  0  0  0  0
  -28.1039  -36.2600   24.6365 H   0  0  0  0  0  0
  -27.2274  -37.1536   25.8870 H   0  0  0  0  0  0
  -20.9387  -29.8730   21.6822 H   0  0  0  0  0  0
  -26.0168  -38.2826   24.1373 H   0  0  0  0  0  0
  -30.7056  -19.9054   19.0741 H   0  0  0  0  0  0
  -31.2271  -17.5465   19.4620 H   0  0  0  0  0  0
  -27.5647  -19.6988   21.9448 H   0  0  0  0  0  0
  -29.0110  -22.6541   22.1126 H   0  0  0  0  0  0
  -30.2684  -22.8566   20.8334 H   0  0  0  0  0  0
  -27.2450  -23.6473   20.7247 H   0  0  0  0  0  0
  -32.0115  -16.2845   23.1811 H   0  0  0  0  0  0
  -31.0122  -16.0579   24.6118 H   0  0  0  0  0  0
  -30.6856  -17.3949   23.5201 H   0  0  0  0  0  0
  -28.0193  -25.1235   18.5986 H   0  0  0  0  0  0
  -29.5719  -25.0667   19.2887 H   0  0  0  0  0  0
  -30.3561  -14.4030   22.9739 H   0  0  0  0  0  0
  -29.0426  -15.4811   23.1934 H   0  0  0  0  0  0
  1 25  1  0  0  0
  1 30  2  0  0  0
  1 84  1  0  0  0
  2  3  1  0  0  0
  2 25  1  0  0  0
  2 87  1  0  0  0
  2 88  1  0  0  0
  3  4  1  0  0  0
  3 89  1  0  0  0
  3 90  1  0  0  0
  4  5  1  0  0  0
  4 91  1  0  0  0
  4 92  1  0  0  0
  5  6  1  0  0  0
  5 26  1  0  0  0
  5 93  1  0  0  0
  6 25  1  0  0  0
  6 94  1  0  0  0
  6 95  1  0  0  0
  7  8  2  0  0  0
  7 26  1  0  0  0
  7 29  1  0  0  0
  8  9  1  0  0  0
  8 22  1  0  0  0
  9 10  1  0  0  0
  9 27  2  0  0  0
 10 11  2  0  0  0
 10 15  1  0  0  0
 11 12  1  0  0  0
 11 96  1  0  0  0
 12 13  2  0  0  0
 12 97  1  0  0  0
 13 14  1  0  0  0
 13 31  1  0  0  0
 14 15  2  0  0  0
 14 98  1  0  0  0
 15 99  1  0  0  0
 16 17  2  0  0  0
 16 21  1  0  0  0
 16 31  1  0  0  0
 17 18  1  0  0  0
 17100  1  0  0  0
 18 19  2  0  0  0
 18101  1  0  0  0
 19 20  1  0  0  0
 19 24  1  0  0  0
 20 21  2  0  0  0
 20102  1  0  0  0
 21 23  1  0  0  0
 22 28  1  0  0  0
 22 32  2  0  0  0
 26 27  1  0  0  0
 28103  1  0  0  0
 28104  1  0  0  0
 29105  1  0  0  0
 29106  1  0  0  0
 33 34  1  0  0  0
 33 66  1  0  0  0
 33 70  2  0  0  0
 34 36  1  0  0  0
 34 59  1  0  0  0
 34107  1  0  0  0
 35 44  2  0  0  0
 35 45  1  0  0  0
 35 68  1  0  0  0
 36 56  1  0  0  0
 36108  1  0  0  0
 37 39  1  0  0  0
 37 47  1  0  0  0
 37 66  1  0  0  0
 37109  1  0  0  0
 38 43  2  0  0  0
 38 46  1  0  0  0
 38 47  1  0  0  0
 39 64  1  0  0  0
 39 67  2  0  0  0
 40 52  1  0  0  0
 40 53  2  0  0  0
 40 58  1  0  0  0
 41110  1  0  0  0
 41111  1  0  0  0
 41112  1  0  0  0
 41 48  1  0  0  0
 42 43  1  0  0  0
 42 66  1  0  0  0
 42113  1  0  0  0
 42114  1  0  0  0
 43 44  1  0  0  0
 44115  1  0  0  0
 45 46  2  0  0  0
 45116  1  0  0  0
 46117  1  0  0  0
 47118  1  0  0  0
 47119  1  0  0  0
 48 56  1  0  0  0
 48 65  1  0  0  0
 48120  1  0  0  0
 49 50  1  0  0  0
 49 53  1  0  0  0
 49 64  1  0  0  0
 49121  1  0  0  0
 50 51  1  0  0  0
 50122  1  0  0  0
 50123  1  0  0  0
 51 52  1  0  0  0
 51124  1  0  0  0
 51125  1  0  0  0
 52126  1  0  0  0
 52127  1  0  0  0
 53 54  1  0  0  0
 54 55  2  0  0  0
 54128  1  0  0  0
 55 57  1  0  0  0
 55129  1  0  0  0
 56 69  2  0  0  0
 57 58  2  0  0  0
 57130  1  0  0  0
 58131  1  0  0  0
 59 60  1  0  0  0
 59 61  1  0  0  0
 59 62  1  0  0  0
 60132  1  0  0  0
 60133  1  0  0  0
 60134  1  0  0  0
 61135  1  0  0  0
 61136  1  0  0  0
 61137  1  0  0  0
 62138  1  0  0  0
 62139  1  0  0  0
 62140  1  0  0  0
 63 65  1  0  0  0
 63141  1  0  0  0
 63142  1  0  0  0
 63143  1  0  0  0
 64144  1  0  0  0
 65145  1  0  0  0
 68 81  1  0  0  0
 71 72  2  0  0  0
 71 74  1  0  0  0
 71146  1  0  0  0
 72 75  1  0  0  0
 72147  1  0  0  0
 73 74  2  0  0  0
 73 76  1  0  0  0
 73148  1  0  0  0
 74 83  1  0  0  0
 75 76  2  0  0  0
 75 84  1  0  0  0
 76 86  1  0  0  0
 77 79  1  0  0  0
 77 83  1  0  0  0
 77 85  2  0  0  0
 78 79  1  0  0  0
 78 83  1  0  0  0
 78149  1  0  0  0
 78150  1  0  0  0
 79 81  1  0  0  0
 79151  1  0  0  0
 80 82  1  0  0  0
 80152  1  0  0  0
 80153  1  0  0  0
 80154  1  0  0  0
 81155  1  0  0  0
 81156  1  0  0  0
 82 84  1  0  0  0
 82157  1  0  0  0
 82158  1  0  0  0
M  ISO  4   1 100  68 101  81 101  84 100
M  END
> <chiral flag>
0

> <version>
0

> <s_m_source_file>
/data/baiqing/PycharmProjects/Reinvent-master-3.2/result/LINK_invent/BTK/process_docking_weight1_custom_product_contain_oxygen_bond_distance_aromatic_linkinvent_7_9_3/rearranged_h_0095.sdf

> <i_m_source_file_index>
12

> <r_mmod_Potential_Energy-OPLS-2005>
379.669403076172

> <r_mmod_Stretch_Energy-OPLS-2005>
128.737045288086

> <r_mmod_Bend_Energy-OPLS-2005>
232.410522460938

> <r_mmod_Torsional_Energy-OPLS-2005>
311.341766357422

> <r_mmod_Improper_Torsional_Energy-OPLS-2005>
5.59297466278076

> <r_mmod_Van_der_Waal_Energy-OPLS-2005>
141.089065551758

> <r_mmod_Electrostatic_Energy-OPLS-2005>
-317.100219726562

> <r_mmod_Solvation_Energy-OPLS-2005>
-197.888824462891

> <b_mmod_Minimization_Converged-OPLS-2005>
0

> <r_mmod_RMS_Derivative-OPLS-2005>
1.90017259120941

$$$$
12
                    3D
 Structure written by MMmdl.
154162  0  0  1  0            999 V2000
  -30.6711  -14.5277   20.5577 C   0  0  0  0  0  0
  -30.4300  -12.3366   19.4340 C   0  0  0  0  0  0
  -29.5014  -12.5153   18.2139 C   0  0  0  0  0  0
  -28.0230  -12.3638   18.6233 C   0  0  0  0  0  0
  -27.6609  -13.2074   19.8745 C   0  0  2  0  0  0
  -28.7024  -13.0045   20.9990 C   0  0  0  0  0  0
  -25.2589  -13.8156   20.5676 C   0  0  0  0  0  0
  -24.1839  -13.0436   20.9174 C   0  0  0  0  0  0
  -24.6389  -11.6904   20.8728 C   0  0  0  0  0  0
  -23.9056  -10.4292   21.0403 C   0  0  0  0  0  0
  -24.3609   -9.4209   21.9181 C   0  0  0  0  0  0
  -23.6283   -8.2247   22.0756 C   0  0  0  0  0  0
  -22.4265   -8.0283   21.3549 C   0  0  0  0  0  0
  -21.9897   -9.0256   20.4654 C   0  0  0  0  0  0
  -22.7227  -10.2132   20.3056 C   0  0  0  0  0  0
  -21.6853   -6.0731   22.5280 C   0  0  0  0  0  0
  -21.4016   -6.5636   23.8213 C   0  0  0  0  0  0
  -21.3656   -5.6790   24.9176 C   0  0  0  0  0  0
  -21.6045   -4.3053   24.7227 C   0  0  0  0  0  0
  -21.8820   -3.8143   23.4348 C   0  0  0  0  0  0
  -21.9191   -4.6958   22.3403 C   0  0  0  0  0  0
  -22.7865  -13.5242   21.1839 C   0  0  0  0  0  0
  -22.1662   -4.2147   21.0980 F   0  0  0  0  0  0
  -21.5625   -3.4535   25.7738 F   0  0  0  0  0  0
  -30.0328  -13.3252   20.4522 N   0  0  0  0  0  0
  -26.3019  -12.9321   20.3352 N   0  0  0  0  0  0
  -25.9316  -11.6485   20.5750 N   0  0  0  0  0  0
  -22.0495  -12.8250   22.0399 N   0  0  0  0  0  0
  -25.4325  -15.1872   20.4091 N   0  0  0  0  0  0
  -31.7867  -14.7308   20.0680 O   0  0  0  0  0  0
  -21.6637   -6.8875   21.4242 O   0  0  0  0  0  0
  -22.3560  -14.5553   20.6687 O   0  0  0  0  0  0
  -24.6181  -31.8647   23.2076 C   0  0  0  0  0  0
  -25.9057  -32.4809   23.8387 C   0  0  1  0  0  0
  -27.2340  -27.4037   20.1045 C   0  0  0  0  0  0
  -25.5896  -33.8606   24.2316 N   0  0  0  0  0  0
  -23.4093  -30.4866   21.5480 C   0  0  2  0  0  0
  -24.8605  -28.9516   20.1106 C   0  0  0  0  0  0
  -22.7432  -29.4628   22.4963 C   0  0  0  0  0  0
  -18.0268  -28.1372   22.8486 C   0  0  0  0  0  0
  -24.1487  -36.7313   23.2639 C   0  0  0  0  0  0
  -25.9419  -30.8220   21.3669 C   0  0  0  0  0  0
  -26.0224  -29.4550   20.7115 C   0  0  0  0  0  0
  -27.2159  -28.6881   20.7070 C   0  0  0  0  0  0
  -26.0597  -26.9254   19.4919 C   0  0  0  0  0  0
  -24.8757  -27.6877   19.4950 C   0  0  0  0  0  0
  -23.6215  -29.8198   20.1626 C   0  0  0  0  0  0
  -25.4107  -36.3103   24.0335 C   0  0  1  0  0  0
  -20.5861  -28.3660   23.1301 C   0  0  2  0  0  0
  -20.6755  -26.9390   22.5414 C   0  0  0  0  0  0
  -19.5739  -26.6373   21.5205 C   0  0  0  0  0  0
  -18.1915  -26.7916   22.1616 C   0  0  0  0  0  0
  -19.1520  -28.8832   23.2893 C   0  0  0  0  0  0
  -18.9448  -30.1436   23.8908 C   0  0  0  0  0  0
  -17.6453  -30.6583   24.0554 C   0  0  0  0  0  0
  -25.9034  -34.9465   23.5124 C   0  0  0  0  0  0
  -16.5342  -29.9083   23.6325 C   0  0  0  0  0  0
  -16.7258  -28.6496   23.0353 C   0  0  0  0  0  0
  -26.4478  -31.6595   25.0727 C   0  0  0  0  0  0
  -25.3738  -31.3714   26.1476 C   0  0  0  0  0  0
  -27.0310  -30.3027   24.6128 C   0  0  0  0  0  0
  -27.6053  -32.4316   25.7489 C   0  0  0  0  0  0
  -27.5577  -37.1812   24.8463 C   0  0  0  0  0  0
  -21.4151  -29.3027   22.3715 N   0  0  0  0  0  0
  -26.4294  -37.3787   23.9404 N   0  0  0  0  0  0
  -24.6746  -31.0721   22.0990 N   0  0  0  0  0  0
  -23.4189  -28.8155   23.3008 O   0  0  0  0  0  0
  -28.3352  -26.5681   20.1349 O   0  0  0  0  0  0
  -26.5601  -34.8920   22.4690 O   0  0  0  0  0  0
  -23.5363  -32.1402   23.7451 O   0  0  0  0  0  0
  -30.3015  -19.2941   21.2847 C   0  0  0  0  0  0
  -30.4219  -17.9213   21.6423 C   0  0  0  0  0  0
  -29.2170  -18.6433   19.2182 C   0  0  0  0  0  0
  -29.6975  -19.6794   20.0604 C   0  0  0  0  0  0
  -29.9553  -16.8940   20.7835 C   0  0  0  0  0  0
  -29.3399  -17.2783   19.5697 C   0  0  0  0  0  0
  -28.3606  -25.6967   21.2103 C   0  0  0  0  0  0
  -29.6015  -21.1000   19.6040 C   0  0  0  0  0  0
  -28.6616  -24.3656   21.2451 C   0  0  0  0  0  0
  -29.0455  -23.5456   20.0851 C   0  0  0  0  0  0
  -29.9816  -15.5114   21.1757 N   0  0  0  0  0  0
  -29.2282  -22.1326   20.4121 N   0  0  0  0  0  0
  -29.8995  -21.3262   18.3192 N   0  3  0  0  0  0
  -29.2098  -23.9569   18.9303 O   0  0  0  0  0  0
  -28.5993  -23.7373   22.4327 O   0  0  0  0  0  0
  -28.8376  -16.3307   18.7407 F   0  0  0  0  0  0
  -31.4738  -12.4434   19.1342 H   0  0  0  0  0  0
  -30.3408  -11.3268   19.8374 H   0  0  0  0  0  0
  -29.7503  -11.7885   17.4395 H   0  0  0  0  0  0
  -29.6603  -13.5000   17.7713 H   0  0  0  0  0  0
  -27.8419  -11.3071   18.8249 H   0  0  0  0  0  0
  -27.3726  -12.6298   17.7893 H   0  0  0  0  0  0
  -27.6971  -14.2519   19.5688 H   0  0  0  0  0  0
  -28.6892  -11.9693   21.3433 H   0  0  0  0  0  0
  -28.4502  -13.6029   21.8756 H   0  0  0  0  0  0
  -25.2752   -9.5683   22.4757 H   0  0  0  0  0  0
  -23.9992   -7.4637   22.7473 H   0  0  0  0  0  0
  -21.0828   -8.8777   19.8962 H   0  0  0  0  0  0
  -22.3687  -10.9672   19.6166 H   0  0  0  0  0  0
  -21.2015   -7.6145   23.9718 H   0  0  0  0  0  0
  -21.1475   -6.0519   25.9079 H   0  0  0  0  0  0
  -22.0600   -2.7605   23.2853 H   0  0  0  0  0  0
  -22.4081  -11.9898   22.4788 H   0  0  0  0  0  0
  -21.1124  -13.1312   22.2607 H   0  0  0  0  0  0
  -24.6646  -15.8421   20.5100 H   0  0  0  0  0  0
  -26.2784  -15.6194   20.0600 H   0  0  0  0  0  0
  -26.7126  -32.5516   23.1150 H   0  0  0  0  0  0
  -25.0042  -33.9762   25.0457 H   0  0  0  0  0  0
  -22.6992  -31.3042   21.4072 H   0  0  0  0  0  0
  -23.3739  -35.9657   23.3319 H   0  0  0  0  0  0
  -24.3579  -36.8914   22.2050 H   0  0  0  0  0  0
  -23.7256  -37.6528   23.6648 H   0  0  0  0  0  0
  -26.0593  -31.5889   20.6001 H   0  0  0  0  0  0
  -26.8273  -30.8744   21.9887 H   0  0  0  0  0  0
  -28.1106  -29.0641   21.1832 H   0  0  0  0  0  0
  -26.0599  -25.9476   19.0308 H   0  0  0  0  0  0
  -23.9824  -27.2945   19.0288 H   0  0  0  0  0  0
  -23.7301  -30.5957   19.4042 H   0  0  0  0  0  0
  -22.7459  -29.2402   19.8653 H   0  0  0  0  0  0
  -25.1284  -36.1968   25.0829 H   0  0  0  0  0  0
  -20.9949  -28.3229   24.1423 H   0  0  0  0  0  0
  -20.5635  -26.2267   23.3602 H   0  0  0  0  0  0
  -21.6630  -26.7416   22.1223 H   0  0  0  0  0  0
  -19.6901  -25.6284   21.1230 H   0  0  0  0  0  0
  -19.6682  -27.3185   20.6734 H   0  0  0  0  0  0
  -17.4181  -26.6653   21.4022 H   0  0  0  0  0  0
  -18.0323  -26.0058   22.9013 H   0  0  0  0  0  0
  -19.7928  -30.7240   24.2289 H   0  0  0  0  0  0
  -17.5012  -31.6266   24.5148 H   0  0  0  0  0  0
  -15.5347  -30.2990   23.7645 H   0  0  0  0  0  0
  -15.8651  -28.0814   22.7080 H   0  0  0  0  0  0
  -24.5893  -30.7085   25.7813 H   0  0  0  0  0  0
  -24.8955  -32.2876   26.4942 H   0  0  0  0  0  0
  -25.8081  -30.8861   27.0223 H   0  0  0  0  0  0
  -26.2862  -29.6790   24.1171 H   0  0  0  0  0  0
  -27.4051  -29.7268   25.4604 H   0  0  0  0  0  0
  -27.8711  -30.4335   23.9305 H   0  0  0  0  0  0
  -27.2673  -33.3605   26.2095 H   0  0  0  0  0  0
  -28.3847  -32.6895   25.0305 H   0  0  0  0  0  0
  -28.0741  -31.8425   26.5383 H   0  0  0  0  0  0
  -28.2606  -38.0097   24.7494 H   0  0  0  0  0  0
  -28.1062  -36.2629   24.6306 H   0  0  0  0  0  0
  -27.2293  -37.1485   25.8865 H   0  0  0  0  0  0
  -20.9307  -29.8780   21.6964 H   0  0  0  0  0  0
  -26.0183  -38.2867   24.1398 H   0  0  0  0  0  0
  -30.6955  -20.0462   21.9550 H   0  0  0  0  0  0
  -30.8782  -17.6597   22.5866 H   0  0  0  0  0  0
  -28.7363  -18.8849   18.2814 H   0  0  0  0  0  0
  -28.0865  -26.2215   22.1165 H   0  0  0  0  0  0
  -29.1431  -15.1908   21.6334 H   0  0  0  0  0  0
  -29.0562  -21.8476   21.3644 H   0  0  0  0  0  0
  -30.2585  -20.5888   17.7342 H   0  0  0  0  0  0
  -29.8219  -22.2681   17.9567 H   0  0  0  0  0  0
  -28.3394  -24.3774   23.0826 H   0  0  0  0  0  0
  1 25  1  0  0  0
  1 30  2  0  0  0
  1 81  1  0  0  0
  2  3  1  0  0  0
  2 25  1  0  0  0
  2 87  1  0  0  0
  2 88  1  0  0  0
  3  4  1  0  0  0
  3 89  1  0  0  0
  3 90  1  0  0  0
  4  5  1  0  0  0
  4 91  1  0  0  0
  4 92  1  0  0  0
  5  6  1  0  0  0
  5 26  1  0  0  0
  5 93  1  0  0  0
  6 25  1  0  0  0
  6 94  1  0  0  0
  6 95  1  0  0  0
  7  8  2  0  0  0
  7 26  1  0  0  0
  7 29  1  0  0  0
  8  9  1  0  0  0
  8 22  1  0  0  0
  9 10  1  0  0  0
  9 27  2  0  0  0
 10 11  2  0  0  0
 10 15  1  0  0  0
 11 12  1  0  0  0
 11 96  1  0  0  0
 12 13  2  0  0  0
 12 97  1  0  0  0
 13 14  1  0  0  0
 13 31  1  0  0  0
 14 15  2  0  0  0
 14 98  1  0  0  0
 15 99  1  0  0  0
 16 17  2  0  0  0
 16 21  1  0  0  0
 16 31  1  0  0  0
 17 18  1  0  0  0
 17100  1  0  0  0
 18 19  2  0  0  0
 18101  1  0  0  0
 19 20  1  0  0  0
 19 24  1  0  0  0
 20 21  2  0  0  0
 20102  1  0  0  0
 21 23  1  0  0  0
 22 28  1  0  0  0
 22 32  2  0  0  0
 26 27  1  0  0  0
 28103  1  0  0  0
 28104  1  0  0  0
 29105  1  0  0  0
 29106  1  0  0  0
 33 34  1  0  0  0
 33 66  1  0  0  0
 33 70  2  0  0  0
 34 36  1  0  0  0
 34 59  1  0  0  0
 34107  1  0  0  0
 35 44  2  0  0  0
 35 45  1  0  0  0
 35 68  1  0  0  0
 36 56  1  0  0  0
 36108  1  0  0  0
 37 39  1  0  0  0
 37 47  1  0  0  0
 37 66  1  0  0  0
 37109  1  0  0  0
 38 43  2  0  0  0
 38 46  1  0  0  0
 38 47  1  0  0  0
 39 64  1  0  0  0
 39 67  2  0  0  0
 40 52  1  0  0  0
 40 53  2  0  0  0
 40 58  1  0  0  0
 41110  1  0  0  0
 41111  1  0  0  0
 41112  1  0  0  0
 41 48  1  0  0  0
 42 43  1  0  0  0
 42 66  1  0  0  0
 42113  1  0  0  0
 42114  1  0  0  0
 43 44  1  0  0  0
 44115  1  0  0  0
 45 46  2  0  0  0
 45116  1  0  0  0
 46117  1  0  0  0
 47118  1  0  0  0
 47119  1  0  0  0
 48 56  1  0  0  0
 48 65  1  0  0  0
 48120  1  0  0  0
 49 50  1  0  0  0
 49 53  1  0  0  0
 49 64  1  0  0  0
 49121  1  0  0  0
 50 51  1  0  0  0
 50122  1  0  0  0
 50123  1  0  0  0
 51 52  1  0  0  0
 51124  1  0  0  0
 51125  1  0  0  0
 52126  1  0  0  0
 52127  1  0  0  0
 53 54  1  0  0  0
 54 55  2  0  0  0
 54128  1  0  0  0
 55 57  1  0  0  0
 55129  1  0  0  0
 56 69  2  0  0  0
 57 58  2  0  0  0
 57130  1  0  0  0
 58131  1  0  0  0
 59 60  1  0  0  0
 59 61  1  0  0  0
 59 62  1  0  0  0
 60132  1  0  0  0
 60133  1  0  0  0
 60134  1  0  0  0
 61135  1  0  0  0
 61136  1  0  0  0
 61137  1  0  0  0
 62138  1  0  0  0
 62139  1  0  0  0
 62140  1  0  0  0
 63 65  1  0  0  0
 63141  1  0  0  0
 63142  1  0  0  0
 63143  1  0  0  0
 64144  1  0  0  0
 65145  1  0  0  0
 68 77  1  0  0  0
 71 72  2  0  0  0
 71 74  1  0  0  0
 71146  1  0  0  0
 72 75  1  0  0  0
 72147  1  0  0  0
 73 74  2  0  0  0
 73 76  1  0  0  0
 73148  1  0  0  0
 74 78  1  0  0  0
 75 76  2  0  0  0
 75 81  1  0  0  0
 76 86  1  0  0  0
 77 79  2  0  0  0
 77149  1  0  0  0
 78 82  1  0  0  0
 78 83  2  0  0  0
 79 80  1  0  0  0
 79 85  1  0  0  0
 80 82  1  0  0  0
 80 84  2  0  0  0
 81150  1  0  0  0
 82151  1  0  0  0
 83152  1  0  0  0
 83153  1  0  0  0
 85154  1  0  0  0
M  CHG  1  83   1
M  ISO  4   1 100  68 101  77 101  81 100
M  END
> <chiral flag>
0

> <version>
0

> <s_m_source_file>
/data/baiqing/PycharmProjects/Reinvent-master-3.2/result/LINK_invent/BTK/process_docking_weight1_custom_product_contain_oxygen_bond_distance_aromatic_linkinvent_7_9_3/rearranged_h_0095.sdf

> <i_m_source_file_index>
13

> <r_mmod_Potential_Energy-OPLS-2005>
-396.089202880859

> <r_mmod_Stretch_Energy-OPLS-2005>
47.8683090209961

> <r_mmod_Bend_Energy-OPLS-2005>
118.215644836426

> <r_mmod_Torsional_Energy-OPLS-2005>
242.293853759766

> <r_mmod_Improper_Torsional_Energy-OPLS-2005>
5.00553798675537

> <r_mmod_Van_der_Waal_Energy-OPLS-2005>
156.54963684082

> <r_mmod_Electrostatic_Energy-OPLS-2005>
-543.996459960938

> <r_mmod_Solvation_Energy-OPLS-2005>
-443.335052490234

> <b_mmod_Minimization_Converged-OPLS-2005>
0

> <r_mmod_RMS_Derivative-OPLS-2005>
0.811362564563751

$$$$
13
                    3D
 Structure written by MMmdl.
155163  0  0  1  0            999 V2000
  -30.7577  -14.4535   20.5893 C   0  0  0  0  0  0
  -30.4045  -12.3144   19.4047 C   0  0  0  0  0  0
  -29.4791  -12.4895   18.1891 C   0  0  0  0  0  0
  -28.0058  -12.3446   18.6159 C   0  0  0  0  0  0
  -27.6487  -13.2130   19.8540 C   0  0  2  0  0  0
  -28.6981  -13.0425   20.9749 C   0  0  0  0  0  0
  -25.2527  -13.8186   20.5666 C   0  0  0  0  0  0
  -24.1792  -13.0450   20.9177 C   0  0  0  0  0  0
  -24.6358  -11.6919   20.8724 C   0  0  0  0  0  0
  -23.9027  -10.4300   21.0382 C   0  0  0  0  0  0
  -24.3588   -9.4217   21.9156 C   0  0  0  0  0  0
  -23.6270   -8.2250   22.0743 C   0  0  0  0  0  0
  -22.4247   -8.0276   21.3548 C   0  0  0  0  0  0
  -21.9884   -9.0244   20.4656 C   0  0  0  0  0  0
  -22.7202  -10.2124   20.3049 C   0  0  0  0  0  0
  -21.6857   -6.0716   22.5267 C   0  0  0  0  0  0
  -21.4027   -6.5620   23.8203 C   0  0  0  0  0  0
  -21.3667   -5.6774   24.9169 C   0  0  0  0  0  0
  -21.6039   -4.3036   24.7231 C   0  0  0  0  0  0
  -21.8821   -3.8134   23.4353 C   0  0  0  0  0  0
  -21.9195   -4.6946   22.3401 C   0  0  0  0  0  0
  -22.7818  -13.5251   21.1835 C   0  0  0  0  0  0
  -22.1650   -4.2120   21.0985 F   0  0  0  0  0  0
  -21.5633   -3.4521   25.7756 F   0  0  0  0  0  0
  -30.0168  -13.3300   20.3955 N   0  0  0  0  0  0
  -26.2947  -12.9363   20.3284 N   0  0  0  0  0  0
  -25.9284  -11.6521   20.5729 N   0  0  0  0  0  0
  -22.0451  -12.8276   22.0406 N   0  0  0  0  0  0
  -25.4248  -15.1905   20.4070 N   0  0  0  0  0  0
  -31.9209  -14.5407   20.1874 O   0  0  0  0  0  0
  -21.6641   -6.8851   21.4226 O   0  0  0  0  0  0
  -22.3510  -14.5530   20.6642 O   0  0  0  0  0  0
  -24.6179  -31.8665   23.2117 C   0  0  0  0  0  0
  -25.9075  -32.4805   23.8394 C   0  0  1  0  0  0
  -27.2363  -27.4194   20.0877 C   0  0  0  0  0  0
  -25.5925  -33.8605   24.2340 N   0  0  0  0  0  0
  -23.4048  -30.4907   21.5547 C   0  0  2  0  0  0
  -24.8503  -28.9573   20.1169 C   0  0  0  0  0  0
  -22.7436  -29.4638   22.5026 C   0  0  0  0  0  0
  -18.0276  -28.1389   22.8520 C   0  0  0  0  0  0
  -24.1477  -36.7293   23.2643 C   0  0  0  0  0  0
  -25.9366  -30.8253   21.3699 C   0  0  0  0  0  0
  -26.0126  -29.4609   20.7121 C   0  0  0  0  0  0
  -27.2075  -28.6996   20.6945 C   0  0  0  0  0  0
  -26.0490  -26.9387   19.4833 C   0  0  0  0  0  0
  -24.8656  -27.6963   19.5006 C   0  0  0  0  0  0
  -23.6148  -29.8278   20.1688 C   0  0  0  0  0  0
  -25.4101  -36.3097   24.0343 C   0  0  1  0  0  0
  -20.5876  -28.3659   23.1355 C   0  0  2  0  0  0
  -20.6780  -26.9402   22.5443 C   0  0  0  0  0  0
  -19.5741  -26.6392   21.5261 C   0  0  0  0  0  0
  -18.1913  -26.7935   22.1661 C   0  0  0  0  0  0
  -19.1531  -28.8852   23.2920 C   0  0  0  0  0  0
  -18.9451  -30.1474   23.8904 C   0  0  0  0  0  0
  -17.6449  -30.6595   24.0579 C   0  0  0  0  0  0
  -25.9040  -34.9464   23.5143 C   0  0  0  0  0  0
  -16.5343  -29.9090   23.6344 C   0  0  0  0  0  0
  -16.7265  -28.6515   23.0353 C   0  0  0  0  0  0
  -26.4497  -31.6579   25.0719 C   0  0  0  0  0  0
  -25.3779  -31.3706   26.1493 C   0  0  0  0  0  0
  -27.0337  -30.3013   24.6119 C   0  0  0  0  0  0
  -27.6066  -32.4311   25.7479 C   0  0  0  0  0  0
  -27.5571  -37.1807   24.8479 C   0  0  0  0  0  0
  -21.4168  -29.3002   22.3748 N   0  0  0  0  0  0
  -26.4281  -37.3789   23.9426 N   0  0  0  0  0  0
  -24.6704  -31.0757   22.1028 N   0  0  0  0  0  0
  -23.4211  -28.8192   23.3069 O   0  0  0  0  0  0
  -28.4056  -26.6762   20.1060 O   0  0  0  0  0  0
  -26.5585  -34.8924   22.4689 O   0  0  0  0  0  0
  -23.5374  -32.1425   23.7510 O   0  0  0  0  0  0
  -31.0946  -18.5403   20.1780 C   0  0  0  0  0  0
  -31.0989  -19.9360   19.9669 C   0  0  0  0  0  0
  -30.4029  -17.9803   21.2743 C   0  0  0  0  0  0
  -30.4017  -20.8058   20.8348 C   0  0  0  0  0  0
  -29.6136  -20.2324   21.8695 C   0  0  0  0  0  0
  -29.6251  -18.8302   22.0912 C   0  0  0  0  0  0
  -30.7157  -16.5643   21.6789 C   0  0  0  0  0  0
  -29.5962  -24.5043   20.1694 C   0  0  0  0  0  0
  -30.6577  -22.3201   20.7065 C   0  0  0  0  0  0
  -28.3037  -25.2662   19.8111 C   0  0  0  0  0  0
  -28.8571  -21.0279   22.7308 N   0  0  0  0  0  0
  -30.1074  -15.5477   21.0356 N   0  0  0  0  0  0
  -29.5078  -23.1771   20.3950 N   0  0  0  0  0  0
  -31.5874  -16.3860   22.5381 O   0  0  0  0  0  0
  -30.6726  -25.1054   20.2304 O   0  0  0  0  0  0
  -28.9243  -18.3232   23.1372 F   0  0  0  0  0  0
  -31.4460  -12.3946   19.0927 H   0  0  0  0  0  0
  -30.2986  -11.3146   19.8267 H   0  0  0  0  0  0
  -29.7211  -11.7506   17.4229 H   0  0  0  0  0  0
  -29.6425  -13.4694   17.7356 H   0  0  0  0  0  0
  -27.8355  -11.2907   18.8445 H   0  0  0  0  0  0
  -27.3470  -12.5814   17.7804 H   0  0  0  0  0  0
  -27.6805  -14.2529   19.5265 H   0  0  0  0  0  0
  -28.6787  -12.0230   21.3643 H   0  0  0  0  0  0
  -28.4682  -13.6907   21.8217 H   0  0  0  0  0  0
  -25.2732   -9.5704   22.4732 H   0  0  0  0  0  0
  -23.9985   -7.4653   22.7479 H   0  0  0  0  0  0
  -21.0810   -8.8770   19.8973 H   0  0  0  0  0  0
  -22.3653  -10.9654   19.6171 H   0  0  0  0  0  0
  -21.2012   -7.6128   23.9703 H   0  0  0  0  0  0
  -21.1482   -6.0502   25.9065 H   0  0  0  0  0  0
  -22.0591   -2.7594   23.2868 H   0  0  0  0  0  0
  -22.4070  -11.9967   22.4868 H   0  0  0  0  0  0
  -21.1068  -13.1320   22.2587 H   0  0  0  0  0  0
  -24.6563  -15.8443   20.5116 H   0  0  0  0  0  0
  -26.2731  -15.6294   20.0734 H   0  0  0  0  0  0
  -26.7143  -32.5515   23.1155 H   0  0  0  0  0  0
  -25.0104  -33.9752   25.0509 H   0  0  0  0  0  0
  -22.6904  -31.3055   21.4192 H   0  0  0  0  0  0
  -23.3730  -35.9635   23.3331 H   0  0  0  0  0  0
  -24.3559  -36.8876   22.2049 H   0  0  0  0  0  0
  -23.7235  -37.6513   23.6630 H   0  0  0  0  0  0
  -26.0620  -31.5940   20.6060 H   0  0  0  0  0  0
  -26.8204  -30.8704   21.9951 H   0  0  0  0  0  0
  -28.1058  -29.0865   21.1572 H   0  0  0  0  0  0
  -26.0117  -25.9799   18.9864 H   0  0  0  0  0  0
  -23.9704  -27.3059   19.0354 H   0  0  0  0  0  0
  -23.7320  -30.6062   19.4143 H   0  0  0  0  0  0
  -22.7364  -29.2556   19.8669 H   0  0  0  0  0  0
  -25.1273  -36.1951   25.0830 H   0  0  0  0  0  0
  -20.9965  -28.3228   24.1482 H   0  0  0  0  0  0
  -20.5773  -26.2248   23.3608 H   0  0  0  0  0  0
  -21.6623  -26.7487   22.1170 H   0  0  0  0  0  0
  -19.6886  -25.6317   21.1246 H   0  0  0  0  0  0
  -19.6673  -27.3243   20.6825 H   0  0  0  0  0  0
  -17.4194  -26.6729   21.4040 H   0  0  0  0  0  0
  -18.0270  -26.0069   22.9050 H   0  0  0  0  0  0
  -19.7927  -30.7309   24.2243 H   0  0  0  0  0  0
  -17.4999  -31.6276   24.5180 H   0  0  0  0  0  0
  -15.5345  -30.2993   23.7662 H   0  0  0  0  0  0
  -15.8669  -28.0849   22.7040 H   0  0  0  0  0  0
  -24.5909  -30.7088   25.7859 H   0  0  0  0  0  0
  -24.9022  -32.2874   26.4983 H   0  0  0  0  0  0
  -25.8145  -30.8844   27.0229 H   0  0  0  0  0  0
  -26.2886  -29.6763   24.1183 H   0  0  0  0  0  0
  -27.4119  -29.7264   25.4583 H   0  0  0  0  0  0
  -27.8719  -30.4327   23.9272 H   0  0  0  0  0  0
  -27.2656  -33.3586   26.2091 H   0  0  0  0  0  0
  -28.3840  -32.6921   25.0288 H   0  0  0  0  0  0
  -28.0773  -31.8426   26.5365 H   0  0  0  0  0  0
  -28.2619  -38.0083   24.7494 H   0  0  0  0  0  0
  -28.1034  -36.2605   24.6326 H   0  0  0  0  0  0
  -27.2288  -37.1494   25.8889 H   0  0  0  0  0  0
  -20.9352  -29.8653   21.6897 H   0  0  0  0  0  0
  -26.0165  -38.2870   24.1418 H   0  0  0  0  0  0
  -31.7152  -17.9138   19.5511 H   0  0  0  0  0  0
  -31.7106  -20.3397   19.1705 H   0  0  0  0  0  0
  -31.4276  -22.4844   19.9489 H   0  0  0  0  0  0
  -31.0976  -22.6604   21.6460 H   0  0  0  0  0  0
  -27.4826  -24.8157   20.3687 H   0  0  0  0  0  0
  -28.1123  -25.1238   18.7467 H   0  0  0  0  0  0
  -29.1519  -21.9811   22.9006 H   0  0  0  0  0  0
  -28.5046  -20.5671   23.5641 H   0  0  0  0  0  0
  -29.1486  -15.6673   20.7587 H   0  0  0  0  0  0
  -28.5955  -22.7403   20.3804 H   0  0  0  0  0  0
  1 25  1  0  0  0
  1 30  2  0  0  0
  1 82  1  0  0  0
  2  3  1  0  0  0
  2 25  1  0  0  0
  2 87  1  0  0  0
  2 88  1  0  0  0
  3  4  1  0  0  0
  3 89  1  0  0  0
  3 90  1  0  0  0
  4  5  1  0  0  0
  4 91  1  0  0  0
  4 92  1  0  0  0
  5  6  1  0  0  0
  5 26  1  0  0  0
  5 93  1  0  0  0
  6 25  1  0  0  0
  6 94  1  0  0  0
  6 95  1  0  0  0
  7  8  2  0  0  0
  7 26  1  0  0  0
  7 29  1  0  0  0
  8  9  1  0  0  0
  8 22  1  0  0  0
  9 10  1  0  0  0
  9 27  2  0  0  0
 10 11  2  0  0  0
 10 15  1  0  0  0
 11 12  1  0  0  0
 11 96  1  0  0  0
 12 13  2  0  0  0
 12 97  1  0  0  0
 13 14  1  0  0  0
 13 31  1  0  0  0
 14 15  2  0  0  0
 14 98  1  0  0  0
 15 99  1  0  0  0
 16 17  2  0  0  0
 16 21  1  0  0  0
 16 31  1  0  0  0
 17 18  1  0  0  0
 17100  1  0  0  0
 18 19  2  0  0  0
 18101  1  0  0  0
 19 20  1  0  0  0
 19 24  1  0  0  0
 20 21  2  0  0  0
 20102  1  0  0  0
 21 23  1  0  0  0
 22 28  1  0  0  0
 22 32  2  0  0  0
 26 27  1  0  0  0
 28103  1  0  0  0
 28104  1  0  0  0
 29105  1  0  0  0
 29106  1  0  0  0
 33 34  1  0  0  0
 33 66  1  0  0  0
 33 70  2  0  0  0
 34 36  1  0  0  0
 34 59  1  0  0  0
 34107  1  0  0  0
 35 44  2  0  0  0
 35 45  1  0  0  0
 35 68  1  0  0  0
 36 56  1  0  0  0
 36108  1  0  0  0
 37 39  1  0  0  0
 37 47  1  0  0  0
 37 66  1  0  0  0
 37109  1  0  0  0
 38 43  2  0  0  0
 38 46  1  0  0  0
 38 47  1  0  0  0
 39 64  1  0  0  0
 39 67  2  0  0  0
 40 52  1  0  0  0
 40 53  2  0  0  0
 40 58  1  0  0  0
 41110  1  0  0  0
 41111  1  0  0  0
 41112  1  0  0  0
 41 48  1  0  0  0
 42 43  1  0  0  0
 42 66  1  0  0  0
 42113  1  0  0  0
 42114  1  0  0  0
 43 44  1  0  0  0
 44115  1  0  0  0
 45 46  2  0  0  0
 45116  1  0  0  0
 46117  1  0  0  0
 47118  1  0  0  0
 47119  1  0  0  0
 48 56  1  0  0  0
 48 65  1  0  0  0
 48120  1  0  0  0
 49 50  1  0  0  0
 49 53  1  0  0  0
 49 64  1  0  0  0
 49121  1  0  0  0
 50 51  1  0  0  0
 50122  1  0  0  0
 50123  1  0  0  0
 51 52  1  0  0  0
 51124  1  0  0  0
 51125  1  0  0  0
 52126  1  0  0  0
 52127  1  0  0  0
 53 54  1  0  0  0
 54 55  2  0  0  0
 54128  1  0  0  0
 55 57  1  0  0  0
 55129  1  0  0  0
 56 69  2  0  0  0
 57 58  2  0  0  0
 57130  1  0  0  0
 58131  1  0  0  0
 59 60  1  0  0  0
 59 61  1  0  0  0
 59 62  1  0  0  0
 60132  1  0  0  0
 60133  1  0  0  0
 60134  1  0  0  0
 61135  1  0  0  0
 61136  1  0  0  0
 61137  1  0  0  0
 62138  1  0  0  0
 62139  1  0  0  0
 62140  1  0  0  0
 63 65  1  0  0  0
 63141  1  0  0  0
 63142  1  0  0  0
 63143  1  0  0  0
 64144  1  0  0  0
 65145  1  0  0  0
 68 80  1  0  0  0
 71 72  2  0  0  0
 71 73  1  0  0  0
 71146  1  0  0  0
 72 74  1  0  0  0
 72147  1  0  0  0
 73 76  2  0  0  0
 73 77  1  0  0  0
 74 75  2  0  0  0
 74 79  1  0  0  0
 75 76  1  0  0  0
 75 81  1  0  0  0
 76 86  1  0  0  0
 77 82  1  0  0  0
 77 84  2  0  0  0
 78 80  1  0  0  0
 78 83  1  0  0  0
 78 85  2  0  0  0
 79 83  1  0  0  0
 79148  1  0  0  0
 79149  1  0  0  0
 80150  1  0  0  0
 80151  1  0  0  0
 81152  1  0  0  0
 81153  1  0  0  0
 82154  1  0  0  0
 83155  1  0  0  0
M  ISO  4   1 100  68 101  80 101  82 100
M  END
> <chiral flag>
0

> <version>
0

> <s_m_source_file>
/data/baiqing/PycharmProjects/Reinvent-master-3.2/result/LINK_invent/BTK/process_docking_weight1_custom_product_contain_oxygen_bond_distance_aromatic_linkinvent_7_9_3/rearranged_h_0095.sdf

> <i_m_source_file_index>
14

> <r_mmod_Potential_Energy-OPLS-2005>
-103.311477661133

> <r_mmod_Stretch_Energy-OPLS-2005>
38.5909233093262

> <r_mmod_Bend_Energy-OPLS-2005>
98.6709899902344

> <r_mmod_Torsional_Energy-OPLS-2005>
297.736083984375

> <r_mmod_Improper_Torsional_Energy-OPLS-2005>
10.8556823730469

> <r_mmod_Van_der_Waal_Energy-OPLS-2005>
160.867431640625

> <r_mmod_Electrostatic_Energy-OPLS-2005>
-475.872772216797

> <r_mmod_Solvation_Energy-OPLS-2005>
-254.211029052734

> <b_mmod_Minimization_Converged-OPLS-2005>
0

> <r_mmod_RMS_Derivative-OPLS-2005>
3.06933236122131

$$$$
14
                    3D
 Structure written by MMmdl.
157165  0  0  1  0            999 V2000
  -30.7168  -14.4811   20.5491 C   0  0  0  0  0  0
  -30.4175  -12.3129   19.4170 C   0  0  0  0  0  0
  -29.4913  -12.5007   18.1995 C   0  0  0  0  0  0
  -28.0133  -12.3646   18.6162 C   0  0  0  0  0  0
  -27.6577  -13.2101   19.8690 C   0  0  2  0  0  0
  -28.7038  -13.0131   20.9890 C   0  0  0  0  0  0
  -25.2561  -13.8094   20.5749 C   0  0  0  0  0  0
  -24.1818  -13.0381   20.9210 C   0  0  0  0  0  0
  -24.6391  -11.6861   20.8739 C   0  0  0  0  0  0
  -23.9068  -10.4261   21.0408 C   0  0  0  0  0  0
  -24.3621   -9.4180   21.9194 C   0  0  0  0  0  0
  -23.6293   -8.2218   22.0754 C   0  0  0  0  0  0
  -22.4277   -8.0275   21.3540 C   0  0  0  0  0  0
  -21.9915   -9.0245   20.4638 C   0  0  0  0  0  0
  -22.7245  -10.2118   20.3050 C   0  0  0  0  0  0
  -21.6849   -6.0735   22.5268 C   0  0  0  0  0  0
  -21.4017   -6.5636   23.8210 C   0  0  0  0  0  0
  -21.3655   -5.6786   24.9167 C   0  0  0  0  0  0
  -21.6047   -4.3050   24.7217 C   0  0  0  0  0  0
  -21.8816   -3.8145   23.4339 C   0  0  0  0  0  0
  -21.9198   -4.6962   22.3396 C   0  0  0  0  0  0
  -22.7846  -13.5191   21.1867 C   0  0  0  0  0  0
  -22.1665   -4.2148   21.0972 F   0  0  0  0  0  0
  -21.5630   -3.4537   25.7733 F   0  0  0  0  0  0
  -30.0313  -13.3128   20.4258 N   0  0  0  0  0  0
  -26.3010  -12.9305   20.3351 N   0  0  0  0  0  0
  -25.9323  -11.6461   20.5749 N   0  0  0  0  0  0
  -22.0475  -12.8190   22.0411 N   0  0  0  0  0  0
  -25.4203  -15.1811   20.4286 N   0  0  0  0  0  0
  -31.8553  -14.6297   20.0983 O   0  0  0  0  0  0
  -21.6629   -6.8878   21.4239 O   0  0  0  0  0  0
  -22.3546  -14.5509   20.6715 O   0  0  0  0  0  0
  -24.6161  -31.8670   23.2112 C   0  0  0  0  0  0
  -25.9054  -32.4817   23.8394 C   0  0  1  0  0  0
  -27.2256  -27.4130   20.0962 C   0  0  0  0  0  0
  -25.5917  -33.8622   24.2314 N   0  0  0  0  0  0
  -23.4032  -30.4936   21.5529 C   0  0  2  0  0  0
  -24.8476  -28.9658   20.1102 C   0  0  0  0  0  0
  -22.7407  -29.4653   22.4982 C   0  0  0  0  0  0
  -18.0277  -28.1351   22.8458 C   0  0  0  0  0  0
  -24.1493  -36.7322   23.2634 C   0  0  0  0  0  0
  -25.9377  -30.8268   21.3670 C   0  0  0  0  0  0
  -26.0125  -29.4623   20.7092 C   0  0  0  0  0  0
  -27.2039  -28.6942   20.6977 C   0  0  0  0  0  0
  -26.0408  -26.9513   19.4697 C   0  0  0  0  0  0
  -24.8578  -27.7096   19.4864 C   0  0  0  0  0  0
  -23.6103  -29.8328   20.1657 C   0  0  0  0  0  0
  -25.4115  -36.3109   24.0324 C   0  0  1  0  0  0
  -20.5863  -28.3632   23.1304 C   0  0  2  0  0  0
  -20.6760  -26.9366   22.5377 C   0  0  0  0  0  0
  -19.5754  -26.6388   21.5152 C   0  0  0  0  0  0
  -18.1918  -26.7916   22.1544 C   0  0  0  0  0  0
  -19.1528  -28.8804   23.2892 C   0  0  0  0  0  0
  -18.9461  -30.1391   23.8936 C   0  0  0  0  0  0
  -17.6456  -30.6525   24.0584 C   0  0  0  0  0  0
  -25.9044  -34.9478   23.5114 C   0  0  0  0  0  0
  -16.5356  -29.9045   23.6316 C   0  0  0  0  0  0
  -16.7274  -28.6475   23.0288 C   0  0  0  0  0  0
  -26.4475  -31.6604   25.0728 C   0  0  0  0  0  0
  -25.3754  -31.3706   26.1481 C   0  0  0  0  0  0
  -27.0286  -30.3039   24.6109 C   0  0  0  0  0  0
  -27.6032  -32.4334   25.7506 C   0  0  0  0  0  0
  -27.5578  -37.1816   24.8462 C   0  0  0  0  0  0
  -21.4128  -29.3025   22.3725 N   0  0  0  0  0  0
  -26.4301  -37.3791   23.9397 N   0  0  0  0  0  0
  -24.6708  -31.0771   22.1017 N   0  0  0  0  0  0
  -23.4191  -28.8183   23.3006 O   0  0  0  0  0  0
  -28.3723  -26.6307   20.1471 O   0  0  0  0  0  0
  -26.5602  -34.8923   22.4672 O   0  0  0  0  0  0
  -23.5354  -32.1434   23.7515 O   0  0  0  0  0  0
  -28.3820  -17.7327   20.0400 C   0  0  0  0  0  0
  -27.9038  -20.1137   19.7946 C   0  0  0  0  0  0
  -29.9862  -19.3885   20.8337 C   0  0  0  0  0  0
  -27.5327  -18.7703   19.6013 C   0  0  0  0  0  0
  -29.6098  -18.0277   20.6760 C   0  0  0  0  0  0
  -29.1370  -20.4409   20.4049 C   0  0  0  0  0  0
  -28.7689  -22.8482   20.8845 C   0  0  0  0  0  0
  -26.2191  -18.4548   18.9118 C   0  0  0  0  0  0
  -30.5448  -16.9103   21.1691 C   0  0  0  0  0  0
  -29.2706  -24.2957   20.6509 C   0  0  0  0  0  0
  -28.1650  -25.2026   20.0414 C   0  0  0  0  0  0
  -29.5457  -21.8096   20.5064 N   0  0  0  0  0  0
  -30.0367  -15.5265   21.0571 N   0  0  0  0  0  0
  -27.6845  -22.6746   21.4475 O   0  0  0  0  0  0
  -31.4627  -12.4017   19.1161 H   0  0  0  0  0  0
  -30.3133  -11.3083   19.8277 H   0  0  0  0  0  0
  -29.7312  -11.7671   17.4278 H   0  0  0  0  0  0
  -29.6633  -13.4813   17.7533 H   0  0  0  0  0  0
  -27.8242  -11.3098   18.8159 H   0  0  0  0  0  0
  -27.3633  -12.6347   17.7828 H   0  0  0  0  0  0
  -27.6944  -14.2548   19.5633 H   0  0  0  0  0  0
  -28.6813  -11.9823   21.3464 H   0  0  0  0  0  0
  -28.4713  -13.6296   21.8593 H   0  0  0  0  0  0
  -25.2767   -9.5653   22.4775 H   0  0  0  0  0  0
  -23.9998   -7.4600   22.7465 H   0  0  0  0  0  0
  -21.0851   -8.8774   19.8942 H   0  0  0  0  0  0
  -22.3720  -10.9673   19.6163 H   0  0  0  0  0  0
  -21.2005   -7.6144   23.9711 H   0  0  0  0  0  0
  -21.1486   -6.0517   25.9068 H   0  0  0  0  0  0
  -22.0606   -2.7612   23.2832 H   0  0  0  0  0  0
  -22.4097  -11.9867   22.4819 H   0  0  0  0  0  0
  -21.1081  -13.1200   22.2576 H   0  0  0  0  0  0
  -24.6468  -15.8249   20.5531 H   0  0  0  0  0  0
  -26.2710  -15.6340   20.1251 H   0  0  0  0  0  0
  -26.7119  -32.5501   23.1145 H   0  0  0  0  0  0
  -25.0061  -33.9781   25.0457 H   0  0  0  0  0  0
  -22.6902  -31.3090   21.4170 H   0  0  0  0  0  0
  -23.3745  -35.9667   23.3312 H   0  0  0  0  0  0
  -24.3580  -36.8930   22.2046 H   0  0  0  0  0  0
  -23.7265  -37.6537   23.6647 H   0  0  0  0  0  0
  -26.0535  -31.5939   20.5995 H   0  0  0  0  0  0
  -26.8261  -30.8789   21.9852 H   0  0  0  0  0  0
  -28.0977  -29.0711   21.1739 H   0  0  0  0  0  0
  -26.0013  -25.9980   18.9646 H   0  0  0  0  0  0
  -23.9637  -27.3231   19.0142 H   0  0  0  0  0  0
  -23.7153  -30.6118   19.4102 H   0  0  0  0  0  0
  -22.7333  -29.2547   19.8687 H   0  0  0  0  0  0
  -25.1297  -36.1961   25.0819 H   0  0  0  0  0  0
  -20.9969  -28.3158   24.1415 H   0  0  0  0  0  0
  -20.5648  -26.2188   23.3509 H   0  0  0  0  0  0
  -21.6623  -26.7381   22.1190 H   0  0  0  0  0  0
  -19.6934  -25.6327   21.1111 H   0  0  0  0  0  0
  -19.6701  -27.3238   20.6714 H   0  0  0  0  0  0
  -17.4212  -26.6722   21.3913 H   0  0  0  0  0  0
  -18.0268  -26.0018   22.8875 H   0  0  0  0  0  0
  -19.7938  -30.7201   24.2334 H   0  0  0  0  0  0
  -17.5006  -31.6191   24.5216 H   0  0  0  0  0  0
  -15.5356  -30.2928   23.7605 H   0  0  0  0  0  0
  -15.8666  -28.0826   22.6957 H   0  0  0  0  0  0
  -24.5921  -30.7048   25.7827 H   0  0  0  0  0  0
  -24.8963  -32.2870   26.4949 H   0  0  0  0  0  0
  -25.8142  -30.8868   27.0220 H   0  0  0  0  0  0
  -26.2816  -29.6822   24.1155 H   0  0  0  0  0  0
  -27.4025  -29.7243   25.4561 H   0  0  0  0  0  0
  -27.8678  -30.4329   23.9264 H   0  0  0  0  0  0
  -27.2613  -33.3609   26.2111 H   0  0  0  0  0  0
  -28.3845  -32.6941   25.0355 H   0  0  0  0  0  0
  -28.0697  -31.8449   26.5415 H   0  0  0  0  0  0
  -28.2605  -38.0100   24.7492 H   0  0  0  0  0  0
  -28.1061  -36.2633   24.6314 H   0  0  0  0  0  0
  -27.2289  -37.1501   25.8862 H   0  0  0  0  0  0
  -20.9245  -29.8759   21.6977 H   0  0  0  0  0  0
  -26.0182  -38.2866   24.1400 H   0  0  0  0  0  0
  -28.0879  -16.7081   19.8696 H   0  0  0  0  0  0
  -27.2428  -20.8954   19.4490 H   0  0  0  0  0  0
  -30.9354  -19.6204   21.2968 H   0  0  0  0  0  0
  -26.3072  -18.5763   17.8318 H   0  0  0  0  0  0
  -25.4272  -19.1119   19.2715 H   0  0  0  0  0  0
  -25.9078  -17.4310   19.1064 H   0  0  0  0  0  0
  -30.7815  -17.0921   22.2186 H   0  0  0  0  0  0
  -31.4909  -17.0276   20.6364 H   0  0  0  0  0  0
  -30.1603  -24.2987   20.0213 H   0  0  0  0  0  0
  -29.5738  -24.6981   21.6170 H   0  0  0  0  0  0
  -27.2301  -24.9558   20.5470 H   0  0  0  0  0  0
  -28.0378  -24.9427   18.9886 H   0  0  0  0  0  0
  -30.4881  -22.0236   20.2066 H   0  0  0  0  0  0
  -29.0872  -15.3613   21.3533 H   0  0  0  0  0  0
  1 25  1  0  0  0
  1 30  2  0  0  0
  1 83  1  0  0  0
  2  3  1  0  0  0
  2 25  1  0  0  0
  2 85  1  0  0  0
  2 86  1  0  0  0
  3  4  1  0  0  0
  3 87  1  0  0  0
  3 88  1  0  0  0
  4  5  1  0  0  0
  4 89  1  0  0  0
  4 90  1  0  0  0
  5  6  1  0  0  0
  5 26  1  0  0  0
  5 91  1  0  0  0
  6 25  1  0  0  0
  6 92  1  0  0  0
  6 93  1  0  0  0
  7  8  2  0  0  0
  7 26  1  0  0  0
  7 29  1  0  0  0
  8  9  1  0  0  0
  8 22  1  0  0  0
  9 10  1  0  0  0
  9 27  2  0  0  0
 10 11  2  0  0  0
 10 15  1  0  0  0
 11 12  1  0  0  0
 11 94  1  0  0  0
 12 13  2  0  0  0
 12 95  1  0  0  0
 13 14  1  0  0  0
 13 31  1  0  0  0
 14 15  2  0  0  0
 14 96  1  0  0  0
 15 97  1  0  0  0
 16 17  2  0  0  0
 16 21  1  0  0  0
 16 31  1  0  0  0
 17 18  1  0  0  0
 17 98  1  0  0  0
 18 19  2  0  0  0
 18 99  1  0  0  0
 19 20  1  0  0  0
 19 24  1  0  0  0
 20 21  2  0  0  0
 20100  1  0  0  0
 21 23  1  0  0  0
 22 28  1  0  0  0
 22 32  2  0  0  0
 26 27  1  0  0  0
 28101  1  0  0  0
 28102  1  0  0  0
 29103  1  0  0  0
 29104  1  0  0  0
 33 34  1  0  0  0
 33 66  1  0  0  0
 33 70  2  0  0  0
 34 36  1  0  0  0
 34 59  1  0  0  0
 34105  1  0  0  0
 35 44  2  0  0  0
 35 45  1  0  0  0
 35 68  1  0  0  0
 36 56  1  0  0  0
 36106  1  0  0  0
 37 39  1  0  0  0
 37 47  1  0  0  0
 37 66  1  0  0  0
 37107  1  0  0  0
 38 43  2  0  0  0
 38 46  1  0  0  0
 38 47  1  0  0  0
 39 64  1  0  0  0
 39 67  2  0  0  0
 40 52  1  0  0  0
 40 53  2  0  0  0
 40 58  1  0  0  0
 41108  1  0  0  0
 41109  1  0  0  0
 41110  1  0  0  0
 41 48  1  0  0  0
 42 43  1  0  0  0
 42 66  1  0  0  0
 42111  1  0  0  0
 42112  1  0  0  0
 43 44  1  0  0  0
 44113  1  0  0  0
 45 46  2  0  0  0
 45114  1  0  0  0
 46115  1  0  0  0
 47116  1  0  0  0
 47117  1  0  0  0
 48 56  1  0  0  0
 48 65  1  0  0  0
 48118  1  0  0  0
 49 50  1  0  0  0
 49 53  1  0  0  0
 49 64  1  0  0  0
 49119  1  0  0  0
 50 51  1  0  0  0
 50120  1  0  0  0
 50121  1  0  0  0
 51 52  1  0  0  0
 51122  1  0  0  0
 51123  1  0  0  0
 52124  1  0  0  0
 52125  1  0  0  0
 53 54  1  0  0  0
 54 55  2  0  0  0
 54126  1  0  0  0
 55 57  1  0  0  0
 55127  1  0  0  0
 56 69  2  0  0  0
 57 58  2  0  0  0
 57128  1  0  0  0
 58129  1  0  0  0
 59 60  1  0  0  0
 59 61  1  0  0  0
 59 62  1  0  0  0
 60130  1  0  0  0
 60131  1  0  0  0
 60132  1  0  0  0
 61133  1  0  0  0
 61134  1  0  0  0
 61135  1  0  0  0
 62136  1  0  0  0
 62137  1  0  0  0
 62138  1  0  0  0
 63 65  1  0  0  0
 63139  1  0  0  0
 63140  1  0  0  0
 63141  1  0  0  0
 64142  1  0  0  0
 65143  1  0  0  0
 68 81  1  0  0  0
 71 74  2  0  0  0
 71 75  1  0  0  0
 71144  1  0  0  0
 72 74  1  0  0  0
 72 76  2  0  0  0
 72145  1  0  0  0
 73 75  2  0  0  0
 73 76  1  0  0  0
 73146  1  0  0  0
 74 78  1  0  0  0
 75 79  1  0  0  0
 76 82  1  0  0  0
 77 80  1  0  0  0
 77 82  1  0  0  0
 77 84  2  0  0  0
 78147  1  0  0  0
 78148  1  0  0  0
 78149  1  0  0  0
 79 83  1  0  0  0
 79150  1  0  0  0
 79151  1  0  0  0
 80 81  1  0  0  0
 80152  1  0  0  0
 80153  1  0  0  0
 81154  1  0  0  0
 81155  1  0  0  0
 82156  1  0  0  0
 83157  1  0  0  0
M  ISO  4   1 100  68 101  81 101  83 100
M  END
> <chiral flag>
0

> <version>
0

> <s_m_source_file>
/data/baiqing/PycharmProjects/Reinvent-master-3.2/result/LINK_invent/BTK/process_docking_weight1_custom_product_contain_oxygen_bond_distance_aromatic_linkinvent_7_9_3/rearranged_h_0095.sdf

> <i_m_source_file_index>
15

> <r_mmod_Potential_Energy-OPLS-2005>
-141.605560302734

> <r_mmod_Stretch_Energy-OPLS-2005>
41.4678916931152

> <r_mmod_Bend_Energy-OPLS-2005>
93.9545516967773

> <r_mmod_Torsional_Energy-OPLS-2005>
218.556030273438

> <r_mmod_Improper_Torsional_Energy-OPLS-2005>
3.47228455543518

> <r_mmod_Van_der_Waal_Energy-OPLS-2005>
161.54035949707

> <r_mmod_Electrostatic_Energy-OPLS-2005>
-446.858917236328

> <r_mmod_Solvation_Energy-OPLS-2005>
-231.365081787109

> <b_mmod_Minimization_Converged-OPLS-2005>
0

> <r_mmod_RMS_Derivative-OPLS-2005>
2.94643139839172

$$$$
15
                    3D
 Structure written by MMmdl.
155163  0  0  1  0            999 V2000
  -30.5689  -14.7893   20.4117 C   0  0  0  0  0  0
  -30.4408  -12.4677   19.4889 C   0  0  0  0  0  0
  -29.5207  -12.5069   18.2462 C   0  0  0  0  0  0
  -28.0434  -12.3283   18.6494 C   0  0  0  0  0  0
  -27.6396  -13.2335   19.8420 C   0  0  2  0  0  0
  -28.6808  -13.1848   20.9773 C   0  0  0  0  0  0
  -25.2522  -13.8198   20.5709 C   0  0  0  0  0  0
  -24.1800  -13.0448   20.9186 C   0  0  0  0  0  0
  -24.6386  -11.6922   20.8718 C   0  0  0  0  0  0
  -23.9059  -10.4302   21.0393 C   0  0  0  0  0  0
  -24.3611   -9.4222   21.9175 C   0  0  0  0  0  0
  -23.6289   -8.2258   22.0742 C   0  0  0  0  0  0
  -22.4272   -8.0292   21.3534 C   0  0  0  0  0  0
  -21.9900   -9.0265   20.4641 C   0  0  0  0  0  0
  -22.7224  -10.2147   20.3053 C   0  0  0  0  0  0
  -21.6861   -6.0743   22.5275 C   0  0  0  0  0  0
  -21.4033   -6.5647   23.8209 C   0  0  0  0  0  0
  -21.3650   -5.6793   24.9166 C   0  0  0  0  0  0
  -21.6034   -4.3055   24.7216 C   0  0  0  0  0  0
  -21.8825   -3.8153   23.4338 C   0  0  0  0  0  0
  -21.9202   -4.6971   22.3395 C   0  0  0  0  0  0
  -22.7828  -13.5233   21.1869 C   0  0  0  0  0  0
  -22.1666   -4.2159   21.0969 F   0  0  0  0  0  0
  -21.5612   -3.4533   25.7724 F   0  0  0  0  0  0
  -29.9896  -13.5360   20.4119 N   0  0  0  0  0  0
  -26.2931  -12.9402   20.3232 N   0  0  0  0  0  0
  -25.9307  -11.6539   20.5686 N   0  0  0  0  0  0
  -22.0477  -12.8236   22.0438 N   0  0  0  0  0  0
  -25.4278  -15.1922   20.4239 N   0  0  0  0  0  0
  -31.7785  -14.8661   20.1842 O   0  0  0  0  0  0
  -21.6642   -6.8885   21.4237 O   0  0  0  0  0  0
  -22.3519  -14.5546   20.6724 O   0  0  0  0  0  0
  -24.6338  -31.8544   23.1956 C   0  0  0  0  0  0
  -25.9164  -32.4748   23.8310 C   0  0  1  0  0  0
  -27.2218  -27.2489   20.1400 C   0  0  0  0  0  0
  -25.5958  -33.8546   24.2241 N   0  0  0  0  0  0
  -23.4295  -30.4752   21.5400 C   0  0  2  0  0  0
  -24.8776  -28.9125   20.1156 C   0  0  0  0  0  0
  -22.7505  -29.4601   22.4910 C   0  0  0  0  0  0
  -18.0292  -28.1392   22.8480 C   0  0  0  0  0  0
  -24.1484  -36.7271   23.2632 C   0  0  0  0  0  0
  -25.9756  -30.7646   21.3741 C   0  0  0  0  0  0
  -26.0503  -29.3824   20.7221 C   0  0  0  0  0  0
  -27.2290  -28.5658   20.7160 C   0  0  0  0  0  0
  -26.0272  -26.8423   19.5125 C   0  0  0  0  0  0
  -24.8714  -27.6503   19.4989 C   0  0  0  0  0  0
  -23.6494  -29.8039   20.1577 C   0  0  0  0  0  0
  -25.4112  -36.3060   24.0321 C   0  0  1  0  0  0
  -20.5898  -28.3706   23.1261 C   0  0  2  0  0  0
  -20.6780  -26.9424   22.5401 C   0  0  0  0  0  0
  -19.5755  -26.6388   21.5204 C   0  0  0  0  0  0
  -18.1936  -26.7934   22.1617 C   0  0  0  0  0  0
  -19.1547  -28.8863   23.2866 C   0  0  0  0  0  0
  -18.9468  -30.1463   23.8888 C   0  0  0  0  0  0
  -17.6469  -30.6591   24.0563 C   0  0  0  0  0  0
  -25.9059  -34.9435   23.5076 C   0  0  0  0  0  0
  -16.5359  -29.9090   23.6333 C   0  0  0  0  0  0
  -16.7280  -28.6506   23.0355 C   0  0  0  0  0  0
  -26.4519  -31.6577   25.0704 C   0  0  0  0  0  0
  -25.3734  -31.3757   26.1423 C   0  0  0  0  0  0
  -27.0363  -30.2989   24.6196 C   0  0  0  0  0  0
  -27.6066  -32.4316   25.7491 C   0  0  0  0  0  0
  -27.5571  -37.1790   24.8466 C   0  0  0  0  0  0
  -21.4211  -29.3053   22.3653 N   0  0  0  0  0  0
  -26.4280  -37.3767   23.9411 N   0  0  0  0  0  0
  -24.6988  -31.0492   22.0936 N   0  0  0  0  0  0
  -23.4201  -28.8151   23.3021 O   0  0  0  0  0  0
  -28.3163  -26.3531   20.1254 O   0  0  0  0  0  0
  -26.5625  -34.8922   22.4640 O   0  0  0  0  0  0
  -23.5487  -32.1369   23.7251 O   0  0  0  0  0  0
  -27.9797  -19.5453   18.1383 C   0  0  0  0  0  0
  -28.0804  -20.8188   18.7208 C   0  0  0  0  0  0
  -29.4304  -19.8352   20.4820 C   0  0  0  0  0  0
  -29.3506  -18.4847   19.9039 C   0  0  0  0  0  0
  -28.5986  -18.4034   18.6926 C   0  0  0  0  0  0
  -28.8095  -21.0362   19.9072 C   0  0  0  0  0  0
  -30.0905  -17.1836   20.4140 C   0  0  0  0  0  0
  -28.5683  -23.6737   19.9000 C   0  0  0  0  0  0
  -28.4580  -17.1110   17.8955 C   0  0  0  0  0  0
  -28.9808  -25.0522   22.0637 C   0  0  0  0  0  0
  -28.1741  -24.9873   20.7588 C   0  0  1  0  0  0
  -29.6724  -15.9238   20.4269 N   0  0  0  0  0  0
  -28.7929  -22.4191   20.4882 N   0  0  0  0  0  0
  -28.6748  -23.8195   18.6794 O   0  0  0  0  0  0
  -31.4827  -12.5929   19.1889 H   0  0  0  0  0  0
  -30.3859  -11.4940   19.9795 H   0  0  0  0  0  0
  -29.8091  -11.7291   17.5380 H   0  0  0  0  0  0
  -29.6447  -13.4577   17.7255 H   0  0  0  0  0  0
  -27.8996  -11.2809   18.9163 H   0  0  0  0  0  0
  -27.3919  -12.5185   17.7954 H   0  0  0  0  0  0
  -27.6284  -14.2510   19.4537 H   0  0  0  0  0  0
  -28.7137  -12.1946   21.4337 H   0  0  0  0  0  0
  -28.4083  -13.8819   21.7718 H   0  0  0  0  0  0
  -25.2756   -9.5705   22.4744 H   0  0  0  0  0  0
  -24.0003   -7.4648   22.7453 H   0  0  0  0  0  0
  -21.0832   -8.8790   19.8941 H   0  0  0  0  0  0
  -22.3680  -10.9691   19.6165 H   0  0  0  0  0  0
  -21.2050   -7.6155   23.9722 H   0  0  0  0  0  0
  -21.1454   -6.0515   25.9066 H   0  0  0  0  0  0
  -22.0616   -2.7622   23.2831 H   0  0  0  0  0  0
  -22.4098  -11.9912   22.4854 H   0  0  0  0  0  0
  -21.1102  -13.1272   22.2641 H   0  0  0  0  0  0
  -24.6818  -15.8602   20.5827 H   0  0  0  0  0  0
  -26.3132  -15.6275   20.1942 H   0  0  0  0  0  0
  -26.7230  -32.5402   23.1054 H   0  0  0  0  0  0
  -25.0146  -33.9677   25.0414 H   0  0  0  0  0  0
  -22.7268  -31.2981   21.3921 H   0  0  0  0  0  0
  -23.3752  -35.9598   23.3294 H   0  0  0  0  0  0
  -24.3570  -36.8891   22.2045 H   0  0  0  0  0  0
  -23.7229  -37.6469   23.6656 H   0  0  0  0  0  0
  -26.1089  -31.5210   20.5996 H   0  0  0  0  0  0
  -26.8545  -30.8205   22.0048 H   0  0  0  0  0  0
  -28.1317  -28.9260   21.1889 H   0  0  0  0  0  0
  -25.9845  -25.8738   19.0343 H   0  0  0  0  0  0
  -23.9738  -27.2860   19.0168 H   0  0  0  0  0  0
  -23.7785  -30.5793   19.4013 H   0  0  0  0  0  0
  -22.7654  -29.2417   19.8508 H   0  0  0  0  0  0
  -25.1292  -36.1895   25.0813 H   0  0  0  0  0  0
  -20.9990  -28.3292   24.1383 H   0  0  0  0  0  0
  -20.5665  -26.2325   23.3611 H   0  0  0  0  0  0
  -21.6652  -26.7441   22.1209 H   0  0  0  0  0  0
  -19.6914  -25.6295   21.1243 H   0  0  0  0  0  0
  -19.6692  -27.3188   20.6727 H   0  0  0  0  0  0
  -17.4207  -26.6685   21.4020 H   0  0  0  0  0  0
  -18.0343  -26.0071   22.9009 H   0  0  0  0  0  0
  -19.7946  -30.7282   24.2254 H   0  0  0  0  0  0
  -17.5025  -31.6270   24.5173 H   0  0  0  0  0  0
  -15.5360  -30.2997   23.7652 H   0  0  0  0  0  0
  -15.8680  -28.0824   22.7081 H   0  0  0  0  0  0
  -24.5931  -30.7066   25.7773 H   0  0  0  0  0  0
  -24.8903  -32.2940   26.4769 H   0  0  0  0  0  0
  -25.8052  -30.9011   27.0241 H   0  0  0  0  0  0
  -26.2950  -29.6738   24.1201 H   0  0  0  0  0  0
  -27.4020  -29.7249   25.4718 H   0  0  0  0  0  0
  -27.8838  -30.4252   23.9455 H   0  0  0  0  0  0
  -27.2672  -33.3632   26.2031 H   0  0  0  0  0  0
  -28.3915  -32.6838   25.0349 H   0  0  0  0  0  0
  -28.0694  -31.8458   26.5445 H   0  0  0  0  0  0
  -28.2591  -38.0085   24.7514 H   0  0  0  0  0  0
  -28.1063  -36.2615   24.6292 H   0  0  0  0  0  0
  -27.2292  -37.1448   25.8870 H   0  0  0  0  0  0
  -20.9402  -29.8782   21.6860 H   0  0  0  0  0  0
  -26.0154  -38.2833   24.1431 H   0  0  0  0  0  0
  -27.4118  -19.4542   17.2225 H   0  0  0  0  0  0
  -27.5620  -21.6326   18.2342 H   0  0  0  0  0  0
  -29.9966  -19.9485   21.3952 H   0  0  0  0  0  0
  -31.1157  -17.3870   20.7384 H   0  0  0  0  0  0
  -27.7963  -16.4137   18.4075 H   0  0  0  0  0  0
  -29.4244  -16.6301   17.7375 H   0  0  0  0  0  0
  -28.0376  -17.2935   16.9061 H   0  0  0  0  0  0
  -28.8614  -24.1472   22.6589 H   0  0  0  0  0  0
  -28.6550  -25.8905   22.6788 H   0  0  0  0  0  0
  -30.0437  -25.1834   21.8606 H   0  0  0  0  0  0
  -27.1282  -24.8444   21.0330 H   0  0  0  0  0  0
  -28.8708  -22.4546   21.4953 H   0  0  0  0  0  0
  1 25  1  0  0  0
  1 30  2  0  0  0
  1 82  1  0  0  0
  2  3  1  0  0  0
  2 25  1  0  0  0
  2 85  1  0  0  0
  2 86  1  0  0  0
  3  4  1  0  0  0
  3 87  1  0  0  0
  3 88  1  0  0  0
  4  5  1  0  0  0
  4 89  1  0  0  0
  4 90  1  0  0  0
  5  6  1  0  0  0
  5 26  1  0  0  0
  5 91  1  0  0  0
  6 25  1  0  0  0
  6 92  1  0  0  0
  6 93  1  0  0  0
  7  8  2  0  0  0
  7 26  1  0  0  0
  7 29  1  0  0  0
  8  9  1  0  0  0
  8 22  1  0  0  0
  9 10  1  0  0  0
  9 27  2  0  0  0
 10 11  2  0  0  0
 10 15  1  0  0  0
 11 12  1  0  0  0
 11 94  1  0  0  0
 12 13  2  0  0  0
 12 95  1  0  0  0
 13 14  1  0  0  0
 13 31  1  0  0  0
 14 15  2  0  0  0
 14 96  1  0  0  0
 15 97  1  0  0  0
 16 17  2  0  0  0
 16 21  1  0  0  0
 16 31  1  0  0  0
 17 18  1  0  0  0
 17 98  1  0  0  0
 18 19  2  0  0  0
 18 99  1  0  0  0
 19 20  1  0  0  0
 19 24  1  0  0  0
 20 21  2  0  0  0
 20100  1  0  0  0
 21 23  1  0  0  0
 22 28  1  0  0  0
 22 32  2  0  0  0
 26 27  1  0  0  0
 28101  1  0  0  0
 28102  1  0  0  0
 29103  1  0  0  0
 29104  1  0  0  0
 33 34  1  0  0  0
 33 66  1  0  0  0
 33 70  2  0  0  0
 34 36  1  0  0  0
 34 59  1  0  0  0
 34105  1  0  0  0
 35 44  2  0  0  0
 35 45  1  0  0  0
 35 68  1  0  0  0
 36 56  1  0  0  0
 36106  1  0  0  0
 37 39  1  0  0  0
 37 47  1  0  0  0
 37 66  1  0  0  0
 37107  1  0  0  0
 38 43  2  0  0  0
 38 46  1  0  0  0
 38 47  1  0  0  0
 39 64  1  0  0  0
 39 67  2  0  0  0
 40 52  1  0  0  0
 40 53  2  0  0  0
 40 58  1  0  0  0
 41108  1  0  0  0
 41109  1  0  0  0
 41110  1  0  0  0
 41 48  1  0  0  0
 42 43  1  0  0  0
 42 66  1  0  0  0
 42111  1  0  0  0
 42112  1  0  0  0
 43 44  1  0  0  0
 44113  1  0  0  0
 45 46  2  0  0  0
 45114  1  0  0  0
 46115  1  0  0  0
 47116  1  0  0  0
 47117  1  0  0  0
 48 56  1  0  0  0
 48 65  1  0  0  0
 48118  1  0  0  0
 49 50  1  0  0  0
 49 53  1  0  0  0
 49 64  1  0  0  0
 49119  1  0  0  0
 50 51  1  0  0  0
 50120  1  0  0  0
 50121  1  0  0  0
 51 52  1  0  0  0
 51122  1  0  0  0
 51123  1  0  0  0
 52124  1  0  0  0
 52125  1  0  0  0
 53 54  1  0  0  0
 54 55  2  0  0  0
 54126  1  0  0  0
 55 57  1  0  0  0
 55127  1  0  0  0
 56 69  2  0  0  0
 57 58  2  0  0  0
 57128  1  0  0  0
 58129  1  0  0  0
 59 60  1  0  0  0
 59 61  1  0  0  0
 59 62  1  0  0  0
 60130  1  0  0  0
 60131  1  0  0  0
 60132  1  0  0  0
 61133  1  0  0  0
 61134  1  0  0  0
 61135  1  0  0  0
 62136  1  0  0  0
 62137  1  0  0  0
 62138  1  0  0  0
 63 65  1  0  0  0
 63139  1  0  0  0
 63140  1  0  0  0
 63141  1  0  0  0
 64142  1  0  0  0
 65143  1  0  0  0
 68 81  1  0  0  0
 71 72  2  0  0  0
 71 75  1  0  0  0
 71144  1  0  0  0
 72 76  1  0  0  0
 72145  1  0  0  0
 73 74  1  0  0  0
 73 76  2  0  0  0
 73146  1  0  0  0
 74 75  2  0  0  0
 74 77  1  0  0  0
 75 79  1  0  0  0
 76 83  1  0  0  0
 77 82  2  0  0  0
 77147  1  0  0  0
 78 81  1  0  0  0
 78 83  1  0  0  0
 78 84  2  0  0  0
 79148  1  0  0  0
 79149  1  0  0  0
 79150  1  0  0  0
 80151  1  0  0  0
 80152  1  0  0  0
 80153  1  0  0  0
 80 81  1  0  0  0
 81154  1  0  0  0
 83155  1  0  0  0
M  ISO  4   1 100  68 101  81 101  82 100
M  END
> <chiral flag>
0

> <version>
0

> <s_m_source_file>
/data/baiqing/PycharmProjects/Reinvent-master-3.2/result/LINK_invent/BTK/process_docking_weight1_custom_product_contain_oxygen_bond_distance_aromatic_linkinvent_7_9_3/rearranged_h_0095.sdf

> <i_m_source_file_index>
16

> <r_mmod_Potential_Energy-OPLS-2005>
242.92741394043

> <r_mmod_Stretch_Energy-OPLS-2005>
152.323135375977

> <r_mmod_Bend_Energy-OPLS-2005>
164.762512207031

> <r_mmod_Torsional_Energy-OPLS-2005>
247.470672607422

> <r_mmod_Improper_Torsional_Energy-OPLS-2005>
6.86981105804443

> <r_mmod_Van_der_Waal_Energy-OPLS-2005>
140.141708374023

> <r_mmod_Electrostatic_Energy-OPLS-2005>
-357.080780029297

> <r_mmod_Solvation_Energy-OPLS-2005>
-210.680953979492

> <b_mmod_Minimization_Converged-OPLS-2005>
0

> <r_mmod_RMS_Derivative-OPLS-2005>
1.14068472385406

$$$$
16
                    3D
 Structure written by MMmdl.
155163  0  0  1  0            999 V2000
  -30.6727  -14.6338   20.3805 C   0  0  0  0  0  0
  -30.4020  -12.3618   19.4451 C   0  0  0  0  0  0
  -29.4889  -12.4814   18.2074 C   0  0  0  0  0  0
  -28.0143  -12.3298   18.6264 C   0  0  0  0  0  0
  -27.6369  -13.2281   19.8335 C   0  0  2  0  0  0
  -28.6954  -13.1419   20.9603 C   0  0  0  0  0  0
  -25.2365  -13.8113   20.5462 C   0  0  0  0  0  0
  -24.1738  -13.0361   20.9168 C   0  0  0  0  0  0
  -24.6386  -11.6867   20.8786 C   0  0  0  0  0  0
  -23.9064  -10.4256   21.0414 C   0  0  0  0  0  0
  -24.3616   -9.4191   21.9195 C   0  0  0  0  0  0
  -23.6295   -8.2223   22.0764 C   0  0  0  0  0  0
  -22.4278   -8.0249   21.3544 C   0  0  0  0  0  0
  -21.9898   -9.0232   20.4648 C   0  0  0  0  0  0
  -22.7231  -10.2106   20.3065 C   0  0  0  0  0  0
  -21.6843   -6.0733   22.5284 C   0  0  0  0  0  0
  -21.4000   -6.5634   23.8218 C   0  0  0  0  0  0
  -21.3652   -5.6787   24.9176 C   0  0  0  0  0  0
  -21.6037   -4.3049   24.7224 C   0  0  0  0  0  0
  -21.8829   -3.8146   23.4342 C   0  0  0  0  0  0
  -21.9186   -4.6961   22.3401 C   0  0  0  0  0  0
  -22.7771  -13.5161   21.1882 C   0  0  0  0  0  0
  -22.1663   -4.2140   21.0984 F   0  0  0  0  0  0
  -21.5626   -3.4537   25.7743 F   0  0  0  0  0  0
  -30.0023  -13.4400   20.3692 N   0  0  0  0  0  0
  -26.2916  -12.9407   20.3221 N   0  0  0  0  0  0
  -25.9332  -11.6547   20.5807 N   0  0  0  0  0  0
  -22.0422  -12.8167   22.0452 N   0  0  0  0  0  0
  -25.3694  -15.1791   20.3527 N   0  0  0  0  0  0
  -31.8757  -14.6626   20.1175 O   0  0  0  0  0  0
  -21.6620   -6.8867   21.4246 O   0  0  0  0  0  0
  -22.3460  -14.5499   20.6757 O   0  0  0  0  0  0
  -24.6260  -31.8609   23.2029 C   0  0  0  0  0  0
  -25.9106  -32.4781   23.8324 C   0  0  1  0  0  0
  -27.2480  -27.3630   20.0897 C   0  0  0  0  0  0
  -25.5947  -33.8565   24.2271 N   0  0  0  0  0  0
  -23.4201  -30.4859   21.5391 C   0  0  2  0  0  0
  -24.8696  -28.9400   20.1072 C   0  0  0  0  0  0
  -22.7461  -29.4670   22.4873 C   0  0  0  0  0  0
  -18.0271  -28.1307   22.8454 C   0  0  0  0  0  0
  -24.1493  -36.7279   23.2632 C   0  0  0  0  0  0
  -25.9607  -30.7962   21.3781 C   0  0  0  0  0  0
  -26.0359  -29.4298   20.7106 C   0  0  0  0  0  0
  -27.2245  -28.6476   20.6992 C   0  0  0  0  0  0
  -26.0571  -26.9016   19.4853 C   0  0  0  0  0  0
  -24.8785  -27.6745   19.4934 C   0  0  0  0  0  0
  -23.6409  -29.8216   20.1553 C   0  0  0  0  0  0
  -25.4116  -36.3050   24.0324 C   0  0  1  0  0  0
  -20.5880  -28.3712   23.1126 C   0  0  2  0  0  0
  -20.6800  -26.9471   22.5179 C   0  0  0  0  0  0
  -19.5666  -26.6293   21.5166 C   0  0  0  0  0  0
  -18.1915  -26.7784   22.1733 C   0  0  0  0  0  0
  -19.1524  -28.8835   23.2784 C   0  0  0  0  0  0
  -18.9395  -30.1420   23.8829 C   0  0  0  0  0  0
  -17.6366  -30.6473   24.0549 C   0  0  0  0  0  0
  -25.9062  -34.9433   23.5086 C   0  0  0  0  0  0
  -16.5281  -29.8941   23.6303 C   0  0  0  0  0  0
  -16.7226  -28.6374   23.0313 C   0  0  0  0  0  0
  -26.4525  -31.6569   25.0689 C   0  0  0  0  0  0
  -25.3755  -31.3717   26.1420 C   0  0  0  0  0  0
  -27.0422  -30.2983   24.6195 C   0  0  0  0  0  0
  -27.6083  -32.4337   25.7483 C   0  0  0  0  0  0
  -27.5578  -37.1800   24.8463 C   0  0  0  0  0  0
  -21.4174  -29.3115   22.3589 N   0  0  0  0  0  0
  -26.4275  -37.3767   23.9426 N   0  0  0  0  0  0
  -24.6842  -31.0628   22.0966 N   0  0  0  0  0  0
  -23.4161  -28.8204   23.2966 O   0  0  0  0  0  0
  -28.3563  -26.5224   20.1761 O   0  0  0  0  0  0
  -26.5627  -34.8927   22.4650 O   0  0  0  0  0  0
  -23.5429  -32.1380   23.7394 O   0  0  0  0  0  0
  -27.5077  -19.3215   21.8694 C   0  0  0  0  0  0
  -27.8470  -20.6022   21.4070 C   0  0  0  0  0  0
  -29.6591  -19.6018   20.1369 C   0  0  0  0  0  0
  -29.3522  -18.2738   20.6147 C   0  0  0  0  0  0
  -28.2109  -18.1632   21.4683 C   0  0  0  0  0  0
  -28.9195  -20.7800   20.5088 C   0  0  0  0  0  0
  -28.6680  -25.6674   19.1265 C   0  0  0  0  0  0
  -30.3036  -17.0901   20.3077 C   0  0  0  0  0  0
  -28.8658  -24.3055   19.0996 C   0  0  0  0  0  0
  -28.7169  -23.3415   20.2201 C   0  0  0  0  0  0
  -27.6798  -16.8527   22.0182 C   0  0  0  0  0  0
  -29.2162  -22.0900   19.9409 N   0  0  0  0  0  0
  -29.9191  -15.7800   20.4775 N   0  0  0  0  0  0
  -31.4264  -17.3959   19.8871 O   0  0  0  0  0  0
  -28.2066  -23.6249   21.3060 O   0  0  0  0  0  0
  -29.1837  -23.7929   17.9024 O   0  0  0  0  0  0
  -31.4568  -12.4062   19.1669 H   0  0  0  0  0  0
  -30.2638  -11.3927   19.9265 H   0  0  0  0  0  0
  -29.7507  -11.7166   17.4738 H   0  0  0  0  0  0
  -29.6367  -13.4427   17.7117 H   0  0  0  0  0  0
  -27.8558  -11.2824   18.8824 H   0  0  0  0  0  0
  -27.3612  -12.5364   17.7778 H   0  0  0  0  0  0
  -27.6311  -14.2495   19.4483 H   0  0  0  0  0  0
  -28.7098  -12.1407   21.3943 H   0  0  0  0  0  0
  -28.4670  -13.8242   21.7808 H   0  0  0  0  0  0
  -25.2747   -9.5658   22.4778 H   0  0  0  0  0  0
  -23.9974   -7.4616   22.7476 H   0  0  0  0  0  0
  -21.0836   -8.8757   19.8965 H   0  0  0  0  0  0
  -22.3687  -10.9647   19.6179 H   0  0  0  0  0  0
  -21.1988   -7.6138   23.9714 H   0  0  0  0  0  0
  -21.1464   -6.0512   25.9071 H   0  0  0  0  0  0
  -22.0610   -2.7608   23.2853 H   0  0  0  0  0  0
  -22.4034  -11.9830   22.4877 H   0  0  0  0  0  0
  -21.1047  -13.1212   22.2640 H   0  0  0  0  0  0
  -24.5616  -15.7840   20.4302 H   0  0  0  0  0  0
  -26.1537  -15.6323   19.9060 H   0  0  0  0  0  0
  -26.7192  -32.5469   23.1091 H   0  0  0  0  0  0
  -25.0132  -33.9714   25.0436 H   0  0  0  0  0  0
  -22.7143  -31.3077   21.3953 H   0  0  0  0  0  0
  -23.3752  -35.9615   23.3297 H   0  0  0  0  0  0
  -24.3575  -36.8909   22.2047 H   0  0  0  0  0  0
  -23.7277  -37.6485   23.6670 H   0  0  0  0  0  0
  -26.1035  -31.5684   20.6216 H   0  0  0  0  0  0
  -26.8305  -30.8288   22.0221 H   0  0  0  0  0  0
  -28.1179  -29.0114   21.1832 H   0  0  0  0  0  0
  -26.0269  -25.9214   19.0338 H   0  0  0  0  0  0
  -23.9788  -27.2876   19.0333 H   0  0  0  0  0  0
  -23.7833  -30.6022   19.4061 H   0  0  0  0  0  0
  -22.7592  -29.2692   19.8322 H   0  0  0  0  0  0
  -25.1303  -36.1876   25.0818 H   0  0  0  0  0  0
  -20.9999  -28.3213   24.1255 H   0  0  0  0  0  0
  -20.6045  -26.2358   23.3389 H   0  0  0  0  0  0
  -21.6608  -26.7645   22.0742 H   0  0  0  0  0  0
  -19.6914  -25.6206   21.1240 H   0  0  0  0  0  0
  -19.6436  -27.3021   20.6573 H   0  0  0  0  0  0
  -17.4064  -26.6271   21.4303 H   0  0  0  0  0  0
  -18.0507  -26.0060   22.9322 H   0  0  0  0  0  0
  -19.7821  -30.7289   24.2182 H   0  0  0  0  0  0
  -17.4853  -31.6134   24.5188 H   0  0  0  0  0  0
  -15.5244  -30.2768   23.7655 H   0  0  0  0  0  0
  -15.8630  -28.0646   22.7060 H   0  0  0  0  0  0
  -24.5887  -30.7143   25.7709 H   0  0  0  0  0  0
  -24.9014  -32.2910   26.4867 H   0  0  0  0  0  0
  -25.8046  -30.8829   27.0165 H   0  0  0  0  0  0
  -26.3015  -29.6692   24.1263 H   0  0  0  0  0  0
  -27.4145  -29.7300   25.4719 H   0  0  0  0  0  0
  -27.8857  -30.4261   23.9418 H   0  0  0  0  0  0
  -27.2631  -33.3591   26.2106 H   0  0  0  0  0  0
  -28.3855  -32.6987   25.0300 H   0  0  0  0  0  0
  -28.0799  -31.8452   26.5364 H   0  0  0  0  0  0
  -28.2579  -38.0111   24.7507 H   0  0  0  0  0  0
  -28.1093  -36.2644   24.6280 H   0  0  0  0  0  0
  -27.2299  -37.1432   25.8863 H   0  0  0  0  0  0
  -20.9350  -29.8786   21.6751 H   0  0  0  0  0  0
  -26.0143  -38.2824   24.1462 H   0  0  0  0  0  0
  -26.6717  -19.2312   22.5491 H   0  0  0  0  0  0
  -27.2378  -21.4300   21.7363 H   0  0  0  0  0  0
  -30.5021  -19.7104   19.4642 H   0  0  0  0  0  0
  -28.7821  -26.2408   18.2141 H   0  0  0  0  0  0
  -27.5924  -16.1058   21.2387 H   0  0  0  0  0  0
  -26.6697  -16.9688   22.4090 H   0  0  0  0  0  0
  -28.3209  -16.4805   22.8173 H   0  0  0  0  0  0
  -29.8910  -22.0765   19.1893 H   0  0  0  0  0  0
  -28.9497  -15.6434   20.7061 H   0  0  0  0  0  0
  -29.0722  -22.8523   17.9614 H   0  0  0  0  0  0
  1 25  1  0  0  0
  1 30  2  0  0  0
  1 83  1  0  0  0
  2  3  1  0  0  0
  2 25  1  0  0  0
  2 87  1  0  0  0
  2 88  1  0  0  0
  3  4  1  0  0  0
  3 89  1  0  0  0
  3 90  1  0  0  0
  4  5  1  0  0  0
  4 91  1  0  0  0
  4 92  1  0  0  0
  5  6  1  0  0  0
  5 26  1  0  0  0
  5 93  1  0  0  0
  6 25  1  0  0  0
  6 94  1  0  0  0
  6 95  1  0  0  0
  7  8  2  0  0  0
  7 26  1  0  0  0
  7 29  1  0  0  0
  8  9  1  0  0  0
  8 22  1  0  0  0
  9 10  1  0  0  0
  9 27  2  0  0  0
 10 11  2  0  0  0
 10 15  1  0  0  0
 11 12  1  0  0  0
 11 96  1  0  0  0
 12 13  2  0  0  0
 12 97  1  0  0  0
 13 14  1  0  0  0
 13 31  1  0  0  0
 14 15  2  0  0  0
 14 98  1  0  0  0
 15 99  1  0  0  0
 16 17  2  0  0  0
 16 21  1  0  0  0
 16 31  1  0  0  0
 17 18  1  0  0  0
 17100  1  0  0  0
 18 19  2  0  0  0
 18101  1  0  0  0
 19 20  1  0  0  0
 19 24  1  0  0  0
 20 21  2  0  0  0
 20102  1  0  0  0
 21 23  1  0  0  0
 22 28  1  0  0  0
 22 32  2  0  0  0
 26 27  1  0  0  0
 28103  1  0  0  0
 28104  1  0  0  0
 29105  1  0  0  0
 29106  1  0  0  0
 33 34  1  0  0  0
 33 66  1  0  0  0
 33 70  2  0  0  0
 34 36  1  0  0  0
 34 59  1  0  0  0
 34107  1  0  0  0
 35 44  2  0  0  0
 35 45  1  0  0  0
 35 68  1  0  0  0
 36 56  1  0  0  0
 36108  1  0  0  0
 37 39  1  0  0  0
 37 47  1  0  0  0
 37 66  1  0  0  0
 37109  1  0  0  0
 38 43  2  0  0  0
 38 46  1  0  0  0
 38 47  1  0  0  0
 39 64  1  0  0  0
 39 67  2  0  0  0
 40 52  1  0  0  0
 40 53  2  0  0  0
 40 58  1  0  0  0
 41110  1  0  0  0
 41111  1  0  0  0
 41112  1  0  0  0
 41 48  1  0  0  0
 42 43  1  0  0  0
 42 66  1  0  0  0
 42113  1  0  0  0
 42114  1  0  0  0
 43 44  1  0  0  0
 44115  1  0  0  0
 45 46  2  0  0  0
 45116  1  0  0  0
 46117  1  0  0  0
 47118  1  0  0  0
 47119  1  0  0  0
 48 56  1  0  0  0
 48 65  1  0  0  0
 48120  1  0  0  0
 49 50  1  0  0  0
 49 53  1  0  0  0
 49 64  1  0  0  0
 49121  1  0  0  0
 50 51  1  0  0  0
 50122  1  0  0  0
 50123  1  0  0  0
 51 52  1  0  0  0
 51124  1  0  0  0
 51125  1  0  0  0
 52126  1  0  0  0
 52127  1  0  0  0
 53 54  1  0  0  0
 54 55  2  0  0  0
 54128  1  0  0  0
 55 57  1  0  0  0
 55129  1  0  0  0
 56 69  2  0  0  0
 57 58  2  0  0  0
 57130  1  0  0  0
 58131  1  0  0  0
 59 60  1  0  0  0
 59 61  1  0  0  0
 59 62  1  0  0  0
 60132  1  0  0  0
 60133  1  0  0  0
 60134  1  0  0  0
 61135  1  0  0  0
 61136  1  0  0  0
 61137  1  0  0  0
 62138  1  0  0  0
 62139  1  0  0  0
 62140  1  0  0  0
 63 65  1  0  0  0
 63141  1  0  0  0
 63142  1  0  0  0
 63143  1  0  0  0
 64144  1  0  0  0
 65145  1  0  0  0
 68 77  1  0  0  0
 71 72  2  0  0  0
 71 75  1  0  0  0
 71146  1  0  0  0
 72 76  1  0  0  0
 72147  1  0  0  0
 73 74  1  0  0  0
 73 76  2  0  0  0
 73148  1  0  0  0
 74 75  2  0  0  0
 74 78  1  0  0  0
 75 81  1  0  0  0
 76 82  1  0  0  0
 77 79  2  0  0  0
 77149  1  0  0  0
 78 83  1  0  0  0
 78 84  2  0  0  0
 79 80  1  0  0  0
 79 86  1  0  0  0
 80 82  1  0  0  0
 80 85  2  0  0  0
 81150  1  0  0  0
 81151  1  0  0  0
 81152  1  0  0  0
 82153  1  0  0  0
 83154  1  0  0  0
 86155  1  0  0  0
M  ISO  4   1 100  68 101  77 101  83 100
M  END
> <chiral flag>
0

> <version>
0

> <s_m_source_file>
/data/baiqing/PycharmProjects/Reinvent-master-3.2/result/LINK_invent/BTK/process_docking_weight1_custom_product_contain_oxygen_bond_distance_aromatic_linkinvent_7_9_3/rearranged_h_0095.sdf

> <i_m_source_file_index>
17

> <r_mmod_Potential_Energy-OPLS-2005>
-11.5171060562134

> <r_mmod_Stretch_Energy-OPLS-2005>
71.96630859375

> <r_mmod_Bend_Energy-OPLS-2005>
148.294967651367

> <r_mmod_Torsional_Energy-OPLS-2005>
244.986389160156

> <r_mmod_Improper_Torsional_Energy-OPLS-2005>
6.50547075271606

> <r_mmod_Van_der_Waal_Energy-OPLS-2005>
165.986129760742

> <r_mmod_Electrostatic_Energy-OPLS-2005>
-444.172393798828

> <r_mmod_Solvation_Energy-OPLS-2005>
-256.548278808594

> <b_mmod_Minimization_Converged-OPLS-2005>
0

> <r_mmod_RMS_Derivative-OPLS-2005>
6.65052700042725

$$$$
17
                    3D
 Structure written by MMmdl.
156165  0  0  1  0            999 V2000
  -30.6120  -14.7267   20.4628 C   0  0  0  0  0  0
  -30.4322  -12.4380   19.4867 C   0  0  0  0  0  0
  -29.5155  -12.5108   18.2444 C   0  0  0  0  0  0
  -28.0383  -12.3449   18.6493 C   0  0  0  0  0  0
  -27.6476  -13.2342   19.8592 C   0  0  2  0  0  0
  -28.6874  -13.1473   20.9991 C   0  0  0  0  0  0
  -25.2519  -13.8202   20.5688 C   0  0  0  0  0  0
  -24.1801  -13.0450   20.9187 C   0  0  0  0  0  0
  -24.6395  -11.6927   20.8720 C   0  0  0  0  0  0
  -23.9068  -10.4294   21.0386 C   0  0  0  0  0  0
  -24.3618   -9.4209   21.9163 C   0  0  0  0  0  0
  -23.6294   -8.2241   22.0745 C   0  0  0  0  0  0
  -22.4275   -8.0272   21.3542 C   0  0  0  0  0  0
  -21.9906   -9.0246   20.4648 C   0  0  0  0  0  0
  -22.7237  -10.2125   20.3049 C   0  0  0  0  0  0
  -21.6856   -6.0725   22.5275 C   0  0  0  0  0  0
  -21.4017   -6.5626   23.8208 C   0  0  0  0  0  0
  -21.3657   -5.6780   24.9171 C   0  0  0  0  0  0
  -21.6037   -4.3045   24.7225 C   0  0  0  0  0  0
  -21.8814   -3.8138   23.4345 C   0  0  0  0  0  0
  -21.9192   -4.6948   22.3405 C   0  0  0  0  0  0
  -22.7818  -13.5232   21.1855 C   0  0  0  0  0  0
  -22.1660   -4.2133   21.0984 F   0  0  0  0  0  0
  -21.5634   -3.4530   25.7737 F   0  0  0  0  0  0
  -29.9975  -13.4940   20.4336 N   0  0  0  0  0  0
  -26.2956  -12.9421   20.3293 N   0  0  0  0  0  0
  -25.9327  -11.6561   20.5732 N   0  0  0  0  0  0
  -22.0468  -12.8232   22.0425 N   0  0  0  0  0  0
  -25.4243  -15.1918   20.4130 N   0  0  0  0  0  0
  -31.7767  -14.8398   20.0687 O   0  0  0  0  0  0
  -21.6648   -6.8863   21.4240 O   0  0  0  0  0  0
  -22.3494  -14.5528   20.6687 O   0  0  0  0  0  0
  -24.6329  -31.8549   23.2001 C   0  0  0  0  0  0
  -25.9155  -32.4742   23.8339 C   0  0  1  0  0  0
  -27.2036  -27.2408   20.1234 C   0  0  0  0  0  0
  -25.5953  -33.8550   24.2247 N   0  0  0  0  0  0
  -23.4286  -30.4809   21.5439 C   0  0  2  0  0  0
  -24.8727  -28.9350   20.1037 C   0  0  0  0  0  0
  -22.7515  -29.4595   22.4903 C   0  0  0  0  0  0
  -18.0294  -28.1387   22.8474 C   0  0  0  0  0  0
  -24.1492  -36.7281   23.2635 C   0  0  0  0  0  0
  -25.9783  -30.7560   21.3908 C   0  0  0  0  0  0
  -26.0434  -29.3800   20.7293 C   0  0  0  0  0  0
  -27.2066  -28.5419   20.7376 C   0  0  0  0  0  0
  -26.0189  -26.8953   19.4292 C   0  0  0  0  0  0
  -24.8676  -27.7020   19.4417 C   0  0  0  0  0  0
  -23.6469  -29.8244   20.1561 C   0  0  0  0  0  0
  -25.4118  -36.3057   24.0316 C   0  0  1  0  0  0
  -20.5898  -28.3701   23.1264 C   0  0  2  0  0  0
  -20.6781  -26.9417   22.5404 C   0  0  0  0  0  0
  -19.5753  -26.6383   21.5208 C   0  0  0  0  0  0
  -18.1937  -26.7927   22.1619 C   0  0  0  0  0  0
  -19.1550  -28.8860   23.2861 C   0  0  0  0  0  0
  -18.9471  -30.1463   23.8876 C   0  0  0  0  0  0
  -17.6469  -30.6584   24.0561 C   0  0  0  0  0  0
  -25.9066  -34.9430   23.5082 C   0  0  0  0  0  0
  -16.5361  -29.9083   23.6333 C   0  0  0  0  0  0
  -16.7282  -28.6506   23.0345 C   0  0  0  0  0  0
  -26.4515  -31.6576   25.0738 C   0  0  0  0  0  0
  -25.3736  -31.3754   26.1461 C   0  0  0  0  0  0
  -27.0370  -30.2979   24.6271 C   0  0  0  0  0  0
  -27.6049  -32.4340   25.7524 C   0  0  0  0  0  0
  -27.5578  -37.1795   24.8460 C   0  0  0  0  0  0
  -21.4220  -29.3042   22.3652 N   0  0  0  0  0  0
  -26.4284  -37.3762   23.9409 N   0  0  0  0  0  0
  -24.6986  -31.0503   22.0993 N   0  0  0  0  0  0
  -23.4218  -28.8126   23.2995 O   0  0  0  0  0  0
  -28.2814  -26.3200   20.2275 O   0  0  0  0  0  0
  -26.5636  -34.8906   22.4652 O   0  0  0  0  0  0
  -23.5477  -32.1394   23.7280 O   0  0  0  0  0  0
  -29.6075  -18.4743   20.7293 C   0  0  0  0  0  0
  -29.3900  -19.5554   18.5567 C   0  0  0  0  0  0
  -29.7818  -17.1373   18.6988 C   0  0  0  0  0  0
  -29.4178  -19.7032   19.9611 C   0  0  0  0  0  0
  -29.7936  -17.1612   20.1120 C   0  0  0  0  0  0
  -29.5769  -18.3040   17.9375 C   0  0  0  0  0  0
  -30.3459  -21.8116   20.9348 C   0  0  0  0  0  0
  -30.1440  -23.3464   20.8594 C   0  0  0  0  0  0
  -28.2982  -22.1264   20.0060 C   0  0  0  0  0  0
  -28.6456  -23.5607   20.6116 C   0  0  2  0  0  0
  -28.1290  -24.8744   19.8058 C   0  0  0  0  0  0
  -29.2946  -21.0991   20.4722 N   0  0  0  0  0  0
  -29.8722  -15.8503   20.8083 N   0  0  0  0  0  0
  -31.3855  -21.3238   21.3899 O   0  0  0  0  0  0
  -29.5540  -18.2137   16.5751 O   0  0  0  0  0  0
  -31.4772  -12.5492   19.1900 H   0  0  0  0  0  0
  -30.3617  -11.4567   19.9589 H   0  0  0  0  0  0
  -29.7937  -11.7423   17.5222 H   0  0  0  0  0  0
  -29.6533  -13.4681   17.7383 H   0  0  0  0  0  0
  -27.8810  -11.2957   18.8985 H   0  0  0  0  0  0
  -27.3864  -12.5543   17.8005 H   0  0  0  0  0  0
  -27.6519  -14.2612   19.4931 H   0  0  0  0  0  0
  -28.7100  -12.1438   21.4257 H   0  0  0  0  0  0
  -28.4207  -13.8151   21.8201 H   0  0  0  0  0  0
  -25.2753   -9.5680   22.4749 H   0  0  0  0  0  0
  -23.9987   -7.4637   22.7475 H   0  0  0  0  0  0
  -21.0826   -8.8770   19.8972 H   0  0  0  0  0  0
  -22.3685  -10.9655   19.6159 H   0  0  0  0  0  0
  -21.2019   -7.6134   23.9698 H   0  0  0  0  0  0
  -21.1483   -6.0522   25.9072 H   0  0  0  0  0  0
  -22.0603   -2.7597   23.2854 H   0  0  0  0  0  0
  -22.4097  -11.9894   22.4801 H   0  0  0  0  0  0
  -21.1083  -13.1247   22.2627 H   0  0  0  0  0  0
  -24.6630  -15.8506   20.5336 H   0  0  0  0  0  0
  -26.2797  -15.6289   20.0940 H   0  0  0  0  0  0
  -26.7214  -32.5370   23.1071 H   0  0  0  0  0  0
  -25.0104  -33.9695   25.0395 H   0  0  0  0  0  0
  -22.7240  -31.3031   21.4020 H   0  0  0  0  0  0
  -23.3748  -35.9618   23.3287 H   0  0  0  0  0  0
  -24.3584  -36.8924   22.2052 H   0  0  0  0  0  0
  -23.7255  -37.6478   23.6679 H   0  0  0  0  0  0
  -26.1303  -31.5154   20.6226 H   0  0  0  0  0  0
  -26.8514  -30.7961   22.0307 H   0  0  0  0  0  0
  -28.0944  -28.8685   21.2604 H   0  0  0  0  0  0
  -25.9249  -25.9865   18.8587 H   0  0  0  0  0  0
  -23.9799  -27.3689   18.9214 H   0  0  0  0  0  0
  -23.7769  -30.6053   19.4061 H   0  0  0  0  0  0
  -22.7636  -29.2637   19.8448 H   0  0  0  0  0  0
  -25.1300  -36.1893   25.0803 H   0  0  0  0  0  0
  -20.9983  -28.3278   24.1388 H   0  0  0  0  0  0
  -20.5685  -26.2312   23.3615 H   0  0  0  0  0  0
  -21.6651  -26.7442   22.1201 H   0  0  0  0  0  0
  -19.6922  -25.6292   21.1244 H   0  0  0  0  0  0
  -19.6688  -27.3188   20.6735 H   0  0  0  0  0  0
  -17.4208  -26.6669   21.4021 H   0  0  0  0  0  0
  -18.0336  -26.0076   22.9024 H   0  0  0  0  0  0
  -19.7947  -30.7280   24.2237 H   0  0  0  0  0  0
  -17.5026  -31.6261   24.5172 H   0  0  0  0  0  0
  -15.5362  -30.2978   23.7667 H   0  0  0  0  0  0
  -15.8684  -28.0823   22.7062 H   0  0  0  0  0  0
  -24.5897  -30.7112   25.7806 H   0  0  0  0  0  0
  -24.8949  -32.2938   26.4869 H   0  0  0  0  0  0
  -25.8052  -30.8947   27.0251 H   0  0  0  0  0  0
  -26.2970  -29.6719   24.1271 H   0  0  0  0  0  0
  -27.3994  -29.7255   25.4821 H   0  0  0  0  0  0
  -27.8876  -30.4224   23.9568 H   0  0  0  0  0  0
  -27.2621  -33.3637   26.2084 H   0  0  0  0  0  0
  -28.3872  -32.6917   25.0370 H   0  0  0  0  0  0
  -28.0707  -31.8489   26.5468 H   0  0  0  0  0  0
  -28.2577  -38.0107   24.7514 H   0  0  0  0  0  0
  -28.1090  -36.2640   24.6267 H   0  0  0  0  0  0
  -27.2304  -37.1421   25.8863 H   0  0  0  0  0  0
  -20.9417  -29.8785   21.6867 H   0  0  0  0  0  0
  -26.0153  -38.2829   24.1420 H   0  0  0  0  0  0
  -29.6068  -18.5402   21.8080 H   0  0  0  0  0  0
  -29.2572  -20.4293   17.9352 H   0  0  0  0  0  0
  -29.8951  -16.1984   18.1761 H   0  0  0  0  0  0
  -30.7322  -23.7320   20.0266 H   0  0  0  0  0  0
  -30.4827  -23.8379   21.7716 H   0  0  0  0  0  0
  -28.3156  -22.1837   18.9173 H   0  0  0  0  0  0
  -27.2899  -21.8208   20.2874 H   0  0  0  0  0  0
  -28.1744  -23.6048   21.5951 H   0  0  0  0  0  0
  -27.0739  -24.6315   19.7443 H   0  0  0  0  0  0
  -28.4974  -24.8117   18.7818 H   0  0  0  0  0  0
  -29.0762  -15.6444   21.3945 H   0  0  0  0  0  0
  -29.3714  -19.0442   16.1455 H   0  0  0  0  0  0
  1 25  1  0  0  0
  1 30  2  0  0  0
  1 83  1  0  0  0
  2  3  1  0  0  0
  2 25  1  0  0  0
  2 86  1  0  0  0
  2 87  1  0  0  0
  3  4  1  0  0  0
  3 88  1  0  0  0
  3 89  1  0  0  0
  4  5  1  0  0  0
  4 90  1  0  0  0
  4 91  1  0  0  0
  5  6  1  0  0  0
  5 26  1  0  0  0
  5 92  1  0  0  0
  6 25  1  0  0  0
  6 93  1  0  0  0
  6 94  1  0  0  0
  7  8  2  0  0  0
  7 26  1  0  0  0
  7 29  1  0  0  0
  8  9  1  0  0  0
  8 22  1  0  0  0
  9 10  1  0  0  0
  9 27  2  0  0  0
 10 11  2  0  0  0
 10 15  1  0  0  0
 11 12  1  0  0  0
 11 95  1  0  0  0
 12 13  2  0  0  0
 12 96  1  0  0  0
 13 14  1  0  0  0
 13 31  1  0  0  0
 14 15  2  0  0  0
 14 97  1  0  0  0
 15 98  1  0  0  0
 16 17  2  0  0  0
 16 21  1  0  0  0
 16 31  1  0  0  0
 17 18  1  0  0  0
 17 99  1  0  0  0
 18 19  2  0  0  0
 18100  1  0  0  0
 19 20  1  0  0  0
 19 24  1  0  0  0
 20 21  2  0  0  0
 20101  1  0  0  0
 21 23  1  0  0  0
 22 28  1  0  0  0
 22 32  2  0  0  0
 26 27  1  0  0  0
 28102  1  0  0  0
 28103  1  0  0  0
 29104  1  0  0  0
 29105  1  0  0  0
 33 34  1  0  0  0
 33 66  1  0  0  0
 33 70  2  0  0  0
 34 36  1  0  0  0
 34 59  1  0  0  0
 34106  1  0  0  0
 35 44  2  0  0  0
 35 45  1  0  0  0
 35 68  1  0  0  0
 36 56  1  0  0  0
 36107  1  0  0  0
 37 39  1  0  0  0
 37 47  1  0  0  0
 37 66  1  0  0  0
 37108  1  0  0  0
 38 43  2  0  0  0
 38 46  1  0  0  0
 38 47  1  0  0  0
 39 64  1  0  0  0
 39 67  2  0  0  0
 40 52  1  0  0  0
 40 53  2  0  0  0
 40 58  1  0  0  0
 41109  1  0  0  0
 41110  1  0  0  0
 41111  1  0  0  0
 41 48  1  0  0  0
 42 43  1  0  0  0
 42 66  1  0  0  0
 42112  1  0  0  0
 42113  1  0  0  0
 43 44  1  0  0  0
 44114  1  0  0  0
 45 46  2  0  0  0
 45115  1  0  0  0
 46116  1  0  0  0
 47117  1  0  0  0
 47118  1  0  0  0
 48 56  1  0  0  0
 48 65  1  0  0  0
 48119  1  0  0  0
 49 50  1  0  0  0
 49 53  1  0  0  0
 49 64  1  0  0  0
 49120  1  0  0  0
 50 51  1  0  0  0
 50121  1  0  0  0
 50122  1  0  0  0
 51 52  1  0  0  0
 51123  1  0  0  0
 51124  1  0  0  0
 52125  1  0  0  0
 52126  1  0  0  0
 53 54  1  0  0  0
 54 55  2  0  0  0
 54127  1  0  0  0
 55 57  1  0  0  0
 55128  1  0  0  0
 56 69  2  0  0  0
 57 58  2  0  0  0
 57129  1  0  0  0
 58130  1  0  0  0
 59 60  1  0  0  0
 59 61  1  0  0  0
 59 62  1  0  0  0
 60131  1  0  0  0
 60132  1  0  0  0
 60133  1  0  0  0
 61134  1  0  0  0
 61135  1  0  0  0
 61136  1  0  0  0
 62137  1  0  0  0
 62138  1  0  0  0
 62139  1  0  0  0
 63 65  1  0  0  0
 63140  1  0  0  0
 63141  1  0  0  0
 63142  1  0  0  0
 64143  1  0  0  0
 65144  1  0  0  0
 68 81  1  0  0  0
 71 74  2  0  0  0
 71 75  1  0  0  0
 71145  1  0  0  0
 72 74  1  0  0  0
 72 76  2  0  0  0
 72146  1  0  0  0
 73 75  2  0  0  0
 73 76  1  0  0  0
 73147  1  0  0  0
 74 82  1  0  0  0
 75 83  1  0  0  0
 76 85  1  0  0  0
 77 78  1  0  0  0
 77 82  1  0  0  0
 77 84  2  0  0  0
 78 80  1  0  0  0
 78148  1  0  0  0
 78149  1  0  0  0
 79 80  1  0  0  0
 79 82  1  0  0  0
 79150  1  0  0  0
 79151  1  0  0  0
 80 81  1  0  0  0
 80152  1  0  0  0
 81153  1  0  0  0
 81154  1  0  0  0
 83155  1  0  0  0
 85156  1  0  0  0
M  ISO  4   1 100  68 101  81 101  83 100
M  END
> <chiral flag>
0

> <version>
0

> <s_m_source_file>
/data/baiqing/PycharmProjects/Reinvent-master-3.2/result/LINK_invent/BTK/process_docking_weight1_custom_product_contain_oxygen_bond_distance_aromatic_linkinvent_7_9_3/rearranged_h_0095.sdf

> <i_m_source_file_index>
18

> <r_mmod_Potential_Energy-OPLS-2005>
278.850616455078

> <r_mmod_Stretch_Energy-OPLS-2005>
124.782867431641

> <r_mmod_Bend_Energy-OPLS-2005>
200.877410888672

> <r_mmod_Torsional_Energy-OPLS-2005>
314.246978759766

> <r_mmod_Improper_Torsional_Energy-OPLS-2005>
6.31097793579102

> <r_mmod_Van_der_Waal_Energy-OPLS-2005>
137.537170410156

> <r_mmod_Electrostatic_Energy-OPLS-2005>
-335.948120117188

> <r_mmod_Solvation_Energy-OPLS-2005>
-258.787200927734

> <b_mmod_Minimization_Converged-OPLS-2005>
0

> <r_mmod_RMS_Derivative-OPLS-2005>
1.85758113861084

$$$$
18
                    3D
 Structure written by MMmdl.
155163  0  0  1  0            999 V2000
  -30.7219  -14.7121   20.3666 C   0  0  0  0  0  0
  -30.3841  -12.4302   19.4482 C   0  0  0  0  0  0
  -29.4859  -12.4562   18.2100 C   0  0  0  0  0  0
  -28.0087  -12.3002   18.6329 C   0  0  0  0  0  0
  -27.6109  -13.2288   19.8109 C   0  0  2  0  0  0
  -28.6682  -13.2516   20.9360 C   0  0  0  0  0  0
  -25.2363  -13.8072   20.5596 C   0  0  0  0  0  0
  -24.1757  -13.0366   20.9311 C   0  0  0  0  0  0
  -24.6375  -11.6860   20.8847 C   0  0  0  0  0  0
  -23.9065  -10.4294   21.0454 C   0  0  0  0  0  0
  -24.3661   -9.4240   21.9210 C   0  0  0  0  0  0
  -23.6343   -8.2271   22.0760 C   0  0  0  0  0  0
  -22.4309   -8.0336   21.3568 C   0  0  0  0  0  0
  -21.9961   -9.0287   20.4648 C   0  0  0  0  0  0
  -22.7264  -10.2164   20.3072 C   0  0  0  0  0  0
  -21.6911   -6.0767   22.5267 C   0  0  0  0  0  0
  -21.4021   -6.5679   23.8185 C   0  0  0  0  0  0
  -21.3625   -5.6825   24.9141 C   0  0  0  0  0  0
  -21.6038   -4.3094   24.7191 C   0  0  0  0  0  0
  -21.8828   -3.8188   23.4320 C   0  0  0  0  0  0
  -21.9234   -4.6998   22.3378 C   0  0  0  0  0  0
  -22.7806  -13.5197   21.1827 C   0  0  0  0  0  0
  -22.1722   -4.2212   21.0954 F   0  0  0  0  0  0
  -21.5613   -3.4558   25.7688 F   0  0  0  0  0  0
  -29.9493  -13.5672   20.2897 N   0  0  0  0  0  0
  -26.2769  -12.9302   20.3112 N   0  0  0  0  0  0
  -25.9272  -11.6459   20.5796 N   0  0  0  0  0  0
  -22.0430  -12.8245   22.0434 N   0  0  0  0  0  0
  -25.3686  -15.1733   20.3430 N   0  0  0  0  0  0
  -31.9412  -14.6098   20.2443 O   0  0  0  0  0  0
  -21.6714   -6.8909   21.4229 O   0  0  0  0  0  0
  -22.3515  -14.5491   20.6634 O   0  0  0  0  0  0
  -24.6517  -31.8640   23.1966 C   0  0  0  0  0  0
  -25.9300  -32.4744   23.8377 C   0  0  1  0  0  0
  -27.1610  -27.2277   20.0703 C   0  0  0  0  0  0
  -25.6042  -33.8543   24.2277 N   0  0  0  0  0  0
  -23.4455  -30.5033   21.5511 C   0  0  2  0  0  0
  -24.8593  -28.9454   20.0994 C   0  0  0  0  0  0
  -22.7627  -29.4894   22.5008 C   0  0  0  0  0  0
  -18.0207  -28.1519   22.8680 C   0  0  0  0  0  0
  -24.1474  -36.7276   23.2667 C   0  0  0  0  0  0
  -26.0009  -30.7487   21.3806 C   0  0  0  0  0  0
  -26.0522  -29.3796   20.7023 C   0  0  0  0  0  0
  -27.2151  -28.5320   20.6772 C   0  0  0  0  0  0
  -25.9345  -26.8532   19.4819 C   0  0  0  0  0  0
  -24.8057  -27.6919   19.4860 C   0  0  0  0  0  0
  -23.6461  -29.8545   20.1560 C   0  0  0  0  0  0
  -25.4126  -36.3123   24.0375 C   0  0  1  0  0  0
  -20.5865  -28.4135   23.1569 C   0  0  2  0  0  0
  -20.6842  -26.9891   22.5414 C   0  0  0  0  0  0
  -19.5692  -26.6801   21.5310 C   0  0  0  0  0  0
  -18.1881  -26.8203   22.1735 C   0  0  0  0  0  0
  -19.1426  -28.9101   23.3135 C   0  0  0  0  0  0
  -18.9101  -30.1637   23.9038 C   0  0  0  0  0  0
  -17.5976  -30.6320   24.1065 C   0  0  0  0  0  0
  -25.9136  -34.9476   23.5164 C   0  0  0  0  0  0
  -16.5030  -29.8995   23.6305 C   0  0  0  0  0  0
  -16.7142  -28.6515   23.0279 C   0  0  0  0  0  0
  -26.4537  -31.6619   25.0830 C   0  0  0  0  0  0
  -25.3728  -31.3738   26.1520 C   0  0  0  0  0  0
  -27.0345  -30.3041   24.6354 C   0  0  0  0  0  0
  -27.6101  -32.4340   25.7539 C   0  0  0  0  0  0
  -27.5583  -37.1819   24.8493 C   0  0  0  0  0  0
  -21.4277  -29.3809   22.4288 N   0  0  0  0  0  0
  -26.4280  -37.3840   23.9470 N   0  0  0  0  0  0
  -24.7269  -31.0600   22.0954 N   0  0  0  0  0  0
  -23.4346  -28.8060   23.2768 O   0  0  0  0  0  0
  -28.2135  -26.2793   19.9975 O   0  0  0  0  0  0
  -26.5636  -34.8947   22.4679 O   0  0  0  0  0  0
  -23.5640  -32.1448   23.7195 O   0  0  0  0  0  0
  -28.8145  -21.1025   19.5817 C   0  0  0  0  0  0
  -26.9167  -19.5721   19.6410 C   0  0  0  0  0  0
  -27.9518  -22.2850   19.5154 C   0  0  0  0  0  0
  -28.3207  -19.7240   19.6177 C   0  0  0  0  0  0
  -26.0584  -20.6913   19.6152 C   0  0  0  0  0  0
  -26.5627  -22.0018   19.5051 C   0  0  0  0  0  0
  -28.4142  -23.7816   19.4278 C   0  0  0  0  0  0
  -27.8803  -24.8910   20.0749 C   0  0  0  0  0  0
  -29.1346  -16.8946   20.1110 C   0  0  0  0  0  0
  -29.2211  -18.3965   19.5835 C   0  0  0  0  0  0
  -24.6787  -20.5004   19.6619 N   0  0  0  0  0  0
  -30.2573  -16.0905   20.0020 N   0  0  0  0  0  0
  -27.9913  -16.4418   20.6562 N   0  3  0  0  0  0
  -25.6458  -22.9875   19.2679 O   0  0  0  0  0  0
  -31.4282  -12.4808   19.1483 H   0  0  0  0  0  0
  -30.2736  -11.4813   19.9879 H   0  0  0  0  0  0
  -29.7669  -11.6581   17.5216 H   0  0  0  0  0  0
  -29.6239  -13.3954   17.6788 H   0  0  0  0  0  0
  -27.8655  -11.2512   18.9047 H   0  0  0  0  0  0
  -27.3568  -12.4842   17.7716 H   0  0  0  0  0  0
  -27.5767  -14.2239   19.3670 H   0  0  0  0  0  0
  -28.7163  -12.2871   21.4477 H   0  0  0  0  0  0
  -28.4135  -13.9731   21.7134 H   0  0  0  0  0  0
  -25.2774   -9.5786   22.4831 H   0  0  0  0  0  0
  -24.0063   -7.4709   22.7531 H   0  0  0  0  0  0
  -21.0868   -8.8811   19.9002 H   0  0  0  0  0  0
  -22.3678  -10.9732   19.6246 H   0  0  0  0  0  0
  -21.2016   -7.6194   23.9688 H   0  0  0  0  0  0
  -21.1407   -6.0554   25.9027 H   0  0  0  0  0  0
  -22.0624   -2.7673   23.2769 H   0  0  0  0  0  0
  -22.3991  -11.9878   22.4767 H   0  0  0  0  0  0
  -21.1031  -13.1231   22.2570 H   0  0  0  0  0  0
  -24.4624  -15.6316   20.4208 H   0  0  0  0  0  0
  -25.7296  -15.3151   19.4051 H   0  0  0  0  0  0
  -26.7429  -32.5201   23.1146 H   0  0  0  0  0  0
  -25.0117  -33.9650   25.0379 H   0  0  0  0  0  0
  -22.7543  -31.3317   21.3839 H   0  0  0  0  0  0
  -23.3788  -35.9548   23.3351 H   0  0  0  0  0  0
  -24.3572  -36.8846   22.2079 H   0  0  0  0  0  0
  -23.7088  -37.6459   23.6592 H   0  0  0  0  0  0
  -26.1682  -31.5124   20.6195 H   0  0  0  0  0  0
  -26.8718  -30.7712   22.0235 H   0  0  0  0  0  0
  -28.1275  -28.8551   21.1597 H   0  0  0  0  0  0
  -25.8121  -25.8842   19.0153 H   0  0  0  0  0  0
  -23.8871  -27.3474   19.0257 H   0  0  0  0  0  0
  -23.7613  -30.6313   19.3989 H   0  0  0  0  0  0
  -22.7689  -29.2784   19.8472 H   0  0  0  0  0  0
  -25.1276  -36.2037   25.0851 H   0  0  0  0  0  0
  -20.9691  -28.3311   24.1740 H   0  0  0  0  0  0
  -20.6257  -26.2466   23.3376 H   0  0  0  0  0  0
  -21.6610  -26.8382   22.0730 H   0  0  0  0  0  0
  -19.6772  -25.6723   21.1201 H   0  0  0  0  0  0
  -19.6436  -27.3906   20.6958 H   0  0  0  0  0  0
  -17.4197  -26.7350   21.4038 H   0  0  0  0  0  0
  -18.0008  -26.0442   22.9000 H   0  0  0  0  0  0
  -19.7402  -30.7648   24.2360 H   0  0  0  0  0  0
  -17.4264  -31.5729   24.6051 H   0  0  0  0  0  0
  -15.4915  -30.2633   23.7633 H   0  0  0  0  0  0
  -15.8540  -28.0793   22.6907 H   0  0  0  0  0  0
  -24.6131  -30.6828   25.7909 H   0  0  0  0  0  0
  -24.8626  -32.2800   26.4801 H   0  0  0  0  0  0
  -25.8195  -30.9096   27.0343 H   0  0  0  0  0  0
  -26.2976  -29.6869   24.1247 H   0  0  0  0  0  0
  -27.3793  -29.7229   25.4918 H   0  0  0  0  0  0
  -27.8912  -30.4309   23.9736 H   0  0  0  0  0  0
  -27.2757  -33.3606   26.2157 H   0  0  0  0  0  0
  -28.3836  -32.6910   25.0322 H   0  0  0  0  0  0
  -28.0799  -31.8445   26.5387 H   0  0  0  0  0  0
  -28.2664  -38.0080   24.7589 H   0  0  0  0  0  0
  -28.1006  -36.2620   24.6248 H   0  0  0  0  0  0
  -27.2321  -37.1432   25.8903 H   0  0  0  0  0  0
  -20.9454  -30.0704   21.8736 H   0  0  0  0  0  0
  -26.0221  -38.2961   24.1372 H   0  0  0  0  0  0
  -29.8827  -21.2484   19.6080 H   0  0  0  0  0  0
  -26.5049  -18.5669   19.6035 H   0  0  0  0  0  0
  -29.2076  -23.9960   18.7223 H   0  0  0  0  0  0
  -27.0624  -24.7469   20.7592 H   0  0  0  0  0  0
  -28.5495  -18.1177   18.7422 H   0  0  0  0  0  0
  -29.0406  -18.6235   20.6324 H   0  0  0  0  0  0
  -24.1322  -21.3011   19.9574 H   0  0  0  0  0  0
  -24.4321  -19.7073   20.2537 H   0  0  0  0  0  0
  -31.0064  -16.6948   19.7075 H   0  0  0  0  0  0
  -27.1280  -16.9638   20.6361 H   0  0  0  0  0  0
  -27.9012  -15.5127   21.0400 H   0  0  0  0  0  0
  -24.8735  -22.5866   18.8724 H   0  0  0  0  0  0
  1 25  1  0  0  0
  1 30  2  0  0  0
  1 82  1  0  0  0
  2  3  1  0  0  0
  2 25  1  0  0  0
  2 85  1  0  0  0
  2 86  1  0  0  0
  3  4  1  0  0  0
  3 87  1  0  0  0
  3 88  1  0  0  0
  4  5  1  0  0  0
  4 89  1  0  0  0
  4 90  1  0  0  0
  5  6  1  0  0  0
  5 26  1  0  0  0
  5 91  1  0  0  0
  6 25  1  0  0  0
  6 92  1  0  0  0
  6 93  1  0  0  0
  7  8  2  0  0  0
  7 26  1  0  0  0
  7 29  1  0  0  0
  8  9  1  0  0  0
  8 22  1  0  0  0
  9 10  1  0  0  0
  9 27  2  0  0  0
 10 11  2  0  0  0
 10 15  1  0  0  0
 11 12  1  0  0  0
 11 94  1  0  0  0
 12 13  2  0  0  0
 12 95  1  0  0  0
 13 14  1  0  0  0
 13 31  1  0  0  0
 14 15  2  0  0  0
 14 96  1  0  0  0
 15 97  1  0  0  0
 16 17  2  0  0  0
 16 21  1  0  0  0
 16 31  1  0  0  0
 17 18  1  0  0  0
 17 98  1  0  0  0
 18 19  2  0  0  0
 18 99  1  0  0  0
 19 20  1  0  0  0
 19 24  1  0  0  0
 20 21  2  0  0  0
 20100  1  0  0  0
 21 23  1  0  0  0
 22 28  1  0  0  0
 22 32  2  0  0  0
 26 27  1  0  0  0
 28101  1  0  0  0
 28102  1  0  0  0
 29103  1  0  0  0
 29104  1  0  0  0
 33 34  1  0  0  0
 33 66  1  0  0  0
 33 70  2  0  0  0
 34 36  1  0  0  0
 34 59  1  0  0  0
 34105  1  0  0  0
 35 44  2  0  0  0
 35 45  1  0  0  0
 35 68  1  0  0  0
 36 56  1  0  0  0
 36106  1  0  0  0
 37 39  1  0  0  0
 37 47  1  0  0  0
 37 66  1  0  0  0
 37107  1  0  0  0
 38 43  2  0  0  0
 38 46  1  0  0  0
 38 47  1  0  0  0
 39 64  1  0  0  0
 39 67  2  0  0  0
 40 52  1  0  0  0
 40 53  2  0  0  0
 40 58  1  0  0  0
 41108  1  0  0  0
 41109  1  0  0  0
 41110  1  0  0  0
 41 48  1  0  0  0
 42 43  1  0  0  0
 42 66  1  0  0  0
 42111  1  0  0  0
 42112  1  0  0  0
 43 44  1  0  0  0
 44113  1  0  0  0
 45 46  2  0  0  0
 45114  1  0  0  0
 46115  1  0  0  0
 47116  1  0  0  0
 47117  1  0  0  0
 48 56  1  0  0  0
 48 65  1  0  0  0
 48118  1  0  0  0
 49 50  1  0  0  0
 49 53  1  0  0  0
 49 64  1  0  0  0
 49119  1  0  0  0
 50 51  1  0  0  0
 50120  1  0  0  0
 50121  1  0  0  0
 51 52  1  0  0  0
 51122  1  0  0  0
 51123  1  0  0  0
 52124  1  0  0  0
 52125  1  0  0  0
 53 54  1  0  0  0
 54 55  2  0  0  0
 54126  1  0  0  0
 55 57  1  0  0  0
 55127  1  0  0  0
 56 69  2  0  0  0
 57 58  2  0  0  0
 57128  1  0  0  0
 58129  1  0  0  0
 59 60  1  0  0  0
 59 61  1  0  0  0
 59 62  1  0  0  0
 60130  1  0  0  0
 60131  1  0  0  0
 60132  1  0  0  0
 61133  1  0  0  0
 61134  1  0  0  0
 61135  1  0  0  0
 62136  1  0  0  0
 62137  1  0  0  0
 62138  1  0  0  0
 63 65  1  0  0  0
 63139  1  0  0  0
 63140  1  0  0  0
 63141  1  0  0  0
 64142  1  0  0  0
 65143  1  0  0  0
 68 78  1  0  0  0
 71 73  2  0  0  0
 71 74  1  0  0  0
 71144  1  0  0  0
 72 74  2  0  0  0
 72 75  1  0  0  0
 72145  1  0  0  0
 73 76  1  0  0  0
 73 77  1  0  0  0
 74 80  1  0  0  0
 75 76  2  0  0  0
 75 81  1  0  0  0
 76 84  1  0  0  0
 77 78  2  0  0  0
 77146  1  0  0  0
 78147  1  0  0  0
 79 80  1  0  0  0
 79 82  1  0  0  0
 79 83  2  0  0  0
 80148  1  0  0  0
 80149  1  0  0  0
 81150  1  0  0  0
 81151  1  0  0  0
 82152  1  0  0  0
 83153  1  0  0  0
 83154  1  0  0  0
 84155  1  0  0  0
M  CHG  1  83   1
M  ISO  4   1 100  68 101  78 101  82 100
M  END
> <chiral flag>
0

> <version>
0

> <s_m_source_file>
/data/baiqing/PycharmProjects/Reinvent-master-3.2/result/LINK_invent/BTK/process_docking_weight1_custom_product_contain_oxygen_bond_distance_aromatic_linkinvent_7_9_3/rearranged_h_0095.sdf

> <i_m_source_file_index>
19

> <r_mmod_Potential_Energy-OPLS-2005>
440.650848388672

> <r_mmod_Stretch_Energy-OPLS-2005>
134.42253112793

> <r_mmod_Bend_Energy-OPLS-2005>
423.445556640625

> <r_mmod_Torsional_Energy-OPLS-2005>
304.862213134766

> <r_mmod_Improper_Torsional_Energy-OPLS-2005>
32.5607490539551

> <r_mmod_Van_der_Waal_Energy-OPLS-2005>
161.284866333008

> <r_mmod_Electrostatic_Energy-OPLS-2005>
-257.955932617188

> <r_mmod_Solvation_Energy-OPLS-2005>
-478.387054443359

> <b_mmod_Minimization_Converged-OPLS-2005>
0

> <r_mmod_RMS_Derivative-OPLS-2005>
21.1397132873535

$$$$
19
                    3D
 Structure written by MMmdl.
147155  0  0  1  0            999 V2000
  -30.5190  -15.0448   20.3977 C   0  0  0  0  0  0
  -30.4357  -12.6521   19.5066 C   0  0  0  0  0  0
  -29.5231  -12.5430   18.2631 C   0  0  0  0  0  0
  -28.0601  -12.3125   18.6835 C   0  0  0  0  0  0
  -27.6220  -13.2586   19.8315 C   0  0  2  0  0  0
  -28.6636  -13.3362   20.9674 C   0  0  0  0  0  0
  -25.2432  -13.8233   20.5735 C   0  0  0  0  0  0
  -24.1760  -13.0438   20.9237 C   0  0  0  0  0  0
  -24.6391  -11.6929   20.8751 C   0  0  0  0  0  0
  -23.9082  -10.4295   21.0401 C   0  0  0  0  0  0
  -24.3626   -9.4209   21.9179 C   0  0  0  0  0  0
  -23.6296   -8.2246   22.0751 C   0  0  0  0  0  0
  -22.4278   -8.0285   21.3543 C   0  0  0  0  0  0
  -21.9919   -9.0257   20.4641 C   0  0  0  0  0  0
  -22.7253  -10.2133   20.3052 C   0  0  0  0  0  0
  -21.6859   -6.0737   22.5277 C   0  0  0  0  0  0
  -21.4016   -6.5637   23.8210 C   0  0  0  0  0  0
  -21.3663   -5.6789   24.9170 C   0  0  0  0  0  0
  -21.6045   -4.3053   24.7220 C   0  0  0  0  0  0
  -21.8819   -3.8146   23.4341 C   0  0  0  0  0  0
  -21.9191   -4.6965   22.3399 C   0  0  0  0  0  0
  -22.7780  -13.5202   21.1888 C   0  0  0  0  0  0
  -22.1663   -4.2151   21.0978 F   0  0  0  0  0  0
  -21.5628   -3.4538   25.7733 F   0  0  0  0  0  0
  -29.9249  -13.7737   20.3555 N   0  0  0  0  0  0
  -26.2857  -12.9485   20.3237 N   0  0  0  0  0  0
  -25.9326  -11.6603   20.5727 N   0  0  0  0  0  0
  -22.0435  -12.8188   22.0443 N   0  0  0  0  0  0
  -25.4067  -15.1970   20.4194 N   0  0  0  0  0  0
  -31.7325  -15.0609   20.1608 O   0  0  0  0  0  0
  -21.6641   -6.8882   21.4241 O   0  0  0  0  0  0
  -22.3462  -14.5504   20.6730 O   0  0  0  0  0  0
  -24.6507  -31.8377   23.1815 C   0  0  0  0  0  0
  -25.9253  -32.4659   23.8228 C   0  0  1  0  0  0
  -27.2135  -27.0651   20.1617 C   0  0  0  0  0  0
  -25.5974  -33.8466   24.2144 N   0  0  0  0  0  0
  -23.4569  -30.4555   21.5293 C   0  0  2  0  0  0
  -24.9069  -28.8680   20.1112 C   0  0  0  0  0  0
  -22.7606  -29.4523   22.4835 C   0  0  0  0  0  0
  -18.0316  -28.1402   22.8471 C   0  0  0  0  0  0
  -24.1496  -36.7234   23.2642 C   0  0  0  0  0  0
  -26.0176  -30.6895   21.3897 C   0  0  0  0  0  0
  -26.0879  -29.2930   20.7327 C   0  0  0  0  0  0
  -27.2421  -28.4101   20.7365 C   0  0  0  0  0  0
  -26.0047  -26.7585   19.4997 C   0  0  0  0  0  0
  -24.8825  -27.6169   19.4773 C   0  0  0  0  0  0
  -23.6875  -29.7803   20.1509 C   0  0  0  0  0  0
  -25.4127  -36.3004   24.0308 C   0  0  1  0  0  0
  -20.5932  -28.3736   23.1218 C   0  0  2  0  0  0
  -20.6794  -26.9434   22.5400 C   0  0  0  0  0  0
  -19.5763  -26.6385   21.5212 C   0  0  0  0  0  0
  -18.1949  -26.7938   22.1624 C   0  0  0  0  0  0
  -19.1573  -28.8891   23.2833 C   0  0  0  0  0  0
  -18.9483  -30.1487   23.8861 C   0  0  0  0  0  0
  -17.6473  -30.6592   24.0566 C   0  0  0  0  0  0
  -25.9082  -34.9384   23.5032 C   0  0  0  0  0  0
  -16.5365  -29.9083   23.6343 C   0  0  0  0  0  0
  -16.7300  -28.6508   23.0355 C   0  0  0  0  0  0
  -26.4541  -31.6547   25.0697 C   0  0  0  0  0  0
  -25.3703  -31.3767   26.1380 C   0  0  0  0  0  0
  -27.0413  -30.2931   24.6325 C   0  0  0  0  0  0
  -27.6061  -32.4322   25.7491 C   0  0  0  0  0  0
  -27.5571  -37.1776   24.8465 C   0  0  0  0  0  0
  -21.4292  -29.3044   22.3581 N   0  0  0  0  0  0
  -26.4278  -37.3728   23.9411 N   0  0  0  0  0  0
  -24.7289  -31.0169   22.0883 N   0  0  0  0  0  0
  -23.4224  -28.8086   23.3015 O   0  0  0  0  0  0
  -28.2408  -26.0322   20.2319 O   0  0  0  0  0  0
  -26.5677  -34.8900   22.4617 O   0  0  0  0  0  0
  -23.5610  -32.1283   23.6996 O   0  0  0  0  0  0
  -31.8400  -19.5272   20.5198 C   0  0  0  0  0  0
  -31.4259  -18.1774   20.5254 C   0  0  0  0  0  0
  -30.9443  -20.6181   20.4363 C   0  0  0  0  0  0
  -30.0680  -17.7990   20.4466 C   0  0  0  0  0  0
  -29.5407  -20.4604   20.3525 C   0  0  0  0  0  0
  -29.1470  -18.9971   20.3639 C   0  0  0  0  0  0
  -29.0306  -23.2417   20.3469 C   0  0  0  0  0  0
  -27.9150  -24.4798   20.1003 C   0  0  0  0  0  0
  -29.7468  -16.2659   20.4805 N   0  0  0  0  0  0
  -30.1744  -23.6158   20.6151 O   0  0  0  0  0  0
  -28.6832  -21.6836   20.2520 O   0  0  0  0  0  0
  -27.8220  -18.7242   20.2864 F   0  0  0  0  0  0
  -31.4671  -12.8152   19.1905 H   0  0  0  0  0  0
  -30.4430  -11.7155   20.0664 H   0  0  0  0  0  0
  -29.8587  -11.7342   17.6130 H   0  0  0  0  0  0
  -29.5965  -13.4603   17.6761 H   0  0  0  0  0  0
  -27.9720  -11.2760   19.0108 H   0  0  0  0  0  0
  -27.3954  -12.4201   17.8256 H   0  0  0  0  0  0
  -27.5680  -14.2496   19.3804 H   0  0  0  0  0  0
  -28.7751  -12.3753   21.4718 H   0  0  0  0  0  0
  -28.3459  -14.0506   21.7286 H   0  0  0  0  0  0
  -25.2766   -9.5688   22.4760 H   0  0  0  0  0  0
  -24.0002   -7.4643   22.7476 H   0  0  0  0  0  0
  -21.0850   -8.8780   19.8949 H   0  0  0  0  0  0
  -22.3709  -10.9672   19.6165 H   0  0  0  0  0  0
  -21.2013   -7.6145   23.9713 H   0  0  0  0  0  0
  -21.1485   -6.0517   25.9072 H   0  0  0  0  0  0
  -22.0594   -2.7608   23.2838 H   0  0  0  0  0  0
  -22.4057  -11.9848   22.4830 H   0  0  0  0  0  0
  -21.1052  -13.1207   22.2650 H   0  0  0  0  0  0
  -24.6345  -15.8438   20.5399 H   0  0  0  0  0  0
  -26.2474  -15.6480   20.0843 H   0  0  0  0  0  0
  -26.7323  -32.5244   23.0953 H   0  0  0  0  0  0
  -25.0096  -33.9559   25.0280 H   0  0  0  0  0  0
  -22.7621  -31.2832   21.3706 H   0  0  0  0  0  0
  -23.3758  -35.9565   23.3283 H   0  0  0  0  0  0
  -24.3573  -36.8891   22.2060 H   0  0  0  0  0  0
  -23.7254  -37.6422   23.6696 H   0  0  0  0  0  0
  -26.1808  -31.4392   20.6145 H   0  0  0  0  0  0
  -26.8843  -30.7424   22.0363 H   0  0  0  0  0  0
  -28.1406  -28.7319   21.2443 H   0  0  0  0  0  0
  -25.8926  -25.8018   19.0126 H   0  0  0  0  0  0
  -23.9819  -27.2867   18.9775 H   0  0  0  0  0  0
  -23.8327  -30.5530   19.3950 H   0  0  0  0  0  0
  -22.7994  -29.2291   19.8369 H   0  0  0  0  0  0
  -25.1323  -36.1812   25.0799 H   0  0  0  0  0  0
  -21.0019  -28.3329   24.1341 H   0  0  0  0  0  0
  -20.5682  -26.2350   23.3622 H   0  0  0  0  0  0
  -21.6663  -26.7428   22.1205 H   0  0  0  0  0  0
  -19.6917  -25.6290   21.1262 H   0  0  0  0  0  0
  -19.6698  -27.3179   20.6729 H   0  0  0  0  0  0
  -17.4217  -26.6687   21.4030 H   0  0  0  0  0  0
  -18.0350  -26.0085   22.9026 H   0  0  0  0  0  0
  -19.7956  -30.7326   24.2199 H   0  0  0  0  0  0
  -17.5024  -31.6267   24.5181 H   0  0  0  0  0  0
  -15.5364  -30.2971   23.7685 H   0  0  0  0  0  0
  -15.8703  -28.0822   22.7071 H   0  0  0  0  0  0
  -24.5895  -30.7096   25.7704 H   0  0  0  0  0  0
  -24.8872  -32.2955   26.4708 H   0  0  0  0  0  0
  -25.7965  -30.9008   27.0219 H   0  0  0  0  0  0
  -26.3042  -29.6637   24.1322 H   0  0  0  0  0  0
  -27.3990  -29.7255   25.4924 H   0  0  0  0  0  0
  -27.8970  -30.4142   23.9681 H   0  0  0  0  0  0
  -27.2658  -33.3663   26.1971 H   0  0  0  0  0  0
  -28.3928  -32.6812   25.0359 H   0  0  0  0  0  0
  -28.0662  -31.8505   26.5486 H   0  0  0  0  0  0
  -28.2580  -38.0080   24.7512 H   0  0  0  0  0  0
  -28.1079  -36.2609   24.6294 H   0  0  0  0  0  0
  -27.2287  -37.1431   25.8867 H   0  0  0  0  0  0
  -20.9515  -29.8741   21.6739 H   0  0  0  0  0  0
  -26.0133  -38.2792   24.1410 H   0  0  0  0  0  0
  -32.8986  -19.7379   20.5837 H   0  0  0  0  0  0
  -32.1976  -17.4269   20.6002 H   0  0  0  0  0  0
  -31.3899  -21.5981   20.4306 H   0  0  0  0  0  0
  -27.0836  -24.2742   20.7743 H   0  0  0  0  0  0
  -27.5234  -24.3212   19.0959 H   0  0  0  0  0  0
  -28.7596  -16.0783   20.5640 H   0  0  0  0  0  0
  1 25  1  0  0  0
  1 30  2  0  0  0
  1 79  1  0  0  0
  2  3  1  0  0  0
  2 25  1  0  0  0
  2 83  1  0  0  0
  2 84  1  0  0  0
  3  4  1  0  0  0
  3 85  1  0  0  0
  3 86  1  0  0  0
  4  5  1  0  0  0
  4 87  1  0  0  0
  4 88  1  0  0  0
  5  6  1  0  0  0
  5 26  1  0  0  0
  5 89  1  0  0  0
  6 25  1  0  0  0
  6 90  1  0  0  0
  6 91  1  0  0  0
  7  8  2  0  0  0
  7 26  1  0  0  0
  7 29  1  0  0  0
  8  9  1  0  0  0
  8 22  1  0  0  0
  9 10  1  0  0  0
  9 27  2  0  0  0
 10 11  2  0  0  0
 10 15  1  0  0  0
 11 12  1  0  0  0
 11 92  1  0  0  0
 12 13  2  0  0  0
 12 93  1  0  0  0
 13 14  1  0  0  0
 13 31  1  0  0  0
 14 15  2  0  0  0
 14 94  1  0  0  0
 15 95  1  0  0  0
 16 17  2  0  0  0
 16 21  1  0  0  0
 16 31  1  0  0  0
 17 18  1  0  0  0
 17 96  1  0  0  0
 18 19  2  0  0  0
 18 97  1  0  0  0
 19 20  1  0  0  0
 19 24  1  0  0  0
 20 21  2  0  0  0
 20 98  1  0  0  0
 21 23  1  0  0  0
 22 28  1  0  0  0
 22 32  2  0  0  0
 26 27  1  0  0  0
 28 99  1  0  0  0
 28100  1  0  0  0
 29101  1  0  0  0
 29102  1  0  0  0
 33 34  1  0  0  0
 33 66  1  0  0  0
 33 70  2  0  0  0
 34 36  1  0  0  0
 34 59  1  0  0  0
 34103  1  0  0  0
 35 44  2  0  0  0
 35 45  1  0  0  0
 35 68  1  0  0  0
 36 56  1  0  0  0
 36104  1  0  0  0
 37 39  1  0  0  0
 37 47  1  0  0  0
 37 66  1  0  0  0
 37105  1  0  0  0
 38 43  2  0  0  0
 38 46  1  0  0  0
 38 47  1  0  0  0
 39 64  1  0  0  0
 39 67  2  0  0  0
 40 52  1  0  0  0
 40 53  2  0  0  0
 40 58  1  0  0  0
 41106  1  0  0  0
 41107  1  0  0  0
 41108  1  0  0  0
 41 48  1  0  0  0
 42 43  1  0  0  0
 42 66  1  0  0  0
 42109  1  0  0  0
 42110  1  0  0  0
 43 44  1  0  0  0
 44111  1  0  0  0
 45 46  2  0  0  0
 45112  1  0  0  0
 46113  1  0  0  0
 47114  1  0  0  0
 47115  1  0  0  0
 48 56  1  0  0  0
 48 65  1  0  0  0
 48116  1  0  0  0
 49 50  1  0  0  0
 49 53  1  0  0  0
 49 64  1  0  0  0
 49117  1  0  0  0
 50 51  1  0  0  0
 50118  1  0  0  0
 50119  1  0  0  0
 51 52  1  0  0  0
 51120  1  0  0  0
 51121  1  0  0  0
 52122  1  0  0  0
 52123  1  0  0  0
 53 54  1  0  0  0
 54 55  2  0  0  0
 54124  1  0  0  0
 55 57  1  0  0  0
 55125  1  0  0  0
 56 69  2  0  0  0
 57 58  2  0  0  0
 57126  1  0  0  0
 58127  1  0  0  0
 59 60  1  0  0  0
 59 61  1  0  0  0
 59 62  1  0  0  0
 60128  1  0  0  0
 60129  1  0  0  0
 60130  1  0  0  0
 61131  1  0  0  0
 61132  1  0  0  0
 61133  1  0  0  0
 62134  1  0  0  0
 62135  1  0  0  0
 62136  1  0  0  0
 63 65  1  0  0  0
 63137  1  0  0  0
 63138  1  0  0  0
 63139  1  0  0  0
 64140  1  0  0  0
 65141  1  0  0  0
 68 78  1  0  0  0
 71 72  2  0  0  0
 71 73  1  0  0  0
 71142  1  0  0  0
 72 74  1  0  0  0
 72143  1  0  0  0
 73 75  2  0  0  0
 73144  1  0  0  0
 74 76  2  0  0  0
 74 79  1  0  0  0
 75 76  1  0  0  0
 75 81  1  0  0  0
 76 82  1  0  0  0
 77 78  1  0  0  0
 77 80  2  0  0  0
 77 81  1  0  0  0
 78145  1  0  0  0
 78146  1  0  0  0
 79147  1  0  0  0
M  ISO  4   1 100  68 101  78 101  79 100
M  END
> <chiral flag>
0

> <version>
0

> <s_m_source_file>
/data/baiqing/PycharmProjects/Reinvent-master-3.2/result/LINK_invent/BTK/process_docking_weight1_custom_product_contain_oxygen_bond_distance_aromatic_linkinvent_7_9_3/rearranged_h_0095.sdf

> <i_m_source_file_index>
20

> <r_mmod_Potential_Energy-OPLS-2005>
674.607604980469

> <r_mmod_Stretch_Energy-OPLS-2005>
372.327819824219

> <r_mmod_Bend_Energy-OPLS-2005>
272.523864746094

> <r_mmod_Torsional_Energy-OPLS-2005>
205.212142944336

> <r_mmod_Improper_Torsional_Energy-OPLS-2005>
4.66091108322144

> <r_mmod_Van_der_Waal_Energy-OPLS-2005>
134.969390869141

> <r_mmod_Electrostatic_Energy-OPLS-2005>
-360.071014404297

> <r_mmod_Solvation_Energy-OPLS-2005>
-218.987457275391

> <b_mmod_Minimization_Converged-OPLS-2005>
0

> <r_mmod_RMS_Derivative-OPLS-2005>
1.05705416202545

$$$$
20
                    3D
 Structure written by MMmdl.
152160  0  0  1  0            999 V2000
  -30.6148  -14.6176   20.5104 C   0  0  0  0  0  0
  -30.4425  -12.3796   19.4440 C   0  0  0  0  0  0
  -29.5087  -12.5106   18.2191 C   0  0  0  0  0  0
  -28.0288  -12.3548   18.6272 C   0  0  0  0  0  0
  -27.6567  -13.2110   19.8665 C   0  0  2  0  0  0
  -28.7013  -13.0344   20.9919 C   0  0  0  0  0  0
  -25.2574  -13.8157   20.5692 C   0  0  0  0  0  0
  -24.1827  -13.0438   20.9189 C   0  0  0  0  0  0
  -24.6382  -11.6904   20.8729 C   0  0  0  0  0  0
  -23.9047  -10.4289   21.0399 C   0  0  0  0  0  0
  -24.3602   -9.4206   21.9180 C   0  0  0  0  0  0
  -23.6278   -8.2244   22.0755 C   0  0  0  0  0  0
  -22.4256   -8.0281   21.3552 C   0  0  0  0  0  0
  -21.9892   -9.0251   20.4654 C   0  0  0  0  0  0
  -22.7220  -10.2130   20.3054 C   0  0  0  0  0  0
  -21.6851   -6.0725   22.5275 C   0  0  0  0  0  0
  -21.4016   -6.5630   23.8207 C   0  0  0  0  0  0
  -21.3661   -5.6786   24.9169 C   0  0  0  0  0  0
  -21.6041   -4.3046   24.7224 C   0  0  0  0  0  0
  -21.8821   -3.8140   23.4347 C   0  0  0  0  0  0
  -21.9194   -4.6955   22.3403 C   0  0  0  0  0  0
  -22.7846  -13.5246   21.1850 C   0  0  0  0  0  0
  -22.1663   -4.2142   21.0980 F   0  0  0  0  0  0
  -21.5630   -3.4531   25.7740 F   0  0  0  0  0  0
  -30.0193  -13.3854   20.4366 N   0  0  0  0  0  0
  -26.2997  -12.9328   20.3310 N   0  0  0  0  0  0
  -25.9307  -11.6485   20.5722 N   0  0  0  0  0  0
  -22.0492  -12.8239   22.0405 N   0  0  0  0  0  0
  -25.4305  -15.1879   20.4126 N   0  0  0  0  0  0
  -31.7673  -14.8037   20.1073 O   0  0  0  0  0  0
  -21.6640   -6.8867   21.4237 O   0  0  0  0  0  0
  -22.3540  -14.5550   20.6700 O   0  0  0  0  0  0
  -24.6262  -31.8620   23.2063 C   0  0  0  0  0  0
  -25.9117  -32.4782   23.8384 C   0  0  1  0  0  0
  -27.2193  -27.3272   20.1043 C   0  0  0  0  0  0
  -25.5940  -33.8584   24.2307 N   0  0  0  0  0  0
  -23.4189  -30.4896   21.5480 C   0  0  2  0  0  0
  -24.8642  -28.9539   20.1086 C   0  0  0  0  0  0
  -22.7480  -29.4639   22.4930 C   0  0  0  0  0  0
  -18.0290  -28.1388   22.8480 C   0  0  0  0  0  0
  -24.1487  -36.7285   23.2639 C   0  0  0  0  0  0
  -25.9623  -30.7936   21.3803 C   0  0  0  0  0  0
  -26.0351  -29.4248   20.7163 C   0  0  0  0  0  0
  -27.2159  -28.6228   20.7073 C   0  0  0  0  0  0
  -26.0219  -26.9160   19.4671 C   0  0  0  0  0  0
  -24.8601  -27.7045   19.4757 C   0  0  0  0  0  0
  -23.6341  -29.8350   20.1598 C   0  0  0  0  0  0
  -25.4108  -36.3083   24.0336 C   0  0  1  0  0  0
  -20.5891  -28.3693   23.1276 C   0  0  2  0  0  0
  -20.6773  -26.9415   22.5407 C   0  0  0  0  0  0
  -19.5749  -26.6386   21.5206 C   0  0  0  0  0  0
  -18.1931  -26.7930   22.1624 C   0  0  0  0  0  0
  -19.1542  -28.8856   23.2874 C   0  0  0  0  0  0
  -18.9468  -30.1454   23.8896 C   0  0  0  0  0  0
  -17.6468  -30.6582   24.0567 C   0  0  0  0  0  0
  -25.9051  -34.9451   23.5117 C   0  0  0  0  0  0
  -16.5359  -29.9081   23.6331 C   0  0  0  0  0  0
  -16.7279  -28.6504   23.0343 C   0  0  0  0  0  0
  -26.4494  -31.6584   25.0748 C   0  0  0  0  0  0
  -25.3727  -31.3730   26.1477 C   0  0  0  0  0  0
  -27.0345  -30.3009   24.6209 C   0  0  0  0  0  0
  -27.6064  -32.4312   25.7508 C   0  0  0  0  0  0
  -27.5580  -37.1796   24.8462 C   0  0  0  0  0  0
  -21.4194  -29.3053   22.3672 N   0  0  0  0  0  0
  -26.4280  -37.3784   23.9425 N   0  0  0  0  0  0
  -24.6874  -31.0638   22.1012 N   0  0  0  0  0  0
  -23.4209  -28.8163   23.2993 O   0  0  0  0  0  0
  -28.3235  -26.4597   20.1568 O   0  0  0  0  0  0
  -26.5608  -34.8914   22.4677 O   0  0  0  0  0  0
  -23.5423  -32.1432   23.7382 O   0  0  0  0  0  0
  -30.8577  -17.8508   20.1894 C   0  0  0  0  0  0
  -30.7711  -19.2732   20.0879 C   0  0  0  0  0  0
  -28.6923  -17.8253   21.2359 C   0  0  0  0  0  0
  -29.8140  -17.0852   20.7713 C   0  0  0  0  0  0
  -29.6448  -20.0150   20.5437 C   0  0  0  0  0  0
  -28.6017  -19.2456   21.1373 C   0  0  0  0  0  0
  -29.1118  -23.9511   20.3152 C   0  0  0  0  0  0
  -28.6957  -22.4019   20.1981 C   0  0  0  0  0  0
  -28.0165  -25.0223   19.9565 C   0  0  0  0  0  0
  -27.4775  -19.8736   21.6702 N   0  0  0  0  0  0
  -29.6708  -21.4828   20.4841 N   0  0  0  0  0  0
  -29.7931  -15.6307   20.9227 N   0  0  0  0  0  0
  -30.2493  -24.2920   20.6665 O   0  0  0  0  0  0
  -27.5546  -22.0821   19.8475 O   0  0  0  0  0  0
  -31.4834  -12.5102   19.1420 H   0  0  0  0  0  0
  -30.3796  -11.3772   19.8696 H   0  0  0  0  0  0
  -29.7681  -11.7659   17.4660 H   0  0  0  0  0  0
  -29.6573  -13.4823   17.7459 H   0  0  0  0  0  0
  -27.8511  -11.3000   18.8405 H   0  0  0  0  0  0
  -27.3800  -12.6064   17.7873 H   0  0  0  0  0  0
  -27.6840  -14.2514   19.5424 H   0  0  0  0  0  0
  -28.7074  -12.0013   21.3417 H   0  0  0  0  0  0
  -28.4480  -13.6376   21.8650 H   0  0  0  0  0  0
  -25.2750   -9.5683   22.4746 H   0  0  0  0  0  0
  -23.9990   -7.4635   22.7470 H   0  0  0  0  0  0
  -21.0827   -8.8766   19.8962 H   0  0  0  0  0  0
  -22.3675  -10.9663   19.6159 H   0  0  0  0  0  0
  -21.2007   -7.6140   23.9703 H   0  0  0  0  0  0
  -21.1480   -6.0520   25.9070 H   0  0  0  0  0  0
  -22.0600   -2.7604   23.2850 H   0  0  0  0  0  0
  -22.4103  -11.9907   22.4798 H   0  0  0  0  0  0
  -21.1115  -13.1270   22.2615 H   0  0  0  0  0  0
  -24.6648  -15.8423   20.5291 H   0  0  0  0  0  0
  -26.2678  -15.6215   20.0466 H   0  0  0  0  0  0
  -26.7190  -32.5457   23.1139 H   0  0  0  0  0  0
  -25.0105  -33.9741   25.0461 H   0  0  0  0  0  0
  -22.7121  -31.3105   21.4104 H   0  0  0  0  0  0
  -23.3755  -35.9610   23.3289 H   0  0  0  0  0  0
  -24.3593  -36.8914   22.2058 H   0  0  0  0  0  0
  -23.7222  -37.6478   23.6662 H   0  0  0  0  0  0
  -26.1031  -31.5619   20.6184 H   0  0  0  0  0  0
  -26.8385  -30.8333   22.0157 H   0  0  0  0  0  0
  -28.1112  -28.9786   21.1978 H   0  0  0  0  0  0
  -25.9430  -25.9685   18.9557 H   0  0  0  0  0  0
  -23.9644  -27.3431   18.9889 H   0  0  0  0  0  0
  -23.7608  -30.6183   19.4113 H   0  0  0  0  0  0
  -22.7525  -29.2719   19.8487 H   0  0  0  0  0  0
  -25.1279  -36.1938   25.0824 H   0  0  0  0  0  0
  -20.9992  -28.3264   24.1395 H   0  0  0  0  0  0
  -20.5669  -26.2302   23.3607 H   0  0  0  0  0  0
  -21.6642  -26.7438   22.1209 H   0  0  0  0  0  0
  -19.6907  -25.6295   21.1237 H   0  0  0  0  0  0
  -19.6677  -27.3191   20.6728 H   0  0  0  0  0  0
  -17.4198  -26.6672   21.4027 H   0  0  0  0  0  0
  -18.0339  -26.0069   22.9021 H   0  0  0  0  0  0
  -19.7939  -30.7265   24.2272 H   0  0  0  0  0  0
  -17.5022  -31.6261   24.5169 H   0  0  0  0  0  0
  -15.5358  -30.2985   23.7649 H   0  0  0  0  0  0
  -15.8682  -28.0823   22.7056 H   0  0  0  0  0  0
  -24.5896  -30.7079   25.7814 H   0  0  0  0  0  0
  -24.8916  -32.2896   26.4903 H   0  0  0  0  0  0
  -25.8049  -30.8913   27.0258 H   0  0  0  0  0  0
  -26.2935  -29.6753   24.1219 H   0  0  0  0  0  0
  -27.4031  -29.7268   25.4722 H   0  0  0  0  0  0
  -27.8809  -30.4299   23.9459 H   0  0  0  0  0  0
  -27.2691  -33.3614   26.2095 H   0  0  0  0  0  0
  -28.3864  -32.6868   25.0321 H   0  0  0  0  0  0
  -28.0746  -31.8429   26.5413 H   0  0  0  0  0  0
  -28.2581  -38.0111   24.7542 H   0  0  0  0  0  0
  -28.1092  -36.2646   24.6236 H   0  0  0  0  0  0
  -27.2317  -37.1391   25.8869 H   0  0  0  0  0  0
  -20.9361  -29.8814   21.6923 H   0  0  0  0  0  0
  -26.0157  -38.2855   24.1442 H   0  0  0  0  0  0
  -31.7454  -17.3601   19.8157 H   0  0  0  0  0  0
  -31.6015  -19.8018   19.6437 H   0  0  0  0  0  0
  -27.8757  -17.2859   21.6949 H   0  0  0  0  0  0
  -27.1355  -24.7697   20.5487 H   0  0  0  0  0  0
  -27.7571  -24.8593   18.9100 H   0  0  0  0  0  0
  -26.6454  -19.3046   21.7832 H   0  0  0  0  0  0
  -27.2603  -20.7595   21.2134 H   0  0  0  0  0  0
  -30.5735  -21.9132   20.6339 H   0  0  0  0  0  0
  -28.9244  -15.2702   21.2862 H   0  0  0  0  0  0
  1 25  1  0  0  0
  1 30  2  0  0  0
  1 82  1  0  0  0
  2  3  1  0  0  0
  2 25  1  0  0  0
  2 85  1  0  0  0
  2 86  1  0  0  0
  3  4  1  0  0  0
  3 87  1  0  0  0
  3 88  1  0  0  0
  4  5  1  0  0  0
  4 89  1  0  0  0
  4 90  1  0  0  0
  5  6  1  0  0  0
  5 26  1  0  0  0
  5 91  1  0  0  0
  6 25  1  0  0  0
  6 92  1  0  0  0
  6 93  1  0  0  0
  7  8  2  0  0  0
  7 26  1  0  0  0
  7 29  1  0  0  0
  8  9  1  0  0  0
  8 22  1  0  0  0
  9 10  1  0  0  0
  9 27  2  0  0  0
 10 11  2  0  0  0
 10 15  1  0  0  0
 11 12  1  0  0  0
 11 94  1  0  0  0
 12 13  2  0  0  0
 12 95  1  0  0  0
 13 14  1  0  0  0
 13 31  1  0  0  0
 14 15  2  0  0  0
 14 96  1  0  0  0
 15 97  1  0  0  0
 16 17  2  0  0  0
 16 21  1  0  0  0
 16 31  1  0  0  0
 17 18  1  0  0  0
 17 98  1  0  0  0
 18 19  2  0  0  0
 18 99  1  0  0  0
 19 20  1  0  0  0
 19 24  1  0  0  0
 20 21  2  0  0  0
 20100  1  0  0  0
 21 23  1  0  0  0
 22 28  1  0  0  0
 22 32  2  0  0  0
 26 27  1  0  0  0
 28101  1  0  0  0
 28102  1  0  0  0
 29103  1  0  0  0
 29104  1  0  0  0
 33 34  1  0  0  0
 33 66  1  0  0  0
 33 70  2  0  0  0
 34 36  1  0  0  0
 34 59  1  0  0  0
 34105  1  0  0  0
 35 44  2  0  0  0
 35 45  1  0  0  0
 35 68  1  0  0  0
 36 56  1  0  0  0
 36106  1  0  0  0
 37 39  1  0  0  0
 37 47  1  0  0  0
 37 66  1  0  0  0
 37107  1  0  0  0
 38 43  2  0  0  0
 38 46  1  0  0  0
 38 47  1  0  0  0
 39 64  1  0  0  0
 39 67  2  0  0  0
 40 52  1  0  0  0
 40 53  2  0  0  0
 40 58  1  0  0  0
 41108  1  0  0  0
 41109  1  0  0  0
 41110  1  0  0  0
 41 48  1  0  0  0
 42 43  1  0  0  0
 42 66  1  0  0  0
 42111  1  0  0  0
 42112  1  0  0  0
 43 44  1  0  0  0
 44113  1  0  0  0
 45 46  2  0  0  0
 45114  1  0  0  0
 46115  1  0  0  0
 47116  1  0  0  0
 47117  1  0  0  0
 48 56  1  0  0  0
 48 65  1  0  0  0
 48118  1  0  0  0
 49 50  1  0  0  0
 49 53  1  0  0  0
 49 64  1  0  0  0
 49119  1  0  0  0
 50 51  1  0  0  0
 50120  1  0  0  0
 50121  1  0  0  0
 51 52  1  0  0  0
 51122  1  0  0  0
 51123  1  0  0  0
 52124  1  0  0  0
 52125  1  0  0  0
 53 54  1  0  0  0
 54 55  2  0  0  0
 54126  1  0  0  0
 55 57  1  0  0  0
 55127  1  0  0  0
 56 69  2  0  0  0
 57 58  2  0  0  0
 57128  1  0  0  0
 58129  1  0  0  0
 59 60  1  0  0  0
 59 61  1  0  0  0
 59 62  1  0  0  0
 60130  1  0  0  0
 60131  1  0  0  0
 60132  1  0  0  0
 61133  1  0  0  0
 61134  1  0  0  0
 61135  1  0  0  0
 62136  1  0  0  0
 62137  1  0  0  0
 62138  1  0  0  0
 63 65  1  0  0  0
 63139  1  0  0  0
 63140  1  0  0  0
 63141  1  0  0  0
 64142  1  0  0  0
 65143  1  0  0  0
 68 79  1  0  0  0
 71 72  2  0  0  0
 71 74  1  0  0  0
 71144  1  0  0  0
 72 75  1  0  0  0
 72145  1  0  0  0
 73 74  2  0  0  0
 73 76  1  0  0  0
 73146  1  0  0  0
 74 82  1  0  0  0
 75 76  2  0  0  0
 75 81  1  0  0  0
 76 80  1  0  0  0
 77 78  1  0  0  0
 77 79  1  0  0  0
 77 83  2  0  0  0
 78 81  1  0  0  0
 78 84  2  0  0  0
 79147  1  0  0  0
 79148  1  0  0  0
 80149  1  0  0  0
 80150  1  0  0  0
 81151  1  0  0  0
 82152  1  0  0  0
M  ISO  4   1 100  68 101  79 101  82 100
M  END
> <chiral flag>
0

> <version>
0

> <s_m_source_file>
/data/baiqing/PycharmProjects/Reinvent-master-3.2/result/LINK_invent/BTK/process_docking_weight1_custom_product_contain_oxygen_bond_distance_aromatic_linkinvent_7_9_3/rearranged_h_0095.sdf

> <i_m_source_file_index>
21

> <r_mmod_Potential_Energy-OPLS-2005>
15.0614891052246

> <r_mmod_Stretch_Energy-OPLS-2005>
79.5781478881836

> <r_mmod_Bend_Energy-OPLS-2005>
139.86311340332

> <r_mmod_Torsional_Energy-OPLS-2005>
233.581558227539

> <r_mmod_Improper_Torsional_Energy-OPLS-2005>
8.94454669952393

> <r_mmod_Van_der_Waal_Energy-OPLS-2005>
155.149185180664

> <r_mmod_Electrostatic_Energy-OPLS-2005>
-407.323089599609

> <r_mmod_Solvation_Energy-OPLS-2005>
-239.808059692383

> <b_mmod_Minimization_Converged-OPLS-2005>
0

> <r_mmod_RMS_Derivative-OPLS-2005>
1.49888074398041

$$$$
21
                    3D
 Structure written by MMmdl.
149157  0  0  1  0            999 V2000
  -30.6973  -14.6722   20.4675 C   0  0  0  0  0  0
  -30.4091  -12.4140   19.4645 C   0  0  0  0  0  0
  -29.4958  -12.4919   18.2258 C   0  0  0  0  0  0
  -28.0234  -12.3308   18.6448 C   0  0  0  0  0  0
  -27.6382  -13.2362   19.8465 C   0  0  2  0  0  0
  -28.6867  -13.1846   20.9796 C   0  0  0  0  0  0
  -25.2496  -13.8216   20.5719 C   0  0  0  0  0  0
  -24.1790  -13.0449   20.9208 C   0  0  0  0  0  0
  -24.6390  -11.6930   20.8754 C   0  0  0  0  0  0
  -23.9074  -10.4298   21.0406 C   0  0  0  0  0  0
  -24.3623   -9.4212   21.9185 C   0  0  0  0  0  0
  -23.6301   -8.2245   22.0753 C   0  0  0  0  0  0
  -22.4283   -8.0282   21.3544 C   0  0  0  0  0  0
  -21.9917   -9.0255   20.4646 C   0  0  0  0  0  0
  -22.7244  -10.2136   20.3056 C   0  0  0  0  0  0
  -21.6854   -6.0737   22.5279 C   0  0  0  0  0  0
  -21.4017   -6.5642   23.8213 C   0  0  0  0  0  0
  -21.3659   -5.6794   24.9174 C   0  0  0  0  0  0
  -21.6044   -4.3058   24.7225 C   0  0  0  0  0  0
  -21.8820   -3.8148   23.4348 C   0  0  0  0  0  0
  -21.9194   -4.6963   22.3403 C   0  0  0  0  0  0
  -22.7810  -13.5221   21.1864 C   0  0  0  0  0  0
  -22.1662   -4.2149   21.0981 F   0  0  0  0  0  0
  -21.5626   -3.4540   25.7738 F   0  0  0  0  0  0
  -29.9897  -13.4969   20.3838 N   0  0  0  0  0  0
  -26.2927  -12.9436   20.3300 N   0  0  0  0  0  0
  -25.9324  -11.6571   20.5770 N   0  0  0  0  0  0
  -22.0463  -12.8210   22.0423 N   0  0  0  0  0  0
  -25.4181  -15.1943   20.4170 N   0  0  0  0  0  0
  -31.8937  -14.6466   20.1690 O   0  0  0  0  0  0
  -21.6644   -6.8881   21.4243 O   0  0  0  0  0  0
  -22.3488  -14.5522   20.6709 O   0  0  0  0  0  0
  -24.6278  -31.8587   23.2026 C   0  0  0  0  0  0
  -25.9122  -32.4772   23.8356 C   0  0  1  0  0  0
  -27.2109  -27.3048   20.1246 C   0  0  0  0  0  0
  -25.5935  -33.8575   24.2283 N   0  0  0  0  0  0
  -23.4218  -30.4840   21.5449 C   0  0  2  0  0  0
  -24.8681  -28.9401   20.1075 C   0  0  0  0  0  0
  -22.7480  -29.4626   22.4926 C   0  0  0  0  0  0
  -18.0289  -28.1386   22.8493 C   0  0  0  0  0  0
  -24.1489  -36.7291   23.2639 C   0  0  0  0  0  0
  -25.9647  -30.7855   21.3762 C   0  0  0  0  0  0
  -26.0384  -29.4125   20.7178 C   0  0  0  0  0  0
  -27.2177  -28.6062   20.7177 C   0  0  0  0  0  0
  -26.0282  -26.8980   19.4721 C   0  0  0  0  0  0
  -24.8660  -27.6893   19.4730 C   0  0  0  0  0  0
  -23.6367  -29.8217   20.1589 C   0  0  0  0  0  0
  -25.4114  -36.3081   24.0330 C   0  0  1  0  0  0
  -20.5892  -28.3690   23.1280 C   0  0  2  0  0  0
  -20.6780  -26.9411   22.5410 C   0  0  0  0  0  0
  -19.5752  -26.6386   21.5215 C   0  0  0  0  0  0
  -18.1933  -26.7930   22.1632 C   0  0  0  0  0  0
  -19.1542  -28.8855   23.2883 C   0  0  0  0  0  0
  -18.9465  -30.1460   23.8895 C   0  0  0  0  0  0
  -17.6463  -30.6588   24.0565 C   0  0  0  0  0  0
  -25.9050  -34.9450   23.5104 C   0  0  0  0  0  0
  -16.5355  -29.9086   23.6333 C   0  0  0  0  0  0
  -16.7276  -28.6504   23.0354 C   0  0  0  0  0  0
  -26.4500  -31.6584   25.0727 C   0  0  0  0  0  0
  -25.3733  -31.3736   26.1455 C   0  0  0  0  0  0
  -27.0337  -30.3006   24.6187 C   0  0  0  0  0  0
  -27.6064  -32.4316   25.7492 C   0  0  0  0  0  0
  -27.5578  -37.1800   24.8465 C   0  0  0  0  0  0
  -21.4192  -29.3047   22.3671 N   0  0  0  0  0  0
  -26.4291  -37.3776   23.9408 N   0  0  0  0  0  0
  -24.6902  -31.0592   22.0980 N   0  0  0  0  0  0
  -23.4195  -28.8159   23.3005 O   0  0  0  0  0  0
  -28.2793  -26.3966   20.1742 O   0  0  0  0  0  0
  -26.5612  -34.8922   22.4666 O   0  0  0  0  0  0
  -23.5440  -32.1391   23.7349 O   0  0  0  0  0  0
  -30.5839  -19.6159   20.0669 C   0  0  0  0  0  0
  -30.0702  -20.9489   20.0721 C   0  0  0  0  0  0
  -28.0604  -20.1111   21.0695 C   0  0  0  0  0  0
  -29.8753  -18.4853   20.5815 C   0  0  0  0  0  0
  -28.7908  -21.2480   20.6046 C   0  0  0  0  0  0
  -28.5738  -18.7720   21.0677 C   0  0  0  0  0  0
  -28.6752  -23.7381   20.3971 C   0  0  0  0  0  0
  -30.6157  -17.1284   20.7321 C   0  0  0  0  0  0
  -27.9554  -25.0892   20.8143 C   0  0  0  0  0  0
  -28.2191  -22.5664   20.7612 N   0  0  0  0  0  0
  -30.0283  -15.8761   20.6419 N   0  0  0  0  0  0
  -31.8337  -17.2486   20.9187 O   0  0  0  0  0  0
  -27.8150  -17.7715   21.5787 F   0  0  0  0  0  0
  -31.4538  -12.4891   19.1586 H   0  0  0  0  0  0
  -30.3155  -11.4426   19.9533 H   0  0  0  0  0  0
  -29.7665  -11.7172   17.5071 H   0  0  0  0  0  0
  -29.6367  -13.4472   17.7169 H   0  0  0  0  0  0
  -27.8742  -11.2832   18.9096 H   0  0  0  0  0  0
  -27.3641  -12.5248   17.7979 H   0  0  0  0  0  0
  -27.6295  -14.2557   19.4602 H   0  0  0  0  0  0
  -28.7084  -12.1990   21.4471 H   0  0  0  0  0  0
  -28.4384  -13.8963   21.7686 H   0  0  0  0  0  0
  -25.2769   -9.5687   22.4759 H   0  0  0  0  0  0
  -24.0009   -7.4635   22.7473 H   0  0  0  0  0  0
  -21.0846   -8.8771   19.8953 H   0  0  0  0  0  0
  -22.3700  -10.9673   19.6163 H   0  0  0  0  0  0
  -21.2011   -7.6151   23.9716 H   0  0  0  0  0  0
  -21.1480   -6.0525   25.9078 H   0  0  0  0  0  0
  -22.0599   -2.7610   23.2847 H   0  0  0  0  0  0
  -22.4088  -11.9878   22.4817 H   0  0  0  0  0  0
  -21.1076  -13.1223   22.2627 H   0  0  0  0  0  0
  -24.6572  -15.8504   20.5544 H   0  0  0  0  0  0
  -26.2793  -15.6450   20.1375 H   0  0  0  0  0  0
  -26.7183  -32.5434   23.1098 H   0  0  0  0  0  0
  -25.0099  -33.9722   25.0439 H   0  0  0  0  0  0
  -22.7174  -31.3063   21.4033 H   0  0  0  0  0  0
  -23.3754  -35.9620   23.3301 H   0  0  0  0  0  0
  -24.3586  -36.8905   22.2053 H   0  0  0  0  0  0
  -23.7240  -37.6497   23.6654 H   0  0  0  0  0  0
  -26.0983  -31.5482   20.6077 H   0  0  0  0  0  0
  -26.8451  -30.8336   22.0053 H   0  0  0  0  0  0
  -28.1120  -28.9582   21.2129 H   0  0  0  0  0  0
  -25.9904  -25.9375   18.9776 H   0  0  0  0  0  0
  -23.9720  -27.3257   18.9851 H   0  0  0  0  0  0
  -23.7562  -30.5997   19.4038 H   0  0  0  0  0  0
  -22.7560  -29.2523   19.8551 H   0  0  0  0  0  0
  -25.1295  -36.1930   25.0823 H   0  0  0  0  0  0
  -20.9992  -28.3259   24.1398 H   0  0  0  0  0  0
  -20.5693  -26.2294   23.3609 H   0  0  0  0  0  0
  -21.6646  -26.7445   22.1193 H   0  0  0  0  0  0
  -19.6907  -25.6298   21.1241 H   0  0  0  0  0  0
  -19.6683  -27.3202   20.6750 H   0  0  0  0  0  0
  -17.4203  -26.6683   21.4031 H   0  0  0  0  0  0
  -18.0331  -26.0073   22.9027 H   0  0  0  0  0  0
  -19.7938  -30.7282   24.2255 H   0  0  0  0  0  0
  -17.5017  -31.6268   24.5164 H   0  0  0  0  0  0
  -15.5355  -30.2986   23.7661 H   0  0  0  0  0  0
  -15.8678  -28.0823   22.7064 H   0  0  0  0  0  0
  -24.5895  -30.7097   25.7791 H   0  0  0  0  0  0
  -24.8945  -32.2912   26.4881 H   0  0  0  0  0  0
  -25.8060  -30.8908   27.0227 H   0  0  0  0  0  0
  -26.2906  -29.6759   24.1214 H   0  0  0  0  0  0
  -27.4035  -29.7258   25.4690 H   0  0  0  0  0  0
  -27.8780  -30.4295   23.9410 H   0  0  0  0  0  0
  -27.2681  -33.3628   26.2052 H   0  0  0  0  0  0
  -28.3882  -32.6852   25.0319 H   0  0  0  0  0  0
  -28.0720  -31.8445   26.5419 H   0  0  0  0  0  0
  -28.2596  -38.0096   24.7515 H   0  0  0  0  0  0
  -28.1071  -36.2630   24.6285 H   0  0  0  0  0  0
  -27.2300  -37.1440   25.8868 H   0  0  0  0  0  0
  -20.9363  -29.8771   21.6887 H   0  0  0  0  0  0
  -26.0170  -38.2848   24.1417 H   0  0  0  0  0  0
  -31.5872  -19.4706   19.6908 H   0  0  0  0  0  0
  -30.6994  -21.7426   19.6943 H   0  0  0  0  0  0
  -27.0741  -20.2665   21.4829 H   0  0  0  0  0  0
  -29.5915  -23.8624   19.8142 H   0  0  0  0  0  0
  -28.1613  -25.2289   21.8759 H   0  0  0  0  0  0
  -26.8853  -24.8858   20.7799 H   0  0  0  0  0  0
  -29.0227  -15.8514   20.6549 H   0  0  0  0  0  0
  1 25  1  0  0  0
  1 30  2  0  0  0
  1 81  1  0  0  0
  2  3  1  0  0  0
  2 25  1  0  0  0
  2 84  1  0  0  0
  2 85  1  0  0  0
  3  4  1  0  0  0
  3 86  1  0  0  0
  3 87  1  0  0  0
  4  5  1  0  0  0
  4 88  1  0  0  0
  4 89  1  0  0  0
  5  6  1  0  0  0
  5 26  1  0  0  0
  5 90  1  0  0  0
  6 25  1  0  0  0
  6 91  1  0  0  0
  6 92  1  0  0  0
  7  8  2  0  0  0
  7 26  1  0  0  0
  7 29  1  0  0  0
  8  9  1  0  0  0
  8 22  1  0  0  0
  9 10  1  0  0  0
  9 27  2  0  0  0
 10 11  2  0  0  0
 10 15  1  0  0  0
 11 12  1  0  0  0
 11 93  1  0  0  0
 12 13  2  0  0  0
 12 94  1  0  0  0
 13 14  1  0  0  0
 13 31  1  0  0  0
 14 15  2  0  0  0
 14 95  1  0  0  0
 15 96  1  0  0  0
 16 17  2  0  0  0
 16 21  1  0  0  0
 16 31  1  0  0  0
 17 18  1  0  0  0
 17 97  1  0  0  0
 18 19  2  0  0  0
 18 98  1  0  0  0
 19 20  1  0  0  0
 19 24  1  0  0  0
 20 21  2  0  0  0
 20 99  1  0  0  0
 21 23  1  0  0  0
 22 28  1  0  0  0
 22 32  2  0  0  0
 26 27  1  0  0  0
 28100  1  0  0  0
 28101  1  0  0  0
 29102  1  0  0  0
 29103  1  0  0  0
 33 34  1  0  0  0
 33 66  1  0  0  0
 33 70  2  0  0  0
 34 36  1  0  0  0
 34 59  1  0  0  0
 34104  1  0  0  0
 35 44  2  0  0  0
 35 45  1  0  0  0
 35 68  1  0  0  0
 36 56  1  0  0  0
 36105  1  0  0  0
 37 39  1  0  0  0
 37 47  1  0  0  0
 37 66  1  0  0  0
 37106  1  0  0  0
 38 43  2  0  0  0
 38 46  1  0  0  0
 38 47  1  0  0  0
 39 64  1  0  0  0
 39 67  2  0  0  0
 40 52  1  0  0  0
 40 53  2  0  0  0
 40 58  1  0  0  0
 41107  1  0  0  0
 41108  1  0  0  0
 41109  1  0  0  0
 41 48  1  0  0  0
 42 43  1  0  0  0
 42 66  1  0  0  0
 42110  1  0  0  0
 42111  1  0  0  0
 43 44  1  0  0  0
 44112  1  0  0  0
 45 46  2  0  0  0
 45113  1  0  0  0
 46114  1  0  0  0
 47115  1  0  0  0
 47116  1  0  0  0
 48 56  1  0  0  0
 48 65  1  0  0  0
 48117  1  0  0  0
 49 50  1  0  0  0
 49 53  1  0  0  0
 49 64  1  0  0  0
 49118  1  0  0  0
 50 51  1  0  0  0
 50119  1  0  0  0
 50120  1  0  0  0
 51 52  1  0  0  0
 51121  1  0  0  0
 51122  1  0  0  0
 52123  1  0  0  0
 52124  1  0  0  0
 53 54  1  0  0  0
 54 55  2  0  0  0
 54125  1  0  0  0
 55 57  1  0  0  0
 55126  1  0  0  0
 56 69  2  0  0  0
 57 58  2  0  0  0
 57127  1  0  0  0
 58128  1  0  0  0
 59 60  1  0  0  0
 59 61  1  0  0  0
 59 62  1  0  0  0
 60129  1  0  0  0
 60130  1  0  0  0
 60131  1  0  0  0
 61132  1  0  0  0
 61133  1  0  0  0
 61134  1  0  0  0
 62135  1  0  0  0
 62136  1  0  0  0
 62137  1  0  0  0
 63 65  1  0  0  0
 63138  1  0  0  0
 63139  1  0  0  0
 63140  1  0  0  0
 64141  1  0  0  0
 65142  1  0  0  0
 68 79  1  0  0  0
 71 72  2  0  0  0
 71 74  1  0  0  0
 71143  1  0  0  0
 72 75  1  0  0  0
 72144  1  0  0  0
 73 75  2  0  0  0
 73 76  1  0  0  0
 73145  1  0  0  0
 74 76  2  0  0  0
 74 78  1  0  0  0
 75 80  1  0  0  0
 76 83  1  0  0  0
 77 79  1  0  0  0
 77 80  2  0  0  0
 77146  1  0  0  0
 78 81  1  0  0  0
 78 82  2  0  0  0
 79147  1  0  0  0
 79148  1  0  0  0
 81149  1  0  0  0
M  ISO  4   1 100  68 101  79 101  81 100
M  END
> <chiral flag>
0

> <version>
0

> <s_m_source_file>
/data/baiqing/PycharmProjects/Reinvent-master-3.2/result/LINK_invent/BTK/process_docking_weight1_custom_product_contain_oxygen_bond_distance_aromatic_linkinvent_7_9_3/rearranged_h_0095.sdf

> <i_m_source_file_index>
22

> <r_mmod_Potential_Energy-OPLS-2005>
112.583511352539

> <r_mmod_Stretch_Energy-OPLS-2005>
91.4567794799805

> <r_mmod_Bend_Energy-OPLS-2005>
169.932464599609

> <r_mmod_Torsional_Energy-OPLS-2005>
239.018981933594

> <r_mmod_Improper_Torsional_Energy-OPLS-2005>
6.20280027389526

> <r_mmod_Van_der_Waal_Energy-OPLS-2005>
156.562911987305

> <r_mmod_Electrostatic_Energy-OPLS-2005>
-402.642517089844

> <r_mmod_Solvation_Energy-OPLS-2005>
-216.218353271484

> <b_mmod_Minimization_Converged-OPLS-2005>
0

> <r_mmod_RMS_Derivative-OPLS-2005>
0.673451483249664

$$$$
22
                    3D
 Structure written by MMmdl.
158167  0  0  1  0            999 V2000
  -30.5545  -15.0859   20.4130 C   0  0  0  0  0  0
  -30.4168  -12.6825   19.5293 C   0  0  0  0  0  0
  -29.5193  -12.5568   18.2773 C   0  0  0  0  0  0
  -28.0625  -12.3084   18.6997 C   0  0  0  0  0  0
  -27.6147  -13.2662   19.8339 C   0  0  2  0  0  0
  -28.6497  -13.3951   20.9750 C   0  0  0  0  0  0
  -25.2380  -13.8236   20.5768 C   0  0  0  0  0  0
  -24.1720  -13.0425   20.9239 C   0  0  0  0  0  0
  -24.6372  -11.6924   20.8753 C   0  0  0  0  0  0
  -23.9072  -10.4285   21.0388 C   0  0  0  0  0  0
  -24.3625   -9.4204   21.9167 C   0  0  0  0  0  0
  -23.6301   -8.2237   22.0742 C   0  0  0  0  0  0
  -22.4284   -8.0266   21.3534 C   0  0  0  0  0  0
  -21.9917   -9.0233   20.4632 C   0  0  0  0  0  0
  -22.7244  -10.2113   20.3035 C   0  0  0  0  0  0
  -21.6847   -6.0722   22.5275 C   0  0  0  0  0  0
  -21.4011   -6.5627   23.8210 C   0  0  0  0  0  0
  -21.3669   -5.6783   24.9174 C   0  0  0  0  0  0
  -21.6053   -4.3047   24.7222 C   0  0  0  0  0  0
  -21.8823   -3.8133   23.4345 C   0  0  0  0  0  0
  -21.9194   -4.6950   22.3401 C   0  0  0  0  0  0
  -22.7745  -13.5184   21.1885 C   0  0  0  0  0  0
  -22.1659   -4.2135   21.0980 F   0  0  0  0  0  0
  -21.5640   -3.4536   25.7737 F   0  0  0  0  0  0
  -29.9140  -13.8290   20.3668 N   0  0  0  0  0  0
  -26.2813  -12.9504   20.3270 N   0  0  0  0  0  0
  -25.9313  -11.6610   20.5744 N   0  0  0  0  0  0
  -22.0412  -12.8172   22.0450 N   0  0  0  0  0  0
  -25.4022  -15.1972   20.4283 N   0  0  0  0  0  0
  -31.7338  -15.0558   20.0343 O   0  0  0  0  0  0
  -21.6643   -6.8864   21.4235 O   0  0  0  0  0  0
  -22.3431  -14.5482   20.6716 O   0  0  0  0  0  0
  -24.6521  -31.8326   23.1778 C   0  0  0  0  0  0
  -25.9255  -32.4630   23.8197 C   0  0  1  0  0  0
  -27.2185  -27.0373   20.1634 C   0  0  0  0  0  0
  -25.5983  -33.8441   24.2135 N   0  0  0  0  0  0
  -23.4610  -30.4470   21.5235 C   0  0  2  0  0  0
  -24.9134  -28.8547   20.1008 C   0  0  0  0  0  0
  -22.7610  -29.4487   22.4812 C   0  0  0  0  0  0
  -18.0311  -28.1392   22.8489 C   0  0  0  0  0  0
  -24.1497  -36.7219   23.2648 C   0  0  0  0  0  0
  -26.0208  -30.6736   21.3909 C   0  0  0  0  0  0
  -26.0881  -29.2748   20.7348 C   0  0  0  0  0  0
  -27.2332  -28.3790   20.7542 C   0  0  0  0  0  0
  -26.0236  -26.7443   19.4721 C   0  0  0  0  0  0
  -24.9003  -27.6089   19.4512 C   0  0  0  0  0  0
  -23.6928  -29.7678   20.1449 C   0  0  0  0  0  0
  -25.4132  -36.2994   24.0311 C   0  0  1  0  0  0
  -20.5932  -28.3733   23.1221 C   0  0  2  0  0  0
  -20.6794  -26.9427   22.5413 C   0  0  0  0  0  0
  -19.5769  -26.6380   21.5221 C   0  0  0  0  0  0
  -18.1950  -26.7934   22.1624 C   0  0  0  0  0  0
  -19.1573  -28.8881   23.2845 C   0  0  0  0  0  0
  -18.9483  -30.1470   23.8880 C   0  0  0  0  0  0
  -17.6477  -30.6592   24.0560 C   0  0  0  0  0  0
  -25.9091  -34.9374   23.5040 C   0  0  0  0  0  0
  -16.5371  -29.9084   23.6336 C   0  0  0  0  0  0
  -16.7292  -28.6493   23.0373 C   0  0  0  0  0  0
  -26.4556  -31.6531   25.0672 C   0  0  0  0  0  0
  -25.3715  -31.3740   26.1349 C   0  0  0  0  0  0
  -27.0435  -30.2916   24.6310 C   0  0  0  0  0  0
  -27.6076  -32.4310   25.7462 C   0  0  0  0  0  0
  -27.5568  -37.1775   24.8472 C   0  0  0  0  0  0
  -21.4292  -29.3041   22.3576 N   0  0  0  0  0  0
  -26.4282  -37.3719   23.9410 N   0  0  0  0  0  0
  -24.7314  -31.0094   22.0849 N   0  0  0  0  0  0
  -23.4217  -28.8054   23.3007 O   0  0  0  0  0  0
  -28.2387  -26.0010   20.3373 O   0  0  0  0  0  0
  -26.5682  -34.8893   22.4619 O   0  0  0  0  0  0
  -23.5617  -32.1246   23.6947 O   0  0  0  0  0  0
  -27.3456  -18.5296   19.1900 C   0  0  0  0  0  0
  -27.6259  -19.8911   19.4744 C   0  0  0  0  0  0
  -28.1780  -17.4503   19.5792 C   0  0  0  0  0  0
  -29.6290  -19.1155   20.5763 C   0  0  0  0  0  0
  -28.7942  -20.3092   20.1496 C   0  0  0  0  0  0
  -29.3519  -17.6397   20.3341 C   0  0  0  0  0  0
  -28.1679  -23.0155   20.3147 C   0  0  0  0  0  0
  -30.8281  -23.7171   19.8730 C   0  0  0  0  0  0
  -29.8313  -24.5602   19.0522 C   0  0  0  0  0  0
  -30.4666  -22.2066   19.8894 C   0  0  0  0  0  0
  -28.4126  -24.5659   19.6524 C   0  0  2  0  0  0
  -30.7311  -16.6802   22.1717 C   0  0  0  0  0  0
  -29.0622  -21.8683   20.1829 N   0  0  0  0  0  0
  -30.0267  -16.3485   20.9290 N   0  0  0  0  0  0
  -27.1024  -22.8613   20.9200 O   0  0  0  0  0  0
  -31.4540  -12.8118   19.2205 H   0  0  0  0  0  0
  -30.4026  -11.7541   20.1032 H   0  0  0  0  0  0
  -29.8691  -11.7468   17.6362 H   0  0  0  0  0  0
  -29.5845  -13.4696   17.6847 H   0  0  0  0  0  0
  -27.9958  -11.2756   19.0440 H   0  0  0  0  0  0
  -27.3943  -12.3870   17.8414 H   0  0  0  0  0  0
  -27.5458  -14.2431   19.3581 H   0  0  0  0  0  0
  -28.7700  -12.4529   21.5125 H   0  0  0  0  0  0
  -28.3194  -14.1351   21.7053 H   0  0  0  0  0  0
  -25.2763   -9.5687   22.4755 H   0  0  0  0  0  0
  -24.0005   -7.4632   22.7465 H   0  0  0  0  0  0
  -21.0846   -8.8735   19.8948 H   0  0  0  0  0  0
  -22.3678  -10.9641   19.6146 H   0  0  0  0  0  0
  -21.1990   -7.6132   23.9710 H   0  0  0  0  0  0
  -21.1497   -6.0509   25.9078 H   0  0  0  0  0  0
  -22.0597   -2.7594   23.2847 H   0  0  0  0  0  0
  -22.4033  -11.9840   22.4845 H   0  0  0  0  0  0
  -21.1010  -13.1153   22.2623 H   0  0  0  0  0  0
  -24.6388  -15.8490   20.5705 H   0  0  0  0  0  0
  -26.2694  -15.6533   20.1825 H   0  0  0  0  0  0
  -26.7315  -32.5214   23.0908 H   0  0  0  0  0  0
  -25.0144  -33.9538   25.0296 H   0  0  0  0  0  0
  -22.7688  -31.2762   21.3615 H   0  0  0  0  0  0
  -23.3766  -35.9542   23.3288 H   0  0  0  0  0  0
  -24.3591  -36.8869   22.2067 H   0  0  0  0  0  0
  -23.7240  -37.6403   23.6696 H   0  0  0  0  0  0
  -26.1885  -31.4199   20.6134 H   0  0  0  0  0  0
  -26.8873  -30.7293   22.0379 H   0  0  0  0  0  0
  -28.1181  -28.6869   21.2936 H   0  0  0  0  0  0
  -25.9092  -25.7841   18.9926 H   0  0  0  0  0  0
  -24.0047  -27.2854   18.9399 H   0  0  0  0  0  0
  -23.8344  -30.5395   19.3870 H   0  0  0  0  0  0
  -22.8058  -29.2136   19.8334 H   0  0  0  0  0  0
  -25.1325  -36.1800   25.0800 H   0  0  0  0  0  0
  -21.0031  -28.3324   24.1337 H   0  0  0  0  0  0
  -20.5685  -26.2345   23.3639 H   0  0  0  0  0  0
  -21.6657  -26.7421   22.1211 H   0  0  0  0  0  0
  -19.6932  -25.6286   21.1264 H   0  0  0  0  0  0
  -19.6701  -27.3180   20.6740 H   0  0  0  0  0  0
  -17.4225  -26.6695   21.4018 H   0  0  0  0  0  0
  -18.0333  -26.0066   22.9004 H   0  0  0  0  0  0
  -19.7953  -30.7292   24.2252 H   0  0  0  0  0  0
  -17.5023  -31.6272   24.5157 H   0  0  0  0  0  0
  -15.5368  -30.2980   23.7657 H   0  0  0  0  0  0
  -15.8692  -28.0791   22.7124 H   0  0  0  0  0  0
  -24.5940  -30.7039   25.7667 H   0  0  0  0  0  0
  -24.8851  -32.2917   26.4657 H   0  0  0  0  0  0
  -25.7980  -30.9002   27.0198 H   0  0  0  0  0  0
  -26.3064  -29.6616   24.1318 H   0  0  0  0  0  0
  -27.4028  -29.7244   25.4906 H   0  0  0  0  0  0
  -27.8978  -30.4136   23.9650 H   0  0  0  0  0  0
  -27.2684  -33.3669   26.1911 H   0  0  0  0  0  0
  -28.3949  -32.6766   25.0324 H   0  0  0  0  0  0
  -28.0662  -31.8503   26.5476 H   0  0  0  0  0  0
  -28.2583  -38.0076   24.7518 H   0  0  0  0  0  0
  -28.1071  -36.2606   24.6299 H   0  0  0  0  0  0
  -27.2296  -37.1415   25.8879 H   0  0  0  0  0  0
  -20.9518  -29.8730   21.6725 H   0  0  0  0  0  0
  -26.0136  -38.2780   24.1402 H   0  0  0  0  0  0
  -26.4394  -18.3022   18.6468 H   0  0  0  0  0  0
  -26.9346  -20.6355   19.1031 H   0  0  0  0  0  0
  -27.8635  -16.4485   19.3340 H   0  0  0  0  0  0
  -30.5303  -19.3457   21.1267 H   0  0  0  0  0  0
  -30.8792  -24.0998   20.8935 H   0  0  0  0  0  0
  -31.8308  -23.8378   19.4592 H   0  0  0  0  0  0
  -29.7904  -24.1684   18.0349 H   0  0  0  0  0  0
  -30.1991  -25.5824   18.9600 H   0  0  0  0  0  0
  -31.1075  -21.6955   20.6090 H   0  0  0  0  0  0
  -30.7040  -21.7789   18.9148 H   0  0  0  0  0  0
  -27.7319  -24.5904   18.8026 H   0  0  0  0  0  0
  -30.1534  -17.3834   22.7732 H   0  0  0  0  0  0
  -31.7002  -17.1346   21.9562 H   0  0  0  0  0  0
  -30.9035  -15.8060   22.8031 H   0  0  0  0  0  0
  1 25  1  0  0  0
  1 30  2  0  0  0
  1 84  1  0  0  0
  2  3  1  0  0  0
  2 25  1  0  0  0
  2 86  1  0  0  0
  2 87  1  0  0  0
  3  4  1  0  0  0
  3 88  1  0  0  0
  3 89  1  0  0  0
  4  5  1  0  0  0
  4 90  1  0  0  0
  4 91  1  0  0  0
  5  6  1  0  0  0
  5 26  1  0  0  0
  5 92  1  0  0  0
  6 25  1  0  0  0
  6 93  1  0  0  0
  6 94  1  0  0  0
  7  8  2  0  0  0
  7 26  1  0  0  0
  7 29  1  0  0  0
  8  9  1  0  0  0
  8 22  1  0  0  0
  9 10  1  0  0  0
  9 27  2  0  0  0
 10 11  2  0  0  0
 10 15  1  0  0  0
 11 12  1  0  0  0
 11 95  1  0  0  0
 12 13  2  0  0  0
 12 96  1  0  0  0
 13 14  1  0  0  0
 13 31  1  0  0  0
 14 15  2  0  0  0
 14 97  1  0  0  0
 15 98  1  0  0  0
 16 17  2  0  0  0
 16 21  1  0  0  0
 16 31  1  0  0  0
 17 18  1  0  0  0
 17 99  1  0  0  0
 18 19  2  0  0  0
 18100  1  0  0  0
 19 20  1  0  0  0
 19 24  1  0  0  0
 20 21  2  0  0  0
 20101  1  0  0  0
 21 23  1  0  0  0
 22 28  1  0  0  0
 22 32  2  0  0  0
 26 27  1  0  0  0
 28102  1  0  0  0
 28103  1  0  0  0
 29104  1  0  0  0
 29105  1  0  0  0
 33 34  1  0  0  0
 33 66  1  0  0  0
 33 70  2  0  0  0
 34 36  1  0  0  0
 34 59  1  0  0  0
 34106  1  0  0  0
 35 44  2  0  0  0
 35 45  1  0  0  0
 35 68  1  0  0  0
 36 56  1  0  0  0
 36107  1  0  0  0
 37 39  1  0  0  0
 37 47  1  0  0  0
 37 66  1  0  0  0
 37108  1  0  0  0
 38 43  2  0  0  0
 38 46  1  0  0  0
 38 47  1  0  0  0
 39 64  1  0  0  0
 39 67  2  0  0  0
 40 52  1  0  0  0
 40 53  2  0  0  0
 40 58  1  0  0  0
 41109  1  0  0  0
 41110  1  0  0  0
 41111  1  0  0  0
 41 48  1  0  0  0
 42 43  1  0  0  0
 42 66  1  0  0  0
 42112  1  0  0  0
 42113  1  0  0  0
 43 44  1  0  0  0
 44114  1  0  0  0
 45 46  2  0  0  0
 45115  1  0  0  0
 46116  1  0  0  0
 47117  1  0  0  0
 47118  1  0  0  0
 48 56  1  0  0  0
 48 65  1  0  0  0
 48119  1  0  0  0
 49 50  1  0  0  0
 49 53  1  0  0  0
 49 64  1  0  0  0
 49120  1  0  0  0
 50 51  1  0  0  0
 50121  1  0  0  0
 50122  1  0  0  0
 51 52  1  0  0  0
 51123  1  0  0  0
 51124  1  0  0  0
 52125  1  0  0  0
 52126  1  0  0  0
 53 54  1  0  0  0
 54 55  2  0  0  0
 54127  1  0  0  0
 55 57  1  0  0  0
 55128  1  0  0  0
 56 69  2  0  0  0
 57 58  2  0  0  0
 57129  1  0  0  0
 58130  1  0  0  0
 59 60  1  0  0  0
 59 61  1  0  0  0
 59 62  1  0  0  0
 60131  1  0  0  0
 60132  1  0  0  0
 60133  1  0  0  0
 61134  1  0  0  0
 61135  1  0  0  0
 61136  1  0  0  0
 62137  1  0  0  0
 62138  1  0  0  0
 62139  1  0  0  0
 63 65  1  0  0  0
 63140  1  0  0  0
 63141  1  0  0  0
 63142  1  0  0  0
 64143  1  0  0  0
 65144  1  0  0  0
 68 81  1  0  0  0
 71 72  2  0  0  0
 71 73  1  0  0  0
 71145  1  0  0  0
 72 75  1  0  0  0
 72146  1  0  0  0
 73 76  2  0  0  0
 73147  1  0  0  0
 74 75  2  0  0  0
 74 76  1  0  0  0
 74148  1  0  0  0
 75 83  1  0  0  0
 76 84  1  0  0  0
 77 81  1  0  0  0
 77 83  1  0  0  0
 77 85  2  0  0  0
 78 79  1  0  0  0
 78 80  1  0  0  0
 78149  1  0  0  0
 78150  1  0  0  0
 79 81  1  0  0  0
 79151  1  0  0  0
 79152  1  0  0  0
 80 83  1  0  0  0
 80153  1  0  0  0
 80154  1  0  0  0
 81155  1  0  0  0
 82 84  1  0  0  0
 82156  1  0  0  0
 82157  1  0  0  0
 82158  1  0  0  0
M  ISO  4   1 100  68 101  81 101  84 100
M  END
> <chiral flag>
0

> <version>
0

> <s_m_source_file>
/data/baiqing/PycharmProjects/Reinvent-master-3.2/result/LINK_invent/BTK/process_docking_weight1_custom_product_contain_oxygen_bond_distance_aromatic_linkinvent_7_9_3/rearranged_h_0095.sdf

> <i_m_source_file_index>
23

> <r_mmod_Potential_Energy-OPLS-2005>
1121.42370605469

> <r_mmod_Stretch_Energy-OPLS-2005>
391.745086669922

> <r_mmod_Bend_Energy-OPLS-2005>
364.556701660156

> <r_mmod_Torsional_Energy-OPLS-2005>
354.228454589844

> <r_mmod_Improper_Torsional_Energy-OPLS-2005>
6.0016188621521

> <r_mmod_Van_der_Waal_Energy-OPLS-2005>
134.975875854492

> <r_mmod_Electrostatic_Energy-OPLS-2005>
-221.274642944336

> <r_mmod_Solvation_Energy-OPLS-2005>
-208.826644897461

> <b_mmod_Minimization_Converged-OPLS-2005>
0

> <r_mmod_RMS_Derivative-OPLS-2005>
1.60771226882935

$$$$
23
                    3D
 Structure written by MMmdl.
153161  0  0  1  0            999 V2000
  -30.6593  -14.5423   20.5149 C   0  0  0  0  0  0
  -30.4296  -12.3330   19.4454 C   0  0  0  0  0  0
  -29.5042  -12.5014   18.2205 C   0  0  0  0  0  0
  -28.0242  -12.3605   18.6276 C   0  0  0  0  0  0
  -27.6605  -13.2103   19.8749 C   0  0  2  0  0  0
  -28.7020  -13.0233   21.0028 C   0  0  0  0  0  0
  -25.2594  -13.8162   20.5680 C   0  0  0  0  0  0
  -24.1842  -13.0441   20.9166 C   0  0  0  0  0  0
  -24.6399  -11.6906   20.8726 C   0  0  0  0  0  0
  -23.9063  -10.4294   21.0397 C   0  0  0  0  0  0
  -24.3617   -9.4209   21.9174 C   0  0  0  0  0  0
  -23.6290   -8.2248   22.0747 C   0  0  0  0  0  0
  -22.4270   -8.0285   21.3539 C   0  0  0  0  0  0
  -21.9905   -9.0261   20.4645 C   0  0  0  0  0  0
  -22.7234  -10.2141   20.3050 C   0  0  0  0  0  0
  -21.6855   -6.0734   22.5272 C   0  0  0  0  0  0
  -21.4019   -6.5638   23.8204 C   0  0  0  0  0  0
  -21.3658   -5.6790   24.9167 C   0  0  0  0  0  0
  -21.6044   -4.3053   24.7216 C   0  0  0  0  0  0
  -21.8824   -3.8145   23.4336 C   0  0  0  0  0  0
  -21.9196   -4.6962   22.3393 C   0  0  0  0  0  0
  -22.7868  -13.5243   21.1838 C   0  0  0  0  0  0
  -22.1664   -4.2149   21.0968 F   0  0  0  0  0  0
  -21.5624   -3.4533   25.7728 F   0  0  0  0  0  0
  -30.0292  -13.3346   20.4495 N   0  0  0  0  0  0
  -26.3025  -12.9331   20.3360 N   0  0  0  0  0  0
  -25.9329  -11.6490   20.5762 N   0  0  0  0  0  0
  -22.0514  -12.8237   22.0400 N   0  0  0  0  0  0
  -25.4351  -15.1879   20.4106 N   0  0  0  0  0  0
  -31.8004  -14.7172   20.0778 O   0  0  0  0  0  0
  -21.6641   -6.8879   21.4233 O   0  0  0  0  0  0
  -22.3550  -14.5555   20.6699 O   0  0  0  0  0  0
  -24.6190  -31.8641   23.2069 C   0  0  0  0  0  0
  -25.9067  -32.4801   23.8374 C   0  0  1  0  0  0
  -27.2327  -27.3852   20.0980 C   0  0  0  0  0  0
  -25.5908  -33.8600   24.2306 N   0  0  0  0  0  0
  -23.4091  -30.4872   21.5480 C   0  0  2  0  0  0
  -24.8541  -28.9467   20.1115 C   0  0  0  0  0  0
  -22.7434  -29.4637   22.4969 C   0  0  0  0  0  0
  -18.0277  -28.1381   22.8489 C   0  0  0  0  0  0
  -24.1487  -36.7306   23.2637 C   0  0  0  0  0  0
  -25.9423  -30.8130   21.3678 C   0  0  0  0  0  0
  -26.0158  -29.4441   20.7127 C   0  0  0  0  0  0
  -27.2031  -28.6695   20.7041 C   0  0  0  0  0  0
  -26.0470  -26.9137   19.4891 C   0  0  0  0  0  0
  -24.8669  -27.6829   19.4975 C   0  0  0  0  0  0
  -23.6191  -29.8198   20.1623 C   0  0  0  0  0  0
  -25.4108  -36.3099   24.0335 C   0  0  1  0  0  0
  -20.5870  -28.3670   23.1307 C   0  0  2  0  0  0
  -20.6765  -26.9402   22.5417 C   0  0  0  0  0  0
  -19.5743  -26.6381   21.5214 C   0  0  0  0  0  0
  -18.1922  -26.7927   22.1625 C   0  0  0  0  0  0
  -19.1527  -28.8843   23.2894 C   0  0  0  0  0  0
  -18.9453  -30.1448   23.8906 C   0  0  0  0  0  0
  -17.6455  -30.6585   24.0565 C   0  0  0  0  0  0
  -25.9038  -34.9465   23.5119 C   0  0  0  0  0  0
  -16.5347  -29.9088   23.6324 C   0  0  0  0  0  0
  -16.7266  -28.6504   23.0348 C   0  0  0  0  0  0
  -26.4481  -31.6595   25.0721 C   0  0  0  0  0  0
  -25.3739  -31.3726   26.1472 C   0  0  0  0  0  0
  -27.0312  -30.3026   24.6132 C   0  0  0  0  0  0
  -27.6051  -32.4323   25.7483 C   0  0  0  0  0  0
  -27.5583  -37.1808   24.8463 C   0  0  0  0  0  0
  -21.4157  -29.3032   22.3710 N   0  0  0  0  0  0
  -26.4293  -37.3786   23.9411 N   0  0  0  0  0  0
  -24.6752  -31.0705   22.0986 N   0  0  0  0  0  0
  -23.4187  -28.8178   23.3026 O   0  0  0  0  0  0
  -28.4051  -26.6385   20.1497 O   0  0  0  0  0  0
  -26.5601  -34.8924   22.4682 O   0  0  0  0  0  0
  -23.5373  -32.1413   23.7440 O   0  0  0  0  0  0
  -29.8227  -18.1049   20.8561 C   0  0  0  0  0  0
  -29.2547  -19.2247   18.7628 C   0  0  0  0  0  0
  -29.3783  -16.7860   18.8534 C   0  0  0  0  0  0
  -29.5969  -19.3182   20.1295 C   0  0  0  0  0  0
  -29.7336  -16.8276   20.2219 C   0  0  0  0  0  0
  -29.1409  -17.9718   18.1326 C   0  0  0  0  0  0
  -28.6542  -21.7390   20.7053 C   0  0  0  0  0  0
  -28.1119  -24.1096   20.2852 C   0  0  0  0  0  0
  -29.8341  -20.7183   20.7537 C   0  0  0  0  0  0
  -28.5513  -25.3621   19.4609 C   0  0  0  0  0  0
  -29.9081  -15.5887   20.9414 N   0  0  0  0  0  0
  -28.9001  -22.9968   20.2395 N   0  0  0  0  0  0
  -27.5501  -21.3633   21.1157 O   0  0  0  0  0  0
  -27.0615  -24.1756   20.9340 O   0  0  0  0  0  0
  -28.8099  -17.9064   16.8209 F   0  0  0  0  0  0
  -31.4742  -12.4377   19.1464 H   0  0  0  0  0  0
  -30.3402  -11.3287   19.8622 H   0  0  0  0  0  0
  -29.7541  -11.7634   17.4571 H   0  0  0  0  0  0
  -29.6680  -13.4785   17.7635 H   0  0  0  0  0  0
  -27.8376  -11.3055   18.8322 H   0  0  0  0  0  0
  -27.3772  -12.6255   17.7906 H   0  0  0  0  0  0
  -27.6925  -14.2536   19.5619 H   0  0  0  0  0  0
  -28.6882  -11.9955   21.3683 H   0  0  0  0  0  0
  -28.4606  -13.6461   21.8657 H   0  0  0  0  0  0
  -25.2767   -9.5681   22.4739 H   0  0  0  0  0  0
  -23.9997   -7.4638   22.7466 H   0  0  0  0  0  0
  -21.0832   -8.8786   19.8951 H   0  0  0  0  0  0
  -22.3695  -10.9679   19.6155 H   0  0  0  0  0  0
  -21.2017   -7.6148   23.9710 H   0  0  0  0  0  0
  -21.1473   -6.0518   25.9071 H   0  0  0  0  0  0
  -22.0606   -2.7606   23.2839 H   0  0  0  0  0  0
  -22.4130  -11.9891   22.4768 H   0  0  0  0  0  0
  -21.1139  -13.1266   22.2624 H   0  0  0  0  0  0
  -24.6746  -15.8493   20.5224 H   0  0  0  0  0  0
  -26.2952  -15.6237   20.1024 H   0  0  0  0  0  0
  -26.7135  -32.5492   23.1127 H   0  0  0  0  0  0
  -25.0077  -33.9750   25.0468 H   0  0  0  0  0  0
  -22.6997  -31.3053   21.4079 H   0  0  0  0  0  0
  -23.3748  -35.9640   23.3303 H   0  0  0  0  0  0
  -24.3579  -36.8918   22.2050 H   0  0  0  0  0  0
  -23.7242  -37.6512   23.6651 H   0  0  0  0  0  0
  -26.0642  -31.5777   20.5994 H   0  0  0  0  0  0
  -26.8265  -30.8631   21.9916 H   0  0  0  0  0  0
  -28.0984  -29.0487   21.1767 H   0  0  0  0  0  0
  -26.0014  -25.9410   19.0235 H   0  0  0  0  0  0
  -23.9715  -27.2922   19.0340 H   0  0  0  0  0  0
  -23.7329  -30.5952   19.4039 H   0  0  0  0  0  0
  -22.7407  -29.2447   19.8640 H   0  0  0  0  0  0
  -25.1284  -36.1962   25.0828 H   0  0  0  0  0  0
  -20.9959  -28.3241   24.1430 H   0  0  0  0  0  0
  -20.5668  -26.2278   23.3606 H   0  0  0  0  0  0
  -21.6637  -26.7442   22.1211 H   0  0  0  0  0  0
  -19.6902  -25.6295   21.1236 H   0  0  0  0  0  0
  -19.6679  -27.3196   20.6748 H   0  0  0  0  0  0
  -17.4190  -26.6677   21.4028 H   0  0  0  0  0  0
  -18.0318  -26.0067   22.9019 H   0  0  0  0  0  0
  -19.7929  -30.7263   24.2279 H   0  0  0  0  0  0
  -17.5011  -31.6266   24.5165 H   0  0  0  0  0  0
  -15.5348  -30.2993   23.7644 H   0  0  0  0  0  0
  -15.8666  -28.0826   22.7061 H   0  0  0  0  0  0
  -24.5891  -30.7093   25.7819 H   0  0  0  0  0  0
  -24.8958  -32.2894   26.4932 H   0  0  0  0  0  0
  -25.8084  -30.8884   27.0226 H   0  0  0  0  0  0
  -26.2865  -29.6786   24.1173 H   0  0  0  0  0  0
  -27.4049  -29.7269   25.4611 H   0  0  0  0  0  0
  -27.8717  -30.4328   23.9310 H   0  0  0  0  0  0
  -27.2664  -33.3614   26.2080 H   0  0  0  0  0  0
  -28.3846  -32.6901   25.0300 H   0  0  0  0  0  0
  -28.0734  -31.8438   26.5383 H   0  0  0  0  0  0
  -28.2604  -38.0104   24.7517 H   0  0  0  0  0  0
  -28.1077  -36.2638   24.6279 H   0  0  0  0  0  0
  -27.2303  -37.1448   25.8867 H   0  0  0  0  0  0
  -20.9325  -29.8758   21.6930 H   0  0  0  0  0  0
  -26.0181  -38.2864   24.1413 H   0  0  0  0  0  0
  -30.0951  -18.1562   21.9016 H   0  0  0  0  0  0
  -29.0945  -20.1179   18.1763 H   0  0  0  0  0  0
  -29.2745  -15.8436   18.3369 H   0  0  0  0  0  0
  -30.7078  -21.1537   20.2680 H   0  0  0  0  0  0
  -30.1114  -20.5937   21.8007 H   0  0  0  0  0  0
  -28.0476  -25.3637   18.4944 H   0  0  0  0  0  0
  -29.6103  -25.2583   19.2245 H   0  0  0  0  0  0
  -29.1129  -15.3159   21.4998 H   0  0  0  0  0  0
  -29.7999  -23.1275   19.8029 H   0  0  0  0  0  0
  1 25  1  0  0  0
  1 30  2  0  0  0
  1 81  1  0  0  0
  2  3  1  0  0  0
  2 25  1  0  0  0
  2 86  1  0  0  0
  2 87  1  0  0  0
  3  4  1  0  0  0
  3 88  1  0  0  0
  3 89  1  0  0  0
  4  5  1  0  0  0
  4 90  1  0  0  0
  4 91  1  0  0  0
  5  6  1  0  0  0
  5 26  1  0  0  0
  5 92  1  0  0  0
  6 25  1  0  0  0
  6 93  1  0  0  0
  6 94  1  0  0  0
  7  8  2  0  0  0
  7 26  1  0  0  0
  7 29  1  0  0  0
  8  9  1  0  0  0
  8 22  1  0  0  0
  9 10  1  0  0  0
  9 27  2  0  0  0
 10 11  2  0  0  0
 10 15  1  0  0  0
 11 12  1  0  0  0
 11 95  1  0  0  0
 12 13  2  0  0  0
 12 96  1  0  0  0
 13 14  1  0  0  0
 13 31  1  0  0  0
 14 15  2  0  0  0
 14 97  1  0  0  0
 15 98  1  0  0  0
 16 17  2  0  0  0
 16 21  1  0  0  0
 16 31  1  0  0  0
 17 18  1  0  0  0
 17 99  1  0  0  0
 18 19  2  0  0  0
 18100  1  0  0  0
 19 20  1  0  0  0
 19 24  1  0  0  0
 20 21  2  0  0  0
 20101  1  0  0  0
 21 23  1  0  0  0
 22 28  1  0  0  0
 22 32  2  0  0  0
 26 27  1  0  0  0
 28102  1  0  0  0
 28103  1  0  0  0
 29104  1  0  0  0
 29105  1  0  0  0
 33 34  1  0  0  0
 33 66  1  0  0  0
 33 70  2  0  0  0
 34 36  1  0  0  0
 34 59  1  0  0  0
 34106  1  0  0  0
 35 44  2  0  0  0
 35 45  1  0  0  0
 35 68  1  0  0  0
 36 56  1  0  0  0
 36107  1  0  0  0
 37 39  1  0  0  0
 37 47  1  0  0  0
 37 66  1  0  0  0
 37108  1  0  0  0
 38 43  2  0  0  0
 38 46  1  0  0  0
 38 47  1  0  0  0
 39 64  1  0  0  0
 39 67  2  0  0  0
 40 52  1  0  0  0
 40 53  2  0  0  0
 40 58  1  0  0  0
 41109  1  0  0  0
 41110  1  0  0  0
 41111  1  0  0  0
 41 48  1  0  0  0
 42 43  1  0  0  0
 42 66  1  0  0  0
 42112  1  0  0  0
 42113  1  0  0  0
 43 44  1  0  0  0
 44114  1  0  0  0
 45 46  2  0  0  0
 45115  1  0  0  0
 46116  1  0  0  0
 47117  1  0  0  0
 47118  1  0  0  0
 48 56  1  0  0  0
 48 65  1  0  0  0
 48119  1  0  0  0
 49 50  1  0  0  0
 49 53  1  0  0  0
 49 64  1  0  0  0
 49120  1  0  0  0
 50 51  1  0  0  0
 50121  1  0  0  0
 50122  1  0  0  0
 51 52  1  0  0  0
 51123  1  0  0  0
 51124  1  0  0  0
 52125  1  0  0  0
 52126  1  0  0  0
 53 54  1  0  0  0
 54 55  2  0  0  0
 54127  1  0  0  0
 55 57  1  0  0  0
 55128  1  0  0  0
 56 69  2  0  0  0
 57 58  2  0  0  0
 57129  1  0  0  0
 58130  1  0  0  0
 59 60  1  0  0  0
 59 61  1  0  0  0
 59 62  1  0  0  0
 60131  1  0  0  0
 60132  1  0  0  0
 60133  1  0  0  0
 61134  1  0  0  0
 61135  1  0  0  0
 61136  1  0  0  0
 62137  1  0  0  0
 62138  1  0  0  0
 62139  1  0  0  0
 63 65  1  0  0  0
 63140  1  0  0  0
 63141  1  0  0  0
 63142  1  0  0  0
 64143  1  0  0  0
 65144  1  0  0  0
 68 80  1  0  0  0
 71 74  2  0  0  0
 71 75  1  0  0  0
 71145  1  0  0  0
 72 74  1  0  0  0
 72 76  2  0  0  0
 72146  1  0  0  0
 73 75  2  0  0  0
 73 76  1  0  0  0
 73147  1  0  0  0
 74 79  1  0  0  0
 75 81  1  0  0  0
 76 85  1  0  0  0
 77 79  1  0  0  0
 77 82  1  0  0  0
 77 83  2  0  0  0
 78 80  1  0  0  0
 78 82  1  0  0  0
 78 84  2  0  0  0
 79148  1  0  0  0
 79149  1  0  0  0
 80150  1  0  0  0
 80151  1  0  0  0
 81152  1  0  0  0
 82153  1  0  0  0
M  ISO  4   1 100  68 101  80 101  81 100
M  END
> <chiral flag>
0

> <version>
0

> <s_m_source_file>
/data/baiqing/PycharmProjects/Reinvent-master-3.2/result/LINK_invent/BTK/process_docking_weight1_custom_product_contain_oxygen_bond_distance_aromatic_linkinvent_7_9_3/rearranged_h_0095.sdf

> <i_m_source_file_index>
24

> <r_mmod_Potential_Energy-OPLS-2005>
-92.006462097168

> <r_mmod_Stretch_Energy-OPLS-2005>
53.3226356506348

> <r_mmod_Bend_Energy-OPLS-2005>
119.275451660156

> <r_mmod_Torsional_Energy-OPLS-2005>
242.055358886719

> <r_mmod_Improper_Torsional_Energy-OPLS-2005>
6.41560983657837

> <r_mmod_Van_der_Waal_Energy-OPLS-2005>
144.432830810547

> <r_mmod_Electrostatic_Energy-OPLS-2005>
-389.498168945312

> <r_mmod_Solvation_Energy-OPLS-2005>
-291.248626708984

> <b_mmod_Minimization_Converged-OPLS-2005>
0

> <r_mmod_RMS_Derivative-OPLS-2005>
0.760591804981232

$$$$
24
                    3D
 Structure written by MMmdl.
161170  0  0  1  0            999 V2000
  -30.6159  -14.7981   20.4501 C   0  0  0  0  0  0
  -30.4293  -12.4899   19.4812 C   0  0  0  0  0  0
  -29.5107  -12.5100   18.2403 C   0  0  0  0  0  0
  -28.0393  -12.3258   18.6565 C   0  0  0  0  0  0
  -27.6364  -13.2397   19.8445 C   0  0  2  0  0  0
  -28.6818  -13.2128   20.9809 C   0  0  0  0  0  0
  -25.2485  -13.8208   20.5703 C   0  0  0  0  0  0
  -24.1792  -13.0442   20.9227 C   0  0  0  0  0  0
  -24.6396  -11.6924   20.8756 C   0  0  0  0  0  0
  -23.9078  -10.4295   21.0408 C   0  0  0  0  0  0
  -24.3626   -9.4208   21.9184 C   0  0  0  0  0  0
  -23.6298   -8.2245   22.0754 C   0  0  0  0  0  0
  -22.4279   -8.0284   21.3545 C   0  0  0  0  0  0
  -21.9919   -9.0260   20.4647 C   0  0  0  0  0  0
  -22.7251  -10.2137   20.3056 C   0  0  0  0  0  0
  -21.6856   -6.0737   22.5279 C   0  0  0  0  0  0
  -21.4015   -6.5638   23.8213 C   0  0  0  0  0  0
  -21.3659   -5.6791   24.9175 C   0  0  0  0  0  0
  -21.6043   -4.3053   24.7224 C   0  0  0  0  0  0
  -21.8820   -3.8147   23.4346 C   0  0  0  0  0  0
  -21.9194   -4.6964   22.3402 C   0  0  0  0  0  0
  -22.7810  -13.5218   21.1878 C   0  0  0  0  0  0
  -22.1661   -4.2150   21.0980 F   0  0  0  0  0  0
  -21.5631   -3.4537   25.7737 F   0  0  0  0  0  0
  -29.9756  -13.5740   20.3892 N   0  0  0  0  0  0
  -26.2915  -12.9433   20.3266 N   0  0  0  0  0  0
  -25.9327  -11.6567   20.5751 N   0  0  0  0  0  0
  -22.0455  -12.8206   22.0432 N   0  0  0  0  0  0
  -25.4143  -15.1933   20.4098 N   0  0  0  0  0  0
  -31.8109  -14.8405   20.1465 O   0  0  0  0  0  0
  -21.6642   -6.8881   21.4241 O   0  0  0  0  0  0
  -22.3490  -14.5518   20.6717 O   0  0  0  0  0  0
  -24.6354  -31.8524   23.1963 C   0  0  0  0  0  0
  -25.9163  -32.4738   23.8320 C   0  0  1  0  0  0
  -27.2150  -27.2299   20.1347 C   0  0  0  0  0  0
  -25.5945  -33.8541   24.2241 N   0  0  0  0  0  0
  -23.4351  -30.4751   21.5395 C   0  0  2  0  0  0
  -24.8860  -28.9221   20.1053 C   0  0  0  0  0  0
  -22.7532  -29.4585   22.4883 C   0  0  0  0  0  0
  -18.0302  -28.1392   22.8480 C   0  0  0  0  0  0
  -24.1487  -36.7266   23.2638 C   0  0  0  0  0  0
  -25.9852  -30.7545   21.3842 C   0  0  0  0  0  0
  -26.0600  -29.3756   20.7235 C   0  0  0  0  0  0
  -27.2310  -28.5412   20.7305 C   0  0  0  0  0  0
  -26.0248  -26.8611   19.4728 C   0  0  0  0  0  0
  -24.8753  -27.6739   19.4664 C   0  0  0  0  0  0
  -23.6575  -29.8122   20.1549 C   0  0  0  0  0  0
  -25.4114  -36.3055   24.0324 C   0  0  1  0  0  0
  -20.5911  -28.3707   23.1250 C   0  0  2  0  0  0
  -20.6785  -26.9417   22.5404 C   0  0  0  0  0  0
  -19.5758  -26.6383   21.5209 C   0  0  0  0  0  0
  -18.1941  -26.7932   22.1624 C   0  0  0  0  0  0
  -19.1558  -28.8868   23.2859 C   0  0  0  0  0  0
  -18.9476  -30.1468   23.8878 C   0  0  0  0  0  0
  -17.6473  -30.6587   24.0563 C   0  0  0  0  0  0
  -25.9062  -34.9429   23.5084 C   0  0  0  0  0  0
  -16.5363  -29.9081   23.6339 C   0  0  0  0  0  0
  -16.7288  -28.6503   23.0353 C   0  0  0  0  0  0
  -26.4516  -31.6574   25.0724 C   0  0  0  0  0  0
  -25.3725  -31.3736   26.1434 C   0  0  0  0  0  0
  -27.0373  -30.2983   24.6245 C   0  0  0  0  0  0
  -27.6057  -32.4328   25.7505 C   0  0  0  0  0  0
  -27.5582  -37.1778   24.8460 C   0  0  0  0  0  0
  -21.4234  -29.3043   22.3625 N   0  0  0  0  0  0
  -26.4277  -37.3765   23.9425 N   0  0  0  0  0  0
  -24.7042  -31.0458   22.0957 N   0  0  0  0  0  0
  -23.4212  -28.8127   23.2999 O   0  0  0  0  0  0
  -28.2266  -26.2323   20.2094 O   0  0  0  0  0  0
  -26.5640  -34.8913   22.4657 O   0  0  0  0  0  0
  -23.5494  -32.1363   23.7232 O   0  0  0  0  0  0
  -31.6107  -17.7553   20.9284 C   0  0  0  0  0  0
  -29.3624  -18.5963   20.5075 C   0  0  0  0  0  0
  -29.7908  -20.0107   20.6151 C   0  0  0  0  0  0
  -30.2599  -17.4337   20.6625 C   0  0  0  0  0  0
  -32.0569  -19.0850   21.0386 C   0  0  0  0  0  0
  -31.1754  -20.1810   20.9000 C   0  0  0  0  0  0
  -28.1362  -23.6291   20.7924 C   0  0  0  0  0  0
  -27.8201  -24.9990   20.8201 C   0  0  0  0  0  0
  -27.3120  -22.6860   21.6524 C   0  0  0  0  0  0
  -29.1310  -22.6358   20.0766 C   0  0  0  0  0  0
  -28.0119  -21.3105   21.7132 C   0  0  0  0  0  0
  -27.9017  -18.2994   20.2104 C   0  0  0  0  0  0
  -28.9122  -21.1998   20.5721 N   0  0  0  0  0  0
  -33.4037  -19.3421   21.3178 N   0  0  0  0  0  0
  -31.7175  -21.4386   21.1632 N   0  0  0  0  0  0
  -29.8650  -15.9742   20.6159 N   0  0  0  0  0  0
  -31.4696  -12.6100   19.1744 H   0  0  0  0  0  0
  -30.3783  -11.5236   19.9853 H   0  0  0  0  0  0
  -29.8026  -11.7265   17.5396 H   0  0  0  0  0  0
  -29.6286  -13.4562   17.7096 H   0  0  0  0  0  0
  -27.9071  -11.2799   18.9359 H   0  0  0  0  0  0
  -27.3801  -12.4979   17.8047 H   0  0  0  0  0  0
  -27.6184  -14.2537   19.4442 H   0  0  0  0  0  0
  -28.7307  -12.2266   21.4449 H   0  0  0  0  0  0
  -28.4086  -13.9127   21.7723 H   0  0  0  0  0  0
  -25.2770   -9.5685   22.4761 H   0  0  0  0  0  0
  -24.0008   -7.4635   22.7471 H   0  0  0  0  0  0
  -21.0853   -8.8783   19.8949 H   0  0  0  0  0  0
  -22.3712  -10.9679   19.6167 H   0  0  0  0  0  0
  -21.2004   -7.6145   23.9717 H   0  0  0  0  0  0
  -21.1479   -6.0519   25.9078 H   0  0  0  0  0  0
  -22.0597   -2.7609   23.2846 H   0  0  0  0  0  0
  -22.4074  -11.9873   22.4828 H   0  0  0  0  0  0
  -21.1067  -13.1223   22.2625 H   0  0  0  0  0  0
  -24.6390  -15.8391   20.5110 H   0  0  0  0  0  0
  -26.2455  -15.6299   20.0360 H   0  0  0  0  0  0
  -26.7227  -32.5382   23.1059 H   0  0  0  0  0  0
  -25.0086  -33.9670   25.0383 H   0  0  0  0  0  0
  -22.7330  -31.2985   21.3924 H   0  0  0  0  0  0
  -23.3759  -35.9585   23.3276 H   0  0  0  0  0  0
  -24.3581  -36.8914   22.2057 H   0  0  0  0  0  0
  -23.7223  -37.6450   23.6681 H   0  0  0  0  0  0
  -26.1318  -31.5152   20.6162 H   0  0  0  0  0  0
  -26.8591  -30.8018   22.0222 H   0  0  0  0  0  0
  -28.1229  -28.8730   21.2432 H   0  0  0  0  0  0
  -25.9675  -25.8944   18.9922 H   0  0  0  0  0  0
  -23.9791  -27.3219   18.9743 H   0  0  0  0  0  0
  -23.7856  -30.5910   19.4022 H   0  0  0  0  0  0
  -22.7750  -29.2494   19.8457 H   0  0  0  0  0  0
  -25.1291  -36.1887   25.0814 H   0  0  0  0  0  0
  -21.0010  -28.3292   24.1369 H   0  0  0  0  0  0
  -20.5680  -26.2317   23.3614 H   0  0  0  0  0  0
  -21.6650  -26.7429   22.1200 H   0  0  0  0  0  0
  -19.6914  -25.6292   21.1245 H   0  0  0  0  0  0
  -19.6693  -27.3188   20.6734 H   0  0  0  0  0  0
  -17.4207  -26.6680   21.4029 H   0  0  0  0  0  0
  -18.0341  -26.0081   22.9029 H   0  0  0  0  0  0
  -19.7951  -30.7295   24.2232 H   0  0  0  0  0  0
  -17.5025  -31.6264   24.5170 H   0  0  0  0  0  0
  -15.5362  -30.2973   23.7678 H   0  0  0  0  0  0
  -15.8689  -28.0817   22.7073 H   0  0  0  0  0  0
  -24.5914  -30.7069   25.7762 H   0  0  0  0  0  0
  -24.8902  -32.2908   26.4823 H   0  0  0  0  0  0
  -25.8034  -30.8942   27.0232 H   0  0  0  0  0  0
  -26.2971  -29.6718   24.1255 H   0  0  0  0  0  0
  -27.4019  -29.7262   25.4786 H   0  0  0  0  0  0
  -27.8865  -30.4239   23.9525 H   0  0  0  0  0  0
  -27.2652  -33.3635   26.2056 H   0  0  0  0  0  0
  -28.3883  -32.6878   25.0347 H   0  0  0  0  0  0
  -28.0708  -31.8473   26.5446 H   0  0  0  0  0  0
  -28.2560  -38.0113   24.7562 H   0  0  0  0  0  0
  -28.1115  -36.2647   24.6210 H   0  0  0  0  0  0
  -27.2311  -37.1336   25.8863 H   0  0  0  0  0  0
  -20.9427  -29.8752   21.6814 H   0  0  0  0  0  0
  -26.0146  -38.2824   24.1471 H   0  0  0  0  0  0
  -32.3378  -16.9745   21.0857 H   0  0  0  0  0  0
  -27.0126  -25.2394   21.4997 H   0  0  0  0  0  0
  -26.3378  -22.5718   21.1749 H   0  0  0  0  0  0
  -27.1361  -23.0925   22.6493 H   0  0  0  0  0  0
  -30.1442  -23.0086   20.2011 H   0  0  0  0  0  0
  -28.9272  -22.6648   19.0055 H   0  0  0  0  0  0
  -27.2768  -20.5052   21.7316 H   0  0  0  0  0  0
  -28.5956  -21.2339   22.6324 H   0  0  0  0  0  0
  -27.4144  -19.1399   19.7168 H   0  0  0  0  0  0
  -27.3638  -18.0824   21.1331 H   0  0  0  0  0  0
  -27.8046  -17.4417   19.5453 H   0  0  0  0  0  0
  -34.0673  -18.6236   21.0497 H   0  0  0  0  0  0
  -33.6982  -20.2594   20.9973 H   0  0  0  0  0  0
  -30.9957  -22.0911   21.4428 H   0  0  0  0  0  0
  -32.4563  -21.3822   21.8541 H   0  0  0  0  0  0
  -28.8766  -15.8002   20.7092 H   0  0  0  0  0  0
  1 25  1  0  0  0
  1 30  2  0  0  0
  1 86  1  0  0  0
  2  3  1  0  0  0
  2 25  1  0  0  0
  2 87  1  0  0  0
  2 88  1  0  0  0
  3  4  1  0  0  0
  3 89  1  0  0  0
  3 90  1  0  0  0
  4  5  1  0  0  0
  4 91  1  0  0  0
  4 92  1  0  0  0
  5  6  1  0  0  0
  5 26  1  0  0  0
  5 93  1  0  0  0
  6 25  1  0  0  0
  6 94  1  0  0  0
  6 95  1  0  0  0
  7  8  2  0  0  0
  7 26  1  0  0  0
  7 29  1  0  0  0
  8  9  1  0  0  0
  8 22  1  0  0  0
  9 10  1  0  0  0
  9 27  2  0  0  0
 10 11  2  0  0  0
 10 15  1  0  0  0
 11 12  1  0  0  0
 11 96  1  0  0  0
 12 13  2  0  0  0
 12 97  1  0  0  0
 13 14  1  0  0  0
 13 31  1  0  0  0
 14 15  2  0  0  0
 14 98  1  0  0  0
 15 99  1  0  0  0
 16 17  2  0  0  0
 16 21  1  0  0  0
 16 31  1  0  0  0
 17 18  1  0  0  0
 17100  1  0  0  0
 18 19  2  0  0  0
 18101  1  0  0  0
 19 20  1  0  0  0
 19 24  1  0  0  0
 20 21  2  0  0  0
 20102  1  0  0  0
 21 23  1  0  0  0
 22 28  1  0  0  0
 22 32  2  0  0  0
 26 27  1  0  0  0
 28103  1  0  0  0
 28104  1  0  0  0
 29105  1  0  0  0
 29106  1  0  0  0
 33 34  1  0  0  0
 33 66  1  0  0  0
 33 70  2  0  0  0
 34 36  1  0  0  0
 34 59  1  0  0  0
 34107  1  0  0  0
 35 44  2  0  0  0
 35 45  1  0  0  0
 35 68  1  0  0  0
 36 56  1  0  0  0
 36108  1  0  0  0
 37 39  1  0  0  0
 37 47  1  0  0  0
 37 66  1  0  0  0
 37109  1  0  0  0
 38 43  2  0  0  0
 38 46  1  0  0  0
 38 47  1  0  0  0
 39 64  1  0  0  0
 39 67  2  0  0  0
 40 52  1  0  0  0
 40 53  2  0  0  0
 40 58  1  0  0  0
 41110  1  0  0  0
 41111  1  0  0  0
 41112  1  0  0  0
 41 48  1  0  0  0
 42 43  1  0  0  0
 42 66  1  0  0  0
 42113  1  0  0  0
 42114  1  0  0  0
 43 44  1  0  0  0
 44115  1  0  0  0
 45 46  2  0  0  0
 45116  1  0  0  0
 46117  1  0  0  0
 47118  1  0  0  0
 47119  1  0  0  0
 48 56  1  0  0  0
 48 65  1  0  0  0
 48120  1  0  0  0
 49 50  1  0  0  0
 49 53  1  0  0  0
 49 64  1  0  0  0
 49121  1  0  0  0
 50 51  1  0  0  0
 50122  1  0  0  0
 50123  1  0  0  0
 51 52  1  0  0  0
 51124  1  0  0  0
 51125  1  0  0  0
 52126  1  0  0  0
 52127  1  0  0  0
 53 54  1  0  0  0
 54 55  2  0  0  0
 54128  1  0  0  0
 55 57  1  0  0  0
 55129  1  0  0  0
 56 69  2  0  0  0
 57 58  2  0  0  0
 57130  1  0  0  0
 58131  1  0  0  0
 59 60  1  0  0  0
 59 61  1  0  0  0
 59 62  1  0  0  0
 60132  1  0  0  0
 60133  1  0  0  0
 60134  1  0  0  0
 61135  1  0  0  0
 61136  1  0  0  0
 61137  1  0  0  0
 62138  1  0  0  0
 62139  1  0  0  0
 62140  1  0  0  0
 63 65  1  0  0  0
 63141  1  0  0  0
 63142  1  0  0  0
 63143  1  0  0  0
 64144  1  0  0  0
 65145  1  0  0  0
 68 78  1  0  0  0
 71 74  2  0  0  0
 71 75  1  0  0  0
 71146  1  0  0  0
 72 73  2  0  0  0
 72 74  1  0  0  0
 72 82  1  0  0  0
 73 76  1  0  0  0
 73 83  1  0  0  0
 74 86  1  0  0  0
 75 76  2  0  0  0
 75 84  1  0  0  0
 76 85  1  0  0  0
 77 78  2  0  0  0
 77 79  1  0  0  0
 77 80  1  0  0  0
 78147  1  0  0  0
 79 81  1  0  0  0
 79148  1  0  0  0
 79149  1  0  0  0
 80 83  1  0  0  0
 80150  1  0  0  0
 80151  1  0  0  0
 81 83  1  0  0  0
 81152  1  0  0  0
 81153  1  0  0  0
 82154  1  0  0  0
 82155  1  0  0  0
 82156  1  0  0  0
 84157  1  0  0  0
 84158  1  0  0  0
 85159  1  0  0  0
 85160  1  0  0  0
 86161  1  0  0  0
M  ISO  4   1 100  68 101  78 101  86 100
M  END
> <chiral flag>
0

> <version>
0

> <s_m_source_file>
/data/baiqing/PycharmProjects/Reinvent-master-3.2/result/LINK_invent/BTK/process_docking_weight1_custom_product_contain_oxygen_bond_distance_aromatic_linkinvent_7_9_3/rearranged_h_0095.sdf

> <i_m_source_file_index>
25

> <r_mmod_Potential_Energy-OPLS-2005>
273.943084716797

> <r_mmod_Stretch_Energy-OPLS-2005>
156.284652709961

> <r_mmod_Bend_Energy-OPLS-2005>
262.488128662109

> <r_mmod_Torsional_Energy-OPLS-2005>
269.109832763672

> <r_mmod_Improper_Torsional_Energy-OPLS-2005>
19.6085414886475

> <r_mmod_Van_der_Waal_Energy-OPLS-2005>
156.409622192383

> <r_mmod_Electrostatic_Energy-OPLS-2005>
-482.489624023438

> <r_mmod_Solvation_Energy-OPLS-2005>
-225.971542358398

> <b_mmod_Minimization_Converged-OPLS-2005>
0

> <r_mmod_RMS_Derivative-OPLS-2005>
0.407927691936493

$$$$
25
                    3D
 Structure written by MMmdl.
152160  0  0  1  0            999 V2000
  -30.6612  -14.6153   20.5792 C   0  0  0  0  0  0
  -30.4411  -12.4026   19.4514 C   0  0  0  0  0  0
  -29.5113  -12.5380   18.2239 C   0  0  0  0  0  0
  -28.0307  -12.3752   18.6219 C   0  0  0  0  0  0
  -27.6595  -13.2140   19.8719 C   0  0  2  0  0  0
  -28.6983  -13.0058   20.9917 C   0  0  0  0  0  0
  -25.2581  -13.8166   20.5682 C   0  0  0  0  0  0
  -24.1834  -13.0435   20.9159 C   0  0  0  0  0  0
  -24.6391  -11.6900   20.8704 C   0  0  0  0  0  0
  -23.9052  -10.4291   21.0390 C   0  0  0  0  0  0
  -24.3608   -9.4212   21.9171 C   0  0  0  0  0  0
  -23.6282   -8.2249   22.0752 C   0  0  0  0  0  0
  -22.4262   -8.0280   21.3546 C   0  0  0  0  0  0
  -21.9889   -9.0253   20.4649 C   0  0  0  0  0  0
  -22.7218  -10.2132   20.3046 C   0  0  0  0  0  0
  -21.6852   -6.0722   22.5274 C   0  0  0  0  0  0
  -21.4019   -6.5630   23.8206 C   0  0  0  0  0  0
  -21.3667   -5.6788   24.9171 C   0  0  0  0  0  0
  -21.6043   -4.3048   24.7227 C   0  0  0  0  0  0
  -21.8819   -3.8135   23.4350 C   0  0  0  0  0  0
  -21.9197   -4.6949   22.3403 C   0  0  0  0  0  0
  -22.7860  -13.5241   21.1835 C   0  0  0  0  0  0
  -22.1662   -4.2133   21.0982 F   0  0  0  0  0  0
  -21.5632   -3.4534   25.7746 F   0  0  0  0  0  0
  -30.0202  -13.3972   20.4659 N   0  0  0  0  0  0
  -26.3013  -12.9340   20.3323 N   0  0  0  0  0  0
  -25.9317  -11.6491   20.5701 N   0  0  0  0  0  0
  -22.0506  -12.8249   22.0408 N   0  0  0  0  0  0
  -25.4285  -15.1893   20.4143 N   0  0  0  0  0  0
  -31.7489  -14.8057   20.0231 O   0  0  0  0  0  0
  -21.6634   -6.8870   21.4239 O   0  0  0  0  0  0
  -22.3541  -14.5542   20.6678 O   0  0  0  0  0  0
  -24.6262  -31.8621   23.2058 C   0  0  0  0  0  0
  -25.9118  -32.4787   23.8384 C   0  0  1  0  0  0
  -27.2145  -27.3270   20.1148 C   0  0  0  0  0  0
  -25.5951  -33.8593   24.2315 N   0  0  0  0  0  0
  -23.4184  -30.4860   21.5487 C   0  0  2  0  0  0
  -24.8627  -28.9443   20.1132 C   0  0  0  0  0  0
  -22.7475  -29.4631   22.4960 C   0  0  0  0  0  0
  -18.0288  -28.1360   22.8484 C   0  0  0  0  0  0
  -24.1493  -36.7284   23.2632 C   0  0  0  0  0  0
  -25.9600  -30.7908   21.3805 C   0  0  0  0  0  0
  -26.0317  -29.4204   20.7210 C   0  0  0  0  0  0
  -27.2127  -28.6221   20.7146 C   0  0  0  0  0  0
  -26.0304  -26.9124   19.4659 C   0  0  0  0  0  0
  -24.8631  -27.6952   19.4762 C   0  0  0  0  0  0
  -23.6324  -29.8242   20.1632 C   0  0  0  0  0  0
  -25.4112  -36.3085   24.0330 C   0  0  1  0  0  0
  -20.5889  -28.3667   23.1280 C   0  0  2  0  0  0
  -20.6785  -26.9396   22.5397 C   0  0  0  0  0  0
  -19.5763  -26.6370   21.5195 C   0  0  0  0  0  0
  -18.1940  -26.7908   22.1612 C   0  0  0  0  0  0
  -19.1540  -28.8832   23.2877 C   0  0  0  0  0  0
  -18.9452  -30.1432   23.8891 C   0  0  0  0  0  0
  -17.6452  -30.6566   24.0549 C   0  0  0  0  0  0
  -25.9052  -34.9452   23.5116 C   0  0  0  0  0  0
  -16.5346  -29.9053   23.6328 C   0  0  0  0  0  0
  -16.7274  -28.6472   23.0354 C   0  0  0  0  0  0
  -26.4501  -31.6597   25.0752 C   0  0  0  0  0  0
  -25.3745  -31.3738   26.1489 C   0  0  0  0  0  0
  -27.0344  -30.3022   24.6213 C   0  0  0  0  0  0
  -27.6069  -32.4328   25.7512 C   0  0  0  0  0  0
  -27.5582  -37.1793   24.8461 C   0  0  0  0  0  0
  -21.4192  -29.3028   22.3682 N   0  0  0  0  0  0
  -26.4287  -37.3780   23.9415 N   0  0  0  0  0  0
  -24.6868  -31.0628   22.1012 N   0  0  0  0  0  0
  -23.4209  -28.8181   23.3038 O   0  0  0  0  0  0
  -28.3253  -26.4739   20.1444 O   0  0  0  0  0  0
  -26.5596  -34.8912   22.4665 O   0  0  0  0  0  0
  -23.5423  -32.1435   23.7371 O   0  0  0  0  0  0
  -28.8426  -18.0620   21.3101 C   0  0  0  0  0  0
  -28.7822  -19.4609   21.0383 C   0  0  0  0  0  0
  -30.9803  -17.9079   20.2388 C   0  0  0  0  0  0
  -29.9472  -17.2330   20.9415 C   0  0  0  0  0  0
  -29.8402  -20.1300   20.3744 C   0  0  0  0  0  0
  -30.9291  -19.3078   19.9705 C   0  0  0  0  0  0
  -30.0112  -15.7721   21.4348 C   0  0  0  0  0  0
  -29.1688  -23.9696   20.1362 C   0  0  0  0  0  0
  -28.0754  -25.0563   20.4951 C   0  0  0  0  0  0
  -28.8558  -22.4528   20.5091 C   0  0  0  0  0  0
  -29.5513  -15.5412   22.5945 N   0  0  0  0  0  0
  -29.8932  -21.5120   20.0985 O   0  0  0  0  0  0
  -31.9709  -19.8817   19.3213 F   0  0  0  0  0  0
  -31.4813  -12.5294   19.1458 H   0  0  0  0  0  0
  -30.3857  -11.3942   19.8629 H   0  0  0  0  0  0
  -29.7764  -11.8024   17.4640 H   0  0  0  0  0  0
  -29.6601  -13.5167   17.7647 H   0  0  0  0  0  0
  -27.8522  -11.3179   18.8194 H   0  0  0  0  0  0
  -27.3858  -12.6426   17.7851 H   0  0  0  0  0  0
  -27.6980  -14.2623   19.5763 H   0  0  0  0  0  0
  -28.7189  -11.9568   21.2923 H   0  0  0  0  0  0
  -28.3926  -13.5319   21.8898 H   0  0  0  0  0  0
  -25.2757   -9.5688   22.4733 H   0  0  0  0  0  0
  -23.9994   -7.4643   22.7475 H   0  0  0  0  0  0
  -21.0812   -8.8768   19.8961 H   0  0  0  0  0  0
  -22.3671  -10.9666   19.6153 H   0  0  0  0  0  0
  -21.2006   -7.6138   23.9706 H   0  0  0  0  0  0
  -21.1491   -6.0517   25.9076 H   0  0  0  0  0  0
  -22.0588   -2.7592   23.2857 H   0  0  0  0  0  0
  -22.4135  -11.9938   22.4833 H   0  0  0  0  0  0
  -21.1124  -13.1281   22.2612 H   0  0  0  0  0  0
  -24.6617  -15.8434   20.5308 H   0  0  0  0  0  0
  -26.2864  -15.6335   20.1137 H   0  0  0  0  0  0
  -26.7180  -32.5450   23.1124 H   0  0  0  0  0  0
  -25.0179  -33.9758   25.0517 H   0  0  0  0  0  0
  -22.7116  -31.3055   21.4070 H   0  0  0  0  0  0
  -23.3759  -35.9610   23.3282 H   0  0  0  0  0  0
  -24.3598  -36.8915   22.2049 H   0  0  0  0  0  0
  -23.7234  -37.6481   23.6655 H   0  0  0  0  0  0
  -26.0974  -31.5565   20.6161 H   0  0  0  0  0  0
  -26.8389  -30.8346   22.0120 H   0  0  0  0  0  0
  -28.1102  -28.9795   21.1995 H   0  0  0  0  0  0
  -25.9860  -25.9760   18.9309 H   0  0  0  0  0  0
  -23.9719  -27.3323   18.9821 H   0  0  0  0  0  0
  -23.7529  -30.6021   19.4084 H   0  0  0  0  0  0
  -22.7534  -29.2539   19.8593 H   0  0  0  0  0  0
  -25.1285  -36.1935   25.0822 H   0  0  0  0  0  0
  -20.9970  -28.3211   24.1402 H   0  0  0  0  0  0
  -20.5678  -26.2271   23.3589 H   0  0  0  0  0  0
  -21.6652  -26.7426   22.1186 H   0  0  0  0  0  0
  -19.6930  -25.6279   21.1223 H   0  0  0  0  0  0
  -19.6692  -27.3175   20.6721 H   0  0  0  0  0  0
  -17.4210  -26.6647   21.4008 H   0  0  0  0  0  0
  -18.0338  -26.0033   22.8991 H   0  0  0  0  0  0
  -19.7921  -30.7249   24.2264 H   0  0  0  0  0  0
  -17.4997  -31.6246   24.5137 H   0  0  0  0  0  0
  -15.5342  -30.2942   23.7661 H   0  0  0  0  0  0
  -15.8678  -28.0780   22.7085 H   0  0  0  0  0  0
  -24.5917  -30.7083   25.7834 H   0  0  0  0  0  0
  -24.8932  -32.2904   26.4917 H   0  0  0  0  0  0
  -25.8086  -30.8929   27.0269 H   0  0  0  0  0  0
  -26.2940  -29.6774   24.1209 H   0  0  0  0  0  0
  -27.4015  -29.7270   25.4724 H   0  0  0  0  0  0
  -27.8823  -30.4308   23.9478 H   0  0  0  0  0  0
  -27.2700  -33.3632   26.2103 H   0  0  0  0  0  0
  -28.3877  -32.6891   25.0335 H   0  0  0  0  0  0
  -28.0753  -31.8452   26.5421 H   0  0  0  0  0  0
  -28.2582  -38.0105   24.7531 H   0  0  0  0  0  0
  -28.1094  -36.2638   24.6254 H   0  0  0  0  0  0
  -27.2306  -37.1408   25.8864 H   0  0  0  0  0  0
  -20.9377  -29.8749   21.6888 H   0  0  0  0  0  0
  -26.0164  -38.2856   24.1415 H   0  0  0  0  0  0
  -28.0132  -17.6233   21.8481 H   0  0  0  0  0  0
  -27.9144  -20.0130   21.3683 H   0  0  0  0  0  0
  -31.8614  -17.3650   19.9325 H   0  0  0  0  0  0
  -30.1064  -24.2566   20.6123 H   0  0  0  0  0  0
  -29.3540  -24.0211   19.0635 H   0  0  0  0  0  0
  -27.9077  -25.0227   21.5729 H   0  0  0  0  0  0
  -27.1493  -24.6882   20.0625 H   0  0  0  0  0  0
  -27.9144  -22.1551   20.0454 H   0  0  0  0  0  0
  -28.7124  -22.3719   21.5874 H   0  0  0  0  0  0
  -29.2027  -16.3930   23.0170 H   0  0  0  0  0  0
  1 25  1  0  0  0
  1 30  2  0  0  0
  1 77  1  0  0  0
  2  3  1  0  0  0
  2 25  1  0  0  0
  2 84  1  0  0  0
  2 85  1  0  0  0
  3  4  1  0  0  0
  3 86  1  0  0  0
  3 87  1  0  0  0
  4  5  1  0  0  0
  4 88  1  0  0  0
  4 89  1  0  0  0
  5  6  1  0  0  0
  5 26  1  0  0  0
  5 90  1  0  0  0
  6 25  1  0  0  0
  6 91  1  0  0  0
  6 92  1  0  0  0
  7  8  2  0  0  0
  7 26  1  0  0  0
  7 29  1  0  0  0
  8  9  1  0  0  0
  8 22  1  0  0  0
  9 10  1  0  0  0
  9 27  2  0  0  0
 10 11  2  0  0  0
 10 15  1  0  0  0
 11 12  1  0  0  0
 11 93  1  0  0  0
 12 13  2  0  0  0
 12 94  1  0  0  0
 13 14  1  0  0  0
 13 31  1  0  0  0
 14 15  2  0  0  0
 14 95  1  0  0  0
 15 96  1  0  0  0
 16 17  2  0  0  0
 16 21  1  0  0  0
 16 31  1  0  0  0
 17 18  1  0  0  0
 17 97  1  0  0  0
 18 19  2  0  0  0
 18 98  1  0  0  0
 19 20  1  0  0  0
 19 24  1  0  0  0
 20 21  2  0  0  0
 20 99  1  0  0  0
 21 23  1  0  0  0
 22 28  1  0  0  0
 22 32  2  0  0  0
 26 27  1  0  0  0
 28100  1  0  0  0
 28101  1  0  0  0
 29102  1  0  0  0
 29103  1  0  0  0
 33 34  1  0  0  0
 33 66  1  0  0  0
 33 70  2  0  0  0
 34 36  1  0  0  0
 34 59  1  0  0  0
 34104  1  0  0  0
 35 44  2  0  0  0
 35 45  1  0  0  0
 35 68  1  0  0  0
 36 56  1  0  0  0
 36105  1  0  0  0
 37 39  1  0  0  0
 37 47  1  0  0  0
 37 66  1  0  0  0
 37106  1  0  0  0
 38 43  2  0  0  0
 38 46  1  0  0  0
 38 47  1  0  0  0
 39 64  1  0  0  0
 39 67  2  0  0  0
 40 52  1  0  0  0
 40 53  2  0  0  0
 40 58  1  0  0  0
 41107  1  0  0  0
 41108  1  0  0  0
 41109  1  0  0  0
 41 48  1  0  0  0
 42 43  1  0  0  0
 42 66  1  0  0  0
 42110  1  0  0  0
 42111  1  0  0  0
 43 44  1  0  0  0
 44112  1  0  0  0
 45 46  2  0  0  0
 45113  1  0  0  0
 46114  1  0  0  0
 47115  1  0  0  0
 47116  1  0  0  0
 48 56  1  0  0  0
 48 65  1  0  0  0
 48117  1  0  0  0
 49 50  1  0  0  0
 49 53  1  0  0  0
 49 64  1  0  0  0
 49118  1  0  0  0
 50 51  1  0  0  0
 50119  1  0  0  0
 50120  1  0  0  0
 51 52  1  0  0  0
 51121  1  0  0  0
 51122  1  0  0  0
 52123  1  0  0  0
 52124  1  0  0  0
 53 54  1  0  0  0
 54 55  2  0  0  0
 54125  1  0  0  0
 55 57  1  0  0  0
 55126  1  0  0  0
 56 69  2  0  0  0
 57 58  2  0  0  0
 57127  1  0  0  0
 58128  1  0  0  0
 59 60  1  0  0  0
 59 61  1  0  0  0
 59 62  1  0  0  0
 60129  1  0  0  0
 60130  1  0  0  0
 60131  1  0  0  0
 61132  1  0  0  0
 61133  1  0  0  0
 61134  1  0  0  0
 62135  1  0  0  0
 62136  1  0  0  0
 62137  1  0  0  0
 63 65  1  0  0  0
 63138  1  0  0  0
 63139  1  0  0  0
 63140  1  0  0  0
 64141  1  0  0  0
 65142  1  0  0  0
 68 79  1  0  0  0
 71 72  2  0  0  0
 71 74  1  0  0  0
 71143  1  0  0  0
 72 75  1  0  0  0
 72144  1  0  0  0
 73 74  2  0  0  0
 73 76  1  0  0  0
 73145  1  0  0  0
 74 77  1  0  0  0
 75 76  2  0  0  0
 75 82  1  0  0  0
 76 83  1  0  0  0
 77 81  2  0  0  0
 78 79  1  0  0  0
 78 80  1  0  0  0
 78146  1  0  0  0
 78147  1  0  0  0
 79148  1  0  0  0
 79149  1  0  0  0
 80 82  1  0  0  0
 80150  1  0  0  0
 80151  1  0  0  0
 81152  1  0  0  0
M  ISO  4   1 100  68 101  77 100  79 101
M  END
> <chiral flag>
0

> <version>
0

> <s_m_source_file>
/data/baiqing/PycharmProjects/Reinvent-master-3.2/result/LINK_invent/BTK/process_docking_weight1_custom_product_contain_oxygen_bond_distance_aromatic_linkinvent_7_9_3/rearranged_h_0095.sdf

> <i_m_source_file_index>
26

> <r_mmod_Potential_Energy-OPLS-2005>
203.704330444336

> <r_mmod_Stretch_Energy-OPLS-2005>
84.9459381103516

> <r_mmod_Bend_Energy-OPLS-2005>
147.806396484375

> <r_mmod_Torsional_Energy-OPLS-2005>
208.246185302734

> <r_mmod_Improper_Torsional_Energy-OPLS-2005>
2.51687407493591

> <r_mmod_Van_der_Waal_Energy-OPLS-2005>
153.097503662109

> <r_mmod_Electrostatic_Energy-OPLS-2005>
-232.249420166016

> <r_mmod_Solvation_Energy-OPLS-2005>
-202.202621459961

> <b_mmod_Minimization_Converged-OPLS-2005>
0

> <r_mmod_RMS_Derivative-OPLS-2005>
1.5802276134491

$$$$
26
                    3D
 Structure written by MMmdl.
158167  0  0  1  0            999 V2000
  -30.6563  -14.5088   20.6136 C   0  0  0  0  0  0
  -30.4456  -12.3435   19.4166 C   0  0  0  0  0  0
  -29.5027  -12.5251   18.2066 C   0  0  0  0  0  0
  -28.0237  -12.3705   18.6184 C   0  0  0  0  0  0
  -27.6680  -13.2000   19.8800 C   0  0  2  0  0  0
  -28.7080  -12.9497   20.9944 C   0  0  0  0  0  0
  -25.2621  -13.8147   20.5669 C   0  0  0  0  0  0
  -24.1858  -13.0437   20.9160 C   0  0  0  0  0  0
  -24.6398  -11.6900   20.8724 C   0  0  0  0  0  0
  -23.9058  -10.4293   21.0400 C   0  0  0  0  0  0
  -24.3614   -9.4211   21.9179 C   0  0  0  0  0  0
  -23.6294   -8.2245   22.0751 C   0  0  0  0  0  0
  -22.4274   -8.0280   21.3543 C   0  0  0  0  0  0
  -21.9905   -9.0252   20.4645 C   0  0  0  0  0  0
  -22.7230  -10.2134   20.3053 C   0  0  0  0  0  0
  -21.6852   -6.0738   22.5280 C   0  0  0  0  0  0
  -21.4011   -6.5640   23.8214 C   0  0  0  0  0  0
  -21.3660   -5.6791   24.9174 C   0  0  0  0  0  0
  -21.6048   -4.3055   24.7223 C   0  0  0  0  0  0
  -21.8820   -3.8148   23.4343 C   0  0  0  0  0  0
  -21.9191   -4.6966   22.3401 C   0  0  0  0  0  0
  -22.7883  -13.5245   21.1833 C   0  0  0  0  0  0
  -22.1662   -4.2154   21.0978 F   0  0  0  0  0  0
  -21.5630   -3.4537   25.7735 F   0  0  0  0  0  0
  -30.0416  -13.2987   20.4625 N   0  0  0  0  0  0
  -26.3055  -12.9298   20.3370 N   0  0  0  0  0  0
  -25.9323  -11.6465   20.5757 N   0  0  0  0  0  0
  -22.0518  -12.8245   22.0392 N   0  0  0  0  0  0
  -25.4370  -15.1866   20.4104 N   0  0  0  0  0  0
  -31.7274  -14.7901   20.0653 O   0  0  0  0  0  0
  -21.6638   -6.8878   21.4242 O   0  0  0  0  0  0
  -22.3570  -14.5551   20.6681 O   0  0  0  0  0  0
  -24.6163  -31.8657   23.2089 C   0  0  0  0  0  0
  -25.9046  -32.4812   23.8390 C   0  0  1  0  0  0
  -27.2364  -27.4121   20.1020 C   0  0  0  0  0  0
  -25.5895  -33.8611   24.2321 N   0  0  0  0  0  0
  -23.4074  -30.4882   21.5482 C   0  0  2  0  0  0
  -24.8588  -28.9507   20.1146 C   0  0  0  0  0  0
  -22.7424  -29.4646   22.4971 C   0  0  0  0  0  0
  -18.0277  -28.1382   22.8493 C   0  0  0  0  0  0
  -24.1485  -36.7312   23.2642 C   0  0  0  0  0  0
  -25.9387  -30.8223   21.3693 C   0  0  0  0  0  0
  -26.0182  -29.4528   20.7215 C   0  0  0  0  0  0
  -27.2114  -28.6871   20.7224 C   0  0  0  0  0  0
  -26.0671  -26.9356   19.4799 C   0  0  0  0  0  0
  -24.8778  -27.6901   19.4927 C   0  0  0  0  0  0
  -23.6204  -29.8196   20.1635 C   0  0  0  0  0  0
  -25.4106  -36.3105   24.0340 C   0  0  1  0  0  0
  -20.5866  -28.3671   23.1311 C   0  0  2  0  0  0
  -20.6765  -26.9403   22.5418 C   0  0  0  0  0  0
  -19.5747  -26.6388   21.5212 C   0  0  0  0  0  0
  -18.1925  -26.7928   22.1623 C   0  0  0  0  0  0
  -19.1526  -28.8843   23.2900 C   0  0  0  0  0  0
  -18.9454  -30.1446   23.8913 C   0  0  0  0  0  0
  -17.6457  -30.6586   24.0568 C   0  0  0  0  0  0
  -25.9034  -34.9471   23.5129 C   0  0  0  0  0  0
  -16.5348  -29.9091   23.6327 C   0  0  0  0  0  0
  -16.7266  -28.6508   23.0349 C   0  0  0  0  0  0
  -26.4470  -31.6594   25.0720 C   0  0  0  0  0  0
  -25.3743  -31.3703   26.1471 C   0  0  0  0  0  0
  -27.0304  -30.3034   24.6104 C   0  0  0  0  0  0
  -27.6044  -32.4316   25.7482 C   0  0  0  0  0  0
  -27.5579  -37.1807   24.8465 C   0  0  0  0  0  0
  -21.4146  -29.3034   22.3710 N   0  0  0  0  0  0
  -26.4291  -37.3788   23.9413 N   0  0  0  0  0  0
  -24.6719  -31.0741   22.1001 N   0  0  0  0  0  0
  -23.4175  -28.8187   23.3028 O   0  0  0  0  0  0
  -28.3507  -26.5953   20.0715 O   0  0  0  0  0  0
  -26.5597  -34.8926   22.4690 O   0  0  0  0  0  0
  -23.5347  -32.1414   23.7468 O   0  0  0  0  0  0
  -30.0251  -19.1167   20.6146 C   0  0  0  0  0  0
  -30.3084  -17.7221   20.4888 C   0  0  0  0  0  0
  -29.1716  -17.3113   22.5850 C   0  0  0  0  0  0
  -29.3186  -19.6221   21.7393 C   0  0  0  0  0  0
  -29.8717  -16.7962   21.4753 C   0  0  0  0  0  0
  -28.9076  -18.6880   22.7181 C   0  0  0  0  0  0
  -30.4376  -22.6810   20.7349 C   0  0  0  0  0  0
  -30.4715  -24.2009   20.5334 C   0  0  0  0  0  0
  -28.3473  -23.4532   21.2967 C   0  0  0  0  0  0
  -29.3158  -24.6450   21.4312 C   0  0  2  0  0  0
  -28.9223  -21.0981   22.0211 C   0  0  0  0  0  0
  -28.7860  -26.1166   21.3507 C   0  0  0  0  0  0
  -29.2279  -22.2720   21.1635 N   0  0  0  0  0  0
  -29.9899  -15.3622   21.4223 N   0  0  0  0  0  0
  -31.4437  -21.9801   20.6118 O   0  0  0  0  0  0
  -28.2261  -19.1163   23.8088 F   0  0  0  0  0  0
  -31.4845  -12.4836   19.1119 H   0  0  0  0  0  0
  -30.3846  -11.3241   19.7997 H   0  0  0  0  0  0
  -29.7493  -11.8037   17.4265 H   0  0  0  0  0  0
  -29.6572  -13.5127   17.7694 H   0  0  0  0  0  0
  -27.8402  -11.3124   18.8091 H   0  0  0  0  0  0
  -27.3706  -12.6463   17.7896 H   0  0  0  0  0  0
  -27.7208  -14.2524   19.6000 H   0  0  0  0  0  0
  -28.6979  -11.8985   21.2856 H   0  0  0  0  0  0
  -28.4414  -13.4914   21.9025 H   0  0  0  0  0  0
  -25.2763   -9.5689   22.4745 H   0  0  0  0  0  0
  -24.0009   -7.4636   22.7466 H   0  0  0  0  0  0
  -21.0837   -8.8768   19.8952 H   0  0  0  0  0  0
  -22.3688  -10.9671   19.6159 H   0  0  0  0  0  0
  -21.2001   -7.6148   23.9720 H   0  0  0  0  0  0
  -21.1484   -6.0520   25.9080 H   0  0  0  0  0  0
  -22.0599   -2.7610   23.2840 H   0  0  0  0  0  0
  -22.4123  -11.9913   22.4799 H   0  0  0  0  0  0
  -21.1137  -13.1277   22.2587 H   0  0  0  0  0  0
  -24.6769  -15.8480   20.5265 H   0  0  0  0  0  0
  -26.3011  -15.6246   20.1153 H   0  0  0  0  0  0
  -26.7117  -32.5527   23.1154 H   0  0  0  0  0  0
  -25.0047  -33.9769   25.0467 H   0  0  0  0  0  0
  -22.6973  -31.3058   21.4068 H   0  0  0  0  0  0
  -23.3740  -35.9649   23.3314 H   0  0  0  0  0  0
  -24.3584  -36.8919   22.2054 H   0  0  0  0  0  0
  -23.7246  -37.6525   23.6649 H   0  0  0  0  0  0
  -26.0537  -31.5850   20.5974 H   0  0  0  0  0  0
  -26.8256  -30.8787   21.9886 H   0  0  0  0  0  0
  -28.1053  -29.0696   21.1953 H   0  0  0  0  0  0
  -26.0739  -25.9665   19.0005 H   0  0  0  0  0  0
  -23.9878  -27.2974   19.0204 H   0  0  0  0  0  0
  -23.7293  -30.5943   19.4036 H   0  0  0  0  0  0
  -22.7446  -29.2401   19.8665 H   0  0  0  0  0  0
  -25.1284  -36.1968   25.0833 H   0  0  0  0  0  0
  -20.9962  -28.3240   24.1430 H   0  0  0  0  0  0
  -20.5667  -26.2278   23.3607 H   0  0  0  0  0  0
  -21.6638  -26.7444   22.1211 H   0  0  0  0  0  0
  -19.6908  -25.6300   21.1238 H   0  0  0  0  0  0
  -19.6693  -27.3202   20.6744 H   0  0  0  0  0  0
  -17.4194  -26.6680   21.4026 H   0  0  0  0  0  0
  -18.0327  -26.0066   22.9016 H   0  0  0  0  0  0
  -19.7930  -30.7258   24.2289 H   0  0  0  0  0  0
  -17.5015  -31.6270   24.5164 H   0  0  0  0  0  0
  -15.5349  -30.3002   23.7644 H   0  0  0  0  0  0
  -15.8664  -28.0836   22.7056 H   0  0  0  0  0  0
  -24.5900  -30.7075   25.7802 H   0  0  0  0  0  0
  -24.8956  -32.2862   26.4947 H   0  0  0  0  0  0
  -25.8093  -30.8843   27.0208 H   0  0  0  0  0  0
  -26.2845  -29.6800   24.1159 H   0  0  0  0  0  0
  -27.4075  -29.7268   25.4563 H   0  0  0  0  0  0
  -27.8686  -30.4357   23.9254 H   0  0  0  0  0  0
  -27.2654  -33.3599   26.2092 H   0  0  0  0  0  0
  -28.3828  -32.6907   25.0293 H   0  0  0  0  0  0
  -28.0733  -31.8423   26.5372 H   0  0  0  0  0  0
  -28.2596  -38.0101   24.7498 H   0  0  0  0  0  0
  -28.1072  -36.2631   24.6299 H   0  0  0  0  0  0
  -27.2300  -37.1470   25.8869 H   0  0  0  0  0  0
  -20.9302  -29.8753   21.6930 H   0  0  0  0  0  0
  -26.0182  -38.2868   24.1405 H   0  0  0  0  0  0
  -30.3494  -19.7885   19.8339 H   0  0  0  0  0  0
  -30.8371  -17.3729   19.6125 H   0  0  0  0  0  0
  -28.8101  -16.6460   23.3560 H   0  0  0  0  0  0
  -30.2864  -24.4424   19.4863 H   0  0  0  0  0  0
  -31.4248  -24.6325   20.8379 H   0  0  0  0  0  0
  -27.7283  -23.5509   20.4032 H   0  0  0  0  0  0
  -27.6812  -23.3905   22.1587 H   0  0  0  0  0  0
  -29.7005  -24.5784   22.4520 H   0  0  0  0  0  0
  -29.3155  -21.3401   23.0099 H   0  0  0  0  0  0
  -27.8383  -21.0808   22.1454 H   0  0  0  0  0  0
  -29.5783  -26.7886   21.6834 H   0  0  0  0  0  0
  -27.9855  -26.2193   22.0870 H   0  0  0  0  0  0
  -29.2962  -14.8785   21.9720 H   0  0  0  0  0  0
  1 25  1  0  0  0
  1 30  2  0  0  0
  1 84  1  0  0  0
  2  3  1  0  0  0
  2 25  1  0  0  0
  2 87  1  0  0  0
  2 88  1  0  0  0
  3  4  1  0  0  0
  3 89  1  0  0  0
  3 90  1  0  0  0
  4  5  1  0  0  0
  4 91  1  0  0  0
  4 92  1  0  0  0
  5  6  1  0  0  0
  5 26  1  0  0  0
  5 93  1  0  0  0
  6 25  1  0  0  0
  6 94  1  0  0  0
  6 95  1  0  0  0
  7  8  2  0  0  0
  7 26  1  0  0  0
  7 29  1  0  0  0
  8  9  1  0  0  0
  8 22  1  0  0  0
  9 10  1  0  0  0
  9 27  2  0  0  0
 10 11  2  0  0  0
 10 15  1  0  0  0
 11 12  1  0  0  0
 11 96  1  0  0  0
 12 13  2  0  0  0
 12 97  1  0  0  0
 13 14  1  0  0  0
 13 31  1  0  0  0
 14 15  2  0  0  0
 14 98  1  0  0  0
 15 99  1  0  0  0
 16 17  2  0  0  0
 16 21  1  0  0  0
 16 31  1  0  0  0
 17 18  1  0  0  0
 17100  1  0  0  0
 18 19  2  0  0  0
 18101  1  0  0  0
 19 20  1  0  0  0
 19 24  1  0  0  0
 20 21  2  0  0  0
 20102  1  0  0  0
 21 23  1  0  0  0
 22 28  1  0  0  0
 22 32  2  0  0  0
 26 27  1  0  0  0
 28103  1  0  0  0
 28104  1  0  0  0
 29105  1  0  0  0
 29106  1  0  0  0
 33 34  1  0  0  0
 33 66  1  0  0  0
 33 70  2  0  0  0
 34 36  1  0  0  0
 34 59  1  0  0  0
 34107  1  0  0  0
 35 44  2  0  0  0
 35 45  1  0  0  0
 35 68  1  0  0  0
 36 56  1  0  0  0
 36108  1  0  0  0
 37 39  1  0  0  0
 37 47  1  0  0  0
 37 66  1  0  0  0
 37109  1  0  0  0
 38 43  2  0  0  0
 38 46  1  0  0  0
 38 47  1  0  0  0
 39 64  1  0  0  0
 39 67  2  0  0  0
 40 52  1  0  0  0
 40 53  2  0  0  0
 40 58  1  0  0  0
 41110  1  0  0  0
 41111  1  0  0  0
 41112  1  0  0  0
 41 48  1  0  0  0
 42 43  1  0  0  0
 42 66  1  0  0  0
 42113  1  0  0  0
 42114  1  0  0  0
 43 44  1  0  0  0
 44115  1  0  0  0
 45 46  2  0  0  0
 45116  1  0  0  0
 46117  1  0  0  0
 47118  1  0  0  0
 47119  1  0  0  0
 48 56  1  0  0  0
 48 65  1  0  0  0
 48120  1  0  0  0
 49 50  1  0  0  0
 49 53  1  0  0  0
 49 64  1  0  0  0
 49121  1  0  0  0
 50 51  1  0  0  0
 50122  1  0  0  0
 50123  1  0  0  0
 51 52  1  0  0  0
 51124  1  0  0  0
 51125  1  0  0  0
 52126  1  0  0  0
 52127  1  0  0  0
 53 54  1  0  0  0
 54 55  2  0  0  0
 54128  1  0  0  0
 55 57  1  0  0  0
 55129  1  0  0  0
 56 69  2  0  0  0
 57 58  2  0  0  0
 57130  1  0  0  0
 58131  1  0  0  0
 59 60  1  0  0  0
 59 61  1  0  0  0
 59 62  1  0  0  0
 60132  1  0  0  0
 60133  1  0  0  0
 60134  1  0  0  0
 61135  1  0  0  0
 61136  1  0  0  0
 61137  1  0  0  0
 62138  1  0  0  0
 62139  1  0  0  0
 62140  1  0  0  0
 63 65  1  0  0  0
 63141  1  0  0  0
 63142  1  0  0  0
 63143  1  0  0  0
 64144  1  0  0  0
 65145  1  0  0  0
 68 82  1  0  0  0
 71 72  2  0  0  0
 71 74  1  0  0  0
 71146  1  0  0  0
 72 75  1  0  0  0
 72147  1  0  0  0
 73 75  2  0  0  0
 73 76  1  0  0  0
 73148  1  0  0  0
 74 76  2  0  0  0
 74 81  1  0  0  0
 75 84  1  0  0  0
 76 86  1  0  0  0
 77 78  1  0  0  0
 77 83  1  0  0  0
 77 85  2  0  0  0
 78 80  1  0  0  0
 78149  1  0  0  0
 78150  1  0  0  0
 79 80  1  0  0  0
 79 83  1  0  0  0
 79151  1  0  0  0
 79152  1  0  0  0
 80 82  1  0  0  0
 80153  1  0  0  0
 81 83  1  0  0  0
 81154  1  0  0  0
 81155  1  0  0  0
 82156  1  0  0  0
 82157  1  0  0  0
 84158  1  0  0  0
M  ISO  4   1 100  68 101  82 101  84 100
M  END
> <chiral flag>
0

> <version>
0

> <s_m_source_file>
/data/baiqing/PycharmProjects/Reinvent-master-3.2/result/LINK_invent/BTK/process_docking_weight1_custom_product_contain_oxygen_bond_distance_aromatic_linkinvent_7_9_3/rearranged_h_0095.sdf

> <i_m_source_file_index>
27

> <r_mmod_Potential_Energy-OPLS-2005>
41.2707176208496

> <r_mmod_Stretch_Energy-OPLS-2005>
46.723575592041

> <r_mmod_Bend_Energy-OPLS-2005>
191.039489746094

> <r_mmod_Torsional_Energy-OPLS-2005>
257.067016601562

> <r_mmod_Improper_Torsional_Energy-OPLS-2005>
5.66060733795166

> <r_mmod_Van_der_Waal_Energy-OPLS-2005>
139.697174072266

> <r_mmod_Electrostatic_Energy-OPLS-2005>
-385.737182617188

> <r_mmod_Solvation_Energy-OPLS-2005>
-231.280395507812

> <b_mmod_Minimization_Converged-OPLS-2005>
0

> <r_mmod_RMS_Derivative-OPLS-2005>
0.787164330482483

$$$$
27
                    3D
 Structure written by MMmdl.
154162  0  0  1  0            999 V2000
  -30.6793  -14.6388   20.4804 C   0  0  0  0  0  0
  -30.4144  -12.3976   19.4456 C   0  0  0  0  0  0
  -29.4944  -12.4889   18.2121 C   0  0  0  0  0  0
  -28.0217  -12.3252   18.6361 C   0  0  0  0  0  0
  -27.6368  -13.2247   19.8415 C   0  0  2  0  0  0
  -28.6850  -13.1483   20.9730 C   0  0  0  0  0  0
  -25.2482  -13.8174   20.5672 C   0  0  0  0  0  0
  -24.1778  -13.0428   20.9218 C   0  0  0  0  0  0
  -24.6365  -11.6905   20.8757 C   0  0  0  0  0  0
  -23.9033  -10.4292   21.0423 C   0  0  0  0  0  0
  -24.3599   -9.4209   21.9191 C   0  0  0  0  0  0
  -23.6288   -8.2238   22.0754 C   0  0  0  0  0  0
  -22.4267   -8.0274   21.3550 C   0  0  0  0  0  0
  -21.9894   -9.0239   20.4647 C   0  0  0  0  0  0
  -22.7212  -10.2125   20.3060 C   0  0  0  0  0  0
  -21.6853   -6.0729   22.5276 C   0  0  0  0  0  0
  -21.4013   -6.5637   23.8210 C   0  0  0  0  0  0
  -21.3663   -5.6789   24.9171 C   0  0  0  0  0  0
  -21.6049   -4.3050   24.7223 C   0  0  0  0  0  0
  -21.8816   -3.8137   23.4343 C   0  0  0  0  0  0
  -21.9191   -4.6954   22.3398 C   0  0  0  0  0  0
  -22.7811  -13.5223   21.1873 C   0  0  0  0  0  0
  -22.1659   -4.2143   21.0977 F   0  0  0  0  0  0
  -21.5636   -3.4534   25.7737 F   0  0  0  0  0  0
  -29.9885  -13.4609   20.3776 N   0  0  0  0  0  0
  -26.2896  -12.9374   20.3229 N   0  0  0  0  0  0
  -25.9285  -11.6527   20.5731 N   0  0  0  0  0  0
  -22.0433  -12.8231   22.0429 N   0  0  0  0  0  0
  -25.4133  -15.1905   20.4079 N   0  0  0  0  0  0
  -31.8885  -14.6876   20.2350 O   0  0  0  0  0  0
  -21.6638   -6.8866   21.4243 O   0  0  0  0  0  0
  -22.3510  -14.5533   20.6705 O   0  0  0  0  0  0
  -24.6270  -31.8588   23.2038 C   0  0  0  0  0  0
  -25.9123  -32.4767   23.8357 C   0  0  1  0  0  0
  -27.2206  -27.3121   20.1023 C   0  0  0  0  0  0
  -25.5941  -33.8568   24.2286 N   0  0  0  0  0  0
  -23.4192  -30.4844   21.5468 C   0  0  2  0  0  0
  -24.8608  -28.9386   20.1119 C   0  0  0  0  0  0
  -22.7480  -29.4622   22.4950 C   0  0  0  0  0  0
  -18.0287  -28.1380   22.8474 C   0  0  0  0  0  0
  -24.1487  -36.7289   23.2640 C   0  0  0  0  0  0
  -25.9606  -30.7866   21.3756 C   0  0  0  0  0  0
  -26.0305  -29.4140   20.7153 C   0  0  0  0  0  0
  -27.2081  -28.6098   20.7043 C   0  0  0  0  0  0
  -26.0167  -26.8829   19.4961 C   0  0  0  0  0  0
  -24.8551  -27.6779   19.4987 C   0  0  0  0  0  0
  -23.6321  -29.8214   20.1612 C   0  0  0  0  0  0
  -25.4111  -36.3079   24.0328 C   0  0  1  0  0  0
  -20.5883  -28.3689   23.1282 C   0  0  2  0  0  0
  -20.6774  -26.9415   22.5423 C   0  0  0  0  0  0
  -19.5760  -26.6382   21.5213 C   0  0  0  0  0  0
  -18.1931  -26.7927   22.1608 C   0  0  0  0  0  0
  -19.1541  -28.8853   23.2865 C   0  0  0  0  0  0
  -18.9461  -30.1453   23.8889 C   0  0  0  0  0  0
  -17.6462  -30.6576   24.0571 C   0  0  0  0  0  0
  -25.9049  -34.9447   23.5106 C   0  0  0  0  0  0
  -16.5357  -29.9082   23.6325 C   0  0  0  0  0  0
  -16.7275  -28.6505   23.0337 C   0  0  0  0  0  0
  -26.4500  -31.6575   25.0728 C   0  0  0  0  0  0
  -25.3732  -31.3716   26.1459 C   0  0  0  0  0  0
  -27.0341  -30.2999   24.6185 C   0  0  0  0  0  0
  -27.6054  -32.4305   25.7499 C   0  0  0  0  0  0
  -27.5575  -37.1798   24.8459 C   0  0  0  0  0  0
  -21.4198  -29.3040   22.3688 N   0  0  0  0  0  0
  -26.4289  -37.3777   23.9407 N   0  0  0  0  0  0
  -24.6879  -31.0597   22.0992 N   0  0  0  0  0  0
  -23.4202  -28.8158   23.3028 O   0  0  0  0  0  0
  -28.3623  -26.4944   20.1622 O   0  0  0  0  0  0
  -26.5623  -34.8914   22.4675 O   0  0  0  0  0  0
  -23.5434  -32.1397   23.7367 O   0  0  0  0  0  0
  -29.7760  -19.5132   21.6399 C   0  0  0  0  0  0
  -29.4085  -20.8711   21.3794 C   0  0  0  0  0  0
  -29.4648  -18.9585   19.3184 C   0  0  0  0  0  0
  -29.8314  -18.5228   20.6166 C   0  0  0  0  0  0
  -29.1041  -21.3205   20.0669 C   0  0  0  0  0  0
  -29.1383  -20.3237   19.0454 C   0  0  0  0  0  0
  -30.4757  -17.1711   20.8546 C   0  0  0  0  0  0
  -28.7110  -23.8965   20.3276 C   0  0  0  0  0  0
  -28.4667  -25.1956   19.4521 C   0  0  0  0  0  0
  -28.8956  -20.6979   17.7202 N   0  0  0  0  0  0
  -28.7870  -22.6955   19.6714 N   0  0  0  0  0  0
  -29.9438  -15.9209   20.5929 N   0  0  0  0  0  0
  -31.7112  -17.2618   21.3633 N   0  3  0  0  0  0
  -28.8302  -23.9921   21.5525 O   0  0  0  0  0  0
  -31.4590  -12.4948   19.1463 H   0  0  0  0  0  0
  -30.3263  -11.4173   19.9165 H   0  0  0  0  0  0
  -29.7619  -11.7238   17.4819 H   0  0  0  0  0  0
  -29.6351  -13.4489   17.7127 H   0  0  0  0  0  0
  -27.8736  -11.2767   18.8989 H   0  0  0  0  0  0
  -27.3600  -12.5186   17.7923 H   0  0  0  0  0  0
  -27.6339  -14.2464   19.4632 H   0  0  0  0  0  0
  -28.6990  -12.1549   21.4245 H   0  0  0  0  0  0
  -28.4391  -13.8461   21.7752 H   0  0  0  0  0  0
  -25.2740   -9.5717   22.4767 H   0  0  0  0  0  0
  -24.0008   -7.4637   22.7477 H   0  0  0  0  0  0
  -21.0826   -8.8752   19.8955 H   0  0  0  0  0  0
  -22.3658  -10.9662   19.6174 H   0  0  0  0  0  0
  -21.2006   -7.6137   23.9711 H   0  0  0  0  0  0
  -21.1494   -6.0514   25.9077 H   0  0  0  0  0  0
  -22.0593   -2.7596   23.2836 H   0  0  0  0  0  0
  -22.4021  -11.9904   22.4861 H   0  0  0  0  0  0
  -21.1050  -13.1285   22.2613 H   0  0  0  0  0  0
  -24.6298  -15.8278   20.5041 H   0  0  0  0  0  0
  -26.2320  -15.6321   20.0114 H   0  0  0  0  0  0
  -26.7191  -32.5427   23.1096 H   0  0  0  0  0  0
  -25.0092  -33.9709   25.0439 H   0  0  0  0  0  0
  -22.7120  -31.3047   21.4072 H   0  0  0  0  0  0
  -23.3746  -35.9622   23.3303 H   0  0  0  0  0  0
  -24.3573  -36.8919   22.2053 H   0  0  0  0  0  0
  -23.7245  -37.6491   23.6666 H   0  0  0  0  0  0
  -26.0931  -31.5499   20.6077 H   0  0  0  0  0  0
  -26.8407  -30.8306   22.0056 H   0  0  0  0  0  0
  -28.1060  -28.9717   21.1848 H   0  0  0  0  0  0
  -25.9106  -25.9148   19.0371 H   0  0  0  0  0  0
  -23.9528  -27.3010   19.0360 H   0  0  0  0  0  0
  -23.7591  -30.5989   19.4077 H   0  0  0  0  0  0
  -22.7491  -29.2576   19.8548 H   0  0  0  0  0  0
  -25.1291  -36.1922   25.0821 H   0  0  0  0  0  0
  -20.9960  -28.3275   24.1409 H   0  0  0  0  0  0
  -20.5665  -26.2314   23.3629 H   0  0  0  0  0  0
  -21.6649  -26.7443   22.1235 H   0  0  0  0  0  0
  -19.6932  -25.6292   21.1246 H   0  0  0  0  0  0
  -19.6697  -27.3192   20.6738 H   0  0  0  0  0  0
  -17.4216  -26.6688   21.3992 H   0  0  0  0  0  0
  -18.0316  -26.0058   22.8989 H   0  0  0  0  0  0
  -19.7944  -30.7272   24.2248 H   0  0  0  0  0  0
  -17.5021  -31.6245   24.5204 H   0  0  0  0  0  0
  -15.5355  -30.2982   23.7649 H   0  0  0  0  0  0
  -15.8678  -28.0826   22.7039 H   0  0  0  0  0  0
  -24.5903  -30.7068   25.7799 H   0  0  0  0  0  0
  -24.8928  -32.2888   26.4875 H   0  0  0  0  0  0
  -25.8063  -30.8904   27.0241 H   0  0  0  0  0  0
  -26.2922  -29.6739   24.1225 H   0  0  0  0  0  0
  -27.4056  -29.7254   25.4679 H   0  0  0  0  0  0
  -27.8780  -30.4272   23.9403 H   0  0  0  0  0  0
  -27.2657  -33.3585   26.2105 H   0  0  0  0  0  0
  -28.3851  -32.6903   25.0327 H   0  0  0  0  0  0
  -28.0747  -31.8424   26.5394 H   0  0  0  0  0  0
  -28.2596  -38.0093   24.7507 H   0  0  0  0  0  0
  -28.1069  -36.2625   24.6275 H   0  0  0  0  0  0
  -27.2301  -37.1451   25.8867 H   0  0  0  0  0  0
  -20.9390  -29.8763   21.6892 H   0  0  0  0  0  0
  -26.0162  -38.2850   24.1413 H   0  0  0  0  0  0
  -30.0609  -19.2427   22.6484 H   0  0  0  0  0  0
  -29.4036  -21.5718   22.2013 H   0  0  0  0  0  0
  -29.5325  -18.2543   18.5005 H   0  0  0  0  0  0
  -27.6726  -24.9960   18.7415 H   0  0  0  0  0  0
  -29.3500  -25.2918   18.8212 H   0  0  0  0  0  0
  -29.0774  -19.9828   17.0228 H   0  0  0  0  0  0
  -29.3109  -21.5749   17.4255 H   0  0  0  0  0  0
  -28.6007  -22.7624   18.6811 H   0  0  0  0  0  0
  -28.9416  -15.9537   20.5289 H   0  0  0  0  0  0
  -32.1198  -18.1675   21.5365 H   0  0  0  0  0  0
  -32.3047  -16.4430   21.3647 H   0  0  0  0  0  0
  1 25  1  0  0  0
  1 30  2  0  0  0
  1 82  1  0  0  0
  2  3  1  0  0  0
  2 25  1  0  0  0
  2 85  1  0  0  0
  2 86  1  0  0  0
  3  4  1  0  0  0
  3 87  1  0  0  0
  3 88  1  0  0  0
  4  5  1  0  0  0
  4 89  1  0  0  0
  4 90  1  0  0  0
  5  6  1  0  0  0
  5 26  1  0  0  0
  5 91  1  0  0  0
  6 25  1  0  0  0
  6 92  1  0  0  0
  6 93  1  0  0  0
  7  8  2  0  0  0
  7 26  1  0  0  0
  7 29  1  0  0  0
  8  9  1  0  0  0
  8 22  1  0  0  0
  9 10  1  0  0  0
  9 27  2  0  0  0
 10 11  2  0  0  0
 10 15  1  0  0  0
 11 12  1  0  0  0
 11 94  1  0  0  0
 12 13  2  0  0  0
 12 95  1  0  0  0
 13 14  1  0  0  0
 13 31  1  0  0  0
 14 15  2  0  0  0
 14 96  1  0  0  0
 15 97  1  0  0  0
 16 17  2  0  0  0
 16 21  1  0  0  0
 16 31  1  0  0  0
 17 18  1  0  0  0
 17 98  1  0  0  0
 18 19  2  0  0  0
 18 99  1  0  0  0
 19 20  1  0  0  0
 19 24  1  0  0  0
 20 21  2  0  0  0
 20100  1  0  0  0
 21 23  1  0  0  0
 22 28  1  0  0  0
 22 32  2  0  0  0
 26 27  1  0  0  0
 28101  1  0  0  0
 28102  1  0  0  0
 29103  1  0  0  0
 29104  1  0  0  0
 33 34  1  0  0  0
 33 66  1  0  0  0
 33 70  2  0  0  0
 34 36  1  0  0  0
 34 59  1  0  0  0
 34105  1  0  0  0
 35 44  2  0  0  0
 35 45  1  0  0  0
 35 68  1  0  0  0
 36 56  1  0  0  0
 36106  1  0  0  0
 37 39  1  0  0  0
 37 47  1  0  0  0
 37 66  1  0  0  0
 37107  1  0  0  0
 38 43  2  0  0  0
 38 46  1  0  0  0
 38 47  1  0  0  0
 39 64  1  0  0  0
 39 67  2  0  0  0
 40 52  1  0  0  0
 40 53  2  0  0  0
 40 58  1  0  0  0
 41108  1  0  0  0
 41109  1  0  0  0
 41110  1  0  0  0
 41 48  1  0  0  0
 42 43  1  0  0  0
 42 66  1  0  0  0
 42111  1  0  0  0
 42112  1  0  0  0
 43 44  1  0  0  0
 44113  1  0  0  0
 45 46  2  0  0  0
 45114  1  0  0  0
 46115  1  0  0  0
 47116  1  0  0  0
 47117  1  0  0  0
 48 56  1  0  0  0
 48 65  1  0  0  0
 48118  1  0  0  0
 49 50  1  0  0  0
 49 53  1  0  0  0
 49 64  1  0  0  0
 49119  1  0  0  0
 50 51  1  0  0  0
 50120  1  0  0  0
 50121  1  0  0  0
 51 52  1  0  0  0
 51122  1  0  0  0
 51123  1  0  0  0
 52124  1  0  0  0
 52125  1  0  0  0
 53 54  1  0  0  0
 54 55  2  0  0  0
 54126  1  0  0  0
 55 57  1  0  0  0
 55127  1  0  0  0
 56 69  2  0  0  0
 57 58  2  0  0  0
 57128  1  0  0  0
 58129  1  0  0  0
 59 60  1  0  0  0
 59 61  1  0  0  0
 59 62  1  0  0  0
 60130  1  0  0  0
 60131  1  0  0  0
 60132  1  0  0  0
 61133  1  0  0  0
 61134  1  0  0  0
 61135  1  0  0  0
 62136  1  0  0  0
 62137  1  0  0  0
 62138  1  0  0  0
 63 65  1  0  0  0
 63139  1  0  0  0
 63140  1  0  0  0
 63141  1  0  0  0
 64142  1  0  0  0
 65143  1  0  0  0
 68 79  1  0  0  0
 71 72  2  0  0  0
 71 74  1  0  0  0
 71144  1  0  0  0
 72 75  1  0  0  0
 72145  1  0  0  0
 73 74  2  0  0  0
 73 76  1  0  0  0
 73146  1  0  0  0
 74 77  1  0  0  0
 75 76  2  0  0  0
 75 81  1  0  0  0
 76 80  1  0  0  0
 77 82  1  0  0  0
 77 83  2  0  0  0
 78 79  1  0  0  0
 78 81  1  0  0  0
 78 84  2  0  0  0
 79147  1  0  0  0
 79148  1  0  0  0
 80149  1  0  0  0
 80150  1  0  0  0
 81151  1  0  0  0
 82152  1  0  0  0
 83153  1  0  0  0
 83154  1  0  0  0
M  CHG  1  83   1
M  ISO  4   1 100  68 101  79 101  82 100
M  END
> <chiral flag>
0

> <version>
0

> <s_m_source_file>
/data/baiqing/PycharmProjects/Reinvent-master-3.2/result/LINK_invent/BTK/process_docking_weight1_custom_product_contain_oxygen_bond_distance_aromatic_linkinvent_7_9_3/rearranged_h_0095.sdf

> <i_m_source_file_index>
28

> <r_mmod_Potential_Energy-OPLS-2005>
-277.815948486328

> <r_mmod_Stretch_Energy-OPLS-2005>
80.8000106811523

> <r_mmod_Bend_Energy-OPLS-2005>
162.599197387695

> <r_mmod_Torsional_Energy-OPLS-2005>
238.647125244141

> <r_mmod_Improper_Torsional_Energy-OPLS-2005>
13.3492975234985

> <r_mmod_Van_der_Waal_Energy-OPLS-2005>
155.42121887207

> <r_mmod_Electrostatic_Energy-OPLS-2005>
-507.015747070312

> <r_mmod_Solvation_Energy-OPLS-2005>
-477.428894042969

> <b_mmod_Minimization_Converged-OPLS-2005>
0

> <r_mmod_RMS_Derivative-OPLS-2005>
1.95873296260834

$$$$
28
                    3D
 Structure written by MMmdl.
156165  0  0  1  0            999 V2000
  -30.6114  -14.6653   20.4935 C   0  0  0  0  0  0
  -30.4431  -12.4073   19.4546 C   0  0  0  0  0  0
  -29.5103  -12.5153   18.2271 C   0  0  0  0  0  0
  -28.0332  -12.3508   18.6396 C   0  0  0  0  0  0
  -27.6540  -13.2218   19.8677 C   0  0  2  0  0  0
  -28.7015  -13.0785   20.9950 C   0  0  0  0  0  0
  -25.2532  -13.8163   20.5678 C   0  0  0  0  0  0
  -24.1799  -13.0410   20.9125 C   0  0  0  0  0  0
  -24.6398  -11.6895   20.8710 C   0  0  0  0  0  0
  -23.9072  -10.4279   21.0389 C   0  0  0  0  0  0
  -24.3619   -9.4201   21.9177 C   0  0  0  0  0  0
  -23.6289   -8.2241   22.0756 C   0  0  0  0  0  0
  -22.4271   -8.0279   21.3548 C   0  0  0  0  0  0
  -21.9907   -9.0249   20.4646 C   0  0  0  0  0  0
  -22.7241  -10.2122   20.3045 C   0  0  0  0  0  0
  -21.6852   -6.0735   22.5279 C   0  0  0  0  0  0
  -21.4014   -6.5637   23.8212 C   0  0  0  0  0  0
  -21.3659   -5.6790   24.9174 C   0  0  0  0  0  0
  -21.6043   -4.3053   24.7224 C   0  0  0  0  0  0
  -21.8819   -3.8146   23.4346 C   0  0  0  0  0  0
  -21.9193   -4.6962   22.3401 C   0  0  0  0  0  0
  -22.7825  -13.5204   21.1820 C   0  0  0  0  0  0
  -22.1662   -4.2149   21.0980 F   0  0  0  0  0  0
  -21.5627   -3.4538   25.7739 F   0  0  0  0  0  0
  -30.0153  -13.4302   20.4303 N   0  0  0  0  0  0
  -26.3004  -12.9374   20.3376 N   0  0  0  0  0  0
  -25.9341  -11.6515   20.5773 N   0  0  0  0  0  0
  -22.0484  -12.8202   22.0395 N   0  0  0  0  0  0
  -25.4151  -15.1893   20.4197 N   0  0  0  0  0  0
  -31.7742  -14.8336   20.1132 O   0  0  0  0  0  0
  -21.6635   -6.8877   21.4243 O   0  0  0  0  0  0
  -22.3503  -14.5522   20.6698 O   0  0  0  0  0  0
  -24.6267  -31.8588   23.2019 C   0  0  0  0  0  0
  -25.9110  -32.4776   23.8352 C   0  0  1  0  0  0
  -27.2276  -27.3150   20.1259 C   0  0  0  0  0  0
  -25.5923  -33.8576   24.2281 N   0  0  0  0  0  0
  -23.4220  -30.4809   21.5440 C   0  0  2  0  0  0
  -24.8720  -28.9341   20.1123 C   0  0  0  0  0  0
  -22.7480  -29.4615   22.4932 C   0  0  0  0  0  0
  -18.0288  -28.1386   22.8487 C   0  0  0  0  0  0
  -24.1487  -36.7291   23.2640 C   0  0  0  0  0  0
  -25.9632  -30.7887   21.3742 C   0  0  0  0  0  0
  -26.0407  -29.4147   20.7184 C   0  0  0  0  0  0
  -27.2252  -28.6174   20.7145 C   0  0  0  0  0  0
  -26.0423  -26.8898   19.4896 C   0  0  0  0  0  0
  -24.8748  -27.6768   19.4875 C   0  0  0  0  0  0
  -23.6390  -29.8144   20.1600 C   0  0  0  0  0  0
  -25.4111  -36.3081   24.0331 C   0  0  1  0  0  0
  -20.5889  -28.3691   23.1284 C   0  0  2  0  0  0
  -20.6778  -26.9413   22.5413 C   0  0  0  0  0  0
  -19.5753  -26.6385   21.5214 C   0  0  0  0  0  0
  -18.1933  -26.7929   22.1626 C   0  0  0  0  0  0
  -19.1541  -28.8855   23.2881 C   0  0  0  0  0  0
  -18.9462  -30.1456   23.8898 C   0  0  0  0  0  0
  -17.6462  -30.6587   24.0565 C   0  0  0  0  0  0
  -25.9048  -34.9450   23.5107 C   0  0  0  0  0  0
  -16.5353  -29.9085   23.6331 C   0  0  0  0  0  0
  -16.7275  -28.6504   23.0351 C   0  0  0  0  0  0
  -26.4495  -31.6584   25.0721 C   0  0  0  0  0  0
  -25.3729  -31.3719   26.1447 C   0  0  0  0  0  0
  -27.0339  -30.3009   24.6173 C   0  0  0  0  0  0
  -27.6055  -32.4316   25.7493 C   0  0  0  0  0  0
  -27.5577  -37.1800   24.8466 C   0  0  0  0  0  0
  -21.4193  -29.3040   22.3674 N   0  0  0  0  0  0
  -26.4290  -37.3776   23.9409 N   0  0  0  0  0  0
  -24.6893  -31.0593   22.0973 N   0  0  0  0  0  0
  -23.4198  -28.8155   23.3018 O   0  0  0  0  0  0
  -28.3213  -26.4365   20.1446 O   0  0  0  0  0  0
  -26.5616  -34.8918   22.4673 O   0  0  0  0  0  0
  -23.5428  -32.1389   23.7343 O   0  0  0  0  0  0
  -30.7602  -19.3688   20.0330 C   0  0  0  0  0  0
  -30.8855  -17.9490   20.1882 C   0  0  0  0  0  0
  -29.5645  -23.6098   19.1416 C   0  0  0  0  0  0
  -28.5070  -19.2820   20.8476 C   0  0  0  0  0  0
  -28.7664  -23.8020   20.3081 C   0  0  0  0  0  0
  -29.5636  -20.0866   20.3412 C   0  0  0  0  0  0
  -29.8145  -17.1576   20.6834 C   0  0  0  0  0  0
  -28.6327  -17.8700   21.0268 C   0  0  0  0  0  0
  -29.9213  -22.2845   19.0490 C   0  0  0  0  0  0
  -28.7129  -22.5218   20.8687 C   0  0  0  0  0  0
  -28.0846  -25.1315   20.8120 C   0  0  0  0  0  0
  -29.4112  -21.5414   20.1160 N   0  0  0  0  0  0
  -27.5579  -17.1537   21.5585 N   0  0  0  0  0  0
  -29.7894  -15.7005   20.8536 N   0  0  0  0  0  0
  -30.6506  -21.6912   18.0635 O   0  0  0  0  0  0
  -28.0802  -22.1476   22.0169 O   0  0  0  0  0  0
  -31.4835  -12.5380   19.1517 H   0  0  0  0  0  0
  -30.3837  -11.4123   19.8981 H   0  0  0  0  0  0
  -29.7769  -11.7640   17.4825 H   0  0  0  0  0  0
  -29.6493  -13.4844   17.7451 H   0  0  0  0  0  0
  -27.8726  -11.2974   18.8722 H   0  0  0  0  0  0
  -27.3783  -12.5793   17.7980 H   0  0  0  0  0  0
  -27.6673  -14.2579   19.5275 H   0  0  0  0  0  0
  -28.7174  -12.0561   21.3751 H   0  0  0  0  0  0
  -28.4450  -13.7072   21.8490 H   0  0  0  0  0  0
  -25.2765   -9.5677   22.4751 H   0  0  0  0  0  0
  -23.9998   -7.4634   22.7477 H   0  0  0  0  0  0
  -21.0839   -8.8766   19.8953 H   0  0  0  0  0  0
  -22.3702  -10.9657   19.6149 H   0  0  0  0  0  0
  -21.2005   -7.6145   23.9715 H   0  0  0  0  0  0
  -21.1481   -6.0521   25.9077 H   0  0  0  0  0  0
  -22.0600   -2.7608   23.2846 H   0  0  0  0  0  0
  -22.4104  -11.9857   22.4771 H   0  0  0  0  0  0
  -21.1111  -13.1237   22.2628 H   0  0  0  0  0  0
  -24.6504  -15.8267   20.6085 H   0  0  0  0  0  0
  -26.3112  -15.6709   20.3903 H   0  0  0  0  0  0
  -26.7178  -32.5450   23.1102 H   0  0  0  0  0  0
  -25.0071  -33.9720   25.0427 H   0  0  0  0  0  0
  -22.7162  -31.3013   21.3993 H   0  0  0  0  0  0
  -23.3749  -35.9623   23.3305 H   0  0  0  0  0  0
  -24.3578  -36.8907   22.2053 H   0  0  0  0  0  0
  -23.7239  -37.6493   23.6660 H   0  0  0  0  0  0
  -26.0933  -31.5513   20.6051 H   0  0  0  0  0  0
  -26.8438  -30.8405   22.0028 H   0  0  0  0  0  0
  -28.1221  -28.9806   21.1967 H   0  0  0  0  0  0
  -26.0128  -25.9251   19.0025 H   0  0  0  0  0  0
  -23.9814  -27.3044   19.0053 H   0  0  0  0  0  0
  -23.7589  -30.5905   19.4030 H   0  0  0  0  0  0
  -22.7595  -29.2435   19.8570 H   0  0  0  0  0  0
  -25.1292  -36.1934   25.0824 H   0  0  0  0  0  0
  -20.9984  -28.3266   24.1404 H   0  0  0  0  0  0
  -20.5684  -26.2296   23.3610 H   0  0  0  0  0  0
  -21.6645  -26.7445   22.1202 H   0  0  0  0  0  0
  -19.6915  -25.6297   21.1242 H   0  0  0  0  0  0
  -19.6692  -27.3195   20.6745 H   0  0  0  0  0  0
  -17.4203  -26.6676   21.4028 H   0  0  0  0  0  0
  -18.0334  -26.0071   22.9023 H   0  0  0  0  0  0
  -19.7937  -30.7272   24.2268 H   0  0  0  0  0  0
  -17.5015  -31.6267   24.5166 H   0  0  0  0  0  0
  -15.5354  -30.2987   23.7655 H   0  0  0  0  0  0
  -15.8674  -28.0823   22.7066 H   0  0  0  0  0  0
  -24.5905  -30.7067   25.7775 H   0  0  0  0  0  0
  -24.8918  -32.2883   26.4874 H   0  0  0  0  0  0
  -25.8053  -30.8893   27.0221 H   0  0  0  0  0  0
  -26.2912  -29.6756   24.1205 H   0  0  0  0  0  0
  -27.4048  -29.7267   25.4674 H   0  0  0  0  0  0
  -27.8777  -30.4299   23.9390 H   0  0  0  0  0  0
  -27.2669  -33.3618   26.2069 H   0  0  0  0  0  0
  -28.3867  -32.6871   25.0321 H   0  0  0  0  0  0
  -28.0720  -31.8440   26.5410 H   0  0  0  0  0  0
  -28.2597  -38.0095   24.7510 H   0  0  0  0  0  0
  -28.1070  -36.2626   24.6295 H   0  0  0  0  0  0
  -27.2295  -37.1455   25.8869 H   0  0  0  0  0  0
  -20.9372  -29.8753   21.6875 H   0  0  0  0  0  0
  -26.0171  -38.2851   24.1409 H   0  0  0  0  0  0
  -31.6103  -19.9136   19.6488 H   0  0  0  0  0  0
  -31.8175  -17.4773   19.9121 H   0  0  0  0  0  0
  -29.8330  -24.3775   18.4292 H   0  0  0  0  0  0
  -27.5746  -19.7640   21.1017 H   0  0  0  0  0  0
  -28.3997  -25.2636   21.8475 H   0  0  0  0  0  0
  -27.0183  -24.9132   20.8754 H   0  0  0  0  0  0
  -26.7813  -17.7244   21.8743 H   0  0  0  0  0  0
  -27.8067  -16.5003   22.2919 H   0  0  0  0  0  0
  -28.8789  -15.3841   21.1488 H   0  0  0  0  0  0
  -30.8952  -22.3650   17.4365 H   0  0  0  0  0  0
  -27.7000  -22.9221   22.4167 H   0  0  0  0  0  0
  1 25  1  0  0  0
  1 30  2  0  0  0
  1 84  1  0  0  0
  2  3  1  0  0  0
  2 25  1  0  0  0
  2 87  1  0  0  0
  2 88  1  0  0  0
  3  4  1  0  0  0
  3 89  1  0  0  0
  3 90  1  0  0  0
  4  5  1  0  0  0
  4 91  1  0  0  0
  4 92  1  0  0  0
  5  6  1  0  0  0
  5 26  1  0  0  0
  5 93  1  0  0  0
  6 25  1  0  0  0
  6 94  1  0  0  0
  6 95  1  0  0  0
  7  8  2  0  0  0
  7 26  1  0  0  0
  7 29  1  0  0  0
  8  9  1  0  0  0
  8 22  1  0  0  0
  9 10  1  0  0  0
  9 27  2  0  0  0
 10 11  2  0  0  0
 10 15  1  0  0  0
 11 12  1  0  0  0
 11 96  1  0  0  0
 12 13  2  0  0  0
 12 97  1  0  0  0
 13 14  1  0  0  0
 13 31  1  0  0  0
 14 15  2  0  0  0
 14 98  1  0  0  0
 15 99  1  0  0  0
 16 17  2  0  0  0
 16 21  1  0  0  0
 16 31  1  0  0  0
 17 18  1  0  0  0
 17100  1  0  0  0
 18 19  2  0  0  0
 18101  1  0  0  0
 19 20  1  0  0  0
 19 24  1  0  0  0
 20 21  2  0  0  0
 20102  1  0  0  0
 21 23  1  0  0  0
 22 28  1  0  0  0
 22 32  2  0  0  0
 26 27  1  0  0  0
 28103  1  0  0  0
 28104  1  0  0  0
 29105  1  0  0  0
 29106  1  0  0  0
 33 34  1  0  0  0
 33 66  1  0  0  0
 33 70  2  0  0  0
 34 36  1  0  0  0
 34 59  1  0  0  0
 34107  1  0  0  0
 35 44  2  0  0  0
 35 45  1  0  0  0
 35 68  1  0  0  0
 36 56  1  0  0  0
 36108  1  0  0  0
 37 39  1  0  0  0
 37 47  1  0  0  0
 37 66  1  0  0  0
 37109  1  0  0  0
 38 43  2  0  0  0
 38 46  1  0  0  0
 38 47  1  0  0  0
 39 64  1  0  0  0
 39 67  2  0  0  0
 40 52  1  0  0  0
 40 53  2  0  0  0
 40 58  1  0  0  0
 41110  1  0  0  0
 41111  1  0  0  0
 41112  1  0  0  0
 41 48  1  0  0  0
 42 43  1  0  0  0
 42 66  1  0  0  0
 42113  1  0  0  0
 42114  1  0  0  0
 43 44  1  0  0  0
 44115  1  0  0  0
 45 46  2  0  0  0
 45116  1  0  0  0
 46117  1  0  0  0
 47118  1  0  0  0
 47119  1  0  0  0
 48 56  1  0  0  0
 48 65  1  0  0  0
 48120  1  0  0  0
 49 50  1  0  0  0
 49 53  1  0  0  0
 49 64  1  0  0  0
 49121  1  0  0  0
 50 51  1  0  0  0
 50122  1  0  0  0
 50123  1  0  0  0
 51 52  1  0  0  0
 51124  1  0  0  0
 51125  1  0  0  0
 52126  1  0  0  0
 52127  1  0  0  0
 53 54  1  0  0  0
 54 55  2  0  0  0
 54128  1  0  0  0
 55 57  1  0  0  0
 55129  1  0  0  0
 56 69  2  0  0  0
 57 58  2  0  0  0
 57130  1  0  0  0
 58131  1  0  0  0
 59 60  1  0  0  0
 59 61  1  0  0  0
 59 62  1  0  0  0
 60132  1  0  0  0
 60133  1  0  0  0
 60134  1  0  0  0
 61135  1  0  0  0
 61136  1  0  0  0
 61137  1  0  0  0
 62138  1  0  0  0
 62139  1  0  0  0
 62140  1  0  0  0
 63 65  1  0  0  0
 63141  1  0  0  0
 63142  1  0  0  0
 63143  1  0  0  0
 64144  1  0  0  0
 65145  1  0  0  0
 68 81  1  0  0  0
 71 72  2  0  0  0
 71 76  1  0  0  0
 71146  1  0  0  0
 72 77  1  0  0  0
 72147  1  0  0  0
 73 75  1  0  0  0
 73 79  2  0  0  0
 73148  1  0  0  0
 74 76  2  0  0  0
 74 78  1  0  0  0
 74149  1  0  0  0
 75 80  2  0  0  0
 75 81  1  0  0  0
 76 82  1  0  0  0
 77 78  2  0  0  0
 77 84  1  0  0  0
 78 83  1  0  0  0
 79 82  1  0  0  0
 79 85  1  0  0  0
 80 82  1  0  0  0
 80 86  1  0  0  0
 81150  1  0  0  0
 81151  1  0  0  0
 83152  1  0  0  0
 83153  1  0  0  0
 84154  1  0  0  0
 85155  1  0  0  0
 86156  1  0  0  0
M  ISO  4   1 100  68 101  81 101  84 100
M  END
> <chiral flag>
0

> <version>
0

> <s_m_source_file>
/data/baiqing/PycharmProjects/Reinvent-master-3.2/result/LINK_invent/BTK/process_docking_weight1_custom_product_contain_oxygen_bond_distance_aromatic_linkinvent_7_9_3/rearranged_h_0095.sdf

> <i_m_source_file_index>
29

> <r_mmod_Potential_Energy-OPLS-2005>
-6.19313812255859

> <r_mmod_Stretch_Energy-OPLS-2005>
84.3771362304688

> <r_mmod_Bend_Energy-OPLS-2005>
144.552688598633

> <r_mmod_Torsional_Energy-OPLS-2005>
254.277328491211

> <r_mmod_Improper_Torsional_Energy-OPLS-2005>
10.0425271987915

> <r_mmod_Van_der_Waal_Energy-OPLS-2005>
142.383056640625

> <r_mmod_Electrostatic_Energy-OPLS-2005>
-465.643371582031

> <r_mmod_Solvation_Energy-OPLS-2005>
-231.058074951172

> <b_mmod_Minimization_Converged-OPLS-2005>
0

> <r_mmod_RMS_Derivative-OPLS-2005>
0.3295918405056

$$$$
29
                    3D
 Structure written by MMmdl.
166175  0  0  1  0            999 V2000
  -30.6911  -14.6212   20.2902 C   0  0  0  0  0  0
  -30.4154  -12.3628   19.3994 C   0  0  0  0  0  0
  -29.4704  -12.4371   18.1866 C   0  0  0  0  0  0
  -28.0039  -12.2881   18.6378 C   0  0  0  0  0  0
  -27.6400  -13.1781   19.8573 C   0  0  2  0  0  0
  -28.7199  -13.1534   20.9559 C   0  0  0  0  0  0
  -25.2572  -13.8041   20.5828 C   0  0  0  0  0  0
  -24.1796  -13.0364   20.9252 C   0  0  0  0  0  0
  -24.6334  -11.6828   20.8829 C   0  0  0  0  0  0
  -23.8995  -10.4249   21.0458 C   0  0  0  0  0  0
  -24.3564   -9.4166   21.9222 C   0  0  0  0  0  0
  -23.6254   -8.2196   22.0768 C   0  0  0  0  0  0
  -22.4238   -8.0251   21.3546 C   0  0  0  0  0  0
  -21.9871   -9.0225   20.4649 C   0  0  0  0  0  0
  -22.7186  -10.2110   20.3078 C   0  0  0  0  0  0
  -21.6830   -6.0718   22.5278 C   0  0  0  0  0  0
  -21.3998   -6.5629   23.8212 C   0  0  0  0  0  0
  -21.3658   -5.6787   24.9176 C   0  0  0  0  0  0
  -21.6046   -4.3050   24.7227 C   0  0  0  0  0  0
  -21.8824   -3.8138   23.4349 C   0  0  0  0  0  0
  -21.9187   -4.6950   22.3403 C   0  0  0  0  0  0
  -22.7826  -13.5204   21.1869 C   0  0  0  0  0  0
  -22.1658   -4.2139   21.0979 F   0  0  0  0  0  0
  -21.5632   -3.4537   25.7742 F   0  0  0  0  0  0
  -29.9992  -13.4456   20.2981 N   0  0  0  0  0  0
  -26.2965  -12.9145   20.3508 N   0  0  0  0  0  0
  -25.9261  -11.6346   20.5931 N   0  0  0  0  0  0
  -22.0442  -12.8220   22.0416 N   0  0  0  0  0  0
  -25.4279  -15.1759   20.4301 N   0  0  0  0  0  0
  -31.9068  -14.6173   20.4823 O   0  0  0  0  0  0
  -21.6601   -6.8851   21.4236 O   0  0  0  0  0  0
  -22.3543  -14.5523   20.6710 O   0  0  0  0  0  0
  -24.6190  -31.8656   23.2074 C   0  0  0  0  0  0
  -25.9061  -32.4814   23.8387 C   0  0  1  0  0  0
  -27.2315  -27.3994   20.1067 C   0  0  0  0  0  0
  -25.5907  -33.8612   24.2314 N   0  0  0  0  0  0
  -23.4088  -30.4883   21.5487 C   0  0  2  0  0  0
  -24.8565  -28.9500   20.1139 C   0  0  0  0  0  0
  -22.7437  -29.4650   22.4975 C   0  0  0  0  0  0
  -18.0271  -28.1373   22.8491 C   0  0  0  0  0  0
  -24.1482  -36.7315   23.2637 C   0  0  0  0  0  0
  -25.9410  -30.8218   21.3634 C   0  0  0  0  0  0
  -26.0204  -29.4535   20.7092 C   0  0  0  0  0  0
  -27.2153  -28.6897   20.6949 C   0  0  0  0  0  0
  -26.0499  -26.9199   19.5027 C   0  0  0  0  0  0
  -24.8681  -27.6843   19.5035 C   0  0  0  0  0  0
  -23.6192  -29.8201   20.1637 C   0  0  0  0  0  0
  -25.4103  -36.3105   24.0333 C   0  0  1  0  0  0
  -20.5871  -28.3670   23.1305 C   0  0  2  0  0  0
  -20.6764  -26.9404   22.5415 C   0  0  0  0  0  0
  -19.5743  -26.6380   21.5210 C   0  0  0  0  0  0
  -18.1920  -26.7919   22.1621 C   0  0  0  0  0  0
  -19.1526  -28.8836   23.2891 C   0  0  0  0  0  0
  -18.9453  -30.1441   23.8907 C   0  0  0  0  0  0
  -17.6458  -30.6584   24.0563 C   0  0  0  0  0  0
  -25.9036  -34.9470   23.5121 C   0  0  0  0  0  0
  -16.5347  -29.9090   23.6322 C   0  0  0  0  0  0
  -16.7263  -28.6501   23.0352 C   0  0  0  0  0  0
  -26.4471  -31.6602   25.0729 C   0  0  0  0  0  0
  -25.3724  -31.3716   26.1474 C   0  0  0  0  0  0
  -27.0311  -30.3046   24.6121 C   0  0  0  0  0  0
  -27.6047  -32.4329   25.7488 C   0  0  0  0  0  0
  -27.5576  -37.1811   24.8462 C   0  0  0  0  0  0
  -21.4163  -29.3040   22.3717 N   0  0  0  0  0  0
  -26.4286  -37.3794   23.9406 N   0  0  0  0  0  0
  -24.6748  -31.0731   22.0987 N   0  0  0  0  0  0
  -23.4189  -28.8184   23.3027 O   0  0  0  0  0  0
  -28.3668  -26.6048   20.1129 O   0  0  0  0  0  0
  -26.5603  -34.8924   22.4687 O   0  0  0  0  0  0
  -23.5374  -32.1428   23.7439 O   0  0  0  0  0  0
  -27.1012  -17.6045   19.0160 C   0  0  0  0  0  0
  -27.3953  -18.7710   19.7349 C   0  0  0  0  0  0
  -28.0454  -16.5703   18.9404 C   0  0  0  0  0  0
  -29.5845  -17.8535   20.3168 C   0  0  0  0  0  0
  -28.6637  -18.9528   20.3271 C   0  0  0  0  0  0
  -29.2659  -16.6254   19.6519 C   0  0  0  0  0  0
  -28.9184  -22.8773   20.7553 C   0  0  0  0  0  0
  -28.6045  -24.0226   20.0775 C   0  0  0  0  0  0
  -28.5718  -23.9800   18.5937 C   0  0  0  0  0  0
  -29.0552  -22.6997   17.9090 C   0  0  0  0  0  0
  -28.7019  -21.4440   18.7282 C   0  0  0  0  0  0
  -30.5433  -16.5068   17.0330 C   0  0  0  0  0  0
  -28.9515  -20.3250   20.9958 C   0  0  0  0  0  0
  -28.2286  -25.3367   20.8148 C   0  0  0  0  0  0
  -31.1782  -15.9005   18.3004 C   0  0  0  0  0  0
  -30.2330  -15.5780   19.4017 N   0  0  0  0  0  0
  -29.2252  -21.5276   20.1176 N   0  3  2  0  0  0
  -28.1843  -24.9065   17.8789 O   0  0  0  0  0  0
  -31.4530  -12.4724   19.0746 H   0  0  0  0  0  0
  -30.3460  -11.3938   19.8967 H   0  0  0  0  0  0
  -29.7189  -11.6542   17.4695 H   0  0  0  0  0  0
  -29.5999  -13.3833   17.6593 H   0  0  0  0  0  0
  -27.8479  -11.2391   18.8932 H   0  0  0  0  0  0
  -27.3300  -12.4981   17.8064 H   0  0  0  0  0  0
  -27.6142  -14.1817   19.4853 H   0  0  0  0  0  0
  -28.7592  -12.1804   21.4467 H   0  0  0  0  0  0
  -28.5037  -13.8949   21.7269 H   0  0  0  0  0  0
  -25.2711   -9.5634   22.4797 H   0  0  0  0  0  0
  -23.9965   -7.4569   22.7477 H   0  0  0  0  0  0
  -21.0808   -8.8730   19.8944 H   0  0  0  0  0  0
  -22.3655  -10.9650   19.6187 H   0  0  0  0  0  0
  -21.1979   -7.6136   23.9703 H   0  0  0  0  0  0
  -21.1479   -6.0525   25.9077 H   0  0  0  0  0  0
  -22.0608   -2.7600   23.2849 H   0  0  0  0  0  0
  -22.4014  -11.9851   22.4778 H   0  0  0  0  0  0
  -21.1070  -13.1278   22.2615 H   0  0  0  0  0  0
  -24.6640  -15.8290   20.5567 H   0  0  0  0  0  0
  -26.2940  -15.6294   20.1656 H   0  0  0  0  0  0
  -26.7137  -32.5513   23.1152 H   0  0  0  0  0  0
  -25.0063  -33.9773   25.0462 H   0  0  0  0  0  0
  -22.6986  -31.3054   21.4071 H   0  0  0  0  0  0
  -23.3738  -35.9653   23.3309 H   0  0  0  0  0  0
  -24.3578  -36.8929   22.2051 H   0  0  0  0  0  0
  -23.7242  -37.6523   23.6655 H   0  0  0  0  0  0
  -26.0541  -31.5858   20.5930 H   0  0  0  0  0  0
  -26.8291  -30.8791   21.9816 H   0  0  0  0  0  0
  -28.1146  -29.0756   21.1544 H   0  0  0  0  0  0
  -26.0378  -25.9467   19.0333 H   0  0  0  0  0  0
  -23.9751  -27.2918   19.0367 H   0  0  0  0  0  0
  -23.7299  -30.5953   19.4045 H   0  0  0  0  0  0
  -22.7426  -29.2424   19.8657 H   0  0  0  0  0  0
  -25.1278  -36.1972   25.0827 H   0  0  0  0  0  0
  -20.9950  -28.3239   24.1432 H   0  0  0  0  0  0
  -20.5661  -26.2286   23.3609 H   0  0  0  0  0  0
  -21.6636  -26.7447   22.1211 H   0  0  0  0  0  0
  -19.6911  -25.6291   21.1244 H   0  0  0  0  0  0
  -19.6680  -27.3189   20.6734 H   0  0  0  0  0  0
  -17.4194  -26.6666   21.4021 H   0  0  0  0  0  0
  -18.0323  -26.0050   22.9005 H   0  0  0  0  0  0
  -19.7930  -30.7245   24.2294 H   0  0  0  0  0  0
  -17.5016  -31.6270   24.5159 H   0  0  0  0  0  0
  -15.5352  -30.2999   23.7638 H   0  0  0  0  0  0
  -15.8657  -28.0825   22.7067 H   0  0  0  0  0  0
  -24.5895  -30.7068   25.7811 H   0  0  0  0  0  0
  -24.8911  -32.2872   26.4925 H   0  0  0  0  0  0
  -25.8066  -30.8887   27.0237 H   0  0  0  0  0  0
  -26.2870  -29.6807   24.1163 H   0  0  0  0  0  0
  -27.4068  -29.7288   25.4590 H   0  0  0  0  0  0
  -27.8703  -30.4371   23.9288 H   0  0  0  0  0  0
  -27.2676  -33.3629   26.2079 H   0  0  0  0  0  0
  -28.3846  -32.6898   25.0305 H   0  0  0  0  0  0
  -28.0728  -31.8448   26.5396 H   0  0  0  0  0  0
  -28.2598  -38.0102   24.7515 H   0  0  0  0  0  0
  -28.1070  -36.2642   24.6284 H   0  0  0  0  0  0
  -27.2300  -37.1454   25.8866 H   0  0  0  0  0  0
  -20.9332  -29.8786   21.6956 H   0  0  0  0  0  0
  -26.0176  -38.2871   24.1417 H   0  0  0  0  0  0
  -26.1619  -17.5173   18.4875 H   0  0  0  0  0  0
  -26.6506  -19.5547   19.7763 H   0  0  0  0  0  0
  -27.8377  -15.7545   18.2649 H   0  0  0  0  0  0
  -30.5559  -17.9690   20.7771 H   0  0  0  0  0  0
  -28.9432  -22.8480   21.8356 H   0  0  0  0  0  0
  -30.1327  -22.7680   17.7627 H   0  0  0  0  0  0
  -28.6070  -22.6322   16.9178 H   0  0  0  0  0  0
  -29.1029  -20.5652   18.2217 H   0  0  0  0  0  0
  -27.6166  -21.3394   18.7481 H   0  0  0  0  0  0
  -29.7560  -15.8677   16.6309 H   0  0  0  0  0  0
  -31.2940  -16.6251   16.2510 H   0  0  0  0  0  0
  -30.1234  -17.4964   17.2175 H   0  0  0  0  0  0
  -29.7789  -20.2199   21.6974 H   0  0  0  0  0  0
  -28.0790  -20.5519   21.6112 H   0  0  0  0  0  0
  -28.8651  -25.4064   21.6971 H   0  0  0  0  0  0
  -27.2189  -25.2066   21.2085 H   0  0  0  0  0  0
  -31.9398  -16.5842   18.6801 H   0  0  0  0  0  0
  -31.7095  -14.9988   17.9836 H   0  0  0  0  0  0
  -30.2275  -21.4779   20.0033 H   0  0  0  0  0  0
  1 25  1  0  0  0
  1 30  2  0  0  0
  1 86  1  0  0  0
  2  3  1  0  0  0
  2 25  1  0  0  0
  2 89  1  0  0  0
  2 90  1  0  0  0
  3  4  1  0  0  0
  3 91  1  0  0  0
  3 92  1  0  0  0
  4  5  1  0  0  0
  4 93  1  0  0  0
  4 94  1  0  0  0
  5  6  1  0  0  0
  5 26  1  0  0  0
  5 95  1  0  0  0
  6 25  1  0  0  0
  6 96  1  0  0  0
  6 97  1  0  0  0
  7  8  2  0  0  0
  7 26  1  0  0  0
  7 29  1  0  0  0
  8  9  1  0  0  0
  8 22  1  0  0  0
  9 10  1  0  0  0
  9 27  2  0  0  0
 10 11  2  0  0  0
 10 15  1  0  0  0
 11 12  1  0  0  0
 11 98  1  0  0  0
 12 13  2  0  0  0
 12 99  1  0  0  0
 13 14  1  0  0  0
 13 31  1  0  0  0
 14 15  2  0  0  0
 14100  1  0  0  0
 15101  1  0  0  0
 16 17  2  0  0  0
 16 21  1  0  0  0
 16 31  1  0  0  0
 17 18  1  0  0  0
 17102  1  0  0  0
 18 19  2  0  0  0
 18103  1  0  0  0
 19 20  1  0  0  0
 19 24  1  0  0  0
 20 21  2  0  0  0
 20104  1  0  0  0
 21 23  1  0  0  0
 22 28  1  0  0  0
 22 32  2  0  0  0
 26 27  1  0  0  0
 28105  1  0  0  0
 28106  1  0  0  0
 29107  1  0  0  0
 29108  1  0  0  0
 33 34  1  0  0  0
 33 66  1  0  0  0
 33 70  2  0  0  0
 34 36  1  0  0  0
 34 59  1  0  0  0
 34109  1  0  0  0
 35 44  2  0  0  0
 35 45  1  0  0  0
 35 68  1  0  0  0
 36 56  1  0  0  0
 36110  1  0  0  0
 37 39  1  0  0  0
 37 47  1  0  0  0
 37 66  1  0  0  0
 37111  1  0  0  0
 38 43  2  0  0  0
 38 46  1  0  0  0
 38 47  1  0  0  0
 39 64  1  0  0  0
 39 67  2  0  0  0
 40 52  1  0  0  0
 40 53  2  0  0  0
 40 58  1  0  0  0
 41112  1  0  0  0
 41113  1  0  0  0
 41114  1  0  0  0
 41 48  1  0  0  0
 42 43  1  0  0  0
 42 66  1  0  0  0
 42115  1  0  0  0
 42116  1  0  0  0
 43 44  1  0  0  0
 44117  1  0  0  0
 45 46  2  0  0  0
 45118  1  0  0  0
 46119  1  0  0  0
 47120  1  0  0  0
 47121  1  0  0  0
 48 56  1  0  0  0
 48 65  1  0  0  0
 48122  1  0  0  0
 49 50  1  0  0  0
 49 53  1  0  0  0
 49 64  1  0  0  0
 49123  1  0  0  0
 50 51  1  0  0  0
 50124  1  0  0  0
 50125  1  0  0  0
 51 52  1  0  0  0
 51126  1  0  0  0
 51127  1  0  0  0
 52128  1  0  0  0
 52129  1  0  0  0
 53 54  1  0  0  0
 54 55  2  0  0  0
 54130  1  0  0  0
 55 57  1  0  0  0
 55131  1  0  0  0
 56 69  2  0  0  0
 57 58  2  0  0  0
 57132  1  0  0  0
 58133  1  0  0  0
 59 60  1  0  0  0
 59 61  1  0  0  0
 59 62  1  0  0  0
 60134  1  0  0  0
 60135  1  0  0  0
 60136  1  0  0  0
 61137  1  0  0  0
 61138  1  0  0  0
 61139  1  0  0  0
 62140  1  0  0  0
 62141  1  0  0  0
 62142  1  0  0  0
 63 65  1  0  0  0
 63143  1  0  0  0
 63144  1  0  0  0
 63145  1  0  0  0
 64146  1  0  0  0
 65147  1  0  0  0
 68 84  1  0  0  0
 71 72  2  0  0  0
 71 73  1  0  0  0
 71148  1  0  0  0
 72 75  1  0  0  0
 72149  1  0  0  0
 73 76  2  0  0  0
 73150  1  0  0  0
 74 75  2  0  0  0
 74 76  1  0  0  0
 74151  1  0  0  0
 75 83  1  0  0  0
 76 86  1  0  0  0
 77 78  2  0  0  0
 77 87  1  0  0  0
 77152  1  0  0  0
 78 79  1  0  0  0
 78 84  1  0  0  0
 79 80  1  0  0  0
 79 88  2  0  0  0
 80 81  1  0  0  0
 80153  1  0  0  0
 80154  1  0  0  0
 81 87  1  0  0  0
 81155  1  0  0  0
 81156  1  0  0  0
 82 85  1  0  0  0
 82157  1  0  0  0
 82158  1  0  0  0
 82159  1  0  0  0
 83160  1  0  0  0
 83161  1  0  0  0
 83 87  1  0  0  0
 84162  1  0  0  0
 84163  1  0  0  0
 85 86  1  0  0  0
 85164  1  0  0  0
 85165  1  0  0  0
 87166  1  0  0  0
M  CHG  1  87   1
M  ISO  4   1 100  68 101  84 101  86 100
M  END
> <chiral flag>
0

> <version>
0

> <s_m_source_file>
/data/baiqing/PycharmProjects/Reinvent-master-3.2/result/LINK_invent/BTK/process_docking_weight1_custom_product_contain_oxygen_bond_distance_aromatic_linkinvent_7_9_3/rearranged_h_0095.sdf

> <i_m_source_file_index>
30

> <r_mmod_Potential_Energy-OPLS-2005>
122.203575134277

> <r_mmod_Stretch_Energy-OPLS-2005>
62.1970558166504

> <r_mmod_Bend_Energy-OPLS-2005>
140.027160644531

> <r_mmod_Torsional_Energy-OPLS-2005>
334.352386474609

> <r_mmod_Improper_Torsional_Energy-OPLS-2005>
31.6109256744385

> <r_mmod_Van_der_Waal_Energy-OPLS-2005>
159.48811340332

> <r_mmod_Electrostatic_Energy-OPLS-2005>
-192.145858764648

> <r_mmod_Solvation_Energy-OPLS-2005>
-483.287536621094

> <b_mmod_Minimization_Converged-OPLS-2005>
0

> <r_mmod_RMS_Derivative-OPLS-2005>
1.34821724891663

$$$$
30
                    3D
 Structure written by MMmdl.
154162  0  0  1  0            999 V2000
  -30.7568  -14.4463   20.4275 C   0  0  0  0  0  0
  -30.3881  -12.2577   19.4478 C   0  0  0  0  0  0
  -29.4871  -12.4618   18.2147 C   0  0  0  0  0  0
  -28.0086  -12.3455   18.6253 C   0  0  0  0  0  0
  -27.6509  -13.2193   19.8589 C   0  0  2  0  0  0
  -28.6965  -13.0833   20.9908 C   0  0  0  0  0  0
  -25.2545  -13.8191   20.5690 C   0  0  0  0  0  0
  -24.1814  -13.0454   20.9201 C   0  0  0  0  0  0
  -24.6389  -11.6928   20.8754 C   0  0  0  0  0  0
  -23.9064  -10.4302   21.0407 C   0  0  0  0  0  0
  -24.3621   -9.4213   21.9180 C   0  0  0  0  0  0
  -23.6300   -8.2243   22.0749 C   0  0  0  0  0  0
  -22.4278   -8.0282   21.3544 C   0  0  0  0  0  0
  -21.9914   -9.0252   20.4644 C   0  0  0  0  0  0
  -22.7240  -10.2136   20.3054 C   0  0  0  0  0  0
  -21.6857   -6.0735   22.5275 C   0  0  0  0  0  0
  -21.4013   -6.5640   23.8210 C   0  0  0  0  0  0
  -21.3659   -5.6797   24.9173 C   0  0  0  0  0  0
  -21.6045   -4.3056   24.7227 C   0  0  0  0  0  0
  -21.8818   -3.8147   23.4349 C   0  0  0  0  0  0
  -21.9194   -4.6962   22.3403 C   0  0  0  0  0  0
  -22.7836  -13.5238   21.1868 C   0  0  0  0  0  0
  -22.1663   -4.2148   21.0982 F   0  0  0  0  0  0
  -21.5629   -3.4541   25.7739 F   0  0  0  0  0  0
  -30.0282  -13.3023   20.4165 N   0  0  0  0  0  0
  -26.2981  -12.9388   20.3333 N   0  0  0  0  0  0
  -25.9318  -11.6537   20.5779 N   0  0  0  0  0  0
  -22.0485  -12.8216   22.0418 N   0  0  0  0  0  0
  -25.4261  -15.1907   20.4080 N   0  0  0  0  0  0
  -31.9704  -14.4331   20.2104 O   0  0  0  0  0  0
  -21.6647   -6.8875   21.4237 O   0  0  0  0  0  0
  -22.3523  -14.5550   20.6722 O   0  0  0  0  0  0
  -24.6128  -31.8693   23.2136 C   0  0  0  0  0  0
  -25.9033  -32.4832   23.8417 C   0  0  1  0  0  0
  -27.2226  -27.4631   20.0917 C   0  0  0  0  0  0
  -25.5914  -33.8631   24.2354 N   0  0  0  0  0  0
  -23.3976  -30.4960   21.5542 C   0  0  2  0  0  0
  -24.8393  -28.9676   20.1137 C   0  0  0  0  0  0
  -22.7392  -29.4670   22.5014 C   0  0  0  0  0  0
  -18.0269  -28.1374   22.8497 C   0  0  0  0  0  0
  -24.1487  -36.7317   23.2641 C   0  0  0  0  0  0
  -25.9225  -30.8484   21.3559 C   0  0  0  0  0  0
  -25.9991  -29.4859   20.7020 C   0  0  0  0  0  0
  -27.1978  -28.7423   20.6832 C   0  0  0  0  0  0
  -26.0470  -26.9519   19.4982 C   0  0  0  0  0  0
  -24.8558  -27.7001   19.5073 C   0  0  0  0  0  0
  -23.6008  -29.8303   20.1674 C   0  0  0  0  0  0
  -25.4107  -36.3114   24.0344 C   0  0  1  0  0  0
  -20.5852  -28.3652   23.1332 C   0  0  2  0  0  0
  -20.6754  -26.9396   22.5410 C   0  0  0  0  0  0
  -19.5731  -26.6382   21.5208 C   0  0  0  0  0  0
  -18.1916  -26.7923   22.1620 C   0  0  0  0  0  0
  -19.1516  -28.8830   23.2912 C   0  0  0  0  0  0
  -18.9443  -30.1438   23.8916 C   0  0  0  0  0  0
  -17.6447  -30.6585   24.0564 C   0  0  0  0  0  0
  -25.9026  -34.9480   23.5134 C   0  0  0  0  0  0
  -16.5340  -29.9082   23.6335 C   0  0  0  0  0  0
  -16.7258  -28.6498   23.0359 C   0  0  0  0  0  0
  -26.4477  -31.6609   25.0732 C   0  0  0  0  0  0
  -25.3767  -31.3677   26.1500 C   0  0  0  0  0  0
  -27.0310  -30.3076   24.6053 C   0  0  0  0  0  0
  -27.6068  -32.4318   25.7480 C   0  0  0  0  0  0
  -27.5580  -37.1815   24.8469 C   0  0  0  0  0  0
  -21.4123  -29.3033   22.3753 N   0  0  0  0  0  0
  -26.4294  -37.3800   23.9417 N   0  0  0  0  0  0
  -24.6636  -31.0837   22.1013 N   0  0  0  0  0  0
  -23.4180  -28.8203   23.3034 O   0  0  0  0  0  0
  -28.3841  -26.7328   20.1087 O   0  0  0  0  0  0
  -26.5568  -34.8927   22.4679 O   0  0  0  0  0  0
  -23.5329  -32.1414   23.7567 O   0  0  0  0  0  0
  -28.6910  -18.4151   20.1120 C   0  0  0  0  0  0
  -28.3466  -19.7870   20.1735 C   0  0  0  0  0  0
  -31.0495  -19.0339   20.0025 C   0  0  0  0  0  0
  -30.0467  -18.0414   19.9806 C   0  0  0  0  0  0
  -29.3596  -20.7776   20.1157 C   0  0  0  0  0  0
  -30.7142  -20.3918   20.0801 C   0  0  0  0  0  0
  -30.4814  -16.6525   19.6298 C   0  0  0  0  0  0
  -28.2900  -24.3402   19.5673 C   0  0  0  0  0  0
  -28.0158  -22.8961   20.0341 C   0  0  0  0  0  0
  -28.2387  -25.4156   20.6569 C   0  0  0  0  0  0
  -31.7260  -21.3552   20.0671 N   0  0  0  0  0  0
  -29.1331  -22.1659   19.9594 N   0  0  0  0  0  0
  -30.0631  -15.6019   20.3727 N   0  0  0  0  0  0
  -31.2486  -16.5549   18.6616 O   0  0  0  0  0  0
  -28.5704  -24.6073   18.3908 O   0  0  0  0  0  0
  -26.9104  -22.5072   20.4265 O   0  0  0  0  0  0
  -31.4395  -12.2819   19.1544 H   0  0  0  0  0  0
  -30.2247  -11.2718   19.8856 H   0  0  0  0  0  0
  -29.7207  -11.7167   17.4534 H   0  0  0  0  0  0
  -29.6761  -13.4363   17.7608 H   0  0  0  0  0  0
  -27.8178  -11.2954   18.8485 H   0  0  0  0  0  0
  -27.3615  -12.5975   17.7845 H   0  0  0  0  0  0
  -27.6717  -14.2535   19.5163 H   0  0  0  0  0  0
  -28.6525  -12.0911   21.4416 H   0  0  0  0  0  0
  -28.4932  -13.7946   21.7925 H   0  0  0  0  0  0
  -25.2763   -9.5692   22.4761 H   0  0  0  0  0  0
  -24.0013   -7.4633   22.7467 H   0  0  0  0  0  0
  -21.0845   -8.8771   19.8949 H   0  0  0  0  0  0
  -22.3693  -10.9678   19.6168 H   0  0  0  0  0  0
  -21.2001   -7.6149   23.9713 H   0  0  0  0  0  0
  -21.1484   -6.0526   25.9079 H   0  0  0  0  0  0
  -22.0597   -2.7610   23.2847 H   0  0  0  0  0  0
  -22.4122  -11.9881   22.4796 H   0  0  0  0  0  0
  -21.1102  -13.1223   22.2641 H   0  0  0  0  0  0
  -24.6569  -15.8442   20.5080 H   0  0  0  0  0  0
  -26.2717  -15.6247   20.0629 H   0  0  0  0  0  0
  -26.7118  -32.5549   23.1197 H   0  0  0  0  0  0
  -25.0119  -33.9802   25.0537 H   0  0  0  0  0  0
  -22.6856  -31.3126   21.4194 H   0  0  0  0  0  0
  -23.3739  -35.9660   23.3303 H   0  0  0  0  0  0
  -24.3585  -36.8913   22.2053 H   0  0  0  0  0  0
  -23.7243  -37.6530   23.6644 H   0  0  0  0  0  0
  -26.0247  -31.6140   20.5858 H   0  0  0  0  0  0
  -26.8149  -30.9030   21.9674 H   0  0  0  0  0  0
  -28.0965  -29.1378   21.1358 H   0  0  0  0  0  0
  -26.0417  -25.9807   19.0259 H   0  0  0  0  0  0
  -23.9616  -27.2993   19.0499 H   0  0  0  0  0  0
  -23.7048  -30.6050   19.4068 H   0  0  0  0  0  0
  -22.7252  -29.2466   19.8762 H   0  0  0  0  0  0
  -25.1276  -36.1973   25.0837 H   0  0  0  0  0  0
  -20.9940  -28.3196   24.1451 H   0  0  0  0  0  0
  -20.5656  -26.2254   23.3584 H   0  0  0  0  0  0
  -21.6632  -26.7440   22.1206 H   0  0  0  0  0  0
  -19.6890  -25.6294   21.1227 H   0  0  0  0  0  0
  -19.6681  -27.3197   20.6743 H   0  0  0  0  0  0
  -17.4192  -26.6682   21.4020 H   0  0  0  0  0  0
  -18.0317  -26.0053   22.8999 H   0  0  0  0  0  0
  -19.7920  -30.7245   24.2298 H   0  0  0  0  0  0
  -17.5006  -31.6273   24.5148 H   0  0  0  0  0  0
  -15.5344  -30.2989   23.7654 H   0  0  0  0  0  0
  -15.8656  -28.0819   22.7076 H   0  0  0  0  0  0
  -24.5952  -30.7014   25.7836 H   0  0  0  0  0  0
  -24.8958  -32.2815   26.4997 H   0  0  0  0  0  0
  -25.8152  -30.8820   27.0226 H   0  0  0  0  0  0
  -26.2824  -29.6825   24.1181 H   0  0  0  0  0  0
  -27.4185  -29.7336   25.4475 H   0  0  0  0  0  0
  -27.8610  -30.4418   23.9113 H   0  0  0  0  0  0
  -27.2705  -33.3606   26.2096 H   0  0  0  0  0  0
  -28.3864  -32.6888   25.0297 H   0  0  0  0  0  0
  -28.0762  -31.8413   26.5355 H   0  0  0  0  0  0
  -28.2609  -38.0102   24.7523 H   0  0  0  0  0  0
  -28.1057  -36.2639   24.6278 H   0  0  0  0  0  0
  -27.2300  -37.1452   25.8870 H   0  0  0  0  0  0
  -20.9265  -29.8761   21.6994 H   0  0  0  0  0  0
  -26.0173  -38.2871   24.1421 H   0  0  0  0  0  0
  -27.9100  -17.6682   20.0746 H   0  0  0  0  0  0
  -27.3014  -20.0575   20.1927 H   0  0  0  0  0  0
  -32.0860  -18.7446   19.8936 H   0  0  0  0  0  0
  -29.0535  -25.2379   21.3589 H   0  0  0  0  0  0
  -27.3135  -25.3152   21.2268 H   0  0  0  0  0  0
  -32.6746  -21.0093   20.1748 H   0  0  0  0  0  0
  -31.5772  -22.1565   20.6709 H   0  0  0  0  0  0
  -29.9572  -22.6682   19.6543 H   0  0  0  0  0  0
  -29.2080  -15.6849   20.8952 H   0  0  0  0  0  0
  1 25  1  0  0  0
  1 30  2  0  0  0
  1 83  1  0  0  0
  2  3  1  0  0  0
  2 25  1  0  0  0
  2 87  1  0  0  0
  2 88  1  0  0  0
  3  4  1  0  0  0
  3 89  1  0  0  0
  3 90  1  0  0  0
  4  5  1  0  0  0
  4 91  1  0  0  0
  4 92  1  0  0  0
  5  6  1  0  0  0
  5 26  1  0  0  0
  5 93  1  0  0  0
  6 25  1  0  0  0
  6 94  1  0  0  0
  6 95  1  0  0  0
  7  8  2  0  0  0
  7 26  1  0  0  0
  7 29  1  0  0  0
  8  9  1  0  0  0
  8 22  1  0  0  0
  9 10  1  0  0  0
  9 27  2  0  0  0
 10 11  2  0  0  0
 10 15  1  0  0  0
 11 12  1  0  0  0
 11 96  1  0  0  0
 12 13  2  0  0  0
 12 97  1  0  0  0
 13 14  1  0  0  0
 13 31  1  0  0  0
 14 15  2  0  0  0
 14 98  1  0  0  0
 15 99  1  0  0  0
 16 17  2  0  0  0
 16 21  1  0  0  0
 16 31  1  0  0  0
 17 18  1  0  0  0
 17100  1  0  0  0
 18 19  2  0  0  0
 18101  1  0  0  0
 19 20  1  0  0  0
 19 24  1  0  0  0
 20 21  2  0  0  0
 20102  1  0  0  0
 21 23  1  0  0  0
 22 28  1  0  0  0
 22 32  2  0  0  0
 26 27  1  0  0  0
 28103  1  0  0  0
 28104  1  0  0  0
 29105  1  0  0  0
 29106  1  0  0  0
 33 34  1  0  0  0
 33 66  1  0  0  0
 33 70  2  0  0  0
 34 36  1  0  0  0
 34 59  1  0  0  0
 34107  1  0  0  0
 35 44  2  0  0  0
 35 45  1  0  0  0
 35 68  1  0  0  0
 36 56  1  0  0  0
 36108  1  0  0  0
 37 39  1  0  0  0
 37 47  1  0  0  0
 37 66  1  0  0  0
 37109  1  0  0  0
 38 43  2  0  0  0
 38 46  1  0  0  0
 38 47  1  0  0  0
 39 64  1  0  0  0
 39 67  2  0  0  0
 40 52  1  0  0  0
 40 53  2  0  0  0
 40 58  1  0  0  0
 41110  1  0  0  0
 41111  1  0  0  0
 41112  1  0  0  0
 41 48  1  0  0  0
 42 43  1  0  0  0
 42 66  1  0  0  0
 42113  1  0  0  0
 42114  1  0  0  0
 43 44  1  0  0  0
 44115  1  0  0  0
 45 46  2  0  0  0
 45116  1  0  0  0
 46117  1  0  0  0
 47118  1  0  0  0
 47119  1  0  0  0
 48 56  1  0  0  0
 48 65  1  0  0  0
 48120  1  0  0  0
 49 50  1  0  0  0
 49 53  1  0  0  0
 49 64  1  0  0  0
 49121  1  0  0  0
 50 51  1  0  0  0
 50122  1  0  0  0
 50123  1  0  0  0
 51 52  1  0  0  0
 51124  1  0  0  0
 51125  1  0  0  0
 52126  1  0  0  0
 52127  1  0  0  0
 53 54  1  0  0  0
 54 55  2  0  0  0
 54128  1  0  0  0
 55 57  1  0  0  0
 55129  1  0  0  0
 56 69  2  0  0  0
 57 58  2  0  0  0
 57130  1  0  0  0
 58131  1  0  0  0
 59 60  1  0  0  0
 59 61  1  0  0  0
 59 62  1  0  0  0
 60132  1  0  0  0
 60133  1  0  0  0
 60134  1  0  0  0
 61135  1  0  0  0
 61136  1  0  0  0
 61137  1  0  0  0
 62138  1  0  0  0
 62139  1  0  0  0
 62140  1  0  0  0
 63 65  1  0  0  0
 63141  1  0  0  0
 63142  1  0  0  0
 63143  1  0  0  0
 64144  1  0  0  0
 65145  1  0  0  0
 68 80  1  0  0  0
 71 72  2  0  0  0
 71 74  1  0  0  0
 71146  1  0  0  0
 72 75  1  0  0  0
 72147  1  0  0  0
 73 74  2  0  0  0
 73 76  1  0  0  0
 73148  1  0  0  0
 74 77  1  0  0  0
 75 76  2  0  0  0
 75 82  1  0  0  0
 76 81  1  0  0  0
 77 83  1  0  0  0
 77 84  2  0  0  0
 78 79  1  0  0  0
 78 80  1  0  0  0
 78 85  2  0  0  0
 79 82  1  0  0  0
 79 86  2  0  0  0
 80149  1  0  0  0
 80150  1  0  0  0
 81151  1  0  0  0
 81152  1  0  0  0
 82153  1  0  0  0
 83154  1  0  0  0
M  ISO  4   1 100  68 101  80 101  83 100
M  END
> <chiral flag>
0

> <version>
0

> <s_m_source_file>
/data/baiqing/PycharmProjects/Reinvent-master-3.2/result/LINK_invent/BTK/process_docking_weight1_custom_product_contain_oxygen_bond_distance_aromatic_linkinvent_7_9_3/rearranged_h_0095.sdf

> <i_m_source_file_index>
31

> <r_mmod_Potential_Energy-OPLS-2005>
-113.080001831055

> <r_mmod_Stretch_Energy-OPLS-2005>
32.8401794433594

> <r_mmod_Bend_Energy-OPLS-2005>
108.319076538086

> <r_mmod_Torsional_Energy-OPLS-2005>
309.858612060547

> <r_mmod_Improper_Torsional_Energy-OPLS-2005>
14.2726488113403

> <r_mmod_Van_der_Waal_Energy-OPLS-2005>
170.271148681641

> <r_mmod_Electrostatic_Energy-OPLS-2005>
-511.136474609375

> <r_mmod_Solvation_Energy-OPLS-2005>
-266.957946777344

> <b_mmod_Minimization_Converged-OPLS-2005>
0

> <r_mmod_RMS_Derivative-OPLS-2005>
1.33593249320984

$$$$
31
                    3D
 Structure written by MMmdl.
153161  0  0  1  0            999 V2000
  -30.7620  -14.4286   20.6078 C   0  0  0  0  0  0
  -30.4102  -12.3070   19.3958 C   0  0  0  0  0  0
  -29.4783  -12.5062   18.1867 C   0  0  0  0  0  0
  -28.0026  -12.3705   18.6081 C   0  0  0  0  0  0
  -27.6588  -13.2099   19.8688 C   0  0  2  0  0  0
  -28.7067  -13.0014   20.9839 C   0  0  0  0  0  0
  -25.2638  -13.8198   20.5744 C   0  0  0  0  0  0
  -24.1865  -13.0473   20.9199 C   0  0  0  0  0  0
  -24.6412  -11.6929   20.8745 C   0  0  0  0  0  0
  -23.9074  -10.4309   21.0421 C   0  0  0  0  0  0
  -24.3625   -9.4228   21.9204 C   0  0  0  0  0  0
  -23.6312   -8.2255   22.0761 C   0  0  0  0  0  0
  -22.4290   -8.0286   21.3561 C   0  0  0  0  0  0
  -21.9934   -9.0252   20.4650 C   0  0  0  0  0  0
  -22.7253  -10.2142   20.3065 C   0  0  0  0  0  0
  -21.6856   -6.0755   22.5288 C   0  0  0  0  0  0
  -21.4013   -6.5658   23.8221 C   0  0  0  0  0  0
  -21.3654   -5.6805   24.9185 C   0  0  0  0  0  0
  -21.6037   -4.3066   24.7228 C   0  0  0  0  0  0
  -21.8819   -3.8164   23.4347 C   0  0  0  0  0  0
  -21.9193   -4.6985   22.3408 C   0  0  0  0  0  0
  -22.7884  -13.5283   21.1819 C   0  0  0  0  0  0
  -22.1662   -4.2168   21.0984 F   0  0  0  0  0  0
  -21.5619   -3.4537   25.7741 F   0  0  0  0  0  0
  -30.0294  -13.2984   20.4135 N   0  0  0  0  0  0
  -26.3036  -12.9348   20.3373 N   0  0  0  0  0  0
  -25.9336  -11.6499   20.5757 N   0  0  0  0  0  0
  -22.0494  -12.8265   22.0342 N   0  0  0  0  0  0
  -25.4474  -15.1916   20.4213 N   0  0  0  0  0  0
  -31.8969  -14.5502   20.1353 O   0  0  0  0  0  0
  -21.6652   -6.8889   21.4250 O   0  0  0  0  0  0
  -22.3581  -14.5595   20.6671 O   0  0  0  0  0  0
  -24.6158  -31.8663   23.2076 C   0  0  0  0  0  0
  -25.9050  -32.4809   23.8383 C   0  0  1  0  0  0
  -27.2446  -27.4391   20.1059 C   0  0  0  0  0  0
  -25.5898  -33.8603   24.2328 N   0  0  0  0  0  0
  -23.4043  -30.4889   21.5470 C   0  0  2  0  0  0
  -24.8524  -28.9470   20.1225 C   0  0  0  0  0  0
  -22.7408  -29.4677   22.4997 C   0  0  0  0  0  0
  -18.0272  -28.1403   22.8496 C   0  0  0  0  0  0
  -24.1482  -36.7305   23.2628 C   0  0  0  0  0  0
  -25.9293  -30.8376   21.3533 C   0  0  0  0  0  0
  -26.0105  -29.4655   20.7156 C   0  0  0  0  0  0
  -27.2106  -28.7199   20.7025 C   0  0  0  0  0  0
  -26.0703  -26.9260   19.5172 C   0  0  0  0  0  0
  -24.8762  -27.6748   19.5229 C   0  0  0  0  0  0
  -23.6120  -29.8130   20.1645 C   0  0  0  0  0  0
  -25.4090  -36.3104   24.0355 C   0  0  1  0  0  0
  -20.5850  -28.3680   23.1323 C   0  0  2  0  0  0
  -20.6770  -26.9411   22.5434 C   0  0  0  0  0  0
  -19.5740  -26.6403   21.5237 C   0  0  0  0  0  0
  -18.1915  -26.7959   22.1631 C   0  0  0  0  0  0
  -19.1520  -28.8858   23.2908 C   0  0  0  0  0  0
  -18.9460  -30.1466   23.8918 C   0  0  0  0  0  0
  -17.6462  -30.6601   24.0577 C   0  0  0  0  0  0
  -25.9021  -34.9471   23.5142 C   0  0  0  0  0  0
  -16.5340  -29.9116   23.6328 C   0  0  0  0  0  0
  -16.7264  -28.6530   23.0340 C   0  0  0  0  0  0
  -26.4467  -31.6568   25.0702 C   0  0  0  0  0  0
  -25.3729  -31.3669   26.1445 C   0  0  0  0  0  0
  -27.0267  -30.3025   24.6026 C   0  0  0  0  0  0
  -27.6075  -32.4228   25.7474 C   0  0  0  0  0  0
  -27.5608  -37.1744   24.8435 C   0  0  0  0  0  0
  -21.4131  -29.3040   22.3723 N   0  0  0  0  0  0
  -26.4252  -37.3818   23.9471 N   0  0  0  0  0  0
  -24.6684  -31.0788   22.0956 N   0  0  0  0  0  0
  -23.4163  -28.8203   23.3045 O   0  0  0  0  0  0
  -28.4194  -26.7266   20.0342 O   0  0  0  0  0  0
  -26.5591  -34.8943   22.4711 O   0  0  0  0  0  0
  -23.5354  -32.1394   23.7502 O   0  0  0  0  0  0
  -30.4618  -19.0488   22.2082 C   0  0  0  0  0  0
  -29.9206  -20.3367   21.9997 C   0  0  0  0  0  0
  -28.3324  -19.3882   20.4329 C   0  0  0  0  0  0
  -29.9683  -17.9098   21.5177 C   0  0  0  0  0  0
  -28.8653  -20.5246   21.0793 C   0  0  0  0  0  0
  -28.8688  -18.0970   20.6426 C   0  0  0  0  0  0
  -30.7157  -16.5942   21.6265 C   0  0  0  0  0  0
  -28.4576  -24.2646   20.3740 C   0  0  0  0  0  0
  -28.9212  -23.0540   21.2164 C   0  0  0  0  0  0
  -28.5819  -25.6733   20.9996 C   0  0  0  0  0  0
  -28.3233  -21.7871   20.7692 N   0  0  0  0  0  0
  -30.1220  -15.4638   21.1874 N   0  0  0  0  0  0
  -31.8495  -16.5994   22.1248 O   0  0  0  0  0  0
  -27.9987  -24.0953   19.2361 O   0  0  0  0  0  0
  -28.3214  -17.0535   19.9662 F   0  0  0  0  0  0
  -31.4515  -12.3940   19.0816 H   0  0  0  0  0  0
  -30.3065  -11.2984   19.7957 H   0  0  0  0  0  0
  -29.7127  -11.7800   17.4074 H   0  0  0  0  0  0
  -29.6454  -13.4896   17.7441 H   0  0  0  0  0  0
  -27.8078  -11.3144   18.7962 H   0  0  0  0  0  0
  -27.3487  -12.6532   17.7819 H   0  0  0  0  0  0
  -27.7015  -14.2564   19.5663 H   0  0  0  0  0  0
  -28.6865  -11.9692   21.3388 H   0  0  0  0  0  0
  -28.4800  -13.6164   21.8556 H   0  0  0  0  0  0
  -25.2768   -9.5706   22.4776 H   0  0  0  0  0  0
  -24.0016   -7.4660   22.7485 H   0  0  0  0  0  0
  -21.0870   -8.8768   19.8951 H   0  0  0  0  0  0
  -22.3720  -10.9677   19.6159 H   0  0  0  0  0  0
  -21.2002   -7.6159   23.9740 H   0  0  0  0  0  0
  -21.1469   -6.0527   25.9091 H   0  0  0  0  0  0
  -22.0598   -2.7618   23.2844 H   0  0  0  0  0  0
  -22.4069  -11.9912   22.4726 H   0  0  0  0  0  0
  -21.1103  -13.1278   22.2476 H   0  0  0  0  0  0
  -24.7123  -15.8680   20.5931 H   0  0  0  0  0  0
  -26.3114  -15.6207   20.1111 H   0  0  0  0  0  0
  -26.7128  -32.5547   23.1161 H   0  0  0  0  0  0
  -25.0079  -33.9763   25.0496 H   0  0  0  0  0  0
  -22.6951  -31.3067   21.4034 H   0  0  0  0  0  0
  -23.3781  -35.9591   23.3202 H   0  0  0  0  0  0
  -24.3617  -36.9000   22.2061 H   0  0  0  0  0  0
  -23.7166  -37.6468   23.6663 H   0  0  0  0  0  0
  -26.0249  -31.5927   20.5711 H   0  0  0  0  0  0
  -26.8239  -30.9098   21.9600 H   0  0  0  0  0  0
  -28.1102  -29.1293   21.1410 H   0  0  0  0  0  0
  -26.0829  -25.9530   19.0468 H   0  0  0  0  0  0
  -23.9840  -27.2665   19.0680 H   0  0  0  0  0  0
  -23.7164  -30.5790   19.3955 H   0  0  0  0  0  0
  -22.7375  -29.2302   19.8714 H   0  0  0  0  0  0
  -25.1238  -36.1950   25.0835 H   0  0  0  0  0  0
  -20.9947  -28.3238   24.1440 H   0  0  0  0  0  0
  -20.5712  -26.2277   23.3620 H   0  0  0  0  0  0
  -21.6631  -26.7480   22.1174 H   0  0  0  0  0  0
  -19.6892  -25.6325   21.1244 H   0  0  0  0  0  0
  -19.6684  -27.3239   20.6785 H   0  0  0  0  0  0
  -17.4192  -26.6719   21.4030 H   0  0  0  0  0  0
  -18.0293  -26.0123   22.9038 H   0  0  0  0  0  0
  -19.7939  -30.7275   24.2286 H   0  0  0  0  0  0
  -17.5028  -31.6289   24.5171 H   0  0  0  0  0  0
  -15.5348  -30.3029   23.7684 H   0  0  0  0  0  0
  -15.8656  -28.0876   22.7034 H   0  0  0  0  0  0
  -24.5959  -30.6936   25.7803 H   0  0  0  0  0  0
  -24.8843  -32.2815   26.4811 H   0  0  0  0  0  0
  -25.8098  -30.8923   27.0241 H   0  0  0  0  0  0
  -26.2773  -29.6818   24.1103 H   0  0  0  0  0  0
  -27.4106  -29.7221   25.4424 H   0  0  0  0  0  0
  -27.8576  -30.4395   23.9103 H   0  0  0  0  0  0
  -27.2745  -33.3556   26.2042 H   0  0  0  0  0  0
  -28.3907  -32.6708   25.0291 H   0  0  0  0  0  0
  -28.0697  -31.8313   26.5394 H   0  0  0  0  0  0
  -28.2454  -38.0203   24.7711 H   0  0  0  0  0  0
  -28.1253  -36.2752   24.5925 H   0  0  0  0  0  0
  -27.2363  -37.0991   25.8827 H   0  0  0  0  0  0
  -20.9295  -29.8743   21.6922 H   0  0  0  0  0  0
  -26.0137  -38.2858   24.1630 H   0  0  0  0  0  0
  -31.3023  -18.9439   22.8806 H   0  0  0  0  0  0
  -30.3501  -21.1718   22.5372 H   0  0  0  0  0  0
  -27.5088  -19.4956   19.7437 H   0  0  0  0  0  0
  -28.6590  -23.2378   22.2597 H   0  0  0  0  0  0
  -30.0088  -22.9947   21.1602 H   0  0  0  0  0  0
  -29.5738  -25.7629   21.4444 H   0  0  0  0  0  0
  -27.8618  -25.7750   21.8100 H   0  0  0  0  0  0
  -27.7245  -21.8719   19.9496 H   0  0  0  0  0  0
  -29.1182  -15.4696   21.1154 H   0  0  0  0  0  0
  1 25  1  0  0  0
  1 30  2  0  0  0
  1 82  1  0  0  0
  2  3  1  0  0  0
  2 25  1  0  0  0
  2 86  1  0  0  0
  2 87  1  0  0  0
  3  4  1  0  0  0
  3 88  1  0  0  0
  3 89  1  0  0  0
  4  5  1  0  0  0
  4 90  1  0  0  0
  4 91  1  0  0  0
  5  6  1  0  0  0
  5 26  1  0  0  0
  5 92  1  0  0  0
  6 25  1  0  0  0
  6 93  1  0  0  0
  6 94  1  0  0  0
  7  8  2  0  0  0
  7 26  1  0  0  0
  7 29  1  0  0  0
  8  9  1  0  0  0
  8 22  1  0  0  0
  9 10  1  0  0  0
  9 27  2  0  0  0
 10 11  2  0  0  0
 10 15  1  0  0  0
 11 12  1  0  0  0
 11 95  1  0  0  0
 12 13  2  0  0  0
 12 96  1  0  0  0
 13 14  1  0  0  0
 13 31  1  0  0  0
 14 15  2  0  0  0
 14 97  1  0  0  0
 15 98  1  0  0  0
 16 17  2  0  0  0
 16 21  1  0  0  0
 16 31  1  0  0  0
 17 18  1  0  0  0
 17 99  1  0  0  0
 18 19  2  0  0  0
 18100  1  0  0  0
 19 20  1  0  0  0
 19 24  1  0  0  0
 20 21  2  0  0  0
 20101  1  0  0  0
 21 23  1  0  0  0
 22 28  1  0  0  0
 22 32  2  0  0  0
 26 27  1  0  0  0
 28102  1  0  0  0
 28103  1  0  0  0
 29104  1  0  0  0
 29105  1  0  0  0
 33 34  1  0  0  0
 33 66  1  0  0  0
 33 70  2  0  0  0
 34 36  1  0  0  0
 34 59  1  0  0  0
 34106  1  0  0  0
 35 44  2  0  0  0
 35 45  1  0  0  0
 35 68  1  0  0  0
 36 56  1  0  0  0
 36107  1  0  0  0
 37 39  1  0  0  0
 37 47  1  0  0  0
 37 66  1  0  0  0
 37108  1  0  0  0
 38 43  2  0  0  0
 38 46  1  0  0  0
 38 47  1  0  0  0
 39 64  1  0  0  0
 39 67  2  0  0  0
 40 52  1  0  0  0
 40 53  2  0  0  0
 40 58  1  0  0  0
 41109  1  0  0  0
 41110  1  0  0  0
 41111  1  0  0  0
 41 48  1  0  0  0
 42 43  1  0  0  0
 42 66  1  0  0  0
 42112  1  0  0  0
 42113  1  0  0  0
 43 44  1  0  0  0
 44114  1  0  0  0
 45 46  2  0  0  0
 45115  1  0  0  0
 46116  1  0  0  0
 47117  1  0  0  0
 47118  1  0  0  0
 48 56  1  0  0  0
 48 65  1  0  0  0
 48119  1  0  0  0
 49 50  1  0  0  0
 49 53  1  0  0  0
 49 64  1  0  0  0
 49120  1  0  0  0
 50 51  1  0  0  0
 50121  1  0  0  0
 50122  1  0  0  0
 51 52  1  0  0  0
 51123  1  0  0  0
 51124  1  0  0  0
 52125  1  0  0  0
 52126  1  0  0  0
 53 54  1  0  0  0
 54 55  2  0  0  0
 54127  1  0  0  0
 55 57  1  0  0  0
 55128  1  0  0  0
 56 69  2  0  0  0
 57 58  2  0  0  0
 57129  1  0  0  0
 58130  1  0  0  0
 59 60  1  0  0  0
 59 61  1  0  0  0
 59 62  1  0  0  0
 60131  1  0  0  0
 60132  1  0  0  0
 60133  1  0  0  0
 61134  1  0  0  0
 61135  1  0  0  0
 61136  1  0  0  0
 62137  1  0  0  0
 62138  1  0  0  0
 62139  1  0  0  0
 63 65  1  0  0  0
 63140  1  0  0  0
 63141  1  0  0  0
 63142  1  0  0  0
 64143  1  0  0  0
 65144  1  0  0  0
 68 80  1  0  0  0
 71 72  2  0  0  0
 71 74  1  0  0  0
 71145  1  0  0  0
 72 75  1  0  0  0
 72146  1  0  0  0
 73 75  2  0  0  0
 73 76  1  0  0  0
 73147  1  0  0  0
 74 76  2  0  0  0
 74 77  1  0  0  0
 75 81  1  0  0  0
 76 85  1  0  0  0
 77 82  1  0  0  0
 77 83  2  0  0  0
 78 79  1  0  0  0
 78 80  1  0  0  0
 78 84  2  0  0  0
 79 81  1  0  0  0
 79148  1  0  0  0
 79149  1  0  0  0
 80150  1  0  0  0
 80151  1  0  0  0
 81152  1  0  0  0
 82153  1  0  0  0
M  ISO  4   1 100  68 101  80 101  82 100
M  END
> <chiral flag>
0

> <version>
0

> <s_m_source_file>
/data/baiqing/PycharmProjects/Reinvent-master-3.2/result/LINK_invent/BTK/process_docking_weight1_custom_product_contain_oxygen_bond_distance_aromatic_linkinvent_7_9_3/rearranged_h_0095.sdf

> <i_m_source_file_index>
32

> <r_mmod_Potential_Energy-OPLS-2005>
-38.5972290039062

> <r_mmod_Stretch_Energy-OPLS-2005>
38.5323753356934

> <r_mmod_Bend_Energy-OPLS-2005>
104.814590454102

> <r_mmod_Torsional_Energy-OPLS-2005>
253.066925048828

> <r_mmod_Improper_Torsional_Energy-OPLS-2005>
5.61951780319214

> <r_mmod_Van_der_Waal_Energy-OPLS-2005>
160.204635620117

> <r_mmod_Electrostatic_Energy-OPLS-2005>
-377.959106445312

> <r_mmod_Solvation_Energy-OPLS-2005>
-235.68571472168

> <b_mmod_Minimization_Converged-OPLS-2005>
0

> <r_mmod_RMS_Derivative-OPLS-2005>
3.41535592079163

$$$$
32
                    3D
 Structure written by MMmdl.
153161  0  0  1  0            999 V2000
  -30.7620  -14.4286   20.6078 C   0  0  0  0  0  0
  -30.4102  -12.3070   19.3958 C   0  0  0  0  0  0
  -29.4783  -12.5062   18.1867 C   0  0  0  0  0  0
  -28.0026  -12.3705   18.6081 C   0  0  0  0  0  0
  -27.6588  -13.2099   19.8688 C   0  0  2  0  0  0
  -28.7067  -13.0014   20.9839 C   0  0  0  0  0  0
  -25.2638  -13.8198   20.5744 C   0  0  0  0  0  0
  -24.1865  -13.0473   20.9199 C   0  0  0  0  0  0
  -24.6412  -11.6929   20.8745 C   0  0  0  0  0  0
  -23.9074  -10.4309   21.0421 C   0  0  0  0  0  0
  -24.3625   -9.4228   21.9204 C   0  0  0  0  0  0
  -23.6312   -8.2255   22.0761 C   0  0  0  0  0  0
  -22.4290   -8.0286   21.3561 C   0  0  0  0  0  0
  -21.9934   -9.0252   20.4650 C   0  0  0  0  0  0
  -22.7253  -10.2142   20.3065 C   0  0  0  0  0  0
  -21.6856   -6.0755   22.5288 C   0  0  0  0  0  0
  -21.4013   -6.5658   23.8221 C   0  0  0  0  0  0
  -21.3654   -5.6805   24.9185 C   0  0  0  0  0  0
  -21.6037   -4.3066   24.7228 C   0  0  0  0  0  0
  -21.8819   -3.8164   23.4347 C   0  0  0  0  0  0
  -21.9193   -4.6985   22.3408 C   0  0  0  0  0  0
  -22.7884  -13.5283   21.1819 C   0  0  0  0  0  0
  -22.1662   -4.2168   21.0984 F   0  0  0  0  0  0
  -21.5619   -3.4537   25.7741 F   0  0  0  0  0  0
  -30.0294  -13.2984   20.4135 N   0  0  0  0  0  0
  -26.3036  -12.9348   20.3373 N   0  0  0  0  0  0
  -25.9336  -11.6499   20.5757 N   0  0  0  0  0  0
  -22.0494  -12.8265   22.0342 N   0  0  0  0  0  0
  -25.4474  -15.1916   20.4213 N   0  0  0  0  0  0
  -31.8969  -14.5502   20.1353 O   0  0  0  0  0  0
  -21.6652   -6.8889   21.4250 O   0  0  0  0  0  0
  -22.3581  -14.5595   20.6671 O   0  0  0  0  0  0
  -24.6158  -31.8663   23.2076 C   0  0  0  0  0  0
  -25.9050  -32.4809   23.8383 C   0  0  1  0  0  0
  -27.2446  -27.4391   20.1059 C   0  0  0  0  0  0
  -25.5898  -33.8603   24.2328 N   0  0  0  0  0  0
  -23.4043  -30.4889   21.5470 C   0  0  2  0  0  0
  -24.8524  -28.9470   20.1225 C   0  0  0  0  0  0
  -22.7408  -29.4677   22.4997 C   0  0  0  0  0  0
  -18.0272  -28.1403   22.8496 C   0  0  0  0  0  0
  -24.1482  -36.7305   23.2628 C   0  0  0  0  0  0
  -25.9293  -30.8376   21.3533 C   0  0  0  0  0  0
  -26.0105  -29.4655   20.7156 C   0  0  0  0  0  0
  -27.2106  -28.7199   20.7025 C   0  0  0  0  0  0
  -26.0703  -26.9260   19.5172 C   0  0  0  0  0  0
  -24.8762  -27.6748   19.5229 C   0  0  0  0  0  0
  -23.6120  -29.8130   20.1645 C   0  0  0  0  0  0
  -25.4090  -36.3104   24.0355 C   0  0  1  0  0  0
  -20.5850  -28.3680   23.1323 C   0  0  2  0  0  0
  -20.6770  -26.9411   22.5434 C   0  0  0  0  0  0
  -19.5740  -26.6403   21.5237 C   0  0  0  0  0  0
  -18.1915  -26.7959   22.1631 C   0  0  0  0  0  0
  -19.1520  -28.8858   23.2908 C   0  0  0  0  0  0
  -18.9460  -30.1466   23.8918 C   0  0  0  0  0  0
  -17.6462  -30.6601   24.0577 C   0  0  0  0  0  0
  -25.9021  -34.9471   23.5142 C   0  0  0  0  0  0
  -16.5340  -29.9116   23.6328 C   0  0  0  0  0  0
  -16.7264  -28.6530   23.0340 C   0  0  0  0  0  0
  -26.4467  -31.6568   25.0702 C   0  0  0  0  0  0
  -25.3729  -31.3669   26.1445 C   0  0  0  0  0  0
  -27.0267  -30.3025   24.6026 C   0  0  0  0  0  0
  -27.6075  -32.4228   25.7474 C   0  0  0  0  0  0
  -27.5608  -37.1744   24.8435 C   0  0  0  0  0  0
  -21.4131  -29.3040   22.3723 N   0  0  0  0  0  0
  -26.4252  -37.3818   23.9471 N   0  0  0  0  0  0
  -24.6684  -31.0788   22.0956 N   0  0  0  0  0  0
  -23.4163  -28.8203   23.3045 O   0  0  0  0  0  0
  -28.4194  -26.7266   20.0342 O   0  0  0  0  0  0
  -26.5591  -34.8943   22.4711 O   0  0  0  0  0  0
  -23.5354  -32.1394   23.7502 O   0  0  0  0  0  0
  -30.4618  -19.0488   22.2082 C   0  0  0  0  0  0
  -29.9206  -20.3367   21.9997 C   0  0  0  0  0  0
  -28.3324  -19.3882   20.4329 C   0  0  0  0  0  0
  -29.9683  -17.9098   21.5177 C   0  0  0  0  0  0
  -28.8653  -20.5246   21.0793 C   0  0  0  0  0  0
  -28.8688  -18.0970   20.6426 C   0  0  0  0  0  0
  -30.7157  -16.5942   21.6265 C   0  0  0  0  0  0
  -28.4576  -24.2646   20.3740 C   0  0  0  0  0  0
  -28.9212  -23.0540   21.2164 C   0  0  0  0  0  0
  -28.5819  -25.6733   20.9996 C   0  0  0  0  0  0
  -28.3233  -21.7871   20.7692 N   0  0  0  0  0  0
  -30.1220  -15.4638   21.1874 N   0  0  0  0  0  0
  -31.8495  -16.5994   22.1248 O   0  0  0  0  0  0
  -27.9987  -24.0953   19.2361 O   0  0  0  0  0  0
  -28.3214  -17.0535   19.9662 F   0  0  0  0  0  0
  -31.4515  -12.3940   19.0816 H   0  0  0  0  0  0
  -30.3065  -11.2984   19.7957 H   0  0  0  0  0  0
  -29.7127  -11.7800   17.4074 H   0  0  0  0  0  0
  -29.6454  -13.4896   17.7441 H   0  0  0  0  0  0
  -27.8078  -11.3144   18.7962 H   0  0  0  0  0  0
  -27.3487  -12.6532   17.7819 H   0  0  0  0  0  0
  -27.7015  -14.2564   19.5663 H   0  0  0  0  0  0
  -28.6865  -11.9692   21.3388 H   0  0  0  0  0  0
  -28.4800  -13.6164   21.8556 H   0  0  0  0  0  0
  -25.2768   -9.5706   22.4776 H   0  0  0  0  0  0
  -24.0016   -7.4660   22.7485 H   0  0  0  0  0  0
  -21.0870   -8.8768   19.8951 H   0  0  0  0  0  0
  -22.3720  -10.9677   19.6159 H   0  0  0  0  0  0
  -21.2002   -7.6159   23.9740 H   0  0  0  0  0  0
  -21.1469   -6.0527   25.9091 H   0  0  0  0  0  0
  -22.0598   -2.7618   23.2844 H   0  0  0  0  0  0
  -22.4069  -11.9912   22.4726 H   0  0  0  0  0  0
  -21.1103  -13.1278   22.2476 H   0  0  0  0  0  0
  -24.7123  -15.8680   20.5931 H   0  0  0  0  0  0
  -26.3114  -15.6207   20.1111 H   0  0  0  0  0  0
  -26.7128  -32.5547   23.1161 H   0  0  0  0  0  0
  -25.0079  -33.9763   25.0496 H   0  0  0  0  0  0
  -22.6951  -31.3067   21.4034 H   0  0  0  0  0  0
  -23.3781  -35.9591   23.3202 H   0  0  0  0  0  0
  -24.3617  -36.9000   22.2061 H   0  0  0  0  0  0
  -23.7166  -37.6468   23.6663 H   0  0  0  0  0  0
  -26.0249  -31.5927   20.5711 H   0  0  0  0  0  0
  -26.8239  -30.9098   21.9600 H   0  0  0  0  0  0
  -28.1102  -29.1293   21.1410 H   0  0  0  0  0  0
  -26.0829  -25.9530   19.0468 H   0  0  0  0  0  0
  -23.9840  -27.2665   19.0680 H   0  0  0  0  0  0
  -23.7164  -30.5790   19.3955 H   0  0  0  0  0  0
  -22.7375  -29.2302   19.8714 H   0  0  0  0  0  0
  -25.1238  -36.1950   25.0835 H   0  0  0  0  0  0
  -20.9947  -28.3238   24.1440 H   0  0  0  0  0  0
  -20.5712  -26.2277   23.3620 H   0  0  0  0  0  0
  -21.6631  -26.7480   22.1174 H   0  0  0  0  0  0
  -19.6892  -25.6325   21.1244 H   0  0  0  0  0  0
  -19.6684  -27.3239   20.6785 H   0  0  0  0  0  0
  -17.4192  -26.6719   21.4030 H   0  0  0  0  0  0
  -18.0293  -26.0123   22.9038 H   0  0  0  0  0  0
  -19.7939  -30.7275   24.2286 H   0  0  0  0  0  0
  -17.5028  -31.6289   24.5171 H   0  0  0  0  0  0
  -15.5348  -30.3029   23.7684 H   0  0  0  0  0  0
  -15.8656  -28.0876   22.7034 H   0  0  0  0  0  0
  -24.5959  -30.6936   25.7803 H   0  0  0  0  0  0
  -24.8843  -32.2815   26.4811 H   0  0  0  0  0  0
  -25.8098  -30.8923   27.0241 H   0  0  0  0  0  0
  -26.2773  -29.6818   24.1103 H   0  0  0  0  0  0
  -27.4106  -29.7221   25.4424 H   0  0  0  0  0  0
  -27.8576  -30.4395   23.9103 H   0  0  0  0  0  0
  -27.2745  -33.3556   26.2042 H   0  0  0  0  0  0
  -28.3907  -32.6708   25.0291 H   0  0  0  0  0  0
  -28.0697  -31.8313   26.5394 H   0  0  0  0  0  0
  -28.2454  -38.0203   24.7711 H   0  0  0  0  0  0
  -28.1253  -36.2752   24.5925 H   0  0  0  0  0  0
  -27.2363  -37.0991   25.8827 H   0  0  0  0  0  0
  -20.9295  -29.8743   21.6922 H   0  0  0  0  0  0
  -26.0137  -38.2858   24.1630 H   0  0  0  0  0  0
  -31.3023  -18.9439   22.8806 H   0  0  0  0  0  0
  -30.3501  -21.1718   22.5372 H   0  0  0  0  0  0
  -27.5088  -19.4956   19.7437 H   0  0  0  0  0  0
  -28.6590  -23.2378   22.2597 H   0  0  0  0  0  0
  -30.0088  -22.9947   21.1602 H   0  0  0  0  0  0
  -29.5738  -25.7629   21.4444 H   0  0  0  0  0  0
  -27.8618  -25.7750   21.8100 H   0  0  0  0  0  0
  -27.7245  -21.8719   19.9496 H   0  0  0  0  0  0
  -29.1182  -15.4696   21.1154 H   0  0  0  0  0  0
  1 25  1  0  0  0
  1 30  2  0  0  0
  1 82  1  0  0  0
  2  3  1  0  0  0
  2 25  1  0  0  0
  2 86  1  0  0  0
  2 87  1  0  0  0
  3  4  1  0  0  0
  3 88  1  0  0  0
  3 89  1  0  0  0
  4  5  1  0  0  0
  4 90  1  0  0  0
  4 91  1  0  0  0
  5  6  1  0  0  0
  5 26  1  0  0  0
  5 92  1  0  0  0
  6 25  1  0  0  0
  6 93  1  0  0  0
  6 94  1  0  0  0
  7  8  2  0  0  0
  7 26  1  0  0  0
  7 29  1  0  0  0
  8  9  1  0  0  0
  8 22  1  0  0  0
  9 10  1  0  0  0
  9 27  2  0  0  0
 10 11  2  0  0  0
 10 15  1  0  0  0
 11 12  1  0  0  0
 11 95  1  0  0  0
 12 13  2  0  0  0
 12 96  1  0  0  0
 13 14  1  0  0  0
 13 31  1  0  0  0
 14 15  2  0  0  0
 14 97  1  0  0  0
 15 98  1  0  0  0
 16 17  2  0  0  0
 16 21  1  0  0  0
 16 31  1  0  0  0
 17 18  1  0  0  0
 17 99  1  0  0  0
 18 19  2  0  0  0
 18100  1  0  0  0
 19 20  1  0  0  0
 19 24  1  0  0  0
 20 21  2  0  0  0
 20101  1  0  0  0
 21 23  1  0  0  0
 22 28  1  0  0  0
 22 32  2  0  0  0
 26 27  1  0  0  0
 28102  1  0  0  0
 28103  1  0  0  0
 29104  1  0  0  0
 29105  1  0  0  0
 33 34  1  0  0  0
 33 66  1  0  0  0
 33 70  2  0  0  0
 34 36  1  0  0  0
 34 59  1  0  0  0
 34106  1  0  0  0
 35 44  2  0  0  0
 35 45  1  0  0  0
 35 68  1  0  0  0
 36 56  1  0  0  0
 36107  1  0  0  0
 37 39  1  0  0  0
 37 47  1  0  0  0
 37 66  1  0  0  0
 37108  1  0  0  0
 38 43  2  0  0  0
 38 46  1  0  0  0
 38 47  1  0  0  0
 39 64  1  0  0  0
 39 67  2  0  0  0
 40 52  1  0  0  0
 40 53  2  0  0  0
 40 58  1  0  0  0
 41109  1  0  0  0
 41110  1  0  0  0
 41111  1  0  0  0
 41 48  1  0  0  0
 42 43  1  0  0  0
 42 66  1  0  0  0
 42112  1  0  0  0
 42113  1  0  0  0
 43 44  1  0  0  0
 44114  1  0  0  0
 45 46  2  0  0  0
 45115  1  0  0  0
 46116  1  0  0  0
 47117  1  0  0  0
 47118  1  0  0  0
 48 56  1  0  0  0
 48 65  1  0  0  0
 48119  1  0  0  0
 49 50  1  0  0  0
 49 53  1  0  0  0
 49 64  1  0  0  0
 49120  1  0  0  0
 50 51  1  0  0  0
 50121  1  0  0  0
 50122  1  0  0  0
 51 52  1  0  0  0
 51123  1  0  0  0
 51124  1  0  0  0
 52125  1  0  0  0
 52126  1  0  0  0
 53 54  1  0  0  0
 54 55  2  0  0  0
 54127  1  0  0  0
 55 57  1  0  0  0
 55128  1  0  0  0
 56 69  2  0  0  0
 57 58  2  0  0  0
 57129  1  0  0  0
 58130  1  0  0  0
 59 60  1  0  0  0
 59 61  1  0  0  0
 59 62  1  0  0  0
 60131  1  0  0  0
 60132  1  0  0  0
 60133  1  0  0  0
 61134  1  0  0  0
 61135  1  0  0  0
 61136  1  0  0  0
 62137  1  0  0  0
 62138  1  0  0  0
 62139  1  0  0  0
 63 65  1  0  0  0
 63140  1  0  0  0
 63141  1  0  0  0
 63142  1  0  0  0
 64143  1  0  0  0
 65144  1  0  0  0
 68 80  1  0  0  0
 71 72  2  0  0  0
 71 74  1  0  0  0
 71145  1  0  0  0
 72 75  1  0  0  0
 72146  1  0  0  0
 73 75  2  0  0  0
 73 76  1  0  0  0
 73147  1  0  0  0
 74 76  2  0  0  0
 74 77  1  0  0  0
 75 81  1  0  0  0
 76 85  1  0  0  0
 77 82  1  0  0  0
 77 83  2  0  0  0
 78 79  1  0  0  0
 78 80  1  0  0  0
 78 84  2  0  0  0
 79 81  1  0  0  0
 79148  1  0  0  0
 79149  1  0  0  0
 80150  1  0  0  0
 80151  1  0  0  0
 81152  1  0  0  0
 82153  1  0  0  0
M  ISO  4   1 100  68 101  80 101  82 100
M  END
> <chiral flag>
0

> <version>
0

> <s_m_source_file>
/data/baiqing/PycharmProjects/Reinvent-master-3.2/result/LINK_invent/BTK/process_docking_weight1_custom_product_contain_oxygen_bond_distance_aromatic_linkinvent_7_9_3/rearranged_h_0095.sdf

> <i_m_source_file_index>
33

> <r_mmod_Potential_Energy-OPLS-2005>
-38.5972290039062

> <r_mmod_Stretch_Energy-OPLS-2005>
38.5323753356934

> <r_mmod_Bend_Energy-OPLS-2005>
104.814590454102

> <r_mmod_Torsional_Energy-OPLS-2005>
253.066925048828

> <r_mmod_Improper_Torsional_Energy-OPLS-2005>
5.61951780319214

> <r_mmod_Van_der_Waal_Energy-OPLS-2005>
160.204635620117

> <r_mmod_Electrostatic_Energy-OPLS-2005>
-377.959106445312

> <r_mmod_Solvation_Energy-OPLS-2005>
-235.68571472168

> <b_mmod_Minimization_Converged-OPLS-2005>
0

> <r_mmod_RMS_Derivative-OPLS-2005>
3.41535592079163

$$$$
33
                    3D
 Structure written by MMmdl.
168177  0  0  1  0            999 V2000
  -30.6220  -14.7125   20.3767 C   0  0  0  0  0  0
  -30.4252  -12.3997   19.4808 C   0  0  0  0  0  0
  -29.5090  -12.3972   18.2410 C   0  0  0  0  0  0
  -28.0239  -12.3042   18.6479 C   0  0  0  0  0  0
  -27.6352  -13.2210   19.8430 C   0  0  2  0  0  0
  -28.6843  -13.1894   20.9708 C   0  0  0  0  0  0
  -25.2501  -13.8153   20.5695 C   0  0  0  0  0  0
  -24.1779  -13.0408   20.9184 C   0  0  0  0  0  0
  -24.6357  -11.6886   20.8749 C   0  0  0  0  0  0
  -23.9033  -10.4270   21.0404 C   0  0  0  0  0  0
  -24.3596   -9.4187   21.9176 C   0  0  0  0  0  0
  -23.6281   -8.2221   22.0753 C   0  0  0  0  0  0
  -22.4270   -8.0248   21.3536 C   0  0  0  0  0  0
  -21.9888   -9.0214   20.4643 C   0  0  0  0  0  0
  -22.7203  -10.2100   20.3055 C   0  0  0  0  0  0
  -21.6851   -6.0719   22.5270 C   0  0  0  0  0  0
  -21.4016   -6.5638   23.8199 C   0  0  0  0  0  0
  -21.3658   -5.6798   24.9167 C   0  0  0  0  0  0
  -21.6047   -4.3059   24.7220 C   0  0  0  0  0  0
  -21.8829   -3.8140   23.4348 C   0  0  0  0  0  0
  -21.9193   -4.6948   22.3399 C   0  0  0  0  0  0
  -22.7808  -13.5190   21.1835 C   0  0  0  0  0  0
  -22.1660   -4.2132   21.0978 F   0  0  0  0  0  0
  -21.5630   -3.4546   25.7735 F   0  0  0  0  0  0
  -29.9764  -13.5016   20.3551 N   0  0  0  0  0  0
  -26.2910  -12.9342   20.3298 N   0  0  0  0  0  0
  -25.9291  -11.6498   20.5804 N   0  0  0  0  0  0
  -22.0509  -12.8185   22.0435 N   0  0  0  0  0  0
  -25.4230  -15.1873   20.4134 N   0  0  0  0  0  0
  -31.8565  -14.7293   20.3034 O   0  0  0  0  0  0
  -21.6647   -6.8840   21.4224 O   0  0  0  0  0  0
  -22.3467  -14.5473   20.6658 O   0  0  0  0  0  0
  -24.6280  -31.8589   23.2016 C   0  0  0  0  0  0
  -25.9131  -32.4771   23.8344 C   0  0  1  0  0  0
  -27.2190  -27.3081   20.1142 C   0  0  0  0  0  0
  -25.5939  -33.8566   24.2291 N   0  0  0  0  0  0
  -23.4207  -30.4816   21.5458 C   0  0  2  0  0  0
  -24.8630  -28.9331   20.1102 C   0  0  0  0  0  0
  -22.7483  -29.4622   22.4954 C   0  0  0  0  0  0
  -18.0288  -28.1405   22.8497 C   0  0  0  0  0  0
  -24.1471  -36.7271   23.2639 C   0  0  0  0  0  0
  -25.9620  -30.7856   21.3719 C   0  0  0  0  0  0
  -26.0313  -29.4121   20.7136 C   0  0  0  0  0  0
  -27.2099  -28.6110   20.7026 C   0  0  0  0  0  0
  -26.0197  -26.8721   19.5045 C   0  0  0  0  0  0
  -24.8589  -27.6700   19.4983 C   0  0  0  0  0  0
  -23.6337  -29.8176   20.1601 C   0  0  0  0  0  0
  -25.4098  -36.3082   24.0340 C   0  0  1  0  0  0
  -20.5886  -28.3702   23.1292 C   0  0  2  0  0  0
  -20.6773  -26.9423   22.5419 C   0  0  0  0  0  0
  -19.5744  -26.6399   21.5227 C   0  0  0  0  0  0
  -18.1923  -26.7949   22.1633 C   0  0  0  0  0  0
  -19.1539  -28.8872   23.2889 C   0  0  0  0  0  0
  -18.9463  -30.1471   23.8916 C   0  0  0  0  0  0
  -17.6461  -30.6601   24.0573 C   0  0  0  0  0  0
  -25.9048  -34.9450   23.5115 C   0  0  0  0  0  0
  -16.5353  -29.9104   23.6337 C   0  0  0  0  0  0
  -16.7276  -28.6518   23.0365 C   0  0  0  0  0  0
  -26.4514  -31.6576   25.0711 C   0  0  0  0  0  0
  -25.3744  -31.3729   26.1440 C   0  0  0  0  0  0
  -27.0348  -30.2998   24.6152 C   0  0  0  0  0  0
  -27.6072  -32.4316   25.7481 C   0  0  0  0  0  0
  -27.5575  -37.1792   24.8476 C   0  0  0  0  0  0
  -21.4200  -29.3036   22.3676 N   0  0  0  0  0  0
  -26.4280  -37.3776   23.9423 N   0  0  0  0  0  0
  -24.6893  -31.0585   22.0977 N   0  0  0  0  0  0
  -23.4203  -28.8171   23.3047 O   0  0  0  0  0  0
  -28.3654  -26.5020   20.1786 O   0  0  0  0  0  0
  -26.5607  -34.8918   22.4680 O   0  0  0  0  0  0
  -23.5445  -32.1407   23.7339 O   0  0  0  0  0  0
  -28.3254  -19.2394   20.0613 C   0  0  0  0  0  0
  -28.5063  -17.8397   19.8689 C   0  0  0  0  0  0
  -30.2900  -19.2642   21.4261 C   0  0  0  0  0  0
  -29.2360  -20.0181   20.8170 C   0  0  0  0  0  0
  -29.6275  -17.1116   20.3671 C   0  0  0  0  0  0
  -30.4935  -17.8519   21.2263 C   0  0  0  0  0  0
  -29.5801  -22.2649   21.9456 C   0  0  0  0  0  0
  -29.3836  -23.7667   21.6955 C   0  0  0  0  0  0
  -28.4365  -22.4039   19.9658 C   0  0  0  0  0  0
  -28.3220  -23.8544   20.5961 C   0  0  2  0  0  0
  -29.5822  -15.7121   15.9095 C   0  0  0  0  0  0
  -32.2497  -17.7949   22.8734 C   0  0  0  0  0  0
  -28.4384  -25.1251   19.6345 C   0  0  0  0  0  0
  -29.0816  -15.8822   17.3509 C   0  0  0  0  0  0
  -30.2631  -15.9134   18.3480 C   0  0  0  0  0  0
  -29.0973  -21.4907   20.9457 N   0  0  0  0  0  0
  -29.9286  -15.7752   19.7969 N   0  0  0  0  0  0
  -30.1104  -21.8659   22.9864 O   0  0  0  0  0  0
  -31.5510  -17.1761   21.7989 O   0  0  0  0  0  0
  -31.4668  -12.5100   19.1761 H   0  0  0  0  0  0
  -30.3628  -11.4457   20.0075 H   0  0  0  0  0  0
  -29.7638  -11.5561   17.5940 H   0  0  0  0  0  0
  -29.6879  -13.2814   17.6389 H   0  0  0  0  0  0
  -27.8407  -11.2634   18.9166 H   0  0  0  0  0  0
  -27.3832  -12.5073   17.7893 H   0  0  0  0  0  0
  -27.6148  -14.2378   19.4592 H   0  0  0  0  0  0
  -28.7146  -12.2163   21.4633 H   0  0  0  0  0  0
  -28.4370  -13.9249   21.7383 H   0  0  0  0  0  0
  -25.2742   -9.5675   22.4738 H   0  0  0  0  0  0
  -24.0009   -7.4612   22.7455 H   0  0  0  0  0  0
  -21.0838   -8.8696   19.8934 H   0  0  0  0  0  0
  -22.3640  -10.9630   19.6165 H   0  0  0  0  0  0
  -21.2026   -7.6149   23.9684 H   0  0  0  0  0  0
  -21.1469   -6.0545   25.9062 H   0  0  0  0  0  0
  -22.0620   -2.7602   23.2856 H   0  0  0  0  0  0
  -22.4192  -11.9885   22.4843 H   0  0  0  0  0  0
  -21.1108  -13.1152   22.2620 H   0  0  0  0  0  0
  -24.6645  -15.8471   20.5462 H   0  0  0  0  0  0
  -26.2933  -15.6274   20.1449 H   0  0  0  0  0  0
  -26.7191  -32.5439   23.1080 H   0  0  0  0  0  0
  -25.0088  -33.9691   25.0436 H   0  0  0  0  0  0
  -22.7142  -31.3020   21.4050 H   0  0  0  0  0  0
  -23.3752  -35.9587   23.3317 H   0  0  0  0  0  0
  -24.3546  -36.8861   22.2047 H   0  0  0  0  0  0
  -23.7192  -37.6462   23.6644 H   0  0  0  0  0  0
  -26.0888  -31.5481   20.6021 H   0  0  0  0  0  0
  -26.8443  -30.8352   21.9981 H   0  0  0  0  0  0
  -28.1122  -28.9745   21.1736 H   0  0  0  0  0  0
  -25.9351  -25.8996   19.0463 H   0  0  0  0  0  0
  -23.9580  -27.2947   19.0327 H   0  0  0  0  0  0
  -23.7560  -30.5970   19.4077 H   0  0  0  0  0  0
  -22.7511  -29.2523   19.8568 H   0  0  0  0  0  0
  -25.1264  -36.1937   25.0831 H   0  0  0  0  0  0
  -20.9969  -28.3292   24.1416 H   0  0  0  0  0  0
  -20.5689  -26.2309   23.3618 H   0  0  0  0  0  0
  -21.6636  -26.7460   22.1193 H   0  0  0  0  0  0
  -19.6887  -25.6316   21.1237 H   0  0  0  0  0  0
  -19.6674  -27.3230   20.6776 H   0  0  0  0  0  0
  -17.4184  -26.6724   21.4041 H   0  0  0  0  0  0
  -18.0313  -26.0096   22.9031 H   0  0  0  0  0  0
  -19.7934  -30.7290   24.2295 H   0  0  0  0  0  0
  -17.5010  -31.6278   24.5180 H   0  0  0  0  0  0
  -15.5351  -30.3005   23.7653 H   0  0  0  0  0  0
  -15.8678  -28.0831   22.7086 H   0  0  0  0  0  0
  -24.5921  -30.7073   25.7787 H   0  0  0  0  0  0
  -24.8939  -32.2899   26.4859 H   0  0  0  0  0  0
  -25.8063  -30.8918   27.0220 H   0  0  0  0  0  0
  -26.2919  -29.6753   24.1185 H   0  0  0  0  0  0
  -27.4061  -29.7246   25.4641 H   0  0  0  0  0  0
  -27.8777  -30.4285   23.9360 H   0  0  0  0  0  0
  -27.2689  -33.3626   26.2043 H   0  0  0  0  0  0
  -28.3893  -32.6861   25.0315 H   0  0  0  0  0  0
  -28.0735  -31.8450   26.5404 H   0  0  0  0  0  0
  -28.2610  -38.0079   24.7516 H   0  0  0  0  0  0
  -28.1050  -36.2606   24.6307 H   0  0  0  0  0  0
  -27.2289  -37.1440   25.8879 H   0  0  0  0  0  0
  -20.9404  -29.8715   21.6831 H   0  0  0  0  0  0
  -26.0170  -38.2843   24.1454 H   0  0  0  0  0  0
  -27.4730  -19.7133   19.5967 H   0  0  0  0  0  0
  -27.7709  -17.3309   19.2666 H   0  0  0  0  0  0
  -31.0039  -19.8095   22.0207 H   0  0  0  0  0  0
  -30.3327  -24.1909   21.3660 H   0  0  0  0  0  0
  -29.0775  -24.2876   22.6021 H   0  0  0  0  0  0
  -29.0461  -22.4284   19.0609 H   0  0  0  0  0  0
  -27.4528  -22.0281   19.6822 H   0  0  0  0  0  0
  -27.3491  -23.9147   21.0853 H   0  0  0  0  0  0
  -28.7537  -15.6525   15.2040 H   0  0  0  0  0  0
  -30.1758  -14.8034   15.7961 H   0  0  0  0  0  0
  -30.2069  -16.5536   15.6105 H   0  0  0  0  0  0
  -32.9417  -17.0785   23.3150 H   0  0  0  0  0  0
  -31.5690  -18.1155   23.6646 H   0  0  0  0  0  0
  -32.8370  -18.6494   22.5365 H   0  0  0  0  0  0
  -27.7699  -24.9963   18.7863 H   0  0  0  0  0  0
  -29.4242  -25.0685   19.1723 H   0  0  0  0  0  0
  -28.3833  -15.0816   17.5833 H   0  0  0  0  0  0
  -28.5107  -16.8073   17.3827 H   0  0  0  0  0  0
  -30.8060  -16.8487   18.2030 H   0  0  0  0  0  0
  -30.9749  -15.1518   18.0186 H   0  0  0  0  0  0
  1 25  1  0  0  0
  1 30  2  0  0  0
  1 87  1  0  0  0
  2  3  1  0  0  0
  2 25  1  0  0  0
  2 90  1  0  0  0
  2 91  1  0  0  0
  3  4  1  0  0  0
  3 92  1  0  0  0
  3 93  1  0  0  0
  4  5  1  0  0  0
  4 94  1  0  0  0
  4 95  1  0  0  0
  5  6  1  0  0  0
  5 26  1  0  0  0
  5 96  1  0  0  0
  6 25  1  0  0  0
  6 97  1  0  0  0
  6 98  1  0  0  0
  7  8  2  0  0  0
  7 26  1  0  0  0
  7 29  1  0  0  0
  8  9  1  0  0  0
  8 22  1  0  0  0
  9 10  1  0  0  0
  9 27  2  0  0  0
 10 11  2  0  0  0
 10 15  1  0  0  0
 11 12  1  0  0  0
 11 99  1  0  0  0
 12 13  2  0  0  0
 12100  1  0  0  0
 13 14  1  0  0  0
 13 31  1  0  0  0
 14 15  2  0  0  0
 14101  1  0  0  0
 15102  1  0  0  0
 16 17  2  0  0  0
 16 21  1  0  0  0
 16 31  1  0  0  0
 17 18  1  0  0  0
 17103  1  0  0  0
 18 19  2  0  0  0
 18104  1  0  0  0
 19 20  1  0  0  0
 19 24  1  0  0  0
 20 21  2  0  0  0
 20105  1  0  0  0
 21 23  1  0  0  0
 22 28  1  0  0  0
 22 32  2  0  0  0
 26 27  1  0  0  0
 28106  1  0  0  0
 28107  1  0  0  0
 29108  1  0  0  0
 29109  1  0  0  0
 33 34  1  0  0  0
 33 66  1  0  0  0
 33 70  2  0  0  0
 34 36  1  0  0  0
 34 59  1  0  0  0
 34110  1  0  0  0
 35 44  2  0  0  0
 35 45  1  0  0  0
 35 68  1  0  0  0
 36 56  1  0  0  0
 36111  1  0  0  0
 37 39  1  0  0  0
 37 47  1  0  0  0
 37 66  1  0  0  0
 37112  1  0  0  0
 38 43  2  0  0  0
 38 46  1  0  0  0
 38 47  1  0  0  0
 39 64  1  0  0  0
 39 67  2  0  0  0
 40 52  1  0  0  0
 40 53  2  0  0  0
 40 58  1  0  0  0
 41113  1  0  0  0
 41114  1  0  0  0
 41115  1  0  0  0
 41 48  1  0  0  0
 42 43  1  0  0  0
 42 66  1  0  0  0
 42116  1  0  0  0
 42117  1  0  0  0
 43 44  1  0  0  0
 44118  1  0  0  0
 45 46  2  0  0  0
 45119  1  0  0  0
 46120  1  0  0  0
 47121  1  0  0  0
 47122  1  0  0  0
 48 56  1  0  0  0
 48 65  1  0  0  0
 48123  1  0  0  0
 49 50  1  0  0  0
 49 53  1  0  0  0
 49 64  1  0  0  0
 49124  1  0  0  0
 50 51  1  0  0  0
 50125  1  0  0  0
 50126  1  0  0  0
 51 52  1  0  0  0
 51127  1  0  0  0
 51128  1  0  0  0
 52129  1  0  0  0
 52130  1  0  0  0
 53 54  1  0  0  0
 54 55  2  0  0  0
 54131  1  0  0  0
 55 57  1  0  0  0
 55132  1  0  0  0
 56 69  2  0  0  0
 57 58  2  0  0  0
 57133  1  0  0  0
 58134  1  0  0  0
 59 60  1  0  0  0
 59 61  1  0  0  0
 59 62  1  0  0  0
 60135  1  0  0  0
 60136  1  0  0  0
 60137  1  0  0  0
 61138  1  0  0  0
 61139  1  0  0  0
 61140  1  0  0  0
 62141  1  0  0  0
 62142  1  0  0  0
 62143  1  0  0  0
 63 65  1  0  0  0
 63144  1  0  0  0
 63145  1  0  0  0
 63146  1  0  0  0
 64147  1  0  0  0
 65148  1  0  0  0
 68 83  1  0  0  0
 71 72  2  0  0  0
 71 74  1  0  0  0
 71149  1  0  0  0
 72 75  1  0  0  0
 72150  1  0  0  0
 73 74  2  0  0  0
 73 76  1  0  0  0
 73151  1  0  0  0
 74 86  1  0  0  0
 75 76  2  0  0  0
 75 87  1  0  0  0
 76 89  1  0  0  0
 77 78  1  0  0  0
 77 86  1  0  0  0
 77 88  2  0  0  0
 78 80  1  0  0  0
 78152  1  0  0  0
 78153  1  0  0  0
 79 80  1  0  0  0
 79 86  1  0  0  0
 79154  1  0  0  0
 79155  1  0  0  0
 80 83  1  0  0  0
 80156  1  0  0  0
 81 84  1  0  0  0
 81157  1  0  0  0
 81158  1  0  0  0
 81159  1  0  0  0
 82 89  1  0  0  0
 82160  1  0  0  0
 82161  1  0  0  0
 82162  1  0  0  0
 83163  1  0  0  0
 83164  1  0  0  0
 84 85  1  0  0  0
 84165  1  0  0  0
 84166  1  0  0  0
 85 87  1  0  0  0
 85167  1  0  0  0
 85168  1  0  0  0
M  ISO  4   1 100  68 101  83 101  87 100
M  END
> <chiral flag>
0

> <version>
0

> <s_m_source_file>
/data/baiqing/PycharmProjects/Reinvent-master-3.2/result/LINK_invent/BTK/process_docking_weight1_custom_product_contain_oxygen_bond_distance_aromatic_linkinvent_7_9_3/rearranged_h_0095.sdf

> <i_m_source_file_index>
34

> <r_mmod_Potential_Energy-OPLS-2005>
408.945495605469

> <r_mmod_Stretch_Energy-OPLS-2005>
97.3171768188477

> <r_mmod_Bend_Energy-OPLS-2005>
203.710189819336

> <r_mmod_Torsional_Energy-OPLS-2005>
371.063446044922

> <r_mmod_Improper_Torsional_Energy-OPLS-2005>
30.7578506469727

> <r_mmod_Van_der_Waal_Energy-OPLS-2005>
151.682769775391

> <r_mmod_Electrostatic_Energy-OPLS-2005>
-309.973327636719

> <r_mmod_Solvation_Energy-OPLS-2005>
-213.137969970703

> <b_mmod_Minimization_Converged-OPLS-2005>
0

> <r_mmod_RMS_Derivative-OPLS-2005>
2.44774603843689

$$$$
34
                    3D
 Structure written by MMmdl.
166175  0  0  1  0            999 V2000
  -30.7175  -14.4936   20.4652 C   0  0  0  0  0  0
  -30.4175  -12.2906   19.4486 C   0  0  0  0  0  0
  -29.5046  -12.4628   18.2169 C   0  0  0  0  0  0
  -28.0185  -12.3584   18.6168 C   0  0  0  0  0  0
  -27.6570  -13.2171   19.8602 C   0  0  2  0  0  0
  -28.7027  -13.0618   20.9899 C   0  0  0  0  0  0
  -25.2563  -13.8189   20.5667 C   0  0  0  0  0  0
  -24.1831  -13.0445   20.9169 C   0  0  0  0  0  0
  -24.6410  -11.6922   20.8722 C   0  0  0  0  0  0
  -23.9070  -10.4294   21.0393 C   0  0  0  0  0  0
  -24.3621   -9.4203   21.9169 C   0  0  0  0  0  0
  -23.6297   -8.2242   22.0737 C   0  0  0  0  0  0
  -22.4270   -8.0282   21.3532 C   0  0  0  0  0  0
  -21.9907   -9.0267   20.4644 C   0  0  0  0  0  0
  -22.7240  -10.2143   20.3045 C   0  0  0  0  0  0
  -21.6859   -6.0724   22.5270 C   0  0  0  0  0  0
  -21.4019   -6.5627   23.8203 C   0  0  0  0  0  0
  -21.3655   -5.6779   24.9171 C   0  0  0  0  0  0
  -21.6052   -4.3047   24.7223 C   0  0  0  0  0  0
  -21.8824   -3.8133   23.4347 C   0  0  0  0  0  0
  -21.9194   -4.6948   22.3400 C   0  0  0  0  0  0
  -22.7847  -13.5222   21.1849 C   0  0  0  0  0  0
  -22.1661   -4.2127   21.0977 F   0  0  0  0  0  0
  -21.5635   -3.4534   25.7737 F   0  0  0  0  0  0
  -30.0320  -13.3217   20.4228 N   0  0  0  0  0  0
  -26.3017  -12.9381   20.3311 N   0  0  0  0  0  0
  -25.9338  -11.6533   20.5752 N   0  0  0  0  0  0
  -22.0486  -12.8210   22.0416 N   0  0  0  0  0  0
  -25.4281  -15.1921   20.4050 N   0  0  0  0  0  0
  -31.9141  -14.5660   20.1818 O   0  0  0  0  0  0
  -21.6641   -6.8871   21.4235 O   0  0  0  0  0  0
  -22.3506  -14.5500   20.6674 O   0  0  0  0  0  0
  -24.6148  -31.8668   23.2094 C   0  0  0  0  0  0
  -25.9043  -32.4812   23.8386 C   0  0  1  0  0  0
  -27.2320  -27.4408   20.1022 C   0  0  0  0  0  0
  -25.5902  -33.8608   24.2326 N   0  0  0  0  0  0
  -23.4046  -30.4908   21.5470 C   0  0  2  0  0  0
  -24.8538  -28.9632   20.1065 C   0  0  0  0  0  0
  -22.7429  -29.4644   22.4950 C   0  0  0  0  0  0
  -18.0279  -28.1377   22.8477 C   0  0  0  0  0  0
  -24.1478  -36.7303   23.2628 C   0  0  0  0  0  0
  -25.9322  -30.8392   21.3594 C   0  0  0  0  0  0
  -26.0128  -29.4742   20.7072 C   0  0  0  0  0  0
  -27.2081  -28.7187   20.7060 C   0  0  0  0  0  0
  -26.0659  -26.9496   19.4807 C   0  0  0  0  0  0
  -24.8753  -27.7004   19.4879 C   0  0  0  0  0  0
  -23.6154  -29.8279   20.1592 C   0  0  0  0  0  0
  -25.4086  -36.3102   24.0347 C   0  0  1  0  0  0
  -20.5869  -28.3656   23.1317 C   0  0  2  0  0  0
  -20.6758  -26.9382   22.5442 C   0  0  0  0  0  0
  -19.5756  -26.6392   21.5207 C   0  0  0  0  0  0
  -18.1918  -26.7933   22.1591 C   0  0  0  0  0  0
  -19.1529  -28.8832   23.2897 C   0  0  0  0  0  0
  -18.9456  -30.1438   23.8908 C   0  0  0  0  0  0
  -17.6459  -30.6578   24.0570 C   0  0  0  0  0  0
  -25.9033  -34.9467   23.5134 C   0  0  0  0  0  0
  -16.5349  -29.9085   23.6329 C   0  0  0  0  0  0
  -16.7264  -28.6508   23.0329 C   0  0  0  0  0  0
  -26.4467  -31.6579   25.0708 C   0  0  0  0  0  0
  -25.3763  -31.3710   26.1499 C   0  0  0  0  0  0
  -27.0239  -30.3008   24.6050 C   0  0  0  0  0  0
  -27.6076  -32.4264   25.7458 C   0  0  0  0  0  0
  -27.5603  -37.1759   24.8422 C   0  0  0  0  0  0
  -21.4156  -29.3020   22.3714 N   0  0  0  0  0  0
  -26.4249  -37.3810   23.9466 N   0  0  0  0  0  0
  -24.6686  -31.0797   22.0981 N   0  0  0  0  0  0
  -23.4201  -28.8173   23.2977 O   0  0  0  0  0  0
  -28.3392  -26.6256   20.1712 O   0  0  0  0  0  0
  -26.5592  -34.8928   22.4695 O   0  0  0  0  0  0
  -23.5348  -32.1402   23.7508 O   0  0  0  0  0  0
  -29.1502  -18.6423   20.9196 C   0  0  0  0  0  0
  -29.0501  -20.0140   21.2673 C   0  0  0  0  0  0
  -30.5011  -24.4845   21.6097 C   0  0  0  0  0  0
  -31.1803  -20.4448   20.1928 C   0  0  0  0  0  0
  -30.2582  -18.1687   20.1790 C   0  0  0  0  0  0
  -29.1294  -24.4859   21.2245 C   0  0  0  0  0  0
  -30.0517  -20.9395   20.8773 C   0  0  0  0  0  0
  -31.2905  -19.0848   19.8541 C   0  0  0  0  0  0
  -30.9539  -23.1967   21.5612 C   0  0  0  0  0  0
  -28.8321  -23.1739   20.9235 C   0  0  0  0  0  0
  -28.8490  -17.6191   15.9737 C   0  0  0  0  0  0
  -28.2031  -25.6926   21.2562 C   0  0  0  0  0  0
  -29.7440  -17.7285   17.2137 C   0  0  0  0  0  0
  -29.3940  -16.6916   18.3011 C   0  0  0  0  0  0
  -30.2869  -16.7574   19.5656 C   0  0  2  0  0  0
  -29.9425  -22.3491   21.1190 N   0  0  0  0  0  0
  -29.9587  -15.6116   20.4501 N   0  0  0  0  0  0
  -32.1896  -22.7272   21.8924 O   0  0  0  0  0  0
  -27.6488  -22.6450   20.4965 O   0  0  0  0  0  0
  -32.3771  -18.6807   19.1510 F   0  0  0  0  0  0
  -31.4662  -12.3573   19.1544 H   0  0  0  0  0  0
  -30.2946  -11.2991   19.8866 H   0  0  0  0  0  0
  -29.7387  -11.7060   17.4667 H   0  0  0  0  0  0
  -29.7014  -13.4258   17.7416 H   0  0  0  0  0  0
  -27.8114  -11.3069   18.8199 H   0  0  0  0  0  0
  -27.3811  -12.6343   17.7758 H   0  0  0  0  0  0
  -27.6785  -14.2538   19.5252 H   0  0  0  0  0  0
  -28.6691  -12.0536   21.4054 H   0  0  0  0  0  0
  -28.4906  -13.7384   21.8183 H   0  0  0  0  0  0
  -25.2789   -9.5689   22.4719 H   0  0  0  0  0  0
  -24.0019   -7.4627   22.7446 H   0  0  0  0  0  0
  -21.0832   -8.8798   19.8954 H   0  0  0  0  0  0
  -22.3705  -10.9677   19.6139 H   0  0  0  0  0  0
  -21.2010   -7.6128   23.9698 H   0  0  0  0  0  0
  -21.1473   -6.0508   25.9066 H   0  0  0  0  0  0
  -22.0602   -2.7596   23.2855 H   0  0  0  0  0  0
  -22.4091  -11.9868   22.4831 H   0  0  0  0  0  0
  -21.1107  -13.1248   22.2598 H   0  0  0  0  0  0
  -24.6633  -15.8509   20.5072 H   0  0  0  0  0  0
  -26.2790  -15.6298   20.0787 H   0  0  0  0  0  0
  -26.7113  -32.5538   23.1148 H   0  0  0  0  0  0
  -25.0089  -33.9754   25.0500 H   0  0  0  0  0  0
  -22.6923  -31.3066   21.4089 H   0  0  0  0  0  0
  -23.3770  -35.9596   23.3190 H   0  0  0  0  0  0
  -24.3623  -36.9016   22.2068 H   0  0  0  0  0  0
  -23.7160  -37.6453   23.6694 H   0  0  0  0  0  0
  -26.0400  -31.6057   20.5902 H   0  0  0  0  0  0
  -26.8232  -30.8974   21.9732 H   0  0  0  0  0  0
  -28.0979  -29.0989   21.1868 H   0  0  0  0  0  0
  -26.0743  -25.9727   19.0164 H   0  0  0  0  0  0
  -23.9855  -27.3021   19.0203 H   0  0  0  0  0  0
  -23.7233  -30.6051   19.4006 H   0  0  0  0  0  0
  -22.7418  -29.2460   19.8606 H   0  0  0  0  0  0
  -25.1228  -36.1944   25.0830 H   0  0  0  0  0  0
  -20.9969  -28.3230   24.1431 H   0  0  0  0  0  0
  -20.5621  -26.2256   23.3625 H   0  0  0  0  0  0
  -21.6636  -26.7407   22.1262 H   0  0  0  0  0  0
  -19.6914  -25.6303   21.1233 H   0  0  0  0  0  0
  -19.6730  -27.3212   20.6740 H   0  0  0  0  0  0
  -17.4211  -26.6708   21.3958 H   0  0  0  0  0  0
  -18.0294  -26.0061   22.8977 H   0  0  0  0  0  0
  -19.7937  -30.7254   24.2278 H   0  0  0  0  0  0
  -17.5016  -31.6247   24.5191 H   0  0  0  0  0  0
  -15.5345  -30.2989   23.7646 H   0  0  0  0  0  0
  -15.8664  -28.0846   22.7016 H   0  0  0  0  0  0
  -24.5954  -30.6997   25.7907 H   0  0  0  0  0  0
  -24.8928  -32.2872   26.4895 H   0  0  0  0  0  0
  -25.8174  -30.8973   27.0279 H   0  0  0  0  0  0
  -26.2734  -29.6828   24.1115 H   0  0  0  0  0  0
  -27.4007  -29.7184   25.4462 H   0  0  0  0  0  0
  -27.8579  -30.4295   23.9154 H   0  0  0  0  0  0
  -27.2721  -33.3560   26.2056 H   0  0  0  0  0  0
  -28.3871  -32.6816   25.0271 H   0  0  0  0  0  0
  -28.0746  -31.8365   26.5352 H   0  0  0  0  0  0
  -28.2493  -38.0181   24.7667 H   0  0  0  0  0  0
  -28.1214  -36.2734   24.5946 H   0  0  0  0  0  0
  -27.2389  -37.1075   25.8830 H   0  0  0  0  0  0
  -20.9308  -29.8744   21.6952 H   0  0  0  0  0  0
  -26.0129  -38.2849   24.1621 H   0  0  0  0  0  0
  -28.3408  -17.9708   21.1674 H   0  0  0  0  0  0
  -28.1760  -20.3620   21.7983 H   0  0  0  0  0  0
  -31.0768  -25.3434   21.9256 H   0  0  0  0  0  0
  -31.9632  -21.1211   19.8844 H   0  0  0  0  0  0
  -29.1316  -18.3611   15.2260 H   0  0  0  0  0  0
  -27.8026  -17.7942   16.2243 H   0  0  0  0  0  0
  -28.9240  -16.6334   15.5116 H   0  0  0  0  0  0
  -28.4000  -26.2300   22.1854 H   0  0  0  0  0  0
  -27.1806  -25.3182   21.3398 H   0  0  0  0  0  0
  -29.6484  -18.7390   17.6111 H   0  0  0  0  0  0
  -30.7888  -17.6118   16.9187 H   0  0  0  0  0  0
  -29.4733  -15.6985   17.8571 H   0  0  0  0  0  0
  -28.3484  -16.8141   18.5848 H   0  0  0  0  0  0
  -31.3061  -16.6294   19.1990 H   0  0  0  0  0  0
  -28.9922  -15.4935   20.7044 H   0  0  0  0  0  0
  -32.7042  -23.4621   22.2118 H   0  0  0  0  0  0
  -26.9987  -23.3389   20.4778 H   0  0  0  0  0  0
  1 25  1  0  0  0
  1 30  2  0  0  0
  1 87  1  0  0  0
  2  3  1  0  0  0
  2 25  1  0  0  0
  2 91  1  0  0  0
  2 92  1  0  0  0
  3  4  1  0  0  0
  3 93  1  0  0  0
  3 94  1  0  0  0
  4  5  1  0  0  0
  4 95  1  0  0  0
  4 96  1  0  0  0
  5  6  1  0  0  0
  5 26  1  0  0  0
  5 97  1  0  0  0
  6 25  1  0  0  0
  6 98  1  0  0  0
  6 99  1  0  0  0
  7  8  2  0  0  0
  7 26  1  0  0  0
  7 29  1  0  0  0
  8  9  1  0  0  0
  8 22  1  0  0  0
  9 10  1  0  0  0
  9 27  2  0  0  0
 10 11  2  0  0  0
 10 15  1  0  0  0
 11 12  1  0  0  0
 11100  1  0  0  0
 12 13  2  0  0  0
 12101  1  0  0  0
 13 14  1  0  0  0
 13 31  1  0  0  0
 14 15  2  0  0  0
 14102  1  0  0  0
 15103  1  0  0  0
 16 17  2  0  0  0
 16 21  1  0  0  0
 16 31  1  0  0  0
 17 18  1  0  0  0
 17104  1  0  0  0
 18 19  2  0  0  0
 18105  1  0  0  0
 19 20  1  0  0  0
 19 24  1  0  0  0
 20 21  2  0  0  0
 20106  1  0  0  0
 21 23  1  0  0  0
 22 28  1  0  0  0
 22 32  2  0  0  0
 26 27  1  0  0  0
 28107  1  0  0  0
 28108  1  0  0  0
 29109  1  0  0  0
 29110  1  0  0  0
 33 34  1  0  0  0
 33 66  1  0  0  0
 33 70  2  0  0  0
 34 36  1  0  0  0
 34 59  1  0  0  0
 34111  1  0  0  0
 35 44  2  0  0  0
 35 45  1  0  0  0
 35 68  1  0  0  0
 36 56  1  0  0  0
 36112  1  0  0  0
 37 39  1  0  0  0
 37 47  1  0  0  0
 37 66  1  0  0  0
 37113  1  0  0  0
 38 43  2  0  0  0
 38 46  1  0  0  0
 38 47  1  0  0  0
 39 64  1  0  0  0
 39 67  2  0  0  0
 40 52  1  0  0  0
 40 53  2  0  0  0
 40 58  1  0  0  0
 41114  1  0  0  0
 41115  1  0  0  0
 41116  1  0  0  0
 41 48  1  0  0  0
 42 43  1  0  0  0
 42 66  1  0  0  0
 42117  1  0  0  0
 42118  1  0  0  0
 43 44  1  0  0  0
 44119  1  0  0  0
 45 46  2  0  0  0
 45120  1  0  0  0
 46121  1  0  0  0
 47122  1  0  0  0
 47123  1  0  0  0
 48 56  1  0  0  0
 48 65  1  0  0  0
 48124  1  0  0  0
 49 50  1  0  0  0
 49 53  1  0  0  0
 49 64  1  0  0  0
 49125  1  0  0  0
 50 51  1  0  0  0
 50126  1  0  0  0
 50127  1  0  0  0
 51 52  1  0  0  0
 51128  1  0  0  0
 51129  1  0  0  0
 52130  1  0  0  0
 52131  1  0  0  0
 53 54  1  0  0  0
 54 55  2  0  0  0
 54132  1  0  0  0
 55 57  1  0  0  0
 55133  1  0  0  0
 56 69  2  0  0  0
 57 58  2  0  0  0
 57134  1  0  0  0
 58135  1  0  0  0
 59 60  1  0  0  0
 59 61  1  0  0  0
 59 62  1  0  0  0
 60136  1  0  0  0
 60137  1  0  0  0
 60138  1  0  0  0
 61139  1  0  0  0
 61140  1  0  0  0
 61141  1  0  0  0
 62142  1  0  0  0
 62143  1  0  0  0
 62144  1  0  0  0
 63 65  1  0  0  0
 63145  1  0  0  0
 63146  1  0  0  0
 63147  1  0  0  0
 64148  1  0  0  0
 65149  1  0  0  0
 68 82  1  0  0  0
 71 72  2  0  0  0
 71 75  1  0  0  0
 71150  1  0  0  0
 72 77  1  0  0  0
 72151  1  0  0  0
 73 76  1  0  0  0
 73 79  2  0  0  0
 73152  1  0  0  0
 74 77  2  0  0  0
 74 78  1  0  0  0
 74153  1  0  0  0
 75 78  2  0  0  0
 75 85  1  0  0  0
 76 80  2  0  0  0
 76 82  1  0  0  0
 77 86  1  0  0  0
 78 90  1  0  0  0
 79 86  1  0  0  0
 79 88  1  0  0  0
 80 86  1  0  0  0
 80 89  1  0  0  0
 81 83  1  0  0  0
 81154  1  0  0  0
 81155  1  0  0  0
 81156  1  0  0  0
 82157  1  0  0  0
 82158  1  0  0  0
 83 84  1  0  0  0
 83159  1  0  0  0
 83160  1  0  0  0
 84161  1  0  0  0
 84162  1  0  0  0
 84 85  1  0  0  0
 85 87  1  0  0  0
 85163  1  0  0  0
 87164  1  0  0  0
 88165  1  0  0  0
 89166  1  0  0  0
M  ISO  4   1 100  68 101  82 101  87 100
M  END
> <chiral flag>
0

> <version>
0

> <s_m_source_file>
/data/baiqing/PycharmProjects/Reinvent-master-3.2/result/LINK_invent/BTK/process_docking_weight1_custom_product_contain_oxygen_bond_distance_aromatic_linkinvent_7_9_3/rearranged_h_0095.sdf

> <i_m_source_file_index>
35

> <r_mmod_Potential_Energy-OPLS-2005>
12.8025379180908

> <r_mmod_Stretch_Energy-OPLS-2005>
40.4179344177246

> <r_mmod_Bend_Energy-OPLS-2005>
101.164176940918

> <r_mmod_Torsional_Energy-OPLS-2005>
270.877166748047

> <r_mmod_Improper_Torsional_Energy-OPLS-2005>
13.4863634109497

> <r_mmod_Van_der_Waal_Energy-OPLS-2005>
144.765045166016

> <r_mmod_Electrostatic_Energy-OPLS-2005>
-354.015441894531

> <r_mmod_Solvation_Energy-OPLS-2005>
-229.462020874023

> <b_mmod_Minimization_Converged-OPLS-2005>
0

> <r_mmod_RMS_Derivative-OPLS-2005>
2.65222954750061

$$$$
35
                    3D
 Structure written by MMmdl.
157166  0  0  1  0            999 V2000
  -30.6572  -14.6696   20.5678 C   0  0  0  0  0  0
  -30.4343  -12.4321   19.4653 C   0  0  0  0  0  0
  -29.5097  -12.5368   18.2316 C   0  0  0  0  0  0
  -28.0335  -12.3639   18.6376 C   0  0  0  0  0  0
  -27.6526  -13.2286   19.8672 C   0  0  2  0  0  0
  -28.6925  -13.0925   20.9986 C   0  0  0  0  0  0
  -25.2539  -13.8191   20.5683 C   0  0  0  0  0  0
  -24.1811  -13.0441   20.9165 C   0  0  0  0  0  0
  -24.6407  -11.6918   20.8733 C   0  0  0  0  0  0
  -23.9085  -10.4287   21.0398 C   0  0  0  0  0  0
  -24.3638   -9.4207   21.9181 C   0  0  0  0  0  0
  -23.6306   -8.2255   22.0761 C   0  0  0  0  0  0
  -22.4284   -8.0293   21.3558 C   0  0  0  0  0  0
  -21.9930   -9.0258   20.4651 C   0  0  0  0  0  0
  -22.7263  -10.2128   20.3048 C   0  0  0  0  0  0
  -21.6849   -6.0740   22.5284 C   0  0  0  0  0  0
  -21.4014   -6.5643   23.8216 C   0  0  0  0  0  0
  -21.3658   -5.6793   24.9181 C   0  0  0  0  0  0
  -21.6043   -4.3055   24.7229 C   0  0  0  0  0  0
  -21.8817   -3.8148   23.4346 C   0  0  0  0  0  0
  -21.9197   -4.6968   22.3407 C   0  0  0  0  0  0
  -22.7832  -13.5234   21.1839 C   0  0  0  0  0  0
  -22.1658   -4.2155   21.0980 F   0  0  0  0  0  0
  -21.5637   -3.4537   25.7740 F   0  0  0  0  0  0
  -30.0083  -13.4572   20.4478 N   0  0  0  0  0  0
  -26.2983  -12.9405   20.3328 N   0  0  0  0  0  0
  -25.9344  -11.6538   20.5759 N   0  0  0  0  0  0
  -22.0489  -12.8210   22.0391 N   0  0  0  0  0  0
  -25.4244  -15.1914   20.4117 N   0  0  0  0  0  0
  -31.7636  -14.8295   20.0438 O   0  0  0  0  0  0
  -21.6651   -6.8883   21.4247 O   0  0  0  0  0  0
  -22.3497  -14.5539   20.6695 O   0  0  0  0  0  0
  -24.6289  -31.8568   23.2016 C   0  0  0  0  0  0
  -25.9125  -32.4759   23.8374 C   0  0  1  0  0  0
  -27.2249  -27.2984   20.1339 C   0  0  0  0  0  0
  -25.5939  -33.8563   24.2309 N   0  0  0  0  0  0
  -23.4258  -30.4777   21.5437 C   0  0  2  0  0  0
  -24.8746  -28.9254   20.1153 C   0  0  0  0  0  0
  -22.7471  -29.4620   22.4935 C   0  0  0  0  0  0
  -18.0280  -28.1402   22.8485 C   0  0  0  0  0  0
  -24.1482  -36.7265   23.2647 C   0  0  0  0  0  0
  -25.9663  -30.7818   21.3739 C   0  0  0  0  0  0
  -26.0434  -29.4063   20.7205 C   0  0  0  0  0  0
  -27.2258  -28.6055   20.7178 C   0  0  0  0  0  0
  -26.0373  -26.8711   19.5071 C   0  0  0  0  0  0
  -24.8738  -27.6638   19.4987 C   0  0  0  0  0  0
  -23.6429  -29.8065   20.1616 C   0  0  0  0  0  0
  -25.4105  -36.3058   24.0343 C   0  0  1  0  0  0
  -20.5883  -28.3710   23.1267 C   0  0  2  0  0  0
  -20.6783  -26.9422   22.5405 C   0  0  0  0  0  0
  -19.5763  -26.6400   21.5211 C   0  0  0  0  0  0
  -18.1932  -26.7956   22.1606 C   0  0  0  0  0  0
  -19.1535  -28.8873   23.2878 C   0  0  0  0  0  0
  -18.9460  -30.1476   23.8897 C   0  0  0  0  0  0
  -17.6459  -30.6607   24.0565 C   0  0  0  0  0  0
  -25.9046  -34.9429   23.5121 C   0  0  0  0  0  0
  -16.5345  -29.9095   23.6344 C   0  0  0  0  0  0
  -16.7266  -28.6512   23.0364 C   0  0  0  0  0  0
  -26.4517  -31.6570   25.0739 C   0  0  0  0  0  0
  -25.3750  -31.3653   26.1459 C   0  0  0  0  0  0
  -27.0413  -30.3018   24.6197 C   0  0  0  0  0  0
  -27.6094  -32.4309   25.7477 C   0  0  0  0  0  0
  -27.5582  -37.1777   24.8465 C   0  0  0  0  0  0
  -21.4186  -29.3063   22.3660 N   0  0  0  0  0  0
  -26.4279  -37.3773   23.9425 N   0  0  0  0  0  0
  -24.6931  -31.0549   22.0976 N   0  0  0  0  0  0
  -23.4170  -28.8157   23.3031 O   0  0  0  0  0  0
  -28.3160  -26.4157   20.1430 O   0  0  0  0  0  0
  -26.5595  -34.8904   22.4673 O   0  0  0  0  0  0
  -23.5441  -32.1375   23.7317 O   0  0  0  0  0  0
  -30.3904  -19.2309   19.6872 C   0  0  0  0  0  0
  -30.5919  -17.8320   19.9350 C   0  0  0  0  0  0
  -29.0171  -23.4510   18.9371 C   0  0  0  0  0  0
  -28.5474  -19.2539   21.2036 C   0  0  0  0  0  0
  -28.6232  -23.7442   20.2758 C   0  0  0  0  0  0
  -29.3683  -20.0043   20.3191 C   0  0  0  0  0  0
  -29.7973  -17.0968   20.8614 C   0  0  0  0  0  0
  -28.7518  -17.8631   21.4677 C   0  0  0  0  0  0
  -29.3176  -22.1124   18.8304 C   0  0  0  0  0  0
  -28.7344  -22.4998   20.9114 C   0  0  0  0  0  0
  -30.1332  -15.5094   22.7469 C   0  0  0  0  0  0
  -28.1180  -25.1270   20.8605 C   0  0  0  0  0  0
  -29.1569  -21.4494   20.0500 N   0  0  0  0  0  0
  -30.0600  -15.6935   21.2865 N   0  0  0  0  0  0
  -29.6950  -21.4380   17.7081 O   0  0  0  0  0  0
  -28.4809  -22.2139   22.2200 O   0  0  0  0  0  0
  -27.9031  -17.2582   22.3336 F   0  0  0  0  0  0
  -31.4771  -12.5527   19.1674 H   0  0  0  0  0  0
  -30.3722  -11.4363   19.9062 H   0  0  0  0  0  0
  -29.7833  -11.7864   17.4883 H   0  0  0  0  0  0
  -29.6450  -13.5071   17.7524 H   0  0  0  0  0  0
  -27.8712  -11.3092   18.8631 H   0  0  0  0  0  0
  -27.3799  -12.6035   17.7983 H   0  0  0  0  0  0
  -27.6686  -14.2669   19.5348 H   0  0  0  0  0  0
  -28.7141  -12.0694   21.3798 H   0  0  0  0  0  0
  -28.4005  -13.7110   21.8435 H   0  0  0  0  0  0
  -25.2781   -9.5692   22.4746 H   0  0  0  0  0  0
  -24.0017   -7.4645   22.7484 H   0  0  0  0  0  0
  -21.0858   -8.8769   19.8946 H   0  0  0  0  0  0
  -22.3726  -10.9666   19.6150 H   0  0  0  0  0  0
  -21.1994   -7.6147   23.9729 H   0  0  0  0  0  0
  -21.1477   -6.0515   25.9081 H   0  0  0  0  0  0
  -22.0594   -2.7615   23.2841 H   0  0  0  0  0  0
  -22.4121  -11.9878   22.4778 H   0  0  0  0  0  0
  -21.1102  -13.1209   22.2596 H   0  0  0  0  0  0
  -24.6711  -15.8538   20.5541 H   0  0  0  0  0  0
  -26.2989  -15.6339   20.1598 H   0  0  0  0  0  0
  -26.7194  -32.5435   23.1125 H   0  0  0  0  0  0
  -25.0158  -33.9727   25.0503 H   0  0  0  0  0  0
  -22.7224  -31.2998   21.3936 H   0  0  0  0  0  0
  -23.3766  -35.9573   23.3260 H   0  0  0  0  0  0
  -24.3581  -36.8923   22.2074 H   0  0  0  0  0  0
  -23.7198  -37.6438   23.6687 H   0  0  0  0  0  0
  -26.0963  -31.5407   20.6026 H   0  0  0  0  0  0
  -26.8474  -30.8370   22.0011 H   0  0  0  0  0  0
  -28.1232  -28.9700   21.1980 H   0  0  0  0  0  0
  -26.0036  -25.8977   19.0369 H   0  0  0  0  0  0
  -23.9785  -27.2862   19.0252 H   0  0  0  0  0  0
  -23.7610  -30.5815   19.4033 H   0  0  0  0  0  0
  -22.7649  -29.2325   19.8584 H   0  0  0  0  0  0
  -25.1285  -36.1909   25.0840 H   0  0  0  0  0  0
  -20.9984  -28.3292   24.1386 H   0  0  0  0  0  0
  -20.5697  -26.2323   23.3620 H   0  0  0  0  0  0
  -21.6643  -26.7484   22.1167 H   0  0  0  0  0  0
  -19.6919  -25.6304   21.1262 H   0  0  0  0  0  0
  -19.6709  -27.3204   20.6736 H   0  0  0  0  0  0
  -17.4216  -26.6719   21.4000 H   0  0  0  0  0  0
  -18.0312  -26.0097   22.9003 H   0  0  0  0  0  0
  -19.7935  -30.7297   24.2266 H   0  0  0  0  0  0
  -17.5006  -31.6294   24.5156 H   0  0  0  0  0  0
  -15.5341  -30.2993   23.7696 H   0  0  0  0  0  0
  -15.8659  -28.0829   22.7093 H   0  0  0  0  0  0
  -24.5987  -30.6944   25.7753 H   0  0  0  0  0  0
  -24.8882  -32.2785   26.4892 H   0  0  0  0  0  0
  -25.8109  -30.8832   27.0223 H   0  0  0  0  0  0
  -26.3018  -29.6690   24.1288 H   0  0  0  0  0  0
  -27.4203  -29.7340   25.4703 H   0  0  0  0  0  0
  -27.8818  -30.4319   23.9381 H   0  0  0  0  0  0
  -27.2758  -33.3649   26.1997 H   0  0  0  0  0  0
  -28.3922  -32.6795   25.0296 H   0  0  0  0  0  0
  -28.0744  -31.8465   26.5421 H   0  0  0  0  0  0
  -28.2557  -38.0121   24.7579 H   0  0  0  0  0  0
  -28.1133  -36.2659   24.6208 H   0  0  0  0  0  0
  -27.2308  -37.1297   25.8869 H   0  0  0  0  0  0
  -20.9384  -29.8734   21.6812 H   0  0  0  0  0  0
  -26.0147  -38.2831   24.1481 H   0  0  0  0  0  0
  -31.0602  -19.7206   18.9954 H   0  0  0  0  0  0
  -31.4085  -17.3407   19.4252 H   0  0  0  0  0  0
  -29.0514  -24.1621   18.1231 H   0  0  0  0  0  0
  -27.7316  -19.7500   21.7071 H   0  0  0  0  0  0
  -30.5547  -16.3973   23.2220 H   0  0  0  0  0  0
  -30.7683  -14.6732   23.0477 H   0  0  0  0  0  0
  -29.1492  -15.3411   23.1834 H   0  0  0  0  0  0
  -28.6141  -25.2482   21.8235 H   0  0  0  0  0  0
  -27.0654  -24.9824   21.1076 H   0  0  0  0  0  0
  -29.7577  -22.0674   16.9962 H   0  0  0  0  0  0
  -28.2233  -23.0184   22.6584 H   0  0  0  0  0  0
  1 25  1  0  0  0
  1 30  2  0  0  0
  1 84  1  0  0  0
  2  3  1  0  0  0
  2 25  1  0  0  0
  2 88  1  0  0  0
  2 89  1  0  0  0
  3  4  1  0  0  0
  3 90  1  0  0  0
  3 91  1  0  0  0
  4  5  1  0  0  0
  4 92  1  0  0  0
  4 93  1  0  0  0
  5  6  1  0  0  0
  5 26  1  0  0  0
  5 94  1  0  0  0
  6 25  1  0  0  0
  6 95  1  0  0  0
  6 96  1  0  0  0
  7  8  2  0  0  0
  7 26  1  0  0  0
  7 29  1  0  0  0
  8  9  1  0  0  0
  8 22  1  0  0  0
  9 10  1  0  0  0
  9 27  2  0  0  0
 10 11  2  0  0  0
 10 15  1  0  0  0
 11 12  1  0  0  0
 11 97  1  0  0  0
 12 13  2  0  0  0
 12 98  1  0  0  0
 13 14  1  0  0  0
 13 31  1  0  0  0
 14 15  2  0  0  0
 14 99  1  0  0  0
 15100  1  0  0  0
 16 17  2  0  0  0
 16 21  1  0  0  0
 16 31  1  0  0  0
 17 18  1  0  0  0
 17101  1  0  0  0
 18 19  2  0  0  0
 18102  1  0  0  0
 19 20  1  0  0  0
 19 24  1  0  0  0
 20 21  2  0  0  0
 20103  1  0  0  0
 21 23  1  0  0  0
 22 28  1  0  0  0
 22 32  2  0  0  0
 26 27  1  0  0  0
 28104  1  0  0  0
 28105  1  0  0  0
 29106  1  0  0  0
 29107  1  0  0  0
 33 34  1  0  0  0
 33 66  1  0  0  0
 33 70  2  0  0  0
 34 36  1  0  0  0
 34 59  1  0  0  0
 34108  1  0  0  0
 35 44  2  0  0  0
 35 45  1  0  0  0
 35 68  1  0  0  0
 36 56  1  0  0  0
 36109  1  0  0  0
 37 39  1  0  0  0
 37 47  1  0  0  0
 37 66  1  0  0  0
 37110  1  0  0  0
 38 43  2  0  0  0
 38 46  1  0  0  0
 38 47  1  0  0  0
 39 64  1  0  0  0
 39 67  2  0  0  0
 40 52  1  0  0  0
 40 53  2  0  0  0
 40 58  1  0  0  0
 41111  1  0  0  0
 41112  1  0  0  0
 41113  1  0  0  0
 41 48  1  0  0  0
 42 43  1  0  0  0
 42 66  1  0  0  0
 42114  1  0  0  0
 42115  1  0  0  0
 43 44  1  0  0  0
 44116  1  0  0  0
 45 46  2  0  0  0
 45117  1  0  0  0
 46118  1  0  0  0
 47119  1  0  0  0
 47120  1  0  0  0
 48 56  1  0  0  0
 48 65  1  0  0  0
 48121  1  0  0  0
 49 50  1  0  0  0
 49 53  1  0  0  0
 49 64  1  0  0  0
 49122  1  0  0  0
 50 51  1  0  0  0
 50123  1  0  0  0
 50124  1  0  0  0
 51 52  1  0  0  0
 51125  1  0  0  0
 51126  1  0  0  0
 52127  1  0  0  0
 52128  1  0  0  0
 53 54  1  0  0  0
 54 55  2  0  0  0
 54129  1  0  0  0
 55 57  1  0  0  0
 55130  1  0  0  0
 56 69  2  0  0  0
 57 58  2  0  0  0
 57131  1  0  0  0
 58132  1  0  0  0
 59 60  1  0  0  0
 59 61  1  0  0  0
 59 62  1  0  0  0
 60133  1  0  0  0
 60134  1  0  0  0
 60135  1  0  0  0
 61136  1  0  0  0
 61137  1  0  0  0
 61138  1  0  0  0
 62139  1  0  0  0
 62140  1  0  0  0
 62141  1  0  0  0
 63 65  1  0  0  0
 63142  1  0  0  0
 63143  1  0  0  0
 63144  1  0  0  0
 64145  1  0  0  0
 65146  1  0  0  0
 68 82  1  0  0  0
 71 72  2  0  0  0
 71 76  1  0  0  0
 71147  1  0  0  0
 72 77  1  0  0  0
 72148  1  0  0  0
 73 75  1  0  0  0
 73 79  2  0  0  0
 73149  1  0  0  0
 74 76  2  0  0  0
 74 78  1  0  0  0
 74150  1  0  0  0
 75 80  2  0  0  0
 75 82  1  0  0  0
 76 83  1  0  0  0
 77 78  2  0  0  0
 77 84  1  0  0  0
 78 87  1  0  0  0
 79 83  1  0  0  0
 79 85  1  0  0  0
 80 83  1  0  0  0
 80 86  1  0  0  0
 81 84  1  0  0  0
 81151  1  0  0  0
 81152  1  0  0  0
 81153  1  0  0  0
 82154  1  0  0  0
 82155  1  0  0  0
 85156  1  0  0  0
 86157  1  0  0  0
M  ISO  4   1 100  68 101  82 101  84 100
M  END
> <chiral flag>
0

> <version>
0

> <s_m_source_file>
/data/baiqing/PycharmProjects/Reinvent-master-3.2/result/LINK_invent/BTK/process_docking_weight1_custom_product_contain_oxygen_bond_distance_aromatic_linkinvent_7_9_3/rearranged_h_0095.sdf

> <i_m_source_file_index>
36

> <r_mmod_Potential_Energy-OPLS-2005>
263.826507568359

> <r_mmod_Stretch_Energy-OPLS-2005>
101.144538879395

> <r_mmod_Bend_Energy-OPLS-2005>
150.940017700195

> <r_mmod_Torsional_Energy-OPLS-2005>
324.112274169922

> <r_mmod_Improper_Torsional_Energy-OPLS-2005>
3.38726353645325

> <r_mmod_Van_der_Waal_Energy-OPLS-2005>
141.71418762207

> <r_mmod_Electrostatic_Energy-OPLS-2005>
-307.473358154297

> <r_mmod_Solvation_Energy-OPLS-2005>
-207.306610107422

> <b_mmod_Minimization_Converged-OPLS-2005>
0

> <r_mmod_RMS_Derivative-OPLS-2005>
2.32758498191833

$$$$
36
                    3D
 Structure written by MMmdl.
155164  0  0  1  0            999 V2000
  -30.6140  -14.6311   20.5068 C   0  0  0  0  0  0
  -30.4400  -12.3888   19.4460 C   0  0  0  0  0  0
  -29.5066  -12.5110   18.2201 C   0  0  0  0  0  0
  -28.0293  -12.3454   18.6313 C   0  0  0  0  0  0
  -27.6536  -13.2110   19.8630 C   0  0  2  0  0  0
  -28.6979  -13.0518   20.9914 C   0  0  0  0  0  0
  -25.2557  -13.8152   20.5654 C   0  0  0  0  0  0
  -24.1824  -13.0431   20.9190 C   0  0  0  0  0  0
  -24.6384  -11.6902   20.8738 C   0  0  0  0  0  0
  -23.9048  -10.4290   21.0407 C   0  0  0  0  0  0
  -24.3609   -9.4204   21.9178 C   0  0  0  0  0  0
  -23.6290   -8.2235   22.0749 C   0  0  0  0  0  0
  -22.4271   -8.0273   21.3542 C   0  0  0  0  0  0
  -21.9899   -9.0244   20.4645 C   0  0  0  0  0  0
  -22.7222  -10.2127   20.3055 C   0  0  0  0  0  0
  -21.6849   -6.0728   22.5277 C   0  0  0  0  0  0
  -21.4011   -6.5635   23.8211 C   0  0  0  0  0  0
  -21.3660   -5.6788   24.9176 C   0  0  0  0  0  0
  -21.6046   -4.3050   24.7225 C   0  0  0  0  0  0
  -21.8818   -3.8141   23.4347 C   0  0  0  0  0  0
  -21.9192   -4.6957   22.3402 C   0  0  0  0  0  0
  -22.7849  -13.5229   21.1860 C   0  0  0  0  0  0
  -22.1661   -4.2142   21.0980 F   0  0  0  0  0  0
  -21.5633   -3.4534   25.7739 F   0  0  0  0  0  0
  -30.0145  -13.4008   20.4331 N   0  0  0  0  0  0
  -26.2982  -12.9321   20.3293 N   0  0  0  0  0  0
  -25.9306  -11.6486   20.5743 N   0  0  0  0  0  0
  -22.0490  -12.8231   22.0421 N   0  0  0  0  0  0
  -25.4264  -15.1868   20.4014 N   0  0  0  0  0  0
  -31.7748  -14.8031   20.1226 O   0  0  0  0  0  0
  -21.6636   -6.8870   21.4240 O   0  0  0  0  0  0
  -22.3537  -14.5535   20.6704 O   0  0  0  0  0  0
  -24.6254  -31.8613   23.2035 C   0  0  0  0  0  0
  -25.9105  -32.4788   23.8357 C   0  0  1  0  0  0
  -27.2218  -27.3284   20.1086 C   0  0  0  0  0  0
  -25.5918  -33.8587   24.2283 N   0  0  0  0  0  0
  -23.4180  -30.4870   21.5475 C   0  0  2  0  0  0
  -24.8622  -28.9477   20.1097 C   0  0  0  0  0  0
  -22.7471  -29.4636   22.4942 C   0  0  0  0  0  0
  -18.0287  -28.1382   22.8492 C   0  0  0  0  0  0
  -24.1483  -36.7303   23.2637 C   0  0  0  0  0  0
  -25.9595  -30.7956   21.3719 C   0  0  0  0  0  0
  -26.0329  -29.4247   20.7129 C   0  0  0  0  0  0
  -27.2159  -28.6272   20.7033 C   0  0  0  0  0  0
  -26.0255  -26.9086   19.4773 C   0  0  0  0  0  0
  -24.8602  -27.6939   19.4835 C   0  0  0  0  0  0
  -23.6291  -29.8249   20.1619 C   0  0  0  0  0  0
  -25.4108  -36.3092   24.0330 C   0  0  1  0  0  0
  -20.5888  -28.3690   23.1286 C   0  0  2  0  0  0
  -20.6777  -26.9412   22.5418 C   0  0  0  0  0  0
  -19.5751  -26.6384   21.5220 C   0  0  0  0  0  0
  -18.1930  -26.7929   22.1629 C   0  0  0  0  0  0
  -19.1539  -28.8851   23.2888 C   0  0  0  0  0  0
  -18.9463  -30.1451   23.8904 C   0  0  0  0  0  0
  -17.6465  -30.6587   24.0565 C   0  0  0  0  0  0
  -25.9049  -34.9461   23.5110 C   0  0  0  0  0  0
  -16.5355  -29.9089   23.6327 C   0  0  0  0  0  0
  -16.7275  -28.6505   23.0351 C   0  0  0  0  0  0
  -26.4478  -31.6589   25.0723 C   0  0  0  0  0  0
  -25.3705  -31.3750   26.1450 C   0  0  0  0  0  0
  -27.0303  -30.3007   24.6164 C   0  0  0  0  0  0
  -27.6044  -32.4313   25.7494 C   0  0  0  0  0  0
  -27.5582  -37.1804   24.8460 C   0  0  0  0  0  0
  -21.4187  -29.3042   22.3682 N   0  0  0  0  0  0
  -26.4289  -37.3786   23.9411 N   0  0  0  0  0  0
  -24.6869  -31.0638   22.0980 N   0  0  0  0  0  0
  -23.4202  -28.8171   23.3013 O   0  0  0  0  0  0
  -28.3355  -26.4725   20.1620 O   0  0  0  0  0  0
  -26.5630  -34.8930   22.4684 O   0  0  0  0  0  0
  -23.5421  -32.1408   23.7372 O   0  0  0  0  0  0
  -31.0024  -19.2810   20.2831 C   0  0  0  0  0  0
  -31.0310  -17.8607   20.4234 C   0  0  0  0  0  0
  -28.6725  -17.8895   20.8543 C   0  0  0  0  0  0
  -29.8081  -20.0611   20.3957 C   0  0  0  0  0  0
  -29.8572  -17.1178   20.7041 C   0  0  0  0  0  0
  -28.6399  -19.3085   20.7039 C   0  0  0  0  0  0
  -30.6911  -22.2834   19.5457 C   0  0  0  0  0  0
  -30.3341  -23.7743   19.4948 C   0  0  0  0  0  0
  -28.6620  -22.4453   20.5774 C   0  0  0  0  0  0
  -29.1537  -23.9390   20.4527 C   0  0  2  0  0  0
  -28.0724  -25.0224   20.0326 C   0  0  0  0  0  0
  -29.7799  -21.5328   20.2096 N   0  0  0  0  0  0
  -29.7870  -15.6631   20.8679 N   0  0  0  0  0  0
  -31.7171  -21.8766   18.9936 O   0  0  0  0  0  0
  -27.4473  -19.9343   20.8498 F   0  0  0  0  0  0
  -31.4799  -12.5212   19.1430 H   0  0  0  0  0  0
  -30.3794  -11.3885   19.8775 H   0  0  0  0  0  0
  -29.7717  -11.7679   17.4668 H   0  0  0  0  0  0
  -29.6455  -13.4853   17.7492 H   0  0  0  0  0  0
  -27.8651  -11.2911   18.8569 H   0  0  0  0  0  0
  -27.3744  -12.5793   17.7911 H   0  0  0  0  0  0
  -27.6754  -14.2482   19.5279 H   0  0  0  0  0  0
  -28.7082  -12.0238   21.3569 H   0  0  0  0  0  0
  -28.4423  -13.6682   21.8549 H   0  0  0  0  0  0
  -25.2757   -9.5678   22.4747 H   0  0  0  0  0  0
  -24.0003   -7.4620   22.7460 H   0  0  0  0  0  0
  -21.0827   -8.8752   19.8953 H   0  0  0  0  0  0
  -22.3670  -10.9662   19.6163 H   0  0  0  0  0  0
  -21.2000   -7.6143   23.9713 H   0  0  0  0  0  0
  -21.1487   -6.0520   25.9079 H   0  0  0  0  0  0
  -22.0600   -2.7603   23.2846 H   0  0  0  0  0  0
  -22.4108  -11.9900   22.4825 H   0  0  0  0  0  0
  -21.1104  -13.1254   22.2621 H   0  0  0  0  0  0
  -24.6482  -15.8323   20.4845 H   0  0  0  0  0  0
  -26.2522  -15.6135   20.0022 H   0  0  0  0  0  0
  -26.7180  -32.5452   23.1118 H   0  0  0  0  0  0
  -25.0026  -33.9727   25.0399 H   0  0  0  0  0  0
  -22.7116  -31.3083   21.4084 H   0  0  0  0  0  0
  -23.3743  -35.9635   23.3289 H   0  0  0  0  0  0
  -24.3585  -36.8933   22.2057 H   0  0  0  0  0  0
  -23.7236  -37.6503   23.6661 H   0  0  0  0  0  0
  -26.0892  -31.5584   20.6028 H   0  0  0  0  0  0
  -26.8420  -30.8444   21.9987 H   0  0  0  0  0  0
  -28.1126  -28.9892   21.1863 H   0  0  0  0  0  0
  -25.9524  -25.9552   18.9770 H   0  0  0  0  0  0
  -23.9642  -27.3238   19.0043 H   0  0  0  0  0  0
  -23.7425  -30.6021   19.4055 H   0  0  0  0  0  0
  -22.7489  -29.2527   19.8627 H   0  0  0  0  0  0
  -25.1284  -36.1947   25.0821 H   0  0  0  0  0  0
  -20.9991  -28.3268   24.1403 H   0  0  0  0  0  0
  -20.5682  -26.2299   23.3620 H   0  0  0  0  0  0
  -21.6645  -26.7442   22.1209 H   0  0  0  0  0  0
  -19.6915  -25.6297   21.1242 H   0  0  0  0  0  0
  -19.6687  -27.3201   20.6756 H   0  0  0  0  0  0
  -17.4205  -26.6679   21.4024 H   0  0  0  0  0  0
  -18.0325  -26.0070   22.9022 H   0  0  0  0  0  0
  -19.7939  -30.7264   24.2276 H   0  0  0  0  0  0
  -17.5020  -31.6268   24.5168 H   0  0  0  0  0  0
  -15.5357  -30.2997   23.7643 H   0  0  0  0  0  0
  -15.8674  -28.0830   22.7058 H   0  0  0  0  0  0
  -24.5882  -30.7089   25.7793 H   0  0  0  0  0  0
  -24.8885  -32.2924   26.4838 H   0  0  0  0  0  0
  -25.8018  -30.8963   27.0250 H   0  0  0  0  0  0
  -26.2872  -29.6787   24.1160 H   0  0  0  0  0  0
  -27.3970  -29.7232   25.4661 H   0  0  0  0  0  0
  -27.8753  -30.4288   23.9397 H   0  0  0  0  0  0
  -27.2657  -33.3609   26.2081 H   0  0  0  0  0  0
  -28.3848  -32.6882   25.0318 H   0  0  0  0  0  0
  -28.0715  -31.8429   26.5405 H   0  0  0  0  0  0
  -28.2592  -38.0108   24.7518 H   0  0  0  0  0  0
  -28.1081  -36.2644   24.6254 H   0  0  0  0  0  0
  -27.2311  -37.1417   25.8865 H   0  0  0  0  0  0
  -20.9362  -29.8762   21.6892 H   0  0  0  0  0  0
  -26.0168  -38.2857   24.1419 H   0  0  0  0  0  0
  -31.9492  -19.7601   20.0877 H   0  0  0  0  0  0
  -31.9797  -17.3538   20.3186 H   0  0  0  0  0  0
  -27.7418  -17.3923   21.0848 H   0  0  0  0  0  0
  -30.0583  -24.0283   18.4713 H   0  0  0  0  0  0
  -31.1823  -24.3952   19.7847 H   0  0  0  0  0  0
  -27.8328  -22.2662   19.8904 H   0  0  0  0  0  0
  -28.3027  -22.2372   21.5861 H   0  0  0  0  0  0
  -29.5497  -24.2291   21.4270 H   0  0  0  0  0  0
  -27.1906  -24.8015   20.6368 H   0  0  0  0  0  0
  -27.7948  -24.8146   18.9986 H   0  0  0  0  0  0
  -28.8860  -15.3249   21.1693 H   0  0  0  0  0  0
  1 25  1  0  0  0
  1 30  2  0  0  0
  1 83  1  0  0  0
  2  3  1  0  0  0
  2 25  1  0  0  0
  2 86  1  0  0  0
  2 87  1  0  0  0
  3  4  1  0  0  0
  3 88  1  0  0  0
  3 89  1  0  0  0
  4  5  1  0  0  0
  4 90  1  0  0  0
  4 91  1  0  0  0
  5  6  1  0  0  0
  5 26  1  0  0  0
  5 92  1  0  0  0
  6 25  1  0  0  0
  6 93  1  0  0  0
  6 94  1  0  0  0
  7  8  2  0  0  0
  7 26  1  0  0  0
  7 29  1  0  0  0
  8  9  1  0  0  0
  8 22  1  0  0  0
  9 10  1  0  0  0
  9 27  2  0  0  0
 10 11  2  0  0  0
 10 15  1  0  0  0
 11 12  1  0  0  0
 11 95  1  0  0  0
 12 13  2  0  0  0
 12 96  1  0  0  0
 13 14  1  0  0  0
 13 31  1  0  0  0
 14 15  2  0  0  0
 14 97  1  0  0  0
 15 98  1  0  0  0
 16 17  2  0  0  0
 16 21  1  0  0  0
 16 31  1  0  0  0
 17 18  1  0  0  0
 17 99  1  0  0  0
 18 19  2  0  0  0
 18100  1  0  0  0
 19 20  1  0  0  0
 19 24  1  0  0  0
 20 21  2  0  0  0
 20101  1  0  0  0
 21 23  1  0  0  0
 22 28  1  0  0  0
 22 32  2  0  0  0
 26 27  1  0  0  0
 28102  1  0  0  0
 28103  1  0  0  0
 29104  1  0  0  0
 29105  1  0  0  0
 33 34  1  0  0  0
 33 66  1  0  0  0
 33 70  2  0  0  0
 34 36  1  0  0  0
 34 59  1  0  0  0
 34106  1  0  0  0
 35 44  2  0  0  0
 35 45  1  0  0  0
 35 68  1  0  0  0
 36 56  1  0  0  0
 36107  1  0  0  0
 37 39  1  0  0  0
 37 47  1  0  0  0
 37 66  1  0  0  0
 37108  1  0  0  0
 38 43  2  0  0  0
 38 46  1  0  0  0
 38 47  1  0  0  0
 39 64  1  0  0  0
 39 67  2  0  0  0
 40 52  1  0  0  0
 40 53  2  0  0  0
 40 58  1  0  0  0
 41109  1  0  0  0
 41110  1  0  0  0
 41111  1  0  0  0
 41 48  1  0  0  0
 42 43  1  0  0  0
 42 66  1  0  0  0
 42112  1  0  0  0
 42113  1  0  0  0
 43 44  1  0  0  0
 44114  1  0  0  0
 45 46  2  0  0  0
 45115  1  0  0  0
 46116  1  0  0  0
 47117  1  0  0  0
 47118  1  0  0  0
 48 56  1  0  0  0
 48 65  1  0  0  0
 48119  1  0  0  0
 49 50  1  0  0  0
 49 53  1  0  0  0
 49 64  1  0  0  0
 49120  1  0  0  0
 50 51  1  0  0  0
 50121  1  0  0  0
 50122  1  0  0  0
 51 52  1  0  0  0
 51123  1  0  0  0
 51124  1  0  0  0
 52125  1  0  0  0
 52126  1  0  0  0
 53 54  1  0  0  0
 54 55  2  0  0  0
 54127  1  0  0  0
 55 57  1  0  0  0
 55128  1  0  0  0
 56 69  2  0  0  0
 57 58  2  0  0  0
 57129  1  0  0  0
 58130  1  0  0  0
 59 60  1  0  0  0
 59 61  1  0  0  0
 59 62  1  0  0  0
 60131  1  0  0  0
 60132  1  0  0  0
 60133  1  0  0  0
 61134  1  0  0  0
 61135  1  0  0  0
 61136  1  0  0  0
 62137  1  0  0  0
 62138  1  0  0  0
 62139  1  0  0  0
 63 65  1  0  0  0
 63140  1  0  0  0
 63141  1  0  0  0
 63142  1  0  0  0
 64143  1  0  0  0
 65144  1  0  0  0
 68 81  1  0  0  0
 71 72  2  0  0  0
 71 74  1  0  0  0
 71145  1  0  0  0
 72 75  1  0  0  0
 72146  1  0  0  0
 73 75  2  0  0  0
 73 76  1  0  0  0
 73147  1  0  0  0
 74 76  2  0  0  0
 74 82  1  0  0  0
 75 83  1  0  0  0
 76 85  1  0  0  0
 77 78  1  0  0  0
 77 82  1  0  0  0
 77 84  2  0  0  0
 78 80  1  0  0  0
 78148  1  0  0  0
 78149  1  0  0  0
 79 80  1  0  0  0
 79 82  1  0  0  0
 79150  1  0  0  0
 79151  1  0  0  0
 80 81  1  0  0  0
 80152  1  0  0  0
 81153  1  0  0  0
 81154  1  0  0  0
 83155  1  0  0  0
M  ISO  4   1 100  68 101  81 101  83 100
M  END
> <chiral flag>
0

> <version>
0

> <s_m_source_file>
/data/baiqing/PycharmProjects/Reinvent-master-3.2/result/LINK_invent/BTK/process_docking_weight1_custom_product_contain_oxygen_bond_distance_aromatic_linkinvent_7_9_3/rearranged_h_0095.sdf

> <i_m_source_file_index>
37

> <r_mmod_Potential_Energy-OPLS-2005>
105.39094543457

> <r_mmod_Stretch_Energy-OPLS-2005>
78.9217987060547

> <r_mmod_Bend_Energy-OPLS-2005>
162.170928955078

> <r_mmod_Torsional_Energy-OPLS-2005>
260.158233642578

> <r_mmod_Improper_Torsional_Energy-OPLS-2005>
4.72309446334839

> <r_mmod_Van_der_Waal_Energy-OPLS-2005>
152.288299560547

> <r_mmod_Electrostatic_Energy-OPLS-2005>
-380.979858398438

> <r_mmod_Solvation_Energy-OPLS-2005>
-217.99153137207

> <b_mmod_Minimization_Converged-OPLS-2005>
0

> <r_mmod_RMS_Derivative-OPLS-2005>
0.966116070747375

$$$$
37
                    3D
 Structure written by MMmdl.
160169  0  0  1  0            999 V2000
  -30.6777  -14.6399   20.5834 C   0  0  0  0  0  0
  -30.4347  -12.4245   19.4517 C   0  0  0  0  0  0
  -29.5032  -12.5414   18.2275 C   0  0  0  0  0  0
  -28.0294  -12.3737   18.6403 C   0  0  0  0  0  0
  -27.6610  -13.2302   19.8792 C   0  0  2  0  0  0
  -28.7050  -13.0801   21.0057 C   0  0  0  0  0  0
  -25.2573  -13.8221   20.5719 C   0  0  0  0  0  0
  -24.1824  -13.0439   20.9116 C   0  0  0  0  0  0
  -24.6438  -11.6939   20.8674 C   0  0  0  0  0  0
  -23.9093  -10.4314   21.0367 C   0  0  0  0  0  0
  -24.3638   -9.4246   21.9170 C   0  0  0  0  0  0
  -23.6317   -8.2278   22.0746 C   0  0  0  0  0  0
  -22.4315   -8.0287   21.3524 C   0  0  0  0  0  0
  -21.9939   -9.0272   20.4648 C   0  0  0  0  0  0
  -22.7246  -10.2156   20.3053 C   0  0  0  0  0  0
  -21.6868   -6.0728   22.5268 C   0  0  0  0  0  0
  -21.4024   -6.5631   23.8196 C   0  0  0  0  0  0
  -21.3658   -5.6788   24.9156 C   0  0  0  0  0  0
  -21.6040   -4.3049   24.7223 C   0  0  0  0  0  0
  -21.8832   -3.8129   23.4351 C   0  0  0  0  0  0
  -21.9215   -4.6947   22.3393 C   0  0  0  0  0  0
  -22.7835  -13.5214   21.1785 C   0  0  0  0  0  0
  -22.1657   -4.2117   21.0968 F   0  0  0  0  0  0
  -21.5650   -3.4543   25.7742 F   0  0  0  0  0  0
  -30.0199  -13.4366   20.4498 N   0  0  0  0  0  0
  -26.3053  -12.9432   20.3432 N   0  0  0  0  0  0
  -25.9384  -11.6564   20.5778 N   0  0  0  0  0  0
  -22.0538  -12.8190   22.0387 N   0  0  0  0  0  0
  -25.4243  -15.1935   20.4199 N   0  0  0  0  0  0
  -31.7539  -14.8253   20.0086 O   0  0  0  0  0  0
  -21.6664   -6.8883   21.4237 O   0  0  0  0  0  0
  -22.3482  -14.5516   20.6654 O   0  0  0  0  0  0
  -24.6343  -31.8530   23.1958 C   0  0  0  0  0  0
  -25.9156  -32.4709   23.8342 C   0  0  1  0  0  0
  -27.2235  -27.2802   20.1270 C   0  0  0  0  0  0
  -25.5925  -33.8516   24.2239 N   0  0  0  0  0  0
  -23.4305  -30.4751   21.5357 C   0  0  2  0  0  0
  -24.8720  -28.9169   20.1073 C   0  0  0  0  0  0
  -22.7531  -29.4603   22.4872 C   0  0  0  0  0  0
  -18.0286  -28.1394   22.8461 C   0  0  0  0  0  0
  -24.1484  -36.7311   23.2666 C   0  0  0  0  0  0
  -25.9736  -30.7692   21.3735 C   0  0  0  0  0  0
  -26.0397  -29.3936   20.7137 C   0  0  0  0  0  0
  -27.2175  -28.5858   20.7088 C   0  0  0  0  0  0
  -26.0275  -26.8484   19.5118 C   0  0  0  0  0  0
  -24.8660  -27.6489   19.5008 C   0  0  0  0  0  0
  -23.6487  -29.8095   20.1509 C   0  0  0  0  0  0
  -25.4115  -36.3073   24.0338 C   0  0  1  0  0  0
  -20.5893  -28.3716   23.1253 C   0  0  2  0  0  0
  -20.6784  -26.9433   22.5387 C   0  0  0  0  0  0
  -19.5775  -26.6389   21.5173 C   0  0  0  0  0  0
  -18.1952  -26.7935   22.1601 C   0  0  0  0  0  0
  -19.1540  -28.8878   23.2854 C   0  0  0  0  0  0
  -18.9471  -30.1461   23.8882 C   0  0  0  0  0  0
  -17.6476  -30.6592   24.0548 C   0  0  0  0  0  0
  -25.9047  -34.9422   23.5109 C   0  0  0  0  0  0
  -16.5358  -29.9102   23.6300 C   0  0  0  0  0  0
  -16.7268  -28.6517   23.0327 C   0  0  0  0  0  0
  -26.4494  -31.6583   25.0772 C   0  0  0  0  0  0
  -25.3735  -31.3740   26.1507 C   0  0  0  0  0  0
  -27.0363  -30.3000   24.6276 C   0  0  0  0  0  0
  -27.6028  -32.4356   25.7550 C   0  0  0  0  0  0
  -27.5574  -37.1823   24.8453 C   0  0  0  0  0  0
  -21.4229  -29.3067   22.3663 N   0  0  0  0  0  0
  -26.4286  -37.3777   23.9401 N   0  0  0  0  0  0
  -24.6973  -31.0541   22.0883 N   0  0  0  0  0  0
  -23.4222  -28.8161   23.2994 O   0  0  0  0  0  0
  -28.3583  -26.4530   20.2212 O   0  0  0  0  0  0
  -26.5645  -34.8911   22.4680 O   0  0  0  0  0  0
  -23.5491  -32.1338   23.7249 O   0  0  0  0  0  0
  -30.4216  -19.2641   20.0781 C   0  0  0  0  0  0
  -30.6244  -17.8447   20.2154 C   0  0  0  0  0  0
  -28.6303  -19.1493   21.6585 C   0  0  0  0  0  0
  -29.4467  -19.9709   20.8419 C   0  0  0  0  0  0
  -29.8563  -17.0310   21.1065 C   0  0  0  0  0  0
  -28.8066  -17.7405   21.7770 C   0  0  0  0  0  0
  -29.4927  -22.1913   22.0062 C   0  0  0  0  0  0
  -29.1462  -23.6800   21.8126 C   0  0  0  0  0  0
  -28.9389  -22.3918   19.8017 C   0  0  0  0  0  0
  -28.4046  -23.7342   20.4708 C   0  0  2  0  0  0
  -30.3446  -15.2728   22.8480 C   0  0  0  0  0  0
  -28.4814  -25.0967   19.6231 C   0  0  0  0  0  0
  -29.2972  -21.4454   20.8964 N   0  0  0  0  0  0
  -27.8841  -17.0654   22.5757 N   0  0  0  0  0  0
  -30.1440  -15.6006   21.4200 N   0  0  0  0  0  0
  -29.9207  -21.7672   23.0846 O   0  0  0  0  0  0
  -31.4731  -12.5506   19.1375 H   0  0  0  0  0  0
  -30.3763  -11.4289   19.8864 H   0  0  0  0  0  0
  -29.7746  -11.7965   17.4776 H   0  0  0  0  0  0
  -29.6425  -13.5162   17.7544 H   0  0  0  0  0  0
  -27.8585  -11.3184   18.8495 H   0  0  0  0  0  0
  -27.3772  -12.6309   17.8055 H   0  0  0  0  0  0
  -27.6876  -14.2731   19.5570 H   0  0  0  0  0  0
  -28.7282  -12.0613   21.3914 H   0  0  0  0  0  0
  -28.4307  -13.7075   21.8531 H   0  0  0  0  0  0
  -25.2819   -9.5709   22.4702 H   0  0  0  0  0  0
  -24.0027   -7.4688   22.7488 H   0  0  0  0  0  0
  -21.0855   -8.8811   19.8966 H   0  0  0  0  0  0
  -22.3729  -10.9683   19.6144 H   0  0  0  0  0  0
  -21.2001   -7.6138   23.9677 H   0  0  0  0  0  0
  -21.1451   -6.0521   25.9051 H   0  0  0  0  0  0
  -22.0619   -2.7593   23.2867 H   0  0  0  0  0  0
  -22.4211  -11.9834   22.4662 H   0  0  0  0  0  0
  -21.1168  -13.1152   22.2661 H   0  0  0  0  0  0
  -24.6749  -15.8526   20.6010 H   0  0  0  0  0  0
  -26.3220  -15.6473   20.2952 H   0  0  0  0  0  0
  -26.7272  -32.5337   23.1124 H   0  0  0  0  0  0
  -24.9961  -33.9586   25.0322 H   0  0  0  0  0  0
  -22.7251  -31.2924   21.3855 H   0  0  0  0  0  0
  -23.3707  -35.9678   23.3333 H   0  0  0  0  0  0
  -24.3618  -36.8935   22.2091 H   0  0  0  0  0  0
  -23.7244  -37.6518   23.6689 H   0  0  0  0  0  0
  -26.1278  -31.5301   20.6056 H   0  0  0  0  0  0
  -26.8455  -30.8031   22.0156 H   0  0  0  0  0  0
  -28.1208  -28.9475   21.1845 H   0  0  0  0  0  0
  -25.9456  -25.8650   19.0696 H   0  0  0  0  0  0
  -23.9592  -27.2666   19.0497 H   0  0  0  0  0  0
  -23.7901  -30.5807   19.3927 H   0  0  0  0  0  0
  -22.7622  -29.2575   19.8355 H   0  0  0  0  0  0
  -25.1287  -36.1937   25.0837 H   0  0  0  0  0  0
  -20.9920  -28.3269   24.1393 H   0  0  0  0  0  0
  -20.5648  -26.2315   23.3589 H   0  0  0  0  0  0
  -21.6678  -26.7471   22.1210 H   0  0  0  0  0  0
  -19.6948  -25.6281   21.1244 H   0  0  0  0  0  0
  -19.6712  -27.3157   20.6682 H   0  0  0  0  0  0
  -17.4203  -26.6594   21.4019 H   0  0  0  0  0  0
  -18.0430  -26.0077   22.9034 H   0  0  0  0  0  0
  -19.7960  -30.7258   24.2256 H   0  0  0  0  0  0
  -17.5048  -31.6239   24.5196 H   0  0  0  0  0  0
  -15.5379  -30.3009   23.7650 H   0  0  0  0  0  0
  -15.8670  -28.0843   22.7072 H   0  0  0  0  0  0
  -24.5830  -30.7163   25.7852 H   0  0  0  0  0  0
  -24.8994  -32.2919   26.5024 H   0  0  0  0  0  0
  -25.8050  -30.8844   27.0247 H   0  0  0  0  0  0
  -26.2952  -29.6721   24.1291 H   0  0  0  0  0  0
  -27.4041  -29.7315   25.4825 H   0  0  0  0  0  0
  -27.8850  -30.4281   23.9540 H   0  0  0  0  0  0
  -27.2585  -33.3616   26.2183 H   0  0  0  0  0  0
  -28.3816  -32.7004   25.0382 H   0  0  0  0  0  0
  -28.0743  -31.8473   26.5435 H   0  0  0  0  0  0
  -28.2601  -38.0109   24.7484 H   0  0  0  0  0  0
  -28.1066  -36.2642   24.6295 H   0  0  0  0  0  0
  -27.2311  -37.1506   25.8862 H   0  0  0  0  0  0
  -20.9434  -29.8829   21.6886 H   0  0  0  0  0  0
  -26.0168  -38.2861   24.1360 H   0  0  0  0  0  0
  -31.0796  -19.8063   19.4129 H   0  0  0  0  0  0
  -31.4303  -17.3944   19.6538 H   0  0  0  0  0  0
  -27.8471  -19.6269   22.2313 H   0  0  0  0  0  0
  -30.0591  -24.2775   21.8028 H   0  0  0  0  0  0
  -28.5183  -24.0410   22.6298 H   0  0  0  0  0  0
  -29.8539  -22.6003   19.2386 H   0  0  0  0  0  0
  -28.2113  -21.9582   19.1122 H   0  0  0  0  0  0
  -27.3492  -23.5740   20.7036 H   0  0  0  0  0  0
  -29.4187  -15.2800   23.4172 H   0  0  0  0  0  0
  -31.0306  -15.9789   23.3144 H   0  0  0  0  0  0
  -30.7648  -14.2774   23.0132 H   0  0  0  0  0  0
  -27.8242  -24.9863   18.7604 H   0  0  0  0  0  0
  -29.4776  -25.1035   19.1852 H   0  0  0  0  0  0
  -28.1134  -16.1196   22.8512 H   0  0  0  0  0  0
  -27.4101  -17.5790   23.3102 H   0  0  0  0  0  0
  1 25  1  0  0  0
  1 30  2  0  0  0
  1 85  1  0  0  0
  2  3  1  0  0  0
  2 25  1  0  0  0
  2 87  1  0  0  0
  2 88  1  0  0  0
  3  4  1  0  0  0
  3 89  1  0  0  0
  3 90  1  0  0  0
  4  5  1  0  0  0
  4 91  1  0  0  0
  4 92  1  0  0  0
  5  6  1  0  0  0
  5 26  1  0  0  0
  5 93  1  0  0  0
  6 25  1  0  0  0
  6 94  1  0  0  0
  6 95  1  0  0  0
  7  8  2  0  0  0
  7 26  1  0  0  0
  7 29  1  0  0  0
  8  9  1  0  0  0
  8 22  1  0  0  0
  9 10  1  0  0  0
  9 27  2  0  0  0
 10 11  2  0  0  0
 10 15  1  0  0  0
 11 12  1  0  0  0
 11 96  1  0  0  0
 12 13  2  0  0  0
 12 97  1  0  0  0
 13 14  1  0  0  0
 13 31  1  0  0  0
 14 15  2  0  0  0
 14 98  1  0  0  0
 15 99  1  0  0  0
 16 17  2  0  0  0
 16 21  1  0  0  0
 16 31  1  0  0  0
 17 18  1  0  0  0
 17100  1  0  0  0
 18 19  2  0  0  0
 18101  1  0  0  0
 19 20  1  0  0  0
 19 24  1  0  0  0
 20 21  2  0  0  0
 20102  1  0  0  0
 21 23  1  0  0  0
 22 28  1  0  0  0
 22 32  2  0  0  0
 26 27  1  0  0  0
 28103  1  0  0  0
 28104  1  0  0  0
 29105  1  0  0  0
 29106  1  0  0  0
 33 34  1  0  0  0
 33 66  1  0  0  0
 33 70  2  0  0  0
 34 36  1  0  0  0
 34 59  1  0  0  0
 34107  1  0  0  0
 35 44  2  0  0  0
 35 45  1  0  0  0
 35 68  1  0  0  0
 36 56  1  0  0  0
 36108  1  0  0  0
 37 39  1  0  0  0
 37 47  1  0  0  0
 37 66  1  0  0  0
 37109  1  0  0  0
 38 43  2  0  0  0
 38 46  1  0  0  0
 38 47  1  0  0  0
 39 64  1  0  0  0
 39 67  2  0  0  0
 40 52  1  0  0  0
 40 53  2  0  0  0
 40 58  1  0  0  0
 41110  1  0  0  0
 41111  1  0  0  0
 41112  1  0  0  0
 41 48  1  0  0  0
 42 43  1  0  0  0
 42 66  1  0  0  0
 42113  1  0  0  0
 42114  1  0  0  0
 43 44  1  0  0  0
 44115  1  0  0  0
 45 46  2  0  0  0
 45116  1  0  0  0
 46117  1  0  0  0
 47118  1  0  0  0
 47119  1  0  0  0
 48 56  1  0  0  0
 48 65  1  0  0  0
 48120  1  0  0  0
 49 50  1  0  0  0
 49 53  1  0  0  0
 49 64  1  0  0  0
 49121  1  0  0  0
 50 51  1  0  0  0
 50122  1  0  0  0
 50123  1  0  0  0
 51 52  1  0  0  0
 51124  1  0  0  0
 51125  1  0  0  0
 52126  1  0  0  0
 52127  1  0  0  0
 53 54  1  0  0  0
 54 55  2  0  0  0
 54128  1  0  0  0
 55 57  1  0  0  0
 55129  1  0  0  0
 56 69  2  0  0  0
 57 58  2  0  0  0
 57130  1  0  0  0
 58131  1  0  0  0
 59 60  1  0  0  0
 59 61  1  0  0  0
 59 62  1  0  0  0
 60132  1  0  0  0
 60133  1  0  0  0
 60134  1  0  0  0
 61135  1  0  0  0
 61136  1  0  0  0
 61137  1  0  0  0
 62138  1  0  0  0
 62139  1  0  0  0
 62140  1  0  0  0
 63 65  1  0  0  0
 63141  1  0  0  0
 63142  1  0  0  0
 63143  1  0  0  0
 64144  1  0  0  0
 65145  1  0  0  0
 68 82  1  0  0  0
 71 72  2  0  0  0
 71 74  1  0  0  0
 71146  1  0  0  0
 72 75  1  0  0  0
 72147  1  0  0  0
 73 74  2  0  0  0
 73 76  1  0  0  0
 73148  1  0  0  0
 74 83  1  0  0  0
 75 76  2  0  0  0
 75 85  1  0  0  0
 76 84  1  0  0  0
 77 78  1  0  0  0
 77 83  1  0  0  0
 77 86  2  0  0  0
 78 80  1  0  0  0
 78149  1  0  0  0
 78150  1  0  0  0
 79 80  1  0  0  0
 79 83  1  0  0  0
 79151  1  0  0  0
 79152  1  0  0  0
 80 82  1  0  0  0
 80153  1  0  0  0
 81 85  1  0  0  0
 81154  1  0  0  0
 81155  1  0  0  0
 81156  1  0  0  0
 82157  1  0  0  0
 82158  1  0  0  0
 84159  1  0  0  0
 84160  1  0  0  0
M  ISO  4   1 100  68 101  82 101  85 100
M  END
> <chiral flag>
0

> <version>
0

> <s_m_source_file>
/data/baiqing/PycharmProjects/Reinvent-master-3.2/result/LINK_invent/BTK/process_docking_weight1_custom_product_contain_oxygen_bond_distance_aromatic_linkinvent_7_9_3/rearranged_h_0095.sdf

> <i_m_source_file_index>
38

> <r_mmod_Potential_Energy-OPLS-2005>
311.366851806641

> <r_mmod_Stretch_Energy-OPLS-2005>
100.413780212402

> <r_mmod_Bend_Energy-OPLS-2005>
201.245971679688

> <r_mmod_Torsional_Energy-OPLS-2005>
370.223999023438

> <r_mmod_Improper_Torsional_Energy-OPLS-2005>
7.392174243927

> <r_mmod_Van_der_Waal_Energy-OPLS-2005>
141.185348510742

> <r_mmod_Electrostatic_Energy-OPLS-2005>
-356.195129394531

> <r_mmod_Solvation_Energy-OPLS-2005>
-209.395034790039

> <b_mmod_Minimization_Converged-OPLS-2005>
0

> <r_mmod_RMS_Derivative-OPLS-2005>
5.79036235809326

$$$$
38
                    3D
 Structure written by MMmdl.
155163  0  0  1  0            999 V2000
  -30.5381  -14.9896   20.3380 C   0  0  0  0  0  0
  -30.4554  -12.5918   19.4726 C   0  0  0  0  0  0
  -29.5165  -12.4002   18.2569 C   0  0  0  0  0  0
  -28.0437  -12.2524   18.6872 C   0  0  0  0  0  0
  -27.6214  -13.2233   19.8207 C   0  0  2  0  0  0
  -28.6846  -13.3164   20.9334 C   0  0  0  0  0  0
  -25.2491  -13.8149   20.5783 C   0  0  0  0  0  0
  -24.1773  -13.0406   20.9253 C   0  0  0  0  0  0
  -24.6361  -11.6884   20.8801 C   0  0  0  0  0  0
  -23.9042  -10.4273   21.0434 C   0  0  0  0  0  0
  -24.3601   -9.4187   21.9201 C   0  0  0  0  0  0
  -23.6280   -8.2222   22.0759 C   0  0  0  0  0  0
  -22.4264   -8.0266   21.3545 C   0  0  0  0  0  0
  -21.9899   -9.0240   20.4649 C   0  0  0  0  0  0
  -22.7223  -10.2122   20.3071 C   0  0  0  0  0  0
  -21.6844   -6.0729   22.5281 C   0  0  0  0  0  0
  -21.4009   -6.5635   23.8213 C   0  0  0  0  0  0
  -21.3658   -5.6791   24.9177 C   0  0  0  0  0  0
  -21.6047   -4.3055   24.7229 C   0  0  0  0  0  0
  -21.8818   -3.8143   23.4351 C   0  0  0  0  0  0
  -21.9191   -4.6958   22.3406 C   0  0  0  0  0  0
  -22.7802  -13.5205   21.1887 C   0  0  0  0  0  0
  -22.1659   -4.2145   21.0983 F   0  0  0  0  0  0
  -21.5630   -3.4540   25.7741 F   0  0  0  0  0  0
  -29.9386  -13.7249   20.2832 N   0  0  0  0  0  0
  -26.2880  -12.9328   20.3305 N   0  0  0  0  0  0
  -25.9291  -11.6493   20.5836 N   0  0  0  0  0  0
  -22.0434  -12.8207   22.0436 N   0  0  0  0  0  0
  -25.4195  -15.1874   20.4261 N   0  0  0  0  0  0
  -31.7738  -15.0086   20.3299 O   0  0  0  0  0  0
  -21.6628   -6.8865   21.4240 O   0  0  0  0  0  0
  -22.3507  -14.5511   20.6718 O   0  0  0  0  0  0
  -24.6423  -31.8458   23.1896 C   0  0  0  0  0  0
  -25.9200  -32.4705   23.8283 C   0  0  1  0  0  0
  -27.2214  -27.1488   20.1558 C   0  0  0  0  0  0
  -25.5953  -33.8511   24.2202 N   0  0  0  0  0  0
  -23.4460  -30.4647   21.5352 C   0  0  2  0  0  0
  -24.8978  -28.8937   20.1133 C   0  0  0  0  0  0
  -22.7565  -29.4554   22.4869 C   0  0  0  0  0  0
  -18.0306  -28.1398   22.8481 C   0  0  0  0  0  0
  -24.1490  -36.7257   23.2641 C   0  0  0  0  0  0
  -26.0017  -30.7229   21.3887 C   0  0  0  0  0  0
  -26.0748  -29.3347   20.7325 C   0  0  0  0  0  0
  -27.2393  -28.4790   20.7362 C   0  0  0  0  0  0
  -26.0231  -26.8137   19.4877 C   0  0  0  0  0  0
  -24.8842  -27.6456   19.4748 C   0  0  0  0  0  0
  -23.6734  -29.7939   20.1551 C   0  0  0  0  0  0
  -25.4124  -36.3038   24.0316 C   0  0  1  0  0  0
  -20.5918  -28.3724   23.1239 C   0  0  2  0  0  0
  -20.6792  -26.9426   22.5405 C   0  0  0  0  0  0
  -19.5763  -26.6383   21.5218 C   0  0  0  0  0  0
  -18.1945  -26.7939   22.1626 C   0  0  0  0  0  0
  -19.1562  -28.8880   23.2853 C   0  0  0  0  0  0
  -18.9478  -30.1478   23.8875 C   0  0  0  0  0  0
  -17.6473  -30.6593   24.0561 C   0  0  0  0  0  0
  -25.9071  -34.9411   23.5067 C   0  0  0  0  0  0
  -16.5364  -29.9085   23.6337 C   0  0  0  0  0  0
  -16.7290  -28.6507   23.0355 C   0  0  0  0  0  0
  -26.4526  -31.6568   25.0719 C   0  0  0  0  0  0
  -25.3712  -31.3754   26.1413 C   0  0  0  0  0  0
  -27.0393  -30.2964   24.6297 C   0  0  0  0  0  0
  -27.6056  -32.4332   25.7505 C   0  0  0  0  0  0
  -27.5581  -37.1782   24.8464 C   0  0  0  0  0  0
  -21.4258  -29.3050   22.3612 N   0  0  0  0  0  0
  -26.4289  -37.3750   23.9411 N   0  0  0  0  0  0
  -24.7162  -31.0320   22.0928 N   0  0  0  0  0  0
  -23.4211  -28.8104   23.3018 O   0  0  0  0  0  0
  -28.2716  -26.1628   20.1946 O   0  0  0  0  0  0
  -26.5656  -34.8906   22.4645 O   0  0  0  0  0  0
  -23.5542  -32.1330   23.7116 O   0  0  0  0  0  0
  -30.4914  -18.6926   19.6853 C   0  0  0  0  0  0
  -30.1758  -20.1138   19.7829 C   0  0  0  0  0  0
  -28.7110  -18.1726   21.1432 C   0  0  0  0  0  0
  -29.7630  -17.6247   20.3337 C   0  0  0  0  0  0
  -29.0770  -20.6414   20.5399 C   0  0  0  0  0  0
  -28.3794  -19.5862   21.2283 C   0  0  0  0  0  0
  -29.3267  -16.0664   18.6161 C   0  0  0  0  0  0
  -28.8862  -23.3806   20.1879 C   0  0  0  0  0  0
  -28.0265  -16.7949   18.2616 C   0  0  0  0  0  0
  -27.9313  -24.6854   20.5451 C   0  0  0  0  0  0
  -27.2667  -19.9433   21.9931 N   0  0  0  0  0  0
  -28.5849  -22.0856   20.6728 N   0  0  0  0  0  0
  -29.8137  -16.1505   19.8852 N   0  0  0  0  0  0
  -29.9482  -15.5563   17.6796 O   0  0  0  0  0  0
  -29.8749  -23.5579   19.4711 O   0  0  0  0  0  0
  -31.4728  -12.7797   19.1263 H   0  0  0  0  0  0
  -30.5015  -11.6818   20.0736 H   0  0  0  0  0  0
  -29.8198  -11.5111   17.7031 H   0  0  0  0  0  0
  -29.6144  -13.2125   17.5454 H   0  0  0  0  0  0
  -27.9217  -11.2248   19.0310 H   0  0  0  0  0  0
  -27.3829  -12.3600   17.8260 H   0  0  0  0  0  0
  -27.5457  -14.1974   19.3497 H   0  0  0  0  0  0
  -28.7971  -12.3653   21.4560 H   0  0  0  0  0  0
  -28.3900  -14.0551   21.6807 H   0  0  0  0  0  0
  -25.2740   -9.5660   22.4784 H   0  0  0  0  0  0
  -23.9987   -7.4606   22.7473 H   0  0  0  0  0  0
  -21.0833   -8.8754   19.8950 H   0  0  0  0  0  0
  -22.3676  -10.9667   19.6188 H   0  0  0  0  0  0
  -21.1996   -7.6141   23.9714 H   0  0  0  0  0  0
  -21.1483   -6.0522   25.9079 H   0  0  0  0  0  0
  -22.0599   -2.7605   23.2853 H   0  0  0  0  0  0
  -22.4039  -11.9866   22.4826 H   0  0  0  0  0  0
  -21.1054  -13.1246   22.2632 H   0  0  0  0  0  0
  -24.6556  -15.8409   20.5610 H   0  0  0  0  0  0
  -26.2844  -15.6369   20.1637 H   0  0  0  0  0  0
  -26.7267  -32.5320   23.1015 H   0  0  0  0  0  0
  -25.0082  -33.9631   25.0338 H   0  0  0  0  0  0
  -22.7480  -31.2901   21.3804 H   0  0  0  0  0  0
  -23.3759  -35.9581   23.3285 H   0  0  0  0  0  0
  -24.3577  -36.8907   22.2060 H   0  0  0  0  0  0
  -23.7233  -37.6443   23.6688 H   0  0  0  0  0  0
  -26.1562  -31.4772   20.6160 H   0  0  0  0  0  0
  -26.8724  -30.7741   22.0306 H   0  0  0  0  0  0
  -28.1365  -28.8129   21.2383 H   0  0  0  0  0  0
  -25.9422  -25.8709   18.9682 H   0  0  0  0  0  0
  -23.9900  -27.3062   18.9701 H   0  0  0  0  0  0
  -23.8088  -30.5681   19.3993 H   0  0  0  0  0  0
  -22.7895  -29.2344   19.8442 H   0  0  0  0  0  0
  -25.1309  -36.1866   25.0807 H   0  0  0  0  0  0
  -21.0014  -28.3313   24.1359 H   0  0  0  0  0  0
  -20.5692  -26.2336   23.3625 H   0  0  0  0  0  0
  -21.6655  -26.7436   22.1197 H   0  0  0  0  0  0
  -19.6920  -25.6288   21.1260 H   0  0  0  0  0  0
  -19.6698  -27.3184   20.6741 H   0  0  0  0  0  0
  -17.4213  -26.6688   21.4029 H   0  0  0  0  0  0
  -18.0338  -26.0088   22.9028 H   0  0  0  0  0  0
  -19.7949  -30.7307   24.2228 H   0  0  0  0  0  0
  -17.5020  -31.6270   24.5169 H   0  0  0  0  0  0
  -15.5363  -30.2976   23.7677 H   0  0  0  0  0  0
  -15.8693  -28.0819   22.7077 H   0  0  0  0  0  0
  -24.5892  -30.7105   25.7731 H   0  0  0  0  0  0
  -24.8900  -32.2936   26.4791 H   0  0  0  0  0  0
  -25.7991  -30.8954   27.0223 H   0  0  0  0  0  0
  -26.3013  -29.6683   24.1293 H   0  0  0  0  0  0
  -27.4000  -29.7265   25.4871 H   0  0  0  0  0  0
  -27.8923  -30.4203   23.9621 H   0  0  0  0  0  0
  -27.2649  -33.3650   26.2030 H   0  0  0  0  0  0
  -28.3895  -32.6864   25.0355 H   0  0  0  0  0  0
  -28.0693  -31.8491   26.5464 H   0  0  0  0  0  0
  -28.2577  -38.0098   24.7525 H   0  0  0  0  0  0
  -28.1096  -36.2627   24.6269 H   0  0  0  0  0  0
  -27.2298  -37.1402   25.8864 H   0  0  0  0  0  0
  -20.9470  -29.8761   21.6787 H   0  0  0  0  0  0
  -26.0153  -38.2814   24.1424 H   0  0  0  0  0  0
  -31.2904  -18.4174   19.0112 H   0  0  0  0  0  0
  -30.7819  -20.8072   19.2173 H   0  0  0  0  0  0
  -28.0626  -17.4696   21.6465 H   0  0  0  0  0  0
  -27.3492  -16.8488   19.1116 H   0  0  0  0  0  0
  -27.5086  -16.2670   17.4608 H   0  0  0  0  0  0
  -28.2373  -17.8070   17.9172 H   0  0  0  0  0  0
  -27.7913  -24.6653   21.6259 H   0  0  0  0  0  0
  -26.9567  -24.4248   20.1394 H   0  0  0  0  0  0
  -26.6877  -19.1796   22.3268 H   0  0  0  0  0  0
  -26.6854  -20.6898   21.6315 H   0  0  0  0  0  0
  -27.7933  -22.1256   21.2987 H   0  0  0  0  0  0
  1 25  1  0  0  0
  1 30  2  0  0  0
  1 83  1  0  0  0
  2  3  1  0  0  0
  2 25  1  0  0  0
  2 86  1  0  0  0
  2 87  1  0  0  0
  3  4  1  0  0  0
  3 88  1  0  0  0
  3 89  1  0  0  0
  4  5  1  0  0  0
  4 90  1  0  0  0
  4 91  1  0  0  0
  5  6  1  0  0  0
  5 26  1  0  0  0
  5 92  1  0  0  0
  6 25  1  0  0  0
  6 93  1  0  0  0
  6 94  1  0  0  0
  7  8  2  0  0  0
  7 26  1  0  0  0
  7 29  1  0  0  0
  8  9  1  0  0  0
  8 22  1  0  0  0
  9 10  1  0  0  0
  9 27  2  0  0  0
 10 11  2  0  0  0
 10 15  1  0  0  0
 11 12  1  0  0  0
 11 95  1  0  0  0
 12 13  2  0  0  0
 12 96  1  0  0  0
 13 14  1  0  0  0
 13 31  1  0  0  0
 14 15  2  0  0  0
 14 97  1  0  0  0
 15 98  1  0  0  0
 16 17  2  0  0  0
 16 21  1  0  0  0
 16 31  1  0  0  0
 17 18  1  0  0  0
 17 99  1  0  0  0
 18 19  2  0  0  0
 18100  1  0  0  0
 19 20  1  0  0  0
 19 24  1  0  0  0
 20 21  2  0  0  0
 20101  1  0  0  0
 21 23  1  0  0  0
 22 28  1  0  0  0
 22 32  2  0  0  0
 26 27  1  0  0  0
 28102  1  0  0  0
 28103  1  0  0  0
 29104  1  0  0  0
 29105  1  0  0  0
 33 34  1  0  0  0
 33 66  1  0  0  0
 33 70  2  0  0  0
 34 36  1  0  0  0
 34 59  1  0  0  0
 34106  1  0  0  0
 35 44  2  0  0  0
 35 45  1  0  0  0
 35 68  1  0  0  0
 36 56  1  0  0  0
 36107  1  0  0  0
 37 39  1  0  0  0
 37 47  1  0  0  0
 37 66  1  0  0  0
 37108  1  0  0  0
 38 43  2  0  0  0
 38 46  1  0  0  0
 38 47  1  0  0  0
 39 64  1  0  0  0
 39 67  2  0  0  0
 40 52  1  0  0  0
 40 53  2  0  0  0
 40 58  1  0  0  0
 41109  1  0  0  0
 41110  1  0  0  0
 41111  1  0  0  0
 41 48  1  0  0  0
 42 43  1  0  0  0
 42 66  1  0  0  0
 42112  1  0  0  0
 42113  1  0  0  0
 43 44  1  0  0  0
 44114  1  0  0  0
 45 46  2  0  0  0
 45115  1  0  0  0
 46116  1  0  0  0
 47117  1  0  0  0
 47118  1  0  0  0
 48 56  1  0  0  0
 48 65  1  0  0  0
 48119  1  0  0  0
 49 50  1  0  0  0
 49 53  1  0  0  0
 49 64  1  0  0  0
 49120  1  0  0  0
 50 51  1  0  0  0
 50121  1  0  0  0
 50122  1  0  0  0
 51 52  1  0  0  0
 51123  1  0  0  0
 51124  1  0  0  0
 52125  1  0  0  0
 52126  1  0  0  0
 53 54  1  0  0  0
 54 55  2  0  0  0
 54127  1  0  0  0
 55 57  1  0  0  0
 55128  1  0  0  0
 56 69  2  0  0  0
 57 58  2  0  0  0
 57129  1  0  0  0
 58130  1  0  0  0
 59 60  1  0  0  0
 59 61  1  0  0  0
 59 62  1  0  0  0
 60131  1  0  0  0
 60132  1  0  0  0
 60133  1  0  0  0
 61134  1  0  0  0
 61135  1  0  0  0
 61136  1  0  0  0
 62137  1  0  0  0
 62138  1  0  0  0
 62139  1  0  0  0
 63 65  1  0  0  0
 63140  1  0  0  0
 63141  1  0  0  0
 63142  1  0  0  0
 64143  1  0  0  0
 65144  1  0  0  0
 68 80  1  0  0  0
 71 72  2  0  0  0
 71 74  1  0  0  0
 71145  1  0  0  0
 72 75  1  0  0  0
 72146  1  0  0  0
 73 74  2  0  0  0
 73 76  1  0  0  0
 73147  1  0  0  0
 74 83  1  0  0  0
 75 76  2  0  0  0
 75 82  1  0  0  0
 76 81  1  0  0  0
 77 79  1  0  0  0
 77 83  1  0  0  0
 77 84  2  0  0  0
 78 80  1  0  0  0
 78 82  1  0  0  0
 78 85  2  0  0  0
 79148  1  0  0  0
 79149  1  0  0  0
 79150  1  0  0  0
 80151  1  0  0  0
 80152  1  0  0  0
 81153  1  0  0  0
 81154  1  0  0  0
 82155  1  0  0  0
M  ISO  4   1 100  68 101  80 101  83 100
M  END
> <chiral flag>
0

> <version>
0

> <s_m_source_file>
/data/baiqing/PycharmProjects/Reinvent-master-3.2/result/LINK_invent/BTK/process_docking_weight1_custom_product_contain_oxygen_bond_distance_aromatic_linkinvent_7_9_3/rearranged_h_0095.sdf

> <i_m_source_file_index>
39

> <r_mmod_Potential_Energy-OPLS-2005>
590.216796875

> <r_mmod_Stretch_Energy-OPLS-2005>
229.658172607422

> <r_mmod_Bend_Energy-OPLS-2005>
257.123352050781

> <r_mmod_Torsional_Energy-OPLS-2005>
373.432739257812

> <r_mmod_Improper_Torsional_Energy-OPLS-2005>
28.3141098022461

> <r_mmod_Van_der_Waal_Energy-OPLS-2005>
143.208374023438

> <r_mmod_Electrostatic_Energy-OPLS-2005>
-406.374328613281

> <r_mmod_Solvation_Energy-OPLS-2005>
-251.432067871094

> <b_mmod_Minimization_Converged-OPLS-2005>
0

> <r_mmod_RMS_Derivative-OPLS-2005>
0.671931743621826

$$$$
39
                    3D
 Structure written by MMmdl.
152160  0  0  1  0            999 V2000
  -30.6182  -14.6389   20.5220 C   0  0  0  0  0  0
  -30.4419  -12.3974   19.4511 C   0  0  0  0  0  0
  -29.5090  -12.5178   18.2250 C   0  0  0  0  0  0
  -28.0324  -12.3513   18.6360 C   0  0  0  0  0  0
  -27.6568  -13.2158   19.8686 C   0  0  2  0  0  0
  -28.7004  -13.0548   20.9972 C   0  0  0  0  0  0
  -25.2573  -13.8168   20.5682 C   0  0  0  0  0  0
  -24.1836  -13.0436   20.9182 C   0  0  0  0  0  0
  -24.6401  -11.6906   20.8733 C   0  0  0  0  0  0
  -23.9067  -10.4291   21.0403 C   0  0  0  0  0  0
  -24.3617   -9.4207   21.9183 C   0  0  0  0  0  0
  -23.6289   -8.2244   22.0753 C   0  0  0  0  0  0
  -22.4273   -8.0281   21.3542 C   0  0  0  0  0  0
  -21.9907   -9.0258   20.4648 C   0  0  0  0  0  0
  -22.7237  -10.2136   20.3056 C   0  0  0  0  0  0
  -21.6852   -6.0735   22.5278 C   0  0  0  0  0  0
  -21.4015   -6.5640   23.8211 C   0  0  0  0  0  0
  -21.3659   -5.6793   24.9173 C   0  0  0  0  0  0
  -21.6044   -4.3055   24.7225 C   0  0  0  0  0  0
  -21.8819   -3.8147   23.4345 C   0  0  0  0  0  0
  -21.9193   -4.6962   22.3401 C   0  0  0  0  0  0
  -22.7858  -13.5234   21.1847 C   0  0  0  0  0  0
  -22.1661   -4.2148   21.0979 F   0  0  0  0  0  0
  -21.5627   -3.4540   25.7737 F   0  0  0  0  0  0
  -30.0179  -13.4079   20.4415 N   0  0  0  0  0  0
  -26.3006  -12.9348   20.3335 N   0  0  0  0  0  0
  -25.9332  -11.6503   20.5760 N   0  0  0  0  0  0
  -22.0501  -12.8231   22.0406 N   0  0  0  0  0  0
  -25.4293  -15.1888   20.4098 N   0  0  0  0  0  0
  -31.7568  -14.8302   20.0835 O   0  0  0  0  0  0
  -21.6637   -6.8879   21.4239 O   0  0  0  0  0  0
  -22.3546  -14.5542   20.6697 O   0  0  0  0  0  0
  -24.6267  -31.8598   23.2033 C   0  0  0  0  0  0
  -25.9114  -32.4779   23.8359 C   0  0  1  0  0  0
  -27.2239  -27.3144   20.1123 C   0  0  0  0  0  0
  -25.5928  -33.8580   24.2283 N   0  0  0  0  0  0
  -23.4206  -30.4845   21.5458 C   0  0  2  0  0  0
  -24.8673  -28.9425   20.1094 C   0  0  0  0  0  0
  -22.7479  -29.4624   22.4930 C   0  0  0  0  0  0
  -18.0288  -28.1386   22.8485 C   0  0  0  0  0  0
  -24.1490  -36.7296   23.2638 C   0  0  0  0  0  0
  -25.9631  -30.7878   21.3770 C   0  0  0  0  0  0
  -26.0365  -29.4156   20.7179 C   0  0  0  0  0  0
  -27.2164  -28.6121   20.7134 C   0  0  0  0  0  0
  -26.0318  -26.9041   19.4678 C   0  0  0  0  0  0
  -24.8673  -27.6921   19.4760 C   0  0  0  0  0  0
  -23.6358  -29.8228   20.1601 C   0  0  0  0  0  0
  -25.4114  -36.3084   24.0328 C   0  0  1  0  0  0
  -20.5889  -28.3691   23.1279 C   0  0  2  0  0  0
  -20.6777  -26.9413   22.5410 C   0  0  0  0  0  0
  -19.5753  -26.6384   21.5212 C   0  0  0  0  0  0
  -18.1933  -26.7928   22.1624 C   0  0  0  0  0  0
  -19.1541  -28.8855   23.2878 C   0  0  0  0  0  0
  -18.9463  -30.1456   23.8895 C   0  0  0  0  0  0
  -17.6463  -30.6586   24.0564 C   0  0  0  0  0  0
  -25.9051  -34.9452   23.5105 C   0  0  0  0  0  0
  -16.5354  -29.9086   23.6329 C   0  0  0  0  0  0
  -16.7275  -28.6504   23.0348 C   0  0  0  0  0  0
  -26.4498  -31.6588   25.0728 C   0  0  0  0  0  0
  -25.3733  -31.3728   26.1457 C   0  0  0  0  0  0
  -27.0339  -30.3010   24.6186 C   0  0  0  0  0  0
  -27.6057  -32.4323   25.7497 C   0  0  0  0  0  0
  -27.5581  -37.1803   24.8464 C   0  0  0  0  0  0
  -21.4192  -29.3044   22.3672 N   0  0  0  0  0  0
  -26.4293  -37.3778   23.9408 N   0  0  0  0  0  0
  -24.6889  -31.0606   22.0987 N   0  0  0  0  0  0
  -23.4201  -28.8158   23.3008 O   0  0  0  0  0  0
  -28.3337  -26.4520   20.1772 O   0  0  0  0  0  0
  -26.5619  -34.8918   22.4671 O   0  0  0  0  0  0
  -23.5429  -32.1397   23.7357 O   0  0  0  0  0  0
  -30.0373  -17.9160   22.0614 C   0  0  0  0  0  0
  -29.5710  -19.2123   19.6256 C   0  0  0  0  0  0
  -29.9233  -19.3367   22.0071 C   0  0  0  0  0  0
  -29.9290  -17.1011   20.9050 C   0  0  0  0  0  0
  -29.6733  -20.0276   20.7898 C   0  0  0  0  0  0
  -29.6927  -17.7858   19.6808 C   0  0  0  0  0  0
  -29.1164  -23.9553   20.4547 C   0  0  0  0  0  0
  -28.9668  -22.4056   20.0209 C   0  0  0  0  0  0
  -28.1073  -25.0149   19.8615 C   0  0  0  0  0  0
  -30.0281  -20.0682   23.1917 N   0  0  0  0  0  0
  -29.5975  -21.4940   20.8247 N   0  0  0  0  0  0
  -29.8511  -15.6465   21.0364 N   0  0  0  0  0  0
  -29.9961  -24.3088   21.2511 O   0  0  0  0  0  0
  -28.3176  -22.0788   19.0218 O   0  0  0  0  0  0
  -29.5306  -17.0650   18.5448 F   0  0  0  0  0  0
  -31.4822  -12.5295   19.1485 H   0  0  0  0  0  0
  -30.3825  -11.3973   19.8835 H   0  0  0  0  0  0
  -29.7738  -11.7724   17.4741 H   0  0  0  0  0  0
  -29.6489  -13.4913   17.7520 H   0  0  0  0  0  0
  -27.8703  -11.2968   18.8625 H   0  0  0  0  0  0
  -27.3773  -12.5853   17.7959 H   0  0  0  0  0  0
  -27.6808  -14.2544   19.5377 H   0  0  0  0  0  0
  -28.7128  -12.0266   21.3615 H   0  0  0  0  0  0
  -28.4392  -13.6670   21.8613 H   0  0  0  0  0  0
  -25.2764   -9.5681   22.4756 H   0  0  0  0  0  0
  -23.9996   -7.4637   22.7475 H   0  0  0  0  0  0
  -21.0834   -8.8782   19.8959 H   0  0  0  0  0  0
  -22.3696  -10.9677   19.6166 H   0  0  0  0  0  0
  -21.2009   -7.6149   23.9714 H   0  0  0  0  0  0
  -21.1480   -6.0523   25.9076 H   0  0  0  0  0  0
  -22.0598   -2.7608   23.2847 H   0  0  0  0  0  0
  -22.4112  -11.9891   22.4794 H   0  0  0  0  0  0
  -21.1124  -13.1270   22.2622 H   0  0  0  0  0  0
  -24.6619  -15.8435   20.5142 H   0  0  0  0  0  0
  -26.2790  -15.6257   20.0753 H   0  0  0  0  0  0
  -26.7182  -32.5447   23.1107 H   0  0  0  0  0  0
  -25.0074  -33.9726   25.0427 H   0  0  0  0  0  0
  -22.7146  -31.3055   21.4041 H   0  0  0  0  0  0
  -23.3749  -35.9633   23.3304 H   0  0  0  0  0  0
  -24.3581  -36.8913   22.2052 H   0  0  0  0  0  0
  -23.7249  -37.6501   23.6658 H   0  0  0  0  0  0
  -26.0972  -31.5514   20.6095 H   0  0  0  0  0  0
  -26.8429  -30.8351   22.0071 H   0  0  0  0  0  0
  -28.1107  -28.9687   21.2053 H   0  0  0  0  0  0
  -25.9627  -25.9573   18.9536 H   0  0  0  0  0  0
  -23.9736  -27.3269   18.9887 H   0  0  0  0  0  0
  -23.7562  -30.6011   19.4058 H   0  0  0  0  0  0
  -22.7554  -29.2538   19.8556 H   0  0  0  0  0  0
  -25.1294  -36.1938   25.0821 H   0  0  0  0  0  0
  -20.9983  -28.3269   24.1399 H   0  0  0  0  0  0
  -20.5678  -26.2302   23.3611 H   0  0  0  0  0  0
  -21.6646  -26.7441   22.1204 H   0  0  0  0  0  0
  -19.6915  -25.6294   21.1242 H   0  0  0  0  0  0
  -19.6690  -27.3193   20.6742 H   0  0  0  0  0  0
  -17.4202  -26.6672   21.4028 H   0  0  0  0  0  0
  -18.0336  -26.0071   22.9022 H   0  0  0  0  0  0
  -19.7940  -30.7273   24.2263 H   0  0  0  0  0  0
  -17.5018  -31.6265   24.5168 H   0  0  0  0  0  0
  -15.5355  -30.2988   23.7652 H   0  0  0  0  0  0
  -15.8676  -28.0825   22.7060 H   0  0  0  0  0  0
  -24.5908  -30.7075   25.7790 H   0  0  0  0  0  0
  -24.8925  -32.2895   26.4881 H   0  0  0  0  0  0
  -25.8061  -30.8908   27.0232 H   0  0  0  0  0  0
  -26.2912  -29.6760   24.1212 H   0  0  0  0  0  0
  -27.4036  -29.7267   25.4692 H   0  0  0  0  0  0
  -27.8785  -30.4293   23.9412 H   0  0  0  0  0  0
  -27.2667  -33.3621   26.2078 H   0  0  0  0  0  0
  -28.3864  -32.6888   25.0322 H   0  0  0  0  0  0
  -28.0730  -31.8446   26.5409 H   0  0  0  0  0  0
  -28.2600  -38.0098   24.7507 H   0  0  0  0  0  0
  -28.1074  -36.2629   24.6293 H   0  0  0  0  0  0
  -27.2298  -37.1457   25.8867 H   0  0  0  0  0  0
  -20.9369  -29.8773   21.6888 H   0  0  0  0  0  0
  -26.0174  -38.2854   24.1406 H   0  0  0  0  0  0
  -30.1836  -17.4333   23.0169 H   0  0  0  0  0  0
  -29.3902  -19.6730   18.6664 H   0  0  0  0  0  0
  -27.1311  -24.7114   20.2395 H   0  0  0  0  0  0
  -28.0828  -24.8936   18.7784 H   0  0  0  0  0  0
  -29.9937  -19.5416   24.0590 H   0  0  0  0  0  0
  -29.4667  -20.9098   23.2579 H   0  0  0  0  0  0
  -30.0482  -21.9140   21.6274 H   0  0  0  0  0  0
  -29.0037  -15.3143   21.4698 H   0  0  0  0  0  0
  1 25  1  0  0  0
  1 30  2  0  0  0
  1 82  1  0  0  0
  2  3  1  0  0  0
  2 25  1  0  0  0
  2 86  1  0  0  0
  2 87  1  0  0  0
  3  4  1  0  0  0
  3 88  1  0  0  0
  3 89  1  0  0  0
  4  5  1  0  0  0
  4 90  1  0  0  0
  4 91  1  0  0  0
  5  6  1  0  0  0
  5 26  1  0  0  0
  5 92  1  0  0  0
  6 25  1  0  0  0
  6 93  1  0  0  0
  6 94  1  0  0  0
  7  8  2  0  0  0
  7 26  1  0  0  0
  7 29  1  0  0  0
  8  9  1  0  0  0
  8 22  1  0  0  0
  9 10  1  0  0  0
  9 27  2  0  0  0
 10 11  2  0  0  0
 10 15  1  0  0  0
 11 12  1  0  0  0
 11 95  1  0  0  0
 12 13  2  0  0  0
 12 96  1  0  0  0
 13 14  1  0  0  0
 13 31  1  0  0  0
 14 15  2  0  0  0
 14 97  1  0  0  0
 15 98  1  0  0  0
 16 17  2  0  0  0
 16 21  1  0  0  0
 16 31  1  0  0  0
 17 18  1  0  0  0
 17 99  1  0  0  0
 18 19  2  0  0  0
 18100  1  0  0  0
 19 20  1  0  0  0
 19 24  1  0  0  0
 20 21  2  0  0  0
 20101  1  0  0  0
 21 23  1  0  0  0
 22 28  1  0  0  0
 22 32  2  0  0  0
 26 27  1  0  0  0
 28102  1  0  0  0
 28103  1  0  0  0
 29104  1  0  0  0
 29105  1  0  0  0
 33 34  1  0  0  0
 33 66  1  0  0  0
 33 70  2  0  0  0
 34 36  1  0  0  0
 34 59  1  0  0  0
 34106  1  0  0  0
 35 44  2  0  0  0
 35 45  1  0  0  0
 35 68  1  0  0  0
 36 56  1  0  0  0
 36107  1  0  0  0
 37 39  1  0  0  0
 37 47  1  0  0  0
 37 66  1  0  0  0
 37108  1  0  0  0
 38 43  2  0  0  0
 38 46  1  0  0  0
 38 47  1  0  0  0
 39 64  1  0  0  0
 39 67  2  0  0  0
 40 52  1  0  0  0
 40 53  2  0  0  0
 40 58  1  0  0  0
 41109  1  0  0  0
 41110  1  0  0  0
 41111  1  0  0  0
 41 48  1  0  0  0
 42 43  1  0  0  0
 42 66  1  0  0  0
 42112  1  0  0  0
 42113  1  0  0  0
 43 44  1  0  0  0
 44114  1  0  0  0
 45 46  2  0  0  0
 45115  1  0  0  0
 46116  1  0  0  0
 47117  1  0  0  0
 47118  1  0  0  0
 48 56  1  0  0  0
 48 65  1  0  0  0
 48119  1  0  0  0
 49 50  1  0  0  0
 49 53  1  0  0  0
 49 64  1  0  0  0
 49120  1  0  0  0
 50 51  1  0  0  0
 50121  1  0  0  0
 50122  1  0  0  0
 51 52  1  0  0  0
 51123  1  0  0  0
 51124  1  0  0  0
 52125  1  0  0  0
 52126  1  0  0  0
 53 54  1  0  0  0
 54 55  2  0  0  0
 54127  1  0  0  0
 55 57  1  0  0  0
 55128  1  0  0  0
 56 69  2  0  0  0
 57 58  2  0  0  0
 57129  1  0  0  0
 58130  1  0  0  0
 59 60  1  0  0  0
 59 61  1  0  0  0
 59 62  1  0  0  0
 60131  1  0  0  0
 60132  1  0  0  0
 60133  1  0  0  0
 61134  1  0  0  0
 61135  1  0  0  0
 61136  1  0  0  0
 62137  1  0  0  0
 62138  1  0  0  0
 62139  1  0  0  0
 63 65  1  0  0  0
 63140  1  0  0  0
 63141  1  0  0  0
 63142  1  0  0  0
 64143  1  0  0  0
 65144  1  0  0  0
 68 79  1  0  0  0
 71 73  2  0  0  0
 71 74  1  0  0  0
 71145  1  0  0  0
 72 75  2  0  0  0
 72 76  1  0  0  0
 72146  1  0  0  0
 73 75  1  0  0  0
 73 80  1  0  0  0
 74 76  2  0  0  0
 74 82  1  0  0  0
 75 81  1  0  0  0
 76 85  1  0  0  0
 77 78  1  0  0  0
 77 79  1  0  0  0
 77 83  2  0  0  0
 78 81  1  0  0  0
 78 84  2  0  0  0
 79147  1  0  0  0
 79148  1  0  0  0
 80149  1  0  0  0
 80150  1  0  0  0
 81151  1  0  0  0
 82152  1  0  0  0
M  ISO  4   1 100  68 101  79 101  82 100
M  END
> <chiral flag>
0

> <version>
0

> <s_m_source_file>
/data/baiqing/PycharmProjects/Reinvent-master-3.2/result/LINK_invent/BTK/process_docking_weight1_custom_product_contain_oxygen_bond_distance_aromatic_linkinvent_7_9_3/rearranged_h_0095.sdf

> <i_m_source_file_index>
40

> <r_mmod_Potential_Energy-OPLS-2005>
-17.2929630279541

> <r_mmod_Stretch_Energy-OPLS-2005>
83.5726699829102

> <r_mmod_Bend_Energy-OPLS-2005>
135.093780517578

> <r_mmod_Torsional_Energy-OPLS-2005>
251.525985717773

> <r_mmod_Improper_Torsional_Energy-OPLS-2005>
8.3425235748291

> <r_mmod_Van_der_Waal_Energy-OPLS-2005>
146.209381103516

> <r_mmod_Electrostatic_Energy-OPLS-2005>
-440.282653808594

> <r_mmod_Solvation_Energy-OPLS-2005>
-251.822723388672

> <b_mmod_Minimization_Converged-OPLS-2005>
0

> <r_mmod_RMS_Derivative-OPLS-2005>
0.323427885770798

$$$$
40
                    3D
 Structure written by MMmdl.
154162  0  0  1  0            999 V2000
  -30.4790  -15.2405   20.3739 C   0  0  0  0  0  0
  -30.4393  -12.7979   19.5215 C   0  0  0  0  0  0
  -29.5379  -12.5722   18.2845 C   0  0  0  0  0  0
  -28.0840  -12.3056   18.7109 C   0  0  0  0  0  0
  -27.6140  -13.2772   19.8218 C   0  0  2  0  0  0
  -28.6498  -13.4544   20.9531 C   0  0  0  0  0  0
  -25.2412  -13.8246   20.5754 C   0  0  0  0  0  0
  -24.1760  -13.0437   20.9251 C   0  0  0  0  0  0
  -24.6413  -11.6931   20.8755 C   0  0  0  0  0  0
  -23.9097  -10.4299   21.0407 C   0  0  0  0  0  0
  -24.3643   -9.4215   21.9180 C   0  0  0  0  0  0
  -23.6315   -8.2247   22.0755 C   0  0  0  0  0  0
  -22.4293   -8.0285   21.3549 C   0  0  0  0  0  0
  -21.9941   -9.0261   20.4641 C   0  0  0  0  0  0
  -22.7272  -10.2138   20.3053 C   0  0  0  0  0  0
  -21.6853   -6.0747   22.5279 C   0  0  0  0  0  0
  -21.4014   -6.5642   23.8208 C   0  0  0  0  0  0
  -21.3653   -5.6792   24.9169 C   0  0  0  0  0  0
  -21.6046   -4.3057   24.7216 C   0  0  0  0  0  0
  -21.8818   -3.8159   23.4330 C   0  0  0  0  0  0
  -21.9193   -4.6980   22.3393 C   0  0  0  0  0  0
  -22.7776  -13.5199   21.1879 C   0  0  0  0  0  0
  -22.1664   -4.2169   21.0967 F   0  0  0  0  0  0
  -21.5623   -3.4534   25.7723 F   0  0  0  0  0  0
  -29.8804  -13.9521   20.3172 N   0  0  0  0  0  0
  -26.2836  -12.9526   20.3215 N   0  0  0  0  0  0
  -25.9350  -11.6630   20.5716 N   0  0  0  0  0  0
  -22.0413  -12.8194   22.0429 N   0  0  0  0  0  0
  -25.4046  -15.1984   20.4212 N   0  0  0  0  0  0
  -31.7031  -15.1865   20.1935 O   0  0  0  0  0  0
  -21.6641   -6.8898   21.4244 O   0  0  0  0  0  0
  -22.3452  -14.5488   20.6688 O   0  0  0  0  0  0
  -24.6626  -31.8265   23.1758 C   0  0  0  0  0  0
  -25.9330  -32.4601   23.8198 C   0  0  1  0  0  0
  -27.2164  -26.9430   20.1834 C   0  0  0  0  0  0
  -25.6033  -33.8410   24.2128 N   0  0  0  0  0  0
  -23.4757  -30.4404   21.5217 C   0  0  2  0  0  0
  -24.9307  -28.8293   20.1132 C   0  0  0  0  0  0
  -22.7665  -29.4449   22.4769 C   0  0  0  0  0  0
  -18.0330  -28.1409   22.8474 C   0  0  0  0  0  0
  -24.1474  -36.7148   23.2639 C   0  0  0  0  0  0
  -26.0445  -30.6350   21.4081 C   0  0  0  0  0  0
  -26.1109  -29.2243   20.7562 C   0  0  0  0  0  0
  -27.2463  -28.2978   20.7764 C   0  0  0  0  0  0
  -26.0154  -26.7035   19.4798 C   0  0  0  0  0  0
  -24.9063  -27.5883   19.4567 C   0  0  0  0  0  0
  -23.7188  -29.7592   20.1461 C   0  0  0  0  0  0
  -25.4115  -36.2951   24.0309 C   0  0  1  0  0  0
  -20.5953  -28.3739   23.1193 C   0  0  2  0  0  0
  -20.6792  -26.9424   22.5403 C   0  0  0  0  0  0
  -19.5763  -26.6386   21.5213 C   0  0  0  0  0  0
  -18.1948  -26.7952   22.1628 C   0  0  0  0  0  0
  -19.1586  -28.8902   23.2824 C   0  0  0  0  0  0
  -18.9496  -30.1487   23.8847 C   0  0  0  0  0  0
  -17.6491  -30.6600   24.0552 C   0  0  0  0  0  0
  -25.9092  -34.9347   23.5022 C   0  0  0  0  0  0
  -16.5378  -29.9080   23.6354 C   0  0  0  0  0  0
  -16.7306  -28.6502   23.0370 C   0  0  0  0  0  0
  -26.4605  -31.6530   25.0709 C   0  0  0  0  0  0
  -25.3765  -31.3788   26.1391 C   0  0  0  0  0  0
  -27.0476  -30.2899   24.6414 C   0  0  0  0  0  0
  -27.6121  -32.4313   25.7499 C   0  0  0  0  0  0
  -27.5552  -37.1723   24.8462 C   0  0  0  0  0  0
  -21.4341  -29.3034   22.3533 N   0  0  0  0  0  0
  -26.4243  -37.3707   23.9444 N   0  0  0  0  0  0
  -24.7474  -30.9946   22.0885 N   0  0  0  0  0  0
  -23.4233  -28.8021   23.3001 O   0  0  0  0  0  0
  -28.2246  -25.8466   20.2209 O   0  0  0  0  0  0
  -26.5644  -34.8882   22.4581 O   0  0  0  0  0  0
  -23.5707  -32.1217   23.6880 O   0  0  0  0  0  0
  -30.2339  -20.9911   20.6024 C   0  0  0  0  0  0
  -29.7685  -22.4036   20.5528 C   0  0  0  0  0  0
  -28.1520  -20.2014   20.0749 C   0  0  0  0  0  0
  -29.4938  -19.7371   20.3838 C   0  0  0  0  0  0
  -28.4262  -22.8608   20.2550 C   0  0  0  0  0  0
  -27.6725  -21.6161   20.0151 C   0  0  0  0  0  0
  -31.1497  -18.2276   21.6861 C   0  0  0  0  0  0
  -31.1813  -18.2300   19.1846 C   0  0  0  0  0  0
  -30.2609  -18.1519   20.4213 C   0  0  0  0  0  0
  -26.3308  -21.7790   19.6652 N   0  0  0  0  0  0
  -27.7498  -24.2584   20.2229 N   0  0  0  0  0  0
  -29.7769  -16.5538   20.4350 N   0  0  0  0  0  0
  -31.4601  -12.9929   19.1863 H   0  0  0  0  0  0
  -30.5023  -11.8961   20.1334 H   0  0  0  0  0  0
  -29.9172  -11.7434   17.6851 H   0  0  0  0  0  0
  -29.5767  -13.4559   17.6460 H   0  0  0  0  0  0
  -28.0341  -11.2788   19.0768 H   0  0  0  0  0  0
  -27.4189  -12.3608   17.8489 H   0  0  0  0  0  0
  -27.5288  -14.2441   19.3235 H   0  0  0  0  0  0
  -28.8209  -12.5215   21.4931 H   0  0  0  0  0  0
  -28.2955  -14.1818   21.6851 H   0  0  0  0  0  0
  -25.2786   -9.5686   22.4754 H   0  0  0  0  0  0
  -24.0011   -7.4649   22.7481 H   0  0  0  0  0  0
  -21.0869   -8.8797   19.8957 H   0  0  0  0  0  0
  -22.3735  -10.9680   19.6161 H   0  0  0  0  0  0
  -21.2010   -7.6150   23.9719 H   0  0  0  0  0  0
  -21.1467   -6.0516   25.9070 H   0  0  0  0  0  0
  -22.0603   -2.7624   23.2814 H   0  0  0  0  0  0
  -22.4024  -11.9873   22.4846 H   0  0  0  0  0  0
  -21.1019  -13.1217   22.2592 H   0  0  0  0  0  0
  -24.6359  -15.8494   20.5440 H   0  0  0  0  0  0
  -26.2481  -15.6441   20.0854 H   0  0  0  0  0  0
  -26.7391  -32.5166   23.0901 H   0  0  0  0  0  0
  -25.0319  -33.9500   25.0372 H   0  0  0  0  0  0
  -22.7871  -31.2717   21.3533 H   0  0  0  0  0  0
  -23.3782  -35.9427   23.3266 H   0  0  0  0  0  0
  -24.3566  -36.8811   22.2059 H   0  0  0  0  0  0
  -23.7160  -37.6310   23.6685 H   0  0  0  0  0  0
  -26.2235  -31.3758   20.6278 H   0  0  0  0  0  0
  -26.9061  -30.6950   22.0604 H   0  0  0  0  0  0
  -28.1388  -28.5953   21.3086 H   0  0  0  0  0  0
  -25.9037  -25.7632   18.9605 H   0  0  0  0  0  0
  -24.0134  -27.2840   18.9272 H   0  0  0  0  0  0
  -23.8826  -30.5317   19.3932 H   0  0  0  0  0  0
  -22.8282  -29.2179   19.8218 H   0  0  0  0  0  0
  -25.1302  -36.1741   25.0796 H   0  0  0  0  0  0
  -21.0049  -28.3337   24.1309 H   0  0  0  0  0  0
  -20.5667  -26.2354   23.3637 H   0  0  0  0  0  0
  -21.6655  -26.7397   22.1210 H   0  0  0  0  0  0
  -19.6902  -25.6288   21.1263 H   0  0  0  0  0  0
  -19.6711  -27.3179   20.6729 H   0  0  0  0  0  0
  -17.4231  -26.6728   21.4016 H   0  0  0  0  0  0
  -18.0321  -26.0102   22.9032 H   0  0  0  0  0  0
  -19.7970  -30.7326   24.2200 H   0  0  0  0  0  0
  -17.5040  -31.6278   24.5156 H   0  0  0  0  0  0
  -15.5373  -30.2956   23.7704 H   0  0  0  0  0  0
  -15.8720  -28.0801   22.7104 H   0  0  0  0  0  0
  -24.5992  -30.7051   25.7770 H   0  0  0  0  0  0
  -24.8904  -32.2990   26.4641 H   0  0  0  0  0  0
  -25.8059  -30.9138   27.0275 H   0  0  0  0  0  0
  -26.3136  -29.6609   24.1367 H   0  0  0  0  0  0
  -27.3963  -29.7233   25.5055 H   0  0  0  0  0  0
  -27.9111  -30.4088   23.9862 H   0  0  0  0  0  0
  -27.2738  -33.3697   26.1908 H   0  0  0  0  0  0
  -28.4039  -32.6724   25.0390 H   0  0  0  0  0  0
  -28.0664  -31.8533   26.5560 H   0  0  0  0  0  0
  -28.2523  -38.0070   24.7588 H   0  0  0  0  0  0
  -28.1104  -36.2599   24.6192 H   0  0  0  0  0  0
  -27.2300  -37.1266   25.8875 H   0  0  0  0  0  0
  -20.9579  -29.8733   21.6679 H   0  0  0  0  0  0
  -26.0083  -38.2747   24.1547 H   0  0  0  0  0  0
  -31.2856  -20.8873   20.8232 H   0  0  0  0  0  0
  -30.5024  -23.1684   20.7670 H   0  0  0  0  0  0
  -27.4382  -19.4219   19.8471 H   0  0  0  0  0  0
  -31.9434  -18.9697   21.5929 H   0  0  0  0  0  0
  -31.6527  -17.2898   21.9181 H   0  0  0  0  0  0
  -30.5549  -18.4974   22.5595 H   0  0  0  0  0  0
  -31.7531  -19.1580   19.1648 H   0  0  0  0  0  0
  -30.6002  -18.1922   18.2623 H   0  0  0  0  0  0
  -31.9180  -17.4303   19.1454 H   0  0  0  0  0  0
  -25.8836  -20.9803   19.2287 H   0  0  0  0  0  0
  -26.1022  -22.6327   19.1686 H   0  0  0  0  0  0
  -26.7356  -24.2273   20.1992 H   0  0  0  0  0  0
  -28.7762  -16.4477   20.5144 H   0  0  0  0  0  0
  1 25  1  0  0  0
  1 30  2  0  0  0
  1 82  1  0  0  0
  2  3  1  0  0  0
  2 25  1  0  0  0
  2 83  1  0  0  0
  2 84  1  0  0  0
  3  4  1  0  0  0
  3 85  1  0  0  0
  3 86  1  0  0  0
  4  5  1  0  0  0
  4 87  1  0  0  0
  4 88  1  0  0  0
  5  6  1  0  0  0
  5 26  1  0  0  0
  5 89  1  0  0  0
  6 25  1  0  0  0
  6 90  1  0  0  0
  6 91  1  0  0  0
  7  8  2  0  0  0
  7 26  1  0  0  0
  7 29  1  0  0  0
  8  9  1  0  0  0
  8 22  1  0  0  0
  9 10  1  0  0  0
  9 27  2  0  0  0
 10 11  2  0  0  0
 10 15  1  0  0  0
 11 12  1  0  0  0
 11 92  1  0  0  0
 12 13  2  0  0  0
 12 93  1  0  0  0
 13 14  1  0  0  0
 13 31  1  0  0  0
 14 15  2  0  0  0
 14 94  1  0  0  0
 15 95  1  0  0  0
 16 17  2  0  0  0
 16 21  1  0  0  0
 16 31  1  0  0  0
 17 18  1  0  0  0
 17 96  1  0  0  0
 18 19  2  0  0  0
 18 97  1  0  0  0
 19 20  1  0  0  0
 19 24  1  0  0  0
 20 21  2  0  0  0
 20 98  1  0  0  0
 21 23  1  0  0  0
 22 28  1  0  0  0
 22 32  2  0  0  0
 26 27  1  0  0  0
 28 99  1  0  0  0
 28100  1  0  0  0
 29101  1  0  0  0
 29102  1  0  0  0
 33 34  1  0  0  0
 33 66  1  0  0  0
 33 70  2  0  0  0
 34 36  1  0  0  0
 34 59  1  0  0  0
 34103  1  0  0  0
 35 44  2  0  0  0
 35 45  1  0  0  0
 35 68  1  0  0  0
 36 56  1  0  0  0
 36104  1  0  0  0
 37 39  1  0  0  0
 37 47  1  0  0  0
 37 66  1  0  0  0
 37105  1  0  0  0
 38 43  2  0  0  0
 38 46  1  0  0  0
 38 47  1  0  0  0
 39 64  1  0  0  0
 39 67  2  0  0  0
 40 52  1  0  0  0
 40 53  2  0  0  0
 40 58  1  0  0  0
 41106  1  0  0  0
 41107  1  0  0  0
 41108  1  0  0  0
 41 48  1  0  0  0
 42 43  1  0  0  0
 42 66  1  0  0  0
 42109  1  0  0  0
 42110  1  0  0  0
 43 44  1  0  0  0
 44111  1  0  0  0
 45 46  2  0  0  0
 45112  1  0  0  0
 46113  1  0  0  0
 47114  1  0  0  0
 47115  1  0  0  0
 48 56  1  0  0  0
 48 65  1  0  0  0
 48116  1  0  0  0
 49 50  1  0  0  0
 49 53  1  0  0  0
 49 64  1  0  0  0
 49117  1  0  0  0
 50 51  1  0  0  0
 50118  1  0  0  0
 50119  1  0  0  0
 51 52  1  0  0  0
 51120  1  0  0  0
 51121  1  0  0  0
 52122  1  0  0  0
 52123  1  0  0  0
 53 54  1  0  0  0
 54 55  2  0  0  0
 54124  1  0  0  0
 55 57  1  0  0  0
 55125  1  0  0  0
 56 69  2  0  0  0
 57 58  2  0  0  0
 57126  1  0  0  0
 58127  1  0  0  0
 59 60  1  0  0  0
 59 61  1  0  0  0
 59 62  1  0  0  0
 60128  1  0  0  0
 60129  1  0  0  0
 60130  1  0  0  0
 61131  1  0  0  0
 61132  1  0  0  0
 61133  1  0  0  0
 62134  1  0  0  0
 62135  1  0  0  0
 62136  1  0  0  0
 63 65  1  0  0  0
 63137  1  0  0  0
 63138  1  0  0  0
 63139  1  0  0  0
 64140  1  0  0  0
 65141  1  0  0  0
 68 81  1  0  0  0
 71 72  2  0  0  0
 71 74  1  0  0  0
 71142  1  0  0  0
 72 75  1  0  0  0
 72143  1  0  0  0
 73 74  2  0  0  0
 73 76  1  0  0  0
 73144  1  0  0  0
 74 79  1  0  0  0
 75 76  2  0  0  0
 75 81  1  0  0  0
 76 80  1  0  0  0
 77145  1  0  0  0
 77146  1  0  0  0
 77147  1  0  0  0
 77 79  1  0  0  0
 78 79  1  0  0  0
 78148  1  0  0  0
 78149  1  0  0  0
 78150  1  0  0  0
 79 82  1  0  0  0
 80151  1  0  0  0
 80152  1  0  0  0
 81153  1  0  0  0
 82154  1  0  0  0
M  ISO  4   1 100  68 101  81 101  82 100
M  END
> <chiral flag>
0

> <version>
0

> <s_m_source_file>
/data/baiqing/PycharmProjects/Reinvent-master-3.2/result/LINK_invent/BTK/process_docking_weight1_custom_product_contain_oxygen_bond_distance_aromatic_linkinvent_7_9_3/rearranged_h_0095.sdf

> <i_m_source_file_index>
41

> <r_mmod_Potential_Energy-OPLS-2005>
1058.52380371094

> <r_mmod_Stretch_Energy-OPLS-2005>
497.677825927734

> <r_mmod_Bend_Energy-OPLS-2005>
479.519104003906

> <r_mmod_Torsional_Energy-OPLS-2005>
193.394439697266

> <r_mmod_Improper_Torsional_Energy-OPLS-2005>
8.53120422363281

> <r_mmod_Van_der_Waal_Energy-OPLS-2005>
141.621948242188

> <r_mmod_Electrostatic_Energy-OPLS-2005>
-466.140411376953

> <r_mmod_Solvation_Energy-OPLS-2005>
-225.670257568359

> <b_mmod_Minimization_Converged-OPLS-2005>
0

> <r_mmod_RMS_Derivative-OPLS-2005>
2.60016918182373

$$$$
41
                    3D
 Structure written by MMmdl.
154162  0  0  1  0            999 V2000
  -30.7151  -14.6470   20.5011 C   0  0  0  0  0  0
  -30.4105  -12.4090   19.4574 C   0  0  0  0  0  0
  -29.4949  -12.4969   18.2219 C   0  0  0  0  0  0
  -28.0228  -12.3347   18.6415 C   0  0  0  0  0  0
  -27.6401  -13.2351   19.8476 C   0  0  2  0  0  0
  -28.6897  -13.1737   20.9792 C   0  0  0  0  0  0
  -25.2503  -13.8211   20.5710 C   0  0  0  0  0  0
  -24.1799  -13.0448   20.9220 C   0  0  0  0  0  0
  -24.6397  -11.6929   20.8759 C   0  0  0  0  0  0
  -23.9077  -10.4299   21.0413 C   0  0  0  0  0  0
  -24.3628   -9.4213   21.9188 C   0  0  0  0  0  0
  -23.6300   -8.2247   22.0754 C   0  0  0  0  0  0
  -22.4280   -8.0286   21.3545 C   0  0  0  0  0  0
  -21.9920   -9.0262   20.4646 C   0  0  0  0  0  0
  -22.7251  -10.2140   20.3058 C   0  0  0  0  0  0
  -21.6854   -6.0741   22.5280 C   0  0  0  0  0  0
  -21.4016   -6.5645   23.8213 C   0  0  0  0  0  0
  -21.3659   -5.6796   24.9175 C   0  0  0  0  0  0
  -21.6043   -4.3059   24.7224 C   0  0  0  0  0  0
  -21.8819   -3.8151   23.4344 C   0  0  0  0  0  0
  -21.9194   -4.6968   22.3402 C   0  0  0  0  0  0
  -22.7817  -13.5225   21.1870 C   0  0  0  0  0  0
  -22.1661   -4.2155   21.0979 F   0  0  0  0  0  0
  -21.5627   -3.4541   25.7735 F   0  0  0  0  0  0
  -29.9938  -13.4847   20.3833 N   0  0  0  0  0  0
  -26.2936  -12.9431   20.3300 N   0  0  0  0  0  0
  -25.9332  -11.6568   20.5772 N   0  0  0  0  0  0
  -22.0464  -12.8209   22.0422 N   0  0  0  0  0  0
  -25.4176  -15.1933   20.4113 N   0  0  0  0  0  0
  -31.9073  -14.6338   20.1848 O   0  0  0  0  0  0
  -21.6642   -6.8885   21.4241 O   0  0  0  0  0  0
  -22.3502  -14.5531   20.6717 O   0  0  0  0  0  0
  -24.6281  -31.8608   23.2063 C   0  0  0  0  0  0
  -25.9132  -32.4782   23.8378 C   0  0  1  0  0  0
  -27.2054  -27.3030   20.1104 C   0  0  0  0  0  0
  -25.5949  -33.8583   24.2301 N   0  0  0  0  0  0
  -23.4204  -30.4902   21.5502 C   0  0  2  0  0  0
  -24.8630  -28.9555   20.1090 C   0  0  0  0  0  0
  -22.7484  -29.4637   22.4937 C   0  0  0  0  0  0
  -18.0287  -28.1382   22.8489 C   0  0  0  0  0  0
  -24.1490  -36.7292   23.2636 C   0  0  0  0  0  0
  -25.9664  -30.7866   21.3822 C   0  0  0  0  0  0
  -26.0370  -29.4163   20.7184 C   0  0  0  0  0  0
  -27.2128  -28.6023   20.7124 C   0  0  0  0  0  0
  -26.0059  -26.9169   19.4608 C   0  0  0  0  0  0
  -24.8506  -27.7113   19.4710 C   0  0  0  0  0  0
  -23.6344  -29.8375   20.1619 C   0  0  0  0  0  0
  -25.4114  -36.3085   24.0332 C   0  0  1  0  0  0
  -20.5890  -28.3695   23.1277 C   0  0  2  0  0  0
  -20.6779  -26.9417   22.5406 C   0  0  0  0  0  0
  -19.5752  -26.6385   21.5211 C   0  0  0  0  0  0
  -18.1932  -26.7927   22.1624 C   0  0  0  0  0  0
  -19.1540  -28.8854   23.2879 C   0  0  0  0  0  0
  -18.9460  -30.1455   23.8898 C   0  0  0  0  0  0
  -17.6460  -30.6587   24.0563 C   0  0  0  0  0  0
  -25.9054  -34.9453   23.5112 C   0  0  0  0  0  0
  -16.5352  -29.9085   23.6331 C   0  0  0  0  0  0
  -16.7273  -28.6498   23.0359 C   0  0  0  0  0  0
  -26.4509  -31.6589   25.0747 C   0  0  0  0  0  0
  -25.3739  -31.3727   26.1471 C   0  0  0  0  0  0
  -27.0355  -30.3010   24.6214 C   0  0  0  0  0  0
  -27.6068  -32.4322   25.7516 C   0  0  0  0  0  0
  -27.5582  -37.1801   24.8461 C   0  0  0  0  0  0
  -21.4196  -29.3053   22.3675 N   0  0  0  0  0  0
  -26.4289  -37.3782   23.9413 N   0  0  0  0  0  0
  -24.6907  -31.0618   22.1023 N   0  0  0  0  0  0
  -23.4207  -28.8158   23.3000 O   0  0  0  0  0  0
  -28.2863  -26.3981   20.1780 O   0  0  0  0  0  0
  -26.5612  -34.8917   22.4671 O   0  0  0  0  0  0
  -23.5443  -32.1411   23.7388 O   0  0  0  0  0  0
  -28.7486  -18.7845   21.0795 C   0  0  0  0  0  0
  -30.3608  -20.8768   20.1273 C   0  0  0  0  0  0
  -30.0782  -18.4469   20.7154 C   0  0  0  0  0  0
  -28.2495  -20.1216   20.9890 C   0  0  0  0  0  0
  -30.8690  -19.5446   20.2129 C   0  0  0  0  0  0
  -29.0456  -21.2085   20.5265 C   0  0  0  0  0  0
  -30.6860  -17.0450   21.0049 C   0  0  0  0  0  0
  -28.9544  -23.8143   20.3197 C   0  0  0  0  0  0
  -27.9247  -24.9644   19.9836 C   0  0  0  0  0  0
  -26.9393  -20.3761   21.3918 N   0  0  0  0  0  0
  -32.1860  -19.3783   19.7701 N   0  0  0  0  0  0
  -28.4471  -22.5396   20.3986 N   0  0  0  0  0  0
  -30.0629  -15.8452   20.7238 N   0  0  0  0  0  0
  -31.8128  -17.0579   21.5194 O   0  0  0  0  0  0
  -30.1491  -24.0737   20.4892 O   0  0  0  0  0  0
  -31.4548  -12.4868   19.1505 H   0  0  0  0  0  0
  -30.3176  -11.4351   19.9411 H   0  0  0  0  0  0
  -29.7649  -11.7288   17.4959 H   0  0  0  0  0  0
  -29.6343  -13.4570   17.7219 H   0  0  0  0  0  0
  -27.8714  -11.2861   18.9002 H   0  0  0  0  0  0
  -27.3643  -12.5363   17.7957 H   0  0  0  0  0  0
  -27.6342  -14.2567   19.4669 H   0  0  0  0  0  0
  -28.7084  -12.1854   21.4410 H   0  0  0  0  0  0
  -28.4424  -13.8812   21.7724 H   0  0  0  0  0  0
  -25.2773   -9.5688   22.4765 H   0  0  0  0  0  0
  -24.0008   -7.4637   22.7474 H   0  0  0  0  0  0
  -21.0853   -8.8786   19.8949 H   0  0  0  0  0  0
  -22.3716  -10.9682   19.6167 H   0  0  0  0  0  0
  -21.2008   -7.6153   23.9719 H   0  0  0  0  0  0
  -21.1480   -6.0525   25.9078 H   0  0  0  0  0  0
  -22.0598   -2.7613   23.2842 H   0  0  0  0  0  0
  -22.4085  -11.9871   22.4805 H   0  0  0  0  0  0
  -21.1077  -13.1225   22.2624 H   0  0  0  0  0  0
  -24.6468  -15.8437   20.5177 H   0  0  0  0  0  0
  -26.2588  -15.6331   20.0617 H   0  0  0  0  0  0
  -26.7199  -32.5441   23.1123 H   0  0  0  0  0  0
  -25.0121  -33.9731   25.0463 H   0  0  0  0  0  0
  -22.7142  -31.3119   21.4136 H   0  0  0  0  0  0
  -23.3757  -35.9620   23.3289 H   0  0  0  0  0  0
  -24.3589  -36.8917   22.2053 H   0  0  0  0  0  0
  -23.7235  -37.6489   23.6660 H   0  0  0  0  0  0
  -26.1040  -31.5525   20.6177 H   0  0  0  0  0  0
  -26.8450  -30.8284   22.0142 H   0  0  0  0  0  0
  -28.1084  -28.9478   21.2099 H   0  0  0  0  0  0
  -25.9061  -25.9764   18.9426 H   0  0  0  0  0  0
  -23.9532  -27.3561   18.9833 H   0  0  0  0  0  0
  -23.7580  -30.6203   19.4124 H   0  0  0  0  0  0
  -22.7521  -29.2734   19.8538 H   0  0  0  0  0  0
  -25.1291  -36.1939   25.0824 H   0  0  0  0  0  0
  -20.9981  -28.3266   24.1398 H   0  0  0  0  0  0
  -20.5685  -26.2304   23.3606 H   0  0  0  0  0  0
  -21.6645  -26.7450   22.1191 H   0  0  0  0  0  0
  -19.6913  -25.6295   21.1242 H   0  0  0  0  0  0
  -19.6685  -27.3194   20.6740 H   0  0  0  0  0  0
  -17.4202  -26.6680   21.4025 H   0  0  0  0  0  0
  -18.0330  -26.0066   22.9014 H   0  0  0  0  0  0
  -19.7936  -30.7270   24.2268 H   0  0  0  0  0  0
  -17.5016  -31.6269   24.5160 H   0  0  0  0  0  0
  -15.5353  -30.2989   23.7654 H   0  0  0  0  0  0
  -15.8673  -28.0812   22.7085 H   0  0  0  0  0  0
  -24.5928  -30.7057   25.7804 H   0  0  0  0  0  0
  -24.8912  -32.2890   26.4883 H   0  0  0  0  0  0
  -25.8065  -30.8923   27.0256 H   0  0  0  0  0  0
  -26.2937  -29.6759   24.1229 H   0  0  0  0  0  0
  -27.4035  -29.7269   25.4728 H   0  0  0  0  0  0
  -27.8817  -30.4288   23.9460 H   0  0  0  0  0  0
  -27.2684  -33.3629   26.2082 H   0  0  0  0  0  0
  -28.3890  -32.6867   25.0350 H   0  0  0  0  0  0
  -28.0727  -31.8452   26.5443 H   0  0  0  0  0  0
  -28.2585  -38.0114   24.7534 H   0  0  0  0  0  0
  -28.1093  -36.2647   24.6254 H   0  0  0  0  0  0
  -27.2304  -37.1409   25.8864 H   0  0  0  0  0  0
  -20.9368  -29.8801   21.6910 H   0  0  0  0  0  0
  -26.0168  -38.2853   24.1428 H   0  0  0  0  0  0
  -28.1153  -18.0058   21.4795 H   0  0  0  0  0  0
  -30.9917  -21.6621   19.7356 H   0  0  0  0  0  0
  -27.0295  -24.7431   20.5677 H   0  0  0  0  0  0
  -27.6801  -24.8128   18.9319 H   0  0  0  0  0  0
  -26.4703  -19.6369   21.9049 H   0  0  0  0  0  0
  -26.7675  -21.2778   21.8231 H   0  0  0  0  0  0
  -32.7653  -20.2070   19.6721 H   0  0  0  0  0  0
  -32.7069  -18.5917   20.1515 H   0  0  0  0  0  0
  -27.4383  -22.5023   20.3451 H   0  0  0  0  0  0
  -29.0664  -15.8604   20.5941 H   0  0  0  0  0  0
  1 25  1  0  0  0
  1 30  2  0  0  0
  1 83  1  0  0  0
  2  3  1  0  0  0
  2 25  1  0  0  0
  2 86  1  0  0  0
  2 87  1  0  0  0
  3  4  1  0  0  0
  3 88  1  0  0  0
  3 89  1  0  0  0
  4  5  1  0  0  0
  4 90  1  0  0  0
  4 91  1  0  0  0
  5  6  1  0  0  0
  5 26  1  0  0  0
  5 92  1  0  0  0
  6 25  1  0  0  0
  6 93  1  0  0  0
  6 94  1  0  0  0
  7  8  2  0  0  0
  7 26  1  0  0  0
  7 29  1  0  0  0
  8  9  1  0  0  0
  8 22  1  0  0  0
  9 10  1  0  0  0
  9 27  2  0  0  0
 10 11  2  0  0  0
 10 15  1  0  0  0
 11 12  1  0  0  0
 11 95  1  0  0  0
 12 13  2  0  0  0
 12 96  1  0  0  0
 13 14  1  0  0  0
 13 31  1  0  0  0
 14 15  2  0  0  0
 14 97  1  0  0  0
 15 98  1  0  0  0
 16 17  2  0  0  0
 16 21  1  0  0  0
 16 31  1  0  0  0
 17 18  1  0  0  0
 17 99  1  0  0  0
 18 19  2  0  0  0
 18100  1  0  0  0
 19 20  1  0  0  0
 19 24  1  0  0  0
 20 21  2  0  0  0
 20101  1  0  0  0
 21 23  1  0  0  0
 22 28  1  0  0  0
 22 32  2  0  0  0
 26 27  1  0  0  0
 28102  1  0  0  0
 28103  1  0  0  0
 29104  1  0  0  0
 29105  1  0  0  0
 33 34  1  0  0  0
 33 66  1  0  0  0
 33 70  2  0  0  0
 34 36  1  0  0  0
 34 59  1  0  0  0
 34106  1  0  0  0
 35 44  2  0  0  0
 35 45  1  0  0  0
 35 68  1  0  0  0
 36 56  1  0  0  0
 36107  1  0  0  0
 37 39  1  0  0  0
 37 47  1  0  0  0
 37 66  1  0  0  0
 37108  1  0  0  0
 38 43  2  0  0  0
 38 46  1  0  0  0
 38 47  1  0  0  0
 39 64  1  0  0  0
 39 67  2  0  0  0
 40 52  1  0  0  0
 40 53  2  0  0  0
 40 58  1  0  0  0
 41109  1  0  0  0
 41110  1  0  0  0
 41111  1  0  0  0
 41 48  1  0  0  0
 42 43  1  0  0  0
 42 66  1  0  0  0
 42112  1  0  0  0
 42113  1  0  0  0
 43 44  1  0  0  0
 44114  1  0  0  0
 45 46  2  0  0  0
 45115  1  0  0  0
 46116  1  0  0  0
 47117  1  0  0  0
 47118  1  0  0  0
 48 56  1  0  0  0
 48 65  1  0  0  0
 48119  1  0  0  0
 49 50  1  0  0  0
 49 53  1  0  0  0
 49 64  1  0  0  0
 49120  1  0  0  0
 50 51  1  0  0  0
 50121  1  0  0  0
 50122  1  0  0  0
 51 52  1  0  0  0
 51123  1  0  0  0
 51124  1  0  0  0
 52125  1  0  0  0
 52126  1  0  0  0
 53 54  1  0  0  0
 54 55  2  0  0  0
 54127  1  0  0  0
 55 57  1  0  0  0
 55128  1  0  0  0
 56 69  2  0  0  0
 57 58  2  0  0  0
 57129  1  0  0  0
 58130  1  0  0  0
 59 60  1  0  0  0
 59 61  1  0  0  0
 59 62  1  0  0  0
 60131  1  0  0  0
 60132  1  0  0  0
 60133  1  0  0  0
 61134  1  0  0  0
 61135  1  0  0  0
 61136  1  0  0  0
 62137  1  0  0  0
 62138  1  0  0  0
 62139  1  0  0  0
 63 65  1  0  0  0
 63140  1  0  0  0
 63141  1  0  0  0
 63142  1  0  0  0
 64143  1  0  0  0
 65144  1  0  0  0
 68 79  1  0  0  0
 71 73  2  0  0  0
 71 74  1  0  0  0
 71145  1  0  0  0
 72 75  2  0  0  0
 72 76  1  0  0  0
 72146  1  0  0  0
 73 75  1  0  0  0
 73 77  1  0  0  0
 74 76  2  0  0  0
 74 80  1  0  0  0
 75 81  1  0  0  0
 76 82  1  0  0  0
 77 83  1  0  0  0
 77 84  2  0  0  0
 78 79  1  0  0  0
 78 82  1  0  0  0
 78 85  2  0  0  0
 79147  1  0  0  0
 79148  1  0  0  0
 80149  1  0  0  0
 80150  1  0  0  0
 81151  1  0  0  0
 81152  1  0  0  0
 82153  1  0  0  0
 83154  1  0  0  0
M  ISO  4   1 100  68 101  79 101  83 100
M  END
> <chiral flag>
0

> <version>
0

> <s_m_source_file>
/data/baiqing/PycharmProjects/Reinvent-master-3.2/result/LINK_invent/BTK/process_docking_weight1_custom_product_contain_oxygen_bond_distance_aromatic_linkinvent_7_9_3/rearranged_h_0095.sdf

> <i_m_source_file_index>
42

> <r_mmod_Potential_Energy-OPLS-2005>
11.552453994751

> <r_mmod_Stretch_Energy-OPLS-2005>
87.4124145507812

> <r_mmod_Bend_Energy-OPLS-2005>
160.217651367188

> <r_mmod_Torsional_Energy-OPLS-2005>
257.094207763672

> <r_mmod_Improper_Torsional_Energy-OPLS-2005>
14.5076770782471

> <r_mmod_Van_der_Waal_Energy-OPLS-2005>
167.273956298828

> <r_mmod_Electrostatic_Energy-OPLS-2005>
-464.778350830078

> <r_mmod_Solvation_Energy-OPLS-2005>
-275.008758544922

> <b_mmod_Minimization_Converged-OPLS-2005>
0

> <r_mmod_RMS_Derivative-OPLS-2005>
0.555603682994843

$$$$
42
                    3D
 Structure written by MMmdl.
159168  0  0  1  0            999 V2000
  -30.6475  -14.6599   20.6027 C   0  0  0  0  0  0
  -30.4276  -12.4294   19.4713 C   0  0  0  0  0  0
  -29.5075  -12.5385   18.2369 C   0  0  0  0  0  0
  -28.0316  -12.3510   18.6326 C   0  0  0  0  0  0
  -27.6475  -13.2174   19.8570 C   0  0  2  0  0  0
  -28.6769  -13.0829   20.9934 C   0  0  0  0  0  0
  -25.2547  -13.8146   20.5679 C   0  0  0  0  0  0
  -24.1844  -13.0393   20.9150 C   0  0  0  0  0  0
  -24.6430  -11.6866   20.8743 C   0  0  0  0  0  0
  -23.9094  -10.4260   21.0432 C   0  0  0  0  0  0
  -24.3654   -9.4178   21.9181 C   0  0  0  0  0  0
  -23.6323   -8.2223   22.0741 C   0  0  0  0  0  0
  -22.4292   -8.0272   21.3544 C   0  0  0  0  0  0
  -21.9920   -9.0265   20.4671 C   0  0  0  0  0  0
  -22.7242  -10.2152   20.3107 C   0  0  0  0  0  0
  -21.6863   -6.0730   22.5288 C   0  0  0  0  0  0
  -21.4044   -6.5644   23.8211 C   0  0  0  0  0  0
  -21.3669   -5.6790   24.9166 C   0  0  0  0  0  0
  -21.6035   -4.3047   24.7230 C   0  0  0  0  0  0
  -21.8802   -3.8139   23.4346 C   0  0  0  0  0  0
  -21.9198   -4.6956   22.3400 C   0  0  0  0  0  0
  -22.7855  -13.5174   21.1788 C   0  0  0  0  0  0
  -22.1665   -4.2130   21.0973 F   0  0  0  0  0  0
  -21.5628   -3.4531   25.7749 F   0  0  0  0  0  0
  -30.0000  -13.4481   20.4611 N   0  0  0  0  0  0
  -26.2965  -12.9342   20.3264 N   0  0  0  0  0  0
  -25.9342  -11.6481   20.5721 N   0  0  0  0  0  0
  -22.0443  -12.8245   22.0349 N   0  0  0  0  0  0
  -25.4178  -15.1879   20.4130 N   0  0  0  0  0  0
  -31.7248  -14.8478   20.0284 O   0  0  0  0  0  0
  -21.6644   -6.8870   21.4247 O   0  0  0  0  0  0
  -22.3570  -14.5493   20.6648 O   0  0  0  0  0  0
  -24.6312  -31.8553   23.1971 C   0  0  0  0  0  0
  -25.9098  -32.4770   23.8347 C   0  0  1  0  0  0
  -27.2185  -27.2606   20.1404 C   0  0  0  0  0  0
  -25.5890  -33.8576   24.2284 N   0  0  0  0  0  0
  -23.4298  -30.4719   21.5397 C   0  0  2  0  0  0
  -24.8753  -28.9188   20.1102 C   0  0  0  0  0  0
  -22.7506  -29.4542   22.4902 C   0  0  0  0  0  0
  -18.0286  -28.1360   22.8500 C   0  0  0  0  0  0
  -24.1458  -36.7316   23.2643 C   0  0  0  0  0  0
  -25.9720  -30.7690   21.3718 C   0  0  0  0  0  0
  -26.0399  -29.3851   20.7292 C   0  0  0  0  0  0
  -27.2089  -28.5635   20.7418 C   0  0  0  0  0  0
  -26.0334  -26.8605   19.4858 C   0  0  0  0  0  0
  -24.8800  -27.6680   19.4724 C   0  0  0  0  0  0
  -23.6475  -29.8064   20.1542 C   0  0  0  0  0  0
  -25.4070  -36.3109   24.0352 C   0  0  1  0  0  0
  -20.5887  -28.3659   23.1284 C   0  0  2  0  0  0
  -20.6752  -26.9375   22.5417 C   0  0  0  0  0  0
  -19.5727  -26.6357   21.5214 C   0  0  0  0  0  0
  -18.1905  -26.7913   22.1629 C   0  0  0  0  0  0
  -19.1541  -28.8828   23.2883 C   0  0  0  0  0  0
  -18.9467  -30.1431   23.8898 C   0  0  0  0  0  0
  -17.6462  -30.6578   24.0545 C   0  0  0  0  0  0
  -25.9004  -34.9468   23.5116 C   0  0  0  0  0  0
  -16.5349  -29.9088   23.6299 C   0  0  0  0  0  0
  -16.7265  -28.6484   23.0363 C   0  0  0  0  0  0
  -26.4459  -31.6599   25.0738 C   0  0  0  0  0  0
  -25.3672  -31.3774   26.1457 C   0  0  0  0  0  0
  -27.0287  -30.3028   24.6154 C   0  0  0  0  0  0
  -27.6030  -32.4325   25.7523 C   0  0  0  0  0  0
  -27.5545  -37.1828   24.8460 C   0  0  0  0  0  0
  -21.4207  -29.3039   22.3707 N   0  0  0  0  0  0
  -26.4248  -37.3811   23.9423 N   0  0  0  0  0  0
  -24.6976  -31.0512   22.0934 N   0  0  0  0  0  0
  -23.4214  -28.8043   23.2965 O   0  0  0  0  0  0
  -28.3299  -26.3988   20.2534 O   0  0  0  0  0  0
  -26.5599  -34.8959   22.4699 O   0  0  0  0  0  0
  -23.5441  -32.1342   23.7228 O   0  0  0  0  0  0
  -27.7242  -23.2976   21.4800 C   0  0  0  0  0  0
  -30.2519  -19.5179   21.5699 C   0  0  0  0  0  0
  -28.5012  -18.8968   20.0693 C   0  0  0  0  0  0
  -28.4166  -23.6738   20.2868 C   0  0  0  0  0  0
  -29.1702  -19.9527   20.7539 C   0  0  0  0  0  0
  -30.6097  -18.1395   21.7439 C   0  0  0  0  0  0
  -29.8957  -17.0708   21.1020 C   0  0  0  0  0  0
  -28.8509  -17.5122   20.2310 C   0  0  0  0  0  0
  -27.9092  -21.9530   21.7141 C   0  0  0  0  0  0
  -28.9906  -22.4612   19.8766 C   0  0  0  0  0  0
  -30.2358  -15.2814   22.8657 C   0  0  0  0  0  0
  -28.4509  -25.0845   19.5514 C   0  0  0  0  0  0
  -28.7271  -21.3694   20.7504 N   0  0  0  0  0  0
  -31.6871  -17.8599   22.5932 N   0  0  0  0  0  0
  -30.1075  -15.6270   21.4323 N   0  0  0  0  0  0
  -27.4012  -21.1958   22.7260 O   0  0  0  0  0  0
  -29.7464  -22.2594   18.7627 O   0  0  0  0  0  0
  -28.1112  -16.5810   19.5818 F   0  0  0  0  0  0
  -31.4708  -12.5396   19.1732 H   0  0  0  0  0  0
  -30.3654  -11.4326   19.9112 H   0  0  0  0  0  0
  -29.7983  -11.8052   17.4831 H   0  0  0  0  0  0
  -29.6348  -13.5165   17.7713 H   0  0  0  0  0  0
  -27.8641  -11.2982   18.8609 H   0  0  0  0  0  0
  -27.3858  -12.5854   17.7834 H   0  0  0  0  0  0
  -27.6657  -14.2528   19.5248 H   0  0  0  0  0  0
  -28.6980  -12.0681   21.3918 H   0  0  0  0  0  0
  -28.3475  -13.7111   21.8159 H   0  0  0  0  0  0
  -25.2807   -9.5639   22.4725 H   0  0  0  0  0  0
  -24.0034   -7.4611   22.7451 H   0  0  0  0  0  0
  -21.0834   -8.8794   19.8991 H   0  0  0  0  0  0
  -22.3668  -10.9738   19.6280 H   0  0  0  0  0  0
  -21.2068   -7.6156   23.9717 H   0  0  0  0  0  0
  -21.1504   -6.0533   25.9060 H   0  0  0  0  0  0
  -22.0577   -2.7595   23.2864 H   0  0  0  0  0  0
  -22.3965  -11.9891   22.4800 H   0  0  0  0  0  0
  -21.1058  -13.1364   22.2449 H   0  0  0  0  0  0
  -24.6379  -15.8246   20.5295 H   0  0  0  0  0  0
  -26.2681  -15.6490   20.1058 H   0  0  0  0  0  0
  -26.7153  -32.5455   23.1085 H   0  0  0  0  0  0
  -25.0126  -33.9722   25.0489 H   0  0  0  0  0  0
  -22.7295  -31.2961   21.3896 H   0  0  0  0  0  0
  -23.3728  -35.9640   23.3308 H   0  0  0  0  0  0
  -24.3525  -36.8930   22.2050 H   0  0  0  0  0  0
  -23.7205  -37.6523   23.6653 H   0  0  0  0  0  0
  -26.0885  -31.5103   20.5779 H   0  0  0  0  0  0
  -26.8595  -30.8442   21.9876 H   0  0  0  0  0  0
  -28.0944  -28.9096   21.2563 H   0  0  0  0  0  0
  -25.9482  -25.9008   19.0035 H   0  0  0  0  0  0
  -23.9908  -27.3114   18.9733 H   0  0  0  0  0  0
  -23.7843  -30.5838   19.4028 H   0  0  0  0  0  0
  -22.7690  -29.2439   19.8361 H   0  0  0  0  0  0
  -25.1239  -36.1977   25.0847 H   0  0  0  0  0  0
  -20.9988  -28.3230   24.1401 H   0  0  0  0  0  0
  -20.5613  -26.2275   23.3630 H   0  0  0  0  0  0
  -21.6610  -26.7373   22.1212 H   0  0  0  0  0  0
  -19.6878  -25.6266   21.1253 H   0  0  0  0  0  0
  -19.6657  -27.3157   20.6741 H   0  0  0  0  0  0
  -17.4173  -26.6669   21.4040 H   0  0  0  0  0  0
  -18.0278  -26.0048   22.9016 H   0  0  0  0  0  0
  -19.7927  -30.7240   24.2285 H   0  0  0  0  0  0
  -17.5013  -31.6255   24.5150 H   0  0  0  0  0  0
  -15.5346  -30.3004   23.7595 H   0  0  0  0  0  0
  -15.8658  -28.0783   22.7127 H   0  0  0  0  0  0
  -24.5906  -30.7012   25.7853 H   0  0  0  0  0  0
  -24.8760  -32.2951   26.4743 H   0  0  0  0  0  0
  -25.7994  -30.9128   27.0327 H   0  0  0  0  0  0
  -26.2849  -29.6845   24.1112 H   0  0  0  0  0  0
  -27.3947  -29.7206   25.4618 H   0  0  0  0  0  0
  -27.8730  -30.4342   23.9378 H   0  0  0  0  0  0
  -27.2641  -33.3689   26.1966 H   0  0  0  0  0  0
  -28.3916  -32.6762   25.0395 H   0  0  0  0  0  0
  -28.0568  -31.8507   26.5547 H   0  0  0  0  0  0
  -28.2596  -38.0107   24.7495 H   0  0  0  0  0  0
  -28.1029  -36.2646   24.6291 H   0  0  0  0  0  0
  -27.2279  -37.1466   25.8876 H   0  0  0  0  0  0
  -20.9377  -29.8889   21.7019 H   0  0  0  0  0  0
  -26.0152  -38.2906   24.1423 H   0  0  0  0  0  0
  -27.1250  -23.9586   22.0924 H   0  0  0  0  0  0
  -30.7999  -20.2748   22.1159 H   0  0  0  0  0  0
  -27.6538  -19.1388   19.4442 H   0  0  0  0  0  0
  -29.6490  -15.9536   23.4914 H   0  0  0  0  0  0
  -31.2763  -15.3310   23.1900 H   0  0  0  0  0  0
  -29.9209  -14.2654   23.1082 H   0  0  0  0  0  0
  -29.4431  -25.1294   19.1017 H   0  0  0  0  0  0
  -27.7947  -25.0231   18.6879 H   0  0  0  0  0  0
  -31.7573  -16.9025   22.9222 H   0  0  0  0  0  0
  -31.9160  -18.5314   23.3177 H   0  0  0  0  0  0
  -26.8092  -21.7457   23.2304 H   0  0  0  0  0  0
  -29.7817  -21.3245   18.5892 H   0  0  0  0  0  0
  1 25  1  0  0  0
  1 30  2  0  0  0
  1 85  1  0  0  0
  2  3  1  0  0  0
  2 25  1  0  0  0
  2 89  1  0  0  0
  2 90  1  0  0  0
  3  4  1  0  0  0
  3 91  1  0  0  0
  3 92  1  0  0  0
  4  5  1  0  0  0
  4 93  1  0  0  0
  4 94  1  0  0  0
  5  6  1  0  0  0
  5 26  1  0  0  0
  5 95  1  0  0  0
  6 25  1  0  0  0
  6 96  1  0  0  0
  6 97  1  0  0  0
  7  8  2  0  0  0
  7 26  1  0  0  0
  7 29  1  0  0  0
  8  9  1  0  0  0
  8 22  1  0  0  0
  9 10  1  0  0  0
  9 27  2  0  0  0
 10 11  2  0  0  0
 10 15  1  0  0  0
 11 12  1  0  0  0
 11 98  1  0  0  0
 12 13  2  0  0  0
 12 99  1  0  0  0
 13 14  1  0  0  0
 13 31  1  0  0  0
 14 15  2  0  0  0
 14100  1  0  0  0
 15101  1  0  0  0
 16 17  2  0  0  0
 16 21  1  0  0  0
 16 31  1  0  0  0
 17 18  1  0  0  0
 17102  1  0  0  0
 18 19  2  0  0  0
 18103  1  0  0  0
 19 20  1  0  0  0
 19 24  1  0  0  0
 20 21  2  0  0  0
 20104  1  0  0  0
 21 23  1  0  0  0
 22 28  1  0  0  0
 22 32  2  0  0  0
 26 27  1  0  0  0
 28105  1  0  0  0
 28106  1  0  0  0
 29107  1  0  0  0
 29108  1  0  0  0
 33 34  1  0  0  0
 33 66  1  0  0  0
 33 70  2  0  0  0
 34 36  1  0  0  0
 34 59  1  0  0  0
 34109  1  0  0  0
 35 44  2  0  0  0
 35 45  1  0  0  0
 35 68  1  0  0  0
 36 56  1  0  0  0
 36110  1  0  0  0
 37 39  1  0  0  0
 37 47  1  0  0  0
 37 66  1  0  0  0
 37111  1  0  0  0
 38 43  2  0  0  0
 38 46  1  0  0  0
 38 47  1  0  0  0
 39 64  1  0  0  0
 39 67  2  0  0  0
 40 52  1  0  0  0
 40 53  2  0  0  0
 40 58  1  0  0  0
 41112  1  0  0  0
 41113  1  0  0  0
 41114  1  0  0  0
 41 48  1  0  0  0
 42 43  1  0  0  0
 42 66  1  0  0  0
 42115  1  0  0  0
 42116  1  0  0  0
 43 44  1  0  0  0
 44117  1  0  0  0
 45 46  2  0  0  0
 45118  1  0  0  0
 46119  1  0  0  0
 47120  1  0  0  0
 47121  1  0  0  0
 48 56  1  0  0  0
 48 65  1  0  0  0
 48122  1  0  0  0
 49 50  1  0  0  0
 49 53  1  0  0  0
 49 64  1  0  0  0
 49123  1  0  0  0
 50 51  1  0  0  0
 50124  1  0  0  0
 50125  1  0  0  0
 51 52  1  0  0  0
 51126  1  0  0  0
 51127  1  0  0  0
 52128  1  0  0  0
 52129  1  0  0  0
 53 54  1  0  0  0
 54 55  2  0  0  0
 54130  1  0  0  0
 55 57  1  0  0  0
 55131  1  0  0  0
 56 69  2  0  0  0
 57 58  2  0  0  0
 57132  1  0  0  0
 58133  1  0  0  0
 59 60  1  0  0  0
 59 61  1  0  0  0
 59 62  1  0  0  0
 60134  1  0  0  0
 60135  1  0  0  0
 60136  1  0  0  0
 61137  1  0  0  0
 61138  1  0  0  0
 61139  1  0  0  0
 62140  1  0  0  0
 62141  1  0  0  0
 62142  1  0  0  0
 63 65  1  0  0  0
 63143  1  0  0  0
 63144  1  0  0  0
 63145  1  0  0  0
 64146  1  0  0  0
 65147  1  0  0  0
 68 82  1  0  0  0
 71 74  1  0  0  0
 71 79  2  0  0  0
 71148  1  0  0  0
 72 75  2  0  0  0
 72 76  1  0  0  0
 72149  1  0  0  0
 73 75  1  0  0  0
 73 78  2  0  0  0
 73150  1  0  0  0
 74 80  2  0  0  0
 74 82  1  0  0  0
 75 83  1  0  0  0
 76 77  2  0  0  0
 76 84  1  0  0  0
 77 78  1  0  0  0
 77 85  1  0  0  0
 78 88  1  0  0  0
 79 83  1  0  0  0
 79 86  1  0  0  0
 80 83  1  0  0  0
 80 87  1  0  0  0
 81 85  1  0  0  0
 81151  1  0  0  0
 81152  1  0  0  0
 81153  1  0  0  0
 82154  1  0  0  0
 82155  1  0  0  0
 84156  1  0  0  0
 84157  1  0  0  0
 86158  1  0  0  0
 87159  1  0  0  0
M  ISO  4   1 100  68 101  82 101  85 100
M  END
> <chiral flag>
0

> <version>
0

> <s_m_source_file>
/data/baiqing/PycharmProjects/Reinvent-master-3.2/result/LINK_invent/BTK/process_docking_weight1_custom_product_contain_oxygen_bond_distance_aromatic_linkinvent_7_9_3/rearranged_h_0095.sdf

> <i_m_source_file_index>
43

> <r_mmod_Potential_Energy-OPLS-2005>
265.430999755859

> <r_mmod_Stretch_Energy-OPLS-2005>
110.268836975098

> <r_mmod_Bend_Energy-OPLS-2005>
172.769149780273

> <r_mmod_Torsional_Energy-OPLS-2005>
326.655792236328

> <r_mmod_Improper_Torsional_Energy-OPLS-2005>
8.5209379196167

> <r_mmod_Van_der_Waal_Energy-OPLS-2005>
138.944000244141

> <r_mmod_Electrostatic_Energy-OPLS-2005>
-334.982116699219

> <r_mmod_Solvation_Energy-OPLS-2005>
-223.613311767578

> <b_mmod_Minimization_Converged-OPLS-2005>
0

> <r_mmod_RMS_Derivative-OPLS-2005>
4.72567367553711

$$$$
43
                    3D
 Structure written by MMmdl.
164173  0  0  1  0            999 V2000
  -30.7333  -14.6041   20.7122 C   0  0  0  0  0  0
  -30.4437  -12.4596   19.4401 C   0  0  0  0  0  0
  -29.4907  -12.5704   18.2273 C   0  0  0  0  0  0
  -28.0377  -12.3465   18.6682 C   0  0  0  0  0  0
  -27.6637  -13.2231   19.8887 C   0  0  2  0  0  0
  -28.7080  -13.0818   21.0171 C   0  0  0  0  0  0
  -25.2638  -13.8176   20.5686 C   0  0  0  0  0  0
  -24.1870  -13.0428   20.9112 C   0  0  0  0  0  0
  -24.6453  -11.6901   20.8748 C   0  0  0  0  0  0
  -23.9150  -10.4267   21.0400 C   0  0  0  0  0  0
  -24.3684   -9.4175   21.9190 C   0  0  0  0  0  0
  -23.6308   -8.2241   22.0760 C   0  0  0  0  0  0
  -22.4296   -8.0298   21.3542 C   0  0  0  0  0  0
  -21.9969   -9.0286   20.4655 C   0  0  0  0  0  0
  -22.7334  -10.2134   20.3045 C   0  0  0  0  0  0
  -21.6854   -6.0754   22.5273 C   0  0  0  0  0  0
  -21.4006   -6.5640   23.8217 C   0  0  0  0  0  0
  -21.3665   -5.6791   24.9176 C   0  0  0  0  0  0
  -21.6031   -4.3051   24.7213 C   0  0  0  0  0  0
  -21.8819   -3.8154   23.4333 C   0  0  0  0  0  0
  -21.9184   -4.6978   22.3397 C   0  0  0  0  0  0
  -22.7920  -13.5243   21.1749 C   0  0  0  0  0  0
  -22.1664   -4.2176   21.0972 F   0  0  0  0  0  0
  -21.5638   -3.4530   25.7721 F   0  0  0  0  0  0
  -30.0349  -13.4370   20.4823 N   0  0  0  0  0  0
  -26.3074  -12.9360   20.3454 N   0  0  0  0  0  0
  -25.9393  -11.6512   20.5852 N   0  0  0  0  0  0
  -22.0540  -12.8263   22.0319 N   0  0  0  0  0  0
  -25.4347  -15.1881   20.4153 N   0  0  0  0  0  0
  -31.7816  -14.8241   20.0937 O   0  0  0  0  0  0
  -21.6621   -6.8911   21.4245 O   0  0  0  0  0  0
  -22.3632  -14.5570   20.6603 O   0  0  0  0  0  0
  -24.6191  -31.8574   23.2061 C   0  0  0  0  0  0
  -25.9042  -32.4757   23.8384 C   0  0  1  0  0  0
  -27.2442  -27.2967   20.1515 C   0  0  0  0  0  0
  -25.5859  -33.8567   24.2272 N   0  0  0  0  0  0
  -23.4188  -30.4734   21.5368 C   0  0  2  0  0  0
  -24.8829  -28.9273   20.1049 C   0  0  0  0  0  0
  -22.7415  -29.4598   22.4894 C   0  0  0  0  0  0
  -18.0155  -28.1452   22.8697 C   0  0  0  0  0  0
  -24.1481  -36.7298   23.2659 C   0  0  0  0  0  0
  -25.9563  -30.7694   21.3941 C   0  0  0  0  0  0
  -26.0339  -29.3858   20.7625 C   0  0  0  0  0  0
  -27.2072  -28.5746   20.7941 C   0  0  0  0  0  0
  -26.0954  -26.9165   19.4283 C   0  0  0  0  0  0
  -24.9248  -27.7014   19.4173 C   0  0  0  0  0  0
  -23.6421  -29.7949   20.1537 C   0  0  0  0  0  0
  -25.4111  -36.3077   24.0348 C   0  0  1  0  0  0
  -20.5795  -28.3722   23.1158 C   0  0  2  0  0  0
  -20.6561  -26.9527   22.5075 C   0  0  0  0  0  0
  -19.5294  -26.6847   21.5037 C   0  0  0  0  0  0
  -18.1768  -26.7897   22.2054 C   0  0  0  0  0  0
  -19.1474  -28.8954   23.2886 C   0  0  0  0  0  0
  -18.9532  -30.1586   23.8808 C   0  0  0  0  0  0
  -17.6530  -30.6650   24.0714 C   0  0  0  0  0  0
  -25.9054  -34.9438   23.5106 C   0  0  0  0  0  0
  -16.5339  -29.9156   23.6727 C   0  0  0  0  0  0
  -16.7156  -28.6610   23.0656 C   0  0  0  0  0  0
  -26.4449  -31.6623   25.0814 C   0  0  0  0  0  0
  -25.3711  -31.3764   26.1568 C   0  0  0  0  0  0
  -27.0274  -30.3027   24.6333 C   0  0  0  0  0  0
  -27.5949  -32.4402   25.7654 C   0  0  0  0  0  0
  -27.5550  -37.1825   24.8456 C   0  0  0  0  0  0
  -21.4150  -29.3007   22.3541 N   0  0  0  0  0  0
  -26.4270  -37.3782   23.9408 N   0  0  0  0  0  0
  -24.6826  -31.0543   22.1006 N   0  0  0  0  0  0
  -23.4082  -28.8211   23.3071 O   0  0  0  0  0  0
  -28.4162  -26.5254   20.0226 O   0  0  0  0  0  0
  -26.5612  -34.8892   22.4685 O   0  0  0  0  0  0
  -23.5325  -32.1396   23.7335 O   0  0  0  0  0  0
  -28.7267  -18.9955   22.2463 C   0  0  0  0  0  0
  -30.0605  -19.1481   20.2742 C   0  0  0  0  0  0
  -29.1448  -17.6339   22.4283 C   0  0  0  0  0  0
  -30.4724  -17.7754   20.4541 C   0  0  0  0  0  0
  -29.1273  -19.8018   21.1382 C   0  0  0  0  0  0
  -29.9898  -16.9435   21.5115 C   0  0  0  0  0  0
  -27.1109  -21.0104   20.5407 C   0  0  0  0  0  0
  -26.1849  -22.2417   20.5339 C   0  0  0  0  0  0
  -26.7874  -23.6460   20.5268 C   0  0  0  0  0  0
  -29.0507  -22.5044   20.9102 C   0  0  0  0  0  0
  -28.2822  -23.7777   20.2310 C   0  0  1  0  0  0
  -28.4957  -23.7115   18.7092 C   0  0  0  0  0  0
  -30.3447  -14.9359   23.0707 C   0  0  0  0  0  0
  -28.7085  -25.2587   20.7473 C   0  0  0  0  0  0
  -28.4395  -21.1038   20.8247 N   0  0  0  0  0  0
  -30.2940  -15.4882   21.6881 N   0  0  0  0  0  0
  -26.5587  -19.9323   20.2880 O   0  0  0  0  0  0
  -31.4693  -12.6242   19.1033 H   0  0  0  0  0  0
  -30.4204  -11.4503   19.8488 H   0  0  0  0  0  0
  -29.7690  -11.8478   17.4623 H   0  0  0  0  0  0
  -29.5780  -13.5578   17.7707 H   0  0  0  0  0  0
  -27.9328  -11.2929   18.9245 H   0  0  0  0  0  0
  -27.3527  -12.5278   17.8397 H   0  0  0  0  0  0
  -27.6830  -14.2575   19.5490 H   0  0  0  0  0  0
  -28.7289  -12.0592   21.3965 H   0  0  0  0  0  0
  -28.4060  -13.6981   21.8603 H   0  0  0  0  0  0
  -25.2827   -9.5606   22.4778 H   0  0  0  0  0  0
  -23.9967   -7.4631   22.7504 H   0  0  0  0  0  0
  -21.0888   -8.8818   19.9001 H   0  0  0  0  0  0
  -22.3805  -10.9660   19.6147 H   0  0  0  0  0  0
  -21.1983   -7.6149   23.9718 H   0  0  0  0  0  0
  -21.1515   -6.0525   25.9081 H   0  0  0  0  0  0
  -22.0597   -2.7612   23.2806 H   0  0  0  0  0  0
  -22.4155  -11.9961   22.4763 H   0  0  0  0  0  0
  -21.1169  -13.1330   22.2456 H   0  0  0  0  0  0
  -24.6794  -15.8513   20.5431 H   0  0  0  0  0  0
  -26.3129  -15.6339   20.1716 H   0  0  0  0  0  0
  -26.7082  -32.5439   23.1110 H   0  0  0  0  0  0
  -24.9986  -33.9684   25.0385 H   0  0  0  0  0  0
  -22.7084  -31.2865   21.3822 H   0  0  0  0  0  0
  -23.3715  -35.9654   23.3355 H   0  0  0  0  0  0
  -24.3517  -36.8876   22.2046 H   0  0  0  0  0  0
  -23.7263  -37.6539   23.6659 H   0  0  0  0  0  0
  -26.0890  -31.5144   20.6096 H   0  0  0  0  0  0
  -26.8351  -30.8322   22.0210 H   0  0  0  0  0  0
  -28.0850  -28.9302   21.3138 H   0  0  0  0  0  0
  -26.1141  -26.0354   18.8067 H   0  0  0  0  0  0
  -24.0775  -27.3787   18.8349 H   0  0  0  0  0  0
  -23.7296  -30.5596   19.3778 H   0  0  0  0  0  0
  -22.7752  -29.1897   19.8804 H   0  0  0  0  0  0
  -25.1292  -36.1952   25.0841 H   0  0  0  0  0  0
  -20.9962  -28.3099   24.1237 H   0  0  0  0  0  0
  -20.5488  -26.2297   23.3188 H   0  0  0  0  0  0
  -21.6342  -26.7715   22.0586 H   0  0  0  0  0  0
  -19.6390  -25.7101   21.0401 H   0  0  0  0  0  0
  -19.5816  -27.4216   20.6970 H   0  0  0  0  0  0
  -17.3574  -26.6016   21.5079 H   0  0  0  0  0  0
  -18.0977  -26.0236   22.9779 H   0  0  0  0  0  0
  -19.8048  -30.7543   24.1794 H   0  0  0  0  0  0
  -17.5229  -31.6320   24.5301 H   0  0  0  0  0  0
  -15.5362  -30.3075   23.8392 H   0  0  0  0  0  0
  -15.8484  -28.0975   22.7515 H   0  0  0  0  0  0
  -24.5843  -30.7158   25.7900 H   0  0  0  0  0  0
  -24.8992  -32.2945   26.5092 H   0  0  0  0  0  0
  -25.8080  -30.8873   27.0288 H   0  0  0  0  0  0
  -26.2858  -29.6876   24.1224 H   0  0  0  0  0  0
  -27.3709  -29.7247   25.4912 H   0  0  0  0  0  0
  -27.8856  -30.4230   23.9723 H   0  0  0  0  0  0
  -27.2446  -33.3632   26.2301 H   0  0  0  0  0  0
  -28.3802  -32.7100   25.0587 H   0  0  0  0  0  0
  -28.0609  -31.8545   26.5591 H   0  0  0  0  0  0
  -28.2634  -38.0064   24.7464 H   0  0  0  0  0  0
  -28.0989  -36.2600   24.6361 H   0  0  0  0  0  0
  -27.2237  -37.1560   25.8851 H   0  0  0  0  0  0
  -20.9369  -29.8639   21.6649 H   0  0  0  0  0  0
  -26.0143  -38.2857   24.1431 H   0  0  0  0  0  0
  -28.0069  -19.3955   22.9498 H   0  0  0  0  0  0
  -30.4151  -19.6725   19.4006 H   0  0  0  0  0  0
  -28.7460  -17.0986   23.2785 H   0  0  0  0  0  0
  -31.1676  -17.3616   19.7384 H   0  0  0  0  0  0
  -25.5475  -22.1609   21.4158 H   0  0  0  0  0  0
  -25.5202  -22.1568   19.6728 H   0  0  0  0  0  0
  -26.5688  -24.1142   21.4860 H   0  0  0  0  0  0
  -26.2178  -24.2128   19.7983 H   0  0  0  0  0  0
  -29.1748  -22.7226   21.9702 H   0  0  0  0  0  0
  -30.0599  -22.4469   20.5012 H   0  0  0  0  0  0
  -29.5462  -23.8752   18.4473 H   0  0  0  0  0  0
  -27.9183  -24.4802   18.1939 H   0  0  0  0  0  0
  -28.1846  -22.7441   18.3096 H   0  0  0  0  0  0
  -29.3455  -14.7003   23.4427 H   0  0  0  0  0  0
  -30.7918  -15.6236   23.7845 H   0  0  0  0  0  0
  -30.9282  -14.0109   23.1496 H   0  0  0  0  0  0
  -29.7985  -25.2699   20.7854 H   0  0  0  0  0  0
  -28.4282  -25.3890   21.7933 H   0  0  0  0  0  0
  1 25  1  0  0  0
  1 30  2  0  0  0
  1 86  1  0  0  0
  2  3  1  0  0  0
  2 25  1  0  0  0
  2 88  1  0  0  0
  2 89  1  0  0  0
  3  4  1  0  0  0
  3 90  1  0  0  0
  3 91  1  0  0  0
  4  5  1  0  0  0
  4 92  1  0  0  0
  4 93  1  0  0  0
  5  6  1  0  0  0
  5 26  1  0  0  0
  5 94  1  0  0  0
  6 25  1  0  0  0
  6 95  1  0  0  0
  6 96  1  0  0  0
  7  8  2  0  0  0
  7 26  1  0  0  0
  7 29  1  0  0  0
  8  9  1  0  0  0
  8 22  1  0  0  0
  9 10  1  0  0  0
  9 27  2  0  0  0
 10 11  2  0  0  0
 10 15  1  0  0  0
 11 12  1  0  0  0
 11 97  1  0  0  0
 12 13  2  0  0  0
 12 98  1  0  0  0
 13 14  1  0  0  0
 13 31  1  0  0  0
 14 15  2  0  0  0
 14 99  1  0  0  0
 15100  1  0  0  0
 16 17  2  0  0  0
 16 21  1  0  0  0
 16 31  1  0  0  0
 17 18  1  0  0  0
 17101  1  0  0  0
 18 19  2  0  0  0
 18102  1  0  0  0
 19 20  1  0  0  0
 19 24  1  0  0  0
 20 21  2  0  0  0
 20103  1  0  0  0
 21 23  1  0  0  0
 22 28  1  0  0  0
 22 32  2  0  0  0
 26 27  1  0  0  0
 28104  1  0  0  0
 28105  1  0  0  0
 29106  1  0  0  0
 29107  1  0  0  0
 33 34  1  0  0  0
 33 66  1  0  0  0
 33 70  2  0  0  0
 34 36  1  0  0  0
 34 59  1  0  0  0
 34108  1  0  0  0
 35 44  2  0  0  0
 35 45  1  0  0  0
 35 68  1  0  0  0
 36 56  1  0  0  0
 36109  1  0  0  0
 37 39  1  0  0  0
 37 47  1  0  0  0
 37 66  1  0  0  0
 37110  1  0  0  0
 38 43  2  0  0  0
 38 46  1  0  0  0
 38 47  1  0  0  0
 39 64  1  0  0  0
 39 67  2  0  0  0
 40 52  1  0  0  0
 40 53  2  0  0  0
 40 58  1  0  0  0
 41111  1  0  0  0
 41112  1  0  0  0
 41113  1  0  0  0
 41 48  1  0  0  0
 42 43  1  0  0  0
 42 66  1  0  0  0
 42114  1  0  0  0
 42115  1  0  0  0
 43 44  1  0  0  0
 44116  1  0  0  0
 45 46  2  0  0  0
 45117  1  0  0  0
 46118  1  0  0  0
 47119  1  0  0  0
 47120  1  0  0  0
 48 56  1  0  0  0
 48 65  1  0  0  0
 48121  1  0  0  0
 49 50  1  0  0  0
 49 53  1  0  0  0
 49 64  1  0  0  0
 49122  1  0  0  0
 50 51  1  0  0  0
 50123  1  0  0  0
 50124  1  0  0  0
 51 52  1  0  0  0
 51125  1  0  0  0
 51126  1  0  0  0
 52127  1  0  0  0
 52128  1  0  0  0
 53 54  1  0  0  0
 54 55  2  0  0  0
 54129  1  0  0  0
 55 57  1  0  0  0
 55130  1  0  0  0
 56 69  2  0  0  0
 57 58  2  0  0  0
 57131  1  0  0  0
 58132  1  0  0  0
 59 60  1  0  0  0
 59 61  1  0  0  0
 59 62  1  0  0  0
 60133  1  0  0  0
 60134  1  0  0  0
 60135  1  0  0  0
 61136  1  0  0  0
 61137  1  0  0  0
 61138  1  0  0  0
 62139  1  0  0  0
 62140  1  0  0  0
 62141  1  0  0  0
 63 65  1  0  0  0
 63142  1  0  0  0
 63143  1  0  0  0
 63144  1  0  0  0
 64145  1  0  0  0
 65146  1  0  0  0
 68 84  1  0  0  0
 71 73  2  0  0  0
 71 75  1  0  0  0
 71147  1  0  0  0
 72 74  1  0  0  0
 72 75  2  0  0  0
 72148  1  0  0  0
 73 76  1  0  0  0
 73149  1  0  0  0
 74 76  2  0  0  0
 74150  1  0  0  0
 75 85  1  0  0  0
 76 86  1  0  0  0
 77 78  1  0  0  0
 77 85  1  0  0  0
 77 87  2  0  0  0
 78 79  1  0  0  0
 78151  1  0  0  0
 78152  1  0  0  0
 79 81  1  0  0  0
 79153  1  0  0  0
 79154  1  0  0  0
 80 81  1  0  0  0
 80 85  1  0  0  0
 80155  1  0  0  0
 80156  1  0  0  0
 81 82  1  0  0  0
 81 84  1  0  0  0
 82157  1  0  0  0
 82158  1  0  0  0
 82159  1  0  0  0
 83 86  1  0  0  0
 83160  1  0  0  0
 83161  1  0  0  0
 83162  1  0  0  0
 84163  1  0  0  0
 84164  1  0  0  0
M  ISO  4   1 100  68 101  84 101  86 100
M  END
> <chiral flag>
0

> <version>
0

> <s_m_source_file>
/data/baiqing/PycharmProjects/Reinvent-master-3.2/result/LINK_invent/BTK/process_docking_weight1_custom_product_contain_oxygen_bond_distance_aromatic_linkinvent_7_9_3/rearranged_h_0095.sdf

> <i_m_source_file_index>
44

> <r_mmod_Potential_Energy-OPLS-2005>
463.777954101562

> <r_mmod_Stretch_Energy-OPLS-2005>
133.549163818359

> <r_mmod_Bend_Energy-OPLS-2005>
199.520874023438

> <r_mmod_Torsional_Energy-OPLS-2005>
411.277862548828

> <r_mmod_Improper_Torsional_Energy-OPLS-2005>
4.63583898544312

> <r_mmod_Van_der_Waal_Energy-OPLS-2005>
151.044570922852

> <r_mmod_Electrostatic_Energy-OPLS-2005>
-287.311614990234

> <r_mmod_Solvation_Energy-OPLS-2005>
-196.234878540039

> <b_mmod_Minimization_Converged-OPLS-2005>
0

> <r_mmod_RMS_Derivative-OPLS-2005>
11.2286930084229

$$$$
44
                    3D
 Structure written by MMmdl.
153161  0  0  1  0            999 V2000
  -30.6031  -14.6855   20.4639 C   0  0  0  0  0  0
  -30.4394  -12.4149   19.4604 C   0  0  0  0  0  0
  -29.5111  -12.5095   18.2280 C   0  0  0  0  0  0
  -28.0330  -12.3467   18.6367 C   0  0  0  0  0  0
  -27.6501  -13.2229   19.8595 C   0  0  2  0  0  0
  -28.6964  -13.1009   20.9912 C   0  0  0  0  0  0
  -25.2540  -13.8176   20.5683 C   0  0  0  0  0  0
  -24.1818  -13.0435   20.9180 C   0  0  0  0  0  0
  -24.6397  -11.6913   20.8735 C   0  0  0  0  0  0
  -23.9064  -10.4301   21.0414 C   0  0  0  0  0  0
  -24.3614   -9.4212   21.9189 C   0  0  0  0  0  0
  -23.6284   -8.2253   22.0761 C   0  0  0  0  0  0
  -22.4267   -8.0286   21.3547 C   0  0  0  0  0  0
  -21.9900   -9.0267   20.4652 C   0  0  0  0  0  0
  -22.7239  -10.2141   20.3054 C   0  0  0  0  0  0
  -21.6854   -6.0730   22.5279 C   0  0  0  0  0  0
  -21.4025   -6.5634   23.8216 C   0  0  0  0  0  0
  -21.3658   -5.6783   24.9172 C   0  0  0  0  0  0
  -21.6043   -4.3047   24.7228 C   0  0  0  0  0  0
  -21.8820   -3.8139   23.4348 C   0  0  0  0  0  0
  -21.9194   -4.6958   22.3398 C   0  0  0  0  0  0
  -22.7840  -13.5243   21.1835 C   0  0  0  0  0  0
  -22.1662   -4.2139   21.0979 F   0  0  0  0  0  0
  -21.5614   -3.4527   25.7741 F   0  0  0  0  0  0
  -30.0071  -13.4498   20.4225 N   0  0  0  0  0  0
  -26.2972  -12.9370   20.3293 N   0  0  0  0  0  0
  -25.9324  -11.6516   20.5739 N   0  0  0  0  0  0
  -22.0473  -12.8261   22.0400 N   0  0  0  0  0  0
  -25.4247  -15.1899   20.4129 N   0  0  0  0  0  0
  -31.7716  -14.8342   20.0940 O   0  0  0  0  0  0
  -21.6632   -6.8878   21.4243 O   0  0  0  0  0  0
  -22.3546  -14.5563   20.6693 O   0  0  0  0  0  0
  -24.6262  -31.8591   23.2035 C   0  0  0  0  0  0
  -25.9107  -32.4769   23.8358 C   0  0  1  0  0  0
  -27.2163  -27.2971   20.1145 C   0  0  0  0  0  0
  -25.5903  -33.8570   24.2270 N   0  0  0  0  0  0
  -23.4206  -30.4865   21.5453 C   0  0  2  0  0  0
  -24.8677  -28.9424   20.1112 C   0  0  0  0  0  0
  -22.7481  -29.4627   22.4912 C   0  0  0  0  0  0
  -18.0293  -28.1383   22.8502 C   0  0  0  0  0  0
  -24.1511  -36.7303   23.2641 C   0  0  0  0  0  0
  -25.9663  -30.7831   21.3807 C   0  0  0  0  0  0
  -26.0402  -29.4109   20.7185 C   0  0  0  0  0  0
  -27.2187  -28.6005   20.7083 C   0  0  0  0  0  0
  -26.0210  -26.8954   19.4751 C   0  0  0  0  0  0
  -24.8626  -27.6912   19.4802 C   0  0  0  0  0  0
  -23.6380  -29.8264   20.1594 C   0  0  0  0  0  0
  -25.4133  -36.3081   24.0322 C   0  0  1  0  0  0
  -20.5894  -28.3698   23.1278 C   0  0  2  0  0  0
  -20.6772  -26.9416   22.5410 C   0  0  0  0  0  0
  -19.5738  -26.6388   21.5222 C   0  0  0  0  0  0
  -18.1925  -26.7928   22.1642 C   0  0  0  0  0  0
  -19.1544  -28.8856   23.2888 C   0  0  0  0  0  0
  -18.9467  -30.1461   23.8900 C   0  0  0  0  0  0
  -17.6464  -30.6583   24.0576 C   0  0  0  0  0  0
  -25.9064  -34.9445   23.5109 C   0  0  0  0  0  0
  -16.5359  -29.9080   23.6331 C   0  0  0  0  0  0
  -16.7281  -28.6498   23.0352 C   0  0  0  0  0  0
  -26.4479  -31.6558   25.0731 C   0  0  0  0  0  0
  -25.3696  -31.3686   26.1446 C   0  0  0  0  0  0
  -27.0326  -30.2976   24.6197 C   0  0  0  0  0  0
  -27.6038  -32.4281   25.7497 C   0  0  0  0  0  0
  -27.5589  -37.1807   24.8457 C   0  0  0  0  0  0
  -21.4188  -29.3054   22.3659 N   0  0  0  0  0  0
  -26.4307  -37.3768   23.9387 N   0  0  0  0  0  0
  -24.6897  -31.0599   22.0995 N   0  0  0  0  0  0
  -23.4210  -28.8156   23.2975 O   0  0  0  0  0  0
  -28.3175  -26.4180   20.1577 O   0  0  0  0  0  0
  -26.5655  -34.8906   22.4686 O   0  0  0  0  0  0
  -23.5416  -32.1396   23.7361 O   0  0  0  0  0  0
  -30.7937  -19.2343   19.4532 C   0  0  0  0  0  0
  -30.7742  -17.8177   19.6320 C   0  0  0  0  0  0
  -29.0538  -19.5083   21.0810 C   0  0  0  0  0  0
  -29.9540  -20.1339   20.1760 C   0  0  0  0  0  0
  -29.8938  -17.1978   20.5551 C   0  0  0  0  0  0
  -29.0199  -18.0849   21.2522 C   0  0  0  0  0  0
  -30.1906  -21.6653   20.0645 C   0  0  0  0  0  0
  -29.3213  -24.0008   20.1239 C   0  0  0  0  0  0
  -27.4580  -24.7109   21.7179 C   0  0  0  0  0  0
  -28.0616  -24.9457   20.3188 C   0  0  1  0  0  0
  -29.7909  -15.7477   20.7809 N   0  0  0  0  0  0
  -29.2033  -22.6175   20.2056 N   0  0  0  0  0  0
  -31.3542  -21.9829   19.7949 O   0  0  0  0  0  0
  -30.3944  -24.5737   19.8938 O   0  0  0  0  0  0
  -28.1311  -17.5547   22.1270 F   0  0  0  0  0  0
  -31.4808  -12.5427   19.1587 H   0  0  0  0  0  0
  -30.3786  -11.4269   19.9191 H   0  0  0  0  0  0
  -29.7802  -11.7497   17.4931 H   0  0  0  0  0  0
  -29.6483  -13.4727   17.7334 H   0  0  0  0  0  0
  -27.8686  -11.2938   18.8709 H   0  0  0  0  0  0
  -27.3823  -12.5758   17.7914 H   0  0  0  0  0  0
  -27.6591  -14.2543   19.5073 H   0  0  0  0  0  0
  -28.7173  -12.0853   21.3878 H   0  0  0  0  0  0
  -28.4397  -13.7454   21.8342 H   0  0  0  0  0  0
  -25.2762   -9.5667   22.4761 H   0  0  0  0  0  0
  -23.9970   -7.4645   22.7491 H   0  0  0  0  0  0
  -21.0817   -8.8817   19.8973 H   0  0  0  0  0  0
  -22.3719  -10.9685   19.6159 H   0  0  0  0  0  0
  -21.2037   -7.6148   23.9719 H   0  0  0  0  0  0
  -21.1468   -6.0510   25.9074 H   0  0  0  0  0  0
  -22.0597   -2.7599   23.2857 H   0  0  0  0  0  0
  -22.4074  -11.9917   22.4787 H   0  0  0  0  0  0
  -21.1107  -13.1331   22.2622 H   0  0  0  0  0  0
  -24.6607  -15.8449   20.5371 H   0  0  0  0  0  0
  -26.2758  -15.6330   20.0909 H   0  0  0  0  0  0
  -26.7181  -32.5413   23.1105 H   0  0  0  0  0  0
  -24.9929  -33.9701   25.0330 H   0  0  0  0  0  0
  -22.7140  -31.3072   21.4037 H   0  0  0  0  0  0
  -23.3762  -35.9646   23.3309 H   0  0  0  0  0  0
  -24.3608  -36.8943   22.2057 H   0  0  0  0  0  0
  -23.7287  -37.6513   23.6677 H   0  0  0  0  0  0
  -26.1066  -31.5520   20.6200 H   0  0  0  0  0  0
  -26.8423  -30.8257   22.0152 H   0  0  0  0  0  0
  -28.1175  -28.9540   21.1952 H   0  0  0  0  0  0
  -25.9451  -25.9517   18.9604 H   0  0  0  0  0  0
  -23.9668  -27.3337   18.9907 H   0  0  0  0  0  0
  -23.7614  -30.6065   19.4070 H   0  0  0  0  0  0
  -22.7563  -29.2601   19.8529 H   0  0  0  0  0  0
  -25.1323  -36.1935   25.0815 H   0  0  0  0  0  0
  -21.0005  -28.3287   24.1393 H   0  0  0  0  0  0
  -20.5677  -26.2317   23.3625 H   0  0  0  0  0  0
  -21.6636  -26.7434   22.1198 H   0  0  0  0  0  0
  -19.6901  -25.6301   21.1242 H   0  0  0  0  0  0
  -19.6660  -27.3202   20.6753 H   0  0  0  0  0  0
  -17.4191  -26.6699   21.4047 H   0  0  0  0  0  0
  -18.0317  -26.0058   22.9024 H   0  0  0  0  0  0
  -19.7942  -30.7281   24.2264 H   0  0  0  0  0  0
  -17.5016  -31.6265   24.5176 H   0  0  0  0  0  0
  -15.5356  -30.2981   23.7650 H   0  0  0  0  0  0
  -15.8687  -28.0824   22.7047 H   0  0  0  0  0  0
  -24.5866  -30.7047   25.7761 H   0  0  0  0  0  0
  -24.8869  -32.2837   26.4881 H   0  0  0  0  0  0
  -25.7997  -30.8829   27.0215 H   0  0  0  0  0  0
  -26.2928  -29.6735   24.1165 H   0  0  0  0  0  0
  -27.3966  -29.7222   25.4723 H   0  0  0  0  0  0
  -27.8822  -30.4259   23.9490 H   0  0  0  0  0  0
  -27.2628  -33.3559   26.2100 H   0  0  0  0  0  0
  -28.3795  -32.6878   25.0283 H   0  0  0  0  0  0
  -28.0745  -31.8365   26.5367 H   0  0  0  0  0  0
  -28.2597  -38.0109   24.7501 H   0  0  0  0  0  0
  -28.1095  -36.2641   24.6291 H   0  0  0  0  0  0
  -27.2299  -37.1461   25.8856 H   0  0  0  0  0  0
  -20.9352  -29.8812   21.6905 H   0  0  0  0  0  0
  -26.0204  -38.2852   24.1362 H   0  0  0  0  0  0
  -31.5112  -19.6398   18.7522 H   0  0  0  0  0  0
  -31.4521  -17.2168   19.0435 H   0  0  0  0  0  0
  -28.4001  -20.1170   21.6859 H   0  0  0  0  0  0
  -27.2614  -23.6547   21.9037 H   0  0  0  0  0  0
  -26.5077  -25.2298   21.8371 H   0  0  0  0  0  0
  -28.1321  -25.0644   22.4983 H   0  0  0  0  0  0
  -27.3643  -24.5941   19.5617 H   0  0  0  0  0  0
  -28.9119  -15.4720   21.1922 H   0  0  0  0  0  0
  -28.2790  -22.2599   20.3865 H   0  0  0  0  0  0
  1 25  1  0  0  0
  1 30  2  0  0  0
  1 81  1  0  0  0
  2  3  1  0  0  0
  2 25  1  0  0  0
  2 86  1  0  0  0
  2 87  1  0  0  0
  3  4  1  0  0  0
  3 88  1  0  0  0
  3 89  1  0  0  0
  4  5  1  0  0  0
  4 90  1  0  0  0
  4 91  1  0  0  0
  5  6  1  0  0  0
  5 26  1  0  0  0
  5 92  1  0  0  0
  6 25  1  0  0  0
  6 93  1  0  0  0
  6 94  1  0  0  0
  7  8  2  0  0  0
  7 26  1  0  0  0
  7 29  1  0  0  0
  8  9  1  0  0  0
  8 22  1  0  0  0
  9 10  1  0  0  0
  9 27  2  0  0  0
 10 11  2  0  0  0
 10 15  1  0  0  0
 11 12  1  0  0  0
 11 95  1  0  0  0
 12 13  2  0  0  0
 12 96  1  0  0  0
 13 14  1  0  0  0
 13 31  1  0  0  0
 14 15  2  0  0  0
 14 97  1  0  0  0
 15 98  1  0  0  0
 16 17  2  0  0  0
 16 21  1  0  0  0
 16 31  1  0  0  0
 17 18  1  0  0  0
 17 99  1  0  0  0
 18 19  2  0  0  0
 18100  1  0  0  0
 19 20  1  0  0  0
 19 24  1  0  0  0
 20 21  2  0  0  0
 20101  1  0  0  0
 21 23  1  0  0  0
 22 28  1  0  0  0
 22 32  2  0  0  0
 26 27  1  0  0  0
 28102  1  0  0  0
 28103  1  0  0  0
 29104  1  0  0  0
 29105  1  0  0  0
 33 34  1  0  0  0
 33 66  1  0  0  0
 33 70  2  0  0  0
 34 36  1  0  0  0
 34 59  1  0  0  0
 34106  1  0  0  0
 35 44  2  0  0  0
 35 45  1  0  0  0
 35 68  1  0  0  0
 36 56  1  0  0  0
 36107  1  0  0  0
 37 39  1  0  0  0
 37 47  1  0  0  0
 37 66  1  0  0  0
 37108  1  0  0  0
 38 43  2  0  0  0
 38 46  1  0  0  0
 38 47  1  0  0  0
 39 64  1  0  0  0
 39 67  2  0  0  0
 40 52  1  0  0  0
 40 53  2  0  0  0
 40 58  1  0  0  0
 41109  1  0  0  0
 41110  1  0  0  0
 41111  1  0  0  0
 41 48  1  0  0  0
 42 43  1  0  0  0
 42 66  1  0  0  0
 42112  1  0  0  0
 42113  1  0  0  0
 43 44  1  0  0  0
 44114  1  0  0  0
 45 46  2  0  0  0
 45115  1  0  0  0
 46116  1  0  0  0
 47117  1  0  0  0
 47118  1  0  0  0
 48 56  1  0  0  0
 48 65  1  0  0  0
 48119  1  0  0  0
 49 50  1  0  0  0
 49 53  1  0  0  0
 49 64  1  0  0  0
 49120  1  0  0  0
 50 51  1  0  0  0
 50121  1  0  0  0
 50122  1  0  0  0
 51 52  1  0  0  0
 51123  1  0  0  0
 51124  1  0  0  0
 52125  1  0  0  0
 52126  1  0  0  0
 53 54  1  0  0  0
 54 55  2  0  0  0
 54127  1  0  0  0
 55 57  1  0  0  0
 55128  1  0  0  0
 56 69  2  0  0  0
 57 58  2  0  0  0
 57129  1  0  0  0
 58130  1  0  0  0
 59 60  1  0  0  0
 59 61  1  0  0  0
 59 62  1  0  0  0
 60131  1  0  0  0
 60132  1  0  0  0
 60133  1  0  0  0
 61134  1  0  0  0
 61135  1  0  0  0
 61136  1  0  0  0
 62137  1  0  0  0
 62138  1  0  0  0
 62139  1  0  0  0
 63 65  1  0  0  0
 63140  1  0  0  0
 63141  1  0  0  0
 63142  1  0  0  0
 64143  1  0  0  0
 65144  1  0  0  0
 68 80  1  0  0  0
 71 72  2  0  0  0
 71 74  1  0  0  0
 71145  1  0  0  0
 72 75  1  0  0  0
 72146  1  0  0  0
 73 74  2  0  0  0
 73 76  1  0  0  0
 73147  1  0  0  0
 74 77  1  0  0  0
 75 76  2  0  0  0
 75 81  1  0  0  0
 76 85  1  0  0  0
 77 82  1  0  0  0
 77 83  2  0  0  0
 78 80  1  0  0  0
 78 82  1  0  0  0
 78 84  2  0  0  0
 79148  1  0  0  0
 79149  1  0  0  0
 79150  1  0  0  0
 79 80  1  0  0  0
 80151  1  0  0  0
 81152  1  0  0  0
 82153  1  0  0  0
M  ISO  4   1 100  68 101  80 101  81 100
M  END
> <chiral flag>
0

> <version>
0

> <s_m_source_file>
/data/baiqing/PycharmProjects/Reinvent-master-3.2/result/LINK_invent/BTK/process_docking_weight1_custom_product_contain_oxygen_bond_distance_aromatic_linkinvent_7_9_3/rearranged_h_0095.sdf

> <i_m_source_file_index>
45

> <r_mmod_Potential_Energy-OPLS-2005>
-101.30574798584

> <r_mmod_Stretch_Energy-OPLS-2005>
92.676155090332

> <r_mmod_Bend_Energy-OPLS-2005>
147.196716308594

> <r_mmod_Torsional_Energy-OPLS-2005>
236.156219482422

> <r_mmod_Improper_Torsional_Energy-OPLS-2005>
4.55301761627197

> <r_mmod_Van_der_Waal_Energy-OPLS-2005>
152.306503295898

> <r_mmod_Electrostatic_Energy-OPLS-2005>
-518.032653808594

> <r_mmod_Solvation_Energy-OPLS-2005>
-278.985565185547

> <b_mmod_Minimization_Converged-OPLS-2005>
0

> <r_mmod_RMS_Derivative-OPLS-2005>
2.2717547416687

$$$$
45
                    3D
 Structure written by MMmdl.
156165  0  0  1  0            999 V2000
  -30.5674  -14.6887   20.4720 C   0  0  0  0  0  0
  -30.4480  -12.4185   19.4494 C   0  0  0  0  0  0
  -29.5082  -12.5134   18.2242 C   0  0  0  0  0  0
  -28.0305  -12.3458   18.6366 C   0  0  0  0  0  0
  -27.6537  -13.2129   19.8687 C   0  0  2  0  0  0
  -28.7009  -13.0594   20.9929 C   0  0  0  0  0  0
  -25.2565  -13.8161   20.5735 C   0  0  0  0  0  0
  -24.1813  -13.0413   20.9120 C   0  0  0  0  0  0
  -24.6399  -11.6887   20.8687 C   0  0  0  0  0  0
  -23.9076  -10.4282   21.0378 C   0  0  0  0  0  0
  -24.3624   -9.4218   21.9171 C   0  0  0  0  0  0
  -23.6299   -8.2257   22.0754 C   0  0  0  0  0  0
  -22.4280   -8.0280   21.3539 C   0  0  0  0  0  0
  -21.9915   -9.0239   20.4633 C   0  0  0  0  0  0
  -22.7236  -10.2120   20.3042 C   0  0  0  0  0  0
  -21.6852   -6.0745   22.5294 C   0  0  0  0  0  0
  -21.4004   -6.5653   23.8225 C   0  0  0  0  0  0
  -21.3651   -5.6795   24.9177 C   0  0  0  0  0  0
  -21.6047   -4.3060   24.7223 C   0  0  0  0  0  0
  -21.8813   -3.8162   23.4340 C   0  0  0  0  0  0
  -21.9201   -4.6976   22.3396 C   0  0  0  0  0  0
  -22.7838  -13.5200   21.1803 C   0  0  0  0  0  0
  -22.1670   -4.2166   21.0962 F   0  0  0  0  0  0
  -21.5634   -3.4533   25.7738 F   0  0  0  0  0  0
  -30.0092  -13.4339   20.4271 N   0  0  0  0  0  0
  -26.3006  -12.9337   20.3393 N   0  0  0  0  0  0
  -25.9335  -11.6488   20.5764 N   0  0  0  0  0  0
  -22.0479  -12.8173   22.0347 N   0  0  0  0  0  0
  -25.4276  -15.1899   20.4355 N   0  0  0  0  0  0
  -31.7270  -14.8815   20.0924 O   0  0  0  0  0  0
  -21.6636   -6.8876   21.4255 O   0  0  0  0  0  0
  -22.3516  -14.5519   20.6690 O   0  0  0  0  0  0
  -24.6252  -31.8561   23.1971 C   0  0  0  0  0  0
  -25.9100  -32.4745   23.8306 C   0  0  1  0  0  0
  -27.2381  -27.3053   20.1064 C   0  0  0  0  0  0
  -25.5939  -33.8557   24.2234 N   0  0  0  0  0  0
  -23.4203  -30.4730   21.5429 C   0  0  2  0  0  0
  -24.8688  -28.9203   20.1099 C   0  0  0  0  0  0
  -22.7448  -29.4585   22.4947 C   0  0  0  0  0  0
  -18.0277  -28.1368   22.8490 C   0  0  0  0  0  0
  -24.1489  -36.7265   23.2630 C   0  0  0  0  0  0
  -25.9597  -30.7798   21.3708 C   0  0  0  0  0  0
  -26.0350  -29.4042   20.7152 C   0  0  0  0  0  0
  -27.2156  -28.6032   20.7107 C   0  0  0  0  0  0
  -26.0483  -26.8697   19.4854 C   0  0  0  0  0  0
  -24.8772  -27.6573   19.4930 C   0  0  0  0  0  0
  -23.6336  -29.7980   20.1612 C   0  0  0  0  0  0
  -25.4115  -36.3050   24.0309 C   0  0  1  0  0  0
  -20.5872  -28.3661   23.1294 C   0  0  2  0  0  0
  -20.6767  -26.9386   22.5419 C   0  0  0  0  0  0
  -19.5750  -26.6378   21.5210 C   0  0  0  0  0  0
  -18.1923  -26.7925   22.1606 C   0  0  0  0  0  0
  -19.1527  -28.8832   23.2889 C   0  0  0  0  0  0
  -18.9458  -30.1450   23.8886 C   0  0  0  0  0  0
  -17.6457  -30.6579   24.0563 C   0  0  0  0  0  0
  -25.9065  -34.9432   23.5062 C   0  0  0  0  0  0
  -16.5348  -29.9067   23.6351 C   0  0  0  0  0  0
  -16.7269  -28.6490   23.0362 C   0  0  0  0  0  0
  -26.4505  -31.6572   25.0689 C   0  0  0  0  0  0
  -25.3724  -31.3701   26.1397 C   0  0  0  0  0  0
  -27.0371  -30.3002   24.6148 C   0  0  0  0  0  0
  -27.6035  -32.4331   25.7484 C   0  0  0  0  0  0
  -27.5587  -37.1762   24.8428 C   0  0  0  0  0  0
  -21.4165  -29.3017   22.3690 N   0  0  0  0  0  0
  -26.4259  -37.3780   23.9429 N   0  0  0  0  0  0
  -24.6872  -31.0530   22.0944 N   0  0  0  0  0  0
  -23.4155  -28.8146   23.3054 O   0  0  0  0  0  0
  -28.3761  -26.4841   20.1862 O   0  0  0  0  0  0
  -26.5641  -34.8915   22.4634 O   0  0  0  0  0  0
  -23.5423  -32.1374   23.7306 O   0  0  0  0  0  0
  -27.1016  -23.3368   20.4774 C   0  0  0  0  0  0
  -28.2253  -19.1283   21.3734 C   0  0  0  0  0  0
  -29.9441  -19.4317   19.7504 C   0  0  0  0  0  0
  -28.3351  -23.8014   19.9472 C   0  0  0  0  0  0
  -28.8841  -20.0410   20.4970 C   0  0  0  0  0  0
  -28.5328  -17.7398   21.4592 C   0  0  0  0  0  0
  -29.5802  -17.1445   20.7089 C   0  0  0  0  0  0
  -30.2904  -18.0361   19.8472 C   0  0  0  0  0  0
  -27.1738  -21.9845   20.6875 C   0  0  0  0  0  0
  -29.1258  -22.6409   19.9278 C   0  0  0  0  0  0
  -28.5893  -25.2579   19.3780 C   0  0  0  0  0  0
  -28.4462  -21.4680   20.3822 N   0  0  0  0  0  0
  -27.7631  -16.9279   22.3022 N   0  0  0  0  0  0
  -29.7058  -15.6851   20.8545 N   0  0  0  0  0  0
  -26.1430  -21.1928   21.0950 O   0  0  0  0  0  0
  -30.4133  -22.5337   19.4951 O   0  0  0  0  0  0
  -31.2891  -17.5601   19.0662 F   0  0  0  0  0  0
  -31.4865  -12.5658   19.1439 H   0  0  0  0  0  0
  -30.4062  -11.4227   19.8920 H   0  0  0  0  0  0
  -29.7756  -11.7635   17.4776 H   0  0  0  0  0  0
  -29.6356  -13.4827   17.7408 H   0  0  0  0  0  0
  -27.8646  -11.2909   18.8546 H   0  0  0  0  0  0
  -27.3764  -12.5851   17.7976 H   0  0  0  0  0  0
  -27.6721  -14.2496   19.5312 H   0  0  0  0  0  0
  -28.7269  -12.0287   21.3472 H   0  0  0  0  0  0
  -28.4416  -13.6615   21.8646 H   0  0  0  0  0  0
  -25.2762   -9.5687   22.4751 H   0  0  0  0  0  0
  -24.0002   -7.4643   22.7475 H   0  0  0  0  0  0
  -21.0857   -8.8750   19.8926 H   0  0  0  0  0  0
  -22.3701  -10.9656   19.6149 H   0  0  0  0  0  0
  -21.1992   -7.6159   23.9740 H   0  0  0  0  0  0
  -21.1475   -6.0514   25.9075 H   0  0  0  0  0  0
  -22.0602   -2.7631   23.2840 H   0  0  0  0  0  0
  -22.4083  -11.9803   22.4682 H   0  0  0  0  0  0
  -21.1112  -13.1207   22.2584 H   0  0  0  0  0  0
  -24.6719  -15.8223   20.6714 H   0  0  0  0  0  0
  -26.3341  -15.6428   20.4793 H   0  0  0  0  0  0
  -26.7161  -32.5402   23.1056 H   0  0  0  0  0  0
  -25.0107  -33.9716   25.0395 H   0  0  0  0  0  0
  -22.7162  -31.2936   21.3956 H   0  0  0  0  0  0
  -23.3772  -35.9567   23.3212 H   0  0  0  0  0  0
  -24.3608  -36.8978   22.2060 H   0  0  0  0  0  0
  -23.7192  -37.6416   23.6726 H   0  0  0  0  0  0
  -26.0878  -31.5427   20.6018 H   0  0  0  0  0  0
  -26.8403  -30.8319   21.9986 H   0  0  0  0  0  0
  -28.1112  -28.9678   21.1962 H   0  0  0  0  0  0
  -25.9963  -25.8963   19.0210 H   0  0  0  0  0  0
  -23.9802  -27.2702   19.0294 H   0  0  0  0  0  0
  -23.7412  -30.5703   19.4001 H   0  0  0  0  0  0
  -22.7540  -29.2229   19.8646 H   0  0  0  0  0  0
  -25.1294  -36.1878   25.0797 H   0  0  0  0  0  0
  -20.9966  -28.3231   24.1412 H   0  0  0  0  0  0
  -20.5658  -26.2266   23.3609 H   0  0  0  0  0  0
  -21.6641  -26.7420   22.1213 H   0  0  0  0  0  0
  -19.6916  -25.6291   21.1237 H   0  0  0  0  0  0
  -19.6692  -27.3188   20.6736 H   0  0  0  0  0  0
  -17.4201  -26.6684   21.3996 H   0  0  0  0  0  0
  -18.0298  -26.0047   22.8968 H   0  0  0  0  0  0
  -19.7929  -30.7283   24.2227 H   0  0  0  0  0  0
  -17.4999  -31.6258   24.5161 H   0  0  0  0  0  0
  -15.5347  -30.2956   23.7691 H   0  0  0  0  0  0
  -15.8670  -28.0818   22.7072 H   0  0  0  0  0  0
  -24.5925  -30.7041   25.7709 H   0  0  0  0  0  0
  -24.8901  -32.2863   26.4800 H   0  0  0  0  0  0
  -25.8035  -30.8891   27.0185 H   0  0  0  0  0  0
  -26.2958  -29.6725   24.1191 H   0  0  0  0  0  0
  -27.4101  -29.7288   25.4662 H   0  0  0  0  0  0
  -27.8806  -30.4315   23.9362 H   0  0  0  0  0  0
  -27.2634  -33.3658   26.2011 H   0  0  0  0  0  0
  -28.3886  -32.6848   25.0339 H   0  0  0  0  0  0
  -28.0653  -31.8474   26.5450 H   0  0  0  0  0  0
  -28.2481  -38.0179   24.7660 H   0  0  0  0  0  0
  -28.1209  -36.2719   24.6037 H   0  0  0  0  0  0
  -27.2339  -37.1148   25.8829 H   0  0  0  0  0  0
  -20.9331  -29.8736   21.6909 H   0  0  0  0  0  0
  -26.0109  -38.2819   24.1545 H   0  0  0  0  0  0
  -26.2168  -23.9388   20.6256 H   0  0  0  0  0  0
  -27.4379  -19.4890   22.0121 H   0  0  0  0  0  0
  -30.5047  -20.0379   19.0569 H   0  0  0  0  0  0
  -28.0633  -25.3476   18.4259 H   0  0  0  0  0  0
  -29.6415  -25.2884   19.0951 H   0  0  0  0  0  0
  -27.0765  -17.4031   22.8790 H   0  0  0  0  0  0
  -28.2808  -16.2573   22.8575 H   0  0  0  0  0  0
  -28.8585  -15.3131   21.2549 H   0  0  0  0  0  0
  -25.3736  -21.7420   21.2006 H   0  0  0  0  0  0
  -30.7127  -23.3988   19.2406 H   0  0  0  0  0  0
  1 25  1  0  0  0
  1 30  2  0  0  0
  1 84  1  0  0  0
  2  3  1  0  0  0
  2 25  1  0  0  0
  2 88  1  0  0  0
  2 89  1  0  0  0
  3  4  1  0  0  0
  3 90  1  0  0  0
  3 91  1  0  0  0
  4  5  1  0  0  0
  4 92  1  0  0  0
  4 93  1  0  0  0
  5  6  1  0  0  0
  5 26  1  0  0  0
  5 94  1  0  0  0
  6 25  1  0  0  0
  6 95  1  0  0  0
  6 96  1  0  0  0
  7  8  2  0  0  0
  7 26  1  0  0  0
  7 29  1  0  0  0
  8  9  1  0  0  0
  8 22  1  0  0  0
  9 10  1  0  0  0
  9 27  2  0  0  0
 10 11  2  0  0  0
 10 15  1  0  0  0
 11 12  1  0  0  0
 11 97  1  0  0  0
 12 13  2  0  0  0
 12 98  1  0  0  0
 13 14  1  0  0  0
 13 31  1  0  0  0
 14 15  2  0  0  0
 14 99  1  0  0  0
 15100  1  0  0  0
 16 17  2  0  0  0
 16 21  1  0  0  0
 16 31  1  0  0  0
 17 18  1  0  0  0
 17101  1  0  0  0
 18 19  2  0  0  0
 18102  1  0  0  0
 19 20  1  0  0  0
 19 24  1  0  0  0
 20 21  2  0  0  0
 20103  1  0  0  0
 21 23  1  0  0  0
 22 28  1  0  0  0
 22 32  2  0  0  0
 26 27  1  0  0  0
 28104  1  0  0  0
 28105  1  0  0  0
 29106  1  0  0  0
 29107  1  0  0  0
 33 34  1  0  0  0
 33 66  1  0  0  0
 33 70  2  0  0  0
 34 36  1  0  0  0
 34 59  1  0  0  0
 34108  1  0  0  0
 35 44  2  0  0  0
 35 45  1  0  0  0
 35 68  1  0  0  0
 36 56  1  0  0  0
 36109  1  0  0  0
 37 39  1  0  0  0
 37 47  1  0  0  0
 37 66  1  0  0  0
 37110  1  0  0  0
 38 43  2  0  0  0
 38 46  1  0  0  0
 38 47  1  0  0  0
 39 64  1  0  0  0
 39 67  2  0  0  0
 40 52  1  0  0  0
 40 53  2  0  0  0
 40 58  1  0  0  0
 41111  1  0  0  0
 41112  1  0  0  0
 41113  1  0  0  0
 41 48  1  0  0  0
 42 43  1  0  0  0
 42 66  1  0  0  0
 42114  1  0  0  0
 42115  1  0  0  0
 43 44  1  0  0  0
 44116  1  0  0  0
 45 46  2  0  0  0
 45117  1  0  0  0
 46118  1  0  0  0
 47119  1  0  0  0
 47120  1  0  0  0
 48 56  1  0  0  0
 48 65  1  0  0  0
 48121  1  0  0  0
 49 50  1  0  0  0
 49 53  1  0  0  0
 49 64  1  0  0  0
 49122  1  0  0  0
 50 51  1  0  0  0
 50123  1  0  0  0
 50124  1  0  0  0
 51 52  1  0  0  0
 51125  1  0  0  0
 51126  1  0  0  0
 52127  1  0  0  0
 52128  1  0  0  0
 53 54  1  0  0  0
 54 55  2  0  0  0
 54129  1  0  0  0
 55 57  1  0  0  0
 55130  1  0  0  0
 56 69  2  0  0  0
 57 58  2  0  0  0
 57131  1  0  0  0
 58132  1  0  0  0
 59 60  1  0  0  0
 59 61  1  0  0  0
 59 62  1  0  0  0
 60133  1  0  0  0
 60134  1  0  0  0
 60135  1  0  0  0
 61136  1  0  0  0
 61137  1  0  0  0
 61138  1  0  0  0
 62139  1  0  0  0
 62140  1  0  0  0
 62141  1  0  0  0
 63 65  1  0  0  0
 63142  1  0  0  0
 63143  1  0  0  0
 63144  1  0  0  0
 64145  1  0  0  0
 65146  1  0  0  0
 68 81  1  0  0  0
 71 74  1  0  0  0
 71 79  2  0  0  0
 71147  1  0  0  0
 72 75  2  0  0  0
 72 76  1  0  0  0
 72148  1  0  0  0
 73 75  1  0  0  0
 73 78  2  0  0  0
 73149  1  0  0  0
 74 80  2  0  0  0
 74 81  1  0  0  0
 75 82  1  0  0  0
 76 77  2  0  0  0
 76 83  1  0  0  0
 77 78  1  0  0  0
 77 84  1  0  0  0
 78 87  1  0  0  0
 79 82  1  0  0  0
 79 85  1  0  0  0
 80 82  1  0  0  0
 80 86  1  0  0  0
 81150  1  0  0  0
 81151  1  0  0  0
 83152  1  0  0  0
 83153  1  0  0  0
 84154  1  0  0  0
 85155  1  0  0  0
 86156  1  0  0  0
M  ISO  4   1 100  68 101  81 101  84 100
M  END
> <chiral flag>
0

> <version>
0

> <s_m_source_file>
/data/baiqing/PycharmProjects/Reinvent-master-3.2/result/LINK_invent/BTK/process_docking_weight1_custom_product_contain_oxygen_bond_distance_aromatic_linkinvent_7_9_3/rearranged_h_0095.sdf

> <i_m_source_file_index>
46

> <r_mmod_Potential_Energy-OPLS-2005>
31.7380657196045

> <r_mmod_Stretch_Energy-OPLS-2005>
97.7399444580078

> <r_mmod_Bend_Energy-OPLS-2005>
186.945785522461

> <r_mmod_Torsional_Energy-OPLS-2005>
234.573226928711

> <r_mmod_Improper_Torsional_Energy-OPLS-2005>
10.6610116958618

> <r_mmod_Van_der_Waal_Energy-OPLS-2005>
144.122375488281

> <r_mmod_Electrostatic_Energy-OPLS-2005>
-462.902160644531

> <r_mmod_Solvation_Energy-OPLS-2005>
-239.804336547852

> <b_mmod_Minimization_Converged-OPLS-2005>
0

> <r_mmod_RMS_Derivative-OPLS-2005>
3.07948303222656

$$$$
46
                    3D
 Structure written by MMmdl.
151159  0  0  1  0            999 V2000
  -30.6495  -14.7007   20.4561 C   0  0  0  0  0  0
  -30.4222  -12.4246   19.4783 C   0  0  0  0  0  0
  -29.5062  -12.4975   18.2380 C   0  0  0  0  0  0
  -28.0319  -12.3311   18.6511 C   0  0  0  0  0  0
  -27.6424  -13.2331   19.8533 C   0  0  2  0  0  0
  -28.6864  -13.1686   20.9907 C   0  0  0  0  0  0
  -25.2505  -13.8205   20.5700 C   0  0  0  0  0  0
  -24.1796  -13.0446   20.9206 C   0  0  0  0  0  0
  -24.6392  -11.6925   20.8751 C   0  0  0  0  0  0
  -23.9073  -10.4297   21.0408 C   0  0  0  0  0  0
  -24.3622   -9.4212   21.9187 C   0  0  0  0  0  0
  -23.6293   -8.2247   22.0757 C   0  0  0  0  0  0
  -22.4276   -8.0281   21.3546 C   0  0  0  0  0  0
  -21.9916   -9.0257   20.4650 C   0  0  0  0  0  0
  -22.7245  -10.2137   20.3058 C   0  0  0  0  0  0
  -21.6854   -6.0735   22.5277 C   0  0  0  0  0  0
  -21.4015   -6.5640   23.8209 C   0  0  0  0  0  0
  -21.3658   -5.6793   24.9172 C   0  0  0  0  0  0
  -21.6045   -4.3055   24.7221 C   0  0  0  0  0  0
  -21.8820   -3.8147   23.4342 C   0  0  0  0  0  0
  -21.9193   -4.6964   22.3399 C   0  0  0  0  0  0
  -22.7817  -13.5224   21.1861 C   0  0  0  0  0  0
  -22.1662   -4.2148   21.0976 F   0  0  0  0  0  0
  -21.5628   -3.4539   25.7735 F   0  0  0  0  0  0
  -29.9932  -13.4936   20.4093 N   0  0  0  0  0  0
  -26.2938  -12.9422   20.3303 N   0  0  0  0  0  0
  -25.9325  -11.6562   20.5772 N   0  0  0  0  0  0
  -22.0467  -12.8211   22.0419 N   0  0  0  0  0  0
  -25.4193  -15.1929   20.4111 N   0  0  0  0  0  0
  -31.8355  -14.7644   20.1242 O   0  0  0  0  0  0
  -21.6641   -6.8878   21.4239 O   0  0  0  0  0  0
  -22.3503  -14.5528   20.6705 O   0  0  0  0  0  0
  -24.6304  -31.8571   23.2024 C   0  0  0  0  0  0
  -25.9139  -32.4763   23.8357 C   0  0  1  0  0  0
  -27.2068  -27.2679   20.1193 C   0  0  0  0  0  0
  -25.5943  -33.8564   24.2274 N   0  0  0  0  0  0
  -23.4254  -30.4844   21.5458 C   0  0  2  0  0  0
  -24.8702  -28.9434   20.1046 C   0  0  0  0  0  0
  -22.7498  -29.4615   22.4913 C   0  0  0  0  0  0
  -18.0291  -28.1385   22.8486 C   0  0  0  0  0  0
  -24.1490  -36.7285   23.2642 C   0  0  0  0  0  0
  -25.9730  -30.7695   21.3860 C   0  0  0  0  0  0
  -26.0417  -29.3955   20.7248 C   0  0  0  0  0  0
  -27.2101  -28.5671   20.7298 C   0  0  0  0  0  0
  -26.0195  -26.9067   19.4365 C   0  0  0  0  0  0
  -24.8647  -27.7063   19.4503 C   0  0  0  0  0  0
  -23.6412  -29.8282   20.1583 C   0  0  0  0  0  0
  -25.4116  -36.3072   24.0326 C   0  0  1  0  0  0
  -20.5896  -28.3692   23.1267 C   0  0  2  0  0  0
  -20.6780  -26.9411   22.5404 C   0  0  0  0  0  0
  -19.5753  -26.6382   21.5215 C   0  0  0  0  0  0
  -18.1933  -26.7930   22.1624 C   0  0  0  0  0  0
  -19.1548  -28.8855   23.2874 C   0  0  0  0  0  0
  -18.9468  -30.1457   23.8894 C   0  0  0  0  0  0
  -17.6467  -30.6588   24.0561 C   0  0  0  0  0  0
  -25.9053  -34.9441   23.5099 C   0  0  0  0  0  0
  -16.5358  -29.9083   23.6335 C   0  0  0  0  0  0
  -16.7278  -28.6501   23.0356 C   0  0  0  0  0  0
  -26.4506  -31.6580   25.0738 C   0  0  0  0  0  0
  -25.3730  -31.3728   26.1456 C   0  0  0  0  0  0
  -27.0363  -30.3001   24.6226 C   0  0  0  0  0  0
  -27.6059  -32.4328   25.7511 C   0  0  0  0  0  0
  -27.5573  -37.1803   24.8470 C   0  0  0  0  0  0
  -21.4205  -29.3047   22.3659 N   0  0  0  0  0  0
  -26.4291  -37.3769   23.9404 N   0  0  0  0  0  0
  -24.6955  -31.0547   22.1007 N   0  0  0  0  0  0
  -23.4211  -28.8140   23.2992 O   0  0  0  0  0  0
  -28.2806  -26.3481   20.2119 O   0  0  0  0  0  0
  -26.5624  -34.8910   22.4664 O   0  0  0  0  0  0
  -23.5453  -32.1395   23.7318 O   0  0  0  0  0  0
  -29.2170  -20.6323   21.6449 C   0  0  0  0  0  0
  -29.5639  -19.2178   21.7122 C   0  0  0  0  0  0
  -29.7752  -18.6160   20.4864 C   0  0  0  0  0  0
  -29.1206  -21.1837   20.3810 C   0  0  0  0  0  0
  -28.8159  -23.7219   20.5276 C   0  0  0  0  0  0
  -29.7298  -18.4870   23.0095 C   0  0  0  0  0  0
  -30.3993  -17.2222   20.1079 C   0  0  0  0  0  0
  -28.0245  -24.9164   19.8255 C   0  0  0  0  0  0
  -28.7492  -22.4644   19.9546 N   0  0  0  0  0  0
  -29.9258  -15.8685   20.6154 N   0  0  0  0  0  0
  -29.4456  -23.9326   21.5680 O   0  0  0  0  0  0
  -29.4570  -19.8550   19.2453 S   0  0  0  0  0  0
  -31.4668  -12.5222   19.1785 H   0  0  0  0  0  0
  -30.3433  -11.4485   19.9598 H   0  0  0  0  0  0
  -29.7820  -11.7254   17.5183 H   0  0  0  0  0  0
  -29.6429  -13.4539   17.7307 H   0  0  0  0  0  0
  -27.8835  -11.2830   18.9133 H   0  0  0  0  0  0
  -27.3753  -12.5266   17.8023 H   0  0  0  0  0  0
  -27.6384  -14.2544   19.4717 H   0  0  0  0  0  0
  -28.7079  -12.1767   21.4443 H   0  0  0  0  0  0
  -28.4300  -13.8664   21.7894 H   0  0  0  0  0  0
  -25.2767   -9.5685   22.4763 H   0  0  0  0  0  0
  -23.9998   -7.4641   22.7480 H   0  0  0  0  0  0
  -21.0847   -8.8775   19.8957 H   0  0  0  0  0  0
  -22.3701  -10.9674   19.6165 H   0  0  0  0  0  0
  -21.2007   -7.6149   23.9710 H   0  0  0  0  0  0
  -21.1480   -6.0525   25.9073 H   0  0  0  0  0  0
  -22.0600   -2.7610   23.2842 H   0  0  0  0  0  0
  -22.4087  -11.9866   22.4795 H   0  0  0  0  0  0
  -21.1086  -13.1237   22.2634 H   0  0  0  0  0  0
  -24.6510  -15.8455   20.5198 H   0  0  0  0  0  0
  -26.2658  -15.6345   20.0758 H   0  0  0  0  0  0
  -26.7192  -32.5407   23.1084 H   0  0  0  0  0  0
  -25.0100  -33.9715   25.0427 H   0  0  0  0  0  0
  -22.7216  -31.3074   21.4048 H   0  0  0  0  0  0
  -23.3752  -35.9620   23.3318 H   0  0  0  0  0  0
  -24.3581  -36.8891   22.2054 H   0  0  0  0  0  0
  -23.7246  -37.6492   23.6653 H   0  0  0  0  0  0
  -26.1153  -31.5312   20.6181 H   0  0  0  0  0  0
  -26.8508  -30.8139   22.0189 H   0  0  0  0  0  0
  -28.1000  -28.9012   21.2446 H   0  0  0  0  0  0
  -25.9338  -25.9830   18.8856 H   0  0  0  0  0  0
  -23.9740  -27.3634   18.9423 H   0  0  0  0  0  0
  -23.7638  -30.6094   19.4075 H   0  0  0  0  0  0
  -22.7592  -29.2633   19.8504 H   0  0  0  0  0  0
  -25.1298  -36.1923   25.0821 H   0  0  0  0  0  0
  -20.9985  -28.3259   24.1389 H   0  0  0  0  0  0
  -20.5689  -26.2303   23.3608 H   0  0  0  0  0  0
  -21.6643  -26.7441   22.1190 H   0  0  0  0  0  0
  -19.6919  -25.6295   21.1235 H   0  0  0  0  0  0
  -19.6686  -27.3197   20.6750 H   0  0  0  0  0  0
  -17.4203  -26.6680   21.4023 H   0  0  0  0  0  0
  -18.0327  -26.0078   22.9023 H   0  0  0  0  0  0
  -19.7948  -30.7270   24.2261 H   0  0  0  0  0  0
  -17.5026  -31.6272   24.5156 H   0  0  0  0  0  0
  -15.5358  -30.2981   23.7673 H   0  0  0  0  0  0
  -15.8676  -28.0814   22.7078 H   0  0  0  0  0  0
  -24.5916  -30.7063   25.7785 H   0  0  0  0  0  0
  -24.8911  -32.2897   26.4858 H   0  0  0  0  0  0
  -25.8050  -30.8925   27.0243 H   0  0  0  0  0  0
  -26.2950  -29.6745   24.1240 H   0  0  0  0  0  0
  -27.4041  -29.7262   25.4741 H   0  0  0  0  0  0
  -27.8826  -30.4289   23.9477 H   0  0  0  0  0  0
  -27.2666  -33.3640   26.2057 H   0  0  0  0  0  0
  -28.3882  -32.6866   25.0345 H   0  0  0  0  0  0
  -28.0710  -31.8473   26.5451 H   0  0  0  0  0  0
  -28.2601  -38.0089   24.7493 H   0  0  0  0  0  0
  -28.1058  -36.2618   24.6327 H   0  0  0  0  0  0
  -27.2290  -37.1478   25.8875 H   0  0  0  0  0  0
  -20.9377  -29.8788   21.6882 H   0  0  0  0  0  0
  -26.0172  -38.2846   24.1397 H   0  0  0  0  0  0
  -29.0400  -21.1994   22.5484 H   0  0  0  0  0  0
  -29.3807  -19.0809   23.8546 H   0  0  0  0  0  0
  -30.7757  -18.2408   23.1928 H   0  0  0  0  0  0
  -29.1654  -17.5539   23.0135 H   0  0  0  0  0  0
  -31.4603  -17.2938   20.3525 H   0  0  0  0  0  0
  -30.3832  -17.1446   19.0198 H   0  0  0  0  0  0
  -26.9976  -24.6476   20.0686 H   0  0  0  0  0  0
  -28.1321  -24.8246   18.7439 H   0  0  0  0  0  0
  -28.3262  -22.4795   19.0355 H   0  0  0  0  0  0
  -28.9515  -15.7786   20.8588 H   0  0  0  0  0  0
  1 25  1  0  0  0
  1 30  2  0  0  0
  1 80  1  0  0  0
  2  3  1  0  0  0
  2 25  1  0  0  0
  2 83  1  0  0  0
  2 84  1  0  0  0
  3  4  1  0  0  0
  3 85  1  0  0  0
  3 86  1  0  0  0
  4  5  1  0  0  0
  4 87  1  0  0  0
  4 88  1  0  0  0
  5  6  1  0  0  0
  5 26  1  0  0  0
  5 89  1  0  0  0
  6 25  1  0  0  0
  6 90  1  0  0  0
  6 91  1  0  0  0
  7  8  2  0  0  0
  7 26  1  0  0  0
  7 29  1  0  0  0
  8  9  1  0  0  0
  8 22  1  0  0  0
  9 10  1  0  0  0
  9 27  2  0  0  0
 10 11  2  0  0  0
 10 15  1  0  0  0
 11 12  1  0  0  0
 11 92  1  0  0  0
 12 13  2  0  0  0
 12 93  1  0  0  0
 13 14  1  0  0  0
 13 31  1  0  0  0
 14 15  2  0  0  0
 14 94  1  0  0  0
 15 95  1  0  0  0
 16 17  2  0  0  0
 16 21  1  0  0  0
 16 31  1  0  0  0
 17 18  1  0  0  0
 17 96  1  0  0  0
 18 19  2  0  0  0
 18 97  1  0  0  0
 19 20  1  0  0  0
 19 24  1  0  0  0
 20 21  2  0  0  0
 20 98  1  0  0  0
 21 23  1  0  0  0
 22 28  1  0  0  0
 22 32  2  0  0  0
 26 27  1  0  0  0
 28 99  1  0  0  0
 28100  1  0  0  0
 29101  1  0  0  0
 29102  1  0  0  0
 33 34  1  0  0  0
 33 66  1  0  0  0
 33 70  2  0  0  0
 34 36  1  0  0  0
 34 59  1  0  0  0
 34103  1  0  0  0
 35 44  2  0  0  0
 35 45  1  0  0  0
 35 68  1  0  0  0
 36 56  1  0  0  0
 36104  1  0  0  0
 37 39  1  0  0  0
 37 47  1  0  0  0
 37 66  1  0  0  0
 37105  1  0  0  0
 38 43  2  0  0  0
 38 46  1  0  0  0
 38 47  1  0  0  0
 39 64  1  0  0  0
 39 67  2  0  0  0
 40 52  1  0  0  0
 40 53  2  0  0  0
 40 58  1  0  0  0
 41106  1  0  0  0
 41107  1  0  0  0
 41108  1  0  0  0
 41 48  1  0  0  0
 42 43  1  0  0  0
 42 66  1  0  0  0
 42109  1  0  0  0
 42110  1  0  0  0
 43 44  1  0  0  0
 44111  1  0  0  0
 45 46  2  0  0  0
 45112  1  0  0  0
 46113  1  0  0  0
 47114  1  0  0  0
 47115  1  0  0  0
 48 56  1  0  0  0
 48 65  1  0  0  0
 48116  1  0  0  0
 49 50  1  0  0  0
 49 53  1  0  0  0
 49 64  1  0  0  0
 49117  1  0  0  0
 50 51  1  0  0  0
 50118  1  0  0  0
 50119  1  0  0  0
 51 52  1  0  0  0
 51120  1  0  0  0
 51121  1  0  0  0
 52122  1  0  0  0
 52123  1  0  0  0
 53 54  1  0  0  0
 54 55  2  0  0  0
 54124  1  0  0  0
 55 57  1  0  0  0
 55125  1  0  0  0
 56 69  2  0  0  0
 57 58  2  0  0  0
 57126  1  0  0  0
 58127  1  0  0  0
 59 60  1  0  0  0
 59 61  1  0  0  0
 59 62  1  0  0  0
 60128  1  0  0  0
 60129  1  0  0  0
 60130  1  0  0  0
 61131  1  0  0  0
 61132  1  0  0  0
 61133  1  0  0  0
 62134  1  0  0  0
 62135  1  0  0  0
 62136  1  0  0  0
 63 65  1  0  0  0
 63137  1  0  0  0
 63138  1  0  0  0
 63139  1  0  0  0
 64140  1  0  0  0
 65141  1  0  0  0
 68 78  1  0  0  0
 71 72  1  0  0  0
 71 74  2  0  0  0
 71142  1  0  0  0
 72 73  2  0  0  0
 72 76  1  0  0  0
 73 77  1  0  0  0
 73 82  1  0  0  0
 74 79  1  0  0  0
 74 82  1  0  0  0
 75 78  1  0  0  0
 75 79  1  0  0  0
 75 81  2  0  0  0
 76143  1  0  0  0
 76144  1  0  0  0
 76145  1  0  0  0
 77 80  1  0  0  0
 77146  1  0  0  0
 77147  1  0  0  0
 78148  1  0  0  0
 78149  1  0  0  0
 79150  1  0  0  0
 80151  1  0  0  0
M  ISO  4   1 100  68 101  78 101  80 100
M  END
> <chiral flag>
0

> <version>
0

> <s_m_source_file>
/data/baiqing/PycharmProjects/Reinvent-master-3.2/result/LINK_invent/BTK/process_docking_weight1_custom_product_contain_oxygen_bond_distance_aromatic_linkinvent_7_9_3/rearranged_h_0095.sdf

> <i_m_source_file_index>
47

> <r_mmod_Potential_Energy-OPLS-2005>
63.5341415405273

> <r_mmod_Stretch_Energy-OPLS-2005>
98.4500579833984

> <r_mmod_Bend_Energy-OPLS-2005>
175.088912963867

> <r_mmod_Torsional_Energy-OPLS-2005>
222.332641601562

> <r_mmod_Improper_Torsional_Energy-OPLS-2005>
7.73523044586182

> <r_mmod_Van_der_Waal_Energy-OPLS-2005>
124.394836425781

> <r_mmod_Electrostatic_Energy-OPLS-2005>
-402.030395507812

> <r_mmod_Solvation_Energy-OPLS-2005>
-241.995864868164

> <b_mmod_Minimization_Converged-OPLS-2005>
0

> <r_mmod_RMS_Derivative-OPLS-2005>
0.81770533323288

$$$$
47
                    3D
 Structure written by MMmdl.
156164  0  0  1  0            999 V2000
  -30.6697  -14.5064   20.5671 C   0  0  0  0  0  0
  -30.4405  -12.3375   19.3955 C   0  0  0  0  0  0
  -29.4944  -12.5354   18.1933 C   0  0  0  0  0  0
  -28.0157  -12.3900   18.6106 C   0  0  0  0  0  0
  -27.6686  -13.2055   19.8848 C   0  0  2  0  0  0
  -28.7218  -12.9577   20.9891 C   0  0  0  0  0  0
  -25.2641  -13.8175   20.5742 C   0  0  0  0  0  0
  -24.1873  -13.0444   20.9204 C   0  0  0  0  0  0
  -24.6419  -11.6921   20.8740 C   0  0  0  0  0  0
  -23.9078  -10.4306   21.0395 C   0  0  0  0  0  0
  -24.3633   -9.4228   21.9171 C   0  0  0  0  0  0
  -23.6314   -8.2261   22.0759 C   0  0  0  0  0  0
  -22.4290   -8.0293   21.3560 C   0  0  0  0  0  0
  -21.9921   -9.0258   20.4654 C   0  0  0  0  0  0
  -22.7248  -10.2139   20.3050 C   0  0  0  0  0  0
  -21.6844   -6.0745   22.5283 C   0  0  0  0  0  0
  -21.4014   -6.5642   23.8220 C   0  0  0  0  0  0
  -21.3669   -5.6794   24.9179 C   0  0  0  0  0  0
  -21.6038   -4.3051   24.7216 C   0  0  0  0  0  0
  -21.8816   -3.8153   23.4332 C   0  0  0  0  0  0
  -21.9195   -4.6980   22.3401 C   0  0  0  0  0  0
  -22.7900  -13.5265   21.1805 C   0  0  0  0  0  0
  -22.1672   -4.2167   21.0979 F   0  0  0  0  0  0
  -21.5615   -3.4533   25.7727 F   0  0  0  0  0  0
  -30.0450  -13.3004   20.4364 N   0  0  0  0  0  0
  -26.3083  -12.9335   20.3447 N   0  0  0  0  0  0
  -25.9351  -11.6498   20.5788 N   0  0  0  0  0  0
  -22.0510  -12.8279   22.0362 N   0  0  0  0  0  0
  -25.4310  -15.1893   20.4198 N   0  0  0  0  0  0
  -31.7931  -14.7317   20.1077 O   0  0  0  0  0  0
  -21.6643   -6.8890   21.4255 O   0  0  0  0  0  0
  -22.3613  -14.5563   20.6629 O   0  0  0  0  0  0
  -24.6199  -31.8691   23.2087 C   0  0  0  0  0  0
  -25.9060  -32.4830   23.8420 C   0  0  1  0  0  0
  -27.2275  -27.3907   20.1029 C   0  0  0  0  0  0
  -25.5904  -33.8627   24.2348 N   0  0  0  0  0  0
  -23.4111  -30.4970   21.5484 C   0  0  2  0  0  0
  -24.8564  -28.9630   20.1136 C   0  0  0  0  0  0
  -22.7468  -29.4682   22.4942 C   0  0  0  0  0  0
  -18.0299  -28.1390   22.8542 C   0  0  0  0  0  0
  -24.1476  -36.7283   23.2652 C   0  0  0  0  0  0
  -25.9484  -30.8209   21.3727 C   0  0  0  0  0  0
  -26.0220  -29.4550   20.7124 C   0  0  0  0  0  0
  -27.2114  -28.6797   20.7011 C   0  0  0  0  0  0
  -26.0362  -26.9322   19.4922 C   0  0  0  0  0  0
  -24.8603  -27.7010   19.5007 C   0  0  0  0  0  0
  -23.6270  -29.8429   20.1591 C   0  0  0  0  0  0
  -25.4095  -36.3122   24.0365 C   0  0  1  0  0  0
  -20.5910  -28.3689   23.1302 C   0  0  2  0  0  0
  -20.6788  -26.9417   22.5422 C   0  0  0  0  0  0
  -19.5735  -26.6398   21.5244 C   0  0  0  0  0  0
  -18.1921  -26.7948   22.1665 C   0  0  0  0  0  0
  -19.1566  -28.8851   23.2921 C   0  0  0  0  0  0
  -18.9480  -30.1463   23.8935 C   0  0  0  0  0  0
  -17.6477  -30.6601   24.0592 C   0  0  0  0  0  0
  -25.9028  -34.9484   23.5159 C   0  0  0  0  0  0
  -16.5360  -29.9114   23.6331 C   0  0  0  0  0  0
  -16.7293  -28.6515   23.0378 C   0  0  0  0  0  0
  -26.4477  -31.6617   25.0752 C   0  0  0  0  0  0
  -25.3748  -31.3704   26.1502 C   0  0  0  0  0  0
  -27.0308  -30.3070   24.6119 C   0  0  0  0  0  0
  -27.6051  -32.4355   25.7497 C   0  0  0  0  0  0
  -27.5576  -37.1802   24.8485 C   0  0  0  0  0  0
  -21.4189  -29.3038   22.3680 N   0  0  0  0  0  0
  -26.4292  -37.3807   23.9436 N   0  0  0  0  0  0
  -24.6776  -31.0781   22.1001 N   0  0  0  0  0  0
  -23.4224  -28.8242   23.3017 O   0  0  0  0  0  0
  -28.3763  -26.6048   20.1257 O   0  0  0  0  0  0
  -26.5589  -34.8936   22.4725 O   0  0  0  0  0  0
  -23.5366  -32.1454   23.7424 O   0  0  0  0  0  0
  -29.0762  -19.0749   20.4857 C   0  0  0  0  0  0
  -29.2711  -17.6882   20.2472 C   0  0  0  0  0  0
  -30.7200  -17.5426   22.1891 C   0  0  0  0  0  0
  -29.6246  -19.6902   21.6353 C   0  0  0  0  0  0
  -30.0431  -16.8930   21.1321 C   0  0  0  0  0  0
  -30.5133  -18.9219   22.4398 C   0  0  0  0  0  0
  -29.0631  -20.9705   22.1544 C   0  0  0  0  0  0
  -29.4926  -24.3195   20.2918 C   0  0  0  0  0  0
  -29.3358  -22.7539   20.2477 C   0  0  0  0  0  0
  -28.1941  -25.1601   20.0861 C   0  0  0  0  0  0
  -28.5382  -20.9321   23.3789 N   0  0  0  0  0  0
  -29.9038  -15.4669   21.1258 N   0  0  0  0  0  0
  -28.9338  -22.1851   21.5559 N   0  3  0  0  0  0
  -31.0955  -19.4730   23.5341 F   0  0  0  0  0  0
  -31.4758  -12.4682   19.0798 H   0  0  0  0  0  0
  -30.3765  -11.3166   19.7748 H   0  0  0  0  0  0
  -29.7357  -11.8258   17.4014 H   0  0  0  0  0  0
  -29.6506  -13.5265   17.7659 H   0  0  0  0  0  0
  -27.8152  -11.3310   18.7767 H   0  0  0  0  0  0
  -27.3668  -12.6954   17.7890 H   0  0  0  0  0  0
  -27.7148  -14.2584   19.6095 H   0  0  0  0  0  0
  -28.7160  -11.9060   21.2803 H   0  0  0  0  0  0
  -28.4851  -13.5061   21.9014 H   0  0  0  0  0  0
  -25.2775   -9.5701   22.4742 H   0  0  0  0  0  0
  -24.0017   -7.4664   22.7493 H   0  0  0  0  0  0
  -21.0841   -8.8776   19.8973 H   0  0  0  0  0  0
  -22.3698  -10.9682   19.6157 H   0  0  0  0  0  0
  -21.2002   -7.6152   23.9726 H   0  0  0  0  0  0
  -21.1508   -6.0522   25.9084 H   0  0  0  0  0  0
  -22.0589   -2.7622   23.2819 H   0  0  0  0  0  0
  -22.4132  -11.9963   22.4789 H   0  0  0  0  0  0
  -21.1131  -13.1336   22.2540 H   0  0  0  0  0  0
  -24.6520  -15.8313   20.5110 H   0  0  0  0  0  0
  -26.2797  -15.6438   20.1101 H   0  0  0  0  0  0
  -26.7151  -32.5526   23.1193 H   0  0  0  0  0  0
  -25.0101  -33.9815   25.0525 H   0  0  0  0  0  0
  -22.7013  -31.3145   21.4114 H   0  0  0  0  0  0
  -23.3766  -35.9593   23.3341 H   0  0  0  0  0  0
  -24.3585  -36.8848   22.2068 H   0  0  0  0  0  0
  -23.7188  -37.6480   23.6631 H   0  0  0  0  0  0
  -26.0791  -31.5919   20.6111 H   0  0  0  0  0  0
  -26.8272  -30.8598   22.0034 H   0  0  0  0  0  0
  -28.1087  -29.0589   21.1701 H   0  0  0  0  0  0
  -25.9844  -25.9772   18.9935 H   0  0  0  0  0  0
  -23.9664  -27.3137   19.0318 H   0  0  0  0  0  0
  -23.7554  -30.6283   19.4123 H   0  0  0  0  0  0
  -22.7461  -29.2836   19.8422 H   0  0  0  0  0  0
  -25.1261  -36.2005   25.0860 H   0  0  0  0  0  0
  -21.0013  -28.3238   24.1416 H   0  0  0  0  0  0
  -20.5715  -26.2288   23.3618 H   0  0  0  0  0  0
  -21.6646  -26.7452   22.1183 H   0  0  0  0  0  0
  -19.6864  -25.6307   21.1261 H   0  0  0  0  0  0
  -19.6649  -27.3245   20.6800 H   0  0  0  0  0  0
  -17.4201  -26.6778   21.4055 H   0  0  0  0  0  0
  -18.0254  -26.0072   22.9030 H   0  0  0  0  0  0
  -19.7950  -30.7296   24.2291 H   0  0  0  0  0  0
  -17.5029  -31.6288   24.5200 H   0  0  0  0  0  0
  -15.5366  -30.3038   23.7598 H   0  0  0  0  0  0
  -15.8702  -28.0840   22.7054 H   0  0  0  0  0  0
  -24.5938  -30.7020   25.7851 H   0  0  0  0  0  0
  -24.8922  -32.2842   26.4977 H   0  0  0  0  0  0
  -25.8132  -30.8888   27.0252 H   0  0  0  0  0  0
  -26.2829  -29.6831   24.1205 H   0  0  0  0  0  0
  -27.4120  -29.7304   25.4553 H   0  0  0  0  0  0
  -27.8666  -30.4417   23.9249 H   0  0  0  0  0  0
  -27.2665  -33.3671   26.2052 H   0  0  0  0  0  0
  -28.3841  -32.6890   25.0290 H   0  0  0  0  0  0
  -28.0739  -31.8507   26.5416 H   0  0  0  0  0  0
  -28.2611  -38.0082   24.7526 H   0  0  0  0  0  0
  -28.1047  -36.2618   24.6312 H   0  0  0  0  0  0
  -27.2307  -37.1450   25.8891 H   0  0  0  0  0  0
  -20.9324  -29.8798   21.6956 H   0  0  0  0  0  0
  -26.0178  -38.2883   24.1448 H   0  0  0  0  0  0
  -28.3893  -19.6294   19.8608 H   0  0  0  0  0  0
  -28.7366  -17.2257   19.4271 H   0  0  0  0  0  0
  -31.3183  -16.9715   22.8842 H   0  0  0  0  0  0
  -30.2029  -24.6049   19.5147 H   0  0  0  0  0  0
  -29.9633  -24.6134   21.2311 H   0  0  0  0  0  0
  -30.2875  -22.3081   19.9550 H   0  0  0  0  0  0
  -28.6123  -22.4662   19.4813 H   0  0  0  0  0  0
  -27.7776  -24.8663   19.1236 H   0  0  0  0  0  0
  -27.4562  -24.8782   20.8415 H   0  0  0  0  0  0
  -28.5354  -20.0533   23.8767 H   0  0  0  0  0  0
  -28.1682  -21.7372   23.8556 H   0  0  0  0  0  0
  -29.0054  -15.1287   21.4337 H   0  0  0  0  0  0
  -28.3605  -22.8339   22.0707 H   0  0  0  0  0  0
  1 25  1  0  0  0
  1 30  2  0  0  0
  1 82  1  0  0  0
  2  3  1  0  0  0
  2 25  1  0  0  0
  2 85  1  0  0  0
  2 86  1  0  0  0
  3  4  1  0  0  0
  3 87  1  0  0  0
  3 88  1  0  0  0
  4  5  1  0  0  0
  4 89  1  0  0  0
  4 90  1  0  0  0
  5  6  1  0  0  0
  5 26  1  0  0  0
  5 91  1  0  0  0
  6 25  1  0  0  0
  6 92  1  0  0  0
  6 93  1  0  0  0
  7  8  2  0  0  0
  7 26  1  0  0  0
  7 29  1  0  0  0
  8  9  1  0  0  0
  8 22  1  0  0  0
  9 10  1  0  0  0
  9 27  2  0  0  0
 10 11  2  0  0  0
 10 15  1  0  0  0
 11 12  1  0  0  0
 11 94  1  0  0  0
 12 13  2  0  0  0
 12 95  1  0  0  0
 13 14  1  0  0  0
 13 31  1  0  0  0
 14 15  2  0  0  0
 14 96  1  0  0  0
 15 97  1  0  0  0
 16 17  2  0  0  0
 16 21  1  0  0  0
 16 31  1  0  0  0
 17 18  1  0  0  0
 17 98  1  0  0  0
 18 19  2  0  0  0
 18 99  1  0  0  0
 19 20  1  0  0  0
 19 24  1  0  0  0
 20 21  2  0  0  0
 20100  1  0  0  0
 21 23  1  0  0  0
 22 28  1  0  0  0
 22 32  2  0  0  0
 26 27  1  0  0  0
 28101  1  0  0  0
 28102  1  0  0  0
 29103  1  0  0  0
 29104  1  0  0  0
 33 34  1  0  0  0
 33 66  1  0  0  0
 33 70  2  0  0  0
 34 36  1  0  0  0
 34 59  1  0  0  0
 34105  1  0  0  0
 35 44  2  0  0  0
 35 45  1  0  0  0
 35 68  1  0  0  0
 36 56  1  0  0  0
 36106  1  0  0  0
 37 39  1  0  0  0
 37 47  1  0  0  0
 37 66  1  0  0  0
 37107  1  0  0  0
 38 43  2  0  0  0
 38 46  1  0  0  0
 38 47  1  0  0  0
 39 64  1  0  0  0
 39 67  2  0  0  0
 40 52  1  0  0  0
 40 53  2  0  0  0
 40 58  1  0  0  0
 41108  1  0  0  0
 41109  1  0  0  0
 41110  1  0  0  0
 41 48  1  0  0  0
 42 43  1  0  0  0
 42 66  1  0  0  0
 42111  1  0  0  0
 42112  1  0  0  0
 43 44  1  0  0  0
 44113  1  0  0  0
 45 46  2  0  0  0
 45114  1  0  0  0
 46115  1  0  0  0
 47116  1  0  0  0
 47117  1  0  0  0
 48 56  1  0  0  0
 48 65  1  0  0  0
 48118  1  0  0  0
 49 50  1  0  0  0
 49 53  1  0  0  0
 49 64  1  0  0  0
 49119  1  0  0  0
 50 51  1  0  0  0
 50120  1  0  0  0
 50121  1  0  0  0
 51 52  1  0  0  0
 51122  1  0  0  0
 51123  1  0  0  0
 52124  1  0  0  0
 52125  1  0  0  0
 53 54  1  0  0  0
 54 55  2  0  0  0
 54126  1  0  0  0
 55 57  1  0  0  0
 55127  1  0  0  0
 56 69  2  0  0  0
 57 58  2  0  0  0
 57128  1  0  0  0
 58129  1  0  0  0
 59 60  1  0  0  0
 59 61  1  0  0  0
 59 62  1  0  0  0
 60130  1  0  0  0
 60131  1  0  0  0
 60132  1  0  0  0
 61133  1  0  0  0
 61134  1  0  0  0
 61135  1  0  0  0
 62136  1  0  0  0
 62137  1  0  0  0
 62138  1  0  0  0
 63 65  1  0  0  0
 63139  1  0  0  0
 63140  1  0  0  0
 63141  1  0  0  0
 64142  1  0  0  0
 65143  1  0  0  0
 68 80  1  0  0  0
 71 72  2  0  0  0
 71 74  1  0  0  0
 71144  1  0  0  0
 72 75  1  0  0  0
 72145  1  0  0  0
 73 75  2  0  0  0
 73 76  1  0  0  0
 73146  1  0  0  0
 74 76  2  0  0  0
 74 77  1  0  0  0
 75 82  1  0  0  0
 76 84  1  0  0  0
 77 81  1  0  0  0
 77 83  2  0  0  0
 78 79  1  0  0  0
 78 80  1  0  0  0
 78147  1  0  0  0
 78148  1  0  0  0
 79 83  1  0  0  0
 79149  1  0  0  0
 79150  1  0  0  0
 80151  1  0  0  0
 80152  1  0  0  0
 81153  1  0  0  0
 81154  1  0  0  0
 82155  1  0  0  0
 83156  1  0  0  0
M  CHG  1  83   1
M  ISO  4   1 100  68 101  80 101  82 100
M  END
> <chiral flag>
0

> <version>
0

> <s_m_source_file>
/data/baiqing/PycharmProjects/Reinvent-master-3.2/result/LINK_invent/BTK/process_docking_weight1_custom_product_contain_oxygen_bond_distance_aromatic_linkinvent_7_9_3/rearranged_h_0095.sdf

> <i_m_source_file_index>
48

> <r_mmod_Potential_Energy-OPLS-2005>
-108.764953613281

> <r_mmod_Stretch_Energy-OPLS-2005>
48.091739654541

> <r_mmod_Bend_Energy-OPLS-2005>
125.08373260498

> <r_mmod_Torsional_Energy-OPLS-2005>
269.164154052734

> <r_mmod_Improper_Torsional_Energy-OPLS-2005>
8.37253952026367

> <r_mmod_Van_der_Waal_Energy-OPLS-2005>
146.093231201172

> <r_mmod_Electrostatic_Energy-OPLS-2005>
-295.485229492188

> <r_mmod_Solvation_Energy-OPLS-2005>
-429.208312988281

> <b_mmod_Minimization_Converged-OPLS-2005>
0

> <r_mmod_RMS_Derivative-OPLS-2005>
3.60201525688171

$$$$
48
                    3D
 Structure written by MMmdl.
159168  0  0  1  0            999 V2000
  -30.6986  -14.6226   20.5914 C   0  0  0  0  0  0
  -30.4247  -12.4098   19.4582 C   0  0  0  0  0  0
  -29.5029  -12.5217   18.2263 C   0  0  0  0  0  0
  -28.0291  -12.3493   18.6362 C   0  0  0  0  0  0
  -27.6492  -13.2256   19.8577 C   0  0  2  0  0  0
  -28.6865  -13.0980   20.9903 C   0  0  0  0  0  0
  -25.2541  -13.8192   20.5690 C   0  0  0  0  0  0
  -24.1813  -13.0442   20.9168 C   0  0  0  0  0  0
  -24.6396  -11.6916   20.8718 C   0  0  0  0  0  0
  -23.9071  -10.4295   21.0396 C   0  0  0  0  0  0
  -24.3620   -9.4213   21.9180 C   0  0  0  0  0  0
  -23.6293   -8.2250   22.0755 C   0  0  0  0  0  0
  -22.4275   -8.0285   21.3546 C   0  0  0  0  0  0
  -21.9911   -9.0258   20.4648 C   0  0  0  0  0  0
  -22.7240  -10.2136   20.3052 C   0  0  0  0  0  0
  -21.6854   -6.0738   22.5278 C   0  0  0  0  0  0
  -21.4016   -6.5641   23.8212 C   0  0  0  0  0  0
  -21.3658   -5.6793   24.9174 C   0  0  0  0  0  0
  -21.6042   -4.3055   24.7224 C   0  0  0  0  0  0
  -21.8819   -3.8148   23.4344 C   0  0  0  0  0  0
  -21.9194   -4.6965   22.3400 C   0  0  0  0  0  0
  -22.7837  -13.5227   21.1843 C   0  0  0  0  0  0
  -22.1661   -4.2150   21.0978 F   0  0  0  0  0  0
  -21.5627   -3.4539   25.7737 F   0  0  0  0  0  0
  -30.0103  -13.4377   20.4408 N   0  0  0  0  0  0
  -26.2969  -12.9392   20.3293 N   0  0  0  0  0  0
  -25.9325  -11.6532   20.5727 N   0  0  0  0  0  0
  -22.0489  -12.8219   22.0406 N   0  0  0  0  0  0
  -25.4262  -15.1916   20.4179 N   0  0  0  0  0  0
  -31.7988  -14.7657   20.0495 O   0  0  0  0  0  0
  -21.6641   -6.8881   21.4241 O   0  0  0  0  0  0
  -22.3512  -14.5534   20.6699 O   0  0  0  0  0  0
  -24.6272  -31.8604   23.2034 C   0  0  0  0  0  0
  -25.9121  -32.4778   23.8356 C   0  0  1  0  0  0
  -27.2149  -27.3093   20.1124 C   0  0  0  0  0  0
  -25.5937  -33.8579   24.2285 N   0  0  0  0  0  0
  -23.4198  -30.4858   21.5475 C   0  0  2  0  0  0
  -24.8641  -28.9457   20.1090 C   0  0  0  0  0  0
  -22.7482  -29.4620   22.4939 C   0  0  0  0  0  0
  -18.0287  -28.1367   22.8483 C   0  0  0  0  0  0
  -24.1490  -36.7285   23.2640 C   0  0  0  0  0  0
  -25.9631  -30.7872   21.3769 C   0  0  0  0  0  0
  -26.0355  -29.4159   20.7160 C   0  0  0  0  0  0
  -27.2146  -28.6096   20.7091 C   0  0  0  0  0  0
  -26.0190  -26.9027   19.4730 C   0  0  0  0  0  0
  -24.8585  -27.6948   19.4784 C   0  0  0  0  0  0
  -23.6340  -29.8275   20.1605 C   0  0  0  0  0  0
  -25.4113  -36.3081   24.0332 C   0  0  1  0  0  0
  -20.5890  -28.3674   23.1276 C   0  0  2  0  0  0
  -20.6775  -26.9397   22.5405 C   0  0  0  0  0  0
  -19.5755  -26.6375   21.5200 C   0  0  0  0  0  0
  -18.1933  -26.7913   22.1614 C   0  0  0  0  0  0
  -19.1541  -28.8837   23.2873 C   0  0  0  0  0  0
  -18.9469  -30.1442   23.8890 C   0  0  0  0  0  0
  -17.6470  -30.6577   24.0555 C   0  0  0  0  0  0
  -25.9053  -34.9452   23.5107 C   0  0  0  0  0  0
  -16.5359  -29.9078   23.6324 C   0  0  0  0  0  0
  -16.7275  -28.6490   23.0350 C   0  0  0  0  0  0
  -26.4501  -31.6582   25.0724 C   0  0  0  0  0  0
  -25.3726  -31.3724   26.1447 C   0  0  0  0  0  0
  -27.0344  -30.3007   24.6170 C   0  0  0  0  0  0
  -27.6061  -32.4314   25.7496 C   0  0  0  0  0  0
  -27.5579  -37.1800   24.8468 C   0  0  0  0  0  0
  -21.4195  -29.3035   22.3678 N   0  0  0  0  0  0
  -26.4288  -37.3775   23.9411 N   0  0  0  0  0  0
  -24.6889  -31.0610   22.0991 N   0  0  0  0  0  0
  -23.4206  -28.8152   23.3013 O   0  0  0  0  0  0
  -28.3152  -26.4329   20.1741 O   0  0  0  0  0  0
  -26.5620  -34.8920   22.4673 O   0  0  0  0  0  0
  -23.5437  -32.1410   23.7360 O   0  0  0  0  0  0
  -30.8432  -19.1492   19.8514 C   0  0  0  0  0  0
  -30.9318  -17.7477   20.1040 C   0  0  0  0  0  0
  -28.7991  -19.2641   21.0817 C   0  0  0  0  0  0
  -29.7961  -19.9793   20.3609 C   0  0  0  0  0  0
  -29.9738  -17.0513   20.8888 C   0  0  0  0  0  0
  -28.8811  -17.8576   21.3351 C   0  0  0  0  0  0
  -30.7055  -22.2512   19.6380 C   0  0  0  0  0  0
  -30.4429  -14.4503   23.5064 C   0  0  0  0  0  0
  -30.1318  -15.5269   22.7556 C   0  0  0  0  0  0
  -30.2976  -23.7262   19.5433 C   0  0  0  0  0  0
  -28.6055  -22.3533   20.5347 C   0  0  0  0  0  0
  -29.0870  -23.8627   20.4618 C   0  0  2  0  0  0
  -28.0315  -24.9794   20.0390 C   0  0  0  0  0  0
  -29.7428  -21.4559   20.1700 N   0  0  0  0  0  0
  -30.1494  -15.6481   21.3418 N   0  0  0  0  0  0
  -31.8261  -21.9032   19.2565 O   0  0  0  0  0  0
  -27.8895  -17.2818   22.0574 F   0  0  0  0  0  0
  -31.4679  -12.5149   19.1552 H   0  0  0  0  0  0
  -30.3501  -11.4165   19.9034 H   0  0  0  0  0  0
  -29.7740  -11.7719   17.4819 H   0  0  0  0  0  0
  -29.6422  -13.4930   17.7488 H   0  0  0  0  0  0
  -27.8743  -11.2964   18.8745 H   0  0  0  0  0  0
  -27.3730  -12.5695   17.7935 H   0  0  0  0  0  0
  -27.6663  -14.2606   19.5148 H   0  0  0  0  0  0
  -28.6974  -12.0853   21.3957 H   0  0  0  0  0  0
  -28.3936  -13.7461   21.8140 H   0  0  0  0  0  0
  -25.2765   -9.5692   22.4753 H   0  0  0  0  0  0
  -24.0001   -7.4646   22.7480 H   0  0  0  0  0  0
  -21.0842   -8.8777   19.8957 H   0  0  0  0  0  0
  -22.3697  -10.9672   19.6162 H   0  0  0  0  0  0
  -21.2009   -7.6150   23.9714 H   0  0  0  0  0  0
  -21.1478   -6.0524   25.9076 H   0  0  0  0  0  0
  -22.0599   -2.7611   23.2844 H   0  0  0  0  0  0
  -22.4108  -11.9877   22.4787 H   0  0  0  0  0  0
  -21.1111  -13.1251   22.2623 H   0  0  0  0  0  0
  -24.6751  -15.8537   20.5765 H   0  0  0  0  0  0
  -26.3097  -15.6380   20.2064 H   0  0  0  0  0  0
  -26.7182  -32.5443   23.1097 H   0  0  0  0  0  0
  -25.0087  -33.9719   25.0432 H   0  0  0  0  0  0
  -22.7137  -31.3068   21.4084 H   0  0  0  0  0  0
  -23.3756  -35.9616   23.3302 H   0  0  0  0  0  0
  -24.3581  -36.8903   22.2055 H   0  0  0  0  0  0
  -23.7238  -37.6485   23.6658 H   0  0  0  0  0  0
  -26.0990  -31.5520   20.6112 H   0  0  0  0  0  0
  -26.8416  -30.8316   22.0083 H   0  0  0  0  0  0
  -28.1109  -28.9634   21.1997 H   0  0  0  0  0  0
  -25.9417  -25.9524   18.9681 H   0  0  0  0  0  0
  -23.9618  -27.3310   18.9952 H   0  0  0  0  0  0
  -23.7556  -30.6080   19.4085 H   0  0  0  0  0  0
  -22.7521  -29.2612   19.8548 H   0  0  0  0  0  0
  -25.1290  -36.1934   25.0823 H   0  0  0  0  0  0
  -20.9976  -28.3247   24.1397 H   0  0  0  0  0  0
  -20.5663  -26.2285   23.3605 H   0  0  0  0  0  0
  -21.6647  -26.7420   22.1209 H   0  0  0  0  0  0
  -19.6918  -25.6286   21.1229 H   0  0  0  0  0  0
  -19.6694  -27.3185   20.6730 H   0  0  0  0  0  0
  -17.4203  -26.6654   21.4016 H   0  0  0  0  0  0
  -18.0337  -26.0048   22.9004 H   0  0  0  0  0  0
  -19.7951  -30.7245   24.2267 H   0  0  0  0  0  0
  -17.5032  -31.6259   24.5154 H   0  0  0  0  0  0
  -15.5362  -30.2978   23.7652 H   0  0  0  0  0  0
  -15.8673  -28.0806   22.7074 H   0  0  0  0  0  0
  -24.5932  -30.7028   25.7789 H   0  0  0  0  0  0
  -24.8879  -32.2890   26.4820 H   0  0  0  0  0  0
  -25.8057  -30.8961   27.0252 H   0  0  0  0  0  0
  -26.2917  -29.6758   24.1197 H   0  0  0  0  0  0
  -27.4052  -29.7258   25.4664 H   0  0  0  0  0  0
  -27.8781  -30.4294   23.9387 H   0  0  0  0  0  0
  -27.2675  -33.3623   26.2053 H   0  0  0  0  0  0
  -28.3884  -32.6854   25.0332 H   0  0  0  0  0  0
  -28.0707  -31.8444   26.5428 H   0  0  0  0  0  0
  -28.2602  -38.0095   24.7514 H   0  0  0  0  0  0
  -28.1072  -36.2625   24.6294 H   0  0  0  0  0  0
  -27.2297  -37.1448   25.8872 H   0  0  0  0  0  0
  -20.9367  -29.8784   21.6912 H   0  0  0  0  0  0
  -26.0172  -38.2849   24.1416 H   0  0  0  0  0  0
  -31.6420  -19.5658   19.2587 H   0  0  0  0  0  0
  -31.7983  -17.2287   19.7219 H   0  0  0  0  0  0
  -27.9517  -19.7961   21.4866 H   0  0  0  0  0  0
  -30.3872  -14.5116   24.5844 H   0  0  0  0  0  0
  -30.7544  -13.5014   23.0945 H   0  0  0  0  0  0
  -29.8405  -16.4330   23.2673 H   0  0  0  0  0  0
  -30.0372  -23.9458   18.5079 H   0  0  0  0  0  0
  -31.1110  -24.3888   19.8401 H   0  0  0  0  0  0
  -27.7919  -22.1777   19.8292 H   0  0  0  0  0  0
  -28.2280  -22.1223   21.5309 H   0  0  0  0  0  0
  -29.4543  -24.1263   21.4550 H   0  0  0  0  0  0
  -27.1379  -24.7701   20.6298 H   0  0  0  0  0  0
  -27.7629  -24.7830   19.0007 H   0  0  0  0  0  0
  1 25  1  0  0  0
  1 30  2  0  0  0
  1 85  1  0  0  0
  2  3  1  0  0  0
  2 25  1  0  0  0
  2 88  1  0  0  0
  2 89  1  0  0  0
  3  4  1  0  0  0
  3 90  1  0  0  0
  3 91  1  0  0  0
  4  5  1  0  0  0
  4 92  1  0  0  0
  4 93  1  0  0  0
  5  6  1  0  0  0
  5 26  1  0  0  0
  5 94  1  0  0  0
  6 25  1  0  0  0
  6 95  1  0  0  0
  6 96  1  0  0  0
  7  8  2  0  0  0
  7 26  1  0  0  0
  7 29  1  0  0  0
  8  9  1  0  0  0
  8 22  1  0  0  0
  9 10  1  0  0  0
  9 27  2  0  0  0
 10 11  2  0  0  0
 10 15  1  0  0  0
 11 12  1  0  0  0
 11 97  1  0  0  0
 12 13  2  0  0  0
 12 98  1  0  0  0
 13 14  1  0  0  0
 13 31  1  0  0  0
 14 15  2  0  0  0
 14 99  1  0  0  0
 15100  1  0  0  0
 16 17  2  0  0  0
 16 21  1  0  0  0
 16 31  1  0  0  0
 17 18  1  0  0  0
 17101  1  0  0  0
 18 19  2  0  0  0
 18102  1  0  0  0
 19 20  1  0  0  0
 19 24  1  0  0  0
 20 21  2  0  0  0
 20103  1  0  0  0
 21 23  1  0  0  0
 22 28  1  0  0  0
 22 32  2  0  0  0
 26 27  1  0  0  0
 28104  1  0  0  0
 28105  1  0  0  0
 29106  1  0  0  0
 29107  1  0  0  0
 33 34  1  0  0  0
 33 66  1  0  0  0
 33 70  2  0  0  0
 34 36  1  0  0  0
 34 59  1  0  0  0
 34108  1  0  0  0
 35 44  2  0  0  0
 35 45  1  0  0  0
 35 68  1  0  0  0
 36 56  1  0  0  0
 36109  1  0  0  0
 37 39  1  0  0  0
 37 47  1  0  0  0
 37 66  1  0  0  0
 37110  1  0  0  0
 38 43  2  0  0  0
 38 46  1  0  0  0
 38 47  1  0  0  0
 39 64  1  0  0  0
 39 67  2  0  0  0
 40 52  1  0  0  0
 40 53  2  0  0  0
 40 58  1  0  0  0
 41111  1  0  0  0
 41112  1  0  0  0
 41113  1  0  0  0
 41 48  1  0  0  0
 42 43  1  0  0  0
 42 66  1  0  0  0
 42114  1  0  0  0
 42115  1  0  0  0
 43 44  1  0  0  0
 44116  1  0  0  0
 45 46  2  0  0  0
 45117  1  0  0  0
 46118  1  0  0  0
 47119  1  0  0  0
 47120  1  0  0  0
 48 56  1  0  0  0
 48 65  1  0  0  0
 48121  1  0  0  0
 49 50  1  0  0  0
 49 53  1  0  0  0
 49 64  1  0  0  0
 49122  1  0  0  0
 50 51  1  0  0  0
 50123  1  0  0  0
 50124  1  0  0  0
 51 52  1  0  0  0
 51125  1  0  0  0
 51126  1  0  0  0
 52127  1  0  0  0
 52128  1  0  0  0
 53 54  1  0  0  0
 54 55  2  0  0  0
 54129  1  0  0  0
 55 57  1  0  0  0
 55130  1  0  0  0
 56 69  2  0  0  0
 57 58  2  0  0  0
 57131  1  0  0  0
 58132  1  0  0  0
 59 60  1  0  0  0
 59 61  1  0  0  0
 59 62  1  0  0  0
 60133  1  0  0  0
 60134  1  0  0  0
 60135  1  0  0  0
 61136  1  0  0  0
 61137  1  0  0  0
 61138  1  0  0  0
 62139  1  0  0  0
 62140  1  0  0  0
 62141  1  0  0  0
 63 65  1  0  0  0
 63142  1  0  0  0
 63143  1  0  0  0
 63144  1  0  0  0
 64145  1  0  0  0
 65146  1  0  0  0
 68 83  1  0  0  0
 71 72  2  0  0  0
 71 74  1  0  0  0
 71147  1  0  0  0
 72 75  1  0  0  0
 72148  1  0  0  0
 73 74  2  0  0  0
 73 76  1  0  0  0
 73149  1  0  0  0
 74 84  1  0  0  0
 75 76  2  0  0  0
 75 85  1  0  0  0
 76 87  1  0  0  0
 77 80  1  0  0  0
 77 84  1  0  0  0
 77 86  2  0  0  0
 78 79  2  0  0  0
 78150  1  0  0  0
 78151  1  0  0  0
 79 85  1  0  0  0
 79152  1  0  0  0
 80 82  1  0  0  0
 80153  1  0  0  0
 80154  1  0  0  0
 81 82  1  0  0  0
 81 84  1  0  0  0
 81155  1  0  0  0
 81156  1  0  0  0
 82 83  1  0  0  0
 82157  1  0  0  0
 83158  1  0  0  0
 83159  1  0  0  0
M  ISO  4   1 100  68 101  83 101  85 100
M  END
> <chiral flag>
0

> <version>
0

> <s_m_source_file>
/data/baiqing/PycharmProjects/Reinvent-master-3.2/result/LINK_invent/BTK/process_docking_weight1_custom_product_contain_oxygen_bond_distance_aromatic_linkinvent_7_9_3/rearranged_h_0095.sdf

> <i_m_source_file_index>
49

> <r_mmod_Potential_Energy-OPLS-2005>
321.109283447266

> <r_mmod_Stretch_Energy-OPLS-2005>
97.1231842041016

> <r_mmod_Bend_Energy-OPLS-2005>
175.613494873047

> <r_mmod_Torsional_Energy-OPLS-2005>
337.344604492188

> <r_mmod_Improper_Torsional_Energy-OPLS-2005>
3.24153566360474

> <r_mmod_Van_der_Waal_Energy-OPLS-2005>
165.244888305664

> <r_mmod_Electrostatic_Energy-OPLS-2005>
-307.772430419922

> <r_mmod_Solvation_Energy-OPLS-2005>
-198.670364379883

> <b_mmod_Minimization_Converged-OPLS-2005>
0

> <r_mmod_RMS_Derivative-OPLS-2005>
0.639830768108368

$$$$
49
                    3D
 Structure written by MMmdl.
154162  0  0  1  0            999 V2000
  -30.6008  -14.7823   20.4280 C   0  0  0  0  0  0
  -30.4283  -12.4699   19.4921 C   0  0  0  0  0  0
  -29.5140  -12.5036   18.2465 C   0  0  0  0  0  0
  -28.0424  -12.3205   18.6582 C   0  0  0  0  0  0
  -27.6379  -13.2359   19.8446 C   0  0  2  0  0  0
  -28.6777  -13.2021   20.9855 C   0  0  0  0  0  0
  -25.2507  -13.8215   20.5698 C   0  0  0  0  0  0
  -24.1817  -13.0443   20.9225 C   0  0  0  0  0  0
  -24.6413  -11.6925   20.8755 C   0  0  0  0  0  0
  -23.9085  -10.4294   21.0401 C   0  0  0  0  0  0
  -24.3635   -9.4207   21.9185 C   0  0  0  0  0  0
  -23.6308   -8.2240   22.0745 C   0  0  0  0  0  0
  -22.4282   -8.0293   21.3549 C   0  0  0  0  0  0
  -21.9925   -9.0263   20.4642 C   0  0  0  0  0  0
  -22.7247  -10.2142   20.3061 C   0  0  0  0  0  0
  -21.6847   -6.0741   22.5282 C   0  0  0  0  0  0
  -21.4009   -6.5643   23.8216 C   0  0  0  0  0  0
  -21.3662   -5.6796   24.9179 C   0  0  0  0  0  0
  -21.6050   -4.3060   24.7222 C   0  0  0  0  0  0
  -21.8818   -3.8153   23.4340 C   0  0  0  0  0  0
  -21.9190   -4.6971   22.3399 C   0  0  0  0  0  0
  -22.7836  -13.5221   21.1865 C   0  0  0  0  0  0
  -22.1649   -4.2159   21.0976 F   0  0  0  0  0  0
  -21.5639   -3.4545   25.7735 F   0  0  0  0  0  0
  -29.9765  -13.5512   20.4009 N   0  0  0  0  0  0
  -26.2922  -12.9420   20.3245 N   0  0  0  0  0  0
  -25.9344  -11.6558   20.5746 N   0  0  0  0  0  0
  -22.0492  -12.8222   22.0425 N   0  0  0  0  0  0
  -25.4160  -15.1945   20.4078 N   0  0  0  0  0  0
  -31.8008  -14.8240   20.1378 O   0  0  0  0  0  0
  -21.6647   -6.8884   21.4245 O   0  0  0  0  0  0
  -22.3508  -14.5509   20.6684 O   0  0  0  0  0  0
  -24.6320  -31.8527   23.1956 C   0  0  0  0  0  0
  -25.9145  -32.4741   23.8306 C   0  0  1  0  0  0
  -27.2204  -27.2476   20.1262 C   0  0  0  0  0  0
  -25.5940  -33.8541   24.2231 N   0  0  0  0  0  0
  -23.4284  -30.4729   21.5385 C   0  0  2  0  0  0
  -24.8751  -28.9115   20.1071 C   0  0  0  0  0  0
  -22.7507  -29.4588   22.4908 C   0  0  0  0  0  0
  -18.0297  -28.1385   22.8478 C   0  0  0  0  0  0
  -24.1484  -36.7277   23.2638 C   0  0  0  0  0  0
  -25.9736  -30.7600   21.3763 C   0  0  0  0  0  0
  -26.0437  -29.3797   20.7189 C   0  0  0  0  0  0
  -27.2162  -28.5582   20.7182 C   0  0  0  0  0  0
  -26.0280  -26.8405   19.4924 C   0  0  0  0  0  0
  -24.8725  -27.6517   19.4846 C   0  0  0  0  0  0
  -23.6459  -29.8013   20.1553 C   0  0  0  0  0  0
  -25.4116  -36.3060   24.0320 C   0  0  1  0  0  0
  -20.5887  -28.3704   23.1267 C   0  0  2  0  0  0
  -20.6777  -26.9421   22.5426 C   0  0  0  0  0  0
  -19.5758  -26.6370   21.5245 C   0  0  0  0  0  0
  -18.1939  -26.7920   22.1640 C   0  0  0  0  0  0
  -19.1541  -28.8864   23.2854 C   0  0  0  0  0  0
  -18.9465  -30.1463   23.8881 C   0  0  0  0  0  0
  -17.6459  -30.6587   24.0544 C   0  0  0  0  0  0
  -25.9065  -34.9434   23.5087 C   0  0  0  0  0  0
  -16.5354  -29.9083   23.6321 C   0  0  0  0  0  0
  -16.7283  -28.6500   23.0348 C   0  0  0  0  0  0
  -26.4504  -31.6579   25.0707 C   0  0  0  0  0  0
  -25.3716  -31.3752   26.1422 C   0  0  0  0  0  0
  -27.0358  -30.2990   24.6224 C   0  0  0  0  0  0
  -27.6042  -32.4336   25.7481 C   0  0  0  0  0  0
  -27.5578  -37.1797   24.8468 C   0  0  0  0  0  0
  -21.4211  -29.3041   22.3654 N   0  0  0  0  0  0
  -26.4290  -37.3764   23.9410 N   0  0  0  0  0  0
  -24.6967  -31.0480   22.0933 N   0  0  0  0  0  0
  -23.4199  -28.8142   23.3026 O   0  0  0  0  0  0
  -28.3362  -26.3835   20.2132 O   0  0  0  0  0  0
  -26.5632  -34.8922   22.4655 O   0  0  0  0  0  0
  -23.5475  -32.1348   23.7261 O   0  0  0  0  0  0
  -27.9751  -18.2296   21.3273 C   0  0  0  0  0  0
  -29.4164  -19.8562   20.2388 C   0  0  0  0  0  0
  -29.1743  -18.4633   20.6281 C   0  0  0  0  0  0
  -27.0973  -19.2876   21.6318 C   0  0  0  0  0  0
  -27.3714  -20.6355   21.2754 C   0  0  0  0  0  0
  -28.5389  -20.9892   20.5324 C   0  0  0  0  0  0
  -30.1733  -17.2800   20.3917 C   0  0  0  0  0  0
  -28.4259  -24.9933   19.6303 C   0  0  0  0  0  0
  -28.0861  -23.5962   20.3990 C   0  0  0  0  0  0
  -25.9097  -19.0050   22.3089 N   0  0  0  0  0  0
  -26.4423  -21.5690   21.7394 N   0  0  0  0  0  0
  -29.8247  -15.9373   20.5775 N   0  0  0  0  0  0
  -31.3023  -17.6091   20.0130 O   0  0  0  0  0  0
  -28.8542  -22.3299   20.0955 O   0  0  0  0  0  0
  -31.4730  -12.5827   19.1960 H   0  0  0  0  0  0
  -30.3662  -11.5038   19.9944 H   0  0  0  0  0  0
  -29.8040  -11.7235   17.5404 H   0  0  0  0  0  0
  -29.6342  -13.4534   17.7224 H   0  0  0  0  0  0
  -27.9122  -11.2744   18.9403 H   0  0  0  0  0  0
  -27.3847  -12.4895   17.8046 H   0  0  0  0  0  0
  -27.6224  -14.2504   19.4441 H   0  0  0  0  0  0
  -28.7187  -12.2155   21.4514 H   0  0  0  0  0  0
  -28.4078  -13.9033   21.7774 H   0  0  0  0  0  0
  -25.2768   -9.5690   22.4778 H   0  0  0  0  0  0
  -24.0012   -7.4633   22.7473 H   0  0  0  0  0  0
  -21.0846   -8.8788   19.8961 H   0  0  0  0  0  0
  -22.3693  -10.9694   19.6199 H   0  0  0  0  0  0
  -21.1989   -7.6152   23.9722 H   0  0  0  0  0  0
  -21.1481   -6.0524   25.9083 H   0  0  0  0  0  0
  -22.0591   -2.7613   23.2839 H   0  0  0  0  0  0
  -22.4082  -11.9889   22.4837 H   0  0  0  0  0  0
  -21.1125  -13.1269   22.2620 H   0  0  0  0  0  0
  -24.6253  -15.8258   20.4705 H   0  0  0  0  0  0
  -26.2235  -15.6213   19.9753 H   0  0  0  0  0  0
  -26.7201  -32.5373   23.1034 H   0  0  0  0  0  0
  -25.0075  -33.9656   25.0368 H   0  0  0  0  0  0
  -22.7259  -31.2958   21.3903 H   0  0  0  0  0  0
  -23.3756  -35.9604   23.3302 H   0  0  0  0  0  0
  -24.3570  -36.8900   22.2056 H   0  0  0  0  0  0
  -23.7233  -37.6474   23.6668 H   0  0  0  0  0  0
  -26.1160  -31.5207   20.6071 H   0  0  0  0  0  0
  -26.8498  -30.8067   22.0128 H   0  0  0  0  0  0
  -28.1131  -28.9115   21.2076 H   0  0  0  0  0  0
  -25.9574  -25.8698   19.0266 H   0  0  0  0  0  0
  -23.9725  -27.2869   19.0091 H   0  0  0  0  0  0
  -23.7756  -30.5755   19.3977 H   0  0  0  0  0  0
  -22.7627  -29.2365   19.8502 H   0  0  0  0  0  0
  -25.1303  -36.1899   25.0814 H   0  0  0  0  0  0
  -20.9986  -28.3298   24.1388 H   0  0  0  0  0  0
  -20.5675  -26.2348   23.3653 H   0  0  0  0  0  0
  -21.6653  -26.7419   22.1248 H   0  0  0  0  0  0
  -19.6918  -25.6272   21.1323 H   0  0  0  0  0  0
  -19.6722  -27.3134   20.6746 H   0  0  0  0  0  0
  -17.4207  -26.6631   21.4041 H   0  0  0  0  0  0
  -18.0353  -26.0088   22.9069 H   0  0  0  0  0  0
  -19.7936  -30.7281   24.2253 H   0  0  0  0  0  0
  -17.5007  -31.6267   24.5140 H   0  0  0  0  0  0
  -15.5352  -30.2973   23.7657 H   0  0  0  0  0  0
  -15.8678  -28.0814   22.7087 H   0  0  0  0  0  0
  -24.5886  -30.7102   25.7756 H   0  0  0  0  0  0
  -24.8914  -32.2935   26.4821 H   0  0  0  0  0  0
  -25.8023  -30.8945   27.0211 H   0  0  0  0  0  0
  -26.2953  -29.6725   24.1235 H   0  0  0  0  0  0
  -27.4005  -29.7275   25.4767 H   0  0  0  0  0  0
  -27.8845  -30.4252   23.9494 H   0  0  0  0  0  0
  -27.2632  -33.3638   26.2040 H   0  0  0  0  0  0
  -28.3863  -32.6896   25.0320 H   0  0  0  0  0  0
  -28.0698  -31.8474   26.5411 H   0  0  0  0  0  0
  -28.2602  -38.0083   24.7511 H   0  0  0  0  0  0
  -28.1062  -36.2623   24.6301 H   0  0  0  0  0  0
  -27.2296  -37.1457   25.8865 H   0  0  0  0  0  0
  -20.9403  -29.8770   21.6857 H   0  0  0  0  0  0
  -26.0169  -38.2839   24.1409 H   0  0  0  0  0  0
  -27.7316  -17.2293   21.6557 H   0  0  0  0  0  0
  -30.3306  -20.0709   19.7035 H   0  0  0  0  0  0
  -29.4862  -24.9144   19.3902 H   0  0  0  0  0  0
  -27.9498  -24.9798   18.6487 H   0  0  0  0  0  0
  -28.1801  -23.7723   21.4704 H   0  0  0  0  0  0
  -27.0303  -23.4241   20.1943 H   0  0  0  0  0  0
  -25.5858  -18.0463   22.2513 H   0  0  0  0  0  0
  -25.1671  -19.6544   22.0701 H   0  0  0  0  0  0
  -26.8208  -22.4854   21.9332 H   0  0  0  0  0  0
  -25.9475  -21.2075   22.5475 H   0  0  0  0  0  0
  -28.8644  -15.7776   20.8238 H   0  0  0  0  0  0
  1 25  1  0  0  0
  1 30  2  0  0  0
  1 82  1  0  0  0
  2  3  1  0  0  0
  2 25  1  0  0  0
  2 85  1  0  0  0
  2 86  1  0  0  0
  3  4  1  0  0  0
  3 87  1  0  0  0
  3 88  1  0  0  0
  4  5  1  0  0  0
  4 89  1  0  0  0
  4 90  1  0  0  0
  5  6  1  0  0  0
  5 26  1  0  0  0
  5 91  1  0  0  0
  6 25  1  0  0  0
  6 92  1  0  0  0
  6 93  1  0  0  0
  7  8  2  0  0  0
  7 26  1  0  0  0
  7 29  1  0  0  0
  8  9  1  0  0  0
  8 22  1  0  0  0
  9 10  1  0  0  0
  9 27  2  0  0  0
 10 11  2  0  0  0
 10 15  1  0  0  0
 11 12  1  0  0  0
 11 94  1  0  0  0
 12 13  2  0  0  0
 12 95  1  0  0  0
 13 14  1  0  0  0
 13 31  1  0  0  0
 14 15  2  0  0  0
 14 96  1  0  0  0
 15 97  1  0  0  0
 16 17  2  0  0  0
 16 21  1  0  0  0
 16 31  1  0  0  0
 17 18  1  0  0  0
 17 98  1  0  0  0
 18 19  2  0  0  0
 18 99  1  0  0  0
 19 20  1  0  0  0
 19 24  1  0  0  0
 20 21  2  0  0  0
 20100  1  0  0  0
 21 23  1  0  0  0
 22 28  1  0  0  0
 22 32  2  0  0  0
 26 27  1  0  0  0
 28101  1  0  0  0
 28102  1  0  0  0
 29103  1  0  0  0
 29104  1  0  0  0
 33 34  1  0  0  0
 33 66  1  0  0  0
 33 70  2  0  0  0
 34 36  1  0  0  0
 34 59  1  0  0  0
 34105  1  0  0  0
 35 44  2  0  0  0
 35 45  1  0  0  0
 35 68  1  0  0  0
 36 56  1  0  0  0
 36106  1  0  0  0
 37 39  1  0  0  0
 37 47  1  0  0  0
 37 66  1  0  0  0
 37107  1  0  0  0
 38 43  2  0  0  0
 38 46  1  0  0  0
 38 47  1  0  0  0
 39 64  1  0  0  0
 39 67  2  0  0  0
 40 52  1  0  0  0
 40 53  2  0  0  0
 40 58  1  0  0  0
 41108  1  0  0  0
 41109  1  0  0  0
 41110  1  0  0  0
 41 48  1  0  0  0
 42 43  1  0  0  0
 42 66  1  0  0  0
 42111  1  0  0  0
 42112  1  0  0  0
 43 44  1  0  0  0
 44113  1  0  0  0
 45 46  2  0  0  0
 45114  1  0  0  0
 46115  1  0  0  0
 47116  1  0  0  0
 47117  1  0  0  0
 48 56  1  0  0  0
 48 65  1  0  0  0
 48118  1  0  0  0
 49 50  1  0  0  0
 49 53  1  0  0  0
 49 64  1  0  0  0
 49119  1  0  0  0
 50 51  1  0  0  0
 50120  1  0  0  0
 50121  1  0  0  0
 51 52  1  0  0  0
 51122  1  0  0  0
 51123  1  0  0  0
 52124  1  0  0  0
 52125  1  0  0  0
 53 54  1  0  0  0
 54 55  2  0  0  0
 54126  1  0  0  0
 55 57  1  0  0  0
 55127  1  0  0  0
 56 69  2  0  0  0
 57 58  2  0  0  0
 57128  1  0  0  0
 58129  1  0  0  0
 59 60  1  0  0  0
 59 61  1  0  0  0
 59 62  1  0  0  0
 60130  1  0  0  0
 60131  1  0  0  0
 60132  1  0  0  0
 61133  1  0  0  0
 61134  1  0  0  0
 61135  1  0  0  0
 62136  1  0  0  0
 62137  1  0  0  0
 62138  1  0  0  0
 63 65  1  0  0  0
 63139  1  0  0  0
 63140  1  0  0  0
 63141  1  0  0  0
 64142  1  0  0  0
 65143  1  0  0  0
 68 78  1  0  0  0
 71 73  2  0  0  0
 71 74  1  0  0  0
 71144  1  0  0  0
 72 73  1  0  0  0
 72 76  2  0  0  0
 72145  1  0  0  0
 73 77  1  0  0  0
 74 75  2  0  0  0
 74 80  1  0  0  0
 75 76  1  0  0  0
 75 81  1  0  0  0
 76 84  1  0  0  0
 77 82  1  0  0  0
 77 83  2  0  0  0
 78 79  1  0  0  0
 78146  1  0  0  0
 78147  1  0  0  0
 79 84  1  0  0  0
 79148  1  0  0  0
 79149  1  0  0  0
 80150  1  0  0  0
 80151  1  0  0  0
 81152  1  0  0  0
 81153  1  0  0  0
 82154  1  0  0  0
M  ISO  4   1 100  68 101  78 101  82 100
M  END
> <chiral flag>
0

> <version>
0

> <s_m_source_file>
/data/baiqing/PycharmProjects/Reinvent-master-3.2/result/LINK_invent/BTK/process_docking_weight1_custom_product_contain_oxygen_bond_distance_aromatic_linkinvent_7_9_3/rearranged_h_0095.sdf

> <i_m_source_file_index>
50

> <r_mmod_Potential_Energy-OPLS-2005>
-21.4048023223877

> <r_mmod_Stretch_Energy-OPLS-2005>
141.194091796875

> <r_mmod_Bend_Energy-OPLS-2005>
206.81120300293

> <r_mmod_Torsional_Energy-OPLS-2005>
219.419769287109

> <r_mmod_Improper_Torsional_Energy-OPLS-2005>
15.9248371124268

> <r_mmod_Van_der_Waal_Energy-OPLS-2005>
157.00341796875

> <r_mmod_Electrostatic_Energy-OPLS-2005>
-615.585083007812

> <r_mmod_Solvation_Energy-OPLS-2005>
-243.339080810547

> <b_mmod_Minimization_Converged-OPLS-2005>
0

> <r_mmod_RMS_Derivative-OPLS-2005>
2.23449802398682

$$$$
50
                    3D
 Structure written by MMmdl.
161169  0  0  1  0            999 V2000
  -30.7048  -14.5080   20.5353 C   0  0  0  0  0  0
  -30.4205  -12.3159   19.4467 C   0  0  0  0  0  0
  -29.5052  -12.5028   18.2177 C   0  0  0  0  0  0
  -28.0234  -12.3629   18.6189 C   0  0  0  0  0  0
  -27.6586  -13.2177   19.8636 C   0  0  2  0  0  0
  -28.6980  -13.0411   20.9964 C   0  0  0  0  0  0
  -25.2573  -13.8193   20.5673 C   0  0  0  0  0  0
  -24.1840  -13.0448   20.9171 C   0  0  0  0  0  0
  -24.6414  -11.6922   20.8723 C   0  0  0  0  0  0
  -23.9080  -10.4301   21.0390 C   0  0  0  0  0  0
  -24.3638   -9.4221   21.9172 C   0  0  0  0  0  0
  -23.6319   -8.2257   22.0752 C   0  0  0  0  0  0
  -22.4297   -8.0300   21.3550 C   0  0  0  0  0  0
  -21.9926   -9.0275   20.4641 C   0  0  0  0  0  0
  -22.7259  -10.2148   20.3046 C   0  0  0  0  0  0
  -21.6865   -6.0757   22.5275 C   0  0  0  0  0  0
  -21.4017   -6.5641   23.8216 C   0  0  0  0  0  0
  -21.3656   -5.6783   24.9165 C   0  0  0  0  0  0
  -21.6044   -4.3052   24.7205 C   0  0  0  0  0  0
  -21.8815   -3.8152   23.4326 C   0  0  0  0  0  0
  -21.9194   -4.6975   22.3388 C   0  0  0  0  0  0
  -22.7854  -13.5246   21.1819 C   0  0  0  0  0  0
  -22.1665   -4.2166   21.0965 F   0  0  0  0  0  0
  -21.5638   -3.4524   25.7719 F   0  0  0  0  0  0
  -30.0294  -13.3279   20.4439 N   0  0  0  0  0  0
  -26.3010  -12.9380   20.3296 N   0  0  0  0  0  0
  -25.9341  -11.6531   20.5739 N   0  0  0  0  0  0
  -22.0479  -12.8268   22.0374 N   0  0  0  0  0  0
  -25.4277  -15.1924   20.4106 N   0  0  0  0  0  0
  -31.8552  -14.6387   20.1116 O   0  0  0  0  0  0
  -21.6650   -6.8910   21.4255 O   0  0  0  0  0  0
  -22.3540  -14.5530   20.6626 O   0  0  0  0  0  0
  -24.6198  -31.8665   23.2078 C   0  0  0  0  0  0
  -25.9072  -32.4802   23.8380 C   0  0  1  0  0  0
  -27.2202  -27.3940   20.1054 C   0  0  0  0  0  0
  -25.5893  -33.8599   24.2293 N   0  0  0  0  0  0
  -23.4057  -30.4943   21.5509 C   0  0  2  0  0  0
  -24.8463  -28.9607   20.1142 C   0  0  0  0  0  0
  -22.7437  -29.4677   22.4985 C   0  0  0  0  0  0
  -18.0269  -28.1372   22.8494 C   0  0  0  0  0  0
  -24.1483  -36.7328   23.2642 C   0  0  0  0  0  0
  -25.9408  -30.8243   21.3630 C   0  0  0  0  0  0
  -26.0139  -29.4582   20.7050 C   0  0  0  0  0  0
  -27.2059  -28.6871   20.6880 C   0  0  0  0  0  0
  -26.0241  -26.9269   19.5047 C   0  0  0  0  0  0
  -24.8482  -27.6948   19.5098 C   0  0  0  0  0  0
  -23.6111  -29.8322   20.1652 C   0  0  0  0  0  0
  -25.4097  -36.3095   24.0335 C   0  0  1  0  0  0
  -20.5869  -28.3678   23.1309 C   0  0  2  0  0  0
  -20.6750  -26.9401   22.5431 C   0  0  0  0  0  0
  -19.5720  -26.6379   21.5227 C   0  0  0  0  0  0
  -18.1900  -26.7918   22.1634 C   0  0  0  0  0  0
  -19.1524  -28.8836   23.2891 C   0  0  0  0  0  0
  -18.9451  -30.1442   23.8902 C   0  0  0  0  0  0
  -17.6456  -30.6585   24.0561 C   0  0  0  0  0  0
  -25.9040  -34.9463   23.5112 C   0  0  0  0  0  0
  -16.5346  -29.9098   23.6306 C   0  0  0  0  0  0
  -16.7263  -28.6507   23.0341 C   0  0  0  0  0  0
  -26.4455  -31.6600   25.0746 C   0  0  0  0  0  0
  -25.3717  -31.3750   26.1508 C   0  0  0  0  0  0
  -27.0259  -30.3009   24.6173 C   0  0  0  0  0  0
  -27.6002  -32.4351   25.7523 C   0  0  0  0  0  0
  -27.5570  -37.1810   24.8455 C   0  0  0  0  0  0
  -21.4165  -29.3047   22.3723 N   0  0  0  0  0  0
  -26.4269  -37.3794   23.9423 N   0  0  0  0  0  0
  -24.6738  -31.0772   22.0974 N   0  0  0  0  0  0
  -23.4197  -28.8214   23.3029 O   0  0  0  0  0  0
  -28.3644  -26.6030   20.1471 O   0  0  0  0  0  0
  -26.5631  -34.8919   22.4694 O   0  0  0  0  0  0
  -23.5387  -32.1421   23.7468 O   0  0  0  0  0  0
  -29.2920  -17.9431   22.6334 C   0  0  0  0  0  0
  -29.9986  -19.4862   20.8785 C   0  0  0  0  0  0
  -29.8481  -18.1511   21.3534 C   0  0  0  0  0  0
  -28.9245  -19.0442   23.4356 C   0  0  0  0  0  0
  -29.6180  -20.6017   21.6715 C   0  0  0  0  0  0
  -29.0952  -20.3655   22.9643 C   0  0  0  0  0  0
  -28.9828  -22.7608   20.6159 C   0  0  0  0  0  0
  -30.4254  -24.3722   19.2863 C   0  0  0  0  0  0
  -30.3598  -16.9754   20.5014 C   0  0  0  0  0  0
  -28.1478  -25.1662   20.1078 C   0  0  0  0  0  0
  -29.3791  -24.2558   20.4127 C   0  0  1  0  0  0
  -28.4250  -18.8460   24.7238 N   0  0  0  0  0  0
  -28.7475  -21.4255   23.8043 N   0  0  0  0  0  0
  -29.8589  -21.9483   21.2440 N   0  0  0  0  0  0
  -29.9838  -15.5947   20.8924 N   0  0  0  0  0  0
  -27.8979  -22.3488   20.1976 O   0  0  0  0  0  0
  -31.4692  -12.3981   19.1550 H   0  0  0  0  0  0
  -30.3126  -11.3136   19.8663 H   0  0  0  0  0  0
  -29.7584  -11.7731   17.4471 H   0  0  0  0  0  0
  -29.6681  -13.4869   17.7744 H   0  0  0  0  0  0
  -27.8355  -11.3100   18.8288 H   0  0  0  0  0  0
  -27.3799  -12.6264   17.7780 H   0  0  0  0  0  0
  -27.6862  -14.2584   19.5386 H   0  0  0  0  0  0
  -28.6719  -12.0228   21.3858 H   0  0  0  0  0  0
  -28.4626  -13.6862   21.8441 H   0  0  0  0  0  0
  -25.2795   -9.5701   22.4723 H   0  0  0  0  0  0
  -24.0032   -7.4659   22.7479 H   0  0  0  0  0  0
  -21.0859   -8.8803   19.8960 H   0  0  0  0  0  0
  -22.3735  -10.9693   19.6139 H   0  0  0  0  0  0
  -21.2009   -7.6153   23.9717 H   0  0  0  0  0  0
  -21.1485   -6.0511   25.9071 H   0  0  0  0  0  0
  -22.0600   -2.7623   23.2791 H   0  0  0  0  0  0
  -22.4113  -11.9965   22.4819 H   0  0  0  0  0  0
  -21.1085  -13.1318   22.2517 H   0  0  0  0  0  0
  -24.6607  -15.8471   20.5259 H   0  0  0  0  0  0
  -26.2788  -15.6335   20.0860 H   0  0  0  0  0  0
  -26.7160  -32.5477   23.1153 H   0  0  0  0  0  0
  -24.9935  -33.9737   25.0360 H   0  0  0  0  0  0
  -22.6921  -31.3100   21.4179 H   0  0  0  0  0  0
  -23.3719  -35.9687   23.3296 H   0  0  0  0  0  0
  -24.3583  -36.8957   22.2059 H   0  0  0  0  0  0
  -23.7254  -37.6535   23.6672 H   0  0  0  0  0  0
  -26.0631  -31.5903   20.5959 H   0  0  0  0  0  0
  -26.8256  -30.8710   21.9861 H   0  0  0  0  0  0
  -28.1044  -29.0715   21.1501 H   0  0  0  0  0  0
  -25.9621  -25.9588   19.0346 H   0  0  0  0  0  0
  -23.9505  -27.3001   19.0550 H   0  0  0  0  0  0
  -23.7175  -30.6096   19.4084 H   0  0  0  0  0  0
  -22.7318  -29.2569   19.8692 H   0  0  0  0  0  0
  -25.1264  -36.1947   25.0826 H   0  0  0  0  0  0
  -20.9945  -28.3256   24.1434 H   0  0  0  0  0  0
  -20.5640  -26.2294   23.3640 H   0  0  0  0  0  0
  -21.6620  -26.7426   22.1227 H   0  0  0  0  0  0
  -19.6872  -25.6295   21.1237 H   0  0  0  0  0  0
  -19.6636  -27.3206   20.6767 H   0  0  0  0  0  0
  -17.4171  -26.6674   21.4033 H   0  0  0  0  0  0
  -18.0284  -26.0062   22.9030 H   0  0  0  0  0  0
  -19.7939  -30.7244   24.2270 H   0  0  0  0  0  0
  -17.5025  -31.6265   24.5182 H   0  0  0  0  0  0
  -15.5348  -30.3007   23.7621 H   0  0  0  0  0  0
  -15.8666  -28.0842   22.7034 H   0  0  0  0  0  0
  -24.5873  -30.7094   25.7889 H   0  0  0  0  0  0
  -24.8929  -32.2923   26.4948 H   0  0  0  0  0  0
  -25.8082  -30.8945   27.0276 H   0  0  0  0  0  0
  -26.2816  -29.6828   24.1136 H   0  0  0  0  0  0
  -27.3860  -29.7205   25.4679 H   0  0  0  0  0  0
  -27.8735  -30.4264   23.9431 H   0  0  0  0  0  0
  -27.2554  -33.3618   26.2129 H   0  0  0  0  0  0
  -28.3790  -32.6985   25.0356 H   0  0  0  0  0  0
  -28.0699  -31.8482   26.5424 H   0  0  0  0  0  0
  -28.2582  -38.0113   24.7492 H   0  0  0  0  0  0
  -28.1054  -36.2636   24.6257 H   0  0  0  0  0  0
  -27.2307  -37.1457   25.8864 H   0  0  0  0  0  0
  -20.9333  -29.8782   21.6957 H   0  0  0  0  0  0
  -26.0141  -38.2868   24.1423 H   0  0  0  0  0  0
  -29.1780  -16.9386   23.0157 H   0  0  0  0  0  0
  -30.4375  -19.6579   19.9060 H   0  0  0  0  0  0
  -31.2980  -23.7452   19.4730 H   0  0  0  0  0  0
  -30.7759  -25.3983   19.1840 H   0  0  0  0  0  0
  -30.0075  -24.0732   18.3248 H   0  0  0  0  0  0
  -31.4464  -17.0713   20.4818 H   0  0  0  0  0  0
  -30.0331  -17.1279   19.4717 H   0  0  0  0  0  0
  -27.3565  -24.9198   20.8215 H   0  0  0  0  0  0
  -27.7859  -24.8904   19.1166 H   0  0  0  0  0  0
  -29.8228  -24.5963   21.3492 H   0  0  0  0  0  0
  -28.6204  -17.9472   25.1506 H   0  0  0  0  0  0
  -28.6362  -19.6125   25.3550 H   0  0  0  0  0  0
  -28.0059  -21.1903   24.4527 H   0  0  0  0  0  0
  -28.5710  -22.3024   23.3312 H   0  0  0  0  0  0
  -30.7217  -22.3670   21.5644 H   0  0  0  0  0  0
  -29.0399  -15.4393   21.2121 H   0  0  0  0  0  0
  1 25  1  0  0  0
  1 30  2  0  0  0
  1 85  1  0  0  0
  2  3  1  0  0  0
  2 25  1  0  0  0
  2 87  1  0  0  0
  2 88  1  0  0  0
  3  4  1  0  0  0
  3 89  1  0  0  0
  3 90  1  0  0  0
  4  5  1  0  0  0
  4 91  1  0  0  0
  4 92  1  0  0  0
  5  6  1  0  0  0
  5 26  1  0  0  0
  5 93  1  0  0  0
  6 25  1  0  0  0
  6 94  1  0  0  0
  6 95  1  0  0  0
  7  8  2  0  0  0
  7 26  1  0  0  0
  7 29  1  0  0  0
  8  9  1  0  0  0
  8 22  1  0  0  0
  9 10  1  0  0  0
  9 27  2  0  0  0
 10 11  2  0  0  0
 10 15  1  0  0  0
 11 12  1  0  0  0
 11 96  1  0  0  0
 12 13  2  0  0  0
 12 97  1  0  0  0
 13 14  1  0  0  0
 13 31  1  0  0  0
 14 15  2  0  0  0
 14 98  1  0  0  0
 15 99  1  0  0  0
 16 17  2  0  0  0
 16 21  1  0  0  0
 16 31  1  0  0  0
 17 18  1  0  0  0
 17100  1  0  0  0
 18 19  2  0  0  0
 18101  1  0  0  0
 19 20  1  0  0  0
 19 24  1  0  0  0
 20 21  2  0  0  0
 20102  1  0  0  0
 21 23  1  0  0  0
 22 28  1  0  0  0
 22 32  2  0  0  0
 26 27  1  0  0  0
 28103  1  0  0  0
 28104  1  0  0  0
 29105  1  0  0  0
 29106  1  0  0  0
 33 34  1  0  0  0
 33 66  1  0  0  0
 33 70  2  0  0  0
 34 36  1  0  0  0
 34 59  1  0  0  0
 34107  1  0  0  0
 35 44  2  0  0  0
 35 45  1  0  0  0
 35 68  1  0  0  0
 36 56  1  0  0  0
 36108  1  0  0  0
 37 39  1  0  0  0
 37 47  1  0  0  0
 37 66  1  0  0  0
 37109  1  0  0  0
 38 43  2  0  0  0
 38 46  1  0  0  0
 38 47  1  0  0  0
 39 64  1  0  0  0
 39 67  2  0  0  0
 40 52  1  0  0  0
 40 53  2  0  0  0
 40 58  1  0  0  0
 41110  1  0  0  0
 41111  1  0  0  0
 41112  1  0  0  0
 41 48  1  0  0  0
 42 43  1  0  0  0
 42 66  1  0  0  0
 42113  1  0  0  0
 42114  1  0  0  0
 43 44  1  0  0  0
 44115  1  0  0  0
 45 46  2  0  0  0
 45116  1  0  0  0
 46117  1  0  0  0
 47118  1  0  0  0
 47119  1  0  0  0
 48 56  1  0  0  0
 48 65  1  0  0  0
 48120  1  0  0  0
 49 50  1  0  0  0
 49 53  1  0  0  0
 49 64  1  0  0  0
 49121  1  0  0  0
 50 51  1  0  0  0
 50122  1  0  0  0
 50123  1  0  0  0
 51 52  1  0  0  0
 51124  1  0  0  0
 51125  1  0  0  0
 52126  1  0  0  0
 52127  1  0  0  0
 53 54  1  0  0  0
 54 55  2  0  0  0
 54128  1  0  0  0
 55 57  1  0  0  0
 55129  1  0  0  0
 56 69  2  0  0  0
 57 58  2  0  0  0
 57130  1  0  0  0
 58131  1  0  0  0
 59 60  1  0  0  0
 59 61  1  0  0  0
 59 62  1  0  0  0
 60132  1  0  0  0
 60133  1  0  0  0
 60134  1  0  0  0
 61135  1  0  0  0
 61136  1  0  0  0
 61137  1  0  0  0
 62138  1  0  0  0
 62139  1  0  0  0
 62140  1  0  0  0
 63 65  1  0  0  0
 63141  1  0  0  0
 63142  1  0  0  0
 63143  1  0  0  0
 64144  1  0  0  0
 65145  1  0  0  0
 68 80  1  0  0  0
 71 73  2  0  0  0
 71 74  1  0  0  0
 71146  1  0  0  0
 72 73  1  0  0  0
 72 75  2  0  0  0
 72147  1  0  0  0
 73 79  1  0  0  0
 74 76  2  0  0  0
 74 82  1  0  0  0
 75 76  1  0  0  0
 75 84  1  0  0  0
 76 83  1  0  0  0
 77 81  1  0  0  0
 77 84  1  0  0  0
 77 86  2  0  0  0
 78148  1  0  0  0
 78149  1  0  0  0
 78150  1  0  0  0
 78 81  1  0  0  0
 79 85  1  0  0  0
 79151  1  0  0  0
 79152  1  0  0  0
 80 81  1  0  0  0
 80153  1  0  0  0
 80154  1  0  0  0
 81155  1  0  0  0
 82156  1  0  0  0
 82157  1  0  0  0
 83158  1  0  0  0
 83159  1  0  0  0
 84160  1  0  0  0
 85161  1  0  0  0
M  ISO  4   1 100  68 101  80 101  85 100
M  END
> <chiral flag>
0

> <version>
0

> <s_m_source_file>
/data/baiqing/PycharmProjects/Reinvent-master-3.2/result/LINK_invent/BTK/process_docking_weight1_custom_product_contain_oxygen_bond_distance_aromatic_linkinvent_7_9_3/rearranged_h_0095.sdf

> <i_m_source_file_index>
51

> <r_mmod_Potential_Energy-OPLS-2005>
-274.757781982422

> <r_mmod_Stretch_Energy-OPLS-2005>
46.574291229248

> <r_mmod_Bend_Energy-OPLS-2005>
99.6550598144531

> <r_mmod_Torsional_Energy-OPLS-2005>
260.336273193359

> <r_mmod_Improper_Torsional_Energy-OPLS-2005>
16.3867492675781

> <r_mmod_Van_der_Waal_Energy-OPLS-2005>
165.024032592773

> <r_mmod_Electrostatic_Energy-OPLS-2005>
-643.139099121094

> <r_mmod_Solvation_Energy-OPLS-2005>
-241.240707397461

> <b_mmod_Minimization_Converged-OPLS-2005>
0

> <r_mmod_RMS_Derivative-OPLS-2005>
2.72139811515808

$$$$
51
                    3D
 Structure written by MMmdl.
153161  0  0  1  0            999 V2000
  -30.7295  -14.4502   20.6161 C   0  0  0  0  0  0
  -30.4175  -12.3126   19.4136 C   0  0  0  0  0  0
  -29.4878  -12.5092   18.2009 C   0  0  0  0  0  0
  -28.0119  -12.3642   18.6183 C   0  0  0  0  0  0
  -27.6605  -13.2074   19.8729 C   0  0  2  0  0  0
  -28.7011  -12.9895   20.9933 C   0  0  0  0  0  0
  -25.2578  -13.8164   20.5674 C   0  0  0  0  0  0
  -24.1825  -13.0439   20.9175 C   0  0  0  0  0  0
  -24.6386  -11.6904   20.8736 C   0  0  0  0  0  0
  -23.9054  -10.4289   21.0409 C   0  0  0  0  0  0
  -24.3613   -9.4203   21.9176 C   0  0  0  0  0  0
  -23.6292   -8.2237   22.0752 C   0  0  0  0  0  0
  -22.4276   -8.0275   21.3549 C   0  0  0  0  0  0
  -21.9903   -9.0248   20.4645 C   0  0  0  0  0  0
  -22.7234  -10.2124   20.3046 C   0  0  0  0  0  0
  -21.6841   -6.0730   22.5289 C   0  0  0  0  0  0
  -21.4013   -6.5635   23.8224 C   0  0  0  0  0  0
  -21.3652   -5.6783   24.9178 C   0  0  0  0  0  0
  -21.6051   -4.3052   24.7227 C   0  0  0  0  0  0
  -21.8817   -3.8137   23.4348 C   0  0  0  0  0  0
  -21.9195   -4.6958   22.3412 C   0  0  0  0  0  0
  -22.7855  -13.5240   21.1852 C   0  0  0  0  0  0
  -22.1661   -4.2148   21.0991 F   0  0  0  0  0  0
  -21.5617   -3.4530   25.7730 F   0  0  0  0  0  0
  -30.0321  -13.2948   20.4397 N   0  0  0  0  0  0
  -26.3016  -12.9343   20.3357 N   0  0  0  0  0  0
  -25.9318  -11.6500   20.5767 N   0  0  0  0  0  0
  -22.0498  -12.8222   22.0405 N   0  0  0  0  0  0
  -25.4310  -15.1880   20.4087 N   0  0  0  0  0  0
  -31.8248  -14.6561   20.0868 O   0  0  0  0  0  0
  -21.6643   -6.8867   21.4244 O   0  0  0  0  0  0
  -22.3537  -14.5552   20.6711 O   0  0  0  0  0  0
  -24.6149  -31.8677   23.2098 C   0  0  0  0  0  0
  -25.9037  -32.4826   23.8388 C   0  0  1  0  0  0
  -27.2285  -27.4316   20.0989 C   0  0  0  0  0  0
  -25.5914  -33.8619   24.2321 N   0  0  0  0  0  0
  -23.4028  -30.4928   21.5496 C   0  0  2  0  0  0
  -24.8491  -28.9563   20.1138 C   0  0  0  0  0  0
  -22.7403  -29.4664   22.4979 C   0  0  0  0  0  0
  -18.0263  -28.1388   22.8481 C   0  0  0  0  0  0
  -24.1490  -36.7284   23.2644 C   0  0  0  0  0  0
  -25.9325  -30.8328   21.3634 C   0  0  0  0  0  0
  -26.0099  -29.4670   20.7104 C   0  0  0  0  0  0
  -27.2061  -28.7114   20.6990 C   0  0  0  0  0  0
  -26.0526  -26.9353   19.4990 C   0  0  0  0  0  0
  -24.8648  -27.6894   19.5043 C   0  0  0  0  0  0
  -23.6107  -29.8230   20.1647 C   0  0  0  0  0  0
  -25.4114  -36.3105   24.0350 C   0  0  1  0  0  0
  -20.5850  -28.3668   23.1316 C   0  0  2  0  0  0
  -20.6750  -26.9412   22.5420 C   0  0  0  0  0  0
  -19.5745  -26.6389   21.5206 C   0  0  0  0  0  0
  -18.1913  -26.7942   22.1600 C   0  0  0  0  0  0
  -19.1513  -28.8842   23.2896 C   0  0  0  0  0  0
  -18.9443  -30.1436   23.8920 C   0  0  0  0  0  0
  -17.6452  -30.6602   24.0547 C   0  0  0  0  0  0
  -25.9038  -34.9472   23.5129 C   0  0  0  0  0  0
  -16.5341  -29.9091   23.6342 C   0  0  0  0  0  0
  -16.7250  -28.6504   23.0374 C   0  0  0  0  0  0
  -26.4471  -31.6613   25.0715 C   0  0  0  0  0  0
  -25.3758  -31.3730   26.1486 C   0  0  0  0  0  0
  -27.0272  -30.3049   24.6076 C   0  0  0  0  0  0
  -27.6044  -32.4343   25.7473 C   0  0  0  0  0  0
  -27.5574  -37.1808   24.8474 C   0  0  0  0  0  0
  -21.4126  -29.3042   22.3722 N   0  0  0  0  0  0
  -26.4299  -37.3786   23.9413 N   0  0  0  0  0  0
  -24.6679  -31.0788   22.0987 N   0  0  0  0  0  0
  -23.4181  -28.8206   23.3019 O   0  0  0  0  0  0
  -28.3707  -26.6617   20.0831 O   0  0  0  0  0  0
  -26.5570  -34.8927   22.4674 O   0  0  0  0  0  0
  -23.5347  -32.1411   23.7512 O   0  0  0  0  0  0
  -30.7848  -18.5346   20.2440 C   0  0  0  0  0  0
  -30.4547  -19.8637   19.8892 C   0  0  0  0  0  0
  -29.0146  -20.0294   21.8379 C   0  0  0  0  0  0
  -30.2622  -17.9515   21.4210 C   0  0  0  0  0  0
  -29.5905  -20.6443   20.6936 C   0  0  0  0  0  0
  -29.3505  -18.7042   22.2000 C   0  0  0  0  0  0
  -28.2727  -25.4209   20.6791 C   0  0  0  0  0  0
  -28.8898  -24.3099   20.2163 C   0  0  0  0  0  0
  -28.7429  -23.0316   20.9315 C   0  0  0  0  0  0
  -30.7855  -16.5944   21.9133 C   0  0  0  0  0  0
  -29.3779  -22.0147   20.3080 N   0  0  0  0  0  0
  -30.1394  -15.3854   21.3806 N   0  0  0  0  0  0
  -28.1113  -22.8965   21.9822 O   0  0  0  0  0  0
  -29.6378  -24.3800   19.1024 O   0  0  0  0  0  0
  -28.8209  -18.1736   23.3298 F   0  0  0  0  0  0
  -31.4611  -12.4095   19.1083 H   0  0  0  0  0  0
  -30.3188  -11.3009   19.8109 H   0  0  0  0  0  0
  -29.7291  -11.7868   17.4202 H   0  0  0  0  0  0
  -29.6525  -13.4961   17.7660 H   0  0  0  0  0  0
  -27.8267  -11.3086   18.8196 H   0  0  0  0  0  0
  -27.3561  -12.6309   17.7891 H   0  0  0  0  0  0
  -27.7061  -14.2554   19.5762 H   0  0  0  0  0  0
  -28.6771  -11.9539   21.3364 H   0  0  0  0  0  0
  -28.4534  -13.5880   21.8704 H   0  0  0  0  0  0
  -25.2761   -9.5679   22.4745 H   0  0  0  0  0  0
  -24.0013   -7.4622   22.7464 H   0  0  0  0  0  0
  -21.0839   -8.8751   19.8948 H   0  0  0  0  0  0
  -22.3696  -10.9648   19.6143 H   0  0  0  0  0  0
  -21.2004   -7.6146   23.9726 H   0  0  0  0  0  0
  -21.1467   -6.0509   25.9082 H   0  0  0  0  0  0
  -22.0596   -2.7598   23.2846 H   0  0  0  0  0  0
  -22.4120  -11.9865   22.4756 H   0  0  0  0  0  0
  -21.1126  -13.1247   22.2636 H   0  0  0  0  0  0
  -24.6714  -15.8496   20.5280 H   0  0  0  0  0  0
  -26.2936  -15.6243   20.1052 H   0  0  0  0  0  0
  -26.7096  -32.5539   23.1141 H   0  0  0  0  0  0
  -25.0160  -33.9779   25.0534 H   0  0  0  0  0  0
  -22.6923  -31.3112   21.4120 H   0  0  0  0  0  0
  -23.3756  -35.9620   23.3368 H   0  0  0  0  0  0
  -24.3573  -36.8821   22.2046 H   0  0  0  0  0  0
  -23.7245  -37.6514   23.6601 H   0  0  0  0  0  0
  -26.0489  -31.6011   20.5982 H   0  0  0  0  0  0
  -26.8187  -30.8818   21.9839 H   0  0  0  0  0  0
  -28.1033  -29.0978   21.1614 H   0  0  0  0  0  0
  -26.0572  -25.9617   19.0299 H   0  0  0  0  0  0
  -23.9717  -27.2911   19.0414 H   0  0  0  0  0  0
  -23.7159  -30.5958   19.4029 H   0  0  0  0  0  0
  -22.7350  -29.2412   19.8718 H   0  0  0  0  0  0
  -25.1307  -36.1962   25.0847 H   0  0  0  0  0  0
  -20.9950  -28.3233   24.1429 H   0  0  0  0  0  0
  -20.5644  -26.2280   23.3601 H   0  0  0  0  0  0
  -21.6623  -26.7451   22.1231 H   0  0  0  0  0  0
  -19.6915  -25.6300   21.1232 H   0  0  0  0  0  0
  -19.6714  -27.3186   20.6733 H   0  0  0  0  0  0
  -17.4204  -26.6698   21.3979 H   0  0  0  0  0  0
  -18.0300  -26.0076   22.8981 H   0  0  0  0  0  0
  -19.7926  -30.7215   24.2325 H   0  0  0  0  0  0
  -17.5032  -31.6299   24.5124 H   0  0  0  0  0  0
  -15.5350  -30.3009   23.7678 H   0  0  0  0  0  0
  -15.8638  -28.0826   22.7121 H   0  0  0  0  0  0
  -24.5949  -30.7032   25.7864 H   0  0  0  0  0  0
  -24.8929  -32.2891   26.4901 H   0  0  0  0  0  0
  -25.8160  -30.8958   27.0254 H   0  0  0  0  0  0
  -26.2775  -29.6838   24.1150 H   0  0  0  0  0  0
  -27.4052  -29.7262   25.4515 H   0  0  0  0  0  0
  -27.8631  -30.4351   23.9196 H   0  0  0  0  0  0
  -27.2642  -33.3642   26.2042 H   0  0  0  0  0  0
  -28.3852  -32.6905   25.0300 H   0  0  0  0  0  0
  -28.0709  -31.8479   26.5400 H   0  0  0  0  0  0
  -28.2643  -38.0054   24.7473 H   0  0  0  0  0  0
  -28.1018  -36.2591   24.6368 H   0  0  0  0  0  0
  -27.2293  -37.1537   25.8877 H   0  0  0  0  0  0
  -20.9278  -29.8748   21.6938 H   0  0  0  0  0  0
  -26.0194  -38.2874   24.1398 H   0  0  0  0  0  0
  -31.4859  -17.9840   19.6303 H   0  0  0  0  0  0
  -30.9090  -20.2906   19.0031 H   0  0  0  0  0  0
  -28.3328  -20.5582   22.4863 H   0  0  0  0  0  0
  -27.6489  -25.4358   21.5652 H   0  0  0  0  0  0
  -30.6945  -16.5572   22.9995 H   0  0  0  0  0  0
  -31.8619  -16.5680   21.7329 H   0  0  0  0  0  0
  -29.8310  -22.3205   19.4554 H   0  0  0  0  0  0
  -29.2290  -15.1561   21.7494 H   0  0  0  0  0  0
  -29.6044  -25.2819   18.8077 H   0  0  0  0  0  0
  1 25  1  0  0  0
  1 30  2  0  0  0
  1 82  1  0  0  0
  2  3  1  0  0  0
  2 25  1  0  0  0
  2 86  1  0  0  0
  2 87  1  0  0  0
  3  4  1  0  0  0
  3 88  1  0  0  0
  3 89  1  0  0  0
  4  5  1  0  0  0
  4 90  1  0  0  0
  4 91  1  0  0  0
  5  6  1  0  0  0
  5 26  1  0  0  0
  5 92  1  0  0  0
  6 25  1  0  0  0
  6 93  1  0  0  0
  6 94  1  0  0  0
  7  8  2  0  0  0
  7 26  1  0  0  0
  7 29  1  0  0  0
  8  9  1  0  0  0
  8 22  1  0  0  0
  9 10  1  0  0  0
  9 27  2  0  0  0
 10 11  2  0  0  0
 10 15  1  0  0  0
 11 12  1  0  0  0
 11 95  1  0  0  0
 12 13  2  0  0  0
 12 96  1  0  0  0
 13 14  1  0  0  0
 13 31  1  0  0  0
 14 15  2  0  0  0
 14 97  1  0  0  0
 15 98  1  0  0  0
 16 17  2  0  0  0
 16 21  1  0  0  0
 16 31  1  0  0  0
 17 18  1  0  0  0
 17 99  1  0  0  0
 18 19  2  0  0  0
 18100  1  0  0  0
 19 20  1  0  0  0
 19 24  1  0  0  0
 20 21  2  0  0  0
 20101  1  0  0  0
 21 23  1  0  0  0
 22 28  1  0  0  0
 22 32  2  0  0  0
 26 27  1  0  0  0
 28102  1  0  0  0
 28103  1  0  0  0
 29104  1  0  0  0
 29105  1  0  0  0
 33 34  1  0  0  0
 33 66  1  0  0  0
 33 70  2  0  0  0
 34 36  1  0  0  0
 34 59  1  0  0  0
 34106  1  0  0  0
 35 44  2  0  0  0
 35 45  1  0  0  0
 35 68  1  0  0  0
 36 56  1  0  0  0
 36107  1  0  0  0
 37 39  1  0  0  0
 37 47  1  0  0  0
 37 66  1  0  0  0
 37108  1  0  0  0
 38 43  2  0  0  0
 38 46  1  0  0  0
 38 47  1  0  0  0
 39 64  1  0  0  0
 39 67  2  0  0  0
 40 52  1  0  0  0
 40 53  2  0  0  0
 40 58  1  0  0  0
 41109  1  0  0  0
 41110  1  0  0  0
 41111  1  0  0  0
 41 48  1  0  0  0
 42 43  1  0  0  0
 42 66  1  0  0  0
 42112  1  0  0  0
 42113  1  0  0  0
 43 44  1  0  0  0
 44114  1  0  0  0
 45 46  2  0  0  0
 45115  1  0  0  0
 46116  1  0  0  0
 47117  1  0  0  0
 47118  1  0  0  0
 48 56  1  0  0  0
 48 65  1  0  0  0
 48119  1  0  0  0
 49 50  1  0  0  0
 49 53  1  0  0  0
 49 64  1  0  0  0
 49120  1  0  0  0
 50 51  1  0  0  0
 50121  1  0  0  0
 50122  1  0  0  0
 51 52  1  0  0  0
 51123  1  0  0  0
 51124  1  0  0  0
 52125  1  0  0  0
 52126  1  0  0  0
 53 54  1  0  0  0
 54 55  2  0  0  0
 54127  1  0  0  0
 55 57  1  0  0  0
 55128  1  0  0  0
 56 69  2  0  0  0
 57 58  2  0  0  0
 57129  1  0  0  0
 58130  1  0  0  0
 59 60  1  0  0  0
 59 61  1  0  0  0
 59 62  1  0  0  0
 60131  1  0  0  0
 60132  1  0  0  0
 60133  1  0  0  0
 61134  1  0  0  0
 61135  1  0  0  0
 61136  1  0  0  0
 62137  1  0  0  0
 62138  1  0  0  0
 62139  1  0  0  0
 63 65  1  0  0  0
 63140  1  0  0  0
 63141  1  0  0  0
 63142  1  0  0  0
 64143  1  0  0  0
 65144  1  0  0  0
 68 77  1  0  0  0
 71 72  2  0  0  0
 71 74  1  0  0  0
 71145  1  0  0  0
 72 75  1  0  0  0
 72146  1  0  0  0
 73 75  2  0  0  0
 73 76  1  0  0  0
 73147  1  0  0  0
 74 76  2  0  0  0
 74 80  1  0  0  0
 75 81  1  0  0  0
 76 85  1  0  0  0
 77 78  2  0  0  0
 77148  1  0  0  0
 78 79  1  0  0  0
 78 84  1  0  0  0
 79 81  1  0  0  0
 79 83  2  0  0  0
 80 82  1  0  0  0
 80149  1  0  0  0
 80150  1  0  0  0
 81151  1  0  0  0
 82152  1  0  0  0
 84153  1  0  0  0
M  ISO  4   1 100  68 101  77 101  82 100
M  END
> <chiral flag>
0

> <version>
0

> <s_m_source_file>
/data/baiqing/PycharmProjects/Reinvent-master-3.2/result/LINK_invent/BTK/process_docking_weight1_custom_product_contain_oxygen_bond_distance_aromatic_linkinvent_7_9_3/rearranged_h_0095.sdf

> <i_m_source_file_index>
52

> <r_mmod_Potential_Energy-OPLS-2005>
-144.562911987305

> <r_mmod_Stretch_Energy-OPLS-2005>
39.0520095825195

> <r_mmod_Bend_Energy-OPLS-2005>
101.581504821777

> <r_mmod_Torsional_Energy-OPLS-2005>
203.991363525391

> <r_mmod_Improper_Torsional_Energy-OPLS-2005>
2.53012037277222

> <r_mmod_Van_der_Waal_Energy-OPLS-2005>
160.593322753906

> <r_mmod_Electrostatic_Energy-OPLS-2005>
-450.402374267578

> <r_mmod_Solvation_Energy-OPLS-2005>
-213.235977172852

> <b_mmod_Minimization_Converged-OPLS-2005>
0

> <r_mmod_RMS_Derivative-OPLS-2005>
2.22377848625183

$$$$
52
                    3D
 Structure written by MMmdl.
159168  0  0  1  0            999 V2000
  -30.6472  -14.6449   20.6072 C   0  0  0  0  0  0
  -30.4330  -12.4318   19.4518 C   0  0  0  0  0  0
  -29.5058  -12.5466   18.2212 C   0  0  0  0  0  0
  -28.0274  -12.3714   18.6203 C   0  0  0  0  0  0
  -27.6478  -13.2219   19.8588 C   0  0  2  0  0  0
  -28.6819  -13.0474   20.9838 C   0  0  0  0  0  0
  -25.2505  -13.8170   20.5656 C   0  0  0  0  0  0
  -24.1794  -13.0433   20.9187 C   0  0  0  0  0  0
  -24.6372  -11.6908   20.8737 C   0  0  0  0  0  0
  -23.9035  -10.4287   21.0407 C   0  0  0  0  0  0
  -24.3594   -9.4198   21.9182 C   0  0  0  0  0  0
  -23.6293   -8.2215   22.0722 C   0  0  0  0  0  0
  -22.4265   -8.0264   21.3530 C   0  0  0  0  0  0
  -21.9886   -9.0235   20.4645 C   0  0  0  0  0  0
  -22.7194  -10.2125   20.3067 C   0  0  0  0  0  0
  -21.6829   -6.0738   22.5285 C   0  0  0  0  0  0
  -21.4003   -6.5647   23.8219 C   0  0  0  0  0  0
  -21.3644   -5.6798   24.9176 C   0  0  0  0  0  0
  -21.6034   -4.3055   24.7227 C   0  0  0  0  0  0
  -21.8799   -3.8156   23.4342 C   0  0  0  0  0  0
  -21.9166   -4.6976   22.3399 C   0  0  0  0  0  0
  -22.7817  -13.5228   21.1852 C   0  0  0  0  0  0
  -22.1636   -4.2171   21.0977 F   0  0  0  0  0  0
  -21.5633   -3.4530   25.7723 F   0  0  0  0  0  0
  -30.0019  -13.4340   20.4541 N   0  0  0  0  0  0
  -26.2933  -12.9373   20.3250 N   0  0  0  0  0  0
  -25.9289  -11.6524   20.5697 N   0  0  0  0  0  0
  -22.0477  -12.8238   22.0447 N   0  0  0  0  0  0
  -25.4166  -15.1886   20.4056 N   0  0  0  0  0  0
  -31.7462  -14.8273   20.0694 O   0  0  0  0  0  0
  -21.6624   -6.8873   21.4243 O   0  0  0  0  0  0
  -22.3506  -14.5537   20.6691 O   0  0  0  0  0  0
  -24.6294  -31.8584   23.2020 C   0  0  0  0  0  0
  -25.9133  -32.4782   23.8353 C   0  0  1  0  0  0
  -27.2076  -27.2894   20.1177 C   0  0  0  0  0  0
  -25.5933  -33.8581   24.2273 N   0  0  0  0  0  0
  -23.4235  -30.4847   21.5464 C   0  0  2  0  0  0
  -24.8650  -28.9412   20.1078 C   0  0  0  0  0  0
  -22.7501  -29.4620   22.4923 C   0  0  0  0  0  0
  -18.0291  -28.1395   22.8485 C   0  0  0  0  0  0
  -24.1480  -36.7286   23.2638 C   0  0  0  0  0  0
  -25.9698  -30.7779   21.3802 C   0  0  0  0  0  0
  -26.0373  -29.4049   20.7193 C   0  0  0  0  0  0
  -27.2121  -28.5909   20.7159 C   0  0  0  0  0  0
  -26.0147  -26.8949   19.4667 C   0  0  0  0  0  0
  -24.8582  -27.6933   19.4703 C   0  0  0  0  0  0
  -23.6370  -29.8256   20.1595 C   0  0  0  0  0  0
  -25.4114  -36.3083   24.0321 C   0  0  1  0  0  0
  -20.5894  -28.3698   23.1271 C   0  0  2  0  0  0
  -20.6783  -26.9419   22.5406 C   0  0  0  0  0  0
  -19.5758  -26.6389   21.5210 C   0  0  0  0  0  0
  -18.1939  -26.7941   22.1618 C   0  0  0  0  0  0
  -19.1546  -28.8866   23.2876 C   0  0  0  0  0  0
  -18.9460  -30.1464   23.8895 C   0  0  0  0  0  0
  -17.6458  -30.6590   24.0570 C   0  0  0  0  0  0
  -25.9051  -34.9453   23.5099 C   0  0  0  0  0  0
  -16.5350  -29.9084   23.6338 C   0  0  0  0  0  0
  -16.7278  -28.6504   23.0363 C   0  0  0  0  0  0
  -26.4498  -31.6610   25.0743 C   0  0  0  0  0  0
  -25.3726  -31.3774   26.1470 C   0  0  0  0  0  0
  -27.0332  -30.3022   24.6235 C   0  0  0  0  0  0
  -27.6051  -32.4351   25.7526 C   0  0  0  0  0  0
  -27.5586  -37.1804   24.8468 C   0  0  0  0  0  0
  -21.4211  -29.3042   22.3675 N   0  0  0  0  0  0
  -26.4289  -37.3781   23.9411 N   0  0  0  0  0  0
  -24.6939  -31.0570   22.0994 N   0  0  0  0  0  0
  -23.4218  -28.8160   23.3011 O   0  0  0  0  0  0
  -28.2989  -26.3988   20.1903 O   0  0  0  0  0  0
  -26.5611  -34.8919   22.4659 O   0  0  0  0  0  0
  -23.5452  -32.1385   23.7327 O   0  0  0  0  0  0
  -30.5748  -19.2639   20.0221 C   0  0  0  0  0  0
  -30.6660  -17.8359   20.1193 C   0  0  0  0  0  0
  -28.8455  -17.8570   21.6758 C   0  0  0  0  0  0
  -29.6452  -20.0346   20.7846 C   0  0  0  0  0  0
  -29.8413  -17.0820   21.0033 C   0  0  0  0  0  0
  -28.7469  -19.2782   21.5774 C   0  0  0  0  0  0
  -28.8827  -22.4881   20.4156 C   0  0  0  0  0  0
  -29.0029  -23.8595   20.5664 C   0  0  0  0  0  0
  -30.7529  -21.9114   21.8255 C   0  0  0  0  0  0
  -30.1607  -24.3988   21.3778 C   0  0  0  0  0  0
  -30.7152  -23.3520   22.3612 C   0  0  0  0  0  0
  -29.9050  -15.3676   22.7874 C   0  0  0  0  0  0
  -28.0256  -24.9444   19.9787 C   0  0  0  0  0  0
  -29.7798  -21.4968   20.9666 N   0  0  0  0  0  0
  -30.0294  -15.6473   21.3450 N   0  0  0  0  0  0
  -31.6608  -21.1760   22.2327 O   0  0  0  0  0  0
  -27.8212  -19.9221   22.3306 F   0  0  0  0  0  0
  -31.4750  -12.5628   19.1507 H   0  0  0  0  0  0
  -30.3721  -11.4294   19.8784 H   0  0  0  0  0  0
  -29.7790  -11.8040   17.4700 H   0  0  0  0  0  0
  -29.6412  -13.5242   17.7531 H   0  0  0  0  0  0
  -27.8616  -11.3133   18.8285 H   0  0  0  0  0  0
  -27.3774  -12.6227   17.7817 H   0  0  0  0  0  0
  -27.6752  -14.2658   19.5461 H   0  0  0  0  0  0
  -28.7049  -12.0119   21.3269 H   0  0  0  0  0  0
  -28.3630  -13.6239   21.8464 H   0  0  0  0  0  0
  -25.2721   -9.5655   22.4773 H   0  0  0  0  0  0
  -24.0031   -7.4604   22.7417 H   0  0  0  0  0  0
  -21.0785   -8.8725   19.8996 H   0  0  0  0  0  0
  -22.3620  -10.9665   19.6195 H   0  0  0  0  0  0
  -21.2026   -7.6168   23.9723 H   0  0  0  0  0  0
  -21.1483   -6.0529   25.9080 H   0  0  0  0  0  0
  -22.0597   -2.7624   23.2849 H   0  0  0  0  0  0
  -22.4121  -11.9934   22.4873 H   0  0  0  0  0  0
  -21.1096  -13.1262   22.2653 H   0  0  0  0  0  0
  -24.6394  -15.8326   20.5006 H   0  0  0  0  0  0
  -26.2619  -15.6334   20.0672 H   0  0  0  0  0  0
  -26.7218  -32.5422   23.1110 H   0  0  0  0  0  0
  -25.0126  -33.9733   25.0456 H   0  0  0  0  0  0
  -22.7191  -31.3071   21.4074 H   0  0  0  0  0  0
  -23.3736  -35.9625   23.3305 H   0  0  0  0  0  0
  -24.3569  -36.8897   22.2052 H   0  0  0  0  0  0
  -23.7225  -37.6489   23.6653 H   0  0  0  0  0  0
  -26.1101  -31.5391   20.6120 H   0  0  0  0  0  0
  -26.8506  -30.8220   22.0103 H   0  0  0  0  0  0
  -28.1084  -28.9368   21.2119 H   0  0  0  0  0  0
  -25.9414  -25.9477   18.9533 H   0  0  0  0  0  0
  -23.9643  -27.3383   18.9753 H   0  0  0  0  0  0
  -23.7610  -30.6061   19.4073 H   0  0  0  0  0  0
  -22.7558  -29.2596   19.8530 H   0  0  0  0  0  0
  -25.1294  -36.1941   25.0811 H   0  0  0  0  0  0
  -20.9987  -28.3268   24.1390 H   0  0  0  0  0  0
  -20.5683  -26.2310   23.3608 H   0  0  0  0  0  0
  -21.6653  -26.7448   22.1206 H   0  0  0  0  0  0
  -19.6912  -25.6297   21.1250 H   0  0  0  0  0  0
  -19.6695  -27.3194   20.6736 H   0  0  0  0  0  0
  -17.4214  -26.6696   21.4014 H   0  0  0  0  0  0
  -18.0327  -26.0086   22.9013 H   0  0  0  0  0  0
  -19.7934  -30.7293   24.2257 H   0  0  0  0  0  0
  -17.5009  -31.6271   24.5172 H   0  0  0  0  0  0
  -15.5352  -30.2990   23.7654 H   0  0  0  0  0  0
  -15.8682  -28.0820   22.7076 H   0  0  0  0  0  0
  -24.5912  -30.7099   25.7829 H   0  0  0  0  0  0
  -24.8896  -32.2944   26.4852 H   0  0  0  0  0  0
  -25.8042  -30.9009   27.0278 H   0  0  0  0  0  0
  -26.2915  -29.6800   24.1220 H   0  0  0  0  0  0
  -27.3963  -29.7263   25.4755 H   0  0  0  0  0  0
  -27.8820  -30.4290   23.9512 H   0  0  0  0  0  0
  -27.2661  -33.3663   26.2076 H   0  0  0  0  0  0
  -28.3884  -32.6891   25.0376 H   0  0  0  0  0  0
  -28.0702  -31.8498   26.5470 H   0  0  0  0  0  0
  -28.2606  -38.0103   24.7515 H   0  0  0  0  0  0
  -28.1070  -36.2623   24.6283 H   0  0  0  0  0  0
  -27.2302  -37.1460   25.8874 H   0  0  0  0  0  0
  -20.9395  -29.8762   21.6885 H   0  0  0  0  0  0
  -26.0158  -38.2850   24.1414 H   0  0  0  0  0  0
  -31.3005  -19.7819   19.4100 H   0  0  0  0  0  0
  -31.4481  -17.3384   19.5655 H   0  0  0  0  0  0
  -28.1514  -17.3738   22.3449 H   0  0  0  0  0  0
  -28.0751  -22.0469   19.8488 H   0  0  0  0  0  0
  -29.8339  -25.2713   21.9458 H   0  0  0  0  0  0
  -30.9400  -24.7403   20.6948 H   0  0  0  0  0  0
  -31.7064  -23.6482   22.7047 H   0  0  0  0  0  0
  -30.0803  -23.3311   23.2481 H   0  0  0  0  0  0
  -30.3014  -14.3935   23.0846 H   0  0  0  0  0  0
  -28.8649  -15.4049   23.1079 H   0  0  0  0  0  0
  -30.4560  -16.1134   23.3618 H   0  0  0  0  0  0
  -27.0607  -24.6954   20.4232 H   0  0  0  0  0  0
  -27.9328  -24.7577   18.9080 H   0  0  0  0  0  0
  1 25  1  0  0  0
  1 30  2  0  0  0
  1 85  1  0  0  0
  2  3  1  0  0  0
  2 25  1  0  0  0
  2 88  1  0  0  0
  2 89  1  0  0  0
  3  4  1  0  0  0
  3 90  1  0  0  0
  3 91  1  0  0  0
  4  5  1  0  0  0
  4 92  1  0  0  0
  4 93  1  0  0  0
  5  6  1  0  0  0
  5 26  1  0  0  0
  5 94  1  0  0  0
  6 25  1  0  0  0
  6 95  1  0  0  0
  6 96  1  0  0  0
  7  8  2  0  0  0
  7 26  1  0  0  0
  7 29  1  0  0  0
  8  9  1  0  0  0
  8 22  1  0  0  0
  9 10  1  0  0  0
  9 27  2  0  0  0
 10 11  2  0  0  0
 10 15  1  0  0  0
 11 12  1  0  0  0
 11 97  1  0  0  0
 12 13  2  0  0  0
 12 98  1  0  0  0
 13 14  1  0  0  0
 13 31  1  0  0  0
 14 15  2  0  0  0
 14 99  1  0  0  0
 15100  1  0  0  0
 16 17  2  0  0  0
 16 21  1  0  0  0
 16 31  1  0  0  0
 17 18  1  0  0  0
 17101  1  0  0  0
 18 19  2  0  0  0
 18102  1  0  0  0
 19 20  1  0  0  0
 19 24  1  0  0  0
 20 21  2  0  0  0
 20103  1  0  0  0
 21 23  1  0  0  0
 22 28  1  0  0  0
 22 32  2  0  0  0
 26 27  1  0  0  0
 28104  1  0  0  0
 28105  1  0  0  0
 29106  1  0  0  0
 29107  1  0  0  0
 33 34  1  0  0  0
 33 66  1  0  0  0
 33 70  2  0  0  0
 34 36  1  0  0  0
 34 59  1  0  0  0
 34108  1  0  0  0
 35 44  2  0  0  0
 35 45  1  0  0  0
 35 68  1  0  0  0
 36 56  1  0  0  0
 36109  1  0  0  0
 37 39  1  0  0  0
 37 47  1  0  0  0
 37 66  1  0  0  0
 37110  1  0  0  0
 38 43  2  0  0  0
 38 46  1  0  0  0
 38 47  1  0  0  0
 39 64  1  0  0  0
 39 67  2  0  0  0
 40 52  1  0  0  0
 40 53  2  0  0  0
 40 58  1  0  0  0
 41111  1  0  0  0
 41112  1  0  0  0
 41113  1  0  0  0
 41 48  1  0  0  0
 42 43  1  0  0  0
 42 66  1  0  0  0
 42114  1  0  0  0
 42115  1  0  0  0
 43 44  1  0  0  0
 44116  1  0  0  0
 45 46  2  0  0  0
 45117  1  0  0  0
 46118  1  0  0  0
 47119  1  0  0  0
 47120  1  0  0  0
 48 56  1  0  0  0
 48 65  1  0  0  0
 48121  1  0  0  0
 49 50  1  0  0  0
 49 53  1  0  0  0
 49 64  1  0  0  0
 49122  1  0  0  0
 50 51  1  0  0  0
 50123  1  0  0  0
 50124  1  0  0  0
 51 52  1  0  0  0
 51125  1  0  0  0
 51126  1  0  0  0
 52127  1  0  0  0
 52128  1  0  0  0
 53 54  1  0  0  0
 54 55  2  0  0  0
 54129  1  0  0  0
 55 57  1  0  0  0
 55130  1  0  0  0
 56 69  2  0  0  0
 57 58  2  0  0  0
 57131  1  0  0  0
 58132  1  0  0  0
 59 60  1  0  0  0
 59 61  1  0  0  0
 59 62  1  0  0  0
 60133  1  0  0  0
 60134  1  0  0  0
 60135  1  0  0  0
 61136  1  0  0  0
 61137  1  0  0  0
 61138  1  0  0  0
 62139  1  0  0  0
 62140  1  0  0  0
 62141  1  0  0  0
 63 65  1  0  0  0
 63142  1  0  0  0
 63143  1  0  0  0
 63144  1  0  0  0
 64145  1  0  0  0
 65146  1  0  0  0
 68 83  1  0  0  0
 71 72  2  0  0  0
 71 74  1  0  0  0
 71147  1  0  0  0
 72 75  1  0  0  0
 72148  1  0  0  0
 73 75  2  0  0  0
 73 76  1  0  0  0
 73149  1  0  0  0
 74 76  2  0  0  0
 74 84  1  0  0  0
 75 85  1  0  0  0
 76 87  1  0  0  0
 77 78  2  0  0  0
 77 84  1  0  0  0
 77150  1  0  0  0
 78 80  1  0  0  0
 78 83  1  0  0  0
 79 81  1  0  0  0
 79 84  1  0  0  0
 79 86  2  0  0  0
 80 81  1  0  0  0
 80151  1  0  0  0
 80152  1  0  0  0
 81153  1  0  0  0
 81154  1  0  0  0
 82 85  1  0  0  0
 82155  1  0  0  0
 82156  1  0  0  0
 82157  1  0  0  0
 83158  1  0  0  0
 83159  1  0  0  0
M  ISO  4   1 100  68 101  83 101  85 100
M  END
> <chiral flag>
0

> <version>
0

> <s_m_source_file>
/data/baiqing/PycharmProjects/Reinvent-master-3.2/result/LINK_invent/BTK/process_docking_weight1_custom_product_contain_oxygen_bond_distance_aromatic_linkinvent_7_9_3/rearranged_h_0095.sdf

> <i_m_source_file_index>
53

> <r_mmod_Potential_Energy-OPLS-2005>
376.942810058594

> <r_mmod_Stretch_Energy-OPLS-2005>
104.453903198242

> <r_mmod_Bend_Energy-OPLS-2005>
146.368286132812

> <r_mmod_Torsional_Energy-OPLS-2005>
361.404693603516

> <r_mmod_Improper_Torsional_Energy-OPLS-2005>
5.56879615783691

> <r_mmod_Van_der_Waal_Energy-OPLS-2005>
170.320037841797

> <r_mmod_Electrostatic_Energy-OPLS-2005>
-270.452880859375

> <r_mmod_Solvation_Energy-OPLS-2005>
-198.170150756836

> <b_mmod_Minimization_Converged-OPLS-2005>
0

> <r_mmod_RMS_Derivative-OPLS-2005>
2.52101278305054

$$$$
53
                    3D
 Structure written by MMmdl.
159168  0  0  1  0            999 V2000
  -30.6067  -14.6697   20.4697 C   0  0  0  0  0  0
  -30.4460  -12.4070   19.4506 C   0  0  0  0  0  0
  -29.5104  -12.4978   18.2238 C   0  0  0  0  0  0
  -28.0353  -12.3279   18.6411 C   0  0  0  0  0  0
  -27.6514  -13.2132   19.8552 C   0  0  2  0  0  0
  -28.6990  -13.0939   20.9857 C   0  0  0  0  0  0
  -25.2557  -13.8149   20.5672 C   0  0  0  0  0  0
  -24.1829  -13.0428   20.9206 C   0  0  0  0  0  0
  -24.6394  -11.6902   20.8748 C   0  0  0  0  0  0
  -23.9061  -10.4292   21.0412 C   0  0  0  0  0  0
  -24.3612   -9.4205   21.9187 C   0  0  0  0  0  0
  -23.6290   -8.2240   22.0755 C   0  0  0  0  0  0
  -22.4268   -8.0278   21.3549 C   0  0  0  0  0  0
  -21.9902   -9.0255   20.4653 C   0  0  0  0  0  0
  -22.7232  -10.2135   20.3062 C   0  0  0  0  0  0
  -21.6852   -6.0734   22.5283 C   0  0  0  0  0  0
  -21.4016   -6.5639   23.8215 C   0  0  0  0  0  0
  -21.3657   -5.6793   24.9177 C   0  0  0  0  0  0
  -21.6041   -4.3057   24.7229 C   0  0  0  0  0  0
  -21.8818   -3.8146   23.4353 C   0  0  0  0  0  0
  -21.9196   -4.6964   22.3409 C   0  0  0  0  0  0
  -22.7850  -13.5239   21.1863 C   0  0  0  0  0  0
  -22.1662   -4.2148   21.0989 F   0  0  0  0  0  0
  -21.5625   -3.4540   25.7743 F   0  0  0  0  0  0
  -30.0109  -13.4365   20.4150 N   0  0  0  0  0  0
  -26.2984  -12.9326   20.3285 N   0  0  0  0  0  0
  -25.9319  -11.6490   20.5743 N   0  0  0  0  0  0
  -22.0483  -12.8239   22.0422 N   0  0  0  0  0  0
  -25.4257  -15.1867   20.4046 N   0  0  0  0  0  0
  -31.7886  -14.8260   20.1463 O   0  0  0  0  0  0
  -21.6632   -6.8872   21.4243 O   0  0  0  0  0  0
  -22.3545  -14.5544   20.6703 O   0  0  0  0  0  0
  -24.6277  -31.8594   23.2038 C   0  0  0  0  0  0
  -25.9123  -32.4780   23.8355 C   0  0  1  0  0  0
  -27.2227  -27.3124   20.1045 C   0  0  0  0  0  0
  -25.5931  -33.8579   24.2279 N   0  0  0  0  0  0
  -23.4209  -30.4854   21.5474 C   0  0  2  0  0  0
  -24.8655  -28.9427   20.1119 C   0  0  0  0  0  0
  -22.7473  -29.4629   22.4940 C   0  0  0  0  0  0
  -18.0285  -28.1385   22.8484 C   0  0  0  0  0  0
  -24.1489  -36.7298   23.2632 C   0  0  0  0  0  0
  -25.9643  -30.7878   21.3766 C   0  0  0  0  0  0
  -26.0376  -29.4160   20.7150 C   0  0  0  0  0  0
  -27.2192  -28.6130   20.7021 C   0  0  0  0  0  0
  -26.0202  -26.8966   19.4838 C   0  0  0  0  0  0
  -24.8588  -27.6876   19.4901 C   0  0  0  0  0  0
  -23.6351  -29.8246   20.1620 C   0  0  0  0  0  0
  -25.4110  -36.3081   24.0325 C   0  0  1  0  0  0
  -20.5887  -28.3692   23.1283 C   0  0  2  0  0  0
  -20.6782  -26.9414   22.5410 C   0  0  0  0  0  0
  -19.5757  -26.6388   21.5211 C   0  0  0  0  0  0
  -18.1935  -26.7928   22.1623 C   0  0  0  0  0  0
  -19.1537  -28.8853   23.2879 C   0  0  0  0  0  0
  -18.9461  -30.1456   23.8900 C   0  0  0  0  0  0
  -17.6461  -30.6588   24.0566 C   0  0  0  0  0  0
  -25.9052  -34.9454   23.5103 C   0  0  0  0  0  0
  -16.5354  -29.9089   23.6328 C   0  0  0  0  0  0
  -16.7273  -28.6505   23.0351 C   0  0  0  0  0  0
  -26.4492  -31.6593   25.0729 C   0  0  0  0  0  0
  -25.3724  -31.3765   26.1463 C   0  0  0  0  0  0
  -27.0311  -30.3000   24.6204 C   0  0  0  0  0  0
  -27.6058  -32.4317   25.7496 C   0  0  0  0  0  0
  -27.5582  -37.1794   24.8454 C   0  0  0  0  0  0
  -21.4188  -29.3045   22.3677 N   0  0  0  0  0  0
  -26.4284  -37.3780   23.9415 N   0  0  0  0  0  0
  -24.6901  -31.0601   22.0996 N   0  0  0  0  0  0
  -23.4188  -28.8153   23.3014 O   0  0  0  0  0  0
  -28.3384  -26.4541   20.1422 O   0  0  0  0  0  0
  -26.5625  -34.8925   22.4672 O   0  0  0  0  0  0
  -23.5438  -32.1390   23.7363 O   0  0  0  0  0  0
  -31.0767  -19.3455   20.6859 C   0  0  0  0  0  0
  -31.0462  -17.9236   20.8102 C   0  0  0  0  0  0
  -28.7591  -17.9541   20.0998 C   0  0  0  0  0  0
  -29.9709  -20.1364   20.2309 C   0  0  0  0  0  0
  -29.8804  -17.1779   20.5099 C   0  0  0  0  0  0
  -28.7953  -19.3766   19.9526 C   0  0  0  0  0  0
  -29.1004  -22.5974   20.0528 C   0  0  0  0  0  0
  -29.2595  -23.9698   20.1153 C   0  0  0  0  0  0
  -31.4306  -24.4112   19.0008 C   0  0  0  0  0  0
  -30.6347  -24.5877   20.2866 C   0  0  0  0  0  0
  -31.4967  -23.0069   18.4016 C   0  0  0  0  0  0
  -31.4422  -21.8739   19.4522 C   0  0  0  0  0  0
  -28.0954  -25.0034   19.9255 C   0  0  0  0  0  0
  -30.1045  -21.5717   20.0102 N   0  0  0  0  0  0
  -29.7505  -15.7246   20.6772 N   0  0  0  0  0  0
  -31.9952  -25.3659   18.4610 O   0  0  0  0  0  0
  -27.6772  -19.9947   19.4988 F   0  0  0  0  0  0
  -31.4850  -12.5431   19.1452 H   0  0  0  0  0  0
  -30.3930  -11.4173   19.9061 H   0  0  0  0  0  0
  -29.7776  -11.7386   17.4877 H   0  0  0  0  0  0
  -29.6446  -13.4612   17.7285 H   0  0  0  0  0  0
  -27.8858  -11.2770   18.8922 H   0  0  0  0  0  0
  -27.3767  -12.5366   17.7976 H   0  0  0  0  0  0
  -27.6604  -14.2412   19.4931 H   0  0  0  0  0  0
  -28.7173  -12.0803   21.3891 H   0  0  0  0  0  0
  -28.4449  -13.7442   21.8242 H   0  0  0  0  0  0
  -25.2759   -9.5675   22.4759 H   0  0  0  0  0  0
  -24.0005   -7.4621   22.7466 H   0  0  0  0  0  0
  -21.0831   -8.8772   19.8961 H   0  0  0  0  0  0
  -22.3688  -10.9672   19.6170 H   0  0  0  0  0  0
  -21.2006   -7.6144   23.9716 H   0  0  0  0  0  0
  -21.1476   -6.0523   25.9077 H   0  0  0  0  0  0
  -22.0597   -2.7608   23.2854 H   0  0  0  0  0  0
  -22.4095  -11.9916   22.4842 H   0  0  0  0  0  0
  -21.1099  -13.1272   22.2611 H   0  0  0  0  0  0
  -24.6477  -15.8310   20.4930 H   0  0  0  0  0  0
  -26.2509  -15.6187   20.0129 H   0  0  0  0  0  0
  -26.7191  -32.5436   23.1100 H   0  0  0  0  0  0
  -25.0066  -33.9722   25.0414 H   0  0  0  0  0  0
  -22.7150  -31.3066   21.4068 H   0  0  0  0  0  0
  -23.3753  -35.9629   23.3279 H   0  0  0  0  0  0
  -24.3587  -36.8934   22.2049 H   0  0  0  0  0  0
  -23.7245  -37.6496   23.6664 H   0  0  0  0  0  0
  -26.0981  -31.5537   20.6116 H   0  0  0  0  0  0
  -26.8438  -30.8332   22.0073 H   0  0  0  0  0  0
  -28.1181  -28.9719   21.1827 H   0  0  0  0  0  0
  -25.9349  -25.9417   18.9889 H   0  0  0  0  0  0
  -23.9596  -27.3177   19.0165 H   0  0  0  0  0  0
  -23.7570  -30.6038   19.4086 H   0  0  0  0  0  0
  -22.7533  -29.2579   19.8571 H   0  0  0  0  0  0
  -25.1286  -36.1926   25.0816 H   0  0  0  0  0  0
  -20.9972  -28.3269   24.1407 H   0  0  0  0  0  0
  -20.5690  -26.2291   23.3605 H   0  0  0  0  0  0
  -21.6653  -26.7456   22.1199 H   0  0  0  0  0  0
  -19.6926  -25.6297   21.1242 H   0  0  0  0  0  0
  -19.6701  -27.3196   20.6738 H   0  0  0  0  0  0
  -17.4202  -26.6663   21.4031 H   0  0  0  0  0  0
  -18.0346  -26.0071   22.9023 H   0  0  0  0  0  0
  -19.7939  -30.7273   24.2265 H   0  0  0  0  0  0
  -17.5021  -31.6272   24.5165 H   0  0  0  0  0  0
  -15.5354  -30.2996   23.7660 H   0  0  0  0  0  0
  -15.8669  -28.0835   22.7063 H   0  0  0  0  0  0
  -24.5892  -30.7109   25.7819 H   0  0  0  0  0  0
  -24.8921  -32.2943   26.4859 H   0  0  0  0  0  0
  -25.8045  -30.8974   27.0255 H   0  0  0  0  0  0
  -26.2883  -29.6772   24.1205 H   0  0  0  0  0  0
  -27.3953  -29.7247   25.4725 H   0  0  0  0  0  0
  -27.8785  -30.4258   23.9461 H   0  0  0  0  0  0
  -27.2673  -33.3612   26.2087 H   0  0  0  0  0  0
  -28.3862  -32.6882   25.0320 H   0  0  0  0  0  0
  -28.0730  -31.8428   26.5399 H   0  0  0  0  0  0
  -28.2583  -38.0108   24.7531 H   0  0  0  0  0  0
  -28.1096  -36.2645   24.6232 H   0  0  0  0  0  0
  -27.2313  -37.1393   25.8859 H   0  0  0  0  0  0
  -20.9351  -29.8765   21.6895 H   0  0  0  0  0  0
  -26.0163  -38.2848   24.1440 H   0  0  0  0  0  0
  -32.0029  -19.8317   20.9518 H   0  0  0  0  0  0
  -31.9326  -17.4125   21.1587 H   0  0  0  0  0  0
  -27.8308  -17.4549   19.8641 H   0  0  0  0  0  0
  -28.1018  -22.2133   19.9040 H   0  0  0  0  0  0
  -31.1575  -24.0816   21.0976 H   0  0  0  0  0  0
  -30.5706  -25.6407   20.5573 H   0  0  0  0  0  0
  -32.4386  -22.9346   17.8574 H   0  0  0  0  0  0
  -30.7042  -22.8894   17.6628 H   0  0  0  0  0  0
  -32.1327  -22.0908   20.2686 H   0  0  0  0  0  0
  -31.8461  -20.9971   18.9439 H   0  0  0  0  0  0
  -27.2630  -24.6722   20.5484 H   0  0  0  0  0  0
  -27.7881  -24.8726   18.8872 H   0  0  0  0  0  0
  -28.8063  -15.4083   20.8328 H   0  0  0  0  0  0
  1 25  1  0  0  0
  1 30  2  0  0  0
  1 85  1  0  0  0
  2  3  1  0  0  0
  2 25  1  0  0  0
  2 88  1  0  0  0
  2 89  1  0  0  0
  3  4  1  0  0  0
  3 90  1  0  0  0
  3 91  1  0  0  0
  4  5  1  0  0  0
  4 92  1  0  0  0
  4 93  1  0  0  0
  5  6  1  0  0  0
  5 26  1  0  0  0
  5 94  1  0  0  0
  6 25  1  0  0  0
  6 95  1  0  0  0
  6 96  1  0  0  0
  7  8  2  0  0  0
  7 26  1  0  0  0
  7 29  1  0  0  0
  8  9  1  0  0  0
  8 22  1  0  0  0
  9 10  1  0  0  0
  9 27  2  0  0  0
 10 11  2  0  0  0
 10 15  1  0  0  0
 11 12  1  0  0  0
 11 97  1  0  0  0
 12 13  2  0  0  0
 12 98  1  0  0  0
 13 14  1  0  0  0
 13 31  1  0  0  0
 14 15  2  0  0  0
 14 99  1  0  0  0
 15100  1  0  0  0
 16 17  2  0  0  0
 16 21  1  0  0  0
 16 31  1  0  0  0
 17 18  1  0  0  0
 17101  1  0  0  0
 18 19  2  0  0  0
 18102  1  0  0  0
 19 20  1  0  0  0
 19 24  1  0  0  0
 20 21  2  0  0  0
 20103  1  0  0  0
 21 23  1  0  0  0
 22 28  1  0  0  0
 22 32  2  0  0  0
 26 27  1  0  0  0
 28104  1  0  0  0
 28105  1  0  0  0
 29106  1  0  0  0
 29107  1  0  0  0
 33 34  1  0  0  0
 33 66  1  0  0  0
 33 70  2  0  0  0
 34 36  1  0  0  0
 34 59  1  0  0  0
 34108  1  0  0  0
 35 44  2  0  0  0
 35 45  1  0  0  0
 35 68  1  0  0  0
 36 56  1  0  0  0
 36109  1  0  0  0
 37 39  1  0  0  0
 37 47  1  0  0  0
 37 66  1  0  0  0
 37110  1  0  0  0
 38 43  2  0  0  0
 38 46  1  0  0  0
 38 47  1  0  0  0
 39 64  1  0  0  0
 39 67  2  0  0  0
 40 52  1  0  0  0
 40 53  2  0  0  0
 40 58  1  0  0  0
 41111  1  0  0  0
 41112  1  0  0  0
 41113  1  0  0  0
 41 48  1  0  0  0
 42 43  1  0  0  0
 42 66  1  0  0  0
 42114  1  0  0  0
 42115  1  0  0  0
 43 44  1  0  0  0
 44116  1  0  0  0
 45 46  2  0  0  0
 45117  1  0  0  0
 46118  1  0  0  0
 47119  1  0  0  0
 47120  1  0  0  0
 48 56  1  0  0  0
 48 65  1  0  0  0
 48121  1  0  0  0
 49 50  1  0  0  0
 49 53  1  0  0  0
 49 64  1  0  0  0
 49122  1  0  0  0
 50 51  1  0  0  0
 50123  1  0  0  0
 50124  1  0  0  0
 51 52  1  0  0  0
 51125  1  0  0  0
 51126  1  0  0  0
 52127  1  0  0  0
 52128  1  0  0  0
 53 54  1  0  0  0
 54 55  2  0  0  0
 54129  1  0  0  0
 55 57  1  0  0  0
 55130  1  0  0  0
 56 69  2  0  0  0
 57 58  2  0  0  0
 57131  1  0  0  0
 58132  1  0  0  0
 59 60  1  0  0  0
 59 61  1  0  0  0
 59 62  1  0  0  0
 60133  1  0  0  0
 60134  1  0  0  0
 60135  1  0  0  0
 61136  1  0  0  0
 61137  1  0  0  0
 61138  1  0  0  0
 62139  1  0  0  0
 62140  1  0  0  0
 62141  1  0  0  0
 63 65  1  0  0  0
 63142  1  0  0  0
 63143  1  0  0  0
 63144  1  0  0  0
 64145  1  0  0  0
 65146  1  0  0  0
 68 83  1  0  0  0
 71 72  2  0  0  0
 71 74  1  0  0  0
 71147  1  0  0  0
 72 75  1  0  0  0
 72148  1  0  0  0
 73 75  2  0  0  0
 73 76  1  0  0  0
 73149  1  0  0  0
 74 76  2  0  0  0
 74 84  1  0  0  0
 75 85  1  0  0  0
 76 87  1  0  0  0
 77 78  2  0  0  0
 77 84  1  0  0  0
 77150  1  0  0  0
 78 80  1  0  0  0
 78 83  1  0  0  0
 79 80  1  0  0  0
 79 81  1  0  0  0
 79 86  2  0  0  0
 80151  1  0  0  0
 80152  1  0  0  0
 81 82  1  0  0  0
 81153  1  0  0  0
 81154  1  0  0  0
 82 84  1  0  0  0
 82155  1  0  0  0
 82156  1  0  0  0
 83157  1  0  0  0
 83158  1  0  0  0
 85159  1  0  0  0
M  ISO  4   1 100  68 101  83 101  85 100
M  END
> <chiral flag>
0

> <version>
0

> <s_m_source_file>
/data/baiqing/PycharmProjects/Reinvent-master-3.2/result/LINK_invent/BTK/process_docking_weight1_custom_product_contain_oxygen_bond_distance_aromatic_linkinvent_7_9_3/rearranged_h_0095.sdf

> <i_m_source_file_index>
54

> <r_mmod_Potential_Energy-OPLS-2005>
104.013092041016

> <r_mmod_Stretch_Energy-OPLS-2005>
89.8821258544922

> <r_mmod_Bend_Energy-OPLS-2005>
138.707855224609

> <r_mmod_Torsional_Energy-OPLS-2005>
222.917785644531

> <r_mmod_Improper_Torsional_Energy-OPLS-2005>
6.74316596984863

> <r_mmod_Van_der_Waal_Energy-OPLS-2005>
165.589706420898

> <r_mmod_Electrostatic_Energy-OPLS-2005>
-349.890655517578

> <r_mmod_Solvation_Energy-OPLS-2005>
-226.83984375

> <b_mmod_Minimization_Converged-OPLS-2005>
0

> <r_mmod_RMS_Derivative-OPLS-2005>
1.34376156330109

$$$$
54
                    3D
 Structure written by MMmdl.
154162  0  0  1  0            999 V2000
  -30.7137  -14.6439   20.4890 C   0  0  0  0  0  0
  -30.4086  -12.4047   19.4514 C   0  0  0  0  0  0
  -29.4913  -12.4939   18.2169 C   0  0  0  0  0  0
  -28.0194  -12.3355   18.6387 C   0  0  0  0  0  0
  -27.6398  -13.2350   19.8466 C   0  0  2  0  0  0
  -28.6907  -13.1703   20.9762 C   0  0  0  0  0  0
  -25.2506  -13.8211   20.5719 C   0  0  0  0  0  0
  -24.1796  -13.0443   20.9200 C   0  0  0  0  0  0
  -24.6399  -11.6924   20.8745 C   0  0  0  0  0  0
  -23.9079  -10.4293   21.0399 C   0  0  0  0  0  0
  -24.3628   -9.4208   21.9178 C   0  0  0  0  0  0
  -23.6300   -8.2245   22.0751 C   0  0  0  0  0  0
  -22.4279   -8.0284   21.3544 C   0  0  0  0  0  0
  -21.9917   -9.0258   20.4644 C   0  0  0  0  0  0
  -22.7249  -10.2134   20.3049 C   0  0  0  0  0  0
  -21.6855   -6.0738   22.5277 C   0  0  0  0  0  0
  -21.4019   -6.5642   23.8211 C   0  0  0  0  0  0
  -21.3659   -5.6795   24.9175 C   0  0  0  0  0  0
  -21.6042   -4.3058   24.7225 C   0  0  0  0  0  0
  -21.8820   -3.8148   23.4346 C   0  0  0  0  0  0
  -21.9197   -4.6964   22.3403 C   0  0  0  0  0  0
  -22.7816  -13.5218   21.1864 C   0  0  0  0  0  0
  -22.1662   -4.2150   21.0980 F   0  0  0  0  0  0
  -21.5627   -3.4542   25.7737 F   0  0  0  0  0  0
  -29.9943  -13.4800   20.3789 N   0  0  0  0  0  0
  -26.2943  -12.9431   20.3312 N   0  0  0  0  0  0
  -25.9334  -11.6565   20.5765 N   0  0  0  0  0  0
  -22.0474  -12.8202   22.0421 N   0  0  0  0  0  0
  -25.4191  -15.1937   20.4173 N   0  0  0  0  0  0
  -31.9072  -14.6278   20.1785 O   0  0  0  0  0  0
  -21.6645   -6.8878   21.4237 O   0  0  0  0  0  0
  -22.3491  -14.5522   20.6715 O   0  0  0  0  0  0
  -24.6277  -31.8618   23.2058 C   0  0  0  0  0  0
  -25.9127  -32.4790   23.8379 C   0  0  1  0  0  0
  -27.1999  -27.3047   20.1086 C   0  0  0  0  0  0
  -25.5947  -33.8591   24.2299 N   0  0  0  0  0  0
  -23.4195  -30.4906   21.5508 C   0  0  2  0  0  0
  -24.8608  -28.9569   20.1073 C   0  0  0  0  0  0
  -22.7483  -29.4637   22.4949 C   0  0  0  0  0  0
  -18.0285  -28.1383   22.8485 C   0  0  0  0  0  0
  -24.1490  -36.7293   23.2635 C   0  0  0  0  0  0
  -25.9646  -30.7883   21.3801 C   0  0  0  0  0  0
  -26.0343  -29.4171   20.7184 C   0  0  0  0  0  0
  -27.2079  -28.6013   20.7148 C   0  0  0  0  0  0
  -26.0041  -26.9214   19.4517 C   0  0  0  0  0  0
  -24.8485  -27.7148   19.4652 C   0  0  0  0  0  0
  -23.6314  -29.8375   20.1625 C   0  0  0  0  0  0
  -25.4114  -36.3087   24.0327 C   0  0  1  0  0  0
  -20.5889  -28.3688   23.1284 C   0  0  2  0  0  0
  -20.6777  -26.9411   22.5408 C   0  0  0  0  0  0
  -19.5752  -26.6383   21.5212 C   0  0  0  0  0  0
  -18.1930  -26.7928   22.1619 C   0  0  0  0  0  0
  -19.1538  -28.8852   23.2880 C   0  0  0  0  0  0
  -18.9462  -30.1457   23.8895 C   0  0  0  0  0  0
  -17.6461  -30.6588   24.0559 C   0  0  0  0  0  0
  -25.9057  -34.9458   23.5109 C   0  0  0  0  0  0
  -16.5352  -29.9085   23.6328 C   0  0  0  0  0  0
  -16.7272  -28.6500   23.0352 C   0  0  0  0  0  0
  -26.4503  -31.6590   25.0746 C   0  0  0  0  0  0
  -25.3729  -31.3738   26.1469 C   0  0  0  0  0  0
  -27.0328  -30.3010   24.6193 C   0  0  0  0  0  0
  -27.6082  -32.4309   25.7503 C   0  0  0  0  0  0
  -27.5581  -37.1801   24.8464 C   0  0  0  0  0  0
  -21.4196  -29.3046   22.3691 N   0  0  0  0  0  0
  -26.4291  -37.3783   23.9408 N   0  0  0  0  0  0
  -24.6898  -31.0627   22.1024 N   0  0  0  0  0  0
  -23.4208  -28.8155   23.3009 O   0  0  0  0  0  0
  -28.2781  -26.4000   20.1815 O   0  0  0  0  0  0
  -26.5614  -34.8924   22.4670 O   0  0  0  0  0  0
  -23.5442  -32.1423   23.7386 O   0  0  0  0  0  0
  -30.8566  -19.5254   20.2684 C   0  0  0  0  0  0
  -28.1966  -20.1111   20.7482 C   0  0  0  0  0  0
  -30.0214  -18.4375   20.6614 C   0  0  0  0  0  0
  -29.0441  -21.2014   20.3879 C   0  0  0  0  0  0
  -30.3981  -20.8742   20.1061 C   0  0  0  0  0  0
  -28.6620  -18.7653   20.8866 C   0  0  0  0  0  0
  -30.6694  -17.0579   20.9277 C   0  0  0  0  0  0
  -28.9114  -23.8229   20.3799 C   0  0  0  0  0  0
  -32.5232  -21.5730   19.2027 C   0  0  0  0  0  0
  -27.9289  -24.9727   19.9349 C   0  0  0  0  0  0
  -28.4590  -22.5354   20.2015 N   0  0  0  0  0  0
  -30.0573  -15.8430   20.6947 N   0  0  0  0  0  0
  -31.8339  -17.1139   21.3445 O   0  0  0  0  0  0
  -29.9978  -24.1016   20.8947 O   0  0  0  0  0  0
  -31.2101  -21.8886   19.6447 O   0  0  0  0  0  0
  -27.7885  -17.7953   21.2515 F   0  0  0  0  0  0
  -31.4523  -12.4808   19.1425 H   0  0  0  0  0  0
  -30.3146  -11.4300   19.9327 H   0  0  0  0  0  0
  -29.7571  -11.7231   17.4925 H   0  0  0  0  0  0
  -29.6335  -13.4512   17.7128 H   0  0  0  0  0  0
  -27.8655  -11.2868   18.8953 H   0  0  0  0  0  0
  -27.3603  -12.5396   17.7939 H   0  0  0  0  0  0
  -27.6346  -14.2572   19.4679 H   0  0  0  0  0  0
  -28.7097  -12.1808   21.4349 H   0  0  0  0  0  0
  -28.4466  -13.8759   21.7721 H   0  0  0  0  0  0
  -25.2776   -9.5687   22.4751 H   0  0  0  0  0  0
  -24.0013   -7.4637   22.7468 H   0  0  0  0  0  0
  -21.0851   -8.8774   19.8949 H   0  0  0  0  0  0
  -22.3706  -10.9673   19.6156 H   0  0  0  0  0  0
  -21.2012   -7.6151   23.9715 H   0  0  0  0  0  0
  -21.1477   -6.0526   25.9077 H   0  0  0  0  0  0
  -22.0600   -2.7611   23.2847 H   0  0  0  0  0  0
  -22.4114  -11.9875   22.4808 H   0  0  0  0  0  0
  -21.1084  -13.1201   22.2624 H   0  0  0  0  0  0
  -24.6569  -15.8483   20.5531 H   0  0  0  0  0  0
  -26.2836  -15.6478   20.1533 H   0  0  0  0  0  0
  -26.7194  -32.5451   23.1123 H   0  0  0  0  0  0
  -25.0103  -33.9745   25.0450 H   0  0  0  0  0  0
  -22.7131  -31.3121   21.4146 H   0  0  0  0  0  0
  -23.3760  -35.9619   23.3291 H   0  0  0  0  0  0
  -24.3582  -36.8917   22.2051 H   0  0  0  0  0  0
  -23.7237  -37.6491   23.6659 H   0  0  0  0  0  0
  -26.0966  -31.5516   20.6120 H   0  0  0  0  0  0
  -26.8466  -30.8353   22.0072 H   0  0  0  0  0  0
  -28.1032  -28.9421   21.2155 H   0  0  0  0  0  0
  -25.9070  -25.9839   18.9263 H   0  0  0  0  0  0
  -23.9514  -27.3617   18.9750 H   0  0  0  0  0  0
  -23.7504  -30.6193   19.4115 H   0  0  0  0  0  0
  -22.7497  -29.2712   19.8571 H   0  0  0  0  0  0
  -25.1291  -36.1937   25.0818 H   0  0  0  0  0  0
  -20.9972  -28.3251   24.1408 H   0  0  0  0  0  0
  -20.5681  -26.2295   23.3607 H   0  0  0  0  0  0
  -21.6647  -26.7444   22.1199 H   0  0  0  0  0  0
  -19.6917  -25.6294   21.1240 H   0  0  0  0  0  0
  -19.6691  -27.3196   20.6745 H   0  0  0  0  0  0
  -17.4202  -26.6675   21.4022 H   0  0  0  0  0  0
  -18.0332  -26.0073   22.9016 H   0  0  0  0  0  0
  -19.7939  -30.7270   24.2271 H   0  0  0  0  0  0
  -17.5016  -31.6272   24.5158 H   0  0  0  0  0  0
  -15.5352  -30.2983   23.7666 H   0  0  0  0  0  0
  -15.8669  -28.0818   22.7075 H   0  0  0  0  0  0
  -24.5926  -30.7054   25.7807 H   0  0  0  0  0  0
  -24.8890  -32.2905   26.4858 H   0  0  0  0  0  0
  -25.8052  -30.8955   27.0264 H   0  0  0  0  0  0
  -26.2893  -29.6780   24.1209 H   0  0  0  0  0  0
  -27.4007  -29.7252   25.4691 H   0  0  0  0  0  0
  -27.8776  -30.4290   23.9423 H   0  0  0  0  0  0
  -27.2729  -33.3633   26.2056 H   0  0  0  0  0  0
  -28.3908  -32.6820   25.0331 H   0  0  0  0  0  0
  -28.0727  -31.8435   26.5432 H   0  0  0  0  0  0
  -28.2599  -38.0100   24.7514 H   0  0  0  0  0  0
  -28.1073  -36.2629   24.6280 H   0  0  0  0  0  0
  -27.2297  -37.1438   25.8869 H   0  0  0  0  0  0
  -20.9376  -29.8785   21.6915 H   0  0  0  0  0  0
  -26.0169  -38.2854   24.1424 H   0  0  0  0  0  0
  -31.8960  -19.2953   20.0914 H   0  0  0  0  0  0
  -27.1494  -20.3010   20.9314 H   0  0  0  0  0  0
  -32.9790  -22.4627   18.7683 H   0  0  0  0  0  0
  -32.5129  -20.8042   18.4290 H   0  0  0  0  0  0
  -33.1553  -21.2492   20.0303 H   0  0  0  0  0  0
  -26.9939  -24.7394   20.4481 H   0  0  0  0  0  0
  -27.7638  -24.8346   18.8653 H   0  0  0  0  0  0
  -27.4966  -22.5136   19.8931 H   0  0  0  0  0  0
  -29.0551  -15.8497   20.6056 H   0  0  0  0  0  0
  1 25  1  0  0  0
  1 30  2  0  0  0
  1 82  1  0  0  0
  2  3  1  0  0  0
  2 25  1  0  0  0
  2 87  1  0  0  0
  2 88  1  0  0  0
  3  4  1  0  0  0
  3 89  1  0  0  0
  3 90  1  0  0  0
  4  5  1  0  0  0
  4 91  1  0  0  0
  4 92  1  0  0  0
  5  6  1  0  0  0
  5 26  1  0  0  0
  5 93  1  0  0  0
  6 25  1  0  0  0
  6 94  1  0  0  0
  6 95  1  0  0  0
  7  8  2  0  0  0
  7 26  1  0  0  0
  7 29  1  0  0  0
  8  9  1  0  0  0
  8 22  1  0  0  0
  9 10  1  0  0  0
  9 27  2  0  0  0
 10 11  2  0  0  0
 10 15  1  0  0  0
 11 12  1  0  0  0
 11 96  1  0  0  0
 12 13  2  0  0  0
 12 97  1  0  0  0
 13 14  1  0  0  0
 13 31  1  0  0  0
 14 15  2  0  0  0
 14 98  1  0  0  0
 15 99  1  0  0  0
 16 17  2  0  0  0
 16 21  1  0  0  0
 16 31  1  0  0  0
 17 18  1  0  0  0
 17100  1  0  0  0
 18 19  2  0  0  0
 18101  1  0  0  0
 19 20  1  0  0  0
 19 24  1  0  0  0
 20 21  2  0  0  0
 20102  1  0  0  0
 21 23  1  0  0  0
 22 28  1  0  0  0
 22 32  2  0  0  0
 26 27  1  0  0  0
 28103  1  0  0  0
 28104  1  0  0  0
 29105  1  0  0  0
 29106  1  0  0  0
 33 34  1  0  0  0
 33 66  1  0  0  0
 33 70  2  0  0  0
 34 36  1  0  0  0
 34 59  1  0  0  0
 34107  1  0  0  0
 35 44  2  0  0  0
 35 45  1  0  0  0
 35 68  1  0  0  0
 36 56  1  0  0  0
 36108  1  0  0  0
 37 39  1  0  0  0
 37 47  1  0  0  0
 37 66  1  0  0  0
 37109  1  0  0  0
 38 43  2  0  0  0
 38 46  1  0  0  0
 38 47  1  0  0  0
 39 64  1  0  0  0
 39 67  2  0  0  0
 40 52  1  0  0  0
 40 53  2  0  0  0
 40 58  1  0  0  0
 41110  1  0  0  0
 41111  1  0  0  0
 41112  1  0  0  0
 41 48  1  0  0  0
 42 43  1  0  0  0
 42 66  1  0  0  0
 42113  1  0  0  0
 42114  1  0  0  0
 43 44  1  0  0  0
 44115  1  0  0  0
 45 46  2  0  0  0
 45116  1  0  0  0
 46117  1  0  0  0
 47118  1  0  0  0
 47119  1  0  0  0
 48 56  1  0  0  0
 48 65  1  0  0  0
 48120  1  0  0  0
 49 50  1  0  0  0
 49 53  1  0  0  0
 49 64  1  0  0  0
 49121  1  0  0  0
 50 51  1  0  0  0
 50122  1  0  0  0
 50123  1  0  0  0
 51 52  1  0  0  0
 51124  1  0  0  0
 51125  1  0  0  0
 52126  1  0  0  0
 52127  1  0  0  0
 53 54  1  0  0  0
 54 55  2  0  0  0
 54128  1  0  0  0
 55 57  1  0  0  0
 55129  1  0  0  0
 56 69  2  0  0  0
 57 58  2  0  0  0
 57130  1  0  0  0
 58131  1  0  0  0
 59 60  1  0  0  0
 59 61  1  0  0  0
 59 62  1  0  0  0
 60132  1  0  0  0
 60133  1  0  0  0
 60134  1  0  0  0
 61135  1  0  0  0
 61136  1  0  0  0
 61137  1  0  0  0
 62138  1  0  0  0
 62139  1  0  0  0
 62140  1  0  0  0
 63 65  1  0  0  0
 63141  1  0  0  0
 63142  1  0  0  0
 63143  1  0  0  0
 64144  1  0  0  0
 65145  1  0  0  0
 68 80  1  0  0  0
 71 73  2  0  0  0
 71 75  1  0  0  0
 71146  1  0  0  0
 72 74  1  0  0  0
 72 76  2  0  0  0
 72147  1  0  0  0
 73 76  1  0  0  0
 73 77  1  0  0  0
 74 75  2  0  0  0
 74 81  1  0  0  0
 75 85  1  0  0  0
 76 86  1  0  0  0
 77 82  1  0  0  0
 77 83  2  0  0  0
 78 80  1  0  0  0
 78 81  1  0  0  0
 78 84  2  0  0  0
 79 85  1  0  0  0
 79148  1  0  0  0
 79149  1  0  0  0
 79150  1  0  0  0
 80151  1  0  0  0
 80152  1  0  0  0
 81153  1  0  0  0
 82154  1  0  0  0
M  ISO  4   1 100  68 101  80 101  82 100
M  END
> <chiral flag>
0

> <version>
0

> <s_m_source_file>
/data/baiqing/PycharmProjects/Reinvent-master-3.2/result/LINK_invent/BTK/process_docking_weight1_custom_product_contain_oxygen_bond_distance_aromatic_linkinvent_7_9_3/rearranged_h_0095.sdf

> <i_m_source_file_index>
55

> <r_mmod_Potential_Energy-OPLS-2005>
12.0142755508423

> <r_mmod_Stretch_Energy-OPLS-2005>
84.5377883911133

> <r_mmod_Bend_Energy-OPLS-2005>
165.841171264648

> <r_mmod_Torsional_Energy-OPLS-2005>
242.94660949707

> <r_mmod_Improper_Torsional_Energy-OPLS-2005>
6.51033067703247

> <r_mmod_Van_der_Waal_Energy-OPLS-2005>
170.493835449219

> <r_mmod_Electrostatic_Energy-OPLS-2005>
-457.783966064453

> <r_mmod_Solvation_Energy-OPLS-2005>
-265.140716552734

> <b_mmod_Minimization_Converged-OPLS-2005>
0

> <r_mmod_RMS_Derivative-OPLS-2005>
0.966424107551575

$$$$
55
                    3D
 Structure written by MMmdl.
158167  0  0  1  0            999 V2000
  -30.6026  -14.6515   20.4912 C   0  0  0  0  0  0
  -30.4397  -12.3970   19.4524 C   0  0  0  0  0  0
  -29.5098  -12.5172   18.2232 C   0  0  0  0  0  0
  -28.0309  -12.3544   18.6309 C   0  0  0  0  0  0
  -27.6535  -13.2167   19.8650 C   0  0  2  0  0  0
  -28.6978  -13.0619   20.9945 C   0  0  0  0  0  0
  -25.2551  -13.8166   20.5675 C   0  0  0  0  0  0
  -24.1822  -13.0432   20.9191 C   0  0  0  0  0  0
  -24.6388  -11.6903   20.8734 C   0  0  0  0  0  0
  -23.9055  -10.4294   21.0407 C   0  0  0  0  0  0
  -24.3613   -9.4209   21.9180 C   0  0  0  0  0  0
  -23.6293   -8.2241   22.0749 C   0  0  0  0  0  0
  -22.4275   -8.0275   21.3541 C   0  0  0  0  0  0
  -21.9907   -9.0251   20.4647 C   0  0  0  0  0  0
  -22.7232  -10.2134   20.3055 C   0  0  0  0  0  0
  -21.6849   -6.0734   22.5282 C   0  0  0  0  0  0
  -21.4012   -6.5639   23.8213 C   0  0  0  0  0  0
  -21.3660   -5.6788   24.9176 C   0  0  0  0  0  0
  -21.6048   -4.3051   24.7224 C   0  0  0  0  0  0
  -21.8818   -3.8141   23.4343 C   0  0  0  0  0  0
  -21.9192   -4.6962   22.3404 C   0  0  0  0  0  0
  -22.7846  -13.5226   21.1855 C   0  0  0  0  0  0
  -22.1661   -4.2151   21.0979 F   0  0  0  0  0  0
  -21.5632   -3.4530   25.7731 F   0  0  0  0  0  0
  -30.0129  -13.4144   20.4349 N   0  0  0  0  0  0
  -26.2983  -12.9346   20.3307 N   0  0  0  0  0  0
  -25.9317  -11.6501   20.5743 N   0  0  0  0  0  0
  -22.0490  -12.8226   22.0418 N   0  0  0  0  0  0
  -25.4255  -15.1891   20.4090 N   0  0  0  0  0  0
  -31.7604  -14.8251   20.0979 O   0  0  0  0  0  0
  -21.6637   -6.8874   21.4242 O   0  0  0  0  0  0
  -22.3540  -14.5537   20.6705 O   0  0  0  0  0  0
  -24.6248  -31.8597   23.2018 C   0  0  0  0  0  0
  -25.9091  -32.4782   23.8359 C   0  0  1  0  0  0
  -27.2240  -27.3223   20.1251 C   0  0  0  0  0  0
  -25.5908  -33.8583   24.2274 N   0  0  0  0  0  0
  -23.4189  -30.4822   21.5446 C   0  0  2  0  0  0
  -24.8669  -28.9348   20.1115 C   0  0  0  0  0  0
  -22.7470  -29.4619   22.4940 C   0  0  0  0  0  0
  -18.0285  -28.1385   22.8492 C   0  0  0  0  0  0
  -24.1486  -36.7301   23.2638 C   0  0  0  0  0  0
  -25.9597  -30.7922   21.3720 C   0  0  0  0  0  0
  -26.0352  -29.4187   20.7159 C   0  0  0  0  0  0
  -27.2199  -28.6248   20.7092 C   0  0  0  0  0  0
  -26.0390  -26.8893   19.4928 C   0  0  0  0  0  0
  -24.8711  -27.6759   19.4895 C   0  0  0  0  0  0
  -23.6337  -29.8140   20.1607 C   0  0  0  0  0  0
  -25.4112  -36.3087   24.0328 C   0  0  1  0  0  0
  -20.5884  -28.3686   23.1290 C   0  0  2  0  0  0
  -20.6771  -26.9406   22.5422 C   0  0  0  0  0  0
  -19.5750  -26.6381   21.5220 C   0  0  0  0  0  0
  -18.1927  -26.7929   22.1624 C   0  0  0  0  0  0
  -19.1536  -28.8853   23.2886 C   0  0  0  0  0  0
  -18.9460  -30.1455   23.8901 C   0  0  0  0  0  0
  -17.6458  -30.6588   24.0564 C   0  0  0  0  0  0
  -25.9050  -34.9455   23.5104 C   0  0  0  0  0  0
  -16.5351  -29.9087   23.6332 C   0  0  0  0  0  0
  -16.7272  -28.6505   23.0349 C   0  0  0  0  0  0
  -26.4476  -31.6596   25.0730 C   0  0  0  0  0  0
  -25.3703  -31.3749   26.1456 C   0  0  0  0  0  0
  -27.0310  -30.3009   24.6183 C   0  0  0  0  0  0
  -27.6047  -32.4324   25.7492 C   0  0  0  0  0  0
  -27.5581  -37.1804   24.8457 C   0  0  0  0  0  0
  -21.4183  -29.3036   22.3682 N   0  0  0  0  0  0
  -26.4290  -37.3780   23.9406 N   0  0  0  0  0  0
  -24.6865  -31.0613   22.0967 N   0  0  0  0  0  0
  -23.4192  -28.8158   23.3017 O   0  0  0  0  0  0
  -28.3356  -26.4714   20.1465 O   0  0  0  0  0  0
  -26.5629  -34.8925   22.4675 O   0  0  0  0  0  0
  -23.5410  -32.1401   23.7343 O   0  0  0  0  0  0
  -30.6643  -19.2553   19.6807 C   0  0  0  0  0  0
  -30.7897  -17.8555   19.9369 C   0  0  0  0  0  0
  -28.6782  -17.9155   21.0726 C   0  0  0  0  0  0
  -29.5412  -20.0423   20.0867 C   0  0  0  0  0  0
  -29.7830  -17.1338   20.6272 C   0  0  0  0  0  0
  -28.5511  -19.3190   20.8167 C   0  0  0  0  0  0
  -28.8958  -22.5768   20.3592 C   0  0  0  0  0  0
  -28.6794  -23.8415   19.8384 C   0  0  0  0  0  0
  -28.9206  -24.0088   18.3853 C   0  0  0  0  0  0
  -29.0685  -22.7347   17.5523 C   0  0  0  0  0  0
  -29.8587  -21.6373   18.2887 C   0  0  0  0  0  0
  -28.1274  -25.0841   20.6391 C   0  0  0  0  0  0
  -29.3969  -21.4277   19.6672 N   0  0  0  0  0  0
  -27.3949  -19.9748   21.2419 N   0  0  0  0  0  0
  -29.7805  -15.6841   20.8715 N   0  0  0  0  0  0
  -28.9779  -25.0960   17.8047 O   0  0  0  0  0  0
  -31.4818  -12.5263   19.1542 H   0  0  0  0  0  0
  -30.3746  -11.3981   19.8866 H   0  0  0  0  0  0
  -29.7770  -11.7720   17.4728 H   0  0  0  0  0  0
  -29.6527  -13.4897   17.7488 H   0  0  0  0  0  0
  -27.8619  -11.2995   18.8512 H   0  0  0  0  0  0
  -27.3799  -12.5956   17.7904 H   0  0  0  0  0  0
  -27.6731  -14.2548   19.5327 H   0  0  0  0  0  0
  -28.7102  -12.0361   21.3644 H   0  0  0  0  0  0
  -28.4410  -13.6823   21.8546 H   0  0  0  0  0  0
  -25.2764   -9.5685   22.4742 H   0  0  0  0  0  0
  -24.0008   -7.4629   22.7460 H   0  0  0  0  0  0
  -21.0836   -8.8768   19.8952 H   0  0  0  0  0  0
  -22.3688  -10.9669   19.6158 H   0  0  0  0  0  0
  -21.2002   -7.6146   23.9717 H   0  0  0  0  0  0
  -21.1485   -6.0518   25.9081 H   0  0  0  0  0  0
  -22.0596   -2.7604   23.2835 H   0  0  0  0  0  0
  -22.4102  -11.9891   22.4814 H   0  0  0  0  0  0
  -21.1109  -13.1255   22.2616 H   0  0  0  0  0  0
  -24.6522  -15.8375   20.5094 H   0  0  0  0  0  0
  -26.2643  -15.6272   20.0508 H   0  0  0  0  0  0
  -26.7164  -32.5452   23.1122 H   0  0  0  0  0  0
  -25.0020  -33.9736   25.0391 H   0  0  0  0  0  0
  -22.7130  -31.3027   21.4006 H   0  0  0  0  0  0
  -23.3747  -35.9634   23.3299 H   0  0  0  0  0  0
  -24.3583  -36.8925   22.2056 H   0  0  0  0  0  0
  -23.7239  -37.6504   23.6661 H   0  0  0  0  0  0
  -26.0914  -31.5560   20.6041 H   0  0  0  0  0  0
  -26.8400  -30.8418   22.0012 H   0  0  0  0  0  0
  -28.1183  -28.9912   21.1858 H   0  0  0  0  0  0
  -26.0120  -25.9252   19.0045 H   0  0  0  0  0  0
  -23.9775  -27.3032   19.0067 H   0  0  0  0  0  0
  -23.7531  -30.5899   19.4041 H   0  0  0  0  0  0
  -22.7541  -29.2424   19.8597 H   0  0  0  0  0  0
  -25.1294  -36.1943   25.0821 H   0  0  0  0  0  0
  -20.9991  -28.3270   24.1408 H   0  0  0  0  0  0
  -20.5676  -26.2298   23.3626 H   0  0  0  0  0  0
  -21.6638  -26.7440   22.1209 H   0  0  0  0  0  0
  -19.6912  -25.6294   21.1251 H   0  0  0  0  0  0
  -19.6692  -27.3197   20.6753 H   0  0  0  0  0  0
  -17.4200  -26.6691   21.4019 H   0  0  0  0  0  0
  -18.0316  -26.0074   22.9022 H   0  0  0  0  0  0
  -19.7935  -30.7268   24.2271 H   0  0  0  0  0  0
  -17.5015  -31.6269   24.5167 H   0  0  0  0  0  0
  -15.5350  -30.2987   23.7653 H   0  0  0  0  0  0
  -15.8676  -28.0829   22.7050 H   0  0  0  0  0  0
  -24.5861  -30.7121   25.7778 H   0  0  0  0  0  0
  -24.8914  -32.2926   26.4881 H   0  0  0  0  0  0
  -25.8015  -30.8916   27.0229 H   0  0  0  0  0  0
  -26.2888  -29.6779   24.1171 H   0  0  0  0  0  0
  -27.3963  -29.7245   25.4693 H   0  0  0  0  0  0
  -27.8779  -30.4290   23.9435 H   0  0  0  0  0  0
  -27.2663  -33.3619   26.2080 H   0  0  0  0  0  0
  -28.3845  -32.6887   25.0311 H   0  0  0  0  0  0
  -28.0724  -31.8440   26.5396 H   0  0  0  0  0  0
  -28.2591  -38.0107   24.7502 H   0  0  0  0  0  0
  -28.1082  -36.2640   24.6273 H   0  0  0  0  0  0
  -27.2308  -37.1436   25.8862 H   0  0  0  0  0  0
  -20.9361  -29.8758   21.6892 H   0  0  0  0  0  0
  -26.0174  -38.2855   24.1407 H   0  0  0  0  0  0
  -31.4670  -19.7253   19.1323 H   0  0  0  0  0  0
  -31.6671  -17.3437   19.5687 H   0  0  0  0  0  0
  -27.8831  -17.4165   21.6085 H   0  0  0  0  0  0
  -28.7163  -22.3923   21.4099 H   0  0  0  0  0  0
  -29.5490  -22.9688   16.6022 H   0  0  0  0  0  0
  -28.0672  -22.3746   17.3181 H   0  0  0  0  0  0
  -30.9172  -21.9008   18.3070 H   0  0  0  0  0  0
  -29.7714  -20.7197   17.7042 H   0  0  0  0  0  0
  -28.5808  -25.0428   21.6296 H   0  0  0  0  0  0
  -27.0698  -24.8903   20.8187 H   0  0  0  0  0  0
  -26.5514  -19.4230   21.3489 H   0  0  0  0  0  0
  -27.2260  -20.8641   20.7819 H   0  0  0  0  0  0
  -28.9189  -15.3402   21.2658 H   0  0  0  0  0  0
  1 25  1  0  0  0
  1 30  2  0  0  0
  1 85  1  0  0  0
  2  3  1  0  0  0
  2 25  1  0  0  0
  2 87  1  0  0  0
  2 88  1  0  0  0
  3  4  1  0  0  0
  3 89  1  0  0  0
  3 90  1  0  0  0
  4  5  1  0  0  0
  4 91  1  0  0  0
  4 92  1  0  0  0
  5  6  1  0  0  0
  5 26  1  0  0  0
  5 93  1  0  0  0
  6 25  1  0  0  0
  6 94  1  0  0  0
  6 95  1  0  0  0
  7  8  2  0  0  0
  7 26  1  0  0  0
  7 29  1  0  0  0
  8  9  1  0  0  0
  8 22  1  0  0  0
  9 10  1  0  0  0
  9 27  2  0  0  0
 10 11  2  0  0  0
 10 15  1  0  0  0
 11 12  1  0  0  0
 11 96  1  0  0  0
 12 13  2  0  0  0
 12 97  1  0  0  0
 13 14  1  0  0  0
 13 31  1  0  0  0
 14 15  2  0  0  0
 14 98  1  0  0  0
 15 99  1  0  0  0
 16 17  2  0  0  0
 16 21  1  0  0  0
 16 31  1  0  0  0
 17 18  1  0  0  0
 17100  1  0  0  0
 18 19  2  0  0  0
 18101  1  0  0  0
 19 20  1  0  0  0
 19 24  1  0  0  0
 20 21  2  0  0  0
 20102  1  0  0  0
 21 23  1  0  0  0
 22 28  1  0  0  0
 22 32  2  0  0  0
 26 27  1  0  0  0
 28103  1  0  0  0
 28104  1  0  0  0
 29105  1  0  0  0
 29106  1  0  0  0
 33 34  1  0  0  0
 33 66  1  0  0  0
 33 70  2  0  0  0
 34 36  1  0  0  0
 34 59  1  0  0  0
 34107  1  0  0  0
 35 44  2  0  0  0
 35 45  1  0  0  0
 35 68  1  0  0  0
 36 56  1  0  0  0
 36108  1  0  0  0
 37 39  1  0  0  0
 37 47  1  0  0  0
 37 66  1  0  0  0
 37109  1  0  0  0
 38 43  2  0  0  0
 38 46  1  0  0  0
 38 47  1  0  0  0
 39 64  1  0  0  0
 39 67  2  0  0  0
 40 52  1  0  0  0
 40 53  2  0  0  0
 40 58  1  0  0  0
 41110  1  0  0  0
 41111  1  0  0  0
 41112  1  0  0  0
 41 48  1  0  0  0
 42 43  1  0  0  0
 42 66  1  0  0  0
 42113  1  0  0  0
 42114  1  0  0  0
 43 44  1  0  0  0
 44115  1  0  0  0
 45 46  2  0  0  0
 45116  1  0  0  0
 46117  1  0  0  0
 47118  1  0  0  0
 47119  1  0  0  0
 48 56  1  0  0  0
 48 65  1  0  0  0
 48120  1  0  0  0
 49 50  1  0  0  0
 49 53  1  0  0  0
 49 64  1  0  0  0
 49121  1  0  0  0
 50 51  1  0  0  0
 50122  1  0  0  0
 50123  1  0  0  0
 51 52  1  0  0  0
 51124  1  0  0  0
 51125  1  0  0  0
 52126  1  0  0  0
 52127  1  0  0  0
 53 54  1  0  0  0
 54 55  2  0  0  0
 54128  1  0  0  0
 55 57  1  0  0  0
 55129  1  0  0  0
 56 69  2  0  0  0
 57 58  2  0  0  0
 57130  1  0  0  0
 58131  1  0  0  0
 59 60  1  0  0  0
 59 61  1  0  0  0
 59 62  1  0  0  0
 60132  1  0  0  0
 60133  1  0  0  0
 60134  1  0  0  0
 61135  1  0  0  0
 61136  1  0  0  0
 61137  1  0  0  0
 62138  1  0  0  0
 62139  1  0  0  0
 62140  1  0  0  0
 63 65  1  0  0  0
 63141  1  0  0  0
 63142  1  0  0  0
 63143  1  0  0  0
 64144  1  0  0  0
 65145  1  0  0  0
 68 82  1  0  0  0
 71 72  2  0  0  0
 71 74  1  0  0  0
 71146  1  0  0  0
 72 75  1  0  0  0
 72147  1  0  0  0
 73 75  2  0  0  0
 73 76  1  0  0  0
 73148  1  0  0  0
 74 76  2  0  0  0
 74 83  1  0  0  0
 75 85  1  0  0  0
 76 84  1  0  0  0
 77 78  2  0  0  0
 77 83  1  0  0  0
 77149  1  0  0  0
 78 79  1  0  0  0
 78 82  1  0  0  0
 79 80  1  0  0  0
 79 86  2  0  0  0
 80 81  1  0  0  0
 80150  1  0  0  0
 80151  1  0  0  0
 81 83  1  0  0  0
 81152  1  0  0  0
 81153  1  0  0  0
 82154  1  0  0  0
 82155  1  0  0  0
 84156  1  0  0  0
 84157  1  0  0  0
 85158  1  0  0  0
M  ISO  4   1 100  68 101  82 101  85 100
M  END
> <chiral flag>
0

> <version>
0

> <s_m_source_file>
/data/baiqing/PycharmProjects/Reinvent-master-3.2/result/LINK_invent/BTK/process_docking_weight1_custom_product_contain_oxygen_bond_distance_aromatic_linkinvent_7_9_3/rearranged_h_0095.sdf

> <i_m_source_file_index>
56

> <r_mmod_Potential_Energy-OPLS-2005>
78.6435623168945

> <r_mmod_Stretch_Energy-OPLS-2005>
88.2772598266602

> <r_mmod_Bend_Energy-OPLS-2005>
141.591781616211

> <r_mmod_Torsional_Energy-OPLS-2005>
226.179885864258

> <r_mmod_Improper_Torsional_Energy-OPLS-2005>
8.56820487976074

> <r_mmod_Van_der_Waal_Energy-OPLS-2005>
159.996841430664

> <r_mmod_Electrostatic_Energy-OPLS-2005>
-360.464660644531

> <r_mmod_Solvation_Energy-OPLS-2005>
-235.095932006836

> <b_mmod_Minimization_Converged-OPLS-2005>
0

> <r_mmod_RMS_Derivative-OPLS-2005>
1.26181304454803

$$$$
56
                    3D
 Structure written by MMmdl.
153161  0  0  1  0            999 V2000
  -30.5617  -14.8761   20.5055 C   0  0  0  0  0  0
  -30.4477  -12.5507   19.5021 C   0  0  0  0  0  0
  -29.5260  -12.5536   18.2579 C   0  0  0  0  0  0
  -28.0533  -12.3427   18.6592 C   0  0  0  0  0  0
  -27.6439  -13.2356   19.8578 C   0  0  2  0  0  0
  -28.6812  -13.1613   20.9964 C   0  0  0  0  0  0
  -25.2512  -13.8191   20.5692 C   0  0  0  0  0  0
  -24.1801  -13.0432   20.9187 C   0  0  0  0  0  0
  -24.6397  -11.6912   20.8725 C   0  0  0  0  0  0
  -23.9072  -10.4291   21.0397 C   0  0  0  0  0  0
  -24.3621   -9.4210   21.9179 C   0  0  0  0  0  0
  -23.6294   -8.2245   22.0754 C   0  0  0  0  0  0
  -22.4276   -8.0281   21.3543 C   0  0  0  0  0  0
  -21.9911   -9.0254   20.4645 C   0  0  0  0  0  0
  -22.7241  -10.2133   20.3050 C   0  0  0  0  0  0
  -21.6853   -6.0735   22.5277 C   0  0  0  0  0  0
  -21.4015   -6.5640   23.8211 C   0  0  0  0  0  0
  -21.3660   -5.6793   24.9174 C   0  0  0  0  0  0
  -21.6044   -4.3055   24.7225 C   0  0  0  0  0  0
  -21.8819   -3.8147   23.4346 C   0  0  0  0  0  0
  -21.9193   -4.6963   22.3401 C   0  0  0  0  0  0
  -22.7824  -13.5216   21.1861 C   0  0  0  0  0  0
  -22.1662   -4.2148   21.0979 F   0  0  0  0  0  0
  -21.5629   -3.4539   25.7738 F   0  0  0  0  0  0
  -29.9775  -13.6049   20.4494 N   0  0  0  0  0  0
  -26.2942  -12.9401   20.3278 N   0  0  0  0  0  0
  -25.9330  -11.6538   20.5720 N   0  0  0  0  0  0
  -22.0479  -12.8205   22.0424 N   0  0  0  0  0  0
  -25.4202  -15.1917   20.4138 N   0  0  0  0  0  0
  -31.6772  -15.0205   19.9896 O   0  0  0  0  0  0
  -21.6641   -6.8879   21.4240 O   0  0  0  0  0  0
  -22.3505  -14.5523   20.6714 O   0  0  0  0  0  0
  -24.6402  -31.8464   23.1914 C   0  0  0  0  0  0
  -25.9191  -32.4706   23.8289 C   0  0  1  0  0  0
  -27.2198  -27.1634   20.1408 C   0  0  0  0  0  0
  -25.5949  -33.8510   24.2204 N   0  0  0  0  0  0
  -23.4428  -30.4668   21.5356 C   0  0  2  0  0  0
  -24.8931  -28.9012   20.1064 C   0  0  0  0  0  0
  -22.7554  -29.4553   22.4864 C   0  0  0  0  0  0
  -18.0302  -28.1391   22.8477 C   0  0  0  0  0  0
  -24.1490  -36.7260   23.2642 C   0  0  0  0  0  0
  -25.9965  -30.7264   21.3896 C   0  0  0  0  0  0
  -26.0670  -29.3406   20.7303 C   0  0  0  0  0  0
  -27.2278  -28.4845   20.7380 C   0  0  0  0  0  0
  -26.0263  -26.8315   19.4580 C   0  0  0  0  0  0
  -24.8845  -27.6593   19.4558 C   0  0  0  0  0  0
  -23.6679  -29.7989   20.1533 C   0  0  0  0  0  0
  -25.4123  -36.3037   24.0314 C   0  0  1  0  0  0
  -20.5912  -28.3714   23.1239 C   0  0  2  0  0  0
  -20.6784  -26.9421   22.5403 C   0  0  0  0  0  0
  -19.5759  -26.6381   21.5207 C   0  0  0  0  0  0
  -18.1941  -26.7932   22.1620 C   0  0  0  0  0  0
  -19.1559  -28.8870   23.2850 C   0  0  0  0  0  0
  -18.9478  -30.1467   23.8874 C   0  0  0  0  0  0
  -17.6475  -30.6590   24.0557 C   0  0  0  0  0  0
  -25.9070  -34.9412   23.5066 C   0  0  0  0  0  0
  -16.5365  -29.9083   23.6335 C   0  0  0  0  0  0
  -16.7288  -28.6501   23.0356 C   0  0  0  0  0  0
  -26.4527  -31.6569   25.0722 C   0  0  0  0  0  0
  -25.3719  -31.3746   26.1419 C   0  0  0  0  0  0
  -27.0400  -30.2969   24.6294 C   0  0  0  0  0  0
  -27.6054  -32.4339   25.7507 C   0  0  0  0  0  0
  -27.5576  -37.1787   24.8466 C   0  0  0  0  0  0
  -21.4248  -29.3045   22.3614 N   0  0  0  0  0  0
  -26.4288  -37.3748   23.9407 N   0  0  0  0  0  0
  -24.7125  -31.0339   22.0940 N   0  0  0  0  0  0
  -23.4209  -28.8098   23.3004 O   0  0  0  0  0  0
  -28.2817  -26.1976   20.2415 O   0  0  0  0  0  0
  -26.5655  -34.8906   22.4645 O   0  0  0  0  0  0
  -23.5528  -32.1331   23.7149 O   0  0  0  0  0  0
  -30.2200  -18.3436   19.7390 C   0  0  0  0  0  0
  -28.7586  -20.0713   21.3618 C   0  0  0  0  0  0
  -29.6651  -17.6856   20.8857 C   0  0  0  0  0  0
  -30.0400  -19.7517   19.4176 C   0  0  0  0  0  0
  -28.8954  -18.6580   21.6668 C   0  0  0  0  0  0
  -29.3074  -20.7025   20.2131 C   0  0  0  0  0  0
  -29.8696  -16.1239   21.3193 C   0  0  0  0  0  0
  -28.1090  -24.7009   19.8774 C   0  0  0  0  0  0
  -28.8230  -23.3515   20.5671 C   0  0  0  0  0  0
  -29.5204  -15.8265   22.5000 N   0  0  0  0  0  0
  -30.6197  -20.2366   18.2479 N   0  0  0  0  0  0
  -28.1707  -18.2787   22.8037 N   0  0  0  0  0  0
  -29.1097  -22.0798   19.7692 O   0  0  0  0  0  0
  -31.4833  -12.7054   19.1961 H   0  0  0  0  0  0
  -30.4355  -11.5723   19.9850 H   0  0  0  0  0  0
  -29.8377  -11.7814   17.5535 H   0  0  0  0  0  0
  -29.6278  -13.5049   17.7333 H   0  0  0  0  0  0
  -27.9279  -11.2919   18.9232 H   0  0  0  0  0  0
  -27.3968  -12.5234   17.8071 H   0  0  0  0  0  0
  -27.6393  -14.2609   19.4875 H   0  0  0  0  0  0
  -28.7548  -12.1429   21.3808 H   0  0  0  0  0  0
  -28.3451  -13.7556   21.8415 H   0  0  0  0  0  0
  -25.2767   -9.5688   22.4754 H   0  0  0  0  0  0
  -24.0003   -7.4640   22.7477 H   0  0  0  0  0  0
  -21.0840   -8.8773   19.8954 H   0  0  0  0  0  0
  -22.3698  -10.9670   19.6158 H   0  0  0  0  0  0
  -21.2009   -7.6148   23.9713 H   0  0  0  0  0  0
  -21.1483   -6.0524   25.9077 H   0  0  0  0  0  0
  -22.0598   -2.7609   23.2847 H   0  0  0  0  0  0
  -22.4100  -11.9864   22.4802 H   0  0  0  0  0  0
  -21.1100  -13.1229   22.2644 H   0  0  0  0  0  0
  -24.6565  -15.8481   20.5337 H   0  0  0  0  0  0
  -26.2797  -15.6347   20.1149 H   0  0  0  0  0  0
  -26.7250  -32.5326   23.1014 H   0  0  0  0  0  0
  -25.0082  -33.9626   25.0341 H   0  0  0  0  0  0
  -22.7440  -31.2921   21.3841 H   0  0  0  0  0  0
  -23.3755  -35.9590   23.3295 H   0  0  0  0  0  0
  -24.3572  -36.8903   22.2058 H   0  0  0  0  0  0
  -23.7245  -37.6451   23.6688 H   0  0  0  0  0  0
  -26.1503  -31.4828   20.6186 H   0  0  0  0  0  0
  -26.8671  -30.7752   22.0320 H   0  0  0  0  0  0
  -28.1185  -28.8116   21.2563 H   0  0  0  0  0  0
  -25.9341  -25.8987   18.9244 H   0  0  0  0  0  0
  -23.9922  -27.3240   18.9449 H   0  0  0  0  0  0
  -23.8005  -30.5749   19.3985 H   0  0  0  0  0  0
  -22.7840  -29.2384   19.8438 H   0  0  0  0  0  0
  -25.1308  -36.1866   25.0805 H   0  0  0  0  0  0
  -21.0003  -28.3307   24.1361 H   0  0  0  0  0  0
  -20.5675  -26.2328   23.3620 H   0  0  0  0  0  0
  -21.6651  -26.7429   22.1203 H   0  0  0  0  0  0
  -19.6919  -25.6285   21.1254 H   0  0  0  0  0  0
  -19.6695  -27.3174   20.6723 H   0  0  0  0  0  0
  -17.4208  -26.6674   21.4025 H   0  0  0  0  0  0
  -18.0341  -26.0076   22.9019 H   0  0  0  0  0  0
  -19.7955  -30.7287   24.2235 H   0  0  0  0  0  0
  -17.5030  -31.6268   24.5163 H   0  0  0  0  0  0
  -15.5363  -30.2977   23.7674 H   0  0  0  0  0  0
  -15.8689  -28.0814   22.7083 H   0  0  0  0  0  0
  -24.5908  -30.7083   25.7740 H   0  0  0  0  0  0
  -24.8895  -32.2921   26.4797 H   0  0  0  0  0  0
  -25.8007  -30.8954   27.0229 H   0  0  0  0  0  0
  -26.3018  -29.6683   24.1300 H   0  0  0  0  0  0
  -27.4017  -29.7276   25.4867 H   0  0  0  0  0  0
  -27.8922  -30.4210   23.9609 H   0  0  0  0  0  0
  -27.2643  -33.3660   26.2023 H   0  0  0  0  0  0
  -28.3896  -32.6865   25.0357 H   0  0  0  0  0  0
  -28.0686  -31.8505   26.5473 H   0  0  0  0  0  0
  -28.2586  -38.0093   24.7513 H   0  0  0  0  0  0
  -28.1080  -36.2619   24.6294 H   0  0  0  0  0  0
  -27.2289  -37.1435   25.8869 H   0  0  0  0  0  0
  -20.9453  -29.8769   21.6805 H   0  0  0  0  0  0
  -26.0155  -38.2815   24.1415 H   0  0  0  0  0  0
  -30.8154  -17.7365   19.0725 H   0  0  0  0  0  0
  -28.1588  -20.6894   22.0140 H   0  0  0  0  0  0
  -27.0496  -24.4594   19.9234 H   0  0  0  0  0  0
  -28.3580  -24.6605   18.8169 H   0  0  0  0  0  0
  -28.2481  -23.0773   21.4516 H   0  0  0  0  0  0
  -29.7928  -23.6675   20.9508 H   0  0  0  0  0  0
  -29.1660  -16.6714   22.9481 H   0  0  0  0  0  0
  -30.7966  -19.5861   17.4893 H   0  0  0  0  0  0
  -30.2830  -21.1392   17.9245 H   0  0  0  0  0  0
  -27.5672  -18.9876   23.2086 H   0  0  0  0  0  0
  -27.6720  -17.3951   22.7436 H   0  0  0  0  0  0
  1 25  1  0  0  0
  1 30  2  0  0  0
  1 77  1  0  0  0
  2  3  1  0  0  0
  2 25  1  0  0  0
  2 84  1  0  0  0
  2 85  1  0  0  0
  3  4  1  0  0  0
  3 86  1  0  0  0
  3 87  1  0  0  0
  4  5  1  0  0  0
  4 88  1  0  0  0
  4 89  1  0  0  0
  5  6  1  0  0  0
  5 26  1  0  0  0
  5 90  1  0  0  0
  6 25  1  0  0  0
  6 91  1  0  0  0
  6 92  1  0  0  0
  7  8  2  0  0  0
  7 26  1  0  0  0
  7 29  1  0  0  0
  8  9  1  0  0  0
  8 22  1  0  0  0
  9 10  1  0  0  0
  9 27  2  0  0  0
 10 11  2  0  0  0
 10 15  1  0  0  0
 11 12  1  0  0  0
 11 93  1  0  0  0
 12 13  2  0  0  0
 12 94  1  0  0  0
 13 14  1  0  0  0
 13 31  1  0  0  0
 14 15  2  0  0  0
 14 95  1  0  0  0
 15 96  1  0  0  0
 16 17  2  0  0  0
 16 21  1  0  0  0
 16 31  1  0  0  0
 17 18  1  0  0  0
 17 97  1  0  0  0
 18 19  2  0  0  0
 18 98  1  0  0  0
 19 20  1  0  0  0
 19 24  1  0  0  0
 20 21  2  0  0  0
 20 99  1  0  0  0
 21 23  1  0  0  0
 22 28  1  0  0  0
 22 32  2  0  0  0
 26 27  1  0  0  0
 28100  1  0  0  0
 28101  1  0  0  0
 29102  1  0  0  0
 29103  1  0  0  0
 33 34  1  0  0  0
 33 66  1  0  0  0
 33 70  2  0  0  0
 34 36  1  0  0  0
 34 59  1  0  0  0
 34104  1  0  0  0
 35 44  2  0  0  0
 35 45  1  0  0  0
 35 68  1  0  0  0
 36 56  1  0  0  0
 36105  1  0  0  0
 37 39  1  0  0  0
 37 47  1  0  0  0
 37 66  1  0  0  0
 37106  1  0  0  0
 38 43  2  0  0  0
 38 46  1  0  0  0
 38 47  1  0  0  0
 39 64  1  0  0  0
 39 67  2  0  0  0
 40 52  1  0  0  0
 40 53  2  0  0  0
 40 58  1  0  0  0
 41107  1  0  0  0
 41108  1  0  0  0
 41109  1  0  0  0
 41 48  1  0  0  0
 42 43  1  0  0  0
 42 66  1  0  0  0
 42110  1  0  0  0
 42111  1  0  0  0
 43 44  1  0  0  0
 44112  1  0  0  0
 45 46  2  0  0  0
 45113  1  0  0  0
 46114  1  0  0  0
 47115  1  0  0  0
 47116  1  0  0  0
 48 56  1  0  0  0
 48 65  1  0  0  0
 48117  1  0  0  0
 49 50  1  0  0  0
 49 53  1  0  0  0
 49 64  1  0  0  0
 49118  1  0  0  0
 50 51  1  0  0  0
 50119  1  0  0  0
 50120  1  0  0  0
 51 52  1  0  0  0
 51121  1  0  0  0
 51122  1  0  0  0
 52123  1  0  0  0
 52124  1  0  0  0
 53 54  1  0  0  0
 54 55  2  0  0  0
 54125  1  0  0  0
 55 57  1  0  0  0
 55126  1  0  0  0
 56 69  2  0  0  0
 57 58  2  0  0  0
 57127  1  0  0  0
 58128  1  0  0  0
 59 60  1  0  0  0
 59 61  1  0  0  0
 59 62  1  0  0  0
 60129  1  0  0  0
 60130  1  0  0  0
 60131  1  0  0  0
 61132  1  0  0  0
 61133  1  0  0  0
 61134  1  0  0  0
 62135  1  0  0  0
 62136  1  0  0  0
 62137  1  0  0  0
 63 65  1  0  0  0
 63138  1  0  0  0
 63139  1  0  0  0
 63140  1  0  0  0
 64141  1  0  0  0
 65142  1  0  0  0
 68 78  1  0  0  0
 71 73  2  0  0  0
 71 74  1  0  0  0
 71143  1  0  0  0
 72 75  2  0  0  0
 72 76  1  0  0  0
 72144  1  0  0  0
 73 75  1  0  0  0
 73 77  1  0  0  0
 74 76  2  0  0  0
 74 81  1  0  0  0
 75 82  1  0  0  0
 76 83  1  0  0  0
 77 80  2  0  0  0
 78 79  1  0  0  0
 78145  1  0  0  0
 78146  1  0  0  0
 79 83  1  0  0  0
 79147  1  0  0  0
 79148  1  0  0  0
 80149  1  0  0  0
 81150  1  0  0  0
 81151  1  0  0  0
 82152  1  0  0  0
 82153  1  0  0  0
M  ISO  4   1 100  68 101  77 100  78 101
M  END
> <chiral flag>
0

> <version>
0

> <s_m_source_file>
/data/baiqing/PycharmProjects/Reinvent-master-3.2/result/LINK_invent/BTK/process_docking_weight1_custom_product_contain_oxygen_bond_distance_aromatic_linkinvent_7_9_3/rearranged_h_0095.sdf

> <i_m_source_file_index>
57

> <r_mmod_Potential_Energy-OPLS-2005>
589.382446289062

> <r_mmod_Stretch_Energy-OPLS-2005>
237.549255371094

> <r_mmod_Bend_Energy-OPLS-2005>
287.745086669922

> <r_mmod_Torsional_Energy-OPLS-2005>
211.804779052734

> <r_mmod_Improper_Torsional_Energy-OPLS-2005>
11.7528142929077

> <r_mmod_Van_der_Waal_Energy-OPLS-2005>
153.784408569336

> <r_mmod_Electrostatic_Energy-OPLS-2005>
-244.955947875977

> <r_mmod_Solvation_Energy-OPLS-2005>
-222.031646728516

> <b_mmod_Minimization_Converged-OPLS-2005>
0

> <r_mmod_RMS_Derivative-OPLS-2005>
0.412779122591019

$$$$
57
                    3D
 Structure written by MMmdl.
156164  0  0  1  0            999 V2000
  -30.6440  -14.6949   20.4516 C   0  0  0  0  0  0
  -30.4304  -12.4278   19.4527 C   0  0  0  0  0  0
  -29.5072  -12.5060   18.2175 C   0  0  0  0  0  0
  -28.0290  -12.3437   18.6302 C   0  0  0  0  0  0
  -27.6438  -13.2250   19.8498 C   0  0  2  0  0  0
  -28.6925  -13.0932   20.9694 C   0  0  0  0  0  0
  -25.2526  -13.8173   20.5699 C   0  0  0  0  0  0
  -24.1824  -13.0429   20.9240 C   0  0  0  0  0  0
  -24.6402  -11.6905   20.8775 C   0  0  0  0  0  0
  -23.9067  -10.4289   21.0415 C   0  0  0  0  0  0
  -24.3610   -9.4188   21.9186 C   0  0  0  0  0  0
  -23.6281   -8.2232   22.0745 C   0  0  0  0  0  0
  -22.4264   -8.0280   21.3543 C   0  0  0  0  0  0
  -21.9901   -9.0265   20.4654 C   0  0  0  0  0  0
  -22.7240  -10.2139   20.3062 C   0  0  0  0  0  0
  -21.6851   -6.0713   22.5281 C   0  0  0  0  0  0
  -21.4011   -6.5612   23.8218 C   0  0  0  0  0  0
  -21.3662   -5.6765   24.9180 C   0  0  0  0  0  0
  -21.6054   -4.3031   24.7225 C   0  0  0  0  0  0
  -21.8820   -3.8124   23.4344 C   0  0  0  0  0  0
  -21.9189   -4.6941   22.3397 C   0  0  0  0  0  0
  -22.7842  -13.5234   21.1885 C   0  0  0  0  0  0
  -22.1674   -4.2128   21.0974 F   0  0  0  0  0  0
  -21.5625   -3.4519   25.7732 F   0  0  0  0  0  0
  -29.9867  -13.4813   20.3928 N   0  0  0  0  0  0
  -26.2950  -12.9376   20.3292 N   0  0  0  0  0  0
  -25.9324  -11.6526   20.5761 N   0  0  0  0  0  0
  -22.0450  -12.8260   22.0435 N   0  0  0  0  0  0
  -25.4209  -15.1893   20.4053 N   0  0  0  0  0  0
  -31.8486  -14.7139   20.1739 O   0  0  0  0  0  0
  -21.6649   -6.8863   21.4243 O   0  0  0  0  0  0
  -22.3536  -14.5533   20.6698 O   0  0  0  0  0  0
  -24.6264  -31.8609   23.2014 C   0  0  0  0  0  0
  -25.9111  -32.4774   23.8333 C   0  0  1  0  0  0
  -27.2197  -27.3212   20.0761 C   0  0  0  0  0  0
  -25.5964  -33.8578   24.2263 N   0  0  0  0  0  0
  -23.4173  -30.4865   21.5493 C   0  0  2  0  0  0
  -24.8560  -28.9436   20.1080 C   0  0  0  0  0  0
  -22.7477  -29.4615   22.4948 C   0  0  0  0  0  0
  -18.0287  -28.1390   22.8492 C   0  0  0  0  0  0
  -24.1498  -36.7281   23.2635 C   0  0  0  0  0  0
  -25.9602  -30.7904   21.3693 C   0  0  0  0  0  0
  -26.0300  -29.4199   20.7037 C   0  0  0  0  0  0
  -27.2114  -28.6206   20.6783 C   0  0  0  0  0  0
  -26.0067  -26.8878   19.4887 C   0  0  0  0  0  0
  -24.8461  -27.6831   19.4980 C   0  0  0  0  0  0
  -23.6259  -29.8250   20.1630 C   0  0  0  0  0  0
  -25.4137  -36.3085   24.0309 C   0  0  1  0  0  0
  -20.5885  -28.3686   23.1303 C   0  0  2  0  0  0
  -20.6775  -26.9403   22.5425 C   0  0  0  0  0  0
  -19.5749  -26.6382   21.5232 C   0  0  0  0  0  0
  -18.1924  -26.7927   22.1637 C   0  0  0  0  0  0
  -19.1542  -28.8857   23.2884 C   0  0  0  0  0  0
  -18.9457  -30.1471   23.8877 C   0  0  0  0  0  0
  -17.6452  -30.6579   24.0574 C   0  0  0  0  0  0
  -25.9081  -34.9452   23.5073 C   0  0  0  0  0  0
  -16.5342  -29.9075   23.6347 C   0  0  0  0  0  0
  -16.7273  -28.6513   23.0332 C   0  0  0  0  0  0
  -26.4506  -31.6582   25.0696 C   0  0  0  0  0  0
  -25.3759  -31.3701   26.1431 C   0  0  0  0  0  0
  -27.0322  -30.3010   24.6133 C   0  0  0  0  0  0
  -27.6073  -32.4312   25.7469 C   0  0  0  0  0  0
  -27.5573  -37.1807   24.8473 C   0  0  0  0  0  0
  -21.4185  -29.3032   22.3705 N   0  0  0  0  0  0
  -26.4304  -37.3786   23.9387 N   0  0  0  0  0  0
  -24.6878  -31.0617   22.0981 N   0  0  0  0  0  0
  -23.4202  -28.8147   23.3008 O   0  0  0  0  0  0
  -28.3653  -26.5058   20.1107 O   0  0  0  0  0  0
  -26.5619  -34.8916   22.4619 O   0  0  0  0  0  0
  -23.5423  -32.1406   23.7367 O   0  0  0  0  0  0
  -29.8696  -19.2878   20.7556 C   0  0  0  0  0  0
  -29.5189  -20.6813   20.6953 C   0  0  0  0  0  0
  -29.5602  -18.3681   19.7039 C   0  0  0  0  0  0
  -28.8699  -21.2402   19.5632 C   0  0  0  0  0  0
  -28.5562  -20.3254   18.5221 C   0  0  0  0  0  0
  -28.8795  -18.9383   18.5912 C   0  0  0  0  0  0
  -30.1326  -16.9263   19.5886 C   0  0  0  0  0  0
  -29.0571  -16.1440   21.6642 C   0  0  0  0  0  0
  -28.6729  -23.8370   20.1915 C   0  0  0  0  0  0
  -28.4590  -25.2090   19.3967 C   0  0  0  0  0  0
  -27.9586  -20.8248   17.3597 N   0  0  0  0  0  0
  -28.5096  -22.6150   19.3464 N   0  0  0  0  0  0
  -29.9141  -15.8876   20.4957 N   0  0  0  0  0  0
  -30.7946  -16.7393   18.5587 O   0  0  0  0  0  0
  -28.5629  -18.1644   17.5211 F   0  0  0  0  0  0
  -31.4708  -12.5445   19.1448 H   0  0  0  0  0  0
  -30.3746  -11.4434   19.9180 H   0  0  0  0  0  0
  -29.7799  -11.7365   17.4930 H   0  0  0  0  0  0
  -29.6445  -13.4623   17.7098 H   0  0  0  0  0  0
  -27.8786  -11.2939   18.8821 H   0  0  0  0  0  0
  -27.3733  -12.5528   17.7834 H   0  0  0  0  0  0
  -27.6553  -14.2588   19.5017 H   0  0  0  0  0  0
  -28.7330  -12.0623   21.3262 H   0  0  0  0  0  0
  -28.4213  -13.6765   21.8437 H   0  0  0  0  0  0
  -25.2754   -9.5665   22.4751 H   0  0  0  0  0  0
  -23.9995   -7.4612   22.7438 H   0  0  0  0  0  0
  -21.0836   -8.8800   19.8952 H   0  0  0  0  0  0
  -22.3724  -10.9676   19.6158 H   0  0  0  0  0  0
  -21.2021   -7.6122   23.9725 H   0  0  0  0  0  0
  -21.1490   -6.0490   25.9089 H   0  0  0  0  0  0
  -22.0600   -2.7581   23.2858 H   0  0  0  0  0  0
  -22.4040  -11.9950   22.4892 H   0  0  0  0  0  0
  -21.1054  -13.1284   22.2604 H   0  0  0  0  0  0
  -24.6489  -15.8389   20.5080 H   0  0  0  0  0  0
  -26.2635  -15.6287   20.0584 H   0  0  0  0  0  0
  -26.7162  -32.5441   23.1065 H   0  0  0  0  0  0
  -25.0173  -33.9762   25.0444 H   0  0  0  0  0  0
  -22.7096  -31.3067   21.4107 H   0  0  0  0  0  0
  -23.3760  -35.9613   23.3341 H   0  0  0  0  0  0
  -24.3585  -36.8883   22.2046 H   0  0  0  0  0  0
  -23.7265  -37.6501   23.6632 H   0  0  0  0  0  0
  -26.0927  -31.5599   20.6072 H   0  0  0  0  0  0
  -26.8420  -30.8357   21.9955 H   0  0  0  0  0  0
  -28.1162  -28.9921   21.1382 H   0  0  0  0  0  0
  -25.8921  -25.9183   19.0353 H   0  0  0  0  0  0
  -23.9400  -27.3050   19.0462 H   0  0  0  0  0  0
  -23.7459  -30.6063   19.4120 H   0  0  0  0  0  0
  -22.7430  -29.2564   19.8609 H   0  0  0  0  0  0
  -25.1324  -36.1937   25.0805 H   0  0  0  0  0  0
  -20.9987  -28.3231   24.1423 H   0  0  0  0  0  0
  -20.5731  -26.2253   23.3607 H   0  0  0  0  0  0
  -21.6628  -26.7449   22.1179 H   0  0  0  0  0  0
  -19.6903  -25.6306   21.1237 H   0  0  0  0  0  0
  -19.6694  -27.3210   20.6780 H   0  0  0  0  0  0
  -17.4202  -26.6700   21.4031 H   0  0  0  0  0  0
  -18.0311  -26.0080   22.9049 H   0  0  0  0  0  0
  -19.7931  -30.7322   24.2189 H   0  0  0  0  0  0
  -17.4997  -31.6258   24.5179 H   0  0  0  0  0  0
  -15.5341  -30.2951   23.7702 H   0  0  0  0  0  0
  -15.8683  -28.0852   22.6985 H   0  0  0  0  0  0
  -24.5938  -30.7055   25.7749 H   0  0  0  0  0  0
  -24.8937  -32.2860   26.4856 H   0  0  0  0  0  0
  -25.8110  -30.8877   27.0190 H   0  0  0  0  0  0
  -26.2857  -29.6790   24.1183 H   0  0  0  0  0  0
  -27.4072  -29.7250   25.4604 H   0  0  0  0  0  0
  -27.8713  -30.4304   23.9285 H   0  0  0  0  0  0
  -27.2680  -33.3613   26.2021 H   0  0  0  0  0  0
  -28.3875  -32.6876   25.0291 H   0  0  0  0  0  0
  -28.0726  -31.8450   26.5405 H   0  0  0  0  0  0
  -28.2618  -38.0071   24.7466 H   0  0  0  0  0  0
  -28.1038  -36.2602   24.6366 H   0  0  0  0  0  0
  -27.2265  -37.1528   25.8871 H   0  0  0  0  0  0
  -20.9340  -29.8748   21.6924 H   0  0  0  0  0  0
  -26.0185  -38.2860   24.1402 H   0  0  0  0  0  0
  -30.4305  -18.9406   21.6099 H   0  0  0  0  0  0
  -29.7880  -21.3254   21.5194 H   0  0  0  0  0  0
  -29.1310  -17.1548   22.0560 H   0  0  0  0  0  0
  -29.3237  -15.5087   22.5093 H   0  0  0  0  0  0
  -28.0116  -15.9626   21.4165 H   0  0  0  0  0  0
  -27.9624  -23.7783   21.0183 H   0  0  0  0  0  0
  -29.6718  -23.8268   20.6267 H   0  0  0  0  0  0
  -27.6630  -25.0665   18.6755 H   0  0  0  0  0  0
  -29.3292  -25.3232   18.7487 H   0  0  0  0  0  0
  -28.0202  -20.1835   16.5766 H   0  0  0  0  0  0
  -28.2961  -21.7412   17.0944 H   0  0  0  0  0  0
  -27.8765  -22.7181   18.5576 H   0  0  0  0  0  0
  1 25  1  0  0  0
  1 30  2  0  0  0
  1 83  1  0  0  0
  2  3  1  0  0  0
  2 25  1  0  0  0
  2 86  1  0  0  0
  2 87  1  0  0  0
  3  4  1  0  0  0
  3 88  1  0  0  0
  3 89  1  0  0  0
  4  5  1  0  0  0
  4 90  1  0  0  0
  4 91  1  0  0  0
  5  6  1  0  0  0
  5 26  1  0  0  0
  5 92  1  0  0  0
  6 25  1  0  0  0
  6 93  1  0  0  0
  6 94  1  0  0  0
  7  8  2  0  0  0
  7 26  1  0  0  0
  7 29  1  0  0  0
  8  9  1  0  0  0
  8 22  1  0  0  0
  9 10  1  0  0  0
  9 27  2  0  0  0
 10 11  2  0  0  0
 10 15  1  0  0  0
 11 12  1  0  0  0
 11 95  1  0  0  0
 12 13  2  0  0  0
 12 96  1  0  0  0
 13 14  1  0  0  0
 13 31  1  0  0  0
 14 15  2  0  0  0
 14 97  1  0  0  0
 15 98  1  0  0  0
 16 17  2  0  0  0
 16 21  1  0  0  0
 16 31  1  0  0  0
 17 18  1  0  0  0
 17 99  1  0  0  0
 18 19  2  0  0  0
 18100  1  0  0  0
 19 20  1  0  0  0
 19 24  1  0  0  0
 20 21  2  0  0  0
 20101  1  0  0  0
 21 23  1  0  0  0
 22 28  1  0  0  0
 22 32  2  0  0  0
 26 27  1  0  0  0
 28102  1  0  0  0
 28103  1  0  0  0
 29104  1  0  0  0
 29105  1  0  0  0
 33 34  1  0  0  0
 33 66  1  0  0  0
 33 70  2  0  0  0
 34 36  1  0  0  0
 34 59  1  0  0  0
 34106  1  0  0  0
 35 44  2  0  0  0
 35 45  1  0  0  0
 35 68  1  0  0  0
 36 56  1  0  0  0
 36107  1  0  0  0
 37 39  1  0  0  0
 37 47  1  0  0  0
 37 66  1  0  0  0
 37108  1  0  0  0
 38 43  2  0  0  0
 38 46  1  0  0  0
 38 47  1  0  0  0
 39 64  1  0  0  0
 39 67  2  0  0  0
 40 52  1  0  0  0
 40 53  2  0  0  0
 40 58  1  0  0  0
 41109  1  0  0  0
 41110  1  0  0  0
 41111  1  0  0  0
 41 48  1  0  0  0
 42 43  1  0  0  0
 42 66  1  0  0  0
 42112  1  0  0  0
 42113  1  0  0  0
 43 44  1  0  0  0
 44114  1  0  0  0
 45 46  2  0  0  0
 45115  1  0  0  0
 46116  1  0  0  0
 47117  1  0  0  0
 47118  1  0  0  0
 48 56  1  0  0  0
 48 65  1  0  0  0
 48119  1  0  0  0
 49 50  1  0  0  0
 49 53  1  0  0  0
 49 64  1  0  0  0
 49120  1  0  0  0
 50 51  1  0  0  0
 50121  1  0  0  0
 50122  1  0  0  0
 51 52  1  0  0  0
 51123  1  0  0  0
 51124  1  0  0  0
 52125  1  0  0  0
 52126  1  0  0  0
 53 54  1  0  0  0
 54 55  2  0  0  0
 54127  1  0  0  0
 55 57  1  0  0  0
 55128  1  0  0  0
 56 69  2  0  0  0
 57 58  2  0  0  0
 57129  1  0  0  0
 58130  1  0  0  0
 59 60  1  0  0  0
 59 61  1  0  0  0
 59 62  1  0  0  0
 60131  1  0  0  0
 60132  1  0  0  0
 60133  1  0  0  0
 61134  1  0  0  0
 61135  1  0  0  0
 61136  1  0  0  0
 62137  1  0  0  0
 62138  1  0  0  0
 62139  1  0  0  0
 63 65  1  0  0  0
 63140  1  0  0  0
 63141  1  0  0  0
 63142  1  0  0  0
 64143  1  0  0  0
 65144  1  0  0  0
 68 80  1  0  0  0
 71 72  2  0  0  0
 71 73  1  0  0  0
 71145  1  0  0  0
 72 74  1  0  0  0
 72146  1  0  0  0
 73 76  2  0  0  0
 73 77  1  0  0  0
 74 75  2  0  0  0
 74 82  1  0  0  0
 75 76  1  0  0  0
 75 81  1  0  0  0
 76 85  1  0  0  0
 77 83  1  0  0  0
 77 84  2  0  0  0
 78 83  1  0  0  0
 78147  1  0  0  0
 78148  1  0  0  0
 78149  1  0  0  0
 79 80  1  0  0  0
 79 82  1  0  0  0
 79150  1  0  0  0
 79151  1  0  0  0
 80152  1  0  0  0
 80153  1  0  0  0
 81154  1  0  0  0
 81155  1  0  0  0
 82156  1  0  0  0
M  ISO  4   1 100  68 101  80 101  83 100
M  END
> <chiral flag>
0

> <version>
0

> <s_m_source_file>
/data/baiqing/PycharmProjects/Reinvent-master-3.2/result/LINK_invent/BTK/process_docking_weight1_custom_product_contain_oxygen_bond_distance_aromatic_linkinvent_7_9_3/rearranged_h_0095.sdf

> <i_m_source_file_index>
58

> <r_mmod_Potential_Energy-OPLS-2005>
230.547637939453

> <r_mmod_Stretch_Energy-OPLS-2005>
93.724479675293

> <r_mmod_Bend_Energy-OPLS-2005>
192.63591003418

> <r_mmod_Torsional_Energy-OPLS-2005>
303.200469970703

> <r_mmod_Improper_Torsional_Energy-OPLS-2005>
16.2185726165771

> <r_mmod_Van_der_Waal_Energy-OPLS-2005>
170.357681274414

> <r_mmod_Electrostatic_Energy-OPLS-2005>
-384.157867431641

> <r_mmod_Solvation_Energy-OPLS-2005>
-217.8232421875

> <b_mmod_Minimization_Converged-OPLS-2005>
0

> <r_mmod_RMS_Derivative-OPLS-2005>
3.48340845108032

$$$$
58
                    3D
 Structure written by MMmdl.
164173  0  0  1  0            999 V2000
  -30.6547  -14.5926   20.5698 C   0  0  0  0  0  0
  -30.4339  -12.3737   19.4596 C   0  0  0  0  0  0
  -29.5072  -12.5193   18.2309 C   0  0  0  0  0  0
  -28.0278  -12.3734   18.6288 C   0  0  0  0  0  0
  -27.6607  -13.2166   19.8803 C   0  0  2  0  0  0
  -28.7047  -13.0395   21.0090 C   0  0  0  0  0  0
  -25.2585  -13.8144   20.5772 C   0  0  0  0  0  0
  -24.1840  -13.0442   20.9188 C   0  0  0  0  0  0
  -24.6381  -11.6889   20.8688 C   0  0  0  0  0  0
  -23.9021  -10.4289   21.0334 C   0  0  0  0  0  0
  -24.3570   -9.4207   21.9139 C   0  0  0  0  0  0
  -23.6261   -8.2259   22.0720 C   0  0  0  0  0  0
  -22.4252   -8.0261   21.3526 C   0  0  0  0  0  0
  -21.9861   -9.0218   20.4627 C   0  0  0  0  0  0
  -22.7164  -10.2116   20.2990 C   0  0  0  0  0  0
  -21.6849   -6.0714   22.5273 C   0  0  0  0  0  0
  -21.4025   -6.5632   23.8200 C   0  0  0  0  0  0
  -21.3653   -5.6785   24.9165 C   0  0  0  0  0  0
  -21.6045   -4.3050   24.7221 C   0  0  0  0  0  0
  -21.8821   -3.8136   23.4347 C   0  0  0  0  0  0
  -21.9186   -4.6947   22.3396 C   0  0  0  0  0  0
  -22.7847  -13.5218   21.1835 C   0  0  0  0  0  0
  -22.1656   -4.2108   21.0979 F   0  0  0  0  0  0
  -21.5615   -3.4530   25.7749 F   0  0  0  0  0  0
  -30.0292  -13.3775   20.4660 N   0  0  0  0  0  0
  -26.3033  -12.9344   20.3420 N   0  0  0  0  0  0
  -25.9313  -11.6494   20.5744 N   0  0  0  0  0  0
  -22.0495  -12.8227   22.0406 N   0  0  0  0  0  0
  -25.4407  -15.1885   20.4339 N   0  0  0  0  0  0
  -31.7748  -14.7873   20.0923 O   0  0  0  0  0  0
  -21.6621   -6.8859   21.4227 O   0  0  0  0  0  0
  -22.3517  -14.5516   20.6638 O   0  0  0  0  0  0
  -24.6265  -31.8669   23.2070 C   0  0  0  0  0  0
  -25.9133  -32.4817   23.8385 C   0  0  1  0  0  0
  -27.1956  -27.3202   20.1579 C   0  0  0  0  0  0
  -25.5931  -33.8603   24.2308 N   0  0  0  0  0  0
  -23.4168  -30.4918   21.5503 C   0  0  2  0  0  0
  -24.8576  -28.9468   20.1284 C   0  0  0  0  0  0
  -22.7440  -29.4668   22.4977 C   0  0  0  0  0  0
  -18.0284  -28.1389   22.8476 C   0  0  0  0  0  0
  -24.1496  -36.7267   23.2634 C   0  0  0  0  0  0
  -25.9577  -30.8025   21.3814 C   0  0  0  0  0  0
  -26.0251  -29.4242   20.7383 C   0  0  0  0  0  0
  -27.1998  -28.6150   20.7554 C   0  0  0  0  0  0
  -26.0335  -26.9279   19.4814 C   0  0  0  0  0  0
  -24.8524  -27.6924   19.5009 C   0  0  0  0  0  0
  -23.6335  -29.8334   20.1629 C   0  0  0  0  0  0
  -25.4121  -36.3057   24.0329 C   0  0  1  0  0  0
  -20.5867  -28.3693   23.1292 C   0  0  2  0  0  0
  -20.6776  -26.9432   22.5409 C   0  0  0  0  0  0
  -19.5744  -26.6384   21.5213 C   0  0  0  0  0  0
  -18.1933  -26.7928   22.1624 C   0  0  0  0  0  0
  -19.1529  -28.8857   23.2866 C   0  0  0  0  0  0
  -18.9454  -30.1461   23.8887 C   0  0  0  0  0  0
  -17.6450  -30.6589   24.0563 C   0  0  0  0  0  0
  -25.9062  -34.9459   23.5115 C   0  0  0  0  0  0
  -16.5346  -29.9093   23.6335 C   0  0  0  0  0  0
  -16.7270  -28.6509   23.0365 C   0  0  0  0  0  0
  -26.4515  -31.6575   25.0731 C   0  0  0  0  0  0
  -25.3726  -31.3715   26.1423 C   0  0  0  0  0  0
  -27.0369  -30.2984   24.6232 C   0  0  0  0  0  0
  -27.6067  -32.4306   25.7470 C   0  0  0  0  0  0
  -27.5576  -37.1788   24.8464 C   0  0  0  0  0  0
  -21.4169  -29.3025   22.3656 N   0  0  0  0  0  0
  -26.4291  -37.3759   23.9406 N   0  0  0  0  0  0
  -24.6849  -31.0715   22.1010 N   0  0  0  0  0  0
  -23.4165  -28.8193   23.3047 O   0  0  0  0  0  0
  -28.2705  -26.4297   20.1741 O   0  0  0  0  0  0
  -26.5611  -34.8927   22.4674 O   0  0  0  0  0  0
  -23.5422  -32.1452   23.7404 O   0  0  0  0  0  0
  -29.0506  -18.9197   19.4996 C   0  0  0  0  0  0
  -29.9582  -17.9619   21.9440 C   0  0  0  0  0  0
  -29.4195  -17.5534   19.6188 C   0  0  0  0  0  0
  -29.0645  -19.8285   20.5848 C   0  0  0  0  0  0
  -29.8509  -17.0227   20.8746 C   0  0  0  0  0  0
  -29.5844  -19.3342   21.8119 C   0  0  0  0  0  0
  -26.4624  -23.2606   20.1135 C   0  0  0  0  0  0
  -29.2213  -16.7021   18.4026 C   0  0  0  0  0  0
  -26.0291  -21.9030   20.6374 C   0  0  0  0  0  0
  -26.9580  -20.8162   20.1174 C   0  0  0  0  0  0
  -28.7403  -22.4363   20.9315 C   0  0  0  0  0  0
  -27.9503  -23.6796   20.2648 C   0  0  2  0  0  0
  -28.1247  -25.1443   20.9307 C   0  0  0  0  0  0
  -28.3727  -21.0730   20.4118 N   0  0  0  0  0  0
  -29.6438  -20.1616   22.9338 N   0  0  0  0  0  0
  -27.9607  -16.5958   18.0019 N   0  0  0  0  0  0
  -29.9457  -15.5904   21.1757 N   0  0  0  0  0  0
  -25.6118  -23.9454   19.5524 O   0  0  0  0  0  0
  -30.1496  -16.1553   17.8131 O   0  0  0  0  0  0
  -31.4754  -12.4927   19.1580 H   0  0  0  0  0  0
  -30.3662  -11.3660   19.8754 H   0  0  0  0  0  0
  -29.7629  -11.7722   17.4790 H   0  0  0  0  0  0
  -29.6616  -13.4904   17.7621 H   0  0  0  0  0  0
  -27.8481  -11.3175   18.8275 H   0  0  0  0  0  0
  -27.3761  -12.6333   17.7944 H   0  0  0  0  0  0
  -27.6907  -14.2598   19.5722 H   0  0  0  0  0  0
  -28.7100  -12.0097   21.3682 H   0  0  0  0  0  0
  -28.4482  -13.6452   21.8778 H   0  0  0  0  0  0
  -25.2700   -9.5682   22.4737 H   0  0  0  0  0  0
  -23.9950   -7.4662   22.7486 H   0  0  0  0  0  0
  -21.0763   -8.8696   19.8986 H   0  0  0  0  0  0
  -22.3576  -10.9635   19.6114 H   0  0  0  0  0  0
  -21.2039   -7.6148   23.9665 H   0  0  0  0  0  0
  -21.1475   -6.0546   25.9066 H   0  0  0  0  0  0
  -22.0608   -2.7592   23.2839 H   0  0  0  0  0  0
  -22.4105  -11.9861   22.4764 H   0  0  0  0  0  0
  -21.1095  -13.1220   22.2608 H   0  0  0  0  0  0
  -24.6927  -15.8517   20.5942 H   0  0  0  0  0  0
  -26.3214  -15.6215   20.1946 H   0  0  0  0  0  0
  -26.7208  -32.5508   23.1135 H   0  0  0  0  0  0
  -25.0039  -33.9748   25.0421 H   0  0  0  0  0  0
  -22.7127  -31.3153   21.4078 H   0  0  0  0  0  0
  -23.3757  -35.9595   23.3302 H   0  0  0  0  0  0
  -24.3548  -36.8877   22.2033 H   0  0  0  0  0  0
  -23.7278  -37.6489   23.6659 H   0  0  0  0  0  0
  -26.1022  -31.5736   20.6231 H   0  0  0  0  0  0
  -26.8394  -30.8451   22.0088 H   0  0  0  0  0  0
  -28.0976  -28.9740   21.2375 H   0  0  0  0  0  0
  -26.0704  -26.0285   18.9019 H   0  0  0  0  0  0
  -23.9538  -27.3344   19.0114 H   0  0  0  0  0  0
  -23.7597  -30.6197   19.4147 H   0  0  0  0  0  0
  -22.7622  -29.2583   19.8499 H   0  0  0  0  0  0
  -25.1318  -36.1873   25.0821 H   0  0  0  0  0  0
  -20.9993  -28.3291   24.1394 H   0  0  0  0  0  0
  -20.5681  -26.2326   23.3605 H   0  0  0  0  0  0
  -21.6647  -26.7454   22.1190 H   0  0  0  0  0  0
  -19.6907  -25.6288   21.1251 H   0  0  0  0  0  0
  -19.6687  -27.3180   20.6728 H   0  0  0  0  0  0
  -17.4208  -26.6703   21.4037 H   0  0  0  0  0  0
  -18.0315  -26.0077   22.9011 H   0  0  0  0  0  0
  -19.7937  -30.7283   24.2274 H   0  0  0  0  0  0
  -17.5005  -31.6268   24.5157 H   0  0  0  0  0  0
  -15.5352  -30.2980   23.7657 H   0  0  0  0  0  0
  -15.8678  -28.0810   22.7098 H   0  0  0  0  0  0
  -24.5926  -30.7054   25.7716 H   0  0  0  0  0  0
  -24.8881  -32.2879   26.4803 H   0  0  0  0  0  0
  -25.8023  -30.8894   27.0213 H   0  0  0  0  0  0
  -26.2971  -29.6700   24.1282 H   0  0  0  0  0  0
  -27.4040  -29.7282   25.4774 H   0  0  0  0  0  0
  -27.8848  -30.4199   23.9496 H   0  0  0  0  0  0
  -27.2685  -33.3619   26.2024 H   0  0  0  0  0  0
  -28.3882  -32.6858   25.0294 H   0  0  0  0  0  0
  -28.0759  -31.8452   26.5386 H   0  0  0  0  0  0
  -28.2607  -38.0076   24.7502 H   0  0  0  0  0  0
  -28.1077  -36.2608   24.6315 H   0  0  0  0  0  0
  -27.2283  -37.1452   25.8868 H   0  0  0  0  0  0
  -20.9343  -29.8732   21.6844 H   0  0  0  0  0  0
  -26.0163  -38.2837   24.1386 H   0  0  0  0  0  0
  -28.6644  -19.2560   18.5464 H   0  0  0  0  0  0
  -30.2565  -17.6103   22.9156 H   0  0  0  0  0  0
  -25.0068  -21.7113   20.3065 H   0  0  0  0  0  0
  -25.9981  -21.9147   21.7256 H   0  0  0  0  0  0
  -26.8110  -20.7168   19.0424 H   0  0  0  0  0  0
  -26.6490  -19.8731   20.5652 H   0  0  0  0  0  0
  -28.5797  -22.4536   22.0122 H   0  0  0  0  0  0
  -29.8112  -22.5613   20.7767 H   0  0  0  0  0  0
  -28.3353  -23.7626   19.2497 H   0  0  0  0  0  0
  -27.3186  -25.2797   21.6514 H   0  0  0  0  0  0
  -29.0204  -25.0913   21.5513 H   0  0  0  0  0  0
  -30.3122  -19.9253   23.6568 H   0  0  0  0  0  0
  -29.6098  -21.1560   22.7531 H   0  0  0  0  0  0
  -27.2367  -17.0925   18.4970 H   0  0  0  0  0  0
  -27.7233  -16.0538   17.1835 H   0  0  0  0  0  0
  -29.1980  -15.2368   21.7553 H   0  0  0  0  0  0
  1 25  1  0  0  0
  1 30  2  0  0  0
  1 87  1  0  0  0
  2  3  1  0  0  0
  2 25  1  0  0  0
  2 90  1  0  0  0
  2 91  1  0  0  0
  3  4  1  0  0  0
  3 92  1  0  0  0
  3 93  1  0  0  0
  4  5  1  0  0  0
  4 94  1  0  0  0
  4 95  1  0  0  0
  5  6  1  0  0  0
  5 26  1  0  0  0
  5 96  1  0  0  0
  6 25  1  0  0  0
  6 97  1  0  0  0
  6 98  1  0  0  0
  7  8  2  0  0  0
  7 26  1  0  0  0
  7 29  1  0  0  0
  8  9  1  0  0  0
  8 22  1  0  0  0
  9 10  1  0  0  0
  9 27  2  0  0  0
 10 11  2  0  0  0
 10 15  1  0  0  0
 11 12  1  0  0  0
 11 99  1  0  0  0
 12 13  2  0  0  0
 12100  1  0  0  0
 13 14  1  0  0  0
 13 31  1  0  0  0
 14 15  2  0  0  0
 14101  1  0  0  0
 15102  1  0  0  0
 16 17  2  0  0  0
 16 21  1  0  0  0
 16 31  1  0  0  0
 17 18  1  0  0  0
 17103  1  0  0  0
 18 19  2  0  0  0
 18104  1  0  0  0
 19 20  1  0  0  0
 19 24  1  0  0  0
 20 21  2  0  0  0
 20105  1  0  0  0
 21 23  1  0  0  0
 22 28  1  0  0  0
 22 32  2  0  0  0
 26 27  1  0  0  0
 28106  1  0  0  0
 28107  1  0  0  0
 29108  1  0  0  0
 29109  1  0  0  0
 33 34  1  0  0  0
 33 66  1  0  0  0
 33 70  2  0  0  0
 34 36  1  0  0  0
 34 59  1  0  0  0
 34110  1  0  0  0
 35 44  2  0  0  0
 35 45  1  0  0  0
 35 68  1  0  0  0
 36 56  1  0  0  0
 36111  1  0  0  0
 37 39  1  0  0  0
 37 47  1  0  0  0
 37 66  1  0  0  0
 37112  1  0  0  0
 38 43  2  0  0  0
 38 46  1  0  0  0
 38 47  1  0  0  0
 39 64  1  0  0  0
 39 67  2  0  0  0
 40 52  1  0  0  0
 40 53  2  0  0  0
 40 58  1  0  0  0
 41113  1  0  0  0
 41114  1  0  0  0
 41115  1  0  0  0
 41 48  1  0  0  0
 42 43  1  0  0  0
 42 66  1  0  0  0
 42116  1  0  0  0
 42117  1  0  0  0
 43 44  1  0  0  0
 44118  1  0  0  0
 45 46  2  0  0  0
 45119  1  0  0  0
 46120  1  0  0  0
 47121  1  0  0  0
 47122  1  0  0  0
 48 56  1  0  0  0
 48 65  1  0  0  0
 48123  1  0  0  0
 49 50  1  0  0  0
 49 53  1  0  0  0
 49 64  1  0  0  0
 49124  1  0  0  0
 50 51  1  0  0  0
 50125  1  0  0  0
 50126  1  0  0  0
 51 52  1  0  0  0
 51127  1  0  0  0
 51128  1  0  0  0
 52129  1  0  0  0
 52130  1  0  0  0
 53 54  1  0  0  0
 54 55  2  0  0  0
 54131  1  0  0  0
 55 57  1  0  0  0
 55132  1  0  0  0
 56 69  2  0  0  0
 57 58  2  0  0  0
 57133  1  0  0  0
 58134  1  0  0  0
 59 60  1  0  0  0
 59 61  1  0  0  0
 59 62  1  0  0  0
 60135  1  0  0  0
 60136  1  0  0  0
 60137  1  0  0  0
 61138  1  0  0  0
 61139  1  0  0  0
 61140  1  0  0  0
 62141  1  0  0  0
 62142  1  0  0  0
 62143  1  0  0  0
 63 65  1  0  0  0
 63144  1  0  0  0
 63145  1  0  0  0
 63146  1  0  0  0
 64147  1  0  0  0
 65148  1  0  0  0
 68 83  1  0  0  0
 71 73  2  0  0  0
 71 74  1  0  0  0
 71149  1  0  0  0
 72 75  2  0  0  0
 72 76  1  0  0  0
 72150  1  0  0  0
 73 75  1  0  0  0
 73 78  1  0  0  0
 74 76  2  0  0  0
 74 84  1  0  0  0
 75 87  1  0  0  0
 76 85  1  0  0  0
 77 79  1  0  0  0
 77 82  1  0  0  0
 77 88  2  0  0  0
 78 86  1  0  0  0
 78 89  2  0  0  0
 79 80  1  0  0  0
 79151  1  0  0  0
 79152  1  0  0  0
 80 84  1  0  0  0
 80153  1  0  0  0
 80154  1  0  0  0
 81 82  1  0  0  0
 81 84  1  0  0  0
 81155  1  0  0  0
 81156  1  0  0  0
 82 83  1  0  0  0
 82157  1  0  0  0
 83158  1  0  0  0
 83159  1  0  0  0
 85160  1  0  0  0
 85161  1  0  0  0
 86162  1  0  0  0
 86163  1  0  0  0
 87164  1  0  0  0
M  ISO  4   1 100  68 101  83 101  87 100
M  END
> <chiral flag>
0

> <version>
0

> <s_m_source_file>
/data/baiqing/PycharmProjects/Reinvent-master-3.2/result/LINK_invent/BTK/process_docking_weight1_custom_product_contain_oxygen_bond_distance_aromatic_linkinvent_7_9_3/rearranged_h_0095.sdf

> <i_m_source_file_index>
59

> <r_mmod_Potential_Energy-OPLS-2005>
8.47592639923096

> <r_mmod_Stretch_Energy-OPLS-2005>
89.110595703125

> <r_mmod_Bend_Energy-OPLS-2005>
167.385635375977

> <r_mmod_Torsional_Energy-OPLS-2005>
314.257507324219

> <r_mmod_Improper_Torsional_Energy-OPLS-2005>
11.471791267395

> <r_mmod_Van_der_Waal_Energy-OPLS-2005>
153.219268798828

> <r_mmod_Electrostatic_Energy-OPLS-2005>
-479.048187255859

> <r_mmod_Solvation_Energy-OPLS-2005>
-291.660888671875

> <b_mmod_Minimization_Converged-OPLS-2005>
0

> <r_mmod_RMS_Derivative-OPLS-2005>
8.14930152893066

$$$$
59
                    3D
 Structure written by MMmdl.
159167  0  0  1  0            999 V2000
  -30.5515  -14.9827   20.4803 C   0  0  0  0  0  0
  -30.4497  -12.6289   19.5035 C   0  0  0  0  0  0
  -29.5331  -12.5666   18.2585 C   0  0  0  0  0  0
  -28.0597  -12.3485   18.6604 C   0  0  0  0  0  0
  -27.6360  -13.2491   19.8480 C   0  0  2  0  0  0
  -28.6799  -13.2042   20.9791 C   0  0  0  0  0  0
  -25.2449  -13.8212   20.5696 C   0  0  0  0  0  0
  -24.1776  -13.0432   20.9226 C   0  0  0  0  0  0
  -24.6401  -11.6924   20.8732 C   0  0  0  0  0  0
  -23.9087  -10.4296   21.0389 C   0  0  0  0  0  0
  -24.3650   -9.4212   21.9177 C   0  0  0  0  0  0
  -23.6315   -8.2247   22.0749 C   0  0  0  0  0  0
  -22.4290   -8.0299   21.3546 C   0  0  0  0  0  0
  -21.9932   -9.0262   20.4635 C   0  0  0  0  0  0
  -22.7259  -10.2134   20.3035 C   0  0  0  0  0  0
  -21.6852   -6.0740   22.5290 C   0  0  0  0  0  0
  -21.4019   -6.5632   23.8231 C   0  0  0  0  0  0
  -21.3658   -5.6775   24.9189 C   0  0  0  0  0  0
  -21.6050   -4.3041   24.7234 C   0  0  0  0  0  0
  -21.8824   -3.8145   23.4353 C   0  0  0  0  0  0
  -21.9197   -4.6968   22.3411 C   0  0  0  0  0  0
  -22.7790  -13.5189   21.1914 C   0  0  0  0  0  0
  -22.1647   -4.2152   21.0978 F   0  0  0  0  0  0
  -21.5644   -3.4528   25.7746 F   0  0  0  0  0  0
  -29.9421  -13.7130   20.4060 N   0  0  0  0  0  0
  -26.2893  -12.9461   20.3229 N   0  0  0  0  0  0
  -25.9329  -11.6587   20.5701 N   0  0  0  0  0  0
  -22.0415  -12.8169   22.0449 N   0  0  0  0  0  0
  -25.4089  -15.1952   20.4149 N   0  0  0  0  0  0
  -31.7400  -14.9927   20.1385 O   0  0  0  0  0  0
  -21.6641   -6.8897   21.4261 O   0  0  0  0  0  0
  -22.3456  -14.5491   20.6749 O   0  0  0  0  0  0
  -24.6418  -31.8465   23.1888 C   0  0  0  0  0  0
  -25.9176  -32.4737   23.8285 C   0  0  1  0  0  0
  -27.2202  -27.1191   20.1570 C   0  0  0  0  0  0
  -25.5933  -33.8543   24.2214 N   0  0  0  0  0  0
  -23.4488  -30.4621   21.5369 C   0  0  2  0  0  0
  -24.8993  -28.8844   20.1131 C   0  0  0  0  0  0
  -22.7585  -29.4562   22.4898 C   0  0  0  0  0  0
  -18.0315  -28.1376   22.8507 C   0  0  0  0  0  0
  -24.1473  -36.7264   23.2653 C   0  0  0  0  0  0
  -26.0068  -30.7091   21.3947 C   0  0  0  0  0  0
  -26.0768  -29.3189   20.7347 C   0  0  0  0  0  0
  -27.2357  -28.4529   20.7406 C   0  0  0  0  0  0
  -26.0178  -26.7933   19.4895 C   0  0  0  0  0  0
  -24.8855  -27.6359   19.4721 C   0  0  0  0  0  0
  -23.6755  -29.7882   20.1584 C   0  0  0  0  0  0
  -25.4116  -36.3083   24.0334 C   0  0  1  0  0  0
  -20.5927  -28.3713   23.1257 C   0  0  2  0  0  0
  -20.6794  -26.9415   22.5419 C   0  0  0  0  0  0
  -19.5759  -26.6368   21.5238 C   0  0  0  0  0  0
  -18.1941  -26.7924   22.1639 C   0  0  0  0  0  0
  -19.1567  -28.8869   23.2871 C   0  0  0  0  0  0
  -18.9474  -30.1464   23.8889 C   0  0  0  0  0  0
  -17.6465  -30.6582   24.0554 C   0  0  0  0  0  0
  -25.9057  -34.9450   23.5091 C   0  0  0  0  0  0
  -16.5363  -29.9060   23.6335 C   0  0  0  0  0  0
  -16.7299  -28.6472   23.0388 C   0  0  0  0  0  0
  -26.4465  -31.6612   25.0736 C   0  0  0  0  0  0
  -25.3620  -31.3804   26.1410 C   0  0  0  0  0  0
  -27.0365  -30.3025   24.6344 C   0  0  0  0  0  0
  -27.6015  -32.4391   25.7492 C   0  0  0  0  0  0
  -27.5586  -37.1792   24.8471 C   0  0  0  0  0  0
  -21.4275  -29.3046   22.3636 N   0  0  0  0  0  0
  -26.4297  -37.3787   23.9409 N   0  0  0  0  0  0
  -24.7191  -31.0281   22.0949 N   0  0  0  0  0  0
  -23.4213  -28.8112   23.3058 O   0  0  0  0  0  0
  -28.2763  -26.1283   20.2238 O   0  0  0  0  0  0
  -26.5662  -34.8939   22.4677 O   0  0  0  0  0  0
  -23.5534  -32.1370   23.7077 O   0  0  0  0  0  0
  -29.2833  -18.9201   20.5018 C   0  0  0  0  0  0
  -31.3839  -18.0065   19.7448 C   0  0  0  0  0  0
  -29.6523  -20.3462   20.2282 C   0  0  0  0  0  0
  -30.1335  -17.6958   20.3227 C   0  0  0  0  0  0
  -31.7971  -19.3331   19.4882 C   0  0  0  0  0  0
  -30.9886  -20.4705   19.7518 C   0  0  0  0  0  0
  -28.6894  -21.6635   20.3745 C   0  0  0  0  0  0
  -28.8886  -16.1901   21.8581 C   0  0  0  0  0  0
  -28.0062  -24.5831   20.1439 C   0  0  0  0  0  0
  -29.1101  -23.3165   20.3528 C   0  0  1  0  0  0
  -33.0784  -19.5298   18.9672 N   0  0  0  0  0  0
  -31.5923  -21.7056   19.5090 N   0  0  0  0  0  0
  -29.8389  -16.2272   20.7421 N   0  0  0  0  0  0
  -29.8106  -23.5196   21.6357 N   0  3  0  0  0  0
  -27.4972  -21.4296   20.5852 O   0  0  0  0  0  0
  -31.4765  -12.7979   19.1819 H   0  0  0  0  0  0
  -30.4734  -11.6687   20.0200 H   0  0  0  0  0  0
  -29.8645  -11.7767   17.5840 H   0  0  0  0  0  0
  -29.6249  -13.5002   17.7013 H   0  0  0  0  0  0
  -27.9436  -11.2991   18.9347 H   0  0  0  0  0  0
  -27.4073  -12.5196   17.8026 H   0  0  0  0  0  0
  -27.6161  -14.2691   19.4628 H   0  0  0  0  0  0
  -28.7962  -12.1816   21.3364 H   0  0  0  0  0  0
  -28.3332  -13.7475   21.8487 H   0  0  0  0  0  0
  -25.2809   -9.5669   22.4750 H   0  0  0  0  0  0
  -24.0035   -7.4617   22.7445 H   0  0  0  0  0  0
  -21.0880   -8.8775   19.8908 H   0  0  0  0  0  0
  -22.3746  -10.9682   19.6133 H   0  0  0  0  0  0
  -21.1995   -7.6137   23.9743 H   0  0  0  0  0  0
  -21.1473   -6.0493   25.9092 H   0  0  0  0  0  0
  -22.0608   -2.7609   23.2850 H   0  0  0  0  0  0
  -22.4038  -11.9876   22.4908 H   0  0  0  0  0  0
  -21.0998  -13.1159   22.2559 H   0  0  0  0  0  0
  -24.6495  -15.8535   20.5580 H   0  0  0  0  0  0
  -26.2633  -15.6400   20.1045 H   0  0  0  0  0  0
  -26.7256  -32.5323   23.1030 H   0  0  0  0  0  0
  -25.0046  -33.9668   25.0343 H   0  0  0  0  0  0
  -22.7523  -31.2884   21.3819 H   0  0  0  0  0  0
  -23.3771  -35.9552   23.3312 H   0  0  0  0  0  0
  -24.3556  -36.8903   22.2068 H   0  0  0  0  0  0
  -23.7164  -37.6439   23.6678 H   0  0  0  0  0  0
  -26.1701  -31.4651   20.6260 H   0  0  0  0  0  0
  -26.8756  -30.7582   22.0405 H   0  0  0  0  0  0
  -28.1277  -28.7801   21.2543 H   0  0  0  0  0  0
  -25.9178  -25.8476   18.9800 H   0  0  0  0  0  0
  -23.9898  -27.2995   18.9676 H   0  0  0  0  0  0
  -23.8044  -30.5621   19.4009 H   0  0  0  0  0  0
  -22.7905  -29.2273   19.8532 H   0  0  0  0  0  0
  -25.1289  -36.1949   25.0827 H   0  0  0  0  0  0
  -21.0016  -28.3288   24.1384 H   0  0  0  0  0  0
  -20.5715  -26.2319   23.3632 H   0  0  0  0  0  0
  -21.6657  -26.7437   22.1198 H   0  0  0  0  0  0
  -19.6913  -25.6275   21.1282 H   0  0  0  0  0  0
  -19.6685  -27.3173   20.6761 H   0  0  0  0  0  0
  -17.4221  -26.6724   21.4024 H   0  0  0  0  0  0
  -18.0291  -26.0045   22.9006 H   0  0  0  0  0  0
  -19.7949  -30.7288   24.2253 H   0  0  0  0  0  0
  -17.5015  -31.6272   24.5138 H   0  0  0  0  0  0
  -15.5359  -30.2944   23.7668 H   0  0  0  0  0  0
  -15.8706  -28.0766   22.7128 H   0  0  0  0  0  0
  -24.5781  -30.7198   25.7681 H   0  0  0  0  0  0
  -24.8788  -32.2981   26.4787 H   0  0  0  0  0  0
  -25.7816  -30.8969   27.0243 H   0  0  0  0  0  0
  -26.3022  -29.6724   24.1313 H   0  0  0  0  0  0
  -27.3962  -29.7359   25.4941 H   0  0  0  0  0  0
  -27.8918  -30.4306   23.9705 H   0  0  0  0  0  0
  -27.2654  -33.3745   26.1989 H   0  0  0  0  0  0
  -28.3817  -32.6892   25.0287 H   0  0  0  0  0  0
  -28.0688  -31.8575   26.5456 H   0  0  0  0  0  0
  -28.2615  -38.0088   24.7559 H   0  0  0  0  0  0
  -28.1087  -36.2632   24.6259 H   0  0  0  0  0  0
  -27.2318  -37.1399   25.8881 H   0  0  0  0  0  0
  -20.9480  -29.8746   21.6812 H   0  0  0  0  0  0
  -26.0194  -38.2874   24.1387 H   0  0  0  0  0  0
  -28.2815  -18.7661   20.8753 H   0  0  0  0  0  0
  -32.0959  -17.2254   19.5338 H   0  0  0  0  0  0
  -29.2148  -15.4994   22.6368 H   0  0  0  0  0  0
  -27.8854  -15.9262   21.5245 H   0  0  0  0  0  0
  -28.8207  -17.1462   22.3768 H   0  0  0  0  0  0
  -27.1846  -24.3913   20.8360 H   0  0  0  0  0  0
  -27.5784  -24.4134   19.1564 H   0  0  0  0  0  0
  -29.8466  -23.4583   19.5638 H   0  0  0  0  0  0
  -33.5230  -20.4139   19.1840 H   0  0  0  0  0  0
  -33.7263  -18.7529   19.0342 H   0  0  0  0  0  0
  -32.3662  -21.8397   20.1492 H   0  0  0  0  0  0
  -32.0813  -21.6363   18.6201 H   0  0  0  0  0  0
  -29.2106  -23.2915   22.4103 H   0  0  0  0  0  0
  -30.1109  -24.4740   21.7281 H   0  0  0  0  0  0
  -30.6180  -22.9229   21.6698 H   0  0  0  0  0  0
  1 25  1  0  0  0
  1 30  2  0  0  0
  1 83  1  0  0  0
  2  3  1  0  0  0
  2 25  1  0  0  0
  2 86  1  0  0  0
  2 87  1  0  0  0
  3  4  1  0  0  0
  3 88  1  0  0  0
  3 89  1  0  0  0
  4  5  1  0  0  0
  4 90  1  0  0  0
  4 91  1  0  0  0
  5  6  1  0  0  0
  5 26  1  0  0  0
  5 92  1  0  0  0
  6 25  1  0  0  0
  6 93  1  0  0  0
  6 94  1  0  0  0
  7  8  2  0  0  0
  7 26  1  0  0  0
  7 29  1  0  0  0
  8  9  1  0  0  0
  8 22  1  0  0  0
  9 10  1  0  0  0
  9 27  2  0  0  0
 10 11  2  0  0  0
 10 15  1  0  0  0
 11 12  1  0  0  0
 11 95  1  0  0  0
 12 13  2  0  0  0
 12 96  1  0  0  0
 13 14  1  0  0  0
 13 31  1  0  0  0
 14 15  2  0  0  0
 14 97  1  0  0  0
 15 98  1  0  0  0
 16 17  2  0  0  0
 16 21  1  0  0  0
 16 31  1  0  0  0
 17 18  1  0  0  0
 17 99  1  0  0  0
 18 19  2  0  0  0
 18100  1  0  0  0
 19 20  1  0  0  0
 19 24  1  0  0  0
 20 21  2  0  0  0
 20101  1  0  0  0
 21 23  1  0  0  0
 22 28  1  0  0  0
 22 32  2  0  0  0
 26 27  1  0  0  0
 28102  1  0  0  0
 28103  1  0  0  0
 29104  1  0  0  0
 29105  1  0  0  0
 33 34  1  0  0  0
 33 66  1  0  0  0
 33 70  2  0  0  0
 34 36  1  0  0  0
 34 59  1  0  0  0
 34106  1  0  0  0
 35 44  2  0  0  0
 35 45  1  0  0  0
 35 68  1  0  0  0
 36 56  1  0  0  0
 36107  1  0  0  0
 37 39  1  0  0  0
 37 47  1  0  0  0
 37 66  1  0  0  0
 37108  1  0  0  0
 38 43  2  0  0  0
 38 46  1  0  0  0
 38 47  1  0  0  0
 39 64  1  0  0  0
 39 67  2  0  0  0
 40 52  1  0  0  0
 40 53  2  0  0  0
 40 58  1  0  0  0
 41109  1  0  0  0
 41110  1  0  0  0
 41111  1  0  0  0
 41 48  1  0  0  0
 42 43  1  0  0  0
 42 66  1  0  0  0
 42112  1  0  0  0
 42113  1  0  0  0
 43 44  1  0  0  0
 44114  1  0  0  0
 45 46  2  0  0  0
 45115  1  0  0  0
 46116  1  0  0  0
 47117  1  0  0  0
 47118  1  0  0  0
 48 56  1  0  0  0
 48 65  1  0  0  0
 48119  1  0  0  0
 49 50  1  0  0  0
 49 53  1  0  0  0
 49 64  1  0  0  0
 49120  1  0  0  0
 50 51  1  0  0  0
 50121  1  0  0  0
 50122  1  0  0  0
 51 52  1  0  0  0
 51123  1  0  0  0
 51124  1  0  0  0
 52125  1  0  0  0
 52126  1  0  0  0
 53 54  1  0  0  0
 54 55  2  0  0  0
 54127  1  0  0  0
 55 57  1  0  0  0
 55128  1  0  0  0
 56 69  2  0  0  0
 57 58  2  0  0  0
 57129  1  0  0  0
 58130  1  0  0  0
 59 60  1  0  0  0
 59 61  1  0  0  0
 59 62  1  0  0  0
 60131  1  0  0  0
 60132  1  0  0  0
 60133  1  0  0  0
 61134  1  0  0  0
 61135  1  0  0  0
 61136  1  0  0  0
 62137  1  0  0  0
 62138  1  0  0  0
 62139  1  0  0  0
 63 65  1  0  0  0
 63140  1  0  0  0
 63141  1  0  0  0
 63142  1  0  0  0
 64143  1  0  0  0
 65144  1  0  0  0
 68 79  1  0  0  0
 71 73  2  0  0  0
 71 74  1  0  0  0
 71145  1  0  0  0
 72 74  2  0  0  0
 72 75  1  0  0  0
 72146  1  0  0  0
 73 76  1  0  0  0
 73 77  1  0  0  0
 74 83  1  0  0  0
 75 76  2  0  0  0
 75 81  1  0  0  0
 76 82  1  0  0  0
 77 80  1  0  0  0
 77 85  2  0  0  0
 78 83  1  0  0  0
 78147  1  0  0  0
 78148  1  0  0  0
 78149  1  0  0  0
 79 80  1  0  0  0
 79150  1  0  0  0
 79151  1  0  0  0
 80 84  1  0  0  0
 80152  1  0  0  0
 81153  1  0  0  0
 81154  1  0  0  0
 82155  1  0  0  0
 82156  1  0  0  0
 84157  1  0  0  0
 84158  1  0  0  0
 84159  1  0  0  0
M  CHG  1  84   1
M  ISO  4   1 100  68 101  79 101  83 100
M  END
> <chiral flag>
0

> <version>
0

> <s_m_source_file>
/data/baiqing/PycharmProjects/Reinvent-master-3.2/result/LINK_invent/BTK/process_docking_weight1_custom_product_contain_oxygen_bond_distance_aromatic_linkinvent_7_9_3/rearranged_h_0095.sdf

> <i_m_source_file_index>
60

> <r_mmod_Potential_Energy-OPLS-2005>
334.089874267578

> <r_mmod_Stretch_Energy-OPLS-2005>
316.467315673828

> <r_mmod_Bend_Energy-OPLS-2005>
277.208557128906

> <r_mmod_Torsional_Energy-OPLS-2005>
330.657897949219

> <r_mmod_Improper_Torsional_Energy-OPLS-2005>
16.377405166626

> <r_mmod_Van_der_Waal_Energy-OPLS-2005>
163.520233154297

> <r_mmod_Electrostatic_Energy-OPLS-2005>
-490.593719482422

> <r_mmod_Solvation_Energy-OPLS-2005>
-479.037017822266

> <b_mmod_Minimization_Converged-OPLS-2005>
0

> <r_mmod_RMS_Derivative-OPLS-2005>
3.53014349937439

$$$$
60
                    3D
 Structure written by MMmdl.
160168  0  0  1  0            999 V2000
  -30.6955  -14.4912   20.4587 C   0  0  0  0  0  0
  -30.4138  -12.2820   19.4489 C   0  0  0  0  0  0
  -29.4998  -12.4694   18.2191 C   0  0  0  0  0  0
  -28.0172  -12.3508   18.6241 C   0  0  0  0  0  0
  -27.6556  -13.2077   19.8678 C   0  0  2  0  0  0
  -28.7012  -13.0442   20.9971 C   0  0  0  0  0  0
  -25.2572  -13.8149   20.5706 C   0  0  0  0  0  0
  -24.1828  -13.0427   20.9198 C   0  0  0  0  0  0
  -24.6385  -11.6897   20.8743 C   0  0  0  0  0  0
  -23.9059  -10.4283   21.0403 C   0  0  0  0  0  0
  -24.3612   -9.4201   21.9186 C   0  0  0  0  0  0
  -23.6288   -8.2237   22.0754 C   0  0  0  0  0  0
  -22.4270   -8.0274   21.3543 C   0  0  0  0  0  0
  -21.9903   -9.0247   20.4645 C   0  0  0  0  0  0
  -22.7231  -10.2128   20.3052 C   0  0  0  0  0  0
  -21.6849   -6.0733   22.5280 C   0  0  0  0  0  0
  -21.4009   -6.5634   23.8212 C   0  0  0  0  0  0
  -21.3663   -5.6790   24.9175 C   0  0  0  0  0  0
  -21.6046   -4.3055   24.7224 C   0  0  0  0  0  0
  -21.8818   -3.8147   23.4345 C   0  0  0  0  0  0
  -21.9193   -4.6964   22.3402 C   0  0  0  0  0  0
  -22.7852  -13.5236   21.1860 C   0  0  0  0  0  0
  -22.1665   -4.2151   21.0979 F   0  0  0  0  0  0
  -21.5630   -3.4539   25.7740 F   0  0  0  0  0  0
  -30.0324  -13.3058   20.4327 N   0  0  0  0  0  0
  -26.2998  -12.9319   20.3358 N   0  0  0  0  0  0
  -25.9312  -11.6483   20.5780 N   0  0  0  0  0  0
  -22.0493  -12.8222   22.0411 N   0  0  0  0  0  0
  -25.4281  -15.1868   20.4121 N   0  0  0  0  0  0
  -31.8847  -14.5971   20.1542 O   0  0  0  0  0  0
  -21.6637   -6.8871   21.4239 O   0  0  0  0  0  0
  -22.3546  -14.5553   20.6723 O   0  0  0  0  0  0
  -24.6148  -31.8694   23.2110 C   0  0  0  0  0  0
  -25.9044  -32.4828   23.8397 C   0  0  1  0  0  0
  -27.2257  -27.4315   20.0964 C   0  0  0  0  0  0
  -25.5905  -33.8628   24.2333 N   0  0  0  0  0  0
  -23.4012  -30.4946   21.5528 C   0  0  2  0  0  0
  -24.8447  -28.9650   20.1123 C   0  0  0  0  0  0
  -22.7403  -29.4672   22.5005 C   0  0  0  0  0  0
  -18.0268  -28.1376   22.8498 C   0  0  0  0  0  0
  -24.1481  -36.7313   23.2631 C   0  0  0  0  0  0
  -25.9309  -30.8348   21.3634 C   0  0  0  0  0  0
  -26.0066  -29.4705   20.7086 C   0  0  0  0  0  0
  -27.2008  -28.7130   20.6947 C   0  0  0  0  0  0
  -26.0436  -26.9491   19.4834 C   0  0  0  0  0  0
  -24.8587  -27.7046   19.4952 C   0  0  0  0  0  0
  -23.6069  -29.8305   20.1657 C   0  0  0  0  0  0
  -25.4100  -36.3117   24.0341 C   0  0  1  0  0  0
  -20.5858  -28.3661   23.1327 C   0  0  2  0  0  0
  -20.6764  -26.9402   22.5418 C   0  0  0  0  0  0
  -19.5743  -26.6385   21.5221 C   0  0  0  0  0  0
  -18.1915  -26.7929   22.1617 C   0  0  0  0  0  0
  -19.1518  -28.8835   23.2910 C   0  0  0  0  0  0
  -18.9447  -30.1443   23.8918 C   0  0  0  0  0  0
  -17.6449  -30.6587   24.0565 C   0  0  0  0  0  0
  -25.9040  -34.9484   23.5137 C   0  0  0  0  0  0
  -16.5338  -29.9088   23.6330 C   0  0  0  0  0  0
  -16.7256  -28.6502   23.0355 C   0  0  0  0  0  0
  -26.4466  -31.6599   25.0719 C   0  0  0  0  0  0
  -25.3735  -31.3696   26.1467 C   0  0  0  0  0  0
  -27.0286  -30.3039   24.6082 C   0  0  0  0  0  0
  -27.6047  -32.4307   25.7483 C   0  0  0  0  0  0
  -27.5600  -37.1787   24.8447 C   0  0  0  0  0  0
  -21.4132  -29.3039   22.3741 N   0  0  0  0  0  0
  -26.4279  -37.3812   23.9441 N   0  0  0  0  0  0
  -24.6672  -31.0799   22.1007 N   0  0  0  0  0  0
  -23.4180  -28.8216   23.3042 O   0  0  0  0  0  0
  -28.3841  -26.6794   20.1350 O   0  0  0  0  0  0
  -26.5603  -34.8937   22.4701 O   0  0  0  0  0  0
  -23.5343  -32.1448   23.7511 O   0  0  0  0  0  0
  -29.2287  -18.6789   20.7589 C   0  0  0  0  0  0
  -29.2493  -20.0597   21.0707 C   0  0  0  0  0  0
  -30.2398  -18.0928   19.9590 C   0  0  0  0  0  0
  -31.3155  -18.9200   19.5294 C   0  0  0  0  0  0
  -31.3429  -20.2919   19.8687 C   0  0  0  0  0  0
  -30.3005  -20.8868   20.6086 C   0  0  0  0  0  0
  -29.3895  -24.4691   20.6248 C   0  0  0  0  0  0
  -28.8970  -16.6004   18.4437 C   0  0  0  0  0  0
  -28.1946  -25.2534   20.0634 C   0  0  0  0  0  0
  -29.1501  -22.9733   20.9114 C   0  0  0  0  0  0
  -30.0692  -16.6516   19.4394 C   0  0  2  0  0  0
  -32.3548  -18.4624   18.7132 N   0  0  0  0  0  0
  -32.4088  -21.0785   19.4272 N   0  0  0  0  0  0
  -29.8949  -15.5770   20.4415 N   0  0  0  0  0  0
  -30.4836  -25.0087   20.8345 O   0  0  0  0  0  0
  -30.3795  -22.2479   20.8408 O   0  0  0  0  0  0
  -31.4631  -12.3494   19.1576 H   0  0  0  0  0  0
  -30.2849  -11.2851   19.8729 H   0  0  0  0  0  0
  -29.7371  -11.7246   17.4584 H   0  0  0  0  0  0
  -29.6859  -13.4413   17.7605 H   0  0  0  0  0  0
  -27.8196  -11.2989   18.8324 H   0  0  0  0  0  0
  -27.3746  -12.6176   17.7842 H   0  0  0  0  0  0
  -27.6742  -14.2445   19.5391 H   0  0  0  0  0  0
  -28.6679  -12.0337   21.4060 H   0  0  0  0  0  0
  -28.4852  -13.7151   21.8308 H   0  0  0  0  0  0
  -25.2756   -9.5677   22.4768 H   0  0  0  0  0  0
  -23.9997   -7.4628   22.7472 H   0  0  0  0  0  0
  -21.0840   -8.8761   19.8950 H   0  0  0  0  0  0
  -22.3690  -10.9668   19.6164 H   0  0  0  0  0  0
  -21.1990   -7.6141   23.9715 H   0  0  0  0  0  0
  -21.1490   -6.0521   25.9080 H   0  0  0  0  0  0
  -22.0594   -2.7610   23.2845 H   0  0  0  0  0  0
  -22.4115  -11.9869   22.4767 H   0  0  0  0  0  0
  -21.1111  -13.1241   22.2624 H   0  0  0  0  0  0
  -24.6570  -15.8370   20.5166 H   0  0  0  0  0  0
  -26.2715  -15.6275   20.0709 H   0  0  0  0  0  0
  -26.7118  -32.5534   23.1162 H   0  0  0  0  0  0
  -25.0065  -33.9791   25.0483 H   0  0  0  0  0  0
  -22.6897  -31.3115   21.4162 H   0  0  0  0  0  0
  -23.3768  -35.9615   23.3238 H   0  0  0  0  0  0
  -24.3596  -36.8985   22.2059 H   0  0  0  0  0  0
  -23.7182  -37.6482   23.6675 H   0  0  0  0  0  0
  -26.0436  -31.6013   20.5952 H   0  0  0  0  0  0
  -26.8192  -30.8869   21.9811 H   0  0  0  0  0  0
  -28.0962  -29.0986   21.1619 H   0  0  0  0  0  0
  -26.0126  -25.9891   18.9887 H   0  0  0  0  0  0
  -23.9673  -27.3122   19.0252 H   0  0  0  0  0  0
  -23.7120  -30.6069   19.4073 H   0  0  0  0  0  0
  -22.7305  -29.2499   19.8713 H   0  0  0  0  0  0
  -25.1269  -36.1974   25.0830 H   0  0  0  0  0  0
  -20.9948  -28.3218   24.1446 H   0  0  0  0  0  0
  -20.5676  -26.2272   23.3607 H   0  0  0  0  0  0
  -21.6634  -26.7448   22.1204 H   0  0  0  0  0  0
  -19.6904  -25.6297   21.1244 H   0  0  0  0  0  0
  -19.6688  -27.3204   20.6759 H   0  0  0  0  0  0
  -17.4196  -26.6696   21.4006 H   0  0  0  0  0  0
  -18.0293  -26.0053   22.8993 H   0  0  0  0  0  0
  -19.7920  -30.7260   24.2293 H   0  0  0  0  0  0
  -17.5000  -31.6277   24.5148 H   0  0  0  0  0  0
  -15.5341  -30.2998   23.7646 H   0  0  0  0  0  0
  -15.8652  -28.0831   22.7065 H   0  0  0  0  0  0
  -24.5916  -30.7036   25.7801 H   0  0  0  0  0  0
  -24.8919  -32.2847   26.4928 H   0  0  0  0  0  0
  -25.8092  -30.8855   27.0217 H   0  0  0  0  0  0
  -26.2817  -29.6812   24.1138 H   0  0  0  0  0  0
  -27.4060  -29.7263   25.4530 H   0  0  0  0  0  0
  -27.8655  -30.4356   23.9220 H   0  0  0  0  0  0
  -27.2677  -33.3608   26.2076 H   0  0  0  0  0  0
  -28.3855  -32.6865   25.0309 H   0  0  0  0  0  0
  -28.0711  -31.8416   26.5389 H   0  0  0  0  0  0
  -28.2536  -38.0166   24.7636 H   0  0  0  0  0  0
  -28.1180  -36.2714   24.6082 H   0  0  0  0  0  0
  -27.2352  -37.1202   25.8850 H   0  0  0  0  0  0
  -20.9288  -29.8774   21.6976 H   0  0  0  0  0  0
  -26.0166  -38.2873   24.1520 H   0  0  0  0  0  0
  -28.3948  -18.0779   21.0933 H   0  0  0  0  0  0
  -28.4449  -20.4732   21.6619 H   0  0  0  0  0  0
  -29.0394  -17.3256   17.6413 H   0  0  0  0  0  0
  -27.9438  -16.8274   18.9208 H   0  0  0  0  0  0
  -28.8118  -15.6220   17.9733 H   0  0  0  0  0  0
  -27.3121  -24.9578   20.6329 H   0  0  0  0  0  0
  -28.0381  -24.9540   19.0268 H   0  0  0  0  0  0
  -28.4325  -22.5855   20.1867 H   0  0  0  0  0  0
  -28.7140  -22.8667   21.9050 H   0  0  0  0  0  0
  -30.9435  -16.4136   18.8345 H   0  0  0  0  0  0
  -32.1480  -17.6754   18.1114 H   0  0  0  0  0  0
  -32.7824  -19.2211   18.1913 H   0  0  0  0  0  0
  -33.2890  -20.5768   19.4065 H   0  0  0  0  0  0
  -32.4892  -21.9616   19.9192 H   0  0  0  0  0  0
  -28.9525  -15.4219   20.7623 H   0  0  0  0  0  0
  1 25  1  0  0  0
  1 30  2  0  0  0
  1 84  1  0  0  0
  2  3  1  0  0  0
  2 25  1  0  0  0
  2 87  1  0  0  0
  2 88  1  0  0  0
  3  4  1  0  0  0
  3 89  1  0  0  0
  3 90  1  0  0  0
  4  5  1  0  0  0
  4 91  1  0  0  0
  4 92  1  0  0  0
  5  6  1  0  0  0
  5 26  1  0  0  0
  5 93  1  0  0  0
  6 25  1  0  0  0
  6 94  1  0  0  0
  6 95  1  0  0  0
  7  8  2  0  0  0
  7 26  1  0  0  0
  7 29  1  0  0  0
  8  9  1  0  0  0
  8 22  1  0  0  0
  9 10  1  0  0  0
  9 27  2  0  0  0
 10 11  2  0  0  0
 10 15  1  0  0  0
 11 12  1  0  0  0
 11 96  1  0  0  0
 12 13  2  0  0  0
 12 97  1  0  0  0
 13 14  1  0  0  0
 13 31  1  0  0  0
 14 15  2  0  0  0
 14 98  1  0  0  0
 15 99  1  0  0  0
 16 17  2  0  0  0
 16 21  1  0  0  0
 16 31  1  0  0  0
 17 18  1  0  0  0
 17100  1  0  0  0
 18 19  2  0  0  0
 18101  1  0  0  0
 19 20  1  0  0  0
 19 24  1  0  0  0
 20 21  2  0  0  0
 20102  1  0  0  0
 21 23  1  0  0  0
 22 28  1  0  0  0
 22 32  2  0  0  0
 26 27  1  0  0  0
 28103  1  0  0  0
 28104  1  0  0  0
 29105  1  0  0  0
 29106  1  0  0  0
 33 34  1  0  0  0
 33 66  1  0  0  0
 33 70  2  0  0  0
 34 36  1  0  0  0
 34 59  1  0  0  0
 34107  1  0  0  0
 35 44  2  0  0  0
 35 45  1  0  0  0
 35 68  1  0  0  0
 36 56  1  0  0  0
 36108  1  0  0  0
 37 39  1  0  0  0
 37 47  1  0  0  0
 37 66  1  0  0  0
 37109  1  0  0  0
 38 43  2  0  0  0
 38 46  1  0  0  0
 38 47  1  0  0  0
 39 64  1  0  0  0
 39 67  2  0  0  0
 40 52  1  0  0  0
 40 53  2  0  0  0
 40 58  1  0  0  0
 41110  1  0  0  0
 41111  1  0  0  0
 41112  1  0  0  0
 41 48  1  0  0  0
 42 43  1  0  0  0
 42 66  1  0  0  0
 42113  1  0  0  0
 42114  1  0  0  0
 43 44  1  0  0  0
 44115  1  0  0  0
 45 46  2  0  0  0
 45116  1  0  0  0
 46117  1  0  0  0
 47118  1  0  0  0
 47119  1  0  0  0
 48 56  1  0  0  0
 48 65  1  0  0  0
 48120  1  0  0  0
 49 50  1  0  0  0
 49 53  1  0  0  0
 49 64  1  0  0  0
 49121  1  0  0  0
 50 51  1  0  0  0
 50122  1  0  0  0
 50123  1  0  0  0
 51 52  1  0  0  0
 51124  1  0  0  0
 51125  1  0  0  0
 52126  1  0  0  0
 52127  1  0  0  0
 53 54  1  0  0  0
 54 55  2  0  0  0
 54128  1  0  0  0
 55 57  1  0  0  0
 55129  1  0  0  0
 56 69  2  0  0  0
 57 58  2  0  0  0
 57130  1  0  0  0
 58131  1  0  0  0
 59 60  1  0  0  0
 59 61  1  0  0  0
 59 62  1  0  0  0
 60132  1  0  0  0
 60133  1  0  0  0
 60134  1  0  0  0
 61135  1  0  0  0
 61136  1  0  0  0
 61137  1  0  0  0
 62138  1  0  0  0
 62139  1  0  0  0
 62140  1  0  0  0
 63 65  1  0  0  0
 63141  1  0  0  0
 63142  1  0  0  0
 63143  1  0  0  0
 64144  1  0  0  0
 65145  1  0  0  0
 68 79  1  0  0  0
 71 72  2  0  0  0
 71 73  1  0  0  0
 71146  1  0  0  0
 72 76  1  0  0  0
 72147  1  0  0  0
 73 74  2  0  0  0
 73 81  1  0  0  0
 74 75  1  0  0  0
 74 82  1  0  0  0
 75 76  2  0  0  0
 75 83  1  0  0  0
 76 86  1  0  0  0
 77 79  1  0  0  0
 77 80  1  0  0  0
 77 85  2  0  0  0
 78148  1  0  0  0
 78149  1  0  0  0
 78150  1  0  0  0
 78 81  1  0  0  0
 79151  1  0  0  0
 79152  1  0  0  0
 80 86  1  0  0  0
 80153  1  0  0  0
 80154  1  0  0  0
 81 84  1  0  0  0
 81155  1  0  0  0
 82156  1  0  0  0
 82157  1  0  0  0
 83158  1  0  0  0
 83159  1  0  0  0
 84160  1  0  0  0
M  ISO  4   1 100  68 101  79 101  84 100
M  END
> <chiral flag>
0

> <version>
0

> <s_m_source_file>
/data/baiqing/PycharmProjects/Reinvent-master-3.2/result/LINK_invent/BTK/process_docking_weight1_custom_product_contain_oxygen_bond_distance_aromatic_linkinvent_7_9_3/rearranged_h_0095.sdf

> <i_m_source_file_index>
61

> <r_mmod_Potential_Energy-OPLS-2005>
-132.975219726562

> <r_mmod_Stretch_Energy-OPLS-2005>
39.1251335144043

> <r_mmod_Bend_Energy-OPLS-2005>
99.4147491455078

> <r_mmod_Torsional_Energy-OPLS-2005>
252.84001159668

> <r_mmod_Improper_Torsional_Energy-OPLS-2005>
24.2097072601318

> <r_mmod_Van_der_Waal_Energy-OPLS-2005>
165.636932373047

> <r_mmod_Electrostatic_Energy-OPLS-2005>
-469.958068847656

> <r_mmod_Solvation_Energy-OPLS-2005>
-265.612854003906

> <b_mmod_Minimization_Converged-OPLS-2005>
0

> <r_mmod_RMS_Derivative-OPLS-2005>
1.09936094284058

$$$$
61
                    3D
 Structure written by MMmdl.
165173  0  0  1  0            999 V2000
  -30.7672  -14.4233   20.5255 C   0  0  0  0  0  0
  -30.4029  -12.2585   19.4330 C   0  0  0  0  0  0
  -29.4898  -12.4653   18.2110 C   0  0  0  0  0  0
  -28.0151  -12.3356   18.6339 C   0  0  0  0  0  0
  -27.6603  -13.2077   19.8683 C   0  0  2  0  0  0
  -28.7026  -13.0369   20.9979 C   0  0  0  0  0  0
  -25.2588  -13.8178   20.5710 C   0  0  0  0  0  0
  -24.1840  -13.0466   20.9174 C   0  0  0  0  0  0
  -24.6378  -11.6917   20.8740 C   0  0  0  0  0  0
  -23.9065  -10.4300   21.0402 C   0  0  0  0  0  0
  -24.3620   -9.4202   21.9182 C   0  0  0  0  0  0
  -23.6286   -8.2242   22.0751 C   0  0  0  0  0  0
  -22.4263   -8.0295   21.3548 C   0  0  0  0  0  0
  -21.9907   -9.0262   20.4645 C   0  0  0  0  0  0
  -22.7235  -10.2137   20.3048 C   0  0  0  0  0  0
  -21.6865   -6.0738   22.5279 C   0  0  0  0  0  0
  -21.4010   -6.5636   23.8210 C   0  0  0  0  0  0
  -21.3656   -5.6789   24.9175 C   0  0  0  0  0  0
  -21.6051   -4.3051   24.7227 C   0  0  0  0  0  0
  -21.8821   -3.8144   23.4344 C   0  0  0  0  0  0
  -21.9184   -4.6964   22.3400 C   0  0  0  0  0  0
  -22.7857  -13.5226   21.1853 C   0  0  0  0  0  0
  -22.1661   -4.2149   21.0982 F   0  0  0  0  0  0
  -21.5625   -3.4536   25.7737 F   0  0  0  0  0  0
  -30.0373  -13.2809   20.4271 N   0  0  0  0  0  0
  -26.3028  -12.9350   20.3372 N   0  0  0  0  0  0
  -25.9311  -11.6513   20.5788 N   0  0  0  0  0  0
  -22.0497  -12.8224   22.0396 N   0  0  0  0  0  0
  -25.4364  -15.1919   20.4239 N   0  0  0  0  0  0
  -31.9157  -14.5005   20.0883 O   0  0  0  0  0  0
  -21.6641   -6.8880   21.4237 O   0  0  0  0  0  0
  -22.3537  -14.5541   20.6712 O   0  0  0  0  0  0
  -24.6136  -31.8744   23.2173 C   0  0  0  0  0  0
  -25.9051  -32.4838   23.8421 C   0  0  1  0  0  0
  -27.1915  -27.4286   20.0507 C   0  0  0  0  0  0
  -25.5928  -33.8639   24.2380 N   0  0  0  0  0  0
  -23.3879  -30.5099   21.5584 C   0  0  2  0  0  0
  -24.8198  -28.9697   20.1217 C   0  0  0  0  0  0
  -22.7365  -29.4765   22.5014 C   0  0  0  0  0  0
  -18.0265  -28.1380   22.8479 C   0  0  0  0  0  0
  -24.1490  -36.7318   23.2634 C   0  0  0  0  0  0
  -25.9184  -30.8335   21.3634 C   0  0  0  0  0  0
  -25.9901  -29.4708   20.7022 C   0  0  0  0  0  0
  -27.1793  -28.7043   20.6693 C   0  0  0  0  0  0
  -25.9982  -26.9422   19.4703 C   0  0  0  0  0  0
  -24.8168  -27.7079   19.5114 C   0  0  0  0  0  0
  -23.5900  -29.8480   20.1730 C   0  0  0  0  0  0
  -25.4111  -36.3120   24.0356 C   0  0  1  0  0  0
  -20.5842  -28.3658   23.1338 C   0  0  2  0  0  0
  -20.6771  -26.9377   22.5460 C   0  0  0  0  0  0
  -19.5787  -26.6397   21.5226 C   0  0  0  0  0  0
  -18.1954  -26.7945   22.1563 C   0  0  0  0  0  0
  -19.1506  -28.8832   23.2923 C   0  0  0  0  0  0
  -18.9434  -30.1446   23.8947 C   0  0  0  0  0  0
  -17.6434  -30.6568   24.0580 C   0  0  0  0  0  0
  -25.9044  -34.9473   23.5145 C   0  0  0  0  0  0
  -16.5348  -29.9062   23.6317 C   0  0  0  0  0  0
  -16.7283  -28.6499   23.0334 C   0  0  0  0  0  0
  -26.4468  -31.6585   25.0725 C   0  0  0  0  0  0
  -25.3744  -31.3700   26.1490 C   0  0  0  0  0  0
  -27.0281  -30.3037   24.6076 C   0  0  0  0  0  0
  -27.6057  -32.4288   25.7476 C   0  0  0  0  0  0
  -27.5577  -37.1822   24.8460 C   0  0  0  0  0  0
  -21.4104  -29.3044   22.3733 N   0  0  0  0  0  0
  -26.4295  -37.3800   23.9414 N   0  0  0  0  0  0
  -24.6581  -31.0873   22.1058 N   0  0  0  0  0  0
  -23.4173  -28.8279   23.3012 O   0  0  0  0  0  0
  -28.3717  -26.7329   19.9152 O   0  0  0  0  0  0
  -26.5581  -34.8909   22.4692 O   0  0  0  0  0  0
  -23.5371  -32.1517   23.7608 O   0  0  0  0  0  0
  -28.3955  -18.1157   20.4376 C   0  0  0  0  0  0
  -27.5231  -19.2001   20.6654 C   0  0  0  0  0  0
  -29.5892  -18.6393   22.4838 C   0  0  0  0  0  0
  -29.4937  -17.8782   21.2980 C   0  0  0  0  0  0
  -27.7308  -20.0565   21.7697 C   0  0  0  0  0  0
  -28.7257  -19.7217   22.7198 C   0  0  0  0  0  0
  -26.5752  -22.1152   21.0025 C   0  0  0  0  0  0
  -31.8816  -17.0788   21.7482 C   0  0  0  0  0  0
  -31.0073  -17.2817   19.4131 C   0  0  0  0  0  0
  -26.7541  -23.6305   21.1992 C   0  0  0  0  0  0
  -27.7068  -24.2336   20.1224 C   0  0  0  0  0  0
  -28.5334  -25.4698   20.5708 C   0  0  0  0  0  0
  -30.6082  -16.9120   20.8726 C   0  0  0  0  0  0
  -28.9128  -20.5112   23.8556 N   0  0  0  0  0  0
  -27.0951  -21.3173   21.9491 N   0  0  0  0  0  0
  -30.1178  -15.5200   20.9547 N   0  0  0  0  0  0
  -25.9502  -21.7004   20.0231 O   0  0  0  0  0  0
  -31.4513  -12.3039   19.1332 H   0  0  0  0  0  0
  -30.2605  -11.2630   19.8563 H   0  0  0  0  0  0
  -29.7178  -11.7285   17.4400 H   0  0  0  0  0  0
  -29.6660  -13.4410   17.7607 H   0  0  0  0  0  0
  -27.8333  -11.2859   18.8667 H   0  0  0  0  0  0
  -27.3547  -12.5758   17.8001 H   0  0  0  0  0  0
  -27.6950  -14.2447   19.5335 H   0  0  0  0  0  0
  -28.6568  -12.0262   21.4093 H   0  0  0  0  0  0
  -28.4852  -13.7063   21.8327 H   0  0  0  0  0  0
  -25.2773   -9.5678   22.4762 H   0  0  0  0  0  0
  -24.0004   -7.4626   22.7470 H   0  0  0  0  0  0
  -21.0842   -8.8771   19.8958 H   0  0  0  0  0  0
  -22.3691  -10.9677   19.6166 H   0  0  0  0  0  0
  -21.2009   -7.6149   23.9701 H   0  0  0  0  0  0
  -21.1481   -6.0534   25.9076 H   0  0  0  0  0  0
  -22.0600   -2.7608   23.2850 H   0  0  0  0  0  0
  -22.4142  -11.9901   22.4783 H   0  0  0  0  0  0
  -21.1134  -13.1250   22.2643 H   0  0  0  0  0  0
  -24.6807  -15.8549   20.5615 H   0  0  0  0  0  0
  -26.3083  -15.6297   20.1556 H   0  0  0  0  0  0
  -26.7092  -32.5565   23.1167 H   0  0  0  0  0  0
  -25.0044  -33.9803   25.0507 H   0  0  0  0  0  0
  -22.6705  -31.3263   21.4328 H   0  0  0  0  0  0
  -23.3742  -35.9653   23.3321 H   0  0  0  0  0  0
  -24.3567  -36.8920   22.2032 H   0  0  0  0  0  0
  -23.7251  -37.6540   23.6625 H   0  0  0  0  0  0
  -26.0274  -31.5982   20.5931 H   0  0  0  0  0  0
  -26.8112  -30.8862   21.9747 H   0  0  0  0  0  0
  -28.0900  -29.1043   21.0896 H   0  0  0  0  0  0
  -25.9531  -26.0018   18.9431 H   0  0  0  0  0  0
  -23.9040  -27.3295   19.0732 H   0  0  0  0  0  0
  -23.7006  -30.6221   19.4147 H   0  0  0  0  0  0
  -22.7052  -29.2835   19.8806 H   0  0  0  0  0  0
  -25.1288  -36.1984   25.0856 H   0  0  0  0  0  0
  -20.9940  -28.3191   24.1468 H   0  0  0  0  0  0
  -20.5640  -26.2272   23.3670 H   0  0  0  0  0  0
  -21.6658  -26.7377   22.1322 H   0  0  0  0  0  0
  -19.7013  -25.6341   21.1232 H   0  0  0  0  0  0
  -19.6780  -27.3221   20.6768 H   0  0  0  0  0  0
  -17.4256  -26.6769   21.3896 H   0  0  0  0  0  0
  -18.0284  -26.0044   22.8916 H   0  0  0  0  0  0
  -19.7938  -30.7235   24.2318 H   0  0  0  0  0  0
  -17.4991  -31.6247   24.5168 H   0  0  0  0  0  0
  -15.5348  -30.2993   23.7610 H   0  0  0  0  0  0
  -15.8721  -28.0840   22.6991 H   0  0  0  0  0  0
  -24.5921  -30.7041   25.7834 H   0  0  0  0  0  0
  -24.8921  -32.2851   26.4945 H   0  0  0  0  0  0
  -25.8120  -30.8873   27.0241 H   0  0  0  0  0  0
  -26.2810  -29.6823   24.1131 H   0  0  0  0  0  0
  -27.4049  -29.7266   25.4517 H   0  0  0  0  0  0
  -27.8641  -30.4370   23.9206 H   0  0  0  0  0  0
  -27.2708  -33.3598   26.2092 H   0  0  0  0  0  0
  -28.3846  -32.6871   25.0270 H   0  0  0  0  0  0
  -28.0741  -31.8385   26.5377 H   0  0  0  0  0  0
  -28.2619  -38.0089   24.7504 H   0  0  0  0  0  0
  -28.1059  -36.2643   24.6305 H   0  0  0  0  0  0
  -27.2301  -37.1497   25.8858 H   0  0  0  0  0  0
  -20.9247  -29.8737   21.6934 H   0  0  0  0  0  0
  -26.0202  -38.2890   24.1392 H   0  0  0  0  0  0
  -28.2673  -17.5332   19.5395 H   0  0  0  0  0  0
  -26.7454  -19.3949   19.9400 H   0  0  0  0  0  0
  -30.3707  -18.4562   23.2012 H   0  0  0  0  0  0
  -32.2089  -18.1219   21.7836 H   0  0  0  0  0  0
  -32.7296  -16.5154   21.3591 H   0  0  0  0  0  0
  -31.7218  -16.7357   22.7737 H   0  0  0  0  0  0
  -31.1884  -18.3523   19.3143 H   0  0  0  0  0  0
  -30.2460  -17.0103   18.6802 H   0  0  0  0  0  0
  -31.9279  -16.7961   19.0927 H   0  0  0  0  0  0
  -27.1769  -23.8079   22.1902 H   0  0  0  0  0  0
  -25.7748  -24.1128   21.2015 H   0  0  0  0  0  0
  -27.1831  -24.3720   19.1700 H   0  0  0  0  0  0
  -28.4447  -23.4603   19.8804 H   0  0  0  0  0  0
  -29.5725  -25.1978   20.3654 H   0  0  0  0  0  0
  -28.4708  -25.6260   21.6471 H   0  0  0  0  0  0
  -29.6427  -20.1952   24.4888 H   0  0  0  0  0  0
  -28.0728  -20.7176   24.3896 H   0  0  0  0  0  0
  -27.4371  -21.7856   22.7777 H   0  0  0  0  0  0
  -29.1734  -15.3834   21.2805 H   0  0  0  0  0  0
  1 25  1  0  0  0
  1 30  2  0  0  0
  1 86  1  0  0  0
  2  3  1  0  0  0
  2 25  1  0  0  0
  2 88  1  0  0  0
  2 89  1  0  0  0
  3  4  1  0  0  0
  3 90  1  0  0  0
  3 91  1  0  0  0
  4  5  1  0  0  0
  4 92  1  0  0  0
  4 93  1  0  0  0
  5  6  1  0  0  0
  5 26  1  0  0  0
  5 94  1  0  0  0
  6 25  1  0  0  0
  6 95  1  0  0  0
  6 96  1  0  0  0
  7  8  2  0  0  0
  7 26  1  0  0  0
  7 29  1  0  0  0
  8  9  1  0  0  0
  8 22  1  0  0  0
  9 10  1  0  0  0
  9 27  2  0  0  0
 10 11  2  0  0  0
 10 15  1  0  0  0
 11 12  1  0  0  0
 11 97  1  0  0  0
 12 13  2  0  0  0
 12 98  1  0  0  0
 13 14  1  0  0  0
 13 31  1  0  0  0
 14 15  2  0  0  0
 14 99  1  0  0  0
 15100  1  0  0  0
 16 17  2  0  0  0
 16 21  1  0  0  0
 16 31  1  0  0  0
 17 18  1  0  0  0
 17101  1  0  0  0
 18 19  2  0  0  0
 18102  1  0  0  0
 19 20  1  0  0  0
 19 24  1  0  0  0
 20 21  2  0  0  0
 20103  1  0  0  0
 21 23  1  0  0  0
 22 28  1  0  0  0
 22 32  2  0  0  0
 26 27  1  0  0  0
 28104  1  0  0  0
 28105  1  0  0  0
 29106  1  0  0  0
 29107  1  0  0  0
 33 34  1  0  0  0
 33 66  1  0  0  0
 33 70  2  0  0  0
 34 36  1  0  0  0
 34 59  1  0  0  0
 34108  1  0  0  0
 35 44  2  0  0  0
 35 45  1  0  0  0
 35 68  1  0  0  0
 36 56  1  0  0  0
 36109  1  0  0  0
 37 39  1  0  0  0
 37 47  1  0  0  0
 37 66  1  0  0  0
 37110  1  0  0  0
 38 43  2  0  0  0
 38 46  1  0  0  0
 38 47  1  0  0  0
 39 64  1  0  0  0
 39 67  2  0  0  0
 40 52  1  0  0  0
 40 53  2  0  0  0
 40 58  1  0  0  0
 41111  1  0  0  0
 41112  1  0  0  0
 41113  1  0  0  0
 41 48  1  0  0  0
 42 43  1  0  0  0
 42 66  1  0  0  0
 42114  1  0  0  0
 42115  1  0  0  0
 43 44  1  0  0  0
 44116  1  0  0  0
 45 46  2  0  0  0
 45117  1  0  0  0
 46118  1  0  0  0
 47119  1  0  0  0
 47120  1  0  0  0
 48 56  1  0  0  0
 48 65  1  0  0  0
 48121  1  0  0  0
 49 50  1  0  0  0
 49 53  1  0  0  0
 49 64  1  0  0  0
 49122  1  0  0  0
 50 51  1  0  0  0
 50123  1  0  0  0
 50124  1  0  0  0
 51 52  1  0  0  0
 51125  1  0  0  0
 51126  1  0  0  0
 52127  1  0  0  0
 52128  1  0  0  0
 53 54  1  0  0  0
 54 55  2  0  0  0
 54129  1  0  0  0
 55 57  1  0  0  0
 55130  1  0  0  0
 56 69  2  0  0  0
 57 58  2  0  0  0
 57131  1  0  0  0
 58132  1  0  0  0
 59 60  1  0  0  0
 59 61  1  0  0  0
 59 62  1  0  0  0
 60133  1  0  0  0
 60134  1  0  0  0
 60135  1  0  0  0
 61136  1  0  0  0
 61137  1  0  0  0
 61138  1  0  0  0
 62139  1  0  0  0
 62140  1  0  0  0
 62141  1  0  0  0
 63 65  1  0  0  0
 63142  1  0  0  0
 63143  1  0  0  0
 63144  1  0  0  0
 64145  1  0  0  0
 65146  1  0  0  0
 68 82  1  0  0  0
 71 72  2  0  0  0
 71 74  1  0  0  0
 71147  1  0  0  0
 72 75  1  0  0  0
 72148  1  0  0  0
 73 74  2  0  0  0
 73 76  1  0  0  0
 73149  1  0  0  0
 74 83  1  0  0  0
 75 76  2  0  0  0
 75 85  1  0  0  0
 76 84  1  0  0  0
 77 80  1  0  0  0
 77 85  1  0  0  0
 77 87  2  0  0  0
 78150  1  0  0  0
 78151  1  0  0  0
 78152  1  0  0  0
 78 83  1  0  0  0
 79 83  1  0  0  0
 79153  1  0  0  0
 79154  1  0  0  0
 79155  1  0  0  0
 80 81  1  0  0  0
 80156  1  0  0  0
 80157  1  0  0  0
 81 82  1  0  0  0
 81158  1  0  0  0
 81159  1  0  0  0
 82160  1  0  0  0
 82161  1  0  0  0
 83 86  1  0  0  0
 84162  1  0  0  0
 84163  1  0  0  0
 85164  1  0  0  0
 86165  1  0  0  0
M  ISO  4   1 100  68 101  82 101  86 100
M  END
> <chiral flag>
0

> <version>
0

> <s_m_source_file>
/data/baiqing/PycharmProjects/Reinvent-master-3.2/result/LINK_invent/BTK/process_docking_weight1_custom_product_contain_oxygen_bond_distance_aromatic_linkinvent_7_9_3/rearranged_h_0095.sdf

> <i_m_source_file_index>
62

> <r_mmod_Potential_Energy-OPLS-2005>
-168.93440246582

> <r_mmod_Stretch_Energy-OPLS-2005>
38.6599159240723

> <r_mmod_Bend_Energy-OPLS-2005>
122.379058837891

> <r_mmod_Torsional_Energy-OPLS-2005>
279.06640625

> <r_mmod_Improper_Torsional_Energy-OPLS-2005>
12.3517322540283

> <r_mmod_Van_der_Waal_Energy-OPLS-2005>
174.055740356445

> <r_mmod_Electrostatic_Energy-OPLS-2005>
-592.560180664062

> <r_mmod_Solvation_Energy-OPLS-2005>
-223.571975708008

> <b_mmod_Minimization_Converged-OPLS-2005>
0

> <r_mmod_RMS_Derivative-OPLS-2005>
8.92113780975342

$$$$
62
                    3D
 Structure written by MMmdl.
162171  0  0  1  0            999 V2000
  -30.6313  -14.6329   20.5252 C   0  0  0  0  0  0
  -30.4370  -12.3943   19.4566 C   0  0  0  0  0  0
  -29.5081  -12.5180   18.2285 C   0  0  0  0  0  0
  -28.0314  -12.3519   18.6382 C   0  0  0  0  0  0
  -27.6548  -13.2187   19.8696 C   0  0  2  0  0  0
  -28.6979  -13.0655   20.9999 C   0  0  0  0  0  0
  -25.2551  -13.8177   20.5675 C   0  0  0  0  0  0
  -24.1819  -13.0440   20.9163 C   0  0  0  0  0  0
  -24.6395  -11.6917   20.8731 C   0  0  0  0  0  0
  -23.9066  -10.4299   21.0397 C   0  0  0  0  0  0
  -24.3620   -9.4214   21.9176 C   0  0  0  0  0  0
  -23.6293   -8.2249   22.0752 C   0  0  0  0  0  0
  -22.4274   -8.0285   21.3541 C   0  0  0  0  0  0
  -21.9911   -9.0259   20.4642 C   0  0  0  0  0  0
  -22.7240  -10.2138   20.3047 C   0  0  0  0  0  0
  -21.6855   -6.0739   22.5278 C   0  0  0  0  0  0
  -21.4017   -6.5642   23.8213 C   0  0  0  0  0  0
  -21.3659   -5.6794   24.9172 C   0  0  0  0  0  0
  -21.6040   -4.3056   24.7226 C   0  0  0  0  0  0
  -21.8819   -3.8147   23.4349 C   0  0  0  0  0  0
  -21.9195   -4.6965   22.3401 C   0  0  0  0  0  0
  -22.7845  -13.5233   21.1843 C   0  0  0  0  0  0
  -22.1668   -4.2151   21.0980 F   0  0  0  0  0  0
  -21.5624   -3.4540   25.7740 F   0  0  0  0  0  0
  -30.0156  -13.4102   20.4419 N   0  0  0  0  0  0
  -26.2995  -12.9367   20.3356 N   0  0  0  0  0  0
  -25.9327  -11.6522   20.5769 N   0  0  0  0  0  0
  -22.0493  -12.8222   22.0402 N   0  0  0  0  0  0
  -25.4238  -15.1899   20.4092 N   0  0  0  0  0  0
  -31.7845  -14.7938   20.1154 O   0  0  0  0  0  0
  -21.6643   -6.8883   21.4239 O   0  0  0  0  0  0
  -22.3528  -14.5547   20.6707 O   0  0  0  0  0  0
  -24.6250  -31.8616   23.2022 C   0  0  0  0  0  0
  -25.9104  -32.4783   23.8354 C   0  0  1  0  0  0
  -27.2262  -27.3232   20.1183 C   0  0  0  0  0  0
  -25.5923  -33.8583   24.2280 N   0  0  0  0  0  0
  -23.4183  -30.4841   21.5457 C   0  0  2  0  0  0
  -24.8651  -28.9400   20.1137 C   0  0  0  0  0  0
  -22.7467  -29.4631   22.4944 C   0  0  0  0  0  0
  -18.0290  -28.1378   22.8482 C   0  0  0  0  0  0
  -24.1488  -36.7299   23.2636 C   0  0  0  0  0  0
  -25.9591  -30.7933   21.3730 C   0  0  0  0  0  0
  -26.0347  -29.4208   20.7158 C   0  0  0  0  0  0
  -27.2187  -28.6250   20.7069 C   0  0  0  0  0  0
  -26.0307  -26.8934   19.4963 C   0  0  0  0  0  0
  -24.8646  -27.6809   19.4960 C   0  0  0  0  0  0
  -23.6328  -29.8190   20.1616 C   0  0  0  0  0  0
  -25.4114  -36.3083   24.0320 C   0  0  1  0  0  0
  -20.5881  -28.3691   23.1278 C   0  0  2  0  0  0
  -20.6777  -26.9416   22.5406 C   0  0  0  0  0  0
  -19.5753  -26.6385   21.5202 C   0  0  0  0  0  0
  -18.1935  -26.7923   22.1618 C   0  0  0  0  0  0
  -19.1538  -28.8853   23.2877 C   0  0  0  0  0  0
  -18.9466  -30.1453   23.8894 C   0  0  0  0  0  0
  -17.6470  -30.6588   24.0559 C   0  0  0  0  0  0
  -25.9055  -34.9453   23.5100 C   0  0  0  0  0  0
  -16.5362  -29.9084   23.6326 C   0  0  0  0  0  0
  -16.7279  -28.6498   23.0353 C   0  0  0  0  0  0
  -26.4489  -31.6593   25.0727 C   0  0  0  0  0  0
  -25.3723  -31.3722   26.1451 C   0  0  0  0  0  0
  -27.0348  -30.3021   24.6190 C   0  0  0  0  0  0
  -27.6043  -32.4332   25.7508 C   0  0  0  0  0  0
  -27.5583  -37.1800   24.8458 C   0  0  0  0  0  0
  -21.4184  -29.3049   22.3682 N   0  0  0  0  0  0
  -26.4289  -37.3778   23.9406 N   0  0  0  0  0  0
  -24.6862  -31.0626   22.0973 N   0  0  0  0  0  0
  -23.4194  -28.8171   23.3018 O   0  0  0  0  0  0
  -28.3498  -26.4807   20.1594 O   0  0  0  0  0  0
  -26.5643  -34.8919   22.4679 O   0  0  0  0  0  0
  -23.5413  -32.1412   23.7347 O   0  0  0  0  0  0
  -31.1140  -19.2604   20.3453 C   0  0  0  0  0  0
  -31.0827  -17.8366   20.3668 C   0  0  0  0  0  0
  -28.8898  -19.3504   21.2548 C   0  0  0  0  0  0
  -30.0329  -20.0655   20.8114 C   0  0  0  0  0  0
  -29.9566  -17.1276   20.8571 C   0  0  0  0  0  0
  -28.8519  -17.9134   21.2975 C   0  0  0  0  0  0
  -31.2033  -22.0539   21.6061 C   0  0  0  0  0  0
  -31.4457  -23.5709   21.6454 C   0  0  0  0  0  0
  -30.1697  -24.4167   21.6079 C   0  0  0  0  0  0
  -29.0230  -22.4645   20.4982 C   0  0  0  0  0  0
  -29.3414  -24.0301   20.3887 C   0  0  1  0  0  0
  -26.7017  -17.9241   22.3813 C   0  0  0  0  0  0
  -28.1145  -25.0182   20.1837 C   0  0  0  0  0  0
  -30.1448  -21.5362   20.9136 N   0  0  0  0  0  0
  -29.8439  -15.6703   20.9467 N   0  0  0  0  0  0
  -32.0230  -21.3527   22.2102 O   0  0  0  0  0  0
  -27.7686  -17.2030   21.7763 O   0  0  0  0  0  0
  -31.4790  -12.5180   19.1568 H   0  0  0  0  0  0
  -30.3692  -11.3965   19.8931 H   0  0  0  0  0  0
  -29.7754  -11.7746   17.4762 H   0  0  0  0  0  0
  -29.6484  -13.4921   17.7575 H   0  0  0  0  0  0
  -27.8693  -11.2980   18.8658 H   0  0  0  0  0  0
  -27.3777  -12.5846   17.7968 H   0  0  0  0  0  0
  -27.6757  -14.2561   19.5347 H   0  0  0  0  0  0
  -28.7068  -12.0403   21.3747 H   0  0  0  0  0  0
  -28.4402  -13.6898   21.8568 H   0  0  0  0  0  0
  -25.2765   -9.5697   22.4750 H   0  0  0  0  0  0
  -24.0000   -7.4653   22.7482 H   0  0  0  0  0  0
  -21.0840   -8.8785   19.8954 H   0  0  0  0  0  0
  -22.3700  -10.9679   19.6159 H   0  0  0  0  0  0
  -21.2015   -7.6155   23.9714 H   0  0  0  0  0  0
  -21.1481   -6.0527   25.9079 H   0  0  0  0  0  0
  -22.0598   -2.7611   23.2849 H   0  0  0  0  0  0
  -22.4110  -11.9877   22.4774 H   0  0  0  0  0  0
  -21.1114  -13.1253   22.2621 H   0  0  0  0  0  0
  -24.6550  -15.8417   20.5188 H   0  0  0  0  0  0
  -26.2911  -15.6408   20.1458 H   0  0  0  0  0  0
  -26.7183  -32.5457   23.1113 H   0  0  0  0  0  0
  -25.0046  -33.9727   25.0410 H   0  0  0  0  0  0
  -22.7117  -31.3039   21.4029 H   0  0  0  0  0  0
  -23.3747  -35.9636   23.3276 H   0  0  0  0  0  0
  -24.3580  -36.8951   22.2056 H   0  0  0  0  0  0
  -23.7240  -37.6488   23.6688 H   0  0  0  0  0  0
  -26.0894  -31.5563   20.6041 H   0  0  0  0  0  0
  -26.8383  -30.8425   22.0031 H   0  0  0  0  0  0
  -28.1167  -28.9884   21.1874 H   0  0  0  0  0  0
  -25.9636  -25.9357   19.0050 H   0  0  0  0  0  0
  -23.9674  -27.3052   19.0233 H   0  0  0  0  0  0
  -23.7532  -30.5958   19.4058 H   0  0  0  0  0  0
  -22.7528  -29.2482   19.8595 H   0  0  0  0  0  0
  -25.1289  -36.1935   25.0812 H   0  0  0  0  0  0
  -20.9974  -28.3273   24.1393 H   0  0  0  0  0  0
  -20.5673  -26.2303   23.3606 H   0  0  0  0  0  0
  -21.6649  -26.7445   22.1204 H   0  0  0  0  0  0
  -19.6918  -25.6292   21.1240 H   0  0  0  0  0  0
  -19.6684  -27.3185   20.6721 H   0  0  0  0  0  0
  -17.4203  -26.6663   21.4027 H   0  0  0  0  0  0
  -18.0340  -26.0065   22.9010 H   0  0  0  0  0  0
  -19.7944  -30.7260   24.2270 H   0  0  0  0  0  0
  -17.5030  -31.6261   24.5171 H   0  0  0  0  0  0
  -15.5363  -30.2991   23.7642 H   0  0  0  0  0  0
  -15.8676  -28.0816   22.7074 H   0  0  0  0  0  0
  -24.5897  -30.7081   25.7763 H   0  0  0  0  0  0
  -24.8925  -32.2890   26.4894 H   0  0  0  0  0  0
  -25.8047  -30.8879   27.0219 H   0  0  0  0  0  0
  -26.2936  -29.6755   24.1217 H   0  0  0  0  0  0
  -27.4042  -29.7292   25.4708 H   0  0  0  0  0  0
  -27.8801  -30.4300   23.9423 H   0  0  0  0  0  0
  -27.2657  -33.3637   26.2080 H   0  0  0  0  0  0
  -28.3865  -32.6883   25.0346 H   0  0  0  0  0  0
  -28.0702  -31.8465   26.5435 H   0  0  0  0  0  0
  -28.2569  -38.0129   24.7550 H   0  0  0  0  0  0
  -28.1110  -36.2658   24.6229 H   0  0  0  0  0  0
  -27.2308  -37.1390   25.8862 H   0  0  0  0  0  0
  -20.9367  -29.8786   21.6901 H   0  0  0  0  0  0
  -26.0164  -38.2842   24.1439 H   0  0  0  0  0  0
  -32.0159  -19.7394   19.9905 H   0  0  0  0  0  0
  -31.9545  -17.3026   20.0183 H   0  0  0  0  0  0
  -28.0548  -19.9319   21.6137 H   0  0  0  0  0  0
  -32.0801  -23.8228   20.7951 H   0  0  0  0  0  0
  -32.0195  -23.8197   22.5383 H   0  0  0  0  0  0
  -30.4361  -25.4733   21.5628 H   0  0  0  0  0  0
  -29.5930  -24.2778   22.5234 H   0  0  0  0  0  0
  -28.6247  -22.1147   19.5450 H   0  0  0  0  0  0
  -28.2185  -22.3322   21.2225 H   0  0  0  0  0  0
  -29.9772  -24.1627   19.5115 H   0  0  0  0  0  0
  -25.9616  -17.2238   22.7702 H   0  0  0  0  0  0
  -26.1968  -18.5683   21.6604 H   0  0  0  0  0  0
  -27.0509  -18.5274   23.2202 H   0  0  0  0  0  0
  -27.3803  -24.8102   20.9635 H   0  0  0  0  0  0
  -27.6579  -24.7184   19.2409 H   0  0  0  0  0  0
  -28.9474  -15.3674   21.2955 H   0  0  0  0  0  0
  1 25  1  0  0  0
  1 30  2  0  0  0
  1 85  1  0  0  0
  2  3  1  0  0  0
  2 25  1  0  0  0
  2 88  1  0  0  0
  2 89  1  0  0  0
  3  4  1  0  0  0
  3 90  1  0  0  0
  3 91  1  0  0  0
  4  5  1  0  0  0
  4 92  1  0  0  0
  4 93  1  0  0  0
  5  6  1  0  0  0
  5 26  1  0  0  0
  5 94  1  0  0  0
  6 25  1  0  0  0
  6 95  1  0  0  0
  6 96  1  0  0  0
  7  8  2  0  0  0
  7 26  1  0  0  0
  7 29  1  0  0  0
  8  9  1  0  0  0
  8 22  1  0  0  0
  9 10  1  0  0  0
  9 27  2  0  0  0
 10 11  2  0  0  0
 10 15  1  0  0  0
 11 12  1  0  0  0
 11 97  1  0  0  0
 12 13  2  0  0  0
 12 98  1  0  0  0
 13 14  1  0  0  0
 13 31  1  0  0  0
 14 15  2  0  0  0
 14 99  1  0  0  0
 15100  1  0  0  0
 16 17  2  0  0  0
 16 21  1  0  0  0
 16 31  1  0  0  0
 17 18  1  0  0  0
 17101  1  0  0  0
 18 19  2  0  0  0
 18102  1  0  0  0
 19 20  1  0  0  0
 19 24  1  0  0  0
 20 21  2  0  0  0
 20103  1  0  0  0
 21 23  1  0  0  0
 22 28  1  0  0  0
 22 32  2  0  0  0
 26 27  1  0  0  0
 28104  1  0  0  0
 28105  1  0  0  0
 29106  1  0  0  0
 29107  1  0  0  0
 33 34  1  0  0  0
 33 66  1  0  0  0
 33 70  2  0  0  0
 34 36  1  0  0  0
 34 59  1  0  0  0
 34108  1  0  0  0
 35 44  2  0  0  0
 35 45  1  0  0  0
 35 68  1  0  0  0
 36 56  1  0  0  0
 36109  1  0  0  0
 37 39  1  0  0  0
 37 47  1  0  0  0
 37 66  1  0  0  0
 37110  1  0  0  0
 38 43  2  0  0  0
 38 46  1  0  0  0
 38 47  1  0  0  0
 39 64  1  0  0  0
 39 67  2  0  0  0
 40 52  1  0  0  0
 40 53  2  0  0  0
 40 58  1  0  0  0
 41111  1  0  0  0
 41112  1  0  0  0
 41113  1  0  0  0
 41 48  1  0  0  0
 42 43  1  0  0  0
 42 66  1  0  0  0
 42114  1  0  0  0
 42115  1  0  0  0
 43 44  1  0  0  0
 44116  1  0  0  0
 45 46  2  0  0  0
 45117  1  0  0  0
 46118  1  0  0  0
 47119  1  0  0  0
 47120  1  0  0  0
 48 56  1  0  0  0
 48 65  1  0  0  0
 48121  1  0  0  0
 49 50  1  0  0  0
 49 53  1  0  0  0
 49 64  1  0  0  0
 49122  1  0  0  0
 50 51  1  0  0  0
 50123  1  0  0  0
 50124  1  0  0  0
 51 52  1  0  0  0
 51125  1  0  0  0
 51126  1  0  0  0
 52127  1  0  0  0
 52128  1  0  0  0
 53 54  1  0  0  0
 54 55  2  0  0  0
 54129  1  0  0  0
 55 57  1  0  0  0
 55130  1  0  0  0
 56 69  2  0  0  0
 57 58  2  0  0  0
 57131  1  0  0  0
 58132  1  0  0  0
 59 60  1  0  0  0
 59 61  1  0  0  0
 59 62  1  0  0  0
 60133  1  0  0  0
 60134  1  0  0  0
 60135  1  0  0  0
 61136  1  0  0  0
 61137  1  0  0  0
 61138  1  0  0  0
 62139  1  0  0  0
 62140  1  0  0  0
 62141  1  0  0  0
 63 65  1  0  0  0
 63142  1  0  0  0
 63143  1  0  0  0
 63144  1  0  0  0
 64145  1  0  0  0
 65146  1  0  0  0
 68 83  1  0  0  0
 71 72  2  0  0  0
 71 74  1  0  0  0
 71147  1  0  0  0
 72 75  1  0  0  0
 72148  1  0  0  0
 73 74  2  0  0  0
 73 76  1  0  0  0
 73149  1  0  0  0
 74 84  1  0  0  0
 75 76  2  0  0  0
 75 85  1  0  0  0
 76 87  1  0  0  0
 77 78  1  0  0  0
 77 84  1  0  0  0
 77 86  2  0  0  0
 78 79  1  0  0  0
 78150  1  0  0  0
 78151  1  0  0  0
 79 81  1  0  0  0
 79152  1  0  0  0
 79153  1  0  0  0
 80 81  1  0  0  0
 80 84  1  0  0  0
 80154  1  0  0  0
 80155  1  0  0  0
 81 83  1  0  0  0
 81156  1  0  0  0
 82 87  1  0  0  0
 82157  1  0  0  0
 82158  1  0  0  0
 82159  1  0  0  0
 83160  1  0  0  0
 83161  1  0  0  0
 85162  1  0  0  0
M  ISO  4   1 100  68 101  83 101  85 100
M  END
> <chiral flag>
0

> <version>
0

> <s_m_source_file>
/data/baiqing/PycharmProjects/Reinvent-master-3.2/result/LINK_invent/BTK/process_docking_weight1_custom_product_contain_oxygen_bond_distance_aromatic_linkinvent_7_9_3/rearranged_h_0095.sdf

> <i_m_source_file_index>
63

> <r_mmod_Potential_Energy-OPLS-2005>
107.022483825684

> <r_mmod_Stretch_Energy-OPLS-2005>
87.6582565307617

> <r_mmod_Bend_Energy-OPLS-2005>
146.095001220703

> <r_mmod_Torsional_Energy-OPLS-2005>
274.115814208984

> <r_mmod_Improper_Torsional_Energy-OPLS-2005>
3.92289733886719

> <r_mmod_Van_der_Waal_Energy-OPLS-2005>
161.559371948242

> <r_mmod_Electrostatic_Energy-OPLS-2005>
-391.645690917969

> <r_mmod_Solvation_Energy-OPLS-2005>
-219.96369934082

> <b_mmod_Minimization_Converged-OPLS-2005>
0

> <r_mmod_RMS_Derivative-OPLS-2005>
1.26633989810944

$$$$
63
                    3D
 Structure written by MMmdl.
160169  0  0  1  0            999 V2000
  -29.2483  -17.6048   20.5531 C   0  0  0  0  0  0
  -30.0265  -14.6278   19.6516 C   0  0  0  0  0  0
  -29.5335  -13.4647   18.5961 C   0  0  0  0  0  0
  -28.3376  -12.6394   19.0615 C   0  0  0  0  0  0
  -27.5333  -13.6209   19.9113 C   0  0  2  0  0  0
  -28.3012  -14.6137   20.9423 C   0  0  0  0  0  0
  -25.1671  -13.8779   20.6072 C   0  0  0  0  0  0
  -24.1429  -13.0484   20.9385 C   0  0  0  0  0  0
  -24.6600  -11.7150   20.8714 C   0  0  0  0  0  0
  -23.9403  -10.4338   21.0249 C   0  0  0  0  0  0
  -24.3834   -9.4258   21.9102 C   0  0  0  0  0  0
  -23.6423   -8.2326   22.0732 C   0  0  0  0  0  0
  -22.4409   -8.0344   21.3515 C   0  0  0  0  0  0
  -22.0112   -9.0326   20.4599 C   0  0  0  0  0  0
  -22.7522  -10.2159   20.2955 C   0  0  0  0  0  0
  -21.6914   -6.0780   22.5277 C   0  0  0  0  0  0
  -21.4058   -6.5663   23.8220 C   0  0  0  0  0  0
  -21.3690   -5.6802   24.9168 C   0  0  0  0  0  0
  -21.6042   -4.3064   24.7205 C   0  0  0  0  0  0
  -21.8807   -3.8165   23.4324 C   0  0  0  0  0  0
  -21.9202   -4.6989   22.3389 C   0  0  0  0  0  0
  -22.7350  -13.4923   21.1936 C   0  0  0  0  0  0
  -22.1656   -4.2172   21.0970 F   0  0  0  0  0  0
  -21.5627   -3.4547   25.7722 F   0  0  0  0  0  0
  -29.0596  -15.8760   20.3066 N   0  0  0  0  0  0
  -26.2615  -13.0814   20.3904 N   0  0  0  0  0  0
  -25.9706  -11.7510   20.5757 N   0  0  0  0  0  0
  -22.0190  -12.7814   22.0550 N   0  0  0  0  0  0
  -25.2617  -15.2570   20.4369 N   0  0  0  0  0  0
  -30.5195  -17.2905   20.4847 O   0  0  0  0  0  0
  -21.6713   -6.8965   21.4249 O   0  0  0  0  0  0
  -22.2895  -14.5213   20.6842 O   0  0  0  0  0  0
  -24.7761  -31.4252   23.1122 C   0  0  0  0  0  0
  -25.9640  -32.2662   23.7489 C   0  0  1  0  0  0
  -27.9543  -26.2975   18.9687 C   0  0  0  0  0  0
  -25.5523  -33.6860   24.0615 N   0  0  0  0  0  0
  -23.6389  -29.9281   21.5919 C   0  0  2  0  0  0
  -24.9333  -27.5855   20.5831 C   0  0  0  0  0  0
  -22.7213  -29.2436   22.5832 C   0  0  0  0  0  0
  -17.9993  -28.1384   22.8365 C   0  0  0  0  0  0
  -24.1540  -36.6558   23.2682 C   0  0  0  0  0  0
  -25.8708  -28.9422   22.3604 C   0  0  0  0  0  0
  -26.0190  -27.0950   21.7602 C   0  0  0  0  0  0
  -28.2273  -26.1257   20.5035 C   0  0  0  0  0  0
  -26.5418  -26.7678   18.4036 C   0  0  0  0  0  0
  -25.2378  -27.2811   19.1110 C   0  0  0  0  0  0
  -23.9533  -28.8988   20.4717 C   0  0  0  0  0  0
  -25.4207  -36.1988   24.0125 C   0  0  1  0  0  0
  -20.5382  -28.3462   23.1323 C   0  0  2  0  0  0
  -20.6258  -26.9115   22.5589 C   0  0  0  0  0  0
  -19.5441  -26.6246   21.5192 C   0  0  0  0  0  0
  -18.1604  -26.7930   22.1489 C   0  0  0  0  0  0
  -19.1214  -28.8827   23.2779 C   0  0  0  0  0  0
  -18.9292  -30.1431   23.8836 C   0  0  0  0  0  0
  -17.6334  -30.6602   24.0551 C   0  0  0  0  0  0
  -25.9187  -34.8327   23.4452 C   0  0  0  0  0  0
  -16.5210  -29.9141   23.6288 C   0  0  0  0  0  0
  -16.7038  -28.6559   23.0269 C   0  0  0  0  0  0
  -26.5003  -31.6388   25.0942 C   0  0  0  0  0  0
  -25.3867  -31.4325   26.1502 C   0  0  0  0  0  0
  -27.2034  -30.2910   24.8708 C   0  0  0  0  0  0
  -27.5834  -32.5438   25.7243 C   0  0  0  0  0  0
  -27.5498  -37.1347   24.8430 C   0  0  0  0  0  0
  -21.4031  -29.2466   22.3778 N   0  0  0  0  0  0
  -26.4176  -37.2963   23.9391 N   0  0  0  0  0  0
  -24.8711  -30.2303   22.3059 N   0  0  0  0  0  0
  -23.2352  -28.6403   23.5241 O   0  0  0  0  0  0
  -29.1375  -26.7346   18.5038 O   0  0  0  0  0  0
  -26.6380  -34.8324   22.4450 O   0  0  0  0  0  0
  -23.6693  -31.9309   23.4102 O   0  0  0  0  0  0
  -26.2776  -25.3288   20.4325 C   0  0  0  0  0  0
  -27.3027  -28.0166   20.3744 C   0  0  0  0  0  0
  -28.2393  -26.4340   22.8235 C   0  0  0  0  0  0
  -27.2925  -23.7617   21.1545 C   0  0  0  0  0  0
  -28.2650  -27.9429   21.8867 C   0  0  0  0  0  0
  -27.8660  -24.7452   22.4569 C   0  0  0  0  0  0
  -30.5354  -28.7373   22.4758 C   0  0  0  0  0  0
  -27.6523  -21.4096   20.8418 C   0  0  0  0  0  0
  -31.8115  -28.9361   21.5559 C   0  0  0  0  0  0
  -31.6120  -28.8245   19.9804 C   0  0  0  0  0  0
  -29.4093  -29.6961   20.6413 C   0  0  0  0  0  0
  -30.1236  -28.6841   19.6938 C   0  0  1  0  0  0
  -29.4444  -28.1675   18.3820 C   0  0  0  0  0  0
  -29.3072  -28.9568   21.9140 N   0  0  0  0  0  0
  -28.3331  -19.4550   20.6817 N   0  0  0  0  0  0
  -30.6873  -28.4208   23.6584 O   0  0  0  0  0  0
  -26.4978  -21.1797   20.4617 O   0  0  0  0  0  0
  -28.3025  -23.9671   23.4742 F   0  0  0  0  0  0
  -30.7881  -15.1674   19.0859 H   0  0  0  0  0  0
  -30.6215  -14.1618   20.4422 H   0  0  0  0  0  0
  -30.3653  -12.8071   18.3429 H   0  0  0  0  0  0
  -29.2608  -13.9649   17.6657 H   0  0  0  0  0  0
  -28.6745  -11.8021   19.6768 H   0  0  0  0  0  0
  -27.7586  -12.2388   18.2261 H   0  0  0  0  0  0
  -27.2089  -14.3172   19.1359 H   0  0  0  0  0  0
  -28.8956  -14.0474   21.6644 H   0  0  0  0  0  0
  -27.5602  -15.0679   21.5969 H   0  0  0  0  0  0
  -25.2954   -9.5709   22.4730 H   0  0  0  0  0  0
  -24.0087   -7.4733   22.7504 H   0  0  0  0  0  0
  -21.1045   -8.8862   19.8901 H   0  0  0  0  0  0
  -22.3977  -10.9672   19.6051 H   0  0  0  0  0  0
  -21.2075   -7.6177   23.9730 H   0  0  0  0  0  0
  -21.1527   -6.0531   25.9076 H   0  0  0  0  0  0
  -22.0557   -2.7629   23.2816 H   0  0  0  0  0  0
  -22.4004  -11.9532   22.4885 H   0  0  0  0  0  0
  -21.0745  -13.0594   22.2815 H   0  0  0  0  0  0
  -24.4607  -15.8738   20.5232 H   0  0  0  0  0  0
  -26.1025  -15.7314   20.1294 H   0  0  0  0  0  0
  -26.7672  -32.2847   23.0110 H   0  0  0  0  0  0
  -24.8971  -33.7701   24.8263 H   0  0  0  0  0  0
  -23.1723  -30.8171   21.1643 H   0  0  0  0  0  0
  -23.3785  -35.8866   23.2962 H   0  0  0  0  0  0
  -24.3638  -36.8710   22.2177 H   0  0  0  0  0  0
  -23.7310  -37.5560   23.7176 H   0  0  0  0  0  0
  -26.7263  -29.5795   22.1736 H   0  0  0  0  0  0
  -25.8522  -28.7022   23.4095 H   0  0  0  0  0  0
  -29.2641  -25.9721   20.8062 H   0  0  0  0  0  0
  -26.5333  -26.9051   17.3316 H   0  0  0  0  0  0
  -24.5156  -27.6426   18.3939 H   0  0  0  0  0  0
  -24.3809  -29.5074   19.6744 H   0  0  0  0  0  0
  -23.0097  -28.5414   20.0588 H   0  0  0  0  0  0
  -25.1497  -36.0480   25.0600 H   0  0  0  0  0  0
  -20.9025  -28.3039   24.1627 H   0  0  0  0  0  0
  -20.4834  -26.2125   23.3839 H   0  0  0  0  0  0
  -21.6168  -26.6863   22.1648 H   0  0  0  0  0  0
  -19.6543  -25.6162   21.1214 H   0  0  0  0  0  0
  -19.6556  -27.3078   20.6773 H   0  0  0  0  0  0
  -17.3927  -26.6797   21.3833 H   0  0  0  0  0  0
  -17.9865  -26.0080   22.8857 H   0  0  0  0  0  0
  -19.7838  -30.7131   24.2238 H   0  0  0  0  0  0
  -17.4954  -31.6268   24.5196 H   0  0  0  0  0  0
  -15.5231  -30.3091   23.7600 H   0  0  0  0  0  0
  -15.8419  -28.0909   22.6977 H   0  0  0  0  0  0
  -24.6181  -30.7314   25.8226 H   0  0  0  0  0  0
  -24.8890  -32.3728   26.3896 H   0  0  0  0  0  0
  -25.7942  -31.0474   27.0865 H   0  0  0  0  0  0
  -26.5547  -29.4513   25.1044 H   0  0  0  0  0  0
  -28.0183  -30.1483   25.5806 H   0  0  0  0  0  0
  -27.6781  -30.2038   23.9003 H   0  0  0  0  0  0
  -27.1976  -33.5234   26.0066 H   0  0  0  0  0  0
  -28.4088  -32.7044   25.0294 H   0  0  0  0  0  0
  -27.9974  -32.1121   26.6373 H   0  0  0  0  0  0
  -28.2215  -37.9901   24.7549 H   0  0  0  0  0  0
  -28.1298  -36.2379   24.6158 H   0  0  0  0  0  0
  -27.2234  -37.0761   25.8829 H   0  0  0  0  0  0
  -21.0055  -29.7732   21.6120 H   0  0  0  0  0  0
  -25.9795  -38.1919   24.1361 H   0  0  0  0  0  0
  -25.5341  -24.9718   19.7194 H   0  0  0  0  0  0
  -27.0488  -28.8643   19.7462 H   0  0  0  0  0  0
  -28.7826  -26.5001   23.7535 H   0  0  0  0  0  0
  -32.5730  -28.2209   21.8664 H   0  0  0  0  0  0
  -32.2304  -29.9145   21.7807 H   0  0  0  0  0  0
  -32.1478  -27.9635   19.5753 H   0  0  0  0  0  0
  -32.0097  -29.7017   19.4679 H   0  0  0  0  0  0
  -28.4846  -30.1450   20.2766 H   0  0  0  0  0  0
  -30.0110  -30.5991   20.7866 H   0  0  0  0  0  0
  -30.1058  -27.7166   20.1649 H   0  0  0  0  0  0
  -30.1093  -28.3311   17.5342 H   0  0  0  0  0  0
  -28.5454  -28.7477   18.1522 H   0  0  0  0  0  0
  -27.4098  -19.0753   20.5177 H   0  0  0  0  0  0
  1 25  1  0  0  0
  1 30  2  0  0  0
  1 85  1  0  0  0
  2  3  1  0  0  0
  2 25  1  0  0  0
  2 89  1  0  0  0
  2 90  1  0  0  0
  3  4  1  0  0  0
  3 91  1  0  0  0
  3 92  1  0  0  0
  4  5  1  0  0  0
  4 93  1  0  0  0
  4 94  1  0  0  0
  5  6  1  0  0  0
  5 26  1  0  0  0
  5 95  1  0  0  0
  6 25  1  0  0  0
  6 96  1  0  0  0
  6 97  1  0  0  0
  7  8  2  0  0  0
  7 26  1  0  0  0
  7 29  1  0  0  0
  8  9  1  0  0  0
  8 22  1  0  0  0
  9 10  1  0  0  0
  9 27  2  0  0  0
 10 11  2  0  0  0
 10 15  1  0  0  0
 11 12  1  0  0  0
 11 98  1  0  0  0
 12 13  2  0  0  0
 12 99  1  0  0  0
 13 14  1  0  0  0
 13 31  1  0  0  0
 14 15  2  0  0  0
 14100  1  0  0  0
 15101  1  0  0  0
 16 17  2  0  0  0
 16 21  1  0  0  0
 16 31  1  0  0  0
 17 18  1  0  0  0
 17102  1  0  0  0
 18 19  2  0  0  0
 18103  1  0  0  0
 19 20  1  0  0  0
 19 24  1  0  0  0
 20 21  2  0  0  0
 20104  1  0  0  0
 21 23  1  0  0  0
 22 28  1  0  0  0
 22 32  2  0  0  0
 26 27  1  0  0  0
 28105  1  0  0  0
 28106  1  0  0  0
 29107  1  0  0  0
 29108  1  0  0  0
 33 34  1  0  0  0
 33 66  1  0  0  0
 33 70  2  0  0  0
 34 36  1  0  0  0
 34 59  1  0  0  0
 34109  1  0  0  0
 35 44  2  0  0  0
 35 45  1  0  0  0
 35 68  1  0  0  0
 36 56  1  0  0  0
 36110  1  0  0  0
 37 39  1  0  0  0
 37 47  1  0  0  0
 37 66  1  0  0  0
 37111  1  0  0  0
 38 43  2  0  0  0
 38 46  1  0  0  0
 38 47  1  0  0  0
 39 64  1  0  0  0
 39 67  2  0  0  0
 40 52  1  0  0  0
 40 53  2  0  0  0
 40 58  1  0  0  0
 41112  1  0  0  0
 41113  1  0  0  0
 41114  1  0  0  0
 41 48  1  0  0  0
 42 43  1  0  0  0
 42 66  1  0  0  0
 42115  1  0  0  0
 42116  1  0  0  0
 43 44  1  0  0  0
 44117  1  0  0  0
 45 46  2  0  0  0
 45118  1  0  0  0
 46119  1  0  0  0
 47120  1  0  0  0
 47121  1  0  0  0
 48 56  1  0  0  0
 48 65  1  0  0  0
 48122  1  0  0  0
 49 50  1  0  0  0
 49 53  1  0  0  0
 49 64  1  0  0  0
 49123  1  0  0  0
 50 51  1  0  0  0
 50124  1  0  0  0
 50125  1  0  0  0
 51 52  1  0  0  0
 51126  1  0  0  0
 51127  1  0  0  0
 52128  1  0  0  0
 52129  1  0  0  0
 53 54  1  0  0  0
 54 55  2  0  0  0
 54130  1  0  0  0
 55 57  1  0  0  0
 55131  1  0  0  0
 56 69  2  0  0  0
 57 58  2  0  0  0
 57132  1  0  0  0
 58133  1  0  0  0
 59 60  1  0  0  0
 59 61  1  0  0  0
 59 62  1  0  0  0
 60134  1  0  0  0
 60135  1  0  0  0
 60136  1  0  0  0
 61137  1  0  0  0
 61138  1  0  0  0
 61139  1  0  0  0
 62140  1  0  0  0
 62141  1  0  0  0
 62142  1  0  0  0
 63 65  1  0  0  0
 63143  1  0  0  0
 63144  1  0  0  0
 63145  1  0  0  0
 64146  1  0  0  0
 65147  1  0  0  0
 68 83  1  0  0  0
 71 72  2  0  0  0
 71 74  1  0  0  0
 71148  1  0  0  0
 72 75  1  0  0  0
 72149  1  0  0  0
 73 75  2  0  0  0
 73 76  1  0  0  0
 73150  1  0  0  0
 74 76  2  0  0  0
 74 78  1  0  0  0
 75 84  1  0  0  0
 76 88  1  0  0  0
 77 79  1  0  0  0
 77 84  1  0  0  0
 77 86  2  0  0  0
 78 85  1  0  0  0
 78 87  2  0  0  0
 79 80  1  0  0  0
 79151  1  0  0  0
 79152  1  0  0  0
 80 82  1  0  0  0
 80153  1  0  0  0
 80154  1  0  0  0
 81 82  1  0  0  0
 81 84  1  0  0  0
 81155  1  0  0  0
 81156  1  0  0  0
 82 83  1  0  0  0
 82157  1  0  0  0
 83158  1  0  0  0
 83159  1  0  0  0
 85160  1  0  0  0
M  ISO  4   1 100  68 101  83 101  85 100
M  END
> <chiral flag>
0

> <version>
0

> <s_m_source_file>
/data/baiqing/PycharmProjects/Reinvent-master-3.2/result/LINK_invent/BTK/process_docking_weight1_custom_product_contain_oxygen_bond_distance_aromatic_linkinvent_7_9_3/rearranged_h_0095.sdf

> <i_m_source_file_index>
64

> <r_mmod_Potential_Energy-OPLS-2005>
27720.14453125

> <r_mmod_Stretch_Energy-OPLS-2005>
14393.59375

> <r_mmod_Bend_Energy-OPLS-2005>
2114.29565429688

> <r_mmod_Torsional_Energy-OPLS-2005>
651.511657714844

> <r_mmod_Improper_Torsional_Energy-OPLS-2005>
75.0080184936523

> <r_mmod_Van_der_Waal_Energy-OPLS-2005>
3781.43603515625

> <r_mmod_Electrostatic_Energy-OPLS-2005>
-385.266662597656

> <r_mmod_Solvation_Energy-OPLS-2005>
-231.573699951172

> <b_mmod_Minimization_Converged-OPLS-2005>
0

> <r_mmod_RMS_Derivative-OPLS-2005>
13.5140180587769

$$$$
64
                    3D
 Structure written by MMmdl.
166175  0  0  1  0            999 V2000
  -30.6062  -14.6658   20.6174 C   0  0  0  0  0  0
  -30.4441  -12.4546   19.4395 C   0  0  0  0  0  0
  -29.5072  -12.5799   18.2148 C   0  0  0  0  0  0
  -28.0223  -12.4003   18.6065 C   0  0  0  0  0  0
  -27.6499  -13.2166   19.8725 C   0  0  2  0  0  0
  -28.6905  -12.9491   20.9713 C   0  0  0  0  0  0
  -25.2525  -13.8156   20.5689 C   0  0  0  0  0  0
  -24.1786  -13.0425   20.9155 C   0  0  0  0  0  0
  -24.6357  -11.6906   20.8684 C   0  0  0  0  0  0
  -23.9056  -10.4280   21.0368 C   0  0  0  0  0  0
  -24.3622   -9.4206   21.9145 C   0  0  0  0  0  0
  -23.6301   -8.2241   22.0721 C   0  0  0  0  0  0
  -22.4279   -8.0264   21.3530 C   0  0  0  0  0  0
  -21.9915   -9.0234   20.4640 C   0  0  0  0  0  0
  -22.7235  -10.2112   20.3035 C   0  0  0  0  0  0
  -21.6858   -6.0741   22.5288 C   0  0  0  0  0  0
  -21.4015   -6.5643   23.8223 C   0  0  0  0  0  0
  -21.3658   -5.6783   24.9176 C   0  0  0  0  0  0
  -21.6050   -4.3051   24.7235 C   0  0  0  0  0  0
  -21.8814   -3.8155   23.4348 C   0  0  0  0  0  0
  -21.9184   -4.6967   22.3403 C   0  0  0  0  0  0
  -22.7825  -13.5226   21.1850 C   0  0  0  0  0  0
  -22.1662   -4.2168   21.0977 F   0  0  0  0  0  0
  -21.5628   -3.4531   25.7735 F   0  0  0  0  0  0
  -29.9932  -13.4291   20.4678 N   0  0  0  0  0  0
  -26.2950  -12.9340   20.3328 N   0  0  0  0  0  0
  -25.9277  -11.6498   20.5694 N   0  0  0  0  0  0
  -22.0518  -12.8186   22.0416 N   0  0  0  0  0  0
  -25.4245  -15.1869   20.4151 N   0  0  0  0  0  0
  -31.7351  -14.8278   20.1343 O   0  0  0  0  0  0
  -21.6636   -6.8873   21.4245 O   0  0  0  0  0  0
  -22.3490  -14.5545   20.6740 O   0  0  0  0  0  0
  -24.6247  -31.8632   23.2028 C   0  0  0  0  0  0
  -25.9095  -32.4793   23.8370 C   0  0  1  0  0  0
  -27.2314  -27.3324   20.1160 C   0  0  0  0  0  0
  -25.5919  -33.8594   24.2305 N   0  0  0  0  0  0
  -23.4190  -30.4851   21.5438 C   0  0  2  0  0  0
  -24.8686  -28.9433   20.1119 C   0  0  0  0  0  0
  -22.7478  -29.4639   22.4932 C   0  0  0  0  0  0
  -18.0285  -28.1396   22.8485 C   0  0  0  0  0  0
  -24.1488  -36.7301   23.2636 C   0  0  0  0  0  0
  -25.9584  -30.7994   21.3711 C   0  0  0  0  0  0
  -26.0355  -29.4259   20.7155 C   0  0  0  0  0  0
  -27.2203  -28.6315   20.7086 C   0  0  0  0  0  0
  -26.0351  -26.8980   19.4971 C   0  0  0  0  0  0
  -24.8680  -27.6827   19.4971 C   0  0  0  0  0  0
  -23.6363  -29.8214   20.1591 C   0  0  0  0  0  0
  -25.4110  -36.3096   24.0331 C   0  0  1  0  0  0
  -20.5885  -28.3694   23.1294 C   0  0  2  0  0  0
  -20.6779  -26.9424   22.5410 C   0  0  0  0  0  0
  -19.5754  -26.6394   21.5212 C   0  0  0  0  0  0
  -18.1929  -26.7937   22.1626 C   0  0  0  0  0  0
  -19.1539  -28.8863   23.2881 C   0  0  0  0  0  0
  -18.9465  -30.1462   23.8901 C   0  0  0  0  0  0
  -17.6466  -30.6595   24.0569 C   0  0  0  0  0  0
  -25.9047  -34.9458   23.5115 C   0  0  0  0  0  0
  -16.5355  -29.9101   23.6324 C   0  0  0  0  0  0
  -16.7273  -28.6518   23.0346 C   0  0  0  0  0  0
  -26.4490  -31.6579   25.0717 C   0  0  0  0  0  0
  -25.3737  -31.3694   26.1450 C   0  0  0  0  0  0
  -27.0314  -30.3008   24.6120 C   0  0  0  0  0  0
  -27.6058  -32.4295   25.7490 C   0  0  0  0  0  0
  -27.5586  -37.1807   24.8470 C   0  0  0  0  0  0
  -21.4192  -29.3056   22.3700 N   0  0  0  0  0  0
  -26.4295  -37.3785   23.9416 N   0  0  0  0  0  0
  -24.6858  -31.0649   22.0976 N   0  0  0  0  0  0
  -23.4202  -28.8181   23.3011 O   0  0  0  0  0  0
  -28.3596  -26.4967   20.1570 O   0  0  0  0  0  0
  -26.5611  -34.8922   22.4680 O   0  0  0  0  0  0
  -23.5405  -32.1438   23.7337 O   0  0  0  0  0  0
  -30.9863  -19.4237   21.1729 C   0  0  0  0  0  0
  -31.0293  -18.0091   21.3280 C   0  0  0  0  0  0
  -29.1139  -17.8086   19.8975 C   0  0  0  0  0  0
  -29.0904  -19.2293   19.7000 C   0  0  0  0  0  0
  -30.0077  -20.0939   20.3777 C   0  0  0  0  0  0
  -30.0721  -17.1576   20.7216 C   0  0  0  0  0  0
  -31.4723  -23.2413   19.0090 C   0  0  0  0  0  0
  -29.0622  -22.4942   20.4045 C   0  0  0  0  0  0
  -30.4521  -24.3608   19.1927 C   0  0  0  0  0  0
  -31.4397  -22.1197   20.0501 C   0  0  0  0  0  0
  -29.3768  -24.0551   20.2655 C   0  0  1  0  0  0
  -28.0712  -19.7772   18.7151 C   0  0  0  0  0  0
  -28.9366  -16.8280   23.3036 C   0  0  0  0  0  0
  -28.1472  -25.0357   20.0528 C   0  0  0  0  0  0
  -29.0716  -15.6097   22.3617 C   0  0  0  0  0  0
  -30.0824  -21.5675   20.2253 N   0  0  0  0  0  0
  -29.9058  -15.7591   21.1438 N   0  0  0  0  0  0
  -32.2724  -23.2443   18.0722 O   0  0  0  0  0  0
  -27.9110  -22.1567   20.6850 O   0  0  0  0  0  0
  -31.4756  -12.6257   19.1292 H   0  0  0  0  0  0
  -30.4322  -11.4354   19.8275 H   0  0  0  0  0  0
  -29.7908  -11.8615   17.4430 H   0  0  0  0  0  0
  -29.6377  -13.5710   17.7755 H   0  0  0  0  0  0
  -27.8436  -11.3374   18.7759 H   0  0  0  0  0  0
  -27.3818  -12.6879   17.7721 H   0  0  0  0  0  0
  -27.6946  -14.2751   19.6090 H   0  0  0  0  0  0
  -28.7394  -11.8738   21.1502 H   0  0  0  0  0  0
  -28.3718  -13.3085   21.9401 H   0  0  0  0  0  0
  -25.2766   -9.5705   22.4715 H   0  0  0  0  0  0
  -24.0032   -7.4644   22.7428 H   0  0  0  0  0  0
  -21.0852   -8.8750   19.8946 H   0  0  0  0  0  0
  -22.3685  -10.9649   19.6149 H   0  0  0  0  0  0
  -21.2016   -7.6152   23.9740 H   0  0  0  0  0  0
  -21.1496   -6.0508   25.9078 H   0  0  0  0  0  0
  -22.0601   -2.7627   23.2842 H   0  0  0  0  0  0
  -22.4162  -11.9835   22.4759 H   0  0  0  0  0  0
  -21.1135  -13.1190   22.2645 H   0  0  0  0  0  0
  -24.6566  -15.8411   20.5226 H   0  0  0  0  0  0
  -26.2862  -15.6268   20.1226 H   0  0  0  0  0  0
  -26.7165  -32.5489   23.1131 H   0  0  0  0  0  0
  -25.0067  -33.9749   25.0451 H   0  0  0  0  0  0
  -22.7103  -31.3027   21.3968 H   0  0  0  0  0  0
  -23.3750  -35.9636   23.3296 H   0  0  0  0  0  0
  -24.3591  -36.8924   22.2056 H   0  0  0  0  0  0
  -23.7234  -37.6497   23.6658 H   0  0  0  0  0  0
  -26.0788  -31.5636   20.6015 H   0  0  0  0  0  0
  -26.8435  -30.8575   21.9936 H   0  0  0  0  0  0
  -28.1161  -28.9951   21.1911 H   0  0  0  0  0  0
  -25.9657  -25.9370   19.0116 H   0  0  0  0  0  0
  -23.9718  -27.3037   19.0266 H   0  0  0  0  0  0
  -23.7600  -30.5990   19.4044 H   0  0  0  0  0  0
  -22.7580  -29.2506   19.8516 H   0  0  0  0  0  0
  -25.1282  -36.1958   25.0820 H   0  0  0  0  0  0
  -20.9952  -28.3257   24.1424 H   0  0  0  0  0  0
  -20.5687  -26.2305   23.3605 H   0  0  0  0  0  0
  -21.6651  -26.7467   22.1206 H   0  0  0  0  0  0
  -19.6922  -25.6295   21.1258 H   0  0  0  0  0  0
  -19.6693  -27.3197   20.6734 H   0  0  0  0  0  0
  -17.4199  -26.6682   21.4027 H   0  0  0  0  0  0
  -18.0333  -26.0082   22.9029 H   0  0  0  0  0  0
  -19.7939  -30.7282   24.2273 H   0  0  0  0  0  0
  -17.5018  -31.6275   24.5177 H   0  0  0  0  0  0
  -15.5357  -30.3016   23.7631 H   0  0  0  0  0  0
  -15.8674  -28.0841   22.7053 H   0  0  0  0  0  0
  -24.5925  -30.7019   25.7794 H   0  0  0  0  0  0
  -24.8906  -32.2841   26.4890 H   0  0  0  0  0  0
  -25.8087  -30.8881   27.0220 H   0  0  0  0  0  0
  -26.2869  -29.6769   24.1156 H   0  0  0  0  0  0
  -27.4050  -29.7235   25.4590 H   0  0  0  0  0  0
  -27.8726  -30.4306   23.9305 H   0  0  0  0  0  0
  -27.2684  -33.3599   26.2071 H   0  0  0  0  0  0
  -28.3878  -32.6845   25.0325 H   0  0  0  0  0  0
  -28.0716  -31.8410   26.5408 H   0  0  0  0  0  0
  -28.2591  -38.0117   24.7515 H   0  0  0  0  0  0
  -28.1093  -36.2640   24.6288 H   0  0  0  0  0  0
  -27.2307  -37.1449   25.8875 H   0  0  0  0  0  0
  -20.9365  -29.8815   21.6953 H   0  0  0  0  0  0
  -26.0176  -38.2861   24.1417 H   0  0  0  0  0  0
  -31.7258  -20.0023   21.7067 H   0  0  0  0  0  0
  -31.7629  -17.5839   21.9979 H   0  0  0  0  0  0
  -28.3489  -17.2065   19.4287 H   0  0  0  0  0  0
  -29.9700  -24.5286   18.2295 H   0  0  0  0  0  0
  -30.9791  -25.2818   19.4407 H   0  0  0  0  0  0
  -31.8002  -22.5074   21.0037 H   0  0  0  0  0  0
  -32.1432  -21.3501   19.7337 H   0  0  0  0  0  0
  -29.8072  -24.3171   21.2326 H   0  0  0  0  0  0
  -27.8063  -19.0197   17.9773 H   0  0  0  0  0  0
  -28.4716  -20.6327   18.1710 H   0  0  0  0  0  0
  -27.1587  -20.0804   19.2289 H   0  0  0  0  0  0
  -28.3620  -16.5485   24.1868 H   0  0  0  0  0  0
  -28.4022  -17.6567   22.8365 H   0  0  0  0  0  0
  -29.9027  -17.1907   23.6542 H   0  0  0  0  0  0
  -27.3652  -24.7629   20.7632 H   0  0  0  0  0  0
  -27.7556  -24.8146   19.0598 H   0  0  0  0  0  0
  -28.0581  -15.3657   22.0443 H   0  0  0  0  0  0
  -29.4581  -14.7976   22.9785 H   0  0  0  0  0  0
  1 25  1  0  0  0
  1 30  2  0  0  0
  1 87  1  0  0  0
  2  3  1  0  0  0
  2 25  1  0  0  0
  2 90  1  0  0  0
  2 91  1  0  0  0
  3  4  1  0  0  0
  3 92  1  0  0  0
  3 93  1  0  0  0
  4  5  1  0  0  0
  4 94  1  0  0  0
  4 95  1  0  0  0
  5  6  1  0  0  0
  5 26  1  0  0  0
  5 96  1  0  0  0
  6 25  1  0  0  0
  6 97  1  0  0  0
  6 98  1  0  0  0
  7  8  2  0  0  0
  7 26  1  0  0  0
  7 29  1  0  0  0
  8  9  1  0  0  0
  8 22  1  0  0  0
  9 10  1  0  0  0
  9 27  2  0  0  0
 10 11  2  0  0  0
 10 15  1  0  0  0
 11 12  1  0  0  0
 11 99  1  0  0  0
 12 13  2  0  0  0
 12100  1  0  0  0
 13 14  1  0  0  0
 13 31  1  0  0  0
 14 15  2  0  0  0
 14101  1  0  0  0
 15102  1  0  0  0
 16 17  2  0  0  0
 16 21  1  0  0  0
 16 31  1  0  0  0
 17 18  1  0  0  0
 17103  1  0  0  0
 18 19  2  0  0  0
 18104  1  0  0  0
 19 20  1  0  0  0
 19 24  1  0  0  0
 20 21  2  0  0  0
 20105  1  0  0  0
 21 23  1  0  0  0
 22 28  1  0  0  0
 22 32  2  0  0  0
 26 27  1  0  0  0
 28106  1  0  0  0
 28107  1  0  0  0
 29108  1  0  0  0
 29109  1  0  0  0
 33 34  1  0  0  0
 33 66  1  0  0  0
 33 70  2  0  0  0
 34 36  1  0  0  0
 34 59  1  0  0  0
 34110  1  0  0  0
 35 44  2  0  0  0
 35 45  1  0  0  0
 35 68  1  0  0  0
 36 56  1  0  0  0
 36111  1  0  0  0
 37 39  1  0  0  0
 37 47  1  0  0  0
 37 66  1  0  0  0
 37112  1  0  0  0
 38 43  2  0  0  0
 38 46  1  0  0  0
 38 47  1  0  0  0
 39 64  1  0  0  0
 39 67  2  0  0  0
 40 52  1  0  0  0
 40 53  2  0  0  0
 40 58  1  0  0  0
 41113  1  0  0  0
 41114  1  0  0  0
 41115  1  0  0  0
 41 48  1  0  0  0
 42 43  1  0  0  0
 42 66  1  0  0  0
 42116  1  0  0  0
 42117  1  0  0  0
 43 44  1  0  0  0
 44118  1  0  0  0
 45 46  2  0  0  0
 45119  1  0  0  0
 46120  1  0  0  0
 47121  1  0  0  0
 47122  1  0  0  0
 48 56  1  0  0  0
 48 65  1  0  0  0
 48123  1  0  0  0
 49 50  1  0  0  0
 49 53  1  0  0  0
 49 64  1  0  0  0
 49124  1  0  0  0
 50 51  1  0  0  0
 50125  1  0  0  0
 50126  1  0  0  0
 51 52  1  0  0  0
 51127  1  0  0  0
 51128  1  0  0  0
 52129  1  0  0  0
 52130  1  0  0  0
 53 54  1  0  0  0
 54 55  2  0  0  0
 54131  1  0  0  0
 55 57  1  0  0  0
 55132  1  0  0  0
 56 69  2  0  0  0
 57 58  2  0  0  0
 57133  1  0  0  0
 58134  1  0  0  0
 59 60  1  0  0  0
 59 61  1  0  0  0
 59 62  1  0  0  0
 60135  1  0  0  0
 60136  1  0  0  0
 60137  1  0  0  0
 61138  1  0  0  0
 61139  1  0  0  0
 61140  1  0  0  0
 62141  1  0  0  0
 62142  1  0  0  0
 62143  1  0  0  0
 63 65  1  0  0  0
 63144  1  0  0  0
 63145  1  0  0  0
 63146  1  0  0  0
 64147  1  0  0  0
 65148  1  0  0  0
 68 84  1  0  0  0
 71 72  2  0  0  0
 71 75  1  0  0  0
 71149  1  0  0  0
 72 76  1  0  0  0
 72150  1  0  0  0
 73 74  1  0  0  0
 73 76  2  0  0  0
 73151  1  0  0  0
 74 75  2  0  0  0
 74 82  1  0  0  0
 75 86  1  0  0  0
 76 87  1  0  0  0
 77 79  1  0  0  0
 77 80  1  0  0  0
 77 88  2  0  0  0
 78 81  1  0  0  0
 78 86  1  0  0  0
 78 89  2  0  0  0
 79 81  1  0  0  0
 79152  1  0  0  0
 79153  1  0  0  0
 80 86  1  0  0  0
 80154  1  0  0  0
 80155  1  0  0  0
 81 84  1  0  0  0
 81156  1  0  0  0
 82157  1  0  0  0
 82158  1  0  0  0
 82159  1  0  0  0
 83 85  1  0  0  0
 83160  1  0  0  0
 83161  1  0  0  0
 83162  1  0  0  0
 84163  1  0  0  0
 84164  1  0  0  0
 85 87  1  0  0  0
 85165  1  0  0  0
 85166  1  0  0  0
M  ISO  4   1 100  68 101  84 101  87 100
M  END
> <chiral flag>
0

> <version>
0

> <s_m_source_file>
/data/baiqing/PycharmProjects/Reinvent-master-3.2/result/LINK_invent/BTK/process_docking_weight1_custom_product_contain_oxygen_bond_distance_aromatic_linkinvent_7_9_3/rearranged_h_0095.sdf

> <i_m_source_file_index>
65

> <r_mmod_Potential_Energy-OPLS-2005>
317.768157958984

> <r_mmod_Stretch_Energy-OPLS-2005>
103.165718078613

> <r_mmod_Bend_Energy-OPLS-2005>
160.960266113281

> <r_mmod_Torsional_Energy-OPLS-2005>
373.444763183594

> <r_mmod_Improper_Torsional_Energy-OPLS-2005>
6.401686668396

> <r_mmod_Van_der_Waal_Energy-OPLS-2005>
179.741073608398

> <r_mmod_Electrostatic_Energy-OPLS-2005>
-333.095642089844

> <r_mmod_Solvation_Energy-OPLS-2005>
-220.399612426758

> <b_mmod_Minimization_Converged-OPLS-2005>
0

> <r_mmod_RMS_Derivative-OPLS-2005>
2.9757251739502

$$$$
65
                    3D
 Structure written by MMmdl.
151159  0  0  1  0            999 V2000
  -30.5158  -15.0327   20.4084 C   0  0  0  0  0  0
  -30.4393  -12.6365   19.5370 C   0  0  0  0  0  0
  -29.5346  -12.5533   18.2831 C   0  0  0  0  0  0
  -28.0676  -12.3239   18.6884 C   0  0  0  0  0  0
  -27.6298  -13.2591   19.8451 C   0  0  2  0  0  0
  -28.6623  -13.3073   20.9918 C   0  0  0  0  0  0
  -25.2450  -13.8235   20.5723 C   0  0  0  0  0  0
  -24.1771  -13.0439   20.9208 C   0  0  0  0  0  0
  -24.6403  -11.6930   20.8733 C   0  0  0  0  0  0
  -23.9089  -10.4294   21.0392 C   0  0  0  0  0  0
  -24.3633   -9.4211   21.9176 C   0  0  0  0  0  0
  -23.6301   -8.2250   22.0754 C   0  0  0  0  0  0
  -22.4283   -8.0286   21.3544 C   0  0  0  0  0  0
  -21.9921   -9.0260   20.4645 C   0  0  0  0  0  0
  -22.7256  -10.2134   20.3049 C   0  0  0  0  0  0
  -21.6857   -6.0737   22.5277 C   0  0  0  0  0  0
  -21.4017   -6.5640   23.8210 C   0  0  0  0  0  0
  -21.3660   -5.6792   24.9171 C   0  0  0  0  0  0
  -21.6045   -4.3055   24.7221 C   0  0  0  0  0  0
  -21.8820   -3.8147   23.4342 C   0  0  0  0  0  0
  -21.9194   -4.6965   22.3398 C   0  0  0  0  0  0
  -22.7791  -13.5204   21.1864 C   0  0  0  0  0  0
  -22.1663   -4.2150   21.0977 F   0  0  0  0  0  0
  -21.5627   -3.4539   25.7735 F   0  0  0  0  0  0
  -29.9414  -13.7470   20.4153 N   0  0  0  0  0  0
  -26.2886  -12.9487   20.3258 N   0  0  0  0  0  0
  -25.9342  -11.6601   20.5724 N   0  0  0  0  0  0
  -22.0451  -12.8193   22.0429 N   0  0  0  0  0  0
  -25.4107  -15.1968   20.4198 N   0  0  0  0  0  0
  -31.6779  -15.0925   19.9845 O   0  0  0  0  0  0
  -21.6644   -6.8885   21.4242 O   0  0  0  0  0  0
  -22.3468  -14.5504   20.6707 O   0  0  0  0  0  0
  -24.6477  -31.8364   23.1809 C   0  0  0  0  0  0
  -25.9226  -32.4649   23.8228 C   0  0  1  0  0  0
  -27.2267  -27.0802   20.1549 C   0  0  0  0  0  0
  -25.5945  -33.8459   24.2143 N   0  0  0  0  0  0
  -23.4555  -30.4499   21.5256 C   0  0  2  0  0  0
  -24.9095  -28.8638   20.1004 C   0  0  0  0  0  0
  -22.7591  -29.4495   22.4823 C   0  0  0  0  0  0
  -18.0307  -28.1398   22.8471 C   0  0  0  0  0  0
  -24.1487  -36.7236   23.2646 C   0  0  0  0  0  0
  -26.0123  -30.6894   21.3900 C   0  0  0  0  0  0
  -26.0823  -29.2948   20.7314 C   0  0  0  0  0  0
  -27.2328  -28.4146   20.7482 C   0  0  0  0  0  0
  -26.0338  -26.7620   19.4722 C   0  0  0  0  0  0
  -24.9014  -27.6142   19.4552 C   0  0  0  0  0  0
  -23.6857  -29.7707   20.1465 C   0  0  0  0  0  0
  -25.4123  -36.3003   24.0310 C   0  0  1  0  0  0
  -20.5921  -28.3726   23.1219 C   0  0  2  0  0  0
  -20.6781  -26.9422   22.5405 C   0  0  0  0  0  0
  -19.5757  -26.6377   21.5208 C   0  0  0  0  0  0
  -18.1940  -26.7935   22.1618 C   0  0  0  0  0  0
  -19.1566  -28.8881   23.2834 C   0  0  0  0  0  0
  -18.9482  -30.1475   23.8864 C   0  0  0  0  0  0
  -17.6478  -30.6589   24.0557 C   0  0  0  0  0  0
  -25.9077  -34.9381   23.5043 C   0  0  0  0  0  0
  -16.5369  -29.9083   23.6336 C   0  0  0  0  0  0
  -16.7292  -28.6502   23.0357 C   0  0  0  0  0  0
  -26.4535  -31.6550   25.0702 C   0  0  0  0  0  0
  -25.3701  -31.3758   26.1384 C   0  0  0  0  0  0
  -27.0424  -30.2939   24.6342 C   0  0  0  0  0  0
  -27.6053  -32.4337   25.7491 C   0  0  0  0  0  0
  -27.5573  -37.1770   24.8464 C   0  0  0  0  0  0
  -21.4275  -29.3036   22.3578 N   0  0  0  0  0  0
  -26.4281  -37.3725   23.9409 N   0  0  0  0  0  0
  -24.7249  -31.0155   22.0873 N   0  0  0  0  0  0
  -23.4204  -28.8064   23.3014 O   0  0  0  0  0  0
  -28.2643  -26.0762   20.3249 O   0  0  0  0  0  0
  -26.5679  -34.8894   22.4634 O   0  0  0  0  0  0
  -23.5582  -32.1276   23.6987 O   0  0  0  0  0  0
  -28.3943  -18.8542   18.1838 C   0  0  0  0  0  0
  -28.9071  -17.7440   18.8957 C   0  0  0  0  0  0
  -28.4193  -20.1791   18.6814 C   0  0  0  0  0  0
  -29.4952  -19.3034   20.6551 C   0  0  0  0  0  0
  -29.4671  -17.8652   20.1847 C   0  0  0  0  0  0
  -28.9846  -20.5233   19.9299 C   0  0  0  0  0  0
  -29.7665  -16.4501   20.9690 C   0  0  0  0  0  0
  -28.2608  -23.0697   20.0899 C   0  0  0  0  0  0
  -26.7816  -22.7842   20.2321 C   0  0  0  0  0  0
  -28.4833  -24.6937   19.5978 C   0  0  0  0  0  0
  -29.3941  -16.4411   22.1794 N   0  0  0  0  0  0
  -29.1438  -22.0218   20.1820 N   0  0  0  0  0  0
  -31.4761  -12.7842   19.2322 H   0  0  0  0  0  0
  -30.4332  -11.6889   20.0782 H   0  0  0  0  0  0
  -29.8718  -11.7519   17.6244 H   0  0  0  0  0  0
  -29.6186  -13.4783   17.7107 H   0  0  0  0  0  0
  -27.9726  -11.2835   19.0017 H   0  0  0  0  0  0
  -27.4095  -12.4447   17.8271 H   0  0  0  0  0  0
  -27.5884  -14.2590   19.4122 H   0  0  0  0  0  0
  -28.7606  -12.3332   21.4730 H   0  0  0  0  0  0
  -28.3319  -13.9956   21.7694 H   0  0  0  0  0  0
  -25.2777   -9.5687   22.4752 H   0  0  0  0  0  0
  -24.0005   -7.4646   22.7481 H   0  0  0  0  0  0
  -21.0849   -8.8782   19.8955 H   0  0  0  0  0  0
  -22.3711  -10.9672   19.6159 H   0  0  0  0  0  0
  -21.2013   -7.6149   23.9712 H   0  0  0  0  0  0
  -21.1481   -6.0522   25.9074 H   0  0  0  0  0  0
  -22.0598   -2.7609   23.2841 H   0  0  0  0  0  0
  -22.4083  -11.9868   22.4828 H   0  0  0  0  0  0
  -21.1063  -13.1207   22.2627 H   0  0  0  0  0  0
  -24.6455  -15.8494   20.5506 H   0  0  0  0  0  0
  -26.2714  -15.6478   20.1378 H   0  0  0  0  0  0
  -26.7292  -32.5235   23.0951 H   0  0  0  0  0  0
  -25.0042  -33.9558   25.0258 H   0  0  0  0  0  0
  -22.7606  -31.2766   21.3644 H   0  0  0  0  0  0
  -23.3755  -35.9561   23.3284 H   0  0  0  0  0  0
  -24.3565  -36.8900   22.2064 H   0  0  0  0  0  0
  -23.7240  -37.6420   23.6707 H   0  0  0  0  0  0
  -26.1741  -31.4405   20.6156 H   0  0  0  0  0  0
  -26.8799  -30.7415   22.0361 H   0  0  0  0  0  0
  -28.1180  -28.7299   21.2823 H   0  0  0  0  0  0
  -25.9372  -25.7962   18.9983 H   0  0  0  0  0  0
  -24.0049  -27.2795   18.9515 H   0  0  0  0  0  0
  -23.8225  -30.5414   19.3872 H   0  0  0  0  0  0
  -22.8007  -29.2115   19.8379 H   0  0  0  0  0  0
  -25.1316  -36.1816   25.0801 H   0  0  0  0  0  0
  -21.0011  -28.3327   24.1342 H   0  0  0  0  0  0
  -20.5656  -26.2344   23.3633 H   0  0  0  0  0  0
  -21.6648  -26.7409   22.1218 H   0  0  0  0  0  0
  -19.6910  -25.6278   21.1260 H   0  0  0  0  0  0
  -19.6694  -27.3167   20.6721 H   0  0  0  0  0  0
  -17.4208  -26.6676   21.4022 H   0  0  0  0  0  0
  -18.0342  -26.0088   22.9024 H   0  0  0  0  0  0
  -19.7958  -30.7298   24.2221 H   0  0  0  0  0  0
  -17.5031  -31.6265   24.5164 H   0  0  0  0  0  0
  -15.5367  -30.2975   23.7676 H   0  0  0  0  0  0
  -15.8690  -28.0810   22.7095 H   0  0  0  0  0  0
  -24.5896  -30.7091   25.7700 H   0  0  0  0  0  0
  -24.8875  -32.2945   26.4729 H   0  0  0  0  0  0
  -25.7970  -30.8986   27.0214 H   0  0  0  0  0  0
  -26.3069  -29.6627   24.1343 H   0  0  0  0  0  0
  -27.4006  -29.7276   25.4950 H   0  0  0  0  0  0
  -27.8981  -30.4161   23.9698 H   0  0  0  0  0  0
  -27.2646  -33.3671   26.1984 H   0  0  0  0  0  0
  -28.3906  -32.6844   25.0347 H   0  0  0  0  0  0
  -28.0673  -31.8519   26.5476 H   0  0  0  0  0  0
  -28.2574  -38.0081   24.7520 H   0  0  0  0  0  0
  -28.1086  -36.2610   24.6284 H   0  0  0  0  0  0
  -27.2285  -37.1407   25.8864 H   0  0  0  0  0  0
  -20.9501  -29.8743   21.6741 H   0  0  0  0  0  0
  -26.0138  -38.2785   24.1427 H   0  0  0  0  0  0
  -27.9607  -18.6825   17.2082 H   0  0  0  0  0  0
  -28.8135  -16.7636   18.4489 H   0  0  0  0  0  0
  -28.0340  -20.9598   18.0401 H   0  0  0  0  0  0
  -29.9356  -19.4734   21.6271 H   0  0  0  0  0  0
  -26.2677  -23.6506   20.6487 H   0  0  0  0  0  0
  -26.6097  -21.9359   20.8945 H   0  0  0  0  0  0
  -26.3466  -22.5614   19.2582 H   0  0  0  0  0  0
  -27.9591  -24.7817   18.6466 H   0  0  0  0  0  0
  -29.5314  -24.7414   19.3027 H   0  0  0  0  0  0
  -28.9657  -17.3244   22.4290 H   0  0  0  0  0  0
  1 25  1  0  0  0
  1 30  2  0  0  0
  1 77  1  0  0  0
  2  3  1  0  0  0
  2 25  1  0  0  0
  2 83  1  0  0  0
  2 84  1  0  0  0
  3  4  1  0  0  0
  3 85  1  0  0  0
  3 86  1  0  0  0
  4  5  1  0  0  0
  4 87  1  0  0  0
  4 88  1  0  0  0
  5  6  1  0  0  0
  5 26  1  0  0  0
  5 89  1  0  0  0
  6 25  1  0  0  0
  6 90  1  0  0  0
  6 91  1  0  0  0
  7  8  2  0  0  0
  7 26  1  0  0  0
  7 29  1  0  0  0
  8  9  1  0  0  0
  8 22  1  0  0  0
  9 10  1  0  0  0
  9 27  2  0  0  0
 10 11  2  0  0  0
 10 15  1  0  0  0
 11 12  1  0  0  0
 11 92  1  0  0  0
 12 13  2  0  0  0
 12 93  1  0  0  0
 13 14  1  0  0  0
 13 31  1  0  0  0
 14 15  2  0  0  0
 14 94  1  0  0  0
 15 95  1  0  0  0
 16 17  2  0  0  0
 16 21  1  0  0  0
 16 31  1  0  0  0
 17 18  1  0  0  0
 17 96  1  0  0  0
 18 19  2  0  0  0
 18 97  1  0  0  0
 19 20  1  0  0  0
 19 24  1  0  0  0
 20 21  2  0  0  0
 20 98  1  0  0  0
 21 23  1  0  0  0
 22 28  1  0  0  0
 22 32  2  0  0  0
 26 27  1  0  0  0
 28 99  1  0  0  0
 28100  1  0  0  0
 29101  1  0  0  0
 29102  1  0  0  0
 33 34  1  0  0  0
 33 66  1  0  0  0
 33 70  2  0  0  0
 34 36  1  0  0  0
 34 59  1  0  0  0
 34103  1  0  0  0
 35 44  2  0  0  0
 35 45  1  0  0  0
 35 68  1  0  0  0
 36 56  1  0  0  0
 36104  1  0  0  0
 37 39  1  0  0  0
 37 47  1  0  0  0
 37 66  1  0  0  0
 37105  1  0  0  0
 38 43  2  0  0  0
 38 46  1  0  0  0
 38 47  1  0  0  0
 39 64  1  0  0  0
 39 67  2  0  0  0
 40 52  1  0  0  0
 40 53  2  0  0  0
 40 58  1  0  0  0
 41106  1  0  0  0
 41107  1  0  0  0
 41108  1  0  0  0
 41 48  1  0  0  0
 42 43  1  0  0  0
 42 66  1  0  0  0
 42109  1  0  0  0
 42110  1  0  0  0
 43 44  1  0  0  0
 44111  1  0  0  0
 45 46  2  0  0  0
 45112  1  0  0  0
 46113  1  0  0  0
 47114  1  0  0  0
 47115  1  0  0  0
 48 56  1  0  0  0
 48 65  1  0  0  0
 48116  1  0  0  0
 49 50  1  0  0  0
 49 53  1  0  0  0
 49 64  1  0  0  0
 49117  1  0  0  0
 50 51  1  0  0  0
 50118  1  0  0  0
 50119  1  0  0  0
 51 52  1  0  0  0
 51120  1  0  0  0
 51121  1  0  0  0
 52122  1  0  0  0
 52123  1  0  0  0
 53 54  1  0  0  0
 54 55  2  0  0  0
 54124  1  0  0  0
 55 57  1  0  0  0
 55125  1  0  0  0
 56 69  2  0  0  0
 57 58  2  0  0  0
 57126  1  0  0  0
 58127  1  0  0  0
 59 60  1  0  0  0
 59 61  1  0  0  0
 59 62  1  0  0  0
 60128  1  0  0  0
 60129  1  0  0  0
 60130  1  0  0  0
 61131  1  0  0  0
 61132  1  0  0  0
 61133  1  0  0  0
 62134  1  0  0  0
 62135  1  0  0  0
 62136  1  0  0  0
 63 65  1  0  0  0
 63137  1  0  0  0
 63138  1  0  0  0
 63139  1  0  0  0
 64140  1  0  0  0
 65141  1  0  0  0
 68 80  1  0  0  0
 71 72  2  0  0  0
 71 73  1  0  0  0
 71142  1  0  0  0
 72 75  1  0  0  0
 72143  1  0  0  0
 73 76  2  0  0  0
 73144  1  0  0  0
 74 75  2  0  0  0
 74 76  1  0  0  0
 74145  1  0  0  0
 75 77  1  0  0  0
 76 82  1  0  0  0
 77 81  2  0  0  0
 78 79  1  0  0  0
 78 80  1  0  0  0
 78 82  2  0  0  0
 79146  1  0  0  0
 79147  1  0  0  0
 79148  1  0  0  0
 80149  1  0  0  0
 80150  1  0  0  0
 81151  1  0  0  0
M  ISO  4   1 100  68 101  77 100  80 101
M  END
> <chiral flag>
0

> <version>
0

> <s_m_source_file>
/data/baiqing/PycharmProjects/Reinvent-master-3.2/result/LINK_invent/BTK/process_docking_weight1_custom_product_contain_oxygen_bond_distance_aromatic_linkinvent_7_9_3/rearranged_h_0095.sdf

> <i_m_source_file_index>
66

> <r_mmod_Potential_Energy-OPLS-2005>
885.831237792969

> <r_mmod_Stretch_Energy-OPLS-2005>
360.793914794922

> <r_mmod_Bend_Energy-OPLS-2005>
342.185729980469

> <r_mmod_Torsional_Energy-OPLS-2005>
250.384628295898

> <r_mmod_Improper_Torsional_Energy-OPLS-2005>
7.10505104064941

> <r_mmod_Van_der_Waal_Energy-OPLS-2005>
120.802192687988

> <r_mmod_Electrostatic_Energy-OPLS-2005>
-239.693969726562

> <r_mmod_Solvation_Energy-OPLS-2005>
-210.046676635742

> <b_mmod_Minimization_Converged-OPLS-2005>
0

> <r_mmod_RMS_Derivative-OPLS-2005>
0.466980844736099

$$$$
66
                    3D
 Structure written by MMmdl.
158166  0  0  1  0            999 V2000
  -30.5375  -14.9010   20.4457 C   0  0  0  0  0  0
  -30.4423  -12.5606   19.4949 C   0  0  0  0  0  0
  -29.5191  -12.5263   18.2535 C   0  0  0  0  0  0
  -28.0491  -12.3187   18.6676 C   0  0  0  0  0  0
  -27.6328  -13.2403   19.8440 C   0  0  2  0  0  0
  -28.6741  -13.2352   20.9841 C   0  0  0  0  0  0
  -25.2489  -13.8198   20.5720 C   0  0  0  0  0  0
  -24.1791  -13.0434   20.9226 C   0  0  0  0  0  0
  -24.6392  -11.6920   20.8765 C   0  0  0  0  0  0
  -23.9074  -10.4298   21.0426 C   0  0  0  0  0  0
  -24.3624   -9.4211   21.9199 C   0  0  0  0  0  0
  -23.6300   -8.2242   22.0761 C   0  0  0  0  0  0
  -22.4277   -8.0286   21.3554 C   0  0  0  0  0  0
  -21.9918   -9.0258   20.4652 C   0  0  0  0  0  0
  -22.7247  -10.2141   20.3070 C   0  0  0  0  0  0
  -21.6850   -6.0745   22.5280 C   0  0  0  0  0  0
  -21.4010   -6.5644   23.8215 C   0  0  0  0  0  0
  -21.3660   -5.6796   24.9174 C   0  0  0  0  0  0
  -21.6045   -4.3057   24.7222 C   0  0  0  0  0  0
  -21.8817   -3.8156   23.4335 C   0  0  0  0  0  0
  -21.9190   -4.6975   22.3397 C   0  0  0  0  0  0
  -22.7813  -13.5219   21.1859 C   0  0  0  0  0  0
  -22.1664   -4.2167   21.0975 F   0  0  0  0  0  0
  -21.5627   -3.4535   25.7730 F   0  0  0  0  0  0
  -29.9562  -13.6401   20.3959 N   0  0  0  0  0  0
  -26.2901  -12.9413   20.3264 N   0  0  0  0  0  0
  -25.9315  -11.6552   20.5761 N   0  0  0  0  0  0
  -22.0456  -12.8222   22.0420 N   0  0  0  0  0  0
  -25.4169  -15.1919   20.4139 N   0  0  0  0  0  0
  -31.7329  -14.9991   20.1525 O   0  0  0  0  0  0
  -21.6634   -6.8888   21.4246 O   0  0  0  0  0  0
  -22.3501  -14.5507   20.6680 O   0  0  0  0  0  0
  -24.6408  -31.8481   23.1908 C   0  0  0  0  0  0
  -25.9199  -32.4712   23.8301 C   0  0  1  0  0  0
  -27.2183  -27.1778   20.1532 C   0  0  0  0  0  0
  -25.5956  -33.8511   24.2219 N   0  0  0  0  0  0
  -23.4436  -30.4690   21.5341 C   0  0  2  0  0  0
  -24.8936  -28.8977   20.1146 C   0  0  0  0  0  0
  -22.7554  -29.4595   22.4866 C   0  0  0  0  0  0
  -18.0318  -28.1378   22.8483 C   0  0  0  0  0  0
  -24.1491  -36.7274   23.2639 C   0  0  0  0  0  0
  -25.9967  -30.7332   21.3841 C   0  0  0  0  0  0
  -26.0695  -29.3456   20.7334 C   0  0  0  0  0  0
  -27.2374  -28.4985   20.7433 C   0  0  0  0  0  0
  -26.0233  -26.8193   19.4992 C   0  0  0  0  0  0
  -24.8797  -27.6440   19.4844 C   0  0  0  0  0  0
  -23.6687  -29.7960   20.1548 C   0  0  0  0  0  0
  -25.4117  -36.3036   24.0318 C   0  0  1  0  0  0
  -20.5931  -28.3760   23.1270 C   0  0  2  0  0  0
  -20.6832  -26.9462   22.5442 C   0  0  0  0  0  0
  -19.5827  -26.6428   21.5229 C   0  0  0  0  0  0
  -18.1997  -26.7916   22.1644 C   0  0  0  0  0  0
  -19.1558  -28.8860   23.2889 C   0  0  0  0  0  0
  -18.9452  -30.1424   23.8951 C   0  0  0  0  0  0
  -17.6450  -30.6553   24.0613 C   0  0  0  0  0  0
  -25.9067  -34.9412   23.5074 C   0  0  0  0  0  0
  -16.5360  -29.9058   23.6314 C   0  0  0  0  0  0
  -16.7297  -28.6478   23.0323 C   0  0  0  0  0  0
  -26.4527  -31.6560   25.0724 C   0  0  0  0  0  0
  -25.3717  -31.3736   26.1427 C   0  0  0  0  0  0
  -27.0393  -30.2967   24.6262 C   0  0  0  0  0  0
  -27.6056  -32.4324   25.7509 C   0  0  0  0  0  0
  -27.5575  -37.1794   24.8462 C   0  0  0  0  0  0
  -21.4236  -29.3132   22.3662 N   0  0  0  0  0  0
  -26.4284  -37.3744   23.9402 N   0  0  0  0  0  0
  -24.7133  -31.0374   22.0922 N   0  0  0  0  0  0
  -23.4222  -28.8108   23.2970 O   0  0  0  0  0  0
  -28.2475  -26.1840   20.1502 O   0  0  0  0  0  0
  -26.5638  -34.8904   22.4641 O   0  0  0  0  0  0
  -23.5541  -32.1339   23.7150 O   0  0  0  0  0  0
  -26.3998  -19.7333   22.2631 C   0  0  0  0  0  0
  -27.1950  -20.5193   21.4238 C   0  0  0  0  0  0
  -27.9650  -17.9184   22.0007 C   0  0  0  0  0  0
  -28.7856  -18.6320   21.0826 C   0  0  0  0  0  0
  -26.8142  -18.4464   22.5957 C   0  0  0  0  0  0
  -28.4463  -20.1039   20.8975 C   0  0  0  0  0  0
  -28.1250  -25.0369   21.0154 C   0  0  0  0  0  0
  -28.4273  -23.6453   21.0465 C   0  0  0  0  0  0
  -29.0029  -22.6616   20.0227 C   0  0  0  0  0  0
  -30.0177  -17.9097   18.9420 C   0  0  0  0  0  0
  -29.8847  -17.6070   20.4402 C   0  0  2  0  0  0
  -26.0684  -17.6758   23.4839 N   0  0  0  0  0  0
  -29.1343  -21.2412   20.1836 N   0  0  0  0  0  0
  -29.7166  -16.0407   20.6137 N   0  0  0  0  0  0
  -29.4290  -23.1039   18.9556 O   0  0  0  0  0  0
  -28.2173  -23.1030   22.2554 O   0  0  0  0  0  0
  -31.4742  -12.7265   19.1819 H   0  0  0  0  0  0
  -30.4372  -11.6016   20.0144 H   0  0  0  0  0  0
  -29.8312  -11.7358   17.5702 H   0  0  0  0  0  0
  -29.6147  -13.4619   17.7010 H   0  0  0  0  0  0
  -27.9334  -11.2738   18.9557 H   0  0  0  0  0  0
  -27.3871  -12.4736   17.8156 H   0  0  0  0  0  0
  -27.6044  -14.2480   19.4296 H   0  0  0  0  0  0
  -28.7500  -12.2473   21.4411 H   0  0  0  0  0  0
  -28.3796  -13.9201   21.7811 H   0  0  0  0  0  0
  -25.2771   -9.5672   22.4773 H   0  0  0  0  0  0
  -24.0002   -7.4627   22.7466 H   0  0  0  0  0  0
  -21.0855   -8.8775   19.8955 H   0  0  0  0  0  0
  -22.3708  -10.9678   19.6175 H   0  0  0  0  0  0
  -21.2004   -7.6154   23.9717 H   0  0  0  0  0  0
  -21.1489   -6.0530   25.9081 H   0  0  0  0  0  0
  -22.0597   -2.7620   23.2824 H   0  0  0  0  0  0
  -22.4079  -11.9889   22.4823 H   0  0  0  0  0  0
  -21.1078  -13.1259   22.2618 H   0  0  0  0  0  0
  -24.6485  -15.8414   20.5402 H   0  0  0  0  0  0
  -26.2551  -15.6400   20.0715 H   0  0  0  0  0  0
  -26.7269  -32.5337   23.1041 H   0  0  0  0  0  0
  -25.0098  -33.9625   25.0366 H   0  0  0  0  0  0
  -22.7442  -31.2928   21.3786 H   0  0  0  0  0  0
  -23.3748  -35.9615   23.3290 H   0  0  0  0  0  0
  -24.3573  -36.8914   22.2055 H   0  0  0  0  0  0
  -23.7262  -37.6473   23.6682 H   0  0  0  0  0  0
  -26.1434  -31.4851   20.6072 H   0  0  0  0  0  0
  -26.8713  -30.7888   22.0209 H   0  0  0  0  0  0
  -28.1358  -28.8327   21.2431 H   0  0  0  0  0  0
  -25.9657  -25.8535   19.0178 H   0  0  0  0  0  0
  -23.9834  -27.2925   18.9926 H   0  0  0  0  0  0
  -23.8023  -30.5678   19.3959 H   0  0  0  0  0  0
  -22.7847  -29.2353   19.8460 H   0  0  0  0  0  0
  -25.1307  -36.1872   25.0813 H   0  0  0  0  0  0
  -21.0047  -28.3366   24.1374 H   0  0  0  0  0  0
  -20.5741  -26.2363   23.3654 H   0  0  0  0  0  0
  -21.6728  -26.7511   22.1291 H   0  0  0  0  0  0
  -19.7023  -25.6394   21.1159 H   0  0  0  0  0  0
  -19.6725  -27.3281   20.6804 H   0  0  0  0  0  0
  -17.4277  -26.6619   21.4044 H   0  0  0  0  0  0
  -18.0466  -26.0061   22.9056 H   0  0  0  0  0  0
  -19.7945  -30.7203   24.2353 H   0  0  0  0  0  0
  -17.5017  -31.6210   24.5250 H   0  0  0  0  0  0
  -15.5362  -30.2970   23.7597 H   0  0  0  0  0  0
  -15.8707  -28.0799   22.7003 H   0  0  0  0  0  0
  -24.5905  -30.7067   25.7758 H   0  0  0  0  0  0
  -24.8903  -32.2917   26.4807 H   0  0  0  0  0  0
  -25.8023  -30.8948   27.0235 H   0  0  0  0  0  0
  -26.3002  -29.6688   24.1272 H   0  0  0  0  0  0
  -27.4039  -29.7255   25.4813 H   0  0  0  0  0  0
  -27.8894  -30.4231   23.9554 H   0  0  0  0  0  0
  -27.2638  -33.3632   26.2050 H   0  0  0  0  0  0
  -28.3885  -32.6872   25.0351 H   0  0  0  0  0  0
  -28.0707  -31.8478   26.5458 H   0  0  0  0  0  0
  -28.2586  -38.0095   24.7495 H   0  0  0  0  0  0
  -28.1078  -36.2622   24.6311 H   0  0  0  0  0  0
  -27.2283  -37.1463   25.8862 H   0  0  0  0  0  0
  -20.9417  -29.8984   21.6968 H   0  0  0  0  0  0
  -26.0154  -38.2816   24.1396 H   0  0  0  0  0  0
  -25.4802  -20.1444   22.6556 H   0  0  0  0  0  0
  -26.7904  -21.4921   21.1950 H   0  0  0  0  0  0
  -28.1968  -16.9014   22.2712 H   0  0  0  0  0  0
  -27.6982  -25.4266   21.9307 H   0  0  0  0  0  0
  -30.3035  -18.9473   18.7698 H   0  0  0  0  0  0
  -29.0732  -17.7397   18.4245 H   0  0  0  0  0  0
  -30.7759  -17.2851   18.4706 H   0  0  0  0  0  0
  -30.8346  -17.8607   20.9125 H   0  0  0  0  0  0
  -25.1337  -17.9756   23.7411 H   0  0  0  0  0  0
  -26.1749  -16.6662   23.4746 H   0  0  0  0  0  0
  -29.7679  -20.8969   19.4777 H   0  0  0  0  0  0
  -28.7659  -15.7775   20.8214 H   0  0  0  0  0  0
  -27.9113  -23.7880   22.8338 H   0  0  0  0  0  0
  1 25  1  0  0  0
  1 30  2  0  0  0
  1 84  1  0  0  0
  2  3  1  0  0  0
  2 25  1  0  0  0
  2 87  1  0  0  0
  2 88  1  0  0  0
  3  4  1  0  0  0
  3 89  1  0  0  0
  3 90  1  0  0  0
  4  5  1  0  0  0
  4 91  1  0  0  0
  4 92  1  0  0  0
  5  6  1  0  0  0
  5 26  1  0  0  0
  5 93  1  0  0  0
  6 25  1  0  0  0
  6 94  1  0  0  0
  6 95  1  0  0  0
  7  8  2  0  0  0
  7 26  1  0  0  0
  7 29  1  0  0  0
  8  9  1  0  0  0
  8 22  1  0  0  0
  9 10  1  0  0  0
  9 27  2  0  0  0
 10 11  2  0  0  0
 10 15  1  0  0  0
 11 12  1  0  0  0
 11 96  1  0  0  0
 12 13  2  0  0  0
 12 97  1  0  0  0
 13 14  1  0  0  0
 13 31  1  0  0  0
 14 15  2  0  0  0
 14 98  1  0  0  0
 15 99  1  0  0  0
 16 17  2  0  0  0
 16 21  1  0  0  0
 16 31  1  0  0  0
 17 18  1  0  0  0
 17100  1  0  0  0
 18 19  2  0  0  0
 18101  1  0  0  0
 19 20  1  0  0  0
 19 24  1  0  0  0
 20 21  2  0  0  0
 20102  1  0  0  0
 21 23  1  0  0  0
 22 28  1  0  0  0
 22 32  2  0  0  0
 26 27  1  0  0  0
 28103  1  0  0  0
 28104  1  0  0  0
 29105  1  0  0  0
 29106  1  0  0  0
 33 34  1  0  0  0
 33 66  1  0  0  0
 33 70  2  0  0  0
 34 36  1  0  0  0
 34 59  1  0  0  0
 34107  1  0  0  0
 35 44  2  0  0  0
 35 45  1  0  0  0
 35 68  1  0  0  0
 36 56  1  0  0  0
 36108  1  0  0  0
 37 39  1  0  0  0
 37 47  1  0  0  0
 37 66  1  0  0  0
 37109  1  0  0  0
 38 43  2  0  0  0
 38 46  1  0  0  0
 38 47  1  0  0  0
 39 64  1  0  0  0
 39 67  2  0  0  0
 40 52  1  0  0  0
 40 53  2  0  0  0
 40 58  1  0  0  0
 41110  1  0  0  0
 41111  1  0  0  0
 41112  1  0  0  0
 41 48  1  0  0  0
 42 43  1  0  0  0
 42 66  1  0  0  0
 42113  1  0  0  0
 42114  1  0  0  0
 43 44  1  0  0  0
 44115  1  0  0  0
 45 46  2  0  0  0
 45116  1  0  0  0
 46117  1  0  0  0
 47118  1  0  0  0
 47119  1  0  0  0
 48 56  1  0  0  0
 48 65  1  0  0  0
 48120  1  0  0  0
 49 50  1  0  0  0
 49 53  1  0  0  0
 49 64  1  0  0  0
 49121  1  0  0  0
 50 51  1  0  0  0
 50122  1  0  0  0
 50123  1  0  0  0
 51 52  1  0  0  0
 51124  1  0  0  0
 51125  1  0  0  0
 52126  1  0  0  0
 52127  1  0  0  0
 53 54  1  0  0  0
 54 55  2  0  0  0
 54128  1  0  0  0
 55 57  1  0  0  0
 55129  1  0  0  0
 56 69  2  0  0  0
 57 58  2  0  0  0
 57130  1  0  0  0
 58131  1  0  0  0
 59 60  1  0  0  0
 59 61  1  0  0  0
 59 62  1  0  0  0
 60132  1  0  0  0
 60133  1  0  0  0
 60134  1  0  0  0
 61135  1  0  0  0
 61136  1  0  0  0
 61137  1  0  0  0
 62138  1  0  0  0
 62139  1  0  0  0
 62140  1  0  0  0
 63 65  1  0  0  0
 63141  1  0  0  0
 63142  1  0  0  0
 63143  1  0  0  0
 64144  1  0  0  0
 65145  1  0  0  0
 68 77  1  0  0  0
 71 72  2  0  0  0
 71 75  1  0  0  0
 71146  1  0  0  0
 72 76  1  0  0  0
 72147  1  0  0  0
 73 74  1  0  0  0
 73 75  2  0  0  0
 73148  1  0  0  0
 74 76  2  0  0  0
 74 81  1  0  0  0
 75 82  1  0  0  0
 76 83  1  0  0  0
 77 78  2  0  0  0
 77149  1  0  0  0
 78 79  1  0  0  0
 78 86  1  0  0  0
 79 83  1  0  0  0
 79 85  2  0  0  0
 80150  1  0  0  0
 80151  1  0  0  0
 80152  1  0  0  0
 80 81  1  0  0  0
 81 84  1  0  0  0
 81153  1  0  0  0
 82154  1  0  0  0
 82155  1  0  0  0
 83156  1  0  0  0
 84157  1  0  0  0
 86158  1  0  0  0
M  ISO  4   1 100  68 101  77 101  84 100
M  END
> <chiral flag>
0

> <version>
0

> <s_m_source_file>
/data/baiqing/PycharmProjects/Reinvent-master-3.2/result/LINK_invent/BTK/process_docking_weight1_custom_product_contain_oxygen_bond_distance_aromatic_linkinvent_7_9_3/rearranged_h_0095.sdf

> <i_m_source_file_index>
67

> <r_mmod_Potential_Energy-OPLS-2005>
424.721130371094

> <r_mmod_Stretch_Energy-OPLS-2005>
223.828903198242

> <r_mmod_Bend_Energy-OPLS-2005>
341.664581298828

> <r_mmod_Torsional_Energy-OPLS-2005>
244.701080322266

> <r_mmod_Improper_Torsional_Energy-OPLS-2005>
8.55569648742676

> <r_mmod_Van_der_Waal_Energy-OPLS-2005>
136.140823364258

> <r_mmod_Electrostatic_Energy-OPLS-2005>
-455.444702148438

> <r_mmod_Solvation_Energy-OPLS-2005>
-237.563934326172

> <b_mmod_Minimization_Converged-OPLS-2005>
0

> <r_mmod_RMS_Derivative-OPLS-2005>
2.50107312202454

$$$$
67
                    3D
 Structure written by MMmdl.
168176  0  0  1  0            999 V2000
  -30.7440  -14.4709   20.5698 C   0  0  0  0  0  0
  -30.4170  -12.3065   19.4360 C   0  0  0  0  0  0
  -29.5002  -12.4940   18.2115 C   0  0  0  0  0  0
  -28.0209  -12.3626   18.6199 C   0  0  0  0  0  0
  -27.6614  -13.2163   19.8668 C   0  0  2  0  0  0
  -28.7037  -13.0340   20.9945 C   0  0  0  0  0  0
  -25.2585  -13.8197   20.5691 C   0  0  0  0  0  0
  -24.1836  -13.0462   20.9166 C   0  0  0  0  0  0
  -24.6389  -11.6925   20.8700 C   0  0  0  0  0  0
  -23.9042  -10.4306   21.0371 C   0  0  0  0  0  0
  -24.3604   -9.4228   21.9150 C   0  0  0  0  0  0
  -23.6289   -8.2261   22.0724 C   0  0  0  0  0  0
  -22.4279   -8.0285   21.3514 C   0  0  0  0  0  0
  -21.9896   -9.0253   20.4625 C   0  0  0  0  0  0
  -22.7209  -10.2143   20.3029 C   0  0  0  0  0  0
  -21.6867   -6.0735   22.5266 C   0  0  0  0  0  0
  -21.4034   -6.5634   23.8203 C   0  0  0  0  0  0
  -21.3661   -5.6775   24.9158 C   0  0  0  0  0  0
  -21.6046   -4.3034   24.7205 C   0  0  0  0  0  0
  -21.8825   -3.8137   23.4322 C   0  0  0  0  0  0
  -21.9196   -4.6962   22.3384 C   0  0  0  0  0  0
  -22.7853  -13.5255   21.1820 C   0  0  0  0  0  0
  -22.1657   -4.2155   21.0958 F   0  0  0  0  0  0
  -21.5618   -3.4509   25.7710 F   0  0  0  0  0  0
  -30.0340  -13.3177   20.4340 N   0  0  0  0  0  0
  -26.3029  -12.9383   20.3325 N   0  0  0  0  0  0
  -25.9323  -11.6537   20.5725 N   0  0  0  0  0  0
  -22.0459  -12.8278   22.0378 N   0  0  0  0  0  0
  -25.4283  -15.1917   20.4136 N   0  0  0  0  0  0
  -31.8763  -14.6054   20.0962 O   0  0  0  0  0  0
  -21.6650   -6.8883   21.4229 O   0  0  0  0  0  0
  -22.3537  -14.5539   20.6633 O   0  0  0  0  0  0
  -24.6167  -31.8681   23.2066 C   0  0  0  0  0  0
  -25.9050  -32.4837   23.8376 C   0  0  1  0  0  0
  -27.2283  -27.4270   20.0778 C   0  0  0  0  0  0
  -25.5902  -33.8630   24.2328 N   0  0  0  0  0  0
  -23.4020  -30.4907   21.5516 C   0  0  2  0  0  0
  -24.8411  -28.9512   20.1175 C   0  0  0  0  0  0
  -22.7409  -29.4670   22.5016 C   0  0  0  0  0  0
  -18.0283  -28.1390   22.8496 C   0  0  0  0  0  0
  -24.1476  -36.7309   23.2635 C   0  0  0  0  0  0
  -25.9316  -30.8303   21.3580 C   0  0  0  0  0  0
  -26.0064  -29.4643   20.7016 C   0  0  0  0  0  0
  -27.2036  -28.7125   20.6695 C   0  0  0  0  0  0
  -26.0363  -26.9241   19.5074 C   0  0  0  0  0  0
  -24.8495  -27.6797   19.5211 C   0  0  0  0  0  0
  -23.6068  -29.8215   20.1674 C   0  0  0  0  0  0
  -25.4105  -36.3135   24.0346 C   0  0  1  0  0  0
  -20.5870  -28.3670   23.1336 C   0  0  2  0  0  0
  -20.6788  -26.9413   22.5422 C   0  0  0  0  0  0
  -19.5756  -26.6409   21.5230 C   0  0  0  0  0  0
  -18.1931  -26.7942   22.1631 C   0  0  0  0  0  0
  -19.1529  -28.8854   23.2911 C   0  0  0  0  0  0
  -18.9448  -30.1465   23.8904 C   0  0  0  0  0  0
  -17.6443  -30.6597   24.0569 C   0  0  0  0  0  0
  -25.9031  -34.9503   23.5143 C   0  0  0  0  0  0
  -16.5345  -29.9091   23.6326 C   0  0  0  0  0  0
  -16.7271  -28.6515   23.0343 C   0  0  0  0  0  0
  -26.4465  -31.6610   25.0709 C   0  0  0  0  0  0
  -25.3726  -31.3697   26.1446 C   0  0  0  0  0  0
  -27.0291  -30.3056   24.6098 C   0  0  0  0  0  0
  -27.6073  -32.4300   25.7457 C   0  0  0  0  0  0
  -27.5590  -37.1809   24.8475 C   0  0  0  0  0  0
  -21.4148  -29.3021   22.3734 N   0  0  0  0  0  0
  -26.4302  -37.3821   23.9409 N   0  0  0  0  0  0
  -24.6687  -31.0771   22.0979 N   0  0  0  0  0  0
  -23.4176  -28.8247   23.3094 O   0  0  0  0  0  0
  -28.4063  -26.7056   20.0588 O   0  0  0  0  0  0
  -26.5584  -34.8954   22.4695 O   0  0  0  0  0  0
  -23.5359  -32.1450   23.7453 O   0  0  0  0  0  0
  -31.8857  -16.9646   22.0313 C   0  0  0  0  0  0
  -30.7219  -19.2263   20.8358 C   0  0  0  0  0  0
  -32.5032  -18.2246   22.1609 C   0  0  0  0  0  0
  -30.6873  -16.8204   21.2853 C   0  0  0  0  0  0
  -31.9302  -19.3501   21.5469 C   0  0  0  0  0  0
  -30.0865  -17.9653   20.6928 C   0  0  0  0  0  0
  -27.9633  -22.0996   17.9440 C   0  0  0  0  0  0
  -26.9670  -20.1533   16.8587 C   0  0  0  0  0  0
  -28.2886  -22.9063   19.2201 C   0  0  0  0  0  0
  -28.4202  -24.4415   18.9843 C   0  0  0  0  0  0
  -27.7581  -19.9033   19.1906 C   0  0  0  0  0  0
  -28.3265  -25.2860   20.2763 C   0  0  0  0  0  0
  -28.7020  -18.7128   18.8691 C   0  0  0  0  0  0
  -33.6772  -18.3900   22.8974 N   0  0  0  0  0  0
  -32.5834  -20.5797   21.6390 N   0  0  0  0  0  0
  -30.1052  -15.5242   21.1172 N   0  0  0  0  0  0
  -27.5973  -20.7927   18.0229 N   0  0  0  0  0  0
  -27.9813  -22.6883   16.8585 O   0  0  0  0  0  0
  -28.9180  -17.8187   19.9704 O   0  0  0  0  0  0
  -31.4630  -12.3860   19.1352 H   0  0  0  0  0  0
  -30.3040  -11.3048   19.8556 H   0  0  0  0  0  0
  -29.7453  -11.7581   17.4448 H   0  0  0  0  0  0
  -29.6756  -13.4718   17.7596 H   0  0  0  0  0  0
  -27.8300  -11.3091   18.8265 H   0  0  0  0  0  0
  -27.3760  -12.6273   17.7803 H   0  0  0  0  0  0
  -27.6965  -14.2607   19.5515 H   0  0  0  0  0  0
  -28.6761  -12.0134   21.3787 H   0  0  0  0  0  0
  -28.4678  -13.6757   21.8444 H   0  0  0  0  0  0
  -25.2745   -9.5732   22.4724 H   0  0  0  0  0  0
  -23.9993   -7.4675   22.7465 H   0  0  0  0  0  0
  -21.0807   -8.8769   19.8957 H   0  0  0  0  0  0
  -22.3625  -10.9677   19.6145 H   0  0  0  0  0  0
  -21.2044   -7.6146   23.9709 H   0  0  0  0  0  0
  -21.1470   -6.0497   25.9061 H   0  0  0  0  0  0
  -22.0606   -2.7604   23.2803 H   0  0  0  0  0  0
  -22.4058  -12.0003   22.4898 H   0  0  0  0  0  0
  -21.1063  -13.1327   22.2497 H   0  0  0  0  0  0
  -24.6592  -15.8419   20.5314 H   0  0  0  0  0  0
  -26.2831  -15.6385   20.1067 H   0  0  0  0  0  0
  -26.7125  -32.5539   23.1134 H   0  0  0  0  0  0
  -25.0107  -33.9784   25.0516 H   0  0  0  0  0  0
  -22.6916  -31.3081   21.4135 H   0  0  0  0  0  0
  -23.3771  -35.9611   23.3317 H   0  0  0  0  0  0
  -24.3579  -36.8889   22.2048 H   0  0  0  0  0  0
  -23.7194  -37.6514   23.6612 H   0  0  0  0  0  0
  -26.0478  -31.5994   20.5938 H   0  0  0  0  0  0
  -26.8177  -30.8787   21.9801 H   0  0  0  0  0  0
  -28.1078  -29.1117   21.1073 H   0  0  0  0  0  0
  -26.0047  -25.9532   19.0397 H   0  0  0  0  0  0
  -23.9478  -27.2738   19.0803 H   0  0  0  0  0  0
  -23.7209  -30.5935   19.4059 H   0  0  0  0  0  0
  -22.7266  -29.2466   19.8735 H   0  0  0  0  0  0
  -25.1289  -36.2014   25.0846 H   0  0  0  0  0  0
  -20.9961  -28.3234   24.1456 H   0  0  0  0  0  0
  -20.5746  -26.2269   23.3600 H   0  0  0  0  0  0
  -21.6655  -26.7507   22.1173 H   0  0  0  0  0  0
  -19.6915  -25.6329   21.1234 H   0  0  0  0  0  0
  -19.6694  -27.3233   20.6768 H   0  0  0  0  0  0
  -17.4215  -26.6710   21.4021 H   0  0  0  0  0  0
  -18.0307  -26.0094   22.9030 H   0  0  0  0  0  0
  -19.7928  -30.7291   24.2271 H   0  0  0  0  0  0
  -17.5001  -31.6270   24.5174 H   0  0  0  0  0  0
  -15.5340  -30.2982   23.7659 H   0  0  0  0  0  0
  -15.8684  -28.0837   22.7037 H   0  0  0  0  0  0
  -24.5904  -30.7054   25.7745 H   0  0  0  0  0  0
  -24.8906  -32.2839   26.4914 H   0  0  0  0  0  0
  -25.8068  -30.8839   27.0191 H   0  0  0  0  0  0
  -26.2840  -29.6830   24.1133 H   0  0  0  0  0  0
  -27.4039  -29.7288   25.4563 H   0  0  0  0  0  0
  -27.8682  -30.4390   23.9274 H   0  0  0  0  0  0
  -27.2745  -33.3588   26.2098 H   0  0  0  0  0  0
  -28.3845  -32.6857   25.0245 H   0  0  0  0  0  0
  -28.0788  -31.8382   26.5314 H   0  0  0  0  0  0
  -28.2638  -38.0077   24.7546 H   0  0  0  0  0  0
  -28.1064  -36.2630   24.6288 H   0  0  0  0  0  0
  -27.2314  -37.1453   25.8876 H   0  0  0  0  0  0
  -20.9328  -29.8684   21.6897 H   0  0  0  0  0  0
  -26.0216  -38.2916   24.1384 H   0  0  0  0  0  0
  -32.3469  -16.0994   22.4854 H   0  0  0  0  0  0
  -30.2939  -20.1117   20.3969 H   0  0  0  0  0  0
  -26.2147  -20.7957   16.3974 H   0  0  0  0  0  0
  -26.4598  -19.2239   17.1216 H   0  0  0  0  0  0
  -27.7210  -19.9205   16.1059 H   0  0  0  0  0  0
  -29.2077  -22.5205   19.6629 H   0  0  0  0  0  0
  -27.4846  -22.7224   19.9342 H   0  0  0  0  0  0
  -27.6550  -24.7742   18.2851 H   0  0  0  0  0  0
  -29.3740  -24.6415   18.4943 H   0  0  0  0  0  0
  -28.1296  -20.4453   20.0575 H   0  0  0  0  0  0
  -26.7773  -19.5289   19.4892 H   0  0  0  0  0  0
  -29.1631  -25.0175   20.9221 H   0  0  0  0  0  0
  -27.4284  -25.0277   20.8420 H   0  0  0  0  0  0
  -29.6416  -19.0655   18.4392 H   0  0  0  0  0  0
  -28.2557  -18.1041   18.0841 H   0  0  0  0  0  0
  -33.8283  -17.7336   23.6558 H   0  0  0  0  0  0
  -33.8089  -19.3469   23.2096 H   0  0  0  0  0  0
  -32.3537  -21.2623   20.9263 H   0  0  0  0  0  0
  -33.5897  -20.4938   21.7421 H   0  0  0  0  0  0
  -29.1174  -15.4284   21.2958 H   0  0  0  0  0  0
  1 25  1  0  0  0
  1 30  2  0  0  0
  1 86  1  0  0  0
  2  3  1  0  0  0
  2 25  1  0  0  0
  2 90  1  0  0  0
  2 91  1  0  0  0
  3  4  1  0  0  0
  3 92  1  0  0  0
  3 93  1  0  0  0
  4  5  1  0  0  0
  4 94  1  0  0  0
  4 95  1  0  0  0
  5  6  1  0  0  0
  5 26  1  0  0  0
  5 96  1  0  0  0
  6 25  1  0  0  0
  6 97  1  0  0  0
  6 98  1  0  0  0
  7  8  2  0  0  0
  7 26  1  0  0  0
  7 29  1  0  0  0
  8  9  1  0  0  0
  8 22  1  0  0  0
  9 10  1  0  0  0
  9 27  2  0  0  0
 10 11  2  0  0  0
 10 15  1  0  0  0
 11 12  1  0  0  0
 11 99  1  0  0  0
 12 13  2  0  0  0
 12100  1  0  0  0
 13 14  1  0  0  0
 13 31  1  0  0  0
 14 15  2  0  0  0
 14101  1  0  0  0
 15102  1  0  0  0
 16 17  2  0  0  0
 16 21  1  0  0  0
 16 31  1  0  0  0
 17 18  1  0  0  0
 17103  1  0  0  0
 18 19  2  0  0  0
 18104  1  0  0  0
 19 20  1  0  0  0
 19 24  1  0  0  0
 20 21  2  0  0  0
 20105  1  0  0  0
 21 23  1  0  0  0
 22 28  1  0  0  0
 22 32  2  0  0  0
 26 27  1  0  0  0
 28106  1  0  0  0
 28107  1  0  0  0
 29108  1  0  0  0
 29109  1  0  0  0
 33 34  1  0  0  0
 33 66  1  0  0  0
 33 70  2  0  0  0
 34 36  1  0  0  0
 34 59  1  0  0  0
 34110  1  0  0  0
 35 44  2  0  0  0
 35 45  1  0  0  0
 35 68  1  0  0  0
 36 56  1  0  0  0
 36111  1  0  0  0
 37 39  1  0  0  0
 37 47  1  0  0  0
 37 66  1  0  0  0
 37112  1  0  0  0
 38 43  2  0  0  0
 38 46  1  0  0  0
 38 47  1  0  0  0
 39 64  1  0  0  0
 39 67  2  0  0  0
 40 52  1  0  0  0
 40 53  2  0  0  0
 40 58  1  0  0  0
 41113  1  0  0  0
 41114  1  0  0  0
 41115  1  0  0  0
 41 48  1  0  0  0
 42 43  1  0  0  0
 42 66  1  0  0  0
 42116  1  0  0  0
 42117  1  0  0  0
 43 44  1  0  0  0
 44118  1  0  0  0
 45 46  2  0  0  0
 45119  1  0  0  0
 46120  1  0  0  0
 47121  1  0  0  0
 47122  1  0  0  0
 48 56  1  0  0  0
 48 65  1  0  0  0
 48123  1  0  0  0
 49 50  1  0  0  0
 49 53  1  0  0  0
 49 64  1  0  0  0
 49124  1  0  0  0
 50 51  1  0  0  0
 50125  1  0  0  0
 50126  1  0  0  0
 51 52  1  0  0  0
 51127  1  0  0  0
 51128  1  0  0  0
 52129  1  0  0  0
 52130  1  0  0  0
 53 54  1  0  0  0
 54 55  2  0  0  0
 54131  1  0  0  0
 55 57  1  0  0  0
 55132  1  0  0  0
 56 69  2  0  0  0
 57 58  2  0  0  0
 57133  1  0  0  0
 58134  1  0  0  0
 59 60  1  0  0  0
 59 61  1  0  0  0
 59 62  1  0  0  0
 60135  1  0  0  0
 60136  1  0  0  0
 60137  1  0  0  0
 61138  1  0  0  0
 61139  1  0  0  0
 61140  1  0  0  0
 62141  1  0  0  0
 62142  1  0  0  0
 62143  1  0  0  0
 63 65  1  0  0  0
 63144  1  0  0  0
 63145  1  0  0  0
 63146  1  0  0  0
 64147  1  0  0  0
 65148  1  0  0  0
 68 82  1  0  0  0
 71 73  2  0  0  0
 71 74  1  0  0  0
 71149  1  0  0  0
 72 75  2  0  0  0
 72 76  1  0  0  0
 72150  1  0  0  0
 73 75  1  0  0  0
 73 84  1  0  0  0
 74 76  2  0  0  0
 74 86  1  0  0  0
 75 85  1  0  0  0
 76 89  1  0  0  0
 77 79  1  0  0  0
 77 87  1  0  0  0
 77 88  2  0  0  0
 78 87  1  0  0  0
 78151  1  0  0  0
 78152  1  0  0  0
 78153  1  0  0  0
 79 80  1  0  0  0
 79154  1  0  0  0
 79155  1  0  0  0
 80 82  1  0  0  0
 80156  1  0  0  0
 80157  1  0  0  0
 81 83  1  0  0  0
 81 87  1  0  0  0
 81158  1  0  0  0
 81159  1  0  0  0
 82160  1  0  0  0
 82161  1  0  0  0
 83 89  1  0  0  0
 83162  1  0  0  0
 83163  1  0  0  0
 84164  1  0  0  0
 84165  1  0  0  0
 85166  1  0  0  0
 85167  1  0  0  0
 86168  1  0  0  0
M  ISO  4   1 100  68 101  82 101  86 100
M  END
> <chiral flag>
0

> <version>
0

> <s_m_source_file>
/data/baiqing/PycharmProjects/Reinvent-master-3.2/result/LINK_invent/BTK/process_docking_weight1_custom_product_contain_oxygen_bond_distance_aromatic_linkinvent_7_9_3/rearranged_h_0095.sdf

> <i_m_source_file_index>
68

> <r_mmod_Potential_Energy-OPLS-2005>
-198.947235107422

> <r_mmod_Stretch_Energy-OPLS-2005>
42.5585708618164

> <r_mmod_Bend_Energy-OPLS-2005>
104.76375579834

> <r_mmod_Torsional_Energy-OPLS-2005>
277.136413574219

> <r_mmod_Improper_Torsional_Energy-OPLS-2005>
13.3786973953247

> <r_mmod_Van_der_Waal_Energy-OPLS-2005>
173.229354858398

> <r_mmod_Electrostatic_Energy-OPLS-2005>
-568.869323730469

> <r_mmod_Solvation_Energy-OPLS-2005>
-256.231964111328

> <b_mmod_Minimization_Converged-OPLS-2005>
0

> <r_mmod_RMS_Derivative-OPLS-2005>
2.99757599830627

$$$$
68
                    3D
 Structure written by MMmdl.
156165  0  0  1  0            999 V2000
  -30.6114  -14.6653   20.4935 C   0  0  0  0  0  0
  -30.4431  -12.4073   19.4546 C   0  0  0  0  0  0
  -29.5103  -12.5153   18.2271 C   0  0  0  0  0  0
  -28.0332  -12.3508   18.6396 C   0  0  0  0  0  0
  -27.6540  -13.2218   19.8677 C   0  0  2  0  0  0
  -28.7015  -13.0785   20.9950 C   0  0  0  0  0  0
  -25.2532  -13.8163   20.5678 C   0  0  0  0  0  0
  -24.1799  -13.0410   20.9125 C   0  0  0  0  0  0
  -24.6398  -11.6895   20.8710 C   0  0  0  0  0  0
  -23.9072  -10.4279   21.0389 C   0  0  0  0  0  0
  -24.3619   -9.4201   21.9177 C   0  0  0  0  0  0
  -23.6289   -8.2241   22.0756 C   0  0  0  0  0  0
  -22.4271   -8.0279   21.3548 C   0  0  0  0  0  0
  -21.9907   -9.0249   20.4646 C   0  0  0  0  0  0
  -22.7241  -10.2122   20.3045 C   0  0  0  0  0  0
  -21.6852   -6.0735   22.5279 C   0  0  0  0  0  0
  -21.4014   -6.5637   23.8212 C   0  0  0  0  0  0
  -21.3659   -5.6790   24.9174 C   0  0  0  0  0  0
  -21.6043   -4.3053   24.7224 C   0  0  0  0  0  0
  -21.8819   -3.8146   23.4346 C   0  0  0  0  0  0
  -21.9193   -4.6962   22.3401 C   0  0  0  0  0  0
  -22.7825  -13.5204   21.1820 C   0  0  0  0  0  0
  -22.1662   -4.2149   21.0980 F   0  0  0  0  0  0
  -21.5627   -3.4538   25.7739 F   0  0  0  0  0  0
  -30.0153  -13.4302   20.4303 N   0  0  0  0  0  0
  -26.3004  -12.9374   20.3376 N   0  0  0  0  0  0
  -25.9341  -11.6515   20.5773 N   0  0  0  0  0  0
  -22.0484  -12.8202   22.0395 N   0  0  0  0  0  0
  -25.4151  -15.1893   20.4197 N   0  0  0  0  0  0
  -31.7742  -14.8336   20.1132 O   0  0  0  0  0  0
  -21.6635   -6.8877   21.4243 O   0  0  0  0  0  0
  -22.3503  -14.5522   20.6698 O   0  0  0  0  0  0
  -24.6267  -31.8588   23.2019 C   0  0  0  0  0  0
  -25.9110  -32.4776   23.8352 C   0  0  1  0  0  0
  -27.2276  -27.3150   20.1259 C   0  0  0  0  0  0
  -25.5923  -33.8576   24.2281 N   0  0  0  0  0  0
  -23.4220  -30.4809   21.5440 C   0  0  2  0  0  0
  -24.8720  -28.9341   20.1123 C   0  0  0  0  0  0
  -22.7480  -29.4615   22.4932 C   0  0  0  0  0  0
  -18.0288  -28.1386   22.8487 C   0  0  0  0  0  0
  -24.1487  -36.7291   23.2640 C   0  0  0  0  0  0
  -25.9632  -30.7887   21.3742 C   0  0  0  0  0  0
  -26.0407  -29.4147   20.7184 C   0  0  0  0  0  0
  -27.2252  -28.6174   20.7145 C   0  0  0  0  0  0
  -26.0423  -26.8898   19.4896 C   0  0  0  0  0  0
  -24.8748  -27.6768   19.4875 C   0  0  0  0  0  0
  -23.6390  -29.8144   20.1600 C   0  0  0  0  0  0
  -25.4111  -36.3081   24.0331 C   0  0  1  0  0  0
  -20.5889  -28.3691   23.1284 C   0  0  2  0  0  0
  -20.6778  -26.9413   22.5413 C   0  0  0  0  0  0
  -19.5753  -26.6385   21.5214 C   0  0  0  0  0  0
  -18.1933  -26.7929   22.1626 C   0  0  0  0  0  0
  -19.1541  -28.8855   23.2881 C   0  0  0  0  0  0
  -18.9462  -30.1456   23.8898 C   0  0  0  0  0  0
  -17.6462  -30.6587   24.0565 C   0  0  0  0  0  0
  -25.9048  -34.9450   23.5107 C   0  0  0  0  0  0
  -16.5353  -29.9085   23.6331 C   0  0  0  0  0  0
  -16.7275  -28.6504   23.0351 C   0  0  0  0  0  0
  -26.4495  -31.6584   25.0721 C   0  0  0  0  0  0
  -25.3729  -31.3719   26.1447 C   0  0  0  0  0  0
  -27.0339  -30.3009   24.6173 C   0  0  0  0  0  0
  -27.6055  -32.4316   25.7493 C   0  0  0  0  0  0
  -27.5577  -37.1800   24.8466 C   0  0  0  0  0  0
  -21.4193  -29.3040   22.3674 N   0  0  0  0  0  0
  -26.4290  -37.3776   23.9409 N   0  0  0  0  0  0
  -24.6893  -31.0593   22.0973 N   0  0  0  0  0  0
  -23.4198  -28.8155   23.3018 O   0  0  0  0  0  0
  -28.3213  -26.4365   20.1446 O   0  0  0  0  0  0
  -26.5616  -34.8918   22.4673 O   0  0  0  0  0  0
  -23.5428  -32.1389   23.7343 O   0  0  0  0  0  0
  -30.7602  -19.3688   20.0330 C   0  0  0  0  0  0
  -30.8855  -17.9490   20.1882 C   0  0  0  0  0  0
  -29.5645  -23.6098   19.1416 C   0  0  0  0  0  0
  -28.5070  -19.2820   20.8476 C   0  0  0  0  0  0
  -28.7664  -23.8020   20.3081 C   0  0  0  0  0  0
  -29.5636  -20.0866   20.3412 C   0  0  0  0  0  0
  -29.8145  -17.1576   20.6834 C   0  0  0  0  0  0
  -28.6327  -17.8700   21.0268 C   0  0  0  0  0  0
  -29.9213  -22.2845   19.0490 C   0  0  0  0  0  0
  -28.7129  -22.5218   20.8687 C   0  0  0  0  0  0
  -28.0846  -25.1315   20.8120 C   0  0  0  0  0  0
  -29.4112  -21.5414   20.1160 N   0  0  0  0  0  0
  -27.5579  -17.1537   21.5585 N   0  0  0  0  0  0
  -29.7894  -15.7005   20.8536 N   0  0  0  0  0  0
  -30.6506  -21.6912   18.0635 O   0  0  0  0  0  0
  -28.0802  -22.1476   22.0169 O   0  0  0  0  0  0
  -31.4835  -12.5380   19.1517 H   0  0  0  0  0  0
  -30.3837  -11.4123   19.8981 H   0  0  0  0  0  0
  -29.7769  -11.7640   17.4825 H   0  0  0  0  0  0
  -29.6493  -13.4844   17.7451 H   0  0  0  0  0  0
  -27.8726  -11.2974   18.8722 H   0  0  0  0  0  0
  -27.3783  -12.5793   17.7980 H   0  0  0  0  0  0
  -27.6673  -14.2579   19.5275 H   0  0  0  0  0  0
  -28.7174  -12.0561   21.3751 H   0  0  0  0  0  0
  -28.4450  -13.7072   21.8490 H   0  0  0  0  0  0
  -25.2765   -9.5677   22.4751 H   0  0  0  0  0  0
  -23.9998   -7.4634   22.7477 H   0  0  0  0  0  0
  -21.0839   -8.8766   19.8953 H   0  0  0  0  0  0
  -22.3702  -10.9657   19.6149 H   0  0  0  0  0  0
  -21.2005   -7.6145   23.9715 H   0  0  0  0  0  0
  -21.1481   -6.0521   25.9077 H   0  0  0  0  0  0
  -22.0600   -2.7608   23.2846 H   0  0  0  0  0  0
  -22.4104  -11.9857   22.4771 H   0  0  0  0  0  0
  -21.1111  -13.1237   22.2628 H   0  0  0  0  0  0
  -24.6504  -15.8267   20.6085 H   0  0  0  0  0  0
  -26.3112  -15.6709   20.3903 H   0  0  0  0  0  0
  -26.7178  -32.5450   23.1102 H   0  0  0  0  0  0
  -25.0071  -33.9720   25.0427 H   0  0  0  0  0  0
  -22.7162  -31.3013   21.3993 H   0  0  0  0  0  0
  -23.3749  -35.9623   23.3305 H   0  0  0  0  0  0
  -24.3578  -36.8907   22.2053 H   0  0  0  0  0  0
  -23.7239  -37.6493   23.6660 H   0  0  0  0  0  0
  -26.0933  -31.5513   20.6051 H   0  0  0  0  0  0
  -26.8438  -30.8405   22.0028 H   0  0  0  0  0  0
  -28.1221  -28.9806   21.1967 H   0  0  0  0  0  0
  -26.0128  -25.9251   19.0025 H   0  0  0  0  0  0
  -23.9814  -27.3044   19.0053 H   0  0  0  0  0  0
  -23.7589  -30.5905   19.4030 H   0  0  0  0  0  0
  -22.7595  -29.2435   19.8570 H   0  0  0  0  0  0
  -25.1292  -36.1934   25.0824 H   0  0  0  0  0  0
  -20.9984  -28.3266   24.1404 H   0  0  0  0  0  0
  -20.5684  -26.2296   23.3610 H   0  0  0  0  0  0
  -21.6645  -26.7445   22.1202 H   0  0  0  0  0  0
  -19.6915  -25.6297   21.1242 H   0  0  0  0  0  0
  -19.6692  -27.3195   20.6745 H   0  0  0  0  0  0
  -17.4203  -26.6676   21.4028 H   0  0  0  0  0  0
  -18.0334  -26.0071   22.9023 H   0  0  0  0  0  0
  -19.7937  -30.7272   24.2268 H   0  0  0  0  0  0
  -17.5015  -31.6267   24.5166 H   0  0  0  0  0  0
  -15.5354  -30.2987   23.7655 H   0  0  0  0  0  0
  -15.8674  -28.0823   22.7066 H   0  0  0  0  0  0
  -24.5905  -30.7067   25.7775 H   0  0  0  0  0  0
  -24.8918  -32.2883   26.4874 H   0  0  0  0  0  0
  -25.8053  -30.8893   27.0221 H   0  0  0  0  0  0
  -26.2912  -29.6756   24.1205 H   0  0  0  0  0  0
  -27.4048  -29.7267   25.4674 H   0  0  0  0  0  0
  -27.8777  -30.4299   23.9390 H   0  0  0  0  0  0
  -27.2669  -33.3618   26.2069 H   0  0  0  0  0  0
  -28.3867  -32.6871   25.0321 H   0  0  0  0  0  0
  -28.0720  -31.8440   26.5410 H   0  0  0  0  0  0
  -28.2597  -38.0095   24.7510 H   0  0  0  0  0  0
  -28.1070  -36.2626   24.6295 H   0  0  0  0  0  0
  -27.2295  -37.1455   25.8869 H   0  0  0  0  0  0
  -20.9372  -29.8753   21.6875 H   0  0  0  0  0  0
  -26.0171  -38.2851   24.1409 H   0  0  0  0  0  0
  -31.6103  -19.9136   19.6488 H   0  0  0  0  0  0
  -31.8175  -17.4773   19.9121 H   0  0  0  0  0  0
  -29.8330  -24.3775   18.4292 H   0  0  0  0  0  0
  -27.5746  -19.7640   21.1017 H   0  0  0  0  0  0
  -28.3997  -25.2636   21.8475 H   0  0  0  0  0  0
  -27.0183  -24.9132   20.8754 H   0  0  0  0  0  0
  -26.7813  -17.7244   21.8743 H   0  0  0  0  0  0
  -27.8067  -16.5003   22.2919 H   0  0  0  0  0  0
  -28.8789  -15.3841   21.1488 H   0  0  0  0  0  0
  -30.8952  -22.3650   17.4365 H   0  0  0  0  0  0
  -27.7000  -22.9221   22.4167 H   0  0  0  0  0  0
  1 25  1  0  0  0
  1 30  2  0  0  0
  1 84  1  0  0  0
  2  3  1  0  0  0
  2 25  1  0  0  0
  2 87  1  0  0  0
  2 88  1  0  0  0
  3  4  1  0  0  0
  3 89  1  0  0  0
  3 90  1  0  0  0
  4  5  1  0  0  0
  4 91  1  0  0  0
  4 92  1  0  0  0
  5  6  1  0  0  0
  5 26  1  0  0  0
  5 93  1  0  0  0
  6 25  1  0  0  0
  6 94  1  0  0  0
  6 95  1  0  0  0
  7  8  2  0  0  0
  7 26  1  0  0  0
  7 29  1  0  0  0
  8  9  1  0  0  0
  8 22  1  0  0  0
  9 10  1  0  0  0
  9 27  2  0  0  0
 10 11  2  0  0  0
 10 15  1  0  0  0
 11 12  1  0  0  0
 11 96  1  0  0  0
 12 13  2  0  0  0
 12 97  1  0  0  0
 13 14  1  0  0  0
 13 31  1  0  0  0
 14 15  2  0  0  0
 14 98  1  0  0  0
 15 99  1  0  0  0
 16 17  2  0  0  0
 16 21  1  0  0  0
 16 31  1  0  0  0
 17 18  1  0  0  0
 17100  1  0  0  0
 18 19  2  0  0  0
 18101  1  0  0  0
 19 20  1  0  0  0
 19 24  1  0  0  0
 20 21  2  0  0  0
 20102  1  0  0  0
 21 23  1  0  0  0
 22 28  1  0  0  0
 22 32  2  0  0  0
 26 27  1  0  0  0
 28103  1  0  0  0
 28104  1  0  0  0
 29105  1  0  0  0
 29106  1  0  0  0
 33 34  1  0  0  0
 33 66  1  0  0  0
 33 70  2  0  0  0
 34 36  1  0  0  0
 34 59  1  0  0  0
 34107  1  0  0  0
 35 44  2  0  0  0
 35 45  1  0  0  0
 35 68  1  0  0  0
 36 56  1  0  0  0
 36108  1  0  0  0
 37 39  1  0  0  0
 37 47  1  0  0  0
 37 66  1  0  0  0
 37109  1  0  0  0
 38 43  2  0  0  0
 38 46  1  0  0  0
 38 47  1  0  0  0
 39 64  1  0  0  0
 39 67  2  0  0  0
 40 52  1  0  0  0
 40 53  2  0  0  0
 40 58  1  0  0  0
 41110  1  0  0  0
 41111  1  0  0  0
 41112  1  0  0  0
 41 48  1  0  0  0
 42 43  1  0  0  0
 42 66  1  0  0  0
 42113  1  0  0  0
 42114  1  0  0  0
 43 44  1  0  0  0
 44115  1  0  0  0
 45 46  2  0  0  0
 45116  1  0  0  0
 46117  1  0  0  0
 47118  1  0  0  0
 47119  1  0  0  0
 48 56  1  0  0  0
 48 65  1  0  0  0
 48120  1  0  0  0
 49 50  1  0  0  0
 49 53  1  0  0  0
 49 64  1  0  0  0
 49121  1  0  0  0
 50 51  1  0  0  0
 50122  1  0  0  0
 50123  1  0  0  0
 51 52  1  0  0  0
 51124  1  0  0  0
 51125  1  0  0  0
 52126  1  0  0  0
 52127  1  0  0  0
 53 54  1  0  0  0
 54 55  2  0  0  0
 54128  1  0  0  0
 55 57  1  0  0  0
 55129  1  0  0  0
 56 69  2  0  0  0
 57 58  2  0  0  0
 57130  1  0  0  0
 58131  1  0  0  0
 59 60  1  0  0  0
 59 61  1  0  0  0
 59 62  1  0  0  0
 60132  1  0  0  0
 60133  1  0  0  0
 60134  1  0  0  0
 61135  1  0  0  0
 61136  1  0  0  0
 61137  1  0  0  0
 62138  1  0  0  0
 62139  1  0  0  0
 62140  1  0  0  0
 63 65  1  0  0  0
 63141  1  0  0  0
 63142  1  0  0  0
 63143  1  0  0  0
 64144  1  0  0  0
 65145  1  0  0  0
 68 81  1  0  0  0
 71 72  2  0  0  0
 71 76  1  0  0  0
 71146  1  0  0  0
 72 77  1  0  0  0
 72147  1  0  0  0
 73 75  1  0  0  0
 73 79  2  0  0  0
 73148  1  0  0  0
 74 76  2  0  0  0
 74 78  1  0  0  0
 74149  1  0  0  0
 75 80  2  0  0  0
 75 81  1  0  0  0
 76 82  1  0  0  0
 77 78  2  0  0  0
 77 84  1  0  0  0
 78 83  1  0  0  0
 79 82  1  0  0  0
 79 85  1  0  0  0
 80 82  1  0  0  0
 80 86  1  0  0  0
 81150  1  0  0  0
 81151  1  0  0  0
 83152  1  0  0  0
 83153  1  0  0  0
 84154  1  0  0  0
 85155  1  0  0  0
 86156  1  0  0  0
M  ISO  4   1 100  68 101  81 101  84 100
M  END
> <chiral flag>
0

> <version>
0

> <s_m_source_file>
/data/baiqing/PycharmProjects/Reinvent-master-3.2/result/LINK_invent/BTK/process_docking_weight1_custom_product_contain_oxygen_bond_distance_aromatic_linkinvent_7_9_3/rearranged_h_0095.sdf

> <i_m_source_file_index>
69

> <r_mmod_Potential_Energy-OPLS-2005>
-6.19313812255859

> <r_mmod_Stretch_Energy-OPLS-2005>
84.3771362304688

> <r_mmod_Bend_Energy-OPLS-2005>
144.552688598633

> <r_mmod_Torsional_Energy-OPLS-2005>
254.277328491211

> <r_mmod_Improper_Torsional_Energy-OPLS-2005>
10.0425271987915

> <r_mmod_Van_der_Waal_Energy-OPLS-2005>
142.383056640625

> <r_mmod_Electrostatic_Energy-OPLS-2005>
-465.643371582031

> <r_mmod_Solvation_Energy-OPLS-2005>
-231.058074951172

> <b_mmod_Minimization_Converged-OPLS-2005>
0

> <r_mmod_RMS_Derivative-OPLS-2005>
0.3295918405056

$$$$
69
                    3D
 Structure written by MMmdl.
156165  0  0  1  0            999 V2000
  -30.7751  -14.4738   20.5697 C   0  0  0  0  0  0
  -30.3860  -12.3118   19.4450 C   0  0  0  0  0  0
  -29.4847  -12.5113   18.2147 C   0  0  0  0  0  0
  -28.0072  -12.3730   18.6232 C   0  0  0  0  0  0
  -27.6472  -13.2322   19.8657 C   0  0  2  0  0  0
  -28.6892  -13.0815   20.9984 C   0  0  0  0  0  0
  -25.2494  -13.8219   20.5725 C   0  0  0  0  0  0
  -24.1774  -13.0458   20.9201 C   0  0  0  0  0  0
  -24.6366  -11.6932   20.8739 C   0  0  0  0  0  0
  -23.9055  -10.4305   21.0391 C   0  0  0  0  0  0
  -24.3608   -9.4216   21.9166 C   0  0  0  0  0  0
  -23.6287   -8.2250   22.0745 C   0  0  0  0  0  0
  -22.4272   -8.0280   21.3540 C   0  0  0  0  0  0
  -21.9905   -9.0247   20.4640 C   0  0  0  0  0  0
  -22.7226  -10.2126   20.3041 C   0  0  0  0  0  0
  -21.6845   -6.0734   22.5278 C   0  0  0  0  0  0
  -21.4012   -6.5636   23.8213 C   0  0  0  0  0  0
  -21.3664   -5.6785   24.9176 C   0  0  0  0  0  0
  -21.6046   -4.3053   24.7226 C   0  0  0  0  0  0
  -21.8812   -3.8141   23.4349 C   0  0  0  0  0  0
  -21.9193   -4.6959   22.3401 C   0  0  0  0  0  0
  -22.7789  -13.5220   21.1880 C   0  0  0  0  0  0
  -22.1656   -4.2140   21.0976 F   0  0  0  0  0  0
  -21.5638   -3.4537   25.7741 F   0  0  0  0  0  0
  -30.0185  -13.3456   20.4310 N   0  0  0  0  0  0
  -26.2943  -12.9445   20.3347 N   0  0  0  0  0  0
  -25.9296  -11.6583   20.5754 N   0  0  0  0  0  0
  -22.0444  -12.8192   22.0435 N   0  0  0  0  0  0
  -25.4225  -15.1943   20.4192 N   0  0  0  0  0  0
  -31.9046  -14.5204   20.0776 O   0  0  0  0  0  0
  -21.6634   -6.8878   21.4243 O   0  0  0  0  0  0
  -22.3462  -14.5527   20.6746 O   0  0  0  0  0  0
  -24.6170  -31.8628   23.2052 C   0  0  0  0  0  0
  -25.9064  -32.4783   23.8352 C   0  0  1  0  0  0
  -27.2373  -27.4056   20.1085 C   0  0  0  0  0  0
  -25.5937  -33.8585   24.2291 N   0  0  0  0  0  0
  -23.4030  -30.4873   21.5424 C   0  0  2  0  0  0
  -24.8502  -28.9462   20.1118 C   0  0  0  0  0  0
  -22.7384  -29.4661   22.4934 C   0  0  0  0  0  0
  -18.0258  -28.1404   22.8481 C   0  0  0  0  0  0
  -24.1505  -36.7331   23.2626 C   0  0  0  0  0  0
  -25.9304  -30.8264   21.3523 C   0  0  0  0  0  0
  -26.0084  -29.4542   20.7098 C   0  0  0  0  0  0
  -27.1995  -28.6906   20.7062 C   0  0  0  0  0  0
  -26.0553  -26.9154   19.5051 C   0  0  0  0  0  0
  -24.8712  -27.6781   19.5048 C   0  0  0  0  0  0
  -23.6120  -29.8143   20.1585 C   0  0  0  0  0  0
  -25.4116  -36.3090   24.0316 C   0  0  1  0  0  0
  -20.5847  -28.3692   23.1293 C   0  0  2  0  0  0
  -20.6763  -26.9423   22.5414 C   0  0  0  0  0  0
  -19.5743  -26.6416   21.5211 C   0  0  0  0  0  0
  -18.1913  -26.7946   22.1616 C   0  0  0  0  0  0
  -19.1505  -28.8857   23.2890 C   0  0  0  0  0  0
  -18.9444  -30.1462   23.8902 C   0  0  0  0  0  0
  -17.6455  -30.6603   24.0578 C   0  0  0  0  0  0
  -25.9046  -34.9452   23.5089 C   0  0  0  0  0  0
  -16.5340  -29.9112   23.6332 C   0  0  0  0  0  0
  -16.7248  -28.6533   23.0336 C   0  0  0  0  0  0
  -26.4481  -31.6554   25.0678 C   0  0  0  0  0  0
  -25.3759  -31.3624   26.1439 C   0  0  0  0  0  0
  -27.0258  -30.2988   24.6020 C   0  0  0  0  0  0
  -27.6122  -32.4191   25.7450 C   0  0  0  0  0  0
  -27.5568  -37.1812   24.8459 C   0  0  0  0  0  0
  -21.4111  -29.3050   22.3678 N   0  0  0  0  0  0
  -26.4296  -37.3787   23.9399 N   0  0  0  0  0  0
  -24.6692  -31.0742   22.0933 N   0  0  0  0  0  0
  -23.4147  -28.8203   23.2983 O   0  0  0  0  0  0
  -28.4264  -26.6948   20.1459 O   0  0  0  0  0  0
  -26.5592  -34.8915   22.4644 O   0  0  0  0  0  0
  -23.5371  -32.1381   23.7473 O   0  0  0  0  0  0
  -30.6514  -19.0589   22.3407 C   0  0  0  0  0  0
  -29.0113  -18.3544   20.6960 C   0  0  0  0  0  0
  -30.1321  -20.3698   22.3112 C   0  0  0  0  0  0
  -28.4837  -19.6719   20.6713 C   0  0  0  0  0  0
  -27.9817  -24.1625   21.8417 C   0  0  0  0  0  0
  -30.1182  -18.0332   21.5208 C   0  0  0  0  0  0
  -28.4474  -24.1895   20.4910 C   0  0  0  0  0  0
  -29.0627  -20.7008   21.4539 C   0  0  0  0  0  0
  -28.1333  -22.8862   22.3194 C   0  0  0  0  0  0
  -28.8181  -22.8917   20.2181 C   0  0  0  0  0  0
  -30.8674  -16.7193   21.4133 C   0  0  0  0  0  0
  -28.5605  -25.3880   19.5465 C   0  0  0  0  0  0
  -28.6635  -22.0689   21.3318 N   0  0  0  0  0  0
  -30.1974  -15.5774   21.1108 N   0  0  0  0  0  0
  -32.0853  -16.7548   21.6373 O   0  0  0  0  0  0
  -27.8624  -22.3947   23.5614 O   0  0  0  0  0  0
  -29.3396  -22.3904   19.0632 O   0  0  0  0  0  0
  -31.4350  -12.3429   19.1496 H   0  0  0  0  0  0
  -30.2336  -11.3173   19.8676 H   0  0  0  0  0  0
  -29.7286  -11.7821   17.4416 H   0  0  0  0  0  0
  -29.6609  -13.4961   17.7791 H   0  0  0  0  0  0
  -27.8224  -11.3205   18.8369 H   0  0  0  0  0  0
  -27.3585  -12.6326   17.7856 H   0  0  0  0  0  0
  -27.6740  -14.2722   19.5390 H   0  0  0  0  0  0
  -28.6545  -12.0737   21.4147 H   0  0  0  0  0  0
  -28.4567  -13.7558   21.8245 H   0  0  0  0  0  0
  -25.2749   -9.5688   22.4745 H   0  0  0  0  0  0
  -23.9996   -7.4635   22.7456 H   0  0  0  0  0  0
  -21.0842   -8.8752   19.8939 H   0  0  0  0  0  0
  -22.3676  -10.9659   19.6147 H   0  0  0  0  0  0
  -21.1995   -7.6141   23.9711 H   0  0  0  0  0  0
  -21.1498   -6.0522   25.9076 H   0  0  0  0  0  0
  -22.0591   -2.7606   23.2850 H   0  0  0  0  0  0
  -22.4060  -11.9830   22.4791 H   0  0  0  0  0  0
  -21.1056  -13.1195   22.2658 H   0  0  0  0  0  0
  -24.6653  -15.8582   20.5409 H   0  0  0  0  0  0
  -26.2893  -15.6312   20.1335 H   0  0  0  0  0  0
  -26.7130  -32.5490   23.1117 H   0  0  0  0  0  0
  -25.0112  -33.9736   25.0457 H   0  0  0  0  0  0
  -22.6982  -31.3084   21.3992 H   0  0  0  0  0  0
  -23.3771  -35.9655   23.3245 H   0  0  0  0  0  0
  -24.3602  -36.9008   22.2047 H   0  0  0  0  0  0
  -23.7261  -37.6518   23.6687 H   0  0  0  0  0  0
  -26.0239  -31.5822   20.5716 H   0  0  0  0  0  0
  -26.8273  -30.8984   21.9555 H   0  0  0  0  0  0
  -28.0938  -29.0835   21.1703 H   0  0  0  0  0  0
  -26.0126  -25.9441   19.0383 H   0  0  0  0  0  0
  -23.9808  -27.2756   19.0416 H   0  0  0  0  0  0
  -23.7214  -30.5855   19.3963 H   0  0  0  0  0  0
  -22.7371  -29.2322   19.8613 H   0  0  0  0  0  0
  -25.1301  -36.1929   25.0807 H   0  0  0  0  0  0
  -20.9932  -28.3297   24.1412 H   0  0  0  0  0  0
  -20.5689  -26.2307   23.3608 H   0  0  0  0  0  0
  -21.6628  -26.7488   22.1186 H   0  0  0  0  0  0
  -19.6922  -25.6341   21.1208 H   0  0  0  0  0  0
  -19.6682  -27.3247   20.6755 H   0  0  0  0  0  0
  -17.4177  -26.6682   21.4024 H   0  0  0  0  0  0
  -18.0313  -26.0100   22.9021 H   0  0  0  0  0  0
  -19.7928  -30.7263   24.2284 H   0  0  0  0  0  0
  -17.5018  -31.6272   24.5188 H   0  0  0  0  0  0
  -15.5347  -30.3020   23.7677 H   0  0  0  0  0  0
  -15.8647  -28.0882   22.7033 H   0  0  0  0  0  0
  -24.6053  -30.6824   25.7811 H   0  0  0  0  0  0
  -24.8805  -32.2721   26.4820 H   0  0  0  0  0  0
  -25.8157  -30.8902   27.0235 H   0  0  0  0  0  0
  -26.2723  -29.6771   24.1159 H   0  0  0  0  0  0
  -27.4113  -29.7216   25.4446 H   0  0  0  0  0  0
  -27.8554  -30.4325   23.9067 H   0  0  0  0  0  0
  -27.2898  -33.3623   26.1874 H   0  0  0  0  0  0
  -28.4041  -32.6456   25.0297 H   0  0  0  0  0  0
  -28.0622  -31.8315   26.5466 H   0  0  0  0  0  0
  -28.2583  -38.0111   24.7476 H   0  0  0  0  0  0
  -28.1049  -36.2619   24.6321 H   0  0  0  0  0  0
  -27.2249  -37.1518   25.8854 H   0  0  0  0  0  0
  -20.9261  -29.8784   21.6919 H   0  0  0  0  0  0
  -26.0166  -38.2856   24.1420 H   0  0  0  0  0  0
  -31.5183  -18.8607   22.9579 H   0  0  0  0  0  0
  -28.6000  -17.6081   20.0293 H   0  0  0  0  0  0
  -30.5974  -21.1388   22.9128 H   0  0  0  0  0  0
  -27.6568  -19.9004   20.0141 H   0  0  0  0  0  0
  -27.6128  -25.0114   22.4014 H   0  0  0  0  0  0
  -27.9388  -25.2393   18.6663 H   0  0  0  0  0  0
  -29.5801  -25.3526   19.1607 H   0  0  0  0  0  0
  -29.2005  -15.5824   21.2389 H   0  0  0  0  0  0
  -27.4931  -23.0995   24.0844 H   0  0  0  0  0  0
  -29.5099  -21.4647   19.2013 H   0  0  0  0  0  0
  1 25  1  0  0  0
  1 30  2  0  0  0
  1 84  1  0  0  0
  2  3  1  0  0  0
  2 25  1  0  0  0
  2 88  1  0  0  0
  2 89  1  0  0  0
  3  4  1  0  0  0
  3 90  1  0  0  0
  3 91  1  0  0  0
  4  5  1  0  0  0
  4 92  1  0  0  0
  4 93  1  0  0  0
  5  6  1  0  0  0
  5 26  1  0  0  0
  5 94  1  0  0  0
  6 25  1  0  0  0
  6 95  1  0  0  0
  6 96  1  0  0  0
  7  8  2  0  0  0
  7 26  1  0  0  0
  7 29  1  0  0  0
  8  9  1  0  0  0
  8 22  1  0  0  0
  9 10  1  0  0  0
  9 27  2  0  0  0
 10 11  2  0  0  0
 10 15  1  0  0  0
 11 12  1  0  0  0
 11 97  1  0  0  0
 12 13  2  0  0  0
 12 98  1  0  0  0
 13 14  1  0  0  0
 13 31  1  0  0  0
 14 15  2  0  0  0
 14 99  1  0  0  0
 15100  1  0  0  0
 16 17  2  0  0  0
 16 21  1  0  0  0
 16 31  1  0  0  0
 17 18  1  0  0  0
 17101  1  0  0  0
 18 19  2  0  0  0
 18102  1  0  0  0
 19 20  1  0  0  0
 19 24  1  0  0  0
 20 21  2  0  0  0
 20103  1  0  0  0
 21 23  1  0  0  0
 22 28  1  0  0  0
 22 32  2  0  0  0
 26 27  1  0  0  0
 28104  1  0  0  0
 28105  1  0  0  0
 29106  1  0  0  0
 29107  1  0  0  0
 33 34  1  0  0  0
 33 66  1  0  0  0
 33 70  2  0  0  0
 34 36  1  0  0  0
 34 59  1  0  0  0
 34108  1  0  0  0
 35 44  2  0  0  0
 35 45  1  0  0  0
 35 68  1  0  0  0
 36 56  1  0  0  0
 36109  1  0  0  0
 37 39  1  0  0  0
 37 47  1  0  0  0
 37 66  1  0  0  0
 37110  1  0  0  0
 38 43  2  0  0  0
 38 46  1  0  0  0
 38 47  1  0  0  0
 39 64  1  0  0  0
 39 67  2  0  0  0
 40 52  1  0  0  0
 40 53  2  0  0  0
 40 58  1  0  0  0
 41111  1  0  0  0
 41112  1  0  0  0
 41113  1  0  0  0
 41 48  1  0  0  0
 42 43  1  0  0  0
 42 66  1  0  0  0
 42114  1  0  0  0
 42115  1  0  0  0
 43 44  1  0  0  0
 44116  1  0  0  0
 45 46  2  0  0  0
 45117  1  0  0  0
 46118  1  0  0  0
 47119  1  0  0  0
 47120  1  0  0  0
 48 56  1  0  0  0
 48 65  1  0  0  0
 48121  1  0  0  0
 49 50  1  0  0  0
 49 53  1  0  0  0
 49 64  1  0  0  0
 49122  1  0  0  0
 50 51  1  0  0  0
 50123  1  0  0  0
 50124  1  0  0  0
 51 52  1  0  0  0
 51125  1  0  0  0
 51126  1  0  0  0
 52127  1  0  0  0
 52128  1  0  0  0
 53 54  1  0  0  0
 54 55  2  0  0  0
 54129  1  0  0  0
 55 57  1  0  0  0
 55130  1  0  0  0
 56 69  2  0  0  0
 57 58  2  0  0  0
 57131  1  0  0  0
 58132  1  0  0  0
 59 60  1  0  0  0
 59 61  1  0  0  0
 59 62  1  0  0  0
 60133  1  0  0  0
 60134  1  0  0  0
 60135  1  0  0  0
 61136  1  0  0  0
 61137  1  0  0  0
 61138  1  0  0  0
 62139  1  0  0  0
 62140  1  0  0  0
 62141  1  0  0  0
 63 65  1  0  0  0
 63142  1  0  0  0
 63143  1  0  0  0
 63144  1  0  0  0
 64145  1  0  0  0
 65146  1  0  0  0
 68 82  1  0  0  0
 71 73  2  0  0  0
 71 76  1  0  0  0
 71147  1  0  0  0
 72 74  1  0  0  0
 72 76  2  0  0  0
 72148  1  0  0  0
 73 78  1  0  0  0
 73149  1  0  0  0
 74 78  2  0  0  0
 74150  1  0  0  0
 75 77  1  0  0  0
 75 79  2  0  0  0
 75151  1  0  0  0
 76 81  1  0  0  0
 77 80  2  0  0  0
 77 82  1  0  0  0
 78 83  1  0  0  0
 79 83  1  0  0  0
 79 86  1  0  0  0
 80 83  1  0  0  0
 80 87  1  0  0  0
 81 84  1  0  0  0
 81 85  2  0  0  0
 82152  1  0  0  0
 82153  1  0  0  0
 84154  1  0  0  0
 86155  1  0  0  0
 87156  1  0  0  0
M  ISO  4   1 100  68 101  82 101  84 100
M  END
> <chiral flag>
0

> <version>
0

> <s_m_source_file>
/data/baiqing/PycharmProjects/Reinvent-master-3.2/result/LINK_invent/BTK/process_docking_weight1_custom_product_contain_oxygen_bond_distance_aromatic_linkinvent_7_9_3/rearranged_h_0095.sdf

> <i_m_source_file_index>
70

> <r_mmod_Potential_Energy-OPLS-2005>
-54.6513595581055

> <r_mmod_Stretch_Energy-OPLS-2005>
42.6574668884277

> <r_mmod_Bend_Energy-OPLS-2005>
119.558372497559

> <r_mmod_Torsional_Energy-OPLS-2005>
239.488494873047

> <r_mmod_Improper_Torsional_Energy-OPLS-2005>
4.78669691085815

> <r_mmod_Van_der_Waal_Energy-OPLS-2005>
156.751052856445

> <r_mmod_Electrostatic_Energy-OPLS-2005>
-392.464782714844

> <r_mmod_Solvation_Energy-OPLS-2005>
-246.461517333984

> <b_mmod_Minimization_Converged-OPLS-2005>
0

> <r_mmod_RMS_Derivative-OPLS-2005>
2.78136873245239

$$$$
70
                    3D
 Structure written by MMmdl.
161170  0  0  1  0            999 V2000
  -30.6013  -14.8535   20.3715 C   0  0  0  0  0  0
  -30.4311  -12.5081   19.4547 C   0  0  0  0  0  0
  -29.4978  -12.4369   18.2276 C   0  0  0  0  0  0
  -28.0316  -12.2242   18.6662 C   0  0  0  0  0  0
  -27.6058  -13.1599   19.8259 C   0  0  2  0  0  0
  -28.6782  -13.2464   20.9398 C   0  0  0  0  0  0
  -25.2379  -13.7893   20.5769 C   0  0  0  0  0  0
  -24.1622  -13.0241   20.9256 C   0  0  0  0  0  0
  -24.6191  -11.6726   20.8835 C   0  0  0  0  0  0
  -23.8895  -10.4160   21.0487 C   0  0  0  0  0  0
  -24.3489   -9.4101   21.9263 C   0  0  0  0  0  0
  -23.6181   -8.2137   22.0796 C   0  0  0  0  0  0
  -22.4180   -8.0202   21.3563 C   0  0  0  0  0  0
  -21.9780   -9.0172   20.4679 C   0  0  0  0  0  0
  -22.7097  -10.2037   20.3113 C   0  0  0  0  0  0
  -21.6794   -6.0667   22.5276 C   0  0  0  0  0  0
  -21.3983   -6.5573   23.8209 C   0  0  0  0  0  0
  -21.3649   -5.6743   24.9181 C   0  0  0  0  0  0
  -21.6058   -4.3010   24.7250 C   0  0  0  0  0  0
  -21.8812   -3.8099   23.4369 C   0  0  0  0  0  0
  -21.9161   -4.6905   22.3420 C   0  0  0  0  0  0
  -22.7679  -13.5149   21.1899 C   0  0  0  0  0  0
  -22.1635   -4.2102   21.0986 F   0  0  0  0  0  0
  -21.5670   -3.4491   25.7765 F   0  0  0  0  0  0
  -29.9507  -13.6255   20.3008 N   0  0  0  0  0  0
  -26.2749  -12.8970   20.3365 N   0  0  0  0  0  0
  -25.9107  -11.6212   20.5888 N   0  0  0  0  0  0
  -22.0226  -12.8273   22.0477 N   0  0  0  0  0  0
  -25.3936  -15.1595   20.4213 N   0  0  0  0  0  0
  -31.8301  -14.8577   20.2524 O   0  0  0  0  0  0
  -21.6587   -6.8791   21.4232 O   0  0  0  0  0  0
  -22.3465  -14.5475   20.6692 O   0  0  0  0  0  0
  -24.6321  -31.8548   23.2011 C   0  0  0  0  0  0
  -25.9154  -32.4762   23.8365 C   0  0  1  0  0  0
  -27.2412  -27.2978   20.1441 C   0  0  0  0  0  0
  -25.5960  -33.8554   24.2296 N   0  0  0  0  0  0
  -23.4265  -30.4752   21.5430 C   0  0  2  0  0  0
  -24.8789  -28.9223   20.1133 C   0  0  0  0  0  0
  -22.7499  -29.4619   22.4959 C   0  0  0  0  0  0
  -18.0303  -28.1410   22.8472 C   0  0  0  0  0  0
  -24.1467  -36.7281   23.2633 C   0  0  0  0  0  0
  -25.9654  -30.7854   21.3688 C   0  0  0  0  0  0
  -26.0461  -29.4070   20.7175 C   0  0  0  0  0  0
  -27.2308  -28.6096   20.7150 C   0  0  0  0  0  0
  -26.0550  -26.8666   19.5094 C   0  0  0  0  0  0
  -24.8884  -27.6617   19.4919 C   0  0  0  0  0  0
  -23.6401  -29.7964   20.1630 C   0  0  0  0  0  0
  -25.4091  -36.3053   24.0330 C   0  0  1  0  0  0
  -20.5897  -28.3715   23.1271 C   0  0  2  0  0  0
  -20.6817  -26.9438   22.5402 C   0  0  0  0  0  0
  -19.5797  -26.6393   21.5216 C   0  0  0  0  0  0
  -18.1957  -26.7966   22.1592 C   0  0  0  0  0  0
  -19.1545  -28.8890   23.2862 C   0  0  0  0  0  0
  -18.9449  -30.1495   23.8870 C   0  0  0  0  0  0
  -17.6440  -30.6601   24.0545 C   0  0  0  0  0  0
  -25.9028  -34.9430   23.5099 C   0  0  0  0  0  0
  -16.5339  -29.9070   23.6347 C   0  0  0  0  0  0
  -16.7276  -28.6497   23.0354 C   0  0  0  0  0  0
  -26.4541  -31.6611   25.0761 C   0  0  0  0  0  0
  -25.3821  -31.3749   26.1542 C   0  0  0  0  0  0
  -27.0403  -30.3044   24.6244 C   0  0  0  0  0  0
  -27.6107  -32.4377   25.7516 C   0  0  0  0  0  0
  -27.5563  -37.1760   24.8452 C   0  0  0  0  0  0
  -21.4213  -29.3034   22.3651 N   0  0  0  0  0  0
  -26.4256  -37.3759   23.9415 N   0  0  0  0  0  0
  -24.6939  -31.0556   22.0956 N   0  0  0  0  0  0
  -23.4191  -28.8189   23.3089 O   0  0  0  0  0  0
  -28.3601  -26.4437   20.1625 O   0  0  0  0  0  0
  -26.5543  -34.8902   22.4627 O   0  0  0  0  0  0
  -23.5479  -32.1332   23.7346 O   0  0  0  0  0  0
  -30.9777  -18.6748   22.8017 C   0  0  0  0  0  0
  -30.5883  -19.9137   22.2405 C   0  0  0  0  0  0
  -30.8003  -17.4550   22.1188 C   0  0  0  0  0  0
  -30.0150  -20.0016   20.9496 C   0  0  0  0  0  0
  -30.2283  -17.4174   20.8351 C   0  0  0  0  0  0
  -29.8650  -18.7252   20.2613 C   0  0  0  0  0  0
  -29.4818  -21.7513   19.1444 C   0  0  0  0  0  0
  -27.8619  -16.0077   17.2511 C   0  0  0  0  0  0
  -28.9257  -15.9091   18.0692 C   0  0  0  0  0  0
  -28.7755  -16.1741   19.4969 C   0  0  0  0  0  0
  -28.9331  -23.1847   18.9920 C   0  0  0  0  0  0
  -29.2763  -22.5652   21.2612 C   0  0  0  0  0  0
  -29.1878  -23.8608   20.3415 C   0  0  2  0  0  0
  -28.1992  -25.0746   20.7353 C   0  0  0  0  0  0
  -29.5963  -21.3492   20.4321 N   0  0  0  0  0  0
  -29.9028  -16.0821   20.2275 N   0  0  0  0  0  0
  -29.8120  -21.1110   18.1446 O   0  0  0  0  0  0
  -27.7193  -16.5507   20.0175 O   0  0  0  0  0  0
  -29.3051  -18.7540   19.0336 F   0  0  0  0  0  0
  -31.4650  -12.6431   19.1338 H   0  0  0  0  0  0
  -30.4074  -11.5700   20.0109 H   0  0  0  0  0  0
  -29.8094  -11.6271   17.5662 H   0  0  0  0  0  0
  -29.5863  -13.3412   17.6329 H   0  0  0  0  0  0
  -27.9357  -11.1887   18.9944 H   0  0  0  0  0  0
  -27.3568  -12.3337   17.8158 H   0  0  0  0  0  0
  -27.4838  -14.0978   19.3249 H   0  0  0  0  0  0
  -28.7716  -12.2880   21.4569 H   0  0  0  0  0  0
  -28.3904  -13.9850   21.6890 H   0  0  0  0  0  0
  -25.2613   -9.5614   22.4855 H   0  0  0  0  0  0
  -23.9883   -7.4531   22.7492 H   0  0  0  0  0  0
  -21.0717   -8.8691   19.8988 H   0  0  0  0  0  0
  -22.3565  -10.9600   19.6243 H   0  0  0  0  0  0
  -21.1960   -7.6075   23.9704 H   0  0  0  0  0  0
  -21.1497   -6.0469   25.9074 H   0  0  0  0  0  0
  -22.0616   -2.7567   23.2870 H   0  0  0  0  0  0
  -22.3671  -11.9922   22.4973 H   0  0  0  0  0  0
  -21.0915  -13.1509   22.2693 H   0  0  0  0  0  0
  -24.6217  -15.8052   20.5400 H   0  0  0  0  0  0
  -26.2793  -15.6373   20.2376 H   0  0  0  0  0  0
  -26.7229  -32.5437   23.1127 H   0  0  0  0  0  0
  -25.0267  -33.9688   25.0554 H   0  0  0  0  0  0
  -22.7238  -31.2980   21.3951 H   0  0  0  0  0  0
  -23.3729  -35.9607   23.3271 H   0  0  0  0  0  0
  -24.3567  -36.8927   22.2050 H   0  0  0  0  0  0
  -23.7217  -37.6477   23.6672 H   0  0  0  0  0  0
  -26.0891  -31.5438   20.5942 H   0  0  0  0  0  0
  -26.8468  -30.8438   21.9961 H   0  0  0  0  0  0
  -28.1308  -28.9825   21.1843 H   0  0  0  0  0  0
  -26.0215  -25.8982   19.0303 H   0  0  0  0  0  0
  -23.9969  -27.2914   19.0055 H   0  0  0  0  0  0
  -23.7371  -30.5603   19.3910 H   0  0  0  0  0  0
  -22.7663  -29.2071   19.8814 H   0  0  0  0  0  0
  -25.1263  -36.1895   25.0818 H   0  0  0  0  0  0
  -20.9974  -28.3313   24.1404 H   0  0  0  0  0  0
  -20.5805  -26.2303   23.3592 H   0  0  0  0  0  0
  -21.6678  -26.7543   22.1143 H   0  0  0  0  0  0
  -19.6956  -25.6292   21.1280 H   0  0  0  0  0  0
  -19.6768  -27.3177   20.6725 H   0  0  0  0  0  0
  -17.4255  -26.6742   21.3953 H   0  0  0  0  0  0
  -18.0320  -26.0108   22.8978 H   0  0  0  0  0  0
  -19.7914  -30.7336   24.2228 H   0  0  0  0  0  0
  -17.4976  -31.6293   24.5126 H   0  0  0  0  0  0
  -15.5331  -30.2930   23.7724 H   0  0  0  0  0  0
  -15.8688  -28.0795   22.7092 H   0  0  0  0  0  0
  -24.5908  -30.7196   25.7890 H   0  0  0  0  0  0
  -24.9133  -32.2918   26.5120 H   0  0  0  0  0  0
  -25.8186  -30.8809   27.0237 H   0  0  0  0  0  0
  -26.2969  -29.6765   24.1324 H   0  0  0  0  0  0
  -27.4146  -29.7356   25.4768 H   0  0  0  0  0  0
  -27.8823  -30.4338   23.9445 H   0  0  0  0  0  0
  -27.2697  -33.3625   26.2191 H   0  0  0  0  0  0
  -28.3849  -32.7049   25.0310 H   0  0  0  0  0  0
  -28.0893  -31.8493   26.5361 H   0  0  0  0  0  0
  -28.2574  -38.0059   24.7509 H   0  0  0  0  0  0
  -28.1049  -36.2595   24.6237 H   0  0  0  0  0  0
  -27.2291  -37.1389   25.8854 H   0  0  0  0  0  0
  -20.9463  -29.8583   21.6672 H   0  0  0  0  0  0
  -26.0142  -38.2826   24.1437 H   0  0  0  0  0  0
  -31.3999  -18.6491   23.7962 H   0  0  0  0  0  0
  -30.7528  -20.8042   22.8276 H   0  0  0  0  0  0
  -31.0657  -16.5336   22.6154 H   0  0  0  0  0  0
  -27.9593  -15.8413   16.1884 H   0  0  0  0  0  0
  -26.8763  -16.2595   17.6217 H   0  0  0  0  0  0
  -29.8905  -15.6553   17.6561 H   0  0  0  0  0  0
  -27.8655  -23.1229   18.7805 H   0  0  0  0  0  0
  -29.4163  -23.7181   18.1723 H   0  0  0  0  0  0
  -28.3273  -22.4003   21.7735 H   0  0  0  0  0  0
  -30.0317  -22.7227   22.0295 H   0  0  0  0  0  0
  -30.1941  -24.2819   20.3116 H   0  0  0  0  0  0
  -28.3208  -25.2252   21.8096 H   0  0  0  0  0  0
  -27.1740  -24.7204   20.6330 H   0  0  0  0  0  0
  1 25  1  0  0  0
  1 30  2  0  0  0
  1 86  1  0  0  0
  2  3  1  0  0  0
  2 25  1  0  0  0
  2 90  1  0  0  0
  2 91  1  0  0  0
  3  4  1  0  0  0
  3 92  1  0  0  0
  3 93  1  0  0  0
  4  5  1  0  0  0
  4 94  1  0  0  0
  4 95  1  0  0  0
  5  6  1  0  0  0
  5 26  1  0  0  0
  5 96  1  0  0  0
  6 25  1  0  0  0
  6 97  1  0  0  0
  6 98  1  0  0  0
  7  8  2  0  0  0
  7 26  1  0  0  0
  7 29  1  0  0  0
  8  9  1  0  0  0
  8 22  1  0  0  0
  9 10  1  0  0  0
  9 27  2  0  0  0
 10 11  2  0  0  0
 10 15  1  0  0  0
 11 12  1  0  0  0
 11 99  1  0  0  0
 12 13  2  0  0  0
 12100  1  0  0  0
 13 14  1  0  0  0
 13 31  1  0  0  0
 14 15  2  0  0  0
 14101  1  0  0  0
 15102  1  0  0  0
 16 17  2  0  0  0
 16 21  1  0  0  0
 16 31  1  0  0  0
 17 18  1  0  0  0
 17103  1  0  0  0
 18 19  2  0  0  0
 18104  1  0  0  0
 19 20  1  0  0  0
 19 24  1  0  0  0
 20 21  2  0  0  0
 20105  1  0  0  0
 21 23  1  0  0  0
 22 28  1  0  0  0
 22 32  2  0  0  0
 26 27  1  0  0  0
 28106  1  0  0  0
 28107  1  0  0  0
 29108  1  0  0  0
 29109  1  0  0  0
 33 34  1  0  0  0
 33 66  1  0  0  0
 33 70  2  0  0  0
 34 36  1  0  0  0
 34 59  1  0  0  0
 34110  1  0  0  0
 35 44  2  0  0  0
 35 45  1  0  0  0
 35 68  1  0  0  0
 36 56  1  0  0  0
 36111  1  0  0  0
 37 39  1  0  0  0
 37 47  1  0  0  0
 37 66  1  0  0  0
 37112  1  0  0  0
 38 43  2  0  0  0
 38 46  1  0  0  0
 38 47  1  0  0  0
 39 64  1  0  0  0
 39 67  2  0  0  0
 40 52  1  0  0  0
 40 53  2  0  0  0
 40 58  1  0  0  0
 41113  1  0  0  0
 41114  1  0  0  0
 41115  1  0  0  0
 41 48  1  0  0  0
 42 43  1  0  0  0
 42 66  1  0  0  0
 42116  1  0  0  0
 42117  1  0  0  0
 43 44  1  0  0  0
 44118  1  0  0  0
 45 46  2  0  0  0
 45119  1  0  0  0
 46120  1  0  0  0
 47121  1  0  0  0
 47122  1  0  0  0
 48 56  1  0  0  0
 48 65  1  0  0  0
 48123  1  0  0  0
 49 50  1  0  0  0
 49 53  1  0  0  0
 49 64  1  0  0  0
 49124  1  0  0  0
 50 51  1  0  0  0
 50125  1  0  0  0
 50126  1  0  0  0
 51 52  1  0  0  0
 51127  1  0  0  0
 51128  1  0  0  0
 52129  1  0  0  0
 52130  1  0  0  0
 53 54  1  0  0  0
 54 55  2  0  0  0
 54131  1  0  0  0
 55 57  1  0  0  0
 55132  1  0  0  0
 56 69  2  0  0  0
 57 58  2  0  0  0
 57133  1  0  0  0
 58134  1  0  0  0
 59 60  1  0  0  0
 59 61  1  0  0  0
 59 62  1  0  0  0
 60135  1  0  0  0
 60136  1  0  0  0
 60137  1  0  0  0
 61138  1  0  0  0
 61139  1  0  0  0
 61140  1  0  0  0
 62141  1  0  0  0
 62142  1  0  0  0
 62143  1  0  0  0
 63 65  1  0  0  0
 63144  1  0  0  0
 63145  1  0  0  0
 63146  1  0  0  0
 64147  1  0  0  0
 65148  1  0  0  0
 68 84  1  0  0  0
 71 72  2  0  0  0
 71 73  1  0  0  0
 71149  1  0  0  0
 72 74  1  0  0  0
 72150  1  0  0  0
 73 75  2  0  0  0
 73151  1  0  0  0
 74 76  2  0  0  0
 74 85  1  0  0  0
 75 76  1  0  0  0
 75 86  1  0  0  0
 76 89  1  0  0  0
 77 81  1  0  0  0
 77 85  1  0  0  0
 77 87  2  0  0  0
 78 79  2  0  0  0
 78152  1  0  0  0
 78153  1  0  0  0
 79 80  1  0  0  0
 79154  1  0  0  0
 80 86  1  0  0  0
 80 88  2  0  0  0
 81 83  1  0  0  0
 81155  1  0  0  0
 81156  1  0  0  0
 82 83  1  0  0  0
 82 85  1  0  0  0
 82157  1  0  0  0
 82158  1  0  0  0
 83 84  1  0  0  0
 83159  1  0  0  0
 84160  1  0  0  0
 84161  1  0  0  0
M  ISO  4   1 100  68 101  84 101  86 100
M  END
> <chiral flag>
0

> <version>
0

> <s_m_source_file>
/data/baiqing/PycharmProjects/Reinvent-master-3.2/result/LINK_invent/BTK/process_docking_weight1_custom_product_contain_oxygen_bond_distance_aromatic_linkinvent_7_9_3/rearranged_h_0095.sdf

> <i_m_source_file_index>
71

> <r_mmod_Potential_Energy-OPLS-2005>
404.025909423828

> <r_mmod_Stretch_Energy-OPLS-2005>
134.625244140625

> <r_mmod_Bend_Energy-OPLS-2005>
206.082672119141

> <r_mmod_Torsional_Energy-OPLS-2005>
384.168365478516

> <r_mmod_Improper_Torsional_Energy-OPLS-2005>
9.9271297454834

> <r_mmod_Van_der_Waal_Energy-OPLS-2005>
180.114883422852

> <r_mmod_Electrostatic_Energy-OPLS-2005>
-425.845825195312

> <r_mmod_Solvation_Energy-OPLS-2005>
-200.973739624023

> <b_mmod_Minimization_Converged-OPLS-2005>
0

> <r_mmod_RMS_Derivative-OPLS-2005>
4.67561531066895

$$$$
71
                    3D
 Structure written by MMmdl.
158166  0  0  1  0            999 V2000
  -30.6238  -14.7158   20.4578 C   0  0  0  0  0  0
  -30.4251  -12.4281   19.4802 C   0  0  0  0  0  0
  -29.5174  -12.5267   18.2345 C   0  0  0  0  0  0
  -28.0343  -12.3783   18.6292 C   0  0  0  0  0  0
  -27.6501  -13.2416   19.8629 C   0  0  2  0  0  0
  -28.6938  -13.1376   20.9973 C   0  0  0  0  0  0
  -25.2515  -13.8210   20.5680 C   0  0  0  0  0  0
  -24.1803  -13.0449   20.9182 C   0  0  0  0  0  0
  -24.6415  -11.6945   20.8721 C   0  0  0  0  0  0
  -23.9078  -10.4318   21.0376 C   0  0  0  0  0  0
  -24.3634   -9.4230   21.9150 C   0  0  0  0  0  0
  -23.6313   -8.2262   22.0720 C   0  0  0  0  0  0
  -22.4299   -8.0283   21.3517 C   0  0  0  0  0  0
  -21.9940   -9.0254   20.4625 C   0  0  0  0  0  0
  -22.7250  -10.2143   20.3029 C   0  0  0  0  0  0
  -21.6886   -6.0739   22.5257 C   0  0  0  0  0  0
  -21.4043   -6.5638   23.8189 C   0  0  0  0  0  0
  -21.3669   -5.6785   24.9141 C   0  0  0  0  0  0
  -21.6064   -4.3045   24.7204 C   0  0  0  0  0  0
  -21.8814   -3.8139   23.4319 C   0  0  0  0  0  0
  -21.9201   -4.6964   22.3383 C   0  0  0  0  0  0
  -22.7814  -13.5229   21.1847 C   0  0  0  0  0  0
  -22.1646   -4.2147   21.0955 F   0  0  0  0  0  0
  -21.5632   -3.4530   25.7712 F   0  0  0  0  0  0
  -30.0011  -13.4841   20.4292 N   0  0  0  0  0  0
  -26.2980  -12.9454   20.3325 N   0  0  0  0  0  0
  -25.9358  -11.6582   20.5736 N   0  0  0  0  0  0
  -22.0462  -12.8219   22.0401 N   0  0  0  0  0  0
  -25.4195  -15.1943   20.4124 N   0  0  0  0  0  0
  -31.7959  -14.8132   20.0814 O   0  0  0  0  0  0
  -21.6656   -6.8881   21.4220 O   0  0  0  0  0  0
  -22.3505  -14.5530   20.6665 O   0  0  0  0  0  0
  -24.6331  -31.8535   23.1948 C   0  0  0  0  0  0
  -25.9134  -32.4744   23.8315 C   0  0  1  0  0  0
  -27.2341  -27.2497   20.1421 C   0  0  0  0  0  0
  -25.5933  -33.8549   24.2239 N   0  0  0  0  0  0
  -23.4327  -30.4731   21.5365 C   0  0  2  0  0  0
  -24.8855  -28.9174   20.1049 C   0  0  0  0  0  0
  -22.7517  -29.4583   22.4877 C   0  0  0  0  0  0
  -18.0298  -28.1367   22.8476 C   0  0  0  0  0  0
  -24.1489  -36.7287   23.2641 C   0  0  0  0  0  0
  -25.9776  -30.7633   21.3767 C   0  0  0  0  0  0
  -26.0521  -29.3827   20.7231 C   0  0  0  0  0  0
  -27.2285  -28.5628   20.7270 C   0  0  0  0  0  0
  -26.0490  -26.8610   19.4778 C   0  0  0  0  0  0
  -24.8922  -27.6688   19.4633 C   0  0  0  0  0  0
  -23.6556  -29.8071   20.1520 C   0  0  0  0  0  0
  -25.4117  -36.3067   24.0326 C   0  0  1  0  0  0
  -20.5903  -28.3701   23.1250 C   0  0  2  0  0  0
  -20.6786  -26.9416   22.5402 C   0  0  0  0  0  0
  -19.5763  -26.6368   21.5208 C   0  0  0  0  0  0
  -18.1945  -26.7913   22.1610 C   0  0  0  0  0  0
  -19.1548  -28.8851   23.2859 C   0  0  0  0  0  0
  -18.9466  -30.1441   23.8889 C   0  0  0  0  0  0
  -17.6462  -30.6575   24.0554 C   0  0  0  0  0  0
  -25.9060  -34.9437   23.5092 C   0  0  0  0  0  0
  -16.5359  -29.9075   23.6309 C   0  0  0  0  0  0
  -16.7282  -28.6482   23.0351 C   0  0  0  0  0  0
  -26.4503  -31.6562   25.0707 C   0  0  0  0  0  0
  -25.3733  -31.3693   26.1430 C   0  0  0  0  0  0
  -27.0348  -30.2987   24.6162 C   0  0  0  0  0  0
  -27.6056  -32.4304   25.7499 C   0  0  0  0  0  0
  -27.5576  -37.1805   24.8464 C   0  0  0  0  0  0
  -21.4219  -29.3046   22.3636 N   0  0  0  0  0  0
  -26.4282  -37.3774   23.9415 N   0  0  0  0  0  0
  -24.6999  -31.0490   22.0932 N   0  0  0  0  0  0
  -23.4218  -28.8138   23.2990 O   0  0  0  0  0  0
  -28.3338  -26.3572   20.2323 O   0  0  0  0  0  0
  -26.5637  -34.8914   22.4664 O   0  0  0  0  0  0
  -23.5471  -32.1366   23.7225 O   0  0  0  0  0  0
  -29.6260  -18.4577   20.8660 C   0  0  0  0  0  0
  -30.0573  -19.7925   18.8728 C   0  0  0  0  0  0
  -30.3544  -17.3539   18.8323 C   0  0  0  0  0  0
  -29.6598  -19.7712   20.2288 C   0  0  0  0  0  0
  -29.9767  -17.2178   20.1878 C   0  0  0  0  0  0
  -30.4030  -18.6044   18.1768 C   0  0  0  0  0  0
  -29.4029  -21.1189   20.9759 C   0  0  0  0  0  0
  -29.0237  -23.9609   22.2863 C   0  0  0  0  0  0
  -30.9550  -19.8074   16.1613 C   0  0  0  0  0  0
  -28.1460  -24.8680   20.0558 C   0  0  0  0  0  0
  -29.1493  -23.7988   20.7592 C   0  0  2  0  0  0
  -29.8872  -15.8506   20.7683 N   0  0  0  0  0  0
  -29.1423  -22.3158   20.3077 N   0  0  0  0  0  0
  -29.4589  -21.0791   22.2054 O   0  0  0  0  0  0
  -30.8044  -18.5744   16.8567 O   0  0  0  0  0  0
  -31.4727  -12.5243   19.1904 H   0  0  0  0  0  0
  -30.3337  -11.4416   19.9382 H   0  0  0  0  0  0
  -29.7872  -11.7627   17.5039 H   0  0  0  0  0  0
  -29.6736  -13.4864   17.7403 H   0  0  0  0  0  0
  -27.8529  -11.3239   18.8405 H   0  0  0  0  0  0
  -27.3962  -12.6319   17.7814 H   0  0  0  0  0  0
  -27.6564  -14.2780   19.5205 H   0  0  0  0  0  0
  -28.7123  -12.1282   21.4153 H   0  0  0  0  0  0
  -28.4383  -13.8042   21.8216 H   0  0  0  0  0  0
  -25.2771   -9.5736   22.4728 H   0  0  0  0  0  0
  -24.0024   -7.4688   22.7472 H   0  0  0  0  0  0
  -21.0852   -8.8779   19.8981 H   0  0  0  0  0  0
  -22.3672  -10.9665   19.6150 H   0  0  0  0  0  0
  -21.2041   -7.6149   23.9695 H   0  0  0  0  0  0
  -21.1497   -6.0501   25.9045 H   0  0  0  0  0  0
  -22.0598   -2.7604   23.2800 H   0  0  0  0  0  0
  -22.4091  -11.9929   22.4868 H   0  0  0  0  0  0
  -21.1062  -13.1225   22.2553 H   0  0  0  0  0  0
  -24.6595  -15.8511   20.5414 H   0  0  0  0  0  0
  -26.2723  -15.6378   20.0946 H   0  0  0  0  0  0
  -26.7209  -32.5397   23.1064 H   0  0  0  0  0  0
  -25.0103  -33.9686   25.0399 H   0  0  0  0  0  0
  -22.7291  -31.2953   21.3864 H   0  0  0  0  0  0
  -23.3751  -35.9620   23.3300 H   0  0  0  0  0  0
  -24.3571  -36.8921   22.2056 H   0  0  0  0  0  0
  -23.7240  -37.6487   23.6667 H   0  0  0  0  0  0
  -26.1107  -31.5218   20.6031 H   0  0  0  0  0  0
  -26.8575  -30.8204   22.0055 H   0  0  0  0  0  0
  -28.1208  -28.9163   21.2246 H   0  0  0  0  0  0
  -25.9943  -25.9122   18.9656 H   0  0  0  0  0  0
  -24.0083  -27.3181   18.9486 H   0  0  0  0  0  0
  -23.7837  -30.5851   19.3985 H   0  0  0  0  0  0
  -22.7744  -29.2435   19.8406 H   0  0  0  0  0  0
  -25.1293  -36.1922   25.0818 H   0  0  0  0  0  0
  -20.9988  -28.3287   24.1370 H   0  0  0  0  0  0
  -20.5656  -26.2331   23.3622 H   0  0  0  0  0  0
  -21.6655  -26.7418   22.1212 H   0  0  0  0  0  0
  -19.6936  -25.6269   21.1256 H   0  0  0  0  0  0
  -19.6695  -27.3155   20.6718 H   0  0  0  0  0  0
  -17.4218  -26.6653   21.4012 H   0  0  0  0  0  0
  -18.0339  -26.0040   22.8986 H   0  0  0  0  0  0
  -19.7947  -30.7246   24.2267 H   0  0  0  0  0  0
  -17.5024  -31.6248   24.5161 H   0  0  0  0  0  0
  -15.5357  -30.2984   23.7611 H   0  0  0  0  0  0
  -15.8682  -28.0789   22.7085 H   0  0  0  0  0  0
  -24.5898  -30.7058   25.7741 H   0  0  0  0  0  0
  -24.8936  -32.2856   26.4883 H   0  0  0  0  0  0
  -25.8061  -30.8836   27.0186 H   0  0  0  0  0  0
  -26.2904  -29.6742   24.1202 H   0  0  0  0  0  0
  -27.4071  -29.7231   25.4645 H   0  0  0  0  0  0
  -27.8771  -30.4273   23.9363 H   0  0  0  0  0  0
  -27.2646  -33.3601   26.2067 H   0  0  0  0  0  0
  -28.3880  -32.6873   25.0342 H   0  0  0  0  0  0
  -28.0707  -31.8435   26.5428 H   0  0  0  0  0  0
  -28.2585  -38.0109   24.7507 H   0  0  0  0  0  0
  -28.1073  -36.2638   24.6282 H   0  0  0  0  0  0
  -27.2294  -37.1449   25.8865 H   0  0  0  0  0  0
  -20.9416  -29.8791   21.6852 H   0  0  0  0  0  0
  -26.0163  -38.2852   24.1407 H   0  0  0  0  0  0
  -29.3420  -18.4068   21.9077 H   0  0  0  0  0  0
  -30.1156  -20.7496   18.3781 H   0  0  0  0  0  0
  -30.6068  -16.4764   18.2567 H   0  0  0  0  0  0
  -28.9777  -25.0136   22.5673 H   0  0  0  0  0  0
  -29.8857  -23.5382   22.8023 H   0  0  0  0  0  0
  -28.1217  -23.4804   22.6670 H   0  0  0  0  0  0
  -31.3480  -19.6159   15.1617 H   0  0  0  0  0  0
  -31.6660  -20.4644   16.6629 H   0  0  0  0  0  0
  -29.9995  -20.3236   16.0434 H   0  0  0  0  0  0
  -27.1465  -24.6091   20.4074 H   0  0  0  0  0  0
  -28.1462  -24.6721   18.9830 H   0  0  0  0  0  0
  -30.1540  -24.1402   20.5012 H   0  0  0  0  0  0
  -29.0515  -15.6673   21.3038 H   0  0  0  0  0  0
  -29.0932  -22.2028   19.3054 H   0  0  0  0  0  0
  1 25  1  0  0  0
  1 30  2  0  0  0
  1 82  1  0  0  0
  2  3  1  0  0  0
  2 25  1  0  0  0
  2 86  1  0  0  0
  2 87  1  0  0  0
  3  4  1  0  0  0
  3 88  1  0  0  0
  3 89  1  0  0  0
  4  5  1  0  0  0
  4 90  1  0  0  0
  4 91  1  0  0  0
  5  6  1  0  0  0
  5 26  1  0  0  0
  5 92  1  0  0  0
  6 25  1  0  0  0
  6 93  1  0  0  0
  6 94  1  0  0  0
  7  8  2  0  0  0
  7 26  1  0  0  0
  7 29  1  0  0  0
  8  9  1  0  0  0
  8 22  1  0  0  0
  9 10  1  0  0  0
  9 27  2  0  0  0
 10 11  2  0  0  0
 10 15  1  0  0  0
 11 12  1  0  0  0
 11 95  1  0  0  0
 12 13  2  0  0  0
 12 96  1  0  0  0
 13 14  1  0  0  0
 13 31  1  0  0  0
 14 15  2  0  0  0
 14 97  1  0  0  0
 15 98  1  0  0  0
 16 17  2  0  0  0
 16 21  1  0  0  0
 16 31  1  0  0  0
 17 18  1  0  0  0
 17 99  1  0  0  0
 18 19  2  0  0  0
 18100  1  0  0  0
 19 20  1  0  0  0
 19 24  1  0  0  0
 20 21  2  0  0  0
 20101  1  0  0  0
 21 23  1  0  0  0
 22 28  1  0  0  0
 22 32  2  0  0  0
 26 27  1  0  0  0
 28102  1  0  0  0
 28103  1  0  0  0
 29104  1  0  0  0
 29105  1  0  0  0
 33 34  1  0  0  0
 33 66  1  0  0  0
 33 70  2  0  0  0
 34 36  1  0  0  0
 34 59  1  0  0  0
 34106  1  0  0  0
 35 44  2  0  0  0
 35 45  1  0  0  0
 35 68  1  0  0  0
 36 56  1  0  0  0
 36107  1  0  0  0
 37 39  1  0  0  0
 37 47  1  0  0  0
 37 66  1  0  0  0
 37108  1  0  0  0
 38 43  2  0  0  0
 38 46  1  0  0  0
 38 47  1  0  0  0
 39 64  1  0  0  0
 39 67  2  0  0  0
 40 52  1  0  0  0
 40 53  2  0  0  0
 40 58  1  0  0  0
 41109  1  0  0  0
 41110  1  0  0  0
 41111  1  0  0  0
 41 48  1  0  0  0
 42 43  1  0  0  0
 42 66  1  0  0  0
 42112  1  0  0  0
 42113  1  0  0  0
 43 44  1  0  0  0
 44114  1  0  0  0
 45 46  2  0  0  0
 45115  1  0  0  0
 46116  1  0  0  0
 47117  1  0  0  0
 47118  1  0  0  0
 48 56  1  0  0  0
 48 65  1  0  0  0
 48119  1  0  0  0
 49 50  1  0  0  0
 49 53  1  0  0  0
 49 64  1  0  0  0
 49120  1  0  0  0
 50 51  1  0  0  0
 50121  1  0  0  0
 50122  1  0  0  0
 51 52  1  0  0  0
 51123  1  0  0  0
 51124  1  0  0  0
 52125  1  0  0  0
 52126  1  0  0  0
 53 54  1  0  0  0
 54 55  2  0  0  0
 54127  1  0  0  0
 55 57  1  0  0  0
 55128  1  0  0  0
 56 69  2  0  0  0
 57 58  2  0  0  0
 57129  1  0  0  0
 58130  1  0  0  0
 59 60  1  0  0  0
 59 61  1  0  0  0
 59 62  1  0  0  0
 60131  1  0  0  0
 60132  1  0  0  0
 60133  1  0  0  0
 61134  1  0  0  0
 61135  1  0  0  0
 61136  1  0  0  0
 62137  1  0  0  0
 62138  1  0  0  0
 62139  1  0  0  0
 63 65  1  0  0  0
 63140  1  0  0  0
 63141  1  0  0  0
 63142  1  0  0  0
 64143  1  0  0  0
 65144  1  0  0  0
 68 80  1  0  0  0
 71 74  2  0  0  0
 71 75  1  0  0  0
 71145  1  0  0  0
 72 74  1  0  0  0
 72 76  2  0  0  0
 72146  1  0  0  0
 73 75  2  0  0  0
 73 76  1  0  0  0
 73147  1  0  0  0
 74 77  1  0  0  0
 75 82  1  0  0  0
 76 85  1  0  0  0
 77 83  1  0  0  0
 77 84  2  0  0  0
 78148  1  0  0  0
 78149  1  0  0  0
 78150  1  0  0  0
 78 81  1  0  0  0
 79 85  1  0  0  0
 79151  1  0  0  0
 79152  1  0  0  0
 79153  1  0  0  0
 80 81  1  0  0  0
 80154  1  0  0  0
 80155  1  0  0  0
 81 83  1  0  0  0
 81156  1  0  0  0
 82157  1  0  0  0
 83158  1  0  0  0
M  ISO  4   1 100  68 101  80 101  82 100
M  END
> <chiral flag>
0

> <version>
0

> <s_m_source_file>
/data/baiqing/PycharmProjects/Reinvent-master-3.2/result/LINK_invent/BTK/process_docking_weight1_custom_product_contain_oxygen_bond_distance_aromatic_linkinvent_7_9_3/rearranged_h_0095.sdf

> <i_m_source_file_index>
72

> <r_mmod_Potential_Energy-OPLS-2005>
92.4206771850586

> <r_mmod_Stretch_Energy-OPLS-2005>
132.710510253906

> <r_mmod_Bend_Energy-OPLS-2005>
172.658752441406

> <r_mmod_Torsional_Energy-OPLS-2005>
240.823165893555

> <r_mmod_Improper_Torsional_Energy-OPLS-2005>
4.66763353347778

> <r_mmod_Van_der_Waal_Energy-OPLS-2005>
147.117111206055

> <r_mmod_Electrostatic_Energy-OPLS-2005>
-441.131744384766

> <r_mmod_Solvation_Energy-OPLS-2005>
-244.879852294922

> <b_mmod_Minimization_Converged-OPLS-2005>
0

> <r_mmod_RMS_Derivative-OPLS-2005>
3.51886510848999

$$$$
72
                    3D
 Structure written by MMmdl.
156165  0  0  1  0            999 V2000
  -30.6049  -14.6505   20.5016 C   0  0  0  0  0  0
  -30.4454  -12.4016   19.4477 C   0  0  0  0  0  0
  -29.5130  -12.5208   18.2205 C   0  0  0  0  0  0
  -28.0358  -12.3463   18.6326 C   0  0  0  0  0  0
  -27.6530  -13.2150   19.8593 C   0  0  2  0  0  0
  -28.6966  -13.0713   20.9897 C   0  0  0  0  0  0
  -25.2552  -13.8150   20.5663 C   0  0  0  0  0  0
  -24.1821  -13.0429   20.9196 C   0  0  0  0  0  0
  -24.6382  -11.6901   20.8733 C   0  0  0  0  0  0
  -23.9029  -10.4283   21.0402 C   0  0  0  0  0  0
  -24.3576   -9.4210   21.9189 C   0  0  0  0  0  0
  -23.6260   -8.2244   22.0756 C   0  0  0  0  0  0
  -22.4254   -8.0266   21.3537 C   0  0  0  0  0  0
  -21.9879   -9.0246   20.4648 C   0  0  0  0  0  0
  -22.7200  -10.2122   20.3055 C   0  0  0  0  0  0
  -21.6855   -6.0707   22.5275 C   0  0  0  0  0  0
  -21.4026   -6.5611   23.8209 C   0  0  0  0  0  0
  -21.3661   -5.6770   24.9163 C   0  0  0  0  0  0
  -21.6051   -4.3038   24.7230 C   0  0  0  0  0  0
  -21.8812   -3.8113   23.4355 C   0  0  0  0  0  0
  -21.9200   -4.6929   22.3402 C   0  0  0  0  0  0
  -22.7847  -13.5245   21.1851 C   0  0  0  0  0  0
  -22.1665   -4.2119   21.0990 F   0  0  0  0  0  0
  -21.5629   -3.4524   25.7738 F   0  0  0  0  0  0
  -30.0120  -13.4178   20.4268 N   0  0  0  0  0  0
  -26.2988  -12.9338   20.3278 N   0  0  0  0  0  0
  -25.9301  -11.6495   20.5700 N   0  0  0  0  0  0
  -22.0450  -12.8255   22.0395 N   0  0  0  0  0  0
  -25.4260  -15.1857   20.4037 N   0  0  0  0  0  0
  -31.7793  -14.8218   20.1569 O   0  0  0  0  0  0
  -21.6639   -6.8850   21.4235 O   0  0  0  0  0  0
  -22.3550  -14.5553   20.6679 O   0  0  0  0  0  0
  -24.6234  -31.8633   23.2006 C   0  0  0  0  0  0
  -25.9063  -32.4812   23.8373 C   0  0  1  0  0  0
  -27.2197  -27.3231   20.1263 C   0  0  0  0  0  0
  -25.5849  -33.8605   24.2289 N   0  0  0  0  0  0
  -23.4189  -30.4869   21.5461 C   0  0  2  0  0  0
  -24.8661  -28.9469   20.1094 C   0  0  0  0  0  0
  -22.7483  -29.4636   22.4948 C   0  0  0  0  0  0
  -18.0287  -28.1397   22.8493 C   0  0  0  0  0  0
  -24.1482  -36.7333   23.2640 C   0  0  0  0  0  0
  -25.9567  -30.8021   21.3655 C   0  0  0  0  0  0
  -26.0358  -29.4256   20.7149 C   0  0  0  0  0  0
  -27.2156  -28.6254   20.7139 C   0  0  0  0  0  0
  -26.0298  -26.9061   19.4849 C   0  0  0  0  0  0
  -24.8653  -27.6938   19.4814 C   0  0  0  0  0  0
  -23.6339  -29.8241   20.1605 C   0  0  0  0  0  0
  -25.4101  -36.3122   24.0346 C   0  0  1  0  0  0
  -20.5894  -28.3697   23.1288 C   0  0  2  0  0  0
  -20.6768  -26.9424   22.5410 C   0  0  0  0  0  0
  -19.5728  -26.6410   21.5217 C   0  0  0  0  0  0
  -18.1917  -26.7942   22.1639 C   0  0  0  0  0  0
  -19.1549  -28.8868   23.2885 C   0  0  0  0  0  0
  -18.9466  -30.1462   23.8907 C   0  0  0  0  0  0
  -17.6468  -30.6596   24.0586 C   0  0  0  0  0  0
  -25.9021  -34.9472   23.5127 C   0  0  0  0  0  0
  -16.5354  -29.9097   23.6350 C   0  0  0  0  0  0
  -16.7281  -28.6518   23.0375 C   0  0  0  0  0  0
  -26.4433  -31.6595   25.0729 C   0  0  0  0  0  0
  -25.3651  -31.3742   26.1456 C   0  0  0  0  0  0
  -27.0237  -30.3016   24.6120 C   0  0  0  0  0  0
  -27.6021  -32.4287   25.7493 C   0  0  0  0  0  0
  -27.5597  -37.1830   24.8462 C   0  0  0  0  0  0
  -21.4204  -29.3037   22.3683 N   0  0  0  0  0  0
  -26.4294  -37.3809   23.9425 N   0  0  0  0  0  0
  -24.6866  -31.0663   22.0956 N   0  0  0  0  0  0
  -23.4212  -28.8174   23.3033 O   0  0  0  0  0  0
  -28.3245  -26.4581   20.2017 O   0  0  0  0  0  0
  -26.5645  -34.8913   22.4722 O   0  0  0  0  0  0
  -23.5391  -32.1404   23.7324 O   0  0  0  0  0  0
  -28.8184  -19.3964   20.4396 C   0  0  0  0  0  0
  -31.0936  -19.2647   21.1847 C   0  0  0  0  0  0
  -28.7748  -17.9670   20.3925 C   0  0  0  0  0  0
  -31.0595  -17.8416   21.1167 C   0  0  0  0  0  0
  -29.9740  -20.1008   20.8692 C   0  0  0  0  0  0
  -29.8891  -17.1460   20.7324 C   0  0  0  0  0  0
  -28.9997  -22.6163   20.5454 C   0  0  0  0  0  0
  -31.0482  -22.1813   21.7208 C   0  0  0  0  0  0
  -30.0197  -21.6368   21.0296 C   0  0  0  0  0  0
  -29.1200  -23.9884   20.6155 C   0  0  0  0  0  0
  -31.2309  -23.6556   22.0373 C   0  0  0  0  0  0
  -30.3636  -24.6217   21.2075 C   0  0  0  0  0  0
  -28.0511  -25.0045   20.0980 C   0  0  0  0  0  0
  -29.7482  -15.6905   20.7624 N   0  0  0  0  0  0
  -31.4871  -12.5356   19.1481 H   0  0  0  0  0  0
  -30.3841  -11.4033   19.8825 H   0  0  0  0  0  0
  -29.7844  -11.7817   17.4655 H   0  0  0  0  0  0
  -29.6501  -13.4957   17.7498 H   0  0  0  0  0  0
  -27.8762  -11.2929   18.8609 H   0  0  0  0  0  0
  -27.3811  -12.5770   17.7935 H   0  0  0  0  0  0
  -27.6676  -14.2495   19.5175 H   0  0  0  0  0  0
  -28.7097  -12.0503   21.3733 H   0  0  0  0  0  0
  -28.4406  -13.7019   21.8427 H   0  0  0  0  0  0
  -25.2717   -9.5698   22.4758 H   0  0  0  0  0  0
  -23.9973   -7.4643   22.7465 H   0  0  0  0  0  0
  -21.0820   -8.8744   19.8958 H   0  0  0  0  0  0
  -22.3656  -10.9643   19.6141 H   0  0  0  0  0  0
  -21.2023   -7.6124   23.9694 H   0  0  0  0  0  0
  -21.1494   -6.0507   25.9068 H   0  0  0  0  0  0
  -22.0594   -2.7583   23.2862 H   0  0  0  0  0  0
  -22.4040  -11.9920   22.4813 H   0  0  0  0  0  0
  -21.1056  -13.1291   22.2550 H   0  0  0  0  0  0
  -24.6481  -15.8300   20.4957 H   0  0  0  0  0  0
  -26.2464  -15.6118   19.9949 H   0  0  0  0  0  0
  -26.7155  -32.5526   23.1164 H   0  0  0  0  0  0
  -24.9932  -33.9744   25.0388 H   0  0  0  0  0  0
  -22.7093  -31.3057   21.4058 H   0  0  0  0  0  0
  -23.3735  -35.9674   23.3282 H   0  0  0  0  0  0
  -24.3585  -36.8957   22.2055 H   0  0  0  0  0  0
  -23.7208  -37.6521   23.6666 H   0  0  0  0  0  0
  -26.0692  -31.5585   20.5871 H   0  0  0  0  0  0
  -26.8432  -30.8682   21.9839 H   0  0  0  0  0  0
  -28.1084  -28.9850   21.2063 H   0  0  0  0  0  0
  -25.9644  -25.9536   18.9822 H   0  0  0  0  0  0
  -23.9730  -27.3257   18.9940 H   0  0  0  0  0  0
  -23.7473  -30.5987   19.4017 H   0  0  0  0  0  0
  -22.7537  -29.2534   19.8639 H   0  0  0  0  0  0
  -25.1266  -36.2015   25.0845 H   0  0  0  0  0  0
  -21.0009  -28.3272   24.1401 H   0  0  0  0  0  0
  -20.5687  -26.2303   23.3609 H   0  0  0  0  0  0
  -21.6640  -26.7468   22.1198 H   0  0  0  0  0  0
  -19.6875  -25.6324   21.1232 H   0  0  0  0  0  0
  -19.6641  -27.3247   20.6761 H   0  0  0  0  0  0
  -17.4192  -26.6724   21.4028 H   0  0  0  0  0  0
  -18.0288  -26.0073   22.9027 H   0  0  0  0  0  0
  -19.7940  -30.7286   24.2278 H   0  0  0  0  0  0
  -17.5023  -31.6275   24.5191 H   0  0  0  0  0  0
  -15.5353  -30.3015   23.7645 H   0  0  0  0  0  0
  -15.8684  -28.0834   22.7097 H   0  0  0  0  0  0
  -24.5835  -30.7068   25.7813 H   0  0  0  0  0  0
  -24.8812  -32.2899   26.4863 H   0  0  0  0  0  0
  -25.7954  -30.8961   27.0257 H   0  0  0  0  0  0
  -26.2780  -29.6800   24.1154 H   0  0  0  0  0  0
  -27.3951  -29.7235   25.4587 H   0  0  0  0  0  0
  -27.8641  -30.4303   23.9295 H   0  0  0  0  0  0
  -27.2684  -33.3596   26.2081 H   0  0  0  0  0  0
  -28.3837  -32.6811   25.0323 H   0  0  0  0  0  0
  -28.0676  -31.8382   26.5388 H   0  0  0  0  0  0
  -28.2621  -38.0132   24.7547 H   0  0  0  0  0  0
  -28.1078  -36.2661   24.6238 H   0  0  0  0  0  0
  -27.2324  -37.1438   25.8866 H   0  0  0  0  0  0
  -20.9377  -29.8736   21.6877 H   0  0  0  0  0  0
  -26.0177  -38.2893   24.1403 H   0  0  0  0  0  0
  -27.9267  -19.9482   20.1771 H   0  0  0  0  0  0
  -32.0319  -19.6891   21.5008 H   0  0  0  0  0  0
  -27.8455  -17.5014   20.0955 H   0  0  0  0  0  0
  -31.9430  -17.2891   21.4045 H   0  0  0  0  0  0
  -28.0890  -22.2242   20.1141 H   0  0  0  0  0  0
  -31.8125  -21.5711   22.1728 H   0  0  0  0  0  0
  -32.2841  -23.9105   21.9170 H   0  0  0  0  0  0
  -31.0049  -23.7824   23.0973 H   0  0  0  0  0  0
  -30.0786  -25.4703   21.8305 H   0  0  0  0  0  0
  -30.9447  -25.0293   20.3804 H   0  0  0  0  0  0
  -27.1432  -24.7764   20.6593 H   0  0  0  0  0  0
  -27.8514  -24.7620   19.0546 H   0  0  0  0  0  0
  -28.8042  -15.3688   20.9064 H   0  0  0  0  0  0
  1 25  1  0  0  0
  1 30  2  0  0  0
  1 84  1  0  0  0
  2  3  1  0  0  0
  2 25  1  0  0  0
  2 85  1  0  0  0
  2 86  1  0  0  0
  3  4  1  0  0  0
  3 87  1  0  0  0
  3 88  1  0  0  0
  4  5  1  0  0  0
  4 89  1  0  0  0
  4 90  1  0  0  0
  5  6  1  0  0  0
  5 26  1  0  0  0
  5 91  1  0  0  0
  6 25  1  0  0  0
  6 92  1  0  0  0
  6 93  1  0  0  0
  7  8  2  0  0  0
  7 26  1  0  0  0
  7 29  1  0  0  0
  8  9  1  0  0  0
  8 22  1  0  0  0
  9 10  1  0  0  0
  9 27  2  0  0  0
 10 11  2  0  0  0
 10 15  1  0  0  0
 11 12  1  0  0  0
 11 94  1  0  0  0
 12 13  2  0  0  0
 12 95  1  0  0  0
 13 14  1  0  0  0
 13 31  1  0  0  0
 14 15  2  0  0  0
 14 96  1  0  0  0
 15 97  1  0  0  0
 16 17  2  0  0  0
 16 21  1  0  0  0
 16 31  1  0  0  0
 17 18  1  0  0  0
 17 98  1  0  0  0
 18 19  2  0  0  0
 18 99  1  0  0  0
 19 20  1  0  0  0
 19 24  1  0  0  0
 20 21  2  0  0  0
 20100  1  0  0  0
 21 23  1  0  0  0
 22 28  1  0  0  0
 22 32  2  0  0  0
 26 27  1  0  0  0
 28101  1  0  0  0
 28102  1  0  0  0
 29103  1  0  0  0
 29104  1  0  0  0
 33 34  1  0  0  0
 33 66  1  0  0  0
 33 70  2  0  0  0
 34 36  1  0  0  0
 34 59  1  0  0  0
 34105  1  0  0  0
 35 44  2  0  0  0
 35 45  1  0  0  0
 35 68  1  0  0  0
 36 56  1  0  0  0
 36106  1  0  0  0
 37 39  1  0  0  0
 37 47  1  0  0  0
 37 66  1  0  0  0
 37107  1  0  0  0
 38 43  2  0  0  0
 38 46  1  0  0  0
 38 47  1  0  0  0
 39 64  1  0  0  0
 39 67  2  0  0  0
 40 52  1  0  0  0
 40 53  2  0  0  0
 40 58  1  0  0  0
 41108  1  0  0  0
 41109  1  0  0  0
 41110  1  0  0  0
 41 48  1  0  0  0
 42 43  1  0  0  0
 42 66  1  0  0  0
 42111  1  0  0  0
 42112  1  0  0  0
 43 44  1  0  0  0
 44113  1  0  0  0
 45 46  2  0  0  0
 45114  1  0  0  0
 46115  1  0  0  0
 47116  1  0  0  0
 47117  1  0  0  0
 48 56  1  0  0  0
 48 65  1  0  0  0
 48118  1  0  0  0
 49 50  1  0  0  0
 49 53  1  0  0  0
 49 64  1  0  0  0
 49119  1  0  0  0
 50 51  1  0  0  0
 50120  1  0  0  0
 50121  1  0  0  0
 51 52  1  0  0  0
 51122  1  0  0  0
 51123  1  0  0  0
 52124  1  0  0  0
 52125  1  0  0  0
 53 54  1  0  0  0
 54 55  2  0  0  0
 54126  1  0  0  0
 55 57  1  0  0  0
 55127  1  0  0  0
 56 69  2  0  0  0
 57 58  2  0  0  0
 57128  1  0  0  0
 58129  1  0  0  0
 59 60  1  0  0  0
 59 61  1  0  0  0
 59 62  1  0  0  0
 60130  1  0  0  0
 60131  1  0  0  0
 60132  1  0  0  0
 61133  1  0  0  0
 61134  1  0  0  0
 61135  1  0  0  0
 62136  1  0  0  0
 62137  1  0  0  0
 62138  1  0  0  0
 63 65  1  0  0  0
 63139  1  0  0  0
 63140  1  0  0  0
 63141  1  0  0  0
 64142  1  0  0  0
 65143  1  0  0  0
 68 83  1  0  0  0
 71 73  2  0  0  0
 71 75  1  0  0  0
 71144  1  0  0  0
 72 74  1  0  0  0
 72 75  2  0  0  0
 72145  1  0  0  0
 73 76  1  0  0  0
 73146  1  0  0  0
 74 76  2  0  0  0
 74147  1  0  0  0
 75 79  1  0  0  0
 76 84  1  0  0  0
 77 79  1  0  0  0
 77 80  2  0  0  0
 77148  1  0  0  0
 78 79  2  0  0  0
 78 81  1  0  0  0
 78149  1  0  0  0
 80 82  1  0  0  0
 80 83  1  0  0  0
 81 82  1  0  0  0
 81150  1  0  0  0
 81151  1  0  0  0
 82152  1  0  0  0
 82153  1  0  0  0
 83154  1  0  0  0
 83155  1  0  0  0
 84156  1  0  0  0
M  ISO  4   1 100  68 101  83 101  84 100
M  END
> <chiral flag>
0

> <version>
0

> <s_m_source_file>
/data/baiqing/PycharmProjects/Reinvent-master-3.2/result/LINK_invent/BTK/process_docking_weight1_custom_product_contain_oxygen_bond_distance_aromatic_linkinvent_7_9_3/rearranged_h_0095.sdf

> <i_m_source_file_index>
73

> <r_mmod_Potential_Energy-OPLS-2005>
99.0460433959961

> <r_mmod_Stretch_Energy-OPLS-2005>
81.6702880859375

> <r_mmod_Bend_Energy-OPLS-2005>
134.538757324219

> <r_mmod_Torsional_Energy-OPLS-2005>
231.040740966797

> <r_mmod_Improper_Torsional_Energy-OPLS-2005>
5.96458292007446

> <r_mmod_Van_der_Waal_Energy-OPLS-2005>
162.150848388672

> <r_mmod_Electrostatic_Energy-OPLS-2005>
-360.380767822266

> <r_mmod_Solvation_Energy-OPLS-2005>
-208.663970947266

> <b_mmod_Minimization_Converged-OPLS-2005>
0

> <r_mmod_RMS_Derivative-OPLS-2005>
2.97686719894409

$$$$
73
                    3D
 Structure written by MMmdl.
170179  0  0  1  0            999 V2000
  -30.6817  -14.6402   20.5857 C   0  0  0  0  0  0
  -30.4171  -12.4170   19.4762 C   0  0  0  0  0  0
  -29.4991  -12.5121   18.2420 C   0  0  0  0  0  0
  -28.0268  -12.3405   18.6542 C   0  0  0  0  0  0
  -27.6402  -13.2317   19.8635 C   0  0  2  0  0  0
  -28.6762  -13.1280   21.0045 C   0  0  0  0  0  0
  -25.2471  -13.8202   20.5725 C   0  0  0  0  0  0
  -24.1774  -13.0447   20.9212 C   0  0  0  0  0  0
  -24.6374  -11.6928   20.8765 C   0  0  0  0  0  0
  -23.9054  -10.4294   21.0417 C   0  0  0  0  0  0
  -24.3597   -9.4197   21.9186 C   0  0  0  0  0  0
  -23.6269   -8.2233   22.0740 C   0  0  0  0  0  0
  -22.4243   -8.0273   21.3551 C   0  0  0  0  0  0
  -21.9895   -9.0243   20.4652 C   0  0  0  0  0  0
  -22.7227  -10.2120   20.3054 C   0  0  0  0  0  0
  -21.6853   -6.0730   22.5283 C   0  0  0  0  0  0
  -21.4026   -6.5640   23.8219 C   0  0  0  0  0  0
  -21.3639   -5.6798   24.9175 C   0  0  0  0  0  0
  -21.6018   -4.3055   24.7241 C   0  0  0  0  0  0
  -21.8834   -3.8151   23.4365 C   0  0  0  0  0  0
  -21.9204   -4.6957   22.3417 C   0  0  0  0  0  0
  -22.7784  -13.5198   21.1872 C   0  0  0  0  0  0
  -22.1657   -4.2149   21.0986 F   0  0  0  0  0  0
  -21.5602   -3.4516   25.7738 F   0  0  0  0  0  0
  -29.9950  -13.4558   20.4469 N   0  0  0  0  0  0
  -26.2917  -12.9427   20.3350 N   0  0  0  0  0  0
  -25.9306  -11.6570   20.5781 N   0  0  0  0  0  0
  -22.0466  -12.8181   22.0456 N   0  0  0  0  0  0
  -25.4136  -15.1935   20.4124 N   0  0  0  0  0  0
  -31.7995  -14.7536   20.0768 O   0  0  0  0  0  0
  -21.6621   -6.8864   21.4249 O   0  0  0  0  0  0
  -22.3432  -14.5491   20.6699 O   0  0  0  0  0  0
  -24.6255  -31.8621   23.2053 C   0  0  0  0  0  0
  -25.9133  -32.4786   23.8367 C   0  0  1  0  0  0
  -27.2019  -27.2942   20.1491 C   0  0  0  0  0  0
  -25.5977  -33.8573   24.2303 N   0  0  0  0  0  0
  -23.4167  -30.4883   21.5445 C   0  0  2  0  0  0
  -24.8643  -28.9413   20.1127 C   0  0  0  0  0  0
  -22.7463  -29.4663   22.4929 C   0  0  0  0  0  0
  -18.0294  -28.1392   22.8503 C   0  0  0  0  0  0
  -24.1469  -36.7253   23.2625 C   0  0  0  0  0  0
  -25.9572  -30.7793   21.3831 C   0  0  0  0  0  0
  -26.0272  -29.3978   20.7492 C   0  0  0  0  0  0
  -27.1964  -28.5780   20.7799 C   0  0  0  0  0  0
  -26.0504  -26.9349   19.4253 C   0  0  0  0  0  0
  -24.8796  -27.7121   19.4400 C   0  0  0  0  0  0
  -23.6321  -29.8219   20.1590 C   0  0  0  0  0  0
  -25.4101  -36.3058   24.0331 C   0  0  1  0  0  0
  -20.5906  -28.3688   23.1279 C   0  0  2  0  0  0
  -20.6799  -26.9423   22.5382 C   0  0  0  0  0  0
  -19.5758  -26.6403   21.5206 C   0  0  0  0  0  0
  -18.1937  -26.7945   22.1623 C   0  0  0  0  0  0
  -19.1552  -28.8865   23.2893 C   0  0  0  0  0  0
  -18.9464  -30.1474   23.8899 C   0  0  0  0  0  0
  -17.6465  -30.6600   24.0571 C   0  0  0  0  0  0
  -25.9052  -34.9444   23.5095 C   0  0  0  0  0  0
  -16.5358  -29.9084   23.6346 C   0  0  0  0  0  0
  -16.7284  -28.6497   23.0380 C   0  0  0  0  0  0
  -26.4522  -31.6567   25.0694 C   0  0  0  0  0  0
  -25.3764  -31.3698   26.1413 C   0  0  0  0  0  0
  -27.0339  -30.2990   24.6101 C   0  0  0  0  0  0
  -27.6087  -32.4261   25.7497 C   0  0  0  0  0  0
  -27.5558  -37.1789   24.8475 C   0  0  0  0  0  0
  -21.4181  -29.3050   22.3663 N   0  0  0  0  0  0
  -26.4255  -37.3783   23.9443 N   0  0  0  0  0  0
  -24.6845  -31.0651   22.1000 N   0  0  0  0  0  0
  -23.4187  -28.8214   23.3021 O   0  0  0  0  0  0
  -28.2937  -26.4184   20.1049 O   0  0  0  0  0  0
  -26.5564  -34.8917   22.4625 O   0  0  0  0  0  0
  -23.5430  -32.1432   23.7405 O   0  0  0  0  0  0
  -29.5684  -19.2319   19.7988 C   0  0  0  0  0  0
  -28.4306  -19.0803   21.8815 C   0  0  0  0  0  0
  -30.0076  -17.8676   19.9058 C   0  0  0  0  0  0
  -28.7729  -19.8880   20.7705 C   0  0  0  0  0  0
  -29.6943  -17.0482   21.0612 C   0  0  0  0  0  0
  -28.8598  -17.7181   22.0293 C   0  0  0  0  0  0
  -26.9030  -21.1093   19.9027 C   0  0  0  0  0  0
  -28.6248  -22.4365   20.9110 C   0  0  0  0  0  0
  -25.9683  -22.3163   19.7753 C   0  0  0  0  0  0
  -26.6774  -23.6682   19.7618 C   0  0  0  0  0  0
  -27.7477  -23.7761   20.8426 C   0  0  2  0  0  0
  -30.6157  -15.4232   22.7734 C   0  0  0  0  0  0
  -28.1917  -17.6773   24.3361 C   0  0  0  0  0  0
  -30.7904  -17.3982   18.6825 C   0  0  0  0  0  0
  -28.3861  -25.2587   21.0351 C   0  0  0  0  0  0
  -28.1134  -21.1965   20.5276 N   0  0  0  0  0  0
  -30.1740  -15.6522   21.3814 N   0  0  0  0  0  0
  -29.8840  -16.8765   17.6470 N   0  3  0  0  0  0
  -26.4860  -20.0522   19.4088 O   0  0  0  0  0  0
  -29.7773  -22.5267   21.3492 O   0  0  0  0  0  0
  -28.4113  -16.9878   23.1111 O   0  0  0  0  0  0
  -31.4587  -12.5210   19.1698 H   0  0  0  0  0  0
  -30.3511  -11.4291   19.9338 H   0  0  0  0  0  0
  -29.7741  -11.7570   17.5041 H   0  0  0  0  0  0
  -29.6315  -13.4787   17.7566 H   0  0  0  0  0  0
  -27.8839  -11.2911   18.9152 H   0  0  0  0  0  0
  -27.3667  -12.5345   17.8076 H   0  0  0  0  0  0
  -27.6465  -14.2607   19.5045 H   0  0  0  0  0  0
  -28.6886  -12.1252   21.4354 H   0  0  0  0  0  0
  -28.3953  -13.8036   21.8143 H   0  0  0  0  0  0
  -25.2742   -9.5643   22.4773 H   0  0  0  0  0  0
  -23.9961   -7.4614   22.7449 H   0  0  0  0  0  0
  -21.0835   -8.8780   19.8958 H   0  0  0  0  0  0
  -22.3696  -10.9654   19.6153 H   0  0  0  0  0  0
  -21.2043   -7.6146   23.9720 H   0  0  0  0  0  0
  -21.1424   -6.0522   25.9071 H   0  0  0  0  0  0
  -22.0638   -2.7611   23.2871 H   0  0  0  0  0  0
  -22.4067  -11.9799   22.4756 H   0  0  0  0  0  0
  -21.1106  -13.1235   22.2745 H   0  0  0  0  0  0
  -24.6420  -15.8444   20.5108 H   0  0  0  0  0  0
  -26.2860  -15.6460   20.1732 H   0  0  0  0  0  0
  -26.7194  -32.5475   23.1124 H   0  0  0  0  0  0
  -25.0298  -33.9749   25.0560 H   0  0  0  0  0  0
  -22.7080  -31.3067   21.4060 H   0  0  0  0  0  0
  -23.3738  -35.9575   23.3281 H   0  0  0  0  0  0
  -24.3559  -36.8847   22.2033 H   0  0  0  0  0  0
  -23.7207  -37.6457   23.6626 H   0  0  0  0  0  0
  -26.0769  -31.5224   20.5942 H   0  0  0  0  0  0
  -26.8443  -30.8491   22.0005 H   0  0  0  0  0  0
  -28.0805  -28.9191   21.3012 H   0  0  0  0  0  0
  -26.0570  -26.0524   18.8096 H   0  0  0  0  0  0
  -24.0100  -27.3761   18.8913 H   0  0  0  0  0  0
  -23.7422  -30.5936   19.3954 H   0  0  0  0  0  0
  -22.7537  -29.2428   19.8676 H   0  0  0  0  0  0
  -25.1284  -36.1876   25.0824 H   0  0  0  0  0  0
  -21.0019  -28.3248   24.1400 H   0  0  0  0  0  0
  -20.5735  -26.2306   23.3578 H   0  0  0  0  0  0
  -21.6666  -26.7485   22.1180 H   0  0  0  0  0  0
  -19.6905  -25.6319   21.1226 H   0  0  0  0  0  0
  -19.6687  -27.3222   20.6743 H   0  0  0  0  0  0
  -17.4232  -26.6733   21.3988 H   0  0  0  0  0  0
  -18.0320  -26.0061   22.8996 H   0  0  0  0  0  0
  -19.7933  -30.7318   24.2228 H   0  0  0  0  0  0
  -17.5012  -31.6281   24.5166 H   0  0  0  0  0  0
  -15.5354  -30.3000   23.7678 H   0  0  0  0  0  0
  -15.8685  -28.0826   22.7102 H   0  0  0  0  0  0
  -24.6014  -30.6936   25.7773 H   0  0  0  0  0  0
  -24.8870  -32.2850   26.4738 H   0  0  0  0  0  0
  -25.8125  -30.8990   27.0233 H   0  0  0  0  0  0
  -26.2868  -29.6770   24.1136 H   0  0  0  0  0  0
  -27.4066  -29.7213   25.4575 H   0  0  0  0  0  0
  -27.8753  -30.4291   23.9292 H   0  0  0  0  0  0
  -27.2724  -33.3597   26.2031 H   0  0  0  0  0  0
  -28.3977  -32.6723   25.0372 H   0  0  0  0  0  0
  -28.0650  -31.8359   26.5460 H   0  0  0  0  0  0
  -28.2589  -38.0079   24.7562 H   0  0  0  0  0  0
  -28.1044  -36.2620   24.6265 H   0  0  0  0  0  0
  -27.2285  -37.1405   25.8879 H   0  0  0  0  0  0
  -20.9328  -29.8709   21.6843 H   0  0  0  0  0  0
  -26.0097  -38.2825   24.1521 H   0  0  0  0  0  0
  -29.8138  -19.7881   18.9036 H   0  0  0  0  0  0
  -27.7584  -19.5093   22.6098 H   0  0  0  0  0  0
  -25.2720  -22.2722   20.6147 H   0  0  0  0  0  0
  -25.3603  -22.2103   18.8773 H   0  0  0  0  0  0
  -25.8986  -24.3907   19.9852 H   0  0  0  0  0  0
  -27.0918  -23.8863   18.7773 H   0  0  0  0  0  0
  -27.1832  -23.6634   21.7691 H   0  0  0  0  0  0
  -29.8506  -14.8823   23.3313 H   0  0  0  0  0  0
  -30.8201  -16.3563   23.2980 H   0  0  0  0  0  0
  -31.5388  -14.8435   22.8562 H   0  0  0  0  0  0
  -27.2040  -18.1386   24.3559 H   0  0  0  0  0  0
  -28.9487  -18.4425   24.5158 H   0  0  0  0  0  0
  -28.2415  -16.9697   25.1638 H   0  0  0  0  0  0
  -31.5942  -16.7168   18.9142 H   0  0  0  0  0  0
  -31.3163  -18.2503   18.2510 H   0  0  0  0  0  0
  -29.4583  -25.1254   21.1763 H   0  0  0  0  0  0
  -28.0441  -25.6344   22.0013 H   0  0  0  0  0  0
  -29.3733  -16.0753   17.9620 H   0  0  0  0  0  0
  -30.4081  -16.6248   16.8275 H   0  0  0  0  0  0
  -29.2239  -17.5875   17.3894 H   0  0  0  0  0  0
  1 25  1  0  0  0
  1 30  2  0  0  0
  1 87  1  0  0  0
  2  3  1  0  0  0
  2 25  1  0  0  0
  2 92  1  0  0  0
  2 93  1  0  0  0
  3  4  1  0  0  0
  3 94  1  0  0  0
  3 95  1  0  0  0
  4  5  1  0  0  0
  4 96  1  0  0  0
  4 97  1  0  0  0
  5  6  1  0  0  0
  5 26  1  0  0  0
  5 98  1  0  0  0
  6 25  1  0  0  0
  6 99  1  0  0  0
  6100  1  0  0  0
  7  8  2  0  0  0
  7 26  1  0  0  0
  7 29  1  0  0  0
  8  9  1  0  0  0
  8 22  1  0  0  0
  9 10  1  0  0  0
  9 27  2  0  0  0
 10 11  2  0  0  0
 10 15  1  0  0  0
 11 12  1  0  0  0
 11101  1  0  0  0
 12 13  2  0  0  0
 12102  1  0  0  0
 13 14  1  0  0  0
 13 31  1  0  0  0
 14 15  2  0  0  0
 14103  1  0  0  0
 15104  1  0  0  0
 16 17  2  0  0  0
 16 21  1  0  0  0
 16 31  1  0  0  0
 17 18  1  0  0  0
 17105  1  0  0  0
 18 19  2  0  0  0
 18106  1  0  0  0
 19 20  1  0  0  0
 19 24  1  0  0  0
 20 21  2  0  0  0
 20107  1  0  0  0
 21 23  1  0  0  0
 22 28  1  0  0  0
 22 32  2  0  0  0
 26 27  1  0  0  0
 28108  1  0  0  0
 28109  1  0  0  0
 29110  1  0  0  0
 29111  1  0  0  0
 33 34  1  0  0  0
 33 66  1  0  0  0
 33 70  2  0  0  0
 34 36  1  0  0  0
 34 59  1  0  0  0
 34112  1  0  0  0
 35 44  2  0  0  0
 35 45  1  0  0  0
 35 68  1  0  0  0
 36 56  1  0  0  0
 36113  1  0  0  0
 37 39  1  0  0  0
 37 47  1  0  0  0
 37 66  1  0  0  0
 37114  1  0  0  0
 38 43  2  0  0  0
 38 46  1  0  0  0
 38 47  1  0  0  0
 39 64  1  0  0  0
 39 67  2  0  0  0
 40 52  1  0  0  0
 40 53  2  0  0  0
 40 58  1  0  0  0
 41115  1  0  0  0
 41116  1  0  0  0
 41117  1  0  0  0
 41 48  1  0  0  0
 42 43  1  0  0  0
 42 66  1  0  0  0
 42118  1  0  0  0
 42119  1  0  0  0
 43 44  1  0  0  0
 44120  1  0  0  0
 45 46  2  0  0  0
 45121  1  0  0  0
 46122  1  0  0  0
 47123  1  0  0  0
 47124  1  0  0  0
 48 56  1  0  0  0
 48 65  1  0  0  0
 48125  1  0  0  0
 49 50  1  0  0  0
 49 53  1  0  0  0
 49 64  1  0  0  0
 49126  1  0  0  0
 50 51  1  0  0  0
 50127  1  0  0  0
 50128  1  0  0  0
 51 52  1  0  0  0
 51129  1  0  0  0
 51130  1  0  0  0
 52131  1  0  0  0
 52132  1  0  0  0
 53 54  1  0  0  0
 54 55  2  0  0  0
 54133  1  0  0  0
 55 57  1  0  0  0
 55134  1  0  0  0
 56 69  2  0  0  0
 57 58  2  0  0  0
 57135  1  0  0  0
 58136  1  0  0  0
 59 60  1  0  0  0
 59 61  1  0  0  0
 59 62  1  0  0  0
 60137  1  0  0  0
 60138  1  0  0  0
 60139  1  0  0  0
 61140  1  0  0  0
 61141  1  0  0  0
 61142  1  0  0  0
 62143  1  0  0  0
 62144  1  0  0  0
 62145  1  0  0  0
 63 65  1  0  0  0
 63146  1  0  0  0
 63147  1  0  0  0
 63148  1  0  0  0
 64149  1  0  0  0
 65150  1  0  0  0
 68 85  1  0  0  0
 71 73  2  0  0  0
 71 74  1  0  0  0
 71151  1  0  0  0
 72 74  2  0  0  0
 72 76  1  0  0  0
 72152  1  0  0  0
 73 75  1  0  0  0
 73 84  1  0  0  0
 74 86  1  0  0  0
 75 76  2  0  0  0
 75 87  1  0  0  0
 76 91  1  0  0  0
 77 79  1  0  0  0
 77 86  1  0  0  0
 77 89  2  0  0  0
 78 81  1  0  0  0
 78 86  1  0  0  0
 78 90  2  0  0  0
 79 80  1  0  0  0
 79153  1  0  0  0
 79154  1  0  0  0
 80 81  1  0  0  0
 80155  1  0  0  0
 80156  1  0  0  0
 81 85  1  0  0  0
 81157  1  0  0  0
 82 87  1  0  0  0
 82158  1  0  0  0
 82159  1  0  0  0
 82160  1  0  0  0
 83 91  1  0  0  0
 83161  1  0  0  0
 83162  1  0  0  0
 83163  1  0  0  0
 84 88  1  0  0  0
 84164  1  0  0  0
 84165  1  0  0  0
 85166  1  0  0  0
 85167  1  0  0  0
 88168  1  0  0  0
 88169  1  0  0  0
 88170  1  0  0  0
M  CHG  1  88   1
M  ISO  4   1 100  68 101  85 101  87 100
M  END
> <chiral flag>
0

> <version>
0

> <s_m_source_file>
/data/baiqing/PycharmProjects/Reinvent-master-3.2/result/LINK_invent/BTK/process_docking_weight1_custom_product_contain_oxygen_bond_distance_aromatic_linkinvent_7_9_3/rearranged_h_0095.sdf

> <i_m_source_file_index>
74

> <r_mmod_Potential_Energy-OPLS-2005>
166.321350097656

> <r_mmod_Stretch_Energy-OPLS-2005>
124.397239685059

> <r_mmod_Bend_Energy-OPLS-2005>
225.988830566406

> <r_mmod_Torsional_Energy-OPLS-2005>
380.75048828125

> <r_mmod_Improper_Torsional_Energy-OPLS-2005>
5.83300971984863

> <r_mmod_Van_der_Waal_Energy-OPLS-2005>
174.316665649414

> <r_mmod_Electrostatic_Energy-OPLS-2005>
-316.323608398438

> <r_mmod_Solvation_Energy-OPLS-2005>
-483.779113769531

> <b_mmod_Minimization_Converged-OPLS-2005>
0

> <r_mmod_RMS_Derivative-OPLS-2005>
3.47624778747559

$$$$
74
                    3D
 Structure written by MMmdl.
139146  0  0  1  0            999 V2000
  -30.2375  -15.8263   20.3111 C   0  0  0  0  0  0
  -30.4088  -13.2258   19.5384 C   0  0  0  0  0  0
  -29.5557  -12.7036   18.3418 C   0  0  0  0  0  0
  -28.1456  -12.3045   18.7966 C   0  0  0  0  0  0
  -27.5887  -13.3271   19.8092 C   0  0  2  0  0  0
  -28.5928  -13.7455   20.9141 C   0  0  0  0  0  0
  -25.2292  -13.8310   20.5827 C   0  0  0  0  0  0
  -24.1700  -13.0434   20.9304 C   0  0  0  0  0  0
  -24.6429  -11.6954   20.8765 C   0  0  0  0  0  0
  -23.9135  -10.4293   21.0391 C   0  0  0  0  0  0
  -24.3664   -9.4206   21.9176 C   0  0  0  0  0  0
  -23.6320   -8.2249   22.0752 C   0  0  0  0  0  0
  -22.4299   -8.0291   21.3544 C   0  0  0  0  0  0
  -21.9950   -9.0267   20.4642 C   0  0  0  0  0  0
  -22.7298  -10.2136   20.3045 C   0  0  0  0  0  0
  -21.6861   -6.0744   22.5279 C   0  0  0  0  0  0
  -21.4020   -6.5644   23.8213 C   0  0  0  0  0  0
  -21.3661   -5.6795   24.9173 C   0  0  0  0  0  0
  -21.6044   -4.3058   24.7223 C   0  0  0  0  0  0
  -21.8818   -3.8151   23.4343 C   0  0  0  0  0  0
  -21.9195   -4.6970   22.3401 C   0  0  0  0  0  0
  -22.7707  -13.5150   21.1931 C   0  0  0  0  0  0
  -22.1662   -4.2155   21.0978 F   0  0  0  0  0  0
  -21.5627   -3.4540   25.7735 F   0  0  0  0  0  0
  -29.7332  -14.4277   20.2413 N   0  0  0  0  0  0
  -26.2761  -12.9678   20.3263 N   0  0  0  0  0  0
  -25.9383  -11.6727   20.5693 N   0  0  0  0  0  0
  -22.0378  -12.8121   22.0481 N   0  0  0  0  0  0
  -25.3859  -15.2056   20.4272 N   0  0  0  0  0  0
  -31.4776  -15.7130   20.1944 O   0  0  0  0  0  0
  -21.6652   -6.8893   21.4243 O   0  0  0  0  0  0
  -22.3378  -14.5446   20.6765 O   0  0  0  0  0  0
  -24.6971  -31.7840   23.1398 C   0  0  0  0  0  0
  -25.9486  -32.4388   23.7996 C   0  0  1  0  0  0
  -27.2319  -26.5634   20.2293 C   0  0  0  0  0  0
  -25.6006  -33.8221   24.1869 N   0  0  0  0  0  0
  -23.5298  -30.3797   21.4971 C   0  0  2  0  0  0
  -24.9889  -28.6912   20.1228 C   0  0  0  0  0  0
  -22.7828  -29.4231   22.4672 C   0  0  0  0  0  0
  -18.0348  -28.1429   22.8448 C   0  0  0  0  0  0
  -24.1496  -36.7119   23.2656 C   0  0  0  0  0  0
  -26.1165  -30.4711   21.4253 C   0  0  0  0  0  0
  -26.1809  -29.0203   20.7784 C   0  0  0  0  0  0
  -27.2812  -27.9894   20.7937 C   0  0  0  0  0  0
  -26.0048  -26.4793   19.5136 C   0  0  0  0  0  0
  -24.9483  -27.4483   19.4654 C   0  0  0  0  0  0
  -23.7919  -29.6638   20.1387 C   0  0  0  0  0  0
  -25.4152  -36.2848   24.0271 C   0  0  1  0  0  0
  -20.5990  -28.3796   23.1115 C   0  0  2  0  0  0
  -20.6807  -26.9442   22.5405 C   0  0  0  0  0  0
  -19.5785  -26.6366   21.5218 C   0  0  0  0  0  0
  -18.1968  -26.7953   22.1617 C   0  0  0  0  0  0
  -19.1617  -28.8940   23.2758 C   0  0  0  0  0  0
  -18.9520  -30.1520   23.8810 C   0  0  0  0  0  0
  -17.6508  -30.6608   24.0547 C   0  0  0  0  0  0
  -25.9141  -34.9243   23.4917 C   0  0  0  0  0  0
  -16.5397  -29.9086   23.6354 C   0  0  0  0  0  0
  -16.7326  -28.6510   23.0370 C   0  0  0  0  0  0
  -26.4618  -31.6482   25.0677 C   0  0  0  0  0  0
  -25.3646  -31.3839   26.1266 C   0  0  0  0  0  0
  -27.0573  -30.2804   24.6680 C   0  0  0  0  0  0
  -27.6038  -32.4377   25.7505 C   0  0  0  0  0  0
  -27.5560  -37.1715   24.8465 C   0  0  0  0  0  0
  -21.4462  -29.3016   22.3420 N   0  0  0  0  0  0
  -26.4265  -37.3626   23.9408 N   0  0  0  0  0  0
  -24.8062  -30.9148   22.0728 N   0  0  0  0  0  0
  -23.4206  -28.7853   23.3081 O   0  0  0  0  0  0
  -28.1758  -25.2797   20.2942 O   0  0  0  0  0  0
  -26.5801  -34.8848   22.4548 O   0  0  0  0  0  0
  -23.5960  -32.0979   23.6264 O   0  0  0  0  0  0
  -28.9436  -21.7203   20.2866 C   0  0  0  0  0  0
  -29.7341  -18.8231   20.3136 C   0  0  0  0  0  0
  -27.9534  -23.4655   20.1935 C   0  0  0  0  0  0
  -28.7695  -20.1982   20.2755 N   0  0  0  0  0  0
  -29.4820  -17.2453   20.3270 N   0  0  0  0  0  0
  -30.9371  -19.0815   20.3334 O   0  0  0  0  0  0
  -31.3862  -13.5136   19.1498 H   0  0  0  0  0  0
  -30.6184  -12.4200   20.2444 H   0  0  0  0  0  0
  -30.0494  -11.8606   17.8566 H   0  0  0  0  0  0
  -29.4820  -13.4905   17.5897 H   0  0  0  0  0  0
  -28.2094  -11.3240   19.2702 H   0  0  0  0  0  0
  -27.4776  -12.1942   17.9414 H   0  0  0  0  0  0
  -27.4235  -14.2207   19.2052 H   0  0  0  0  0  0
  -28.8989  -12.8980   21.5294 H   0  0  0  0  0  0
  -28.1219  -14.4577   21.5933 H   0  0  0  0  0  0
  -25.2802   -9.5678   22.4763 H   0  0  0  0  0  0
  -24.0018   -7.4642   22.7480 H   0  0  0  0  0  0
  -21.0878   -8.8797   19.8949 H   0  0  0  0  0  0
  -22.3756  -10.9677   19.6157 H   0  0  0  0  0  0
  -21.2016   -7.6153   23.9718 H   0  0  0  0  0  0
  -21.1483   -6.0524   25.9077 H   0  0  0  0  0  0
  -22.0595   -2.7613   23.2842 H   0  0  0  0  0  0
  -22.4029  -11.9801   22.4878 H   0  0  0  0  0  0
  -21.0980  -13.1105   22.2677 H   0  0  0  0  0  0
  -24.6124  -15.8522   20.5391 H   0  0  0  0  0  0
  -26.2257  -15.6483   20.0791 H   0  0  0  0  0  0
  -26.7581  -32.4825   23.0715 H   0  0  0  0  0  0
  -25.0041  -33.9235   24.9948 H   0  0  0  0  0  0
  -22.8630  -31.2206   21.2950 H   0  0  0  0  0  0
  -23.3781  -35.9424   23.3254 H   0  0  0  0  0  0
  -24.3559  -36.8855   22.2083 H   0  0  0  0  0  0
  -23.7236  -37.6266   23.6787 H   0  0  0  0  0  0
  -26.3336  -31.1864   20.6309 H   0  0  0  0  0  0
  -26.9620  -30.5447   22.0964 H   0  0  0  0  0  0
  -28.1758  -28.2540   21.3395 H   0  0  0  0  0  0
  -25.8143  -25.5473   19.0006 H   0  0  0  0  0  0
  -24.0530  -27.1849   18.9190 H   0  0  0  0  0  0
  -23.9792  -30.4179   19.3734 H   0  0  0  0  0  0
  -22.8938  -29.1376   19.8108 H   0  0  0  0  0  0
  -25.1368  -36.1589   25.0760 H   0  0  0  0  0  0
  -21.0067  -28.3432   24.1244 H   0  0  0  0  0  0
  -20.5659  -26.2424   23.3680 H   0  0  0  0  0  0
  -21.6667  -26.7363   22.1231 H   0  0  0  0  0  0
  -19.6939  -25.6254   21.1305 H   0  0  0  0  0  0
  -19.6732  -27.3128   20.6710 H   0  0  0  0  0  0
  -17.4238  -26.6696   21.4020 H   0  0  0  0  0  0
  -18.0351  -26.0117   22.9033 H   0  0  0  0  0  0
  -19.7996  -30.7358   24.2141 H   0  0  0  0  0  0
  -17.5058  -31.6278   24.5167 H   0  0  0  0  0  0
  -15.5393  -30.2961   23.7729 H   0  0  0  0  0  0
  -15.8727  -28.0799   22.7135 H   0  0  0  0  0  0
  -24.5864  -30.7158   25.7559 H   0  0  0  0  0  0
  -24.8802  -32.3073   26.4448 H   0  0  0  0  0  0
  -25.7789  -30.9159   27.0204 H   0  0  0  0  0  0
  -26.3318  -29.6374   24.1689 H   0  0  0  0  0  0
  -27.3960  -29.7308   25.5473 H   0  0  0  0  0  0
  -27.9313  -30.3897   24.0257 H   0  0  0  0  0  0
  -27.2558  -33.3765   26.1827 H   0  0  0  0  0  0
  -28.3978  -32.6801   25.0429 H   0  0  0  0  0  0
  -28.0564  -31.8681   26.5632 H   0  0  0  0  0  0
  -28.2533  -38.0050   24.7518 H   0  0  0  0  0  0
  -28.1100  -36.2571   24.6286 H   0  0  0  0  0  0
  -27.2275  -37.1339   25.8866 H   0  0  0  0  0  0
  -20.9800  -29.8651   21.6446 H   0  0  0  0  0  0
  -26.0079  -38.2665   24.1428 H   0  0  0  0  0  0
  -29.9933  -22.0156   20.3597 H   0  0  0  0  0  0
  -27.1607  -23.3208   20.9272 H   0  0  0  0  0  0
  -27.4254  -23.3809   19.2440 H   0  0  0  0  0  0
  -28.4882  -17.0788   20.3393 H   0  0  0  0  0  0
  1 25  1  0  0  0
  1 30  2  0  0  0
  1 75  1  0  0  0
  2  3  1  0  0  0
  2 25  1  0  0  0
  2 77  1  0  0  0
  2 78  1  0  0  0
  3  4  1  0  0  0
  3 79  1  0  0  0
  3 80  1  0  0  0
  4  5  1  0  0  0
  4 81  1  0  0  0
  4 82  1  0  0  0
  5  6  1  0  0  0
  5 26  1  0  0  0
  5 83  1  0  0  0
  6 25  1  0  0  0
  6 84  1  0  0  0
  6 85  1  0  0  0
  7  8  2  0  0  0
  7 26  1  0  0  0
  7 29  1  0  0  0
  8  9  1  0  0  0
  8 22  1  0  0  0
  9 10  1  0  0  0
  9 27  2  0  0  0
 10 11  2  0  0  0
 10 15  1  0  0  0
 11 12  1  0  0  0
 11 86  1  0  0  0
 12 13  2  0  0  0
 12 87  1  0  0  0
 13 14  1  0  0  0
 13 31  1  0  0  0
 14 15  2  0  0  0
 14 88  1  0  0  0
 15 89  1  0  0  0
 16 17  2  0  0  0
 16 21  1  0  0  0
 16 31  1  0  0  0
 17 18  1  0  0  0
 17 90  1  0  0  0
 18 19  2  0  0  0
 18 91  1  0  0  0
 19 20  1  0  0  0
 19 24  1  0  0  0
 20 21  2  0  0  0
 20 92  1  0  0  0
 21 23  1  0  0  0
 22 28  1  0  0  0
 22 32  2  0  0  0
 26 27  1  0  0  0
 28 93  1  0  0  0
 28 94  1  0  0  0
 29 95  1  0  0  0
 29 96  1  0  0  0
 33 34  1  0  0  0
 33 66  1  0  0  0
 33 70  2  0  0  0
 34 36  1  0  0  0
 34 59  1  0  0  0
 34 97  1  0  0  0
 35 44  2  0  0  0
 35 45  1  0  0  0
 35 68  1  0  0  0
 36 56  1  0  0  0
 36 98  1  0  0  0
 37 39  1  0  0  0
 37 47  1  0  0  0
 37 66  1  0  0  0
 37 99  1  0  0  0
 38 43  2  0  0  0
 38 46  1  0  0  0
 38 47  1  0  0  0
 39 64  1  0  0  0
 39 67  2  0  0  0
 40 52  1  0  0  0
 40 53  2  0  0  0
 40 58  1  0  0  0
 41100  1  0  0  0
 41101  1  0  0  0
 41102  1  0  0  0
 41 48  1  0  0  0
 42 43  1  0  0  0
 42 66  1  0  0  0
 42103  1  0  0  0
 42104  1  0  0  0
 43 44  1  0  0  0
 44105  1  0  0  0
 45 46  2  0  0  0
 45106  1  0  0  0
 46107  1  0  0  0
 47108  1  0  0  0
 47109  1  0  0  0
 48 56  1  0  0  0
 48 65  1  0  0  0
 48110  1  0  0  0
 49 50  1  0  0  0
 49 53  1  0  0  0
 49 64  1  0  0  0
 49111  1  0  0  0
 50 51  1  0  0  0
 50112  1  0  0  0
 50113  1  0  0  0
 51 52  1  0  0  0
 51114  1  0  0  0
 51115  1  0  0  0
 52116  1  0  0  0
 52117  1  0  0  0
 53 54  1  0  0  0
 54 55  2  0  0  0
 54118  1  0  0  0
 55 57  1  0  0  0
 55119  1  0  0  0
 56 69  2  0  0  0
 57 58  2  0  0  0
 57120  1  0  0  0
 58121  1  0  0  0
 59 60  1  0  0  0
 59 61  1  0  0  0
 59 62  1  0  0  0
 60122  1  0  0  0
 60123  1  0  0  0
 60124  1  0  0  0
 61125  1  0  0  0
 61126  1  0  0  0
 61127  1  0  0  0
 62128  1  0  0  0
 62129  1  0  0  0
 62130  1  0  0  0
 63 65  1  0  0  0
 63131  1  0  0  0
 63132  1  0  0  0
 63133  1  0  0  0
 64134  1  0  0  0
 65135  1  0  0  0
 68 73  1  0  0  0
 71 73  1  0  0  0
 71 74  2  0  0  0
 71136  1  0  0  0
 72 74  1  0  0  0
 72 75  1  0  0  0
 72 76  2  0  0  0
 73137  1  0  0  0
 73138  1  0  0  0
 75139  1  0  0  0
M  ISO  4   1 100  68 101  73 101  75 100
M  END
> <chiral flag>
0

> <version>
0

> <s_m_source_file>
/data/baiqing/PycharmProjects/Reinvent-master-3.2/result/LINK_invent/BTK/process_docking_weight1_custom_product_contain_oxygen_bond_distance_aromatic_linkinvent_7_9_3/rearranged_h_0095.sdf

> <i_m_source_file_index>
75

> <r_mmod_Potential_Energy-OPLS-2005>
2977.39135742188

> <r_mmod_Stretch_Energy-OPLS-2005>
1412.35046386719

> <r_mmod_Bend_Energy-OPLS-2005>
714.444213867188

> <r_mmod_Torsional_Energy-OPLS-2005>
208.323715209961

> <r_mmod_Improper_Torsional_Energy-OPLS-2005>
3.88495635986328

> <r_mmod_Van_der_Waal_Energy-OPLS-2005>
110.575996398926

> <r_mmod_Electrostatic_Energy-OPLS-2005>
-444.736114501953

> <r_mmod_Solvation_Energy-OPLS-2005>
-238.425415039062

> <b_mmod_Minimization_Converged-OPLS-2005>
1

> <r_mmod_RMS_Derivative-OPLS-2005>
0.0421487651765347

$$$$
75
                    3D
 Structure written by MMmdl.
157166  0  0  1  0            999 V2000
  -30.6572  -14.6696   20.5678 C   0  0  0  0  0  0
  -30.4343  -12.4321   19.4653 C   0  0  0  0  0  0
  -29.5097  -12.5368   18.2316 C   0  0  0  0  0  0
  -28.0335  -12.3639   18.6376 C   0  0  0  0  0  0
  -27.6526  -13.2286   19.8672 C   0  0  2  0  0  0
  -28.6925  -13.0925   20.9986 C   0  0  0  0  0  0
  -25.2539  -13.8191   20.5683 C   0  0  0  0  0  0
  -24.1811  -13.0441   20.9165 C   0  0  0  0  0  0
  -24.6407  -11.6918   20.8733 C   0  0  0  0  0  0
  -23.9085  -10.4287   21.0398 C   0  0  0  0  0  0
  -24.3638   -9.4207   21.9181 C   0  0  0  0  0  0
  -23.6306   -8.2255   22.0761 C   0  0  0  0  0  0
  -22.4284   -8.0293   21.3558 C   0  0  0  0  0  0
  -21.9930   -9.0258   20.4651 C   0  0  0  0  0  0
  -22.7263  -10.2128   20.3048 C   0  0  0  0  0  0
  -21.6849   -6.0740   22.5284 C   0  0  0  0  0  0
  -21.4014   -6.5643   23.8216 C   0  0  0  0  0  0
  -21.3658   -5.6793   24.9181 C   0  0  0  0  0  0
  -21.6043   -4.3055   24.7229 C   0  0  0  0  0  0
  -21.8817   -3.8148   23.4346 C   0  0  0  0  0  0
  -21.9197   -4.6968   22.3407 C   0  0  0  0  0  0
  -22.7832  -13.5234   21.1839 C   0  0  0  0  0  0
  -22.1658   -4.2155   21.0980 F   0  0  0  0  0  0
  -21.5637   -3.4537   25.7740 F   0  0  0  0  0  0
  -30.0083  -13.4572   20.4478 N   0  0  0  0  0  0
  -26.2983  -12.9405   20.3328 N   0  0  0  0  0  0
  -25.9344  -11.6538   20.5759 N   0  0  0  0  0  0
  -22.0489  -12.8210   22.0391 N   0  0  0  0  0  0
  -25.4244  -15.1914   20.4117 N   0  0  0  0  0  0
  -31.7636  -14.8295   20.0438 O   0  0  0  0  0  0
  -21.6651   -6.8883   21.4247 O   0  0  0  0  0  0
  -22.3497  -14.5539   20.6695 O   0  0  0  0  0  0
  -24.6289  -31.8568   23.2016 C   0  0  0  0  0  0
  -25.9125  -32.4759   23.8374 C   0  0  1  0  0  0
  -27.2249  -27.2984   20.1339 C   0  0  0  0  0  0
  -25.5939  -33.8563   24.2309 N   0  0  0  0  0  0
  -23.4258  -30.4777   21.5437 C   0  0  2  0  0  0
  -24.8746  -28.9254   20.1153 C   0  0  0  0  0  0
  -22.7471  -29.4620   22.4935 C   0  0  0  0  0  0
  -18.0280  -28.1402   22.8485 C   0  0  0  0  0  0
  -24.1482  -36.7265   23.2647 C   0  0  0  0  0  0
  -25.9663  -30.7818   21.3739 C   0  0  0  0  0  0
  -26.0434  -29.4063   20.7205 C   0  0  0  0  0  0
  -27.2258  -28.6055   20.7178 C   0  0  0  0  0  0
  -26.0373  -26.8711   19.5071 C   0  0  0  0  0  0
  -24.8738  -27.6638   19.4987 C   0  0  0  0  0  0
  -23.6429  -29.8065   20.1616 C   0  0  0  0  0  0
  -25.4105  -36.3058   24.0343 C   0  0  1  0  0  0
  -20.5883  -28.3710   23.1267 C   0  0  2  0  0  0
  -20.6783  -26.9422   22.5405 C   0  0  0  0  0  0
  -19.5763  -26.6400   21.5211 C   0  0  0  0  0  0
  -18.1932  -26.7956   22.1606 C   0  0  0  0  0  0
  -19.1535  -28.8873   23.2878 C   0  0  0  0  0  0
  -18.9460  -30.1476   23.8897 C   0  0  0  0  0  0
  -17.6459  -30.6607   24.0565 C   0  0  0  0  0  0
  -25.9046  -34.9429   23.5121 C   0  0  0  0  0  0
  -16.5345  -29.9095   23.6344 C   0  0  0  0  0  0
  -16.7266  -28.6512   23.0364 C   0  0  0  0  0  0
  -26.4517  -31.6570   25.0739 C   0  0  0  0  0  0
  -25.3750  -31.3653   26.1459 C   0  0  0  0  0  0
  -27.0413  -30.3018   24.6197 C   0  0  0  0  0  0
  -27.6094  -32.4309   25.7477 C   0  0  0  0  0  0
  -27.5582  -37.1777   24.8465 C   0  0  0  0  0  0
  -21.4186  -29.3063   22.3660 N   0  0  0  0  0  0
  -26.4279  -37.3773   23.9425 N   0  0  0  0  0  0
  -24.6931  -31.0549   22.0976 N   0  0  0  0  0  0
  -23.4170  -28.8157   23.3031 O   0  0  0  0  0  0
  -28.3160  -26.4157   20.1430 O   0  0  0  0  0  0
  -26.5595  -34.8904   22.4673 O   0  0  0  0  0  0
  -23.5441  -32.1375   23.7317 O   0  0  0  0  0  0
  -30.3904  -19.2309   19.6872 C   0  0  0  0  0  0
  -30.5919  -17.8320   19.9350 C   0  0  0  0  0  0
  -29.0171  -23.4510   18.9371 C   0  0  0  0  0  0
  -28.5474  -19.2539   21.2036 C   0  0  0  0  0  0
  -28.6232  -23.7442   20.2758 C   0  0  0  0  0  0
  -29.3683  -20.0043   20.3191 C   0  0  0  0  0  0
  -29.7973  -17.0968   20.8614 C   0  0  0  0  0  0
  -28.7518  -17.8631   21.4677 C   0  0  0  0  0  0
  -29.3176  -22.1124   18.8304 C   0  0  0  0  0  0
  -28.7344  -22.4998   20.9114 C   0  0  0  0  0  0
  -30.1332  -15.5094   22.7469 C   0  0  0  0  0  0
  -28.1180  -25.1270   20.8605 C   0  0  0  0  0  0
  -29.1569  -21.4494   20.0500 N   0  0  0  0  0  0
  -30.0600  -15.6935   21.2865 N   0  0  0  0  0  0
  -29.6950  -21.4380   17.7081 O   0  0  0  0  0  0
  -28.4809  -22.2139   22.2200 O   0  0  0  0  0  0
  -27.9031  -17.2582   22.3336 F   0  0  0  0  0  0
  -31.4771  -12.5527   19.1674 H   0  0  0  0  0  0
  -30.3722  -11.4363   19.9062 H   0  0  0  0  0  0
  -29.7833  -11.7864   17.4883 H   0  0  0  0  0  0
  -29.6450  -13.5071   17.7524 H   0  0  0  0  0  0
  -27.8712  -11.3092   18.8631 H   0  0  0  0  0  0
  -27.3799  -12.6035   17.7983 H   0  0  0  0  0  0
  -27.6686  -14.2669   19.5348 H   0  0  0  0  0  0
  -28.7141  -12.0694   21.3798 H   0  0  0  0  0  0
  -28.4005  -13.7110   21.8435 H   0  0  0  0  0  0
  -25.2781   -9.5692   22.4746 H   0  0  0  0  0  0
  -24.0017   -7.4645   22.7484 H   0  0  0  0  0  0
  -21.0858   -8.8769   19.8946 H   0  0  0  0  0  0
  -22.3726  -10.9666   19.6150 H   0  0  0  0  0  0
  -21.1994   -7.6147   23.9729 H   0  0  0  0  0  0
  -21.1477   -6.0515   25.9081 H   0  0  0  0  0  0
  -22.0594   -2.7615   23.2841 H   0  0  0  0  0  0
  -22.4121  -11.9878   22.4778 H   0  0  0  0  0  0
  -21.1102  -13.1209   22.2596 H   0  0  0  0  0  0
  -24.6711  -15.8538   20.5541 H   0  0  0  0  0  0
  -26.2989  -15.6339   20.1598 H   0  0  0  0  0  0
  -26.7194  -32.5435   23.1125 H   0  0  0  0  0  0
  -25.0158  -33.9727   25.0503 H   0  0  0  0  0  0
  -22.7224  -31.2998   21.3936 H   0  0  0  0  0  0
  -23.3766  -35.9573   23.3260 H   0  0  0  0  0  0
  -24.3581  -36.8923   22.2074 H   0  0  0  0  0  0
  -23.7198  -37.6438   23.6687 H   0  0  0  0  0  0
  -26.0963  -31.5407   20.6026 H   0  0  0  0  0  0
  -26.8474  -30.8370   22.0011 H   0  0  0  0  0  0
  -28.1232  -28.9700   21.1980 H   0  0  0  0  0  0
  -26.0036  -25.8977   19.0369 H   0  0  0  0  0  0
  -23.9785  -27.2862   19.0252 H   0  0  0  0  0  0
  -23.7610  -30.5815   19.4033 H   0  0  0  0  0  0
  -22.7649  -29.2325   19.8584 H   0  0  0  0  0  0
  -25.1285  -36.1909   25.0840 H   0  0  0  0  0  0
  -20.9984  -28.3292   24.1386 H   0  0  0  0  0  0
  -20.5697  -26.2323   23.3620 H   0  0  0  0  0  0
  -21.6643  -26.7484   22.1167 H   0  0  0  0  0  0
  -19.6919  -25.6304   21.1262 H   0  0  0  0  0  0
  -19.6709  -27.3204   20.6736 H   0  0  0  0  0  0
  -17.4216  -26.6719   21.4000 H   0  0  0  0  0  0
  -18.0312  -26.0097   22.9003 H   0  0  0  0  0  0
  -19.7935  -30.7297   24.2266 H   0  0  0  0  0  0
  -17.5006  -31.6294   24.5156 H   0  0  0  0  0  0
  -15.5341  -30.2993   23.7696 H   0  0  0  0  0  0
  -15.8659  -28.0829   22.7093 H   0  0  0  0  0  0
  -24.5987  -30.6944   25.7753 H   0  0  0  0  0  0
  -24.8882  -32.2785   26.4892 H   0  0  0  0  0  0
  -25.8109  -30.8832   27.0223 H   0  0  0  0  0  0
  -26.3018  -29.6690   24.1288 H   0  0  0  0  0  0
  -27.4203  -29.7340   25.4703 H   0  0  0  0  0  0
  -27.8818  -30.4319   23.9381 H   0  0  0  0  0  0
  -27.2758  -33.3649   26.1997 H   0  0  0  0  0  0
  -28.3922  -32.6795   25.0296 H   0  0  0  0  0  0
  -28.0744  -31.8465   26.5421 H   0  0  0  0  0  0
  -28.2557  -38.0121   24.7579 H   0  0  0  0  0  0
  -28.1133  -36.2659   24.6208 H   0  0  0  0  0  0
  -27.2308  -37.1297   25.8869 H   0  0  0  0  0  0
  -20.9384  -29.8734   21.6812 H   0  0  0  0  0  0
  -26.0147  -38.2831   24.1481 H   0  0  0  0  0  0
  -31.0602  -19.7206   18.9954 H   0  0  0  0  0  0
  -31.4085  -17.3407   19.4252 H   0  0  0  0  0  0
  -29.0514  -24.1621   18.1231 H   0  0  0  0  0  0
  -27.7316  -19.7500   21.7071 H   0  0  0  0  0  0
  -30.5547  -16.3973   23.2220 H   0  0  0  0  0  0
  -30.7683  -14.6732   23.0477 H   0  0  0  0  0  0
  -29.1492  -15.3411   23.1834 H   0  0  0  0  0  0
  -28.6141  -25.2482   21.8235 H   0  0  0  0  0  0
  -27.0654  -24.9824   21.1076 H   0  0  0  0  0  0
  -29.7577  -22.0674   16.9962 H   0  0  0  0  0  0
  -28.2233  -23.0184   22.6584 H   0  0  0  0  0  0
  1 25  1  0  0  0
  1 30  2  0  0  0
  1 84  1  0  0  0
  2  3  1  0  0  0
  2 25  1  0  0  0
  2 88  1  0  0  0
  2 89  1  0  0  0
  3  4  1  0  0  0
  3 90  1  0  0  0
  3 91  1  0  0  0
  4  5  1  0  0  0
  4 92  1  0  0  0
  4 93  1  0  0  0
  5  6  1  0  0  0
  5 26  1  0  0  0
  5 94  1  0  0  0
  6 25  1  0  0  0
  6 95  1  0  0  0
  6 96  1  0  0  0
  7  8  2  0  0  0
  7 26  1  0  0  0
  7 29  1  0  0  0
  8  9  1  0  0  0
  8 22  1  0  0  0
  9 10  1  0  0  0
  9 27  2  0  0  0
 10 11  2  0  0  0
 10 15  1  0  0  0
 11 12  1  0  0  0
 11 97  1  0  0  0
 12 13  2  0  0  0
 12 98  1  0  0  0
 13 14  1  0  0  0
 13 31  1  0  0  0
 14 15  2  0  0  0
 14 99  1  0  0  0
 15100  1  0  0  0
 16 17  2  0  0  0
 16 21  1  0  0  0
 16 31  1  0  0  0
 17 18  1  0  0  0
 17101  1  0  0  0
 18 19  2  0  0  0
 18102  1  0  0  0
 19 20  1  0  0  0
 19 24  1  0  0  0
 20 21  2  0  0  0
 20103  1  0  0  0
 21 23  1  0  0  0
 22 28  1  0  0  0
 22 32  2  0  0  0
 26 27  1  0  0  0
 28104  1  0  0  0
 28105  1  0  0  0
 29106  1  0  0  0
 29107  1  0  0  0
 33 34  1  0  0  0
 33 66  1  0  0  0
 33 70  2  0  0  0
 34 36  1  0  0  0
 34 59  1  0  0  0
 34108  1  0  0  0
 35 44  2  0  0  0
 35 45  1  0  0  0
 35 68  1  0  0  0
 36 56  1  0  0  0
 36109  1  0  0  0
 37 39  1  0  0  0
 37 47  1  0  0  0
 37 66  1  0  0  0
 37110  1  0  0  0
 38 43  2  0  0  0
 38 46  1  0  0  0
 38 47  1  0  0  0
 39 64  1  0  0  0
 39 67  2  0  0  0
 40 52  1  0  0  0
 40 53  2  0  0  0
 40 58  1  0  0  0
 41111  1  0  0  0
 41112  1  0  0  0
 41113  1  0  0  0
 41 48  1  0  0  0
 42 43  1  0  0  0
 42 66  1  0  0  0
 42114  1  0  0  0
 42115  1  0  0  0
 43 44  1  0  0  0
 44116  1  0  0  0
 45 46  2  0  0  0
 45117  1  0  0  0
 46118  1  0  0  0
 47119  1  0  0  0
 47120  1  0  0  0
 48 56  1  0  0  0
 48 65  1  0  0  0
 48121  1  0  0  0
 49 50  1  0  0  0
 49 53  1  0  0  0
 49 64  1  0  0  0
 49122  1  0  0  0
 50 51  1  0  0  0
 50123  1  0  0  0
 50124  1  0  0  0
 51 52  1  0  0  0
 51125  1  0  0  0
 51126  1  0  0  0
 52127  1  0  0  0
 52128  1  0  0  0
 53 54  1  0  0  0
 54 55  2  0  0  0
 54129  1  0  0  0
 55 57  1  0  0  0
 55130  1  0  0  0
 56 69  2  0  0  0
 57 58  2  0  0  0
 57131  1  0  0  0
 58132  1  0  0  0
 59 60  1  0  0  0
 59 61  1  0  0  0
 59 62  1  0  0  0
 60133  1  0  0  0
 60134  1  0  0  0
 60135  1  0  0  0
 61136  1  0  0  0
 61137  1  0  0  0
 61138  1  0  0  0
 62139  1  0  0  0
 62140  1  0  0  0
 62141  1  0  0  0
 63 65  1  0  0  0
 63142  1  0  0  0
 63143  1  0  0  0
 63144  1  0  0  0
 64145  1  0  0  0
 65146  1  0  0  0
 68 82  1  0  0  0
 71 72  2  0  0  0
 71 76  1  0  0  0
 71147  1  0  0  0
 72 77  1  0  0  0
 72148  1  0  0  0
 73 75  1  0  0  0
 73 79  2  0  0  0
 73149  1  0  0  0
 74 76  2  0  0  0
 74 78  1  0  0  0
 74150  1  0  0  0
 75 80  2  0  0  0
 75 82  1  0  0  0
 76 83  1  0  0  0
 77 78  2  0  0  0
 77 84  1  0  0  0
 78 87  1  0  0  0
 79 83  1  0  0  0
 79 85  1  0  0  0
 80 83  1  0  0  0
 80 86  1  0  0  0
 81 84  1  0  0  0
 81151  1  0  0  0
 81152  1  0  0  0
 81153  1  0  0  0
 82154  1  0  0  0
 82155  1  0  0  0
 85156  1  0  0  0
 86157  1  0  0  0
M  ISO  4   1 100  68 101  82 101  84 100
M  END
> <chiral flag>
0

> <version>
0

> <s_m_source_file>
/data/baiqing/PycharmProjects/Reinvent-master-3.2/result/LINK_invent/BTK/process_docking_weight1_custom_product_contain_oxygen_bond_distance_aromatic_linkinvent_7_9_3/rearranged_h_0095.sdf

> <i_m_source_file_index>
76

> <r_mmod_Potential_Energy-OPLS-2005>
263.826507568359

> <r_mmod_Stretch_Energy-OPLS-2005>
101.144538879395

> <r_mmod_Bend_Energy-OPLS-2005>
150.940017700195

> <r_mmod_Torsional_Energy-OPLS-2005>
324.112274169922

> <r_mmod_Improper_Torsional_Energy-OPLS-2005>
3.38726353645325

> <r_mmod_Van_der_Waal_Energy-OPLS-2005>
141.71418762207

> <r_mmod_Electrostatic_Energy-OPLS-2005>
-307.473358154297

> <r_mmod_Solvation_Energy-OPLS-2005>
-207.306610107422

> <b_mmod_Minimization_Converged-OPLS-2005>
0

> <r_mmod_RMS_Derivative-OPLS-2005>
2.32758498191833

$$$$
76
                    3D
 Structure written by MMmdl.
159168  0  0  1  0            999 V2000
  -29.0141  -18.0110   20.3107 C   0  0  0  0  0  0
  -29.9053  -14.9203   19.5322 C   0  0  0  0  0  0
  -29.5048  -13.6234   18.5723 C   0  0  0  0  0  0
  -28.3404  -12.7606   19.0460 C   0  0  0  0  0  0
  -27.5043  -13.7224   19.8806 C   0  0  2  0  0  0
  -28.2346  -14.8712   20.8162 C   0  0  0  0  0  0
  -25.1397  -13.9060   20.6090 C   0  0  0  0  0  0
  -24.1299  -13.0594   20.9380 C   0  0  0  0  0  0
  -24.6626  -11.7321   20.8653 C   0  0  0  0  0  0
  -23.9451  -10.4419   21.0199 C   0  0  0  0  0  0
  -24.3855   -9.4340   21.9095 C   0  0  0  0  0  0
  -23.6438   -8.2407   22.0764 C   0  0  0  0  0  0
  -22.4440   -8.0386   21.3544 C   0  0  0  0  0  0
  -22.0132   -9.0349   20.4618 C   0  0  0  0  0  0
  -22.7539  -10.2181   20.2941 C   0  0  0  0  0  0
  -21.6944   -6.0784   22.5262 C   0  0  0  0  0  0
  -21.4073   -6.5663   23.8198 C   0  0  0  0  0  0
  -21.3686   -5.6801   24.9154 C   0  0  0  0  0  0
  -21.6046   -4.3063   24.7194 C   0  0  0  0  0  0
  -21.8820   -3.8166   23.4313 C   0  0  0  0  0  0
  -21.9208   -4.6991   22.3374 C   0  0  0  0  0  0
  -22.7203  -13.4920   21.1952 C   0  0  0  0  0  0
  -22.1673   -4.2162   21.0951 F   0  0  0  0  0  0
  -21.5606   -3.4562   25.7702 F   0  0  0  0  0  0
  -28.8862  -16.2028   20.1061 N   0  0  0  0  0  0
  -26.2552  -13.1371   20.3990 N   0  0  0  0  0  0
  -25.9759  -11.7943   20.5669 N   0  0  0  0  0  0
  -22.0075  -12.7768   22.0545 N   0  0  0  0  0  0
  -25.2048  -15.2837   20.4305 N   0  0  0  0  0  0
  -30.2848  -17.6323   20.3671 O   0  0  0  0  0  0
  -21.6784   -6.8977   21.4244 O   0  0  0  0  0  0
  -22.2677  -14.5178   20.6849 O   0  0  0  0  0  0
  -24.7133  -31.5575   23.0301 C   0  0  0  0  0  0
  -25.9296  -32.3246   23.7010 C   0  0  1  0  0  0
  -28.4825  -25.7536   19.6514 C   0  0  0  0  0  0
  -25.5524  -33.7267   24.0785 N   0  0  0  0  0  0
  -23.5605  -29.8420   21.5333 C   0  0  2  0  0  0
  -24.7208  -27.2190   20.6496 C   0  0  0  0  0  0
  -22.7205  -29.2934   22.6516 C   0  0  0  0  0  0
  -18.0010  -28.1385   22.8518 C   0  0  0  0  0  0
  -24.1519  -36.6782   23.2693 C   0  0  0  0  0  0
  -26.0828  -29.7861   21.5536 C   0  0  0  0  0  0
  -26.3067  -28.1138   21.2645 C   0  0  0  0  0  0
  -28.1238  -27.3926   20.9576 C   0  0  0  0  0  0
  -26.7189  -24.8518   18.4586 C   0  0  0  0  0  0
  -24.7762  -25.5492   19.3670 C   0  0  0  0  0  0
  -23.6389  -28.5170   20.5480 C   0  0  0  0  0  0
  -25.4180  -36.2287   24.0159 C   0  0  1  0  0  0
  -20.5400  -28.3383   23.1910 C   0  0  2  0  0  0
  -20.6352  -26.9181   22.5805 C   0  0  0  0  0  0
  -19.5568  -26.6471   21.5320 C   0  0  0  0  0  0
  -18.1695  -26.7962   22.1603 C   0  0  0  0  0  0
  -19.1198  -28.8798   23.3092 C   0  0  0  0  0  0
  -18.9188  -30.1445   23.9036 C   0  0  0  0  0  0
  -17.6205  -30.6623   24.0583 C   0  0  0  0  0  0
  -25.9149  -34.8666   23.4572 C   0  0  0  0  0  0
  -16.5117  -29.9126   23.6271 C   0  0  0  0  0  0
  -16.7020  -28.6564   23.0231 C   0  0  0  0  0  0
  -26.4684  -31.6058   25.0118 C   0  0  0  0  0  0
  -25.3646  -31.3465   26.0682 C   0  0  0  0  0  0
  -27.0904  -30.2393   24.6623 C   0  0  0  0  0  0
  -27.5965  -32.4330   25.6809 C   0  0  0  0  0  0
  -27.5518  -37.1425   24.8439 C   0  0  0  0  0  0
  -21.3985  -29.2561   22.4640 N   0  0  0  0  0  0
  -26.4219  -37.3177   23.9368 N   0  0  0  0  0  0
  -24.8205  -30.4698   22.1066 N   0  0  0  0  0  0
  -23.2973  -28.7469   23.5875 O   0  0  0  0  0  0
  -29.7820  -25.5534   19.5446 O   0  0  0  0  0  0
  -26.6263  -34.8574   22.4520 O   0  0  0  0  0  0
  -23.6110  -31.9854   23.4336 O   0  0  0  0  0  0
  -25.9577  -24.5936   21.5980 C   0  0  0  0  0  0
  -26.5557  -25.7199   20.9756 C   0  0  0  0  0  0
  -26.2432  -27.1111   17.8115 C   0  0  0  0  0  0
  -26.7589  -24.4822   20.5785 C   0  0  0  0  0  0
  -26.8485  -27.1010   19.1077 C   0  0  0  0  0  0
  -26.4607  -26.9035   19.1874 C   0  0  0  0  0  0
  -28.5213  -29.5230   18.7051 C   0  0  0  0  0  0
  -28.9659  -27.6272   17.6203 C   0  0  0  0  0  0
  -27.4321  -22.0658   20.2050 C   0  0  0  0  0  0
  -29.9893  -29.9511   18.2234 C   0  0  0  0  0  0
  -30.9897  -28.7400   17.9076 C   0  0  0  0  0  0
  -30.2566  -27.4861   18.3412 C   0  0  2  0  0  0
  -30.5439  -25.9929   18.3809 C   0  0  0  0  0  0
  -28.1138  -28.2111   18.4672 N   0  0  0  0  0  0
  -28.1397  -20.0033   20.2623 N   0  0  0  0  0  0
  -27.8365  -30.3965   19.2317 O   0  0  0  0  0  0
  -28.7584  -27.2314   16.4658 O   0  0  0  0  0  0
  -26.8940  -21.9619   19.1029 O   0  0  0  0  0  0
  -25.4742  -28.4221   18.9924 F   0  0  0  0  0  0
  -30.5963  -15.4708   18.8932 H   0  0  0  0  0  0
  -30.5717  -14.5880   20.3374 H   0  0  0  0  0  0
  -30.3790  -12.9957   18.4117 H   0  0  0  0  0  0
  -29.2567  -14.0199   17.5889 H   0  0  0  0  0  0
  -28.6858  -11.9408   19.6716 H   0  0  0  0  0  0
  -27.7718  -12.3520   18.2122 H   0  0  0  0  0  0
  -27.1206  -14.3516   19.0768 H   0  0  0  0  0  0
  -28.8735  -14.4230   21.5815 H   0  0  0  0  0  0
  -27.4788  -15.3236   21.4520 H   0  0  0  0  0  0
  -25.2927   -9.5861   22.4797 H   0  0  0  0  0  0
  -24.0099   -7.4850   22.7547 H   0  0  0  0  0  0
  -21.1094   -8.8886   19.8905 H   0  0  0  0  0  0
  -22.3953  -10.9723   19.6090 H   0  0  0  0  0  0
  -21.2119   -7.6191   23.9698 H   0  0  0  0  0  0
  -21.1503   -6.0544   25.9048 H   0  0  0  0  0  0
  -22.0566   -2.7633   23.2817 H   0  0  0  0  0  0
  -22.3838  -11.9442   22.4858 H   0  0  0  0  0  0
  -21.0651  -13.0624   22.2847 H   0  0  0  0  0  0
  -24.4221  -15.9203   20.5277 H   0  0  0  0  0  0
  -26.0547  -15.7456   20.1352 H   0  0  0  0  0  0
  -26.7306  -32.3617   22.9621 H   0  0  0  0  0  0
  -24.9124  -33.8058   24.8553 H   0  0  0  0  0  0
  -22.9912  -30.6217   21.0291 H   0  0  0  0  0  0
  -23.3823  -35.9062   23.3072 H   0  0  0  0  0  0
  -24.3596  -36.8837   22.2181 H   0  0  0  0  0  0
  -23.7278  -37.5786   23.7121 H   0  0  0  0  0  0
  -26.0069  -30.2129   20.5657 H   0  0  0  0  0  0
  -26.9886  -30.2273   21.9607 H   0  0  0  0  0  0
  -28.9769  -27.9418   21.3332 H   0  0  0  0  0  0
  -26.8092  -24.0961   17.6950 H   0  0  0  0  0  0
  -23.8493  -25.1850   18.9444 H   0  0  0  0  0  0
  -23.5056  -28.8865   19.5314 H   0  0  0  0  0  0
  -22.6865  -27.9790   20.5920 H   0  0  0  0  0  0
  -25.1497  -36.0845   25.0638 H   0  0  0  0  0  0
  -20.9056  -28.2747   24.2203 H   0  0  0  0  0  0
  -20.5032  -26.1921   23.3833 H   0  0  0  0  0  0
  -21.6278  -26.7093   22.1871 H   0  0  0  0  0  0
  -19.6717  -25.6497   21.1092 H   0  0  0  0  0  0
  -19.6664  -27.3535   20.7106 H   0  0  0  0  0  0
  -17.4022  -26.6787   21.3935 H   0  0  0  0  0  0
  -18.0013  -26.0071   22.8966 H   0  0  0  0  0  0
  -19.7644  -30.7212   24.2483 H   0  0  0  0  0  0
  -17.4703  -31.6303   24.5153 H   0  0  0  0  0  0
  -15.5099  -30.3026   23.7478 H   0  0  0  0  0  0
  -15.8436  -28.0942   22.6751 H   0  0  0  0  0  0
  -24.5903  -30.6816   25.6833 H   0  0  0  0  0  0
  -24.8800  -32.2678   26.3881 H   0  0  0  0  0  0
  -25.7732  -30.8628   26.9561 H   0  0  0  0  0  0
  -26.3636  -29.5403   24.2509 H   0  0  0  0  0  0
  -27.4833  -29.7539   25.5564 H   0  0  0  0  0  0
  -27.9267  -30.3331   23.9691 H   0  0  0  0  0  0
  -27.2387  -33.3802   26.0859 H   0  0  0  0  0  0
  -28.3914  -32.6611   24.9675 H   0  0  0  0  0  0
  -28.0580  -31.8895   26.5063 H   0  0  0  0  0  0
  -28.2363  -37.9879   24.7609 H   0  0  0  0  0  0
  -28.1227  -36.2397   24.6209 H   0  0  0  0  0  0
  -27.2230  -37.0894   25.8830 H   0  0  0  0  0  0
  -20.9955  -29.7277   21.6654 H   0  0  0  0  0  0
  -25.9969  -38.2168   24.1392 H   0  0  0  0  0  0
  -25.2642  -25.1503   22.2215 H   0  0  0  0  0  0
  -26.8312  -26.0531   22.0074 H   0  0  0  0  0  0
  -26.2149  -28.0067   17.1838 H   0  0  0  0  0  0
  -30.4226  -30.5683   19.0104 H   0  0  0  0  0  0
  -29.9002  -30.6004   17.3535 H   0  0  0  0  0  0
  -31.8923  -28.8273   18.5038 H   0  0  0  0  0  0
  -31.2889  -28.6805   16.8590 H   0  0  0  0  0  0
  -30.1832  -27.7125   19.4130 H   0  0  0  0  0  0
  -31.6028  -25.8066   18.5192 H   0  0  0  0  0  0
  -30.2498  -25.4524   17.4722 H   0  0  0  0  0  0
  -27.3559  -19.6681   19.7190 H   0  0  0  0  0  0
  1 25  1  0  0  0
  1 30  2  0  0  0
  1 85  1  0  0  0
  2  3  1  0  0  0
  2 25  1  0  0  0
  2 90  1  0  0  0
  2 91  1  0  0  0
  3  4  1  0  0  0
  3 92  1  0  0  0
  3 93  1  0  0  0
  4  5  1  0  0  0
  4 94  1  0  0  0
  4 95  1  0  0  0
  5  6  1  0  0  0
  5 26  1  0  0  0
  5 96  1  0  0  0
  6 25  1  0  0  0
  6 97  1  0  0  0
  6 98  1  0  0  0
  7  8  2  0  0  0
  7 26  1  0  0  0
  7 29  1  0  0  0
  8  9  1  0  0  0
  8 22  1  0  0  0
  9 10  1  0  0  0
  9 27  2  0  0  0
 10 11  2  0  0  0
 10 15  1  0  0  0
 11 12  1  0  0  0
 11 99  1  0  0  0
 12 13  2  0  0  0
 12100  1  0  0  0
 13 14  1  0  0  0
 13 31  1  0  0  0
 14 15  2  0  0  0
 14101  1  0  0  0
 15102  1  0  0  0
 16 17  2  0  0  0
 16 21  1  0  0  0
 16 31  1  0  0  0
 17 18  1  0  0  0
 17103  1  0  0  0
 18 19  2  0  0  0
 18104  1  0  0  0
 19 20  1  0  0  0
 19 24  1  0  0  0
 20 21  2  0  0  0
 20105  1  0  0  0
 21 23  1  0  0  0
 22 28  1  0  0  0
 22 32  2  0  0  0
 26 27  1  0  0  0
 28106  1  0  0  0
 28107  1  0  0  0
 29108  1  0  0  0
 29109  1  0  0  0
 33 34  1  0  0  0
 33 66  1  0  0  0
 33 70  2  0  0  0
 34 36  1  0  0  0
 34 59  1  0  0  0
 34110  1  0  0  0
 35 44  2  0  0  0
 35 45  1  0  0  0
 35 68  1  0  0  0
 36 56  1  0  0  0
 36111  1  0  0  0
 37 39  1  0  0  0
 37 47  1  0  0  0
 37 66  1  0  0  0
 37112  1  0  0  0
 38 43  2  0  0  0
 38 46  1  0  0  0
 38 47  1  0  0  0
 39 64  1  0  0  0
 39 67  2  0  0  0
 40 52  1  0  0  0
 40 53  2  0  0  0
 40 58  1  0  0  0
 41113  1  0  0  0
 41114  1  0  0  0
 41115  1  0  0  0
 41 48  1  0  0  0
 42 43  1  0  0  0
 42 66  1  0  0  0
 42116  1  0  0  0
 42117  1  0  0  0
 43 44  1  0  0  0
 44118  1  0  0  0
 45 46  2  0  0  0
 45119  1  0  0  0
 46120  1  0  0  0
 47121  1  0  0  0
 47122  1  0  0  0
 48 56  1  0  0  0
 48 65  1  0  0  0
 48123  1  0  0  0
 49 50  1  0  0  0
 49 53  1  0  0  0
 49 64  1  0  0  0
 49124  1  0  0  0
 50 51  1  0  0  0
 50125  1  0  0  0
 50126  1  0  0  0
 51 52  1  0  0  0
 51127  1  0  0  0
 51128  1  0  0  0
 52129  1  0  0  0
 52130  1  0  0  0
 53 54  1  0  0  0
 54 55  2  0  0  0
 54131  1  0  0  0
 55 57  1  0  0  0
 55132  1  0  0  0
 56 69  2  0  0  0
 57 58  2  0  0  0
 57133  1  0  0  0
 58134  1  0  0  0
 59 60  1  0  0  0
 59 61  1  0  0  0
 59 62  1  0  0  0
 60135  1  0  0  0
 60136  1  0  0  0
 60137  1  0  0  0
 61138  1  0  0  0
 61139  1  0  0  0
 61140  1  0  0  0
 62141  1  0  0  0
 62142  1  0  0  0
 62143  1  0  0  0
 63 65  1  0  0  0
 63144  1  0  0  0
 63145  1  0  0  0
 63146  1  0  0  0
 64147  1  0  0  0
 65148  1  0  0  0
 68 83  1  0  0  0
 71 72  2  0  0  0
 71 74  1  0  0  0
 71149  1  0  0  0
 72 75  1  0  0  0
 72150  1  0  0  0
 73 75  2  0  0  0
 73 76  1  0  0  0
 73151  1  0  0  0
 74 76  2  0  0  0
 74 79  1  0  0  0
 75 84  1  0  0  0
 76 89  1  0  0  0
 77 80  1  0  0  0
 77 84  1  0  0  0
 77 86  2  0  0  0
 78 82  1  0  0  0
 78 84  1  0  0  0
 78 87  2  0  0  0
 79 85  1  0  0  0
 79 88  2  0  0  0
 80 81  1  0  0  0
 80152  1  0  0  0
 80153  1  0  0  0
 81 82  1  0  0  0
 81154  1  0  0  0
 81155  1  0  0  0
 82 83  1  0  0  0
 82156  1  0  0  0
 83157  1  0  0  0
 83158  1  0  0  0
 85159  1  0  0  0
M  ISO  4   1 100  68 101  83 101  85 100
M  END
> <chiral flag>
0

> <version>
0

> <s_m_source_file>
/data/baiqing/PycharmProjects/Reinvent-master-3.2/result/LINK_invent/BTK/process_docking_weight1_custom_product_contain_oxygen_bond_distance_aromatic_linkinvent_7_9_3/rearranged_h_0095.sdf

> <i_m_source_file_index>
77

> <r_mmod_Potential_Energy-OPLS-2005>
35378.29296875

> <r_mmod_Stretch_Energy-OPLS-2005>
18236.74609375

> <r_mmod_Bend_Energy-OPLS-2005>
3638.38525390625

> <r_mmod_Torsional_Energy-OPLS-2005>
739.432861328125

> <r_mmod_Improper_Torsional_Energy-OPLS-2005>
62.1312141418457

> <r_mmod_Van_der_Waal_Energy-OPLS-2005>
4935.40625

> <r_mmod_Electrostatic_Energy-OPLS-2005>
-378.248016357422

> <r_mmod_Solvation_Energy-OPLS-2005>
-231.17658996582

> <b_mmod_Minimization_Converged-OPLS-2005>
0

> <r_mmod_RMS_Derivative-OPLS-2005>
16.2903747558594

$$$$
77
                    3D
 Structure written by MMmdl.
163172  0  0  1  0            999 V2000
  -30.6167  -14.6221   20.5042 C   0  0  0  0  0  0
  -30.4398  -12.3811   19.4455 C   0  0  0  0  0  0
  -29.5076  -12.5067   18.2188 C   0  0  0  0  0  0
  -28.0297  -12.3456   18.6287 C   0  0  0  0  0  0
  -27.6551  -13.2093   19.8629 C   0  0  2  0  0  0
  -28.6989  -13.0460   20.9914 C   0  0  0  0  0  0
  -25.2555  -13.8129   20.5594 C   0  0  0  0  0  0
  -24.1833  -13.0421   20.9172 C   0  0  0  0  0  0
  -24.6395  -11.6892   20.8741 C   0  0  0  0  0  0
  -23.9056  -10.4288   21.0407 C   0  0  0  0  0  0
  -24.3613   -9.4207   21.9180 C   0  0  0  0  0  0
  -23.6291   -8.2238   22.0749 C   0  0  0  0  0  0
  -22.4272   -8.0274   21.3539 C   0  0  0  0  0  0
  -21.9909   -9.0246   20.4637 C   0  0  0  0  0  0
  -22.7233  -10.2126   20.3050 C   0  0  0  0  0  0
  -21.6853   -6.0732   22.5280 C   0  0  0  0  0  0
  -21.4008   -6.5638   23.8211 C   0  0  0  0  0  0
  -21.3660   -5.6790   24.9174 C   0  0  0  0  0  0
  -21.6045   -4.3052   24.7227 C   0  0  0  0  0  0
  -21.8821   -3.8140   23.4349 C   0  0  0  0  0  0
  -21.9194   -4.6959   22.3406 C   0  0  0  0  0  0
  -22.7863  -13.5232   21.1840 C   0  0  0  0  0  0
  -22.1665   -4.2145   21.0984 F   0  0  0  0  0  0
  -21.5634   -3.4536   25.7741 F   0  0  0  0  0  0
  -30.0170  -13.3924   20.4335 N   0  0  0  0  0  0
  -26.2995  -12.9306   20.3288 N   0  0  0  0  0  0
  -25.9323  -11.6476   20.5753 N   0  0  0  0  0  0
  -22.0505  -12.8232   22.0401 N   0  0  0  0  0  0
  -25.4227  -15.1823   20.3859 N   0  0  0  0  0  0
  -31.7720  -14.7990   20.1044 O   0  0  0  0  0  0
  -21.6640   -6.8869   21.4239 O   0  0  0  0  0  0
  -22.3565  -14.5548   20.6697 O   0  0  0  0  0  0
  -24.6252  -31.8611   23.2041 C   0  0  0  0  0  0
  -25.9103  -32.4787   23.8363 C   0  0  1  0  0  0
  -27.2269  -27.3304   20.1077 C   0  0  0  0  0  0
  -25.5931  -33.8587   24.2300 N   0  0  0  0  0  0
  -23.4187  -30.4879   21.5448 C   0  0  2  0  0  0
  -24.8648  -28.9447   20.1108 C   0  0  0  0  0  0
  -22.7457  -29.4654   22.4917 C   0  0  0  0  0  0
  -18.0284  -28.1403   22.8491 C   0  0  0  0  0  0
  -24.1491  -36.7288   23.2638 C   0  0  0  0  0  0
  -25.9593  -30.7964   21.3722 C   0  0  0  0  0  0
  -26.0349  -29.4255   20.7122 C   0  0  0  0  0  0
  -27.2192  -28.6303   20.6998 C   0  0  0  0  0  0
  -26.0294  -26.9016   19.4868 C   0  0  0  0  0  0
  -24.8631  -27.6866   19.4911 C   0  0  0  0  0  0
  -23.6338  -29.8243   20.1599 C   0  0  0  0  0  0
  -25.4115  -36.3090   24.0339 C   0  0  1  0  0  0
  -20.5882  -28.3710   23.1272 C   0  0  2  0  0  0
  -20.6776  -26.9437   22.5399 C   0  0  0  0  0  0
  -19.5756  -26.6389   21.5204 C   0  0  0  0  0  0
  -18.1933  -26.7949   22.1615 C   0  0  0  0  0  0
  -19.1537  -28.8866   23.2888 C   0  0  0  0  0  0
  -18.9465  -30.1460   23.8916 C   0  0  0  0  0  0
  -17.6471  -30.6612   24.0564 C   0  0  0  0  0  0
  -25.9049  -34.9459   23.5120 C   0  0  0  0  0  0
  -16.5357  -29.9120   23.6332 C   0  0  0  0  0  0
  -16.7270  -28.6530   23.0366 C   0  0  0  0  0  0
  -26.4490  -31.6589   25.0720 C   0  0  0  0  0  0
  -25.3734  -31.3722   26.1451 C   0  0  0  0  0  0
  -27.0323  -30.3017   24.6155 C   0  0  0  0  0  0
  -27.6067  -32.4302   25.7488 C   0  0  0  0  0  0
  -27.5589  -37.1793   24.8463 C   0  0  0  0  0  0
  -21.4169  -29.3073   22.3659 N   0  0  0  0  0  0
  -26.4290  -37.3788   23.9426 N   0  0  0  0  0  0
  -24.6870  -31.0640   22.0979 N   0  0  0  0  0  0
  -23.4180  -28.8175   23.2985 O   0  0  0  0  0  0
  -28.3498  -26.4876   20.1490 O   0  0  0  0  0  0
  -26.5603  -34.8923   22.4672 O   0  0  0  0  0  0
  -23.5416  -32.1390   23.7388 O   0  0  0  0  0  0
  -28.9411  -19.3281   21.4342 C   0  0  0  0  0  0
  -30.7966  -17.8171   19.9814 C   0  0  0  0  0  0
  -28.9271  -17.9033   21.5056 C   0  0  0  0  0  0
  -29.8981  -20.0402   20.6701 C   0  0  0  0  0  0
  -29.8734  -17.1052   20.7962 C   0  0  0  0  0  0
  -30.8132  -19.2459   19.9148 C   0  0  0  0  0  0
  -31.0066  -21.9465   21.6460 C   0  0  0  0  0  0
  -31.1958  -23.4505   21.8981 C   0  0  0  0  0  0
  -29.9273  -24.2928   21.7232 C   0  0  0  0  0  0
  -28.9819  -22.4588   20.2871 C   0  0  0  0  0  0
  -29.3082  -24.0220   20.3567 C   0  0  1  0  0  0
  -27.8770  -17.2461   22.3860 C   0  0  0  0  0  0
  -28.1188  -25.0294   20.0511 C   0  0  0  0  0  0
  -30.0266  -21.4989   20.8104 N   0  0  0  0  0  0
  -31.7595  -19.8580   19.0906 N   0  0  0  0  0  0
  -29.8019  -15.6458   20.9057 N   0  0  0  0  0  0
  -31.8005  -21.1892   22.2171 O   0  0  0  0  0  0
  -31.4810  -12.5108   19.1439 H   0  0  0  0  0  0
  -30.3771  -11.3797   19.8760 H   0  0  0  0  0  0
  -29.7710  -11.7596   17.4683 H   0  0  0  0  0  0
  -29.6513  -13.4784   17.7438 H   0  0  0  0  0  0
  -27.8619  -11.2914   18.8503 H   0  0  0  0  0  0
  -27.3766  -12.5828   17.7882 H   0  0  0  0  0  0
  -27.6787  -14.2476   19.5323 H   0  0  0  0  0  0
  -28.7076  -12.0182   21.3576 H   0  0  0  0  0  0
  -28.4429  -13.6625   21.8544 H   0  0  0  0  0  0
  -25.2759   -9.5690   22.4751 H   0  0  0  0  0  0
  -24.0005   -7.4634   22.7470 H   0  0  0  0  0  0
  -21.0839   -8.8757   19.8946 H   0  0  0  0  0  0
  -22.3686  -10.9661   19.6156 H   0  0  0  0  0  0
  -21.1992   -7.6146   23.9712 H   0  0  0  0  0  0
  -21.1483   -6.0519   25.9075 H   0  0  0  0  0  0
  -22.0600   -2.7602   23.2844 H   0  0  0  0  0  0
  -22.4113  -11.9891   22.4787 H   0  0  0  0  0  0
  -21.1119  -13.1265   22.2599 H   0  0  0  0  0  0
  -24.6430  -15.8255   20.4592 H   0  0  0  0  0  0
  -26.2500  -15.6080   19.9881 H   0  0  0  0  0  0
  -26.7166  -32.5466   23.1111 H   0  0  0  0  0  0
  -25.0117  -33.9729   25.0470 H   0  0  0  0  0  0
  -22.7139  -31.3099   21.4016 H   0  0  0  0  0  0
  -23.3770  -35.9600   23.3274 H   0  0  0  0  0  0
  -24.3598  -36.8919   22.2056 H   0  0  0  0  0  0
  -23.7204  -37.6473   23.6657 H   0  0  0  0  0  0
  -26.0876  -31.5629   20.6063 H   0  0  0  0  0  0
  -26.8409  -30.8454   21.9999 H   0  0  0  0  0  0
  -28.1176  -28.9970   21.1765 H   0  0  0  0  0  0
  -25.9607  -25.9433   18.9954 H   0  0  0  0  0  0
  -23.9658  -27.3113   19.0180 H   0  0  0  0  0  0
  -23.7554  -30.6013   19.4040 H   0  0  0  0  0  0
  -22.7536  -29.2547   19.8564 H   0  0  0  0  0  0
  -25.1294  -36.1942   25.0831 H   0  0  0  0  0  0
  -20.9989  -28.3288   24.1388 H   0  0  0  0  0  0
  -20.5673  -26.2330   23.3602 H   0  0  0  0  0  0
  -21.6647  -26.7479   22.1188 H   0  0  0  0  0  0
  -19.6926  -25.6292   21.1256 H   0  0  0  0  0  0
  -19.6702  -27.3177   20.6718 H   0  0  0  0  0  0
  -17.4203  -26.6689   21.4016 H   0  0  0  0  0  0
  -18.0348  -26.0098   22.9018 H   0  0  0  0  0  0
  -19.7941  -30.7260   24.2308 H   0  0  0  0  0  0
  -17.5039  -31.6305   24.5149 H   0  0  0  0  0  0
  -15.5366  -30.3042   23.7656 H   0  0  0  0  0  0
  -15.8658  -28.0853   22.7100 H   0  0  0  0  0  0
  -24.5941  -30.7027   25.7786 H   0  0  0  0  0  0
  -24.8883  -32.2879   26.4843 H   0  0  0  0  0  0
  -25.8070  -30.8935   27.0242 H   0  0  0  0  0  0
  -26.2887  -29.6766   24.1193 H   0  0  0  0  0  0
  -27.4044  -29.7270   25.4645 H   0  0  0  0  0  0
  -27.8749  -30.4308   23.9359 H   0  0  0  0  0  0
  -27.2718  -33.3634   26.2032 H   0  0  0  0  0  0
  -28.3904  -32.6794   25.0321 H   0  0  0  0  0  0
  -28.0698  -31.8429   26.5425 H   0  0  0  0  0  0
  -28.2575  -38.0123   24.7566 H   0  0  0  0  0  0
  -28.1114  -36.2657   24.6218 H   0  0  0  0  0  0
  -27.2319  -37.1351   25.8867 H   0  0  0  0  0  0
  -20.9326  -29.8832   21.6910 H   0  0  0  0  0  0
  -26.0173  -38.2856   24.1457 H   0  0  0  0  0  0
  -28.2331  -19.8922   22.0247 H   0  0  0  0  0  0
  -31.5128  -17.2591   19.3953 H   0  0  0  0  0  0
  -31.9690  -23.8040   21.2157 H   0  0  0  0  0  0
  -31.5888  -23.5935   22.9052 H   0  0  0  0  0  0
  -30.1771  -25.3500   21.8211 H   0  0  0  0  0  0
  -29.2109  -24.0680   22.5143 H   0  0  0  0  0  0
  -28.7539  -22.1873   19.2556 H   0  0  0  0  0  0
  -28.0675  -22.2681   20.8505 H   0  0  0  0  0  0
  -30.0738  -24.2253   19.6058 H   0  0  0  0  0  0
  -27.4232  -17.9657   23.0680 H   0  0  0  0  0  0
  -28.3030  -16.4484   22.9950 H   0  0  0  0  0  0
  -27.0811  -16.8269   21.7731 H   0  0  0  0  0  0
  -27.2914  -24.7731   20.7158 H   0  0  0  0  0  0
  -27.7840  -24.8068   19.0381 H   0  0  0  0  0  0
  -32.5510  -19.3103   18.7677 H   0  0  0  0  0  0
  -31.9957  -20.8292   19.2589 H   0  0  0  0  0  0
  -28.9336  -15.3048   21.2856 H   0  0  0  0  0  0
  1 25  1  0  0  0
  1 30  2  0  0  0
  1 86  1  0  0  0
  2  3  1  0  0  0
  2 25  1  0  0  0
  2 88  1  0  0  0
  2 89  1  0  0  0
  3  4  1  0  0  0
  3 90  1  0  0  0
  3 91  1  0  0  0
  4  5  1  0  0  0
  4 92  1  0  0  0
  4 93  1  0  0  0
  5  6  1  0  0  0
  5 26  1  0  0  0
  5 94  1  0  0  0
  6 25  1  0  0  0
  6 95  1  0  0  0
  6 96  1  0  0  0
  7  8  2  0  0  0
  7 26  1  0  0  0
  7 29  1  0  0  0
  8  9  1  0  0  0
  8 22  1  0  0  0
  9 10  1  0  0  0
  9 27  2  0  0  0
 10 11  2  0  0  0
 10 15  1  0  0  0
 11 12  1  0  0  0
 11 97  1  0  0  0
 12 13  2  0  0  0
 12 98  1  0  0  0
 13 14  1  0  0  0
 13 31  1  0  0  0
 14 15  2  0  0  0
 14 99  1  0  0  0
 15100  1  0  0  0
 16 17  2  0  0  0
 16 21  1  0  0  0
 16 31  1  0  0  0
 17 18  1  0  0  0
 17101  1  0  0  0
 18 19  2  0  0  0
 18102  1  0  0  0
 19 20  1  0  0  0
 19 24  1  0  0  0
 20 21  2  0  0  0
 20103  1  0  0  0
 21 23  1  0  0  0
 22 28  1  0  0  0
 22 32  2  0  0  0
 26 27  1  0  0  0
 28104  1  0  0  0
 28105  1  0  0  0
 29106  1  0  0  0
 29107  1  0  0  0
 33 34  1  0  0  0
 33 66  1  0  0  0
 33 70  2  0  0  0
 34 36  1  0  0  0
 34 59  1  0  0  0
 34108  1  0  0  0
 35 44  2  0  0  0
 35 45  1  0  0  0
 35 68  1  0  0  0
 36 56  1  0  0  0
 36109  1  0  0  0
 37 39  1  0  0  0
 37 47  1  0  0  0
 37 66  1  0  0  0
 37110  1  0  0  0
 38 43  2  0  0  0
 38 46  1  0  0  0
 38 47  1  0  0  0
 39 64  1  0  0  0
 39 67  2  0  0  0
 40 52  1  0  0  0
 40 53  2  0  0  0
 40 58  1  0  0  0
 41111  1  0  0  0
 41112  1  0  0  0
 41113  1  0  0  0
 41 48  1  0  0  0
 42 43  1  0  0  0
 42 66  1  0  0  0
 42114  1  0  0  0
 42115  1  0  0  0
 43 44  1  0  0  0
 44116  1  0  0  0
 45 46  2  0  0  0
 45117  1  0  0  0
 46118  1  0  0  0
 47119  1  0  0  0
 47120  1  0  0  0
 48 56  1  0  0  0
 48 65  1  0  0  0
 48121  1  0  0  0
 49 50  1  0  0  0
 49 53  1  0  0  0
 49 64  1  0  0  0
 49122  1  0  0  0
 50 51  1  0  0  0
 50123  1  0  0  0
 50124  1  0  0  0
 51 52  1  0  0  0
 51125  1  0  0  0
 51126  1  0  0  0
 52127  1  0  0  0
 52128  1  0  0  0
 53 54  1  0  0  0
 54 55  2  0  0  0
 54129  1  0  0  0
 55 57  1  0  0  0
 55130  1  0  0  0
 56 69  2  0  0  0
 57 58  2  0  0  0
 57131  1  0  0  0
 58132  1  0  0  0
 59 60  1  0  0  0
 59 61  1  0  0  0
 59 62  1  0  0  0
 60133  1  0  0  0
 60134  1  0  0  0
 60135  1  0  0  0
 61136  1  0  0  0
 61137  1  0  0  0
 61138  1  0  0  0
 62139  1  0  0  0
 62140  1  0  0  0
 62141  1  0  0  0
 63 65  1  0  0  0
 63142  1  0  0  0
 63143  1  0  0  0
 63144  1  0  0  0
 64145  1  0  0  0
 65146  1  0  0  0
 68 83  1  0  0  0
 71 73  2  0  0  0
 71 74  1  0  0  0
 71147  1  0  0  0
 72 75  2  0  0  0
 72 76  1  0  0  0
 72148  1  0  0  0
 73 75  1  0  0  0
 73 82  1  0  0  0
 74 76  2  0  0  0
 74 84  1  0  0  0
 75 86  1  0  0  0
 76 85  1  0  0  0
 77 78  1  0  0  0
 77 84  1  0  0  0
 77 87  2  0  0  0
 78 79  1  0  0  0
 78149  1  0  0  0
 78150  1  0  0  0
 79 81  1  0  0  0
 79151  1  0  0  0
 79152  1  0  0  0
 80 81  1  0  0  0
 80 84  1  0  0  0
 80153  1  0  0  0
 80154  1  0  0  0
 81 83  1  0  0  0
 81155  1  0  0  0
 82156  1  0  0  0
 82157  1  0  0  0
 82158  1  0  0  0
 83159  1  0  0  0
 83160  1  0  0  0
 85161  1  0  0  0
 85162  1  0  0  0
 86163  1  0  0  0
M  ISO  4   1 100  68 101  83 101  86 100
M  END
> <chiral flag>
0

> <version>
0

> <s_m_source_file>
/data/baiqing/PycharmProjects/Reinvent-master-3.2/result/LINK_invent/BTK/process_docking_weight1_custom_product_contain_oxygen_bond_distance_aromatic_linkinvent_7_9_3/rearranged_h_0095.sdf

> <i_m_source_file_index>
78

> <r_mmod_Potential_Energy-OPLS-2005>
102.508750915527

> <r_mmod_Stretch_Energy-OPLS-2005>
83.3460464477539

> <r_mmod_Bend_Energy-OPLS-2005>
139.341247558594

> <r_mmod_Torsional_Energy-OPLS-2005>
291.939819335938

> <r_mmod_Improper_Torsional_Energy-OPLS-2005>
8.03039455413818

> <r_mmod_Van_der_Waal_Energy-OPLS-2005>
155.188766479492

> <r_mmod_Electrostatic_Energy-OPLS-2005>
-386.425231933594

> <r_mmod_Solvation_Energy-OPLS-2005>
-232.069290161133

> <b_mmod_Minimization_Converged-OPLS-2005>
0

> <r_mmod_RMS_Derivative-OPLS-2005>
1.27323138713837

$$$$
78
                    3D
 Structure written by MMmdl.
153161  0  0  1  0            999 V2000
  -30.7324  -14.4652   20.6073 C   0  0  0  0  0  0
  -30.4015  -12.3245   19.4191 C   0  0  0  0  0  0
  -29.4840  -12.5299   18.1997 C   0  0  0  0  0  0
  -28.0051  -12.3910   18.6097 C   0  0  0  0  0  0
  -27.6493  -13.2226   19.8706 C   0  0  2  0  0  0
  -28.6901  -13.0313   20.9963 C   0  0  0  0  0  0
  -25.2511  -13.8183   20.5676 C   0  0  0  0  0  0
  -24.1803  -13.0441   20.9211 C   0  0  0  0  0  0
  -24.6369  -11.6917   20.8743 C   0  0  0  0  0  0
  -23.9042  -10.4297   21.0410 C   0  0  0  0  0  0
  -24.3601   -9.4222   21.9193 C   0  0  0  0  0  0
  -23.6290   -8.2255   22.0757 C   0  0  0  0  0  0
  -22.4272   -8.0294   21.3548 C   0  0  0  0  0  0
  -21.9900   -9.0256   20.4645 C   0  0  0  0  0  0
  -22.7214  -10.2138   20.3060 C   0  0  0  0  0  0
  -21.6854   -6.0749   22.5275 C   0  0  0  0  0  0
  -21.4025   -6.5657   23.8210 C   0  0  0  0  0  0
  -21.3664   -5.6802   24.9167 C   0  0  0  0  0  0
  -21.6036   -4.3061   24.7212 C   0  0  0  0  0  0
  -21.8825   -3.8157   23.4338 C   0  0  0  0  0  0
  -21.9194   -4.6974   22.3396 C   0  0  0  0  0  0
  -22.7841  -13.5243   21.1882 C   0  0  0  0  0  0
  -22.1664   -4.2166   21.0967 F   0  0  0  0  0  0
  -21.5621   -3.4545   25.7726 F   0  0  0  0  0  0
  -30.0131  -13.3228   20.4299 N   0  0  0  0  0  0
  -26.2950  -12.9389   20.3338 N   0  0  0  0  0  0
  -25.9297  -11.6530   20.5742 N   0  0  0  0  0  0
  -22.0492  -12.8203   22.0415 N   0  0  0  0  0  0
  -25.4142  -15.1903   20.4043 N   0  0  0  0  0  0
  -31.8762  -14.5729   20.1545 O   0  0  0  0  0  0
  -21.6642   -6.8890   21.4238 O   0  0  0  0  0  0
  -22.3535  -14.5564   20.6750 O   0  0  0  0  0  0
  -24.6156  -31.8685   23.2155 C   0  0  0  0  0  0
  -25.9064  -32.4824   23.8429 C   0  0  1  0  0  0
  -27.2278  -27.4404   20.0859 C   0  0  0  0  0  0
  -25.5931  -33.8631   24.2349 N   0  0  0  0  0  0
  -23.3980  -30.4956   21.5565 C   0  0  2  0  0  0
  -24.8395  -28.9610   20.1193 C   0  0  0  0  0  0
  -22.7379  -29.4685   22.5036 C   0  0  0  0  0  0
  -18.0262  -28.1361   22.8504 C   0  0  0  0  0  0
  -24.1479  -36.7313   23.2636 C   0  0  0  0  0  0
  -25.9260  -30.8361   21.3646 C   0  0  0  0  0  0
  -26.0007  -29.4714   20.7106 C   0  0  0  0  0  0
  -27.1959  -28.7190   20.6885 C   0  0  0  0  0  0
  -26.0446  -26.9461   19.4879 C   0  0  0  0  0  0
  -24.8555  -27.6962   19.5078 C   0  0  0  0  0  0
  -23.6028  -29.8272   20.1717 C   0  0  0  0  0  0
  -25.4114  -36.3133   24.0335 C   0  0  1  0  0  0
  -20.5840  -28.3649   23.1327 C   0  0  2  0  0  0
  -20.6741  -26.9383   22.5421 C   0  0  0  0  0  0
  -19.5711  -26.6375   21.5218 C   0  0  0  0  0  0
  -18.1897  -26.7908   22.1629 C   0  0  0  0  0  0
  -19.1510  -28.8827   23.2910 C   0  0  0  0  0  0
  -18.9446  -30.1453   23.8886 C   0  0  0  0  0  0
  -17.6444  -30.6559   24.0585 C   0  0  0  0  0  0
  -25.9039  -34.9485   23.5135 C   0  0  0  0  0  0
  -16.5340  -29.9059   23.6342 C   0  0  0  0  0  0
  -16.7258  -28.6491   23.0339 C   0  0  0  0  0  0
  -26.4474  -31.6612   25.0768 C   0  0  0  0  0  0
  -25.3756  -31.3687   26.1523 C   0  0  0  0  0  0
  -27.0307  -30.3058   24.6163 C   0  0  0  0  0  0
  -27.6075  -32.4316   25.7520 C   0  0  0  0  0  0
  -27.5578  -37.1829   24.8479 C   0  0  0  0  0  0
  -21.4121  -29.3019   22.3746 N   0  0  0  0  0  0
  -26.4301  -37.3821   23.9412 N   0  0  0  0  0  0
  -24.6649  -31.0798   22.1046 N   0  0  0  0  0  0
  -23.4153  -28.8251   23.3091 O   0  0  0  0  0  0
  -28.4127  -26.7313   20.1217 O   0  0  0  0  0  0
  -26.5578  -34.8932   22.4684 O   0  0  0  0  0  0
  -23.5363  -32.1428   23.7574 O   0  0  0  0  0  0
  -30.7156  -19.1553   21.2533 C   0  0  0  0  0  0
  -30.1182  -20.4199   21.0760 C   0  0  0  0  0  0
  -28.5300  -18.1049   21.3680 C   0  0  0  0  0  0
  -29.9385  -17.9780   21.3921 C   0  0  0  0  0  0
  -28.7120  -20.5484   21.0435 C   0  0  0  0  0  0
  -27.9288  -19.3759   21.1946 C   0  0  0  0  0  0
  -30.6528  -16.6550   21.5810 C   0  0  0  0  0  0
  -28.0089  -24.2774   20.3764 C   0  0  0  0  0  0
  -28.7099  -22.9145   20.1850 C   0  0  0  0  0  0
  -28.5084  -25.4422   19.4894 C   0  0  0  0  0  0
  -28.0640  -21.7912   20.8863 N   0  0  0  0  0  0
  -30.0670  -15.5241   21.1273 N   0  0  0  0  0  0
  -31.7830  -16.6704   22.0830 O   0  0  0  0  0  0
  -27.0835  -24.4124   21.1875 O   0  0  0  0  0  0
  -26.5762  -19.4725   21.1681 F   0  0  0  0  0  0
  -31.4472  -12.4062   19.1195 H   0  0  0  0  0  0
  -30.2865  -11.3169   19.8219 H   0  0  0  0  0  0
  -29.7274  -11.8156   17.4124 H   0  0  0  0  0  0
  -29.6542  -13.5205   17.7754 H   0  0  0  0  0  0
  -27.8053  -11.3346   18.7879 H   0  0  0  0  0  0
  -27.3610  -12.6847   17.7801 H   0  0  0  0  0  0
  -27.6778  -14.2702   19.5718 H   0  0  0  0  0  0
  -28.6677  -12.0096   21.3761 H   0  0  0  0  0  0
  -28.4556  -13.6673   21.8514 H   0  0  0  0  0  0
  -25.2726   -9.5727   22.4776 H   0  0  0  0  0  0
  -24.0011   -7.4660   22.7483 H   0  0  0  0  0  0
  -21.0837   -8.8778   19.8948 H   0  0  0  0  0  0
  -22.3670  -10.9694   19.6189 H   0  0  0  0  0  0
  -21.2036   -7.6165   23.9716 H   0  0  0  0  0  0
  -21.1481   -6.0535   25.9071 H   0  0  0  0  0  0
  -22.0599   -2.7626   23.2827 H   0  0  0  0  0  0
  -22.4120  -11.9833   22.4729 H   0  0  0  0  0  0
  -21.1125  -13.1246   22.2671 H   0  0  0  0  0  0
  -24.6225  -15.8228   20.4685 H   0  0  0  0  0  0
  -26.2340  -15.6254   20.0000 H   0  0  0  0  0  0
  -26.7138  -32.5517   23.1197 H   0  0  0  0  0  0
  -25.0177  -33.9807   25.0555 H   0  0  0  0  0  0
  -22.6875  -31.3135   21.4212 H   0  0  0  0  0  0
  -23.3770  -35.9612   23.3303 H   0  0  0  0  0  0
  -24.3537  -36.8939   22.2041 H   0  0  0  0  0  0
  -23.7197  -37.6501   23.6653 H   0  0  0  0  0  0
  -26.0335  -31.6053   20.5970 H   0  0  0  0  0  0
  -26.8151  -30.8855   21.9825 H   0  0  0  0  0  0
  -28.0968  -29.1141   21.1383 H   0  0  0  0  0  0
  -26.0069  -25.9794   19.0088 H   0  0  0  0  0  0
  -23.9599  -27.2916   19.0547 H   0  0  0  0  0  0
  -23.7096  -30.5999   19.4104 H   0  0  0  0  0  0
  -22.7240  -29.2485   19.8803 H   0  0  0  0  0  0
  -25.1290  -36.1988   25.0828 H   0  0  0  0  0  0
  -20.9938  -28.3204   24.1441 H   0  0  0  0  0  0
  -20.5613  -26.2259   23.3614 H   0  0  0  0  0  0
  -21.6610  -26.7378   22.1237 H   0  0  0  0  0  0
  -19.6857  -25.6283   21.1240 H   0  0  0  0  0  0
  -19.6641  -27.3203   20.6762 H   0  0  0  0  0  0
  -17.4158  -26.6692   21.4032 H   0  0  0  0  0  0
  -18.0281  -26.0011   22.8995 H   0  0  0  0  0  0
  -19.7919  -30.7327   24.2178 H   0  0  0  0  0  0
  -17.4980  -31.6211   24.5236 H   0  0  0  0  0  0
  -15.5343  -30.2969   23.7648 H   0  0  0  0  0  0
  -15.8661  -28.0854   22.6993 H   0  0  0  0  0  0
  -24.6006  -30.6922   25.7888 H   0  0  0  0  0  0
  -24.8846  -32.2805   26.4930 H   0  0  0  0  0  0
  -25.8150  -30.8936   27.0312 H   0  0  0  0  0  0
  -26.2851  -29.6817   24.1221 H   0  0  0  0  0  0
  -27.4066  -29.7301   25.4639 H   0  0  0  0  0  0
  -27.8692  -30.4384   23.9323 H   0  0  0  0  0  0
  -27.2762  -33.3688   26.2006 H   0  0  0  0  0  0
  -28.3921  -32.6740   25.0336 H   0  0  0  0  0  0
  -28.0676  -31.8469   26.5499 H   0  0  0  0  0  0
  -28.2635  -38.0095   24.7501 H   0  0  0  0  0  0
  -28.1047  -36.2624   24.6362 H   0  0  0  0  0  0
  -27.2272  -37.1541   25.8880 H   0  0  0  0  0  0
  -20.9268  -29.8787   21.7019 H   0  0  0  0  0  0
  -26.0199  -38.2897   24.1434 H   0  0  0  0  0  0
  -31.7961  -19.0961   21.2837 H   0  0  0  0  0  0
  -30.7688  -21.2764   20.9842 H   0  0  0  0  0  0
  -27.8907  -17.2431   21.4855 H   0  0  0  0  0  0
  -29.7384  -23.0433   20.5206 H   0  0  0  0  0  0
  -28.7512  -22.6998   19.1156 H   0  0  0  0  0  0
  -27.9999  -25.4335   18.5266 H   0  0  0  0  0  0
  -29.5615  -25.2629   19.2733 H   0  0  0  0  0  0
  -27.0505  -21.7520   20.8114 H   0  0  0  0  0  0
  -29.0650  -15.4987   21.0827 H   0  0  0  0  0  0
  1 25  1  0  0  0
  1 30  2  0  0  0
  1 82  1  0  0  0
  2  3  1  0  0  0
  2 25  1  0  0  0
  2 86  1  0  0  0
  2 87  1  0  0  0
  3  4  1  0  0  0
  3 88  1  0  0  0
  3 89  1  0  0  0
  4  5  1  0  0  0
  4 90  1  0  0  0
  4 91  1  0  0  0
  5  6  1  0  0  0
  5 26  1  0  0  0
  5 92  1  0  0  0
  6 25  1  0  0  0
  6 93  1  0  0  0
  6 94  1  0  0  0
  7  8  2  0  0  0
  7 26  1  0  0  0
  7 29  1  0  0  0
  8  9  1  0  0  0
  8 22  1  0  0  0
  9 10  1  0  0  0
  9 27  2  0  0  0
 10 11  2  0  0  0
 10 15  1  0  0  0
 11 12  1  0  0  0
 11 95  1  0  0  0
 12 13  2  0  0  0
 12 96  1  0  0  0
 13 14  1  0  0  0
 13 31  1  0  0  0
 14 15  2  0  0  0
 14 97  1  0  0  0
 15 98  1  0  0  0
 16 17  2  0  0  0
 16 21  1  0  0  0
 16 31  1  0  0  0
 17 18  1  0  0  0
 17 99  1  0  0  0
 18 19  2  0  0  0
 18100  1  0  0  0
 19 20  1  0  0  0
 19 24  1  0  0  0
 20 21  2  0  0  0
 20101  1  0  0  0
 21 23  1  0  0  0
 22 28  1  0  0  0
 22 32  2  0  0  0
 26 27  1  0  0  0
 28102  1  0  0  0
 28103  1  0  0  0
 29104  1  0  0  0
 29105  1  0  0  0
 33 34  1  0  0  0
 33 66  1  0  0  0
 33 70  2  0  0  0
 34 36  1  0  0  0
 34 59  1  0  0  0
 34106  1  0  0  0
 35 44  2  0  0  0
 35 45  1  0  0  0
 35 68  1  0  0  0
 36 56  1  0  0  0
 36107  1  0  0  0
 37 39  1  0  0  0
 37 47  1  0  0  0
 37 66  1  0  0  0
 37108  1  0  0  0
 38 43  2  0  0  0
 38 46  1  0  0  0
 38 47  1  0  0  0
 39 64  1  0  0  0
 39 67  2  0  0  0
 40 52  1  0  0  0
 40 53  2  0  0  0
 40 58  1  0  0  0
 41109  1  0  0  0
 41110  1  0  0  0
 41111  1  0  0  0
 41 48  1  0  0  0
 42 43  1  0  0  0
 42 66  1  0  0  0
 42112  1  0  0  0
 42113  1  0  0  0
 43 44  1  0  0  0
 44114  1  0  0  0
 45 46  2  0  0  0
 45115  1  0  0  0
 46116  1  0  0  0
 47117  1  0  0  0
 47118  1  0  0  0
 48 56  1  0  0  0
 48 65  1  0  0  0
 48119  1  0  0  0
 49 50  1  0  0  0
 49 53  1  0  0  0
 49 64  1  0  0  0
 49120  1  0  0  0
 50 51  1  0  0  0
 50121  1  0  0  0
 50122  1  0  0  0
 51 52  1  0  0  0
 51123  1  0  0  0
 51124  1  0  0  0
 52125  1  0  0  0
 52126  1  0  0  0
 53 54  1  0  0  0
 54 55  2  0  0  0
 54127  1  0  0  0
 55 57  1  0  0  0
 55128  1  0  0  0
 56 69  2  0  0  0
 57 58  2  0  0  0
 57129  1  0  0  0
 58130  1  0  0  0
 59 60  1  0  0  0
 59 61  1  0  0  0
 59 62  1  0  0  0
 60131  1  0  0  0
 60132  1  0  0  0
 60133  1  0  0  0
 61134  1  0  0  0
 61135  1  0  0  0
 61136  1  0  0  0
 62137  1  0  0  0
 62138  1  0  0  0
 62139  1  0  0  0
 63 65  1  0  0  0
 63140  1  0  0  0
 63141  1  0  0  0
 63142  1  0  0  0
 64143  1  0  0  0
 65144  1  0  0  0
 68 80  1  0  0  0
 71 72  2  0  0  0
 71 74  1  0  0  0
 71145  1  0  0  0
 72 75  1  0  0  0
 72146  1  0  0  0
 73 74  2  0  0  0
 73 76  1  0  0  0
 73147  1  0  0  0
 74 77  1  0  0  0
 75 76  2  0  0  0
 75 81  1  0  0  0
 76 85  1  0  0  0
 77 82  1  0  0  0
 77 83  2  0  0  0
 78 79  1  0  0  0
 78 80  1  0  0  0
 78 84  2  0  0  0
 79 81  1  0  0  0
 79148  1  0  0  0
 79149  1  0  0  0
 80150  1  0  0  0
 80151  1  0  0  0
 81152  1  0  0  0
 82153  1  0  0  0
M  ISO  4   1 100  68 101  80 101  82 100
M  END
> <chiral flag>
0

> <version>
0

> <s_m_source_file>
/data/baiqing/PycharmProjects/Reinvent-master-3.2/result/LINK_invent/BTK/process_docking_weight1_custom_product_contain_oxygen_bond_distance_aromatic_linkinvent_7_9_3/rearranged_h_0095.sdf

> <i_m_source_file_index>
79

> <r_mmod_Potential_Energy-OPLS-2005>
-78.5310211181641

> <r_mmod_Stretch_Energy-OPLS-2005>
39.012264251709

> <r_mmod_Bend_Energy-OPLS-2005>
110.085609436035

> <r_mmod_Torsional_Energy-OPLS-2005>
220.052520751953

> <r_mmod_Improper_Torsional_Energy-OPLS-2005>
7.1029109954834

> <r_mmod_Van_der_Waal_Energy-OPLS-2005>
165.184036254883

> <r_mmod_Electrostatic_Energy-OPLS-2005>
-383.496154785156

> <r_mmod_Solvation_Energy-OPLS-2005>
-251.941345214844

> <b_mmod_Minimization_Converged-OPLS-2005>
0

> <r_mmod_RMS_Derivative-OPLS-2005>
2.96010279655457

$$$$
79
                    3D
 Structure written by MMmdl.
153161  0  0  1  0            999 V2000
  -30.7133  -14.6478   20.4997 C   0  0  0  0  0  0
  -30.4126  -12.4110   19.4508 C   0  0  0  0  0  0
  -29.4925  -12.4959   18.2185 C   0  0  0  0  0  0
  -28.0211  -12.3340   18.6413 C   0  0  0  0  0  0
  -27.6400  -13.2350   19.8475 C   0  0  2  0  0  0
  -28.6919  -13.1718   20.9767 C   0  0  0  0  0  0
  -25.2505  -13.8219   20.5719 C   0  0  0  0  0  0
  -24.1797  -13.0451   20.9204 C   0  0  0  0  0  0
  -24.6395  -11.6931   20.8752 C   0  0  0  0  0  0
  -23.9077  -10.4299   21.0407 C   0  0  0  0  0  0
  -24.3624   -9.4212   21.9183 C   0  0  0  0  0  0
  -23.6299   -8.2246   22.0755 C   0  0  0  0  0  0
  -22.4283   -8.0283   21.3547 C   0  0  0  0  0  0
  -21.9918   -9.0256   20.4648 C   0  0  0  0  0  0
  -22.7249  -10.2135   20.3055 C   0  0  0  0  0  0
  -21.6857   -6.0735   22.5280 C   0  0  0  0  0  0
  -21.4013   -6.5638   23.8212 C   0  0  0  0  0  0
  -21.3657   -5.6789   24.9176 C   0  0  0  0  0  0
  -21.6045   -4.3053   24.7228 C   0  0  0  0  0  0
  -21.8820   -3.8147   23.4349 C   0  0  0  0  0  0
  -21.9192   -4.6962   22.3403 C   0  0  0  0  0  0
  -22.7814  -13.5222   21.1861 C   0  0  0  0  0  0
  -22.1662   -4.2144   21.0982 F   0  0  0  0  0  0
  -21.5626   -3.4536   25.7741 F   0  0  0  0  0  0
  -29.9948  -13.4842   20.3783 N   0  0  0  0  0  0
  -26.2941  -12.9434   20.3313 N   0  0  0  0  0  0
  -25.9330  -11.6574   20.5781 N   0  0  0  0  0  0
  -22.0463  -12.8203   22.0416 N   0  0  0  0  0  0
  -25.4192  -15.1944   20.4169 N   0  0  0  0  0  0
  -31.9067  -14.6434   20.1884 O   0  0  0  0  0  0
  -21.6649   -6.8878   21.4243 O   0  0  0  0  0  0
  -22.3490  -14.5519   20.6705 O   0  0  0  0  0  0
  -24.6285  -31.8610   23.2060 C   0  0  0  0  0  0
  -25.9132  -32.4783   23.8378 C   0  0  1  0  0  0
  -27.2047  -27.3035   20.1098 C   0  0  0  0  0  0
  -25.5955  -33.8581   24.2304 N   0  0  0  0  0  0
  -23.4205  -30.4903   21.5499 C   0  0  2  0  0  0
  -24.8627  -28.9550   20.1083 C   0  0  0  0  0  0
  -22.7483  -29.4641   22.4934 C   0  0  0  0  0  0
  -18.0287  -28.1378   22.8491 C   0  0  0  0  0  0
  -24.1494  -36.7284   23.2633 C   0  0  0  0  0  0
  -25.9659  -30.7868   21.3815 C   0  0  0  0  0  0
  -26.0364  -29.4162   20.7183 C   0  0  0  0  0  0
  -27.2115  -28.6015   20.7140 C   0  0  0  0  0  0
  -26.0071  -26.9189   19.4560 C   0  0  0  0  0  0
  -24.8511  -27.7121   19.4679 C   0  0  0  0  0  0
  -23.6337  -29.8359   20.1622 C   0  0  0  0  0  0
  -25.4115  -36.3084   24.0333 C   0  0  1  0  0  0
  -20.5891  -28.3693   23.1268 C   0  0  2  0  0  0
  -20.6775  -26.9415   22.5399 C   0  0  0  0  0  0
  -19.5752  -26.6385   21.5204 C   0  0  0  0  0  0
  -18.1932  -26.7924   22.1620 C   0  0  0  0  0  0
  -19.1539  -28.8852   23.2876 C   0  0  0  0  0  0
  -18.9462  -30.1452   23.8892 C   0  0  0  0  0  0
  -17.6462  -30.6583   24.0557 C   0  0  0  0  0  0
  -25.9059  -34.9452   23.5115 C   0  0  0  0  0  0
  -16.5354  -29.9080   23.6327 C   0  0  0  0  0  0
  -16.7275  -28.6494   23.0361 C   0  0  0  0  0  0
  -26.4510  -31.6582   25.0742 C   0  0  0  0  0  0
  -25.3743  -31.3719   26.1468 C   0  0  0  0  0  0
  -27.0337  -30.3000   24.6194 C   0  0  0  0  0  0
  -27.6074  -32.4310   25.7507 C   0  0  0  0  0  0
  -27.5583  -37.1792   24.8456 C   0  0  0  0  0  0
  -21.4197  -29.3050   22.3669 N   0  0  0  0  0  0
  -26.4284  -37.3786   23.9418 N   0  0  0  0  0  0
  -24.6908  -31.0616   22.1024 N   0  0  0  0  0  0
  -23.4205  -28.8166   23.3004 O   0  0  0  0  0  0
  -28.2847  -26.3982   20.1804 O   0  0  0  0  0  0
  -26.5612  -34.8919   22.4671 O   0  0  0  0  0  0
  -23.5444  -32.1413   23.7382 O   0  0  0  0  0  0
  -30.3730  -20.8947   20.2894 C   0  0  0  0  0  0
  -28.1783  -20.0774   20.7955 C   0  0  0  0  0  0
  -30.0548  -18.4390   20.7417 C   0  0  0  0  0  0
  -30.8871  -19.5640   20.3877 C   0  0  0  0  0  0
  -29.0086  -21.1969   20.5015 C   0  0  0  0  0  0
  -28.6785  -18.7427   20.9221 C   0  0  0  0  0  0
  -30.6574  -17.0371   21.0459 C   0  0  0  0  0  0
  -28.9352  -23.8122   20.3402 C   0  0  0  0  0  0
  -32.3736  -19.4056   20.0875 C   0  0  0  0  0  0
  -27.9269  -24.9676   19.9615 C   0  0  0  0  0  0
  -28.4230  -22.5348   20.3555 N   0  0  0  0  0  0
  -30.0542  -15.8419   20.7153 N   0  0  0  0  0  0
  -31.7531  -17.0382   21.6215 O   0  0  0  0  0  0
  -30.1136  -24.0711   20.6012 O   0  0  0  0  0  0
  -27.8126  -17.7482   21.2375 F   0  0  0  0  0  0
  -31.4555  -12.4935   19.1403 H   0  0  0  0  0  0
  -30.3245  -11.4363   19.9333 H   0  0  0  0  0  0
  -29.7600  -11.7269   17.4927 H   0  0  0  0  0  0
  -29.6312  -13.4550   17.7167 H   0  0  0  0  0  0
  -27.8709  -11.2856   18.9021 H   0  0  0  0  0  0
  -27.3599  -12.5332   17.7973 H   0  0  0  0  0  0
  -27.6345  -14.2564   19.4667 H   0  0  0  0  0  0
  -28.7128  -12.1827   21.4367 H   0  0  0  0  0  0
  -28.4464  -13.8780   21.7719 H   0  0  0  0  0  0
  -25.2767   -9.5689   22.4755 H   0  0  0  0  0  0
  -24.0008   -7.4639   22.7475 H   0  0  0  0  0  0
  -21.0846   -8.8777   19.8955 H   0  0  0  0  0  0
  -22.3708  -10.9670   19.6160 H   0  0  0  0  0  0
  -21.2007   -7.6145   23.9714 H   0  0  0  0  0  0
  -21.1474   -6.0521   25.9077 H   0  0  0  0  0  0
  -22.0597   -2.7608   23.2853 H   0  0  0  0  0  0
  -22.4082  -11.9863   22.4797 H   0  0  0  0  0  0
  -21.1081  -13.1225   22.2629 H   0  0  0  0  0  0
  -24.6585  -15.8513   20.5499 H   0  0  0  0  0  0
  -26.2836  -15.6450   20.1462 H   0  0  0  0  0  0
  -26.7195  -32.5447   23.1120 H   0  0  0  0  0  0
  -25.0155  -33.9730   25.0486 H   0  0  0  0  0  0
  -22.7144  -31.3121   21.4128 H   0  0  0  0  0  0
  -23.3767  -35.9606   23.3286 H   0  0  0  0  0  0
  -24.3598  -36.8909   22.2050 H   0  0  0  0  0  0
  -23.7232  -37.6481   23.6651 H   0  0  0  0  0  0
  -26.1013  -31.5526   20.6164 H   0  0  0  0  0  0
  -26.8449  -30.8309   22.0129 H   0  0  0  0  0  0
  -28.1059  -28.9459   21.2139 H   0  0  0  0  0  0
  -25.9092  -25.9804   18.9331 H   0  0  0  0  0  0
  -23.9545  -27.3570   18.9781 H   0  0  0  0  0  0
  -23.7549  -30.6170   19.4109 H   0  0  0  0  0  0
  -22.7525  -29.2689   19.8568 H   0  0  0  0  0  0
  -25.1290  -36.1940   25.0826 H   0  0  0  0  0  0
  -20.9983  -28.3268   24.1390 H   0  0  0  0  0  0
  -20.5678  -26.2308   23.3603 H   0  0  0  0  0  0
  -21.6643  -26.7444   22.1194 H   0  0  0  0  0  0
  -19.6918  -25.6297   21.1237 H   0  0  0  0  0  0
  -19.6690  -27.3189   20.6728 H   0  0  0  0  0  0
  -17.4205  -26.6676   21.4017 H   0  0  0  0  0  0
  -18.0339  -26.0058   22.9011 H   0  0  0  0  0  0
  -19.7938  -30.7265   24.2263 H   0  0  0  0  0  0
  -17.5020  -31.6262   24.5161 H   0  0  0  0  0  0
  -15.5354  -30.2981   23.7652 H   0  0  0  0  0  0
  -15.8678  -28.0804   22.7087 H   0  0  0  0  0  0
  -24.5945  -30.7030   25.7808 H   0  0  0  0  0  0
  -24.8897  -32.2878   26.4860 H   0  0  0  0  0  0
  -25.8077  -30.8939   27.0263 H   0  0  0  0  0  0
  -26.2902  -29.6765   24.1213 H   0  0  0  0  0  0
  -27.4020  -29.7243   25.4697 H   0  0  0  0  0  0
  -27.8792  -30.4272   23.9429 H   0  0  0  0  0  0
  -27.2695  -33.3624   26.2063 H   0  0  0  0  0  0
  -28.3894  -32.6842   25.0336 H   0  0  0  0  0  0
  -28.0732  -31.8447   26.5440 H   0  0  0  0  0  0
  -28.2569  -38.0120   24.7550 H   0  0  0  0  0  0
  -28.1105  -36.2650   24.6216 H   0  0  0  0  0  0
  -27.2307  -37.1365   25.8859 H   0  0  0  0  0  0
  -20.9377  -29.8796   21.6896 H   0  0  0  0  0  0
  -26.0162  -38.2856   24.1451 H   0  0  0  0  0  0
  -31.0464  -21.6992   20.0277 H   0  0  0  0  0  0
  -27.1195  -20.2326   20.9463 H   0  0  0  0  0  0
  -32.7561  -20.2490   19.5111 H   0  0  0  0  0  0
  -32.5718  -18.5085   19.5004 H   0  0  0  0  0  0
  -32.9485  -19.3529   21.0126 H   0  0  0  0  0  0
  -27.0111  -24.7424   20.5115 H   0  0  0  0  0  0
  -27.7190  -24.8251   18.9004 H   0  0  0  0  0  0
  -27.4206  -22.5284   20.2214 H   0  0  0  0  0  0
  -29.0593  -15.8630   20.5675 H   0  0  0  0  0  0
  1 25  1  0  0  0
  1 30  2  0  0  0
  1 82  1  0  0  0
  2  3  1  0  0  0
  2 25  1  0  0  0
  2 86  1  0  0  0
  2 87  1  0  0  0
  3  4  1  0  0  0
  3 88  1  0  0  0
  3 89  1  0  0  0
  4  5  1  0  0  0
  4 90  1  0  0  0
  4 91  1  0  0  0
  5  6  1  0  0  0
  5 26  1  0  0  0
  5 92  1  0  0  0
  6 25  1  0  0  0
  6 93  1  0  0  0
  6 94  1  0  0  0
  7  8  2  0  0  0
  7 26  1  0  0  0
  7 29  1  0  0  0
  8  9  1  0  0  0
  8 22  1  0  0  0
  9 10  1  0  0  0
  9 27  2  0  0  0
 10 11  2  0  0  0
 10 15  1  0  0  0
 11 12  1  0  0  0
 11 95  1  0  0  0
 12 13  2  0  0  0
 12 96  1  0  0  0
 13 14  1  0  0  0
 13 31  1  0  0  0
 14 15  2  0  0  0
 14 97  1  0  0  0
 15 98  1  0  0  0
 16 17  2  0  0  0
 16 21  1  0  0  0
 16 31  1  0  0  0
 17 18  1  0  0  0
 17 99  1  0  0  0
 18 19  2  0  0  0
 18100  1  0  0  0
 19 20  1  0  0  0
 19 24  1  0  0  0
 20 21  2  0  0  0
 20101  1  0  0  0
 21 23  1  0  0  0
 22 28  1  0  0  0
 22 32  2  0  0  0
 26 27  1  0  0  0
 28102  1  0  0  0
 28103  1  0  0  0
 29104  1  0  0  0
 29105  1  0  0  0
 33 34  1  0  0  0
 33 66  1  0  0  0
 33 70  2  0  0  0
 34 36  1  0  0  0
 34 59  1  0  0  0
 34106  1  0  0  0
 35 44  2  0  0  0
 35 45  1  0  0  0
 35 68  1  0  0  0
 36 56  1  0  0  0
 36107  1  0  0  0
 37 39  1  0  0  0
 37 47  1  0  0  0
 37 66  1  0  0  0
 37108  1  0  0  0
 38 43  2  0  0  0
 38 46  1  0  0  0
 38 47  1  0  0  0
 39 64  1  0  0  0
 39 67  2  0  0  0
 40 52  1  0  0  0
 40 53  2  0  0  0
 40 58  1  0  0  0
 41109  1  0  0  0
 41110  1  0  0  0
 41111  1  0  0  0
 41 48  1  0  0  0
 42 43  1  0  0  0
 42 66  1  0  0  0
 42112  1  0  0  0
 42113  1  0  0  0
 43 44  1  0  0  0
 44114  1  0  0  0
 45 46  2  0  0  0
 45115  1  0  0  0
 46116  1  0  0  0
 47117  1  0  0  0
 47118  1  0  0  0
 48 56  1  0  0  0
 48 65  1  0  0  0
 48119  1  0  0  0
 49 50  1  0  0  0
 49 53  1  0  0  0
 49 64  1  0  0  0
 49120  1  0  0  0
 50 51  1  0  0  0
 50121  1  0  0  0
 50122  1  0  0  0
 51 52  1  0  0  0
 51123  1  0  0  0
 51124  1  0  0  0
 52125  1  0  0  0
 52126  1  0  0  0
 53 54  1  0  0  0
 54 55  2  0  0  0
 54127  1  0  0  0
 55 57  1  0  0  0
 55128  1  0  0  0
 56 69  2  0  0  0
 57 58  2  0  0  0
 57129  1  0  0  0
 58130  1  0  0  0
 59 60  1  0  0  0
 59 61  1  0  0  0
 59 62  1  0  0  0
 60131  1  0  0  0
 60132  1  0  0  0
 60133  1  0  0  0
 61134  1  0  0  0
 61135  1  0  0  0
 61136  1  0  0  0
 62137  1  0  0  0
 62138  1  0  0  0
 62139  1  0  0  0
 63 65  1  0  0  0
 63140  1  0  0  0
 63141  1  0  0  0
 63142  1  0  0  0
 64143  1  0  0  0
 65144  1  0  0  0
 68 80  1  0  0  0
 71 74  2  0  0  0
 71 75  1  0  0  0
 71145  1  0  0  0
 72 75  2  0  0  0
 72 76  1  0  0  0
 72146  1  0  0  0
 73 74  1  0  0  0
 73 76  2  0  0  0
 73 77  1  0  0  0
 74 79  1  0  0  0
 75 81  1  0  0  0
 76 85  1  0  0  0
 77 82  1  0  0  0
 77 83  2  0  0  0
 78 80  1  0  0  0
 78 81  1  0  0  0
 78 84  2  0  0  0
 79147  1  0  0  0
 79148  1  0  0  0
 79149  1  0  0  0
 80150  1  0  0  0
 80151  1  0  0  0
 81152  1  0  0  0
 82153  1  0  0  0
M  ISO  4   1 100  68 101  80 101  82 100
M  END
> <chiral flag>
0

> <version>
0

> <s_m_source_file>
/data/baiqing/PycharmProjects/Reinvent-master-3.2/result/LINK_invent/BTK/process_docking_weight1_custom_product_contain_oxygen_bond_distance_aromatic_linkinvent_7_9_3/rearranged_h_0095.sdf

> <i_m_source_file_index>
80

> <r_mmod_Potential_Energy-OPLS-2005>
104.618637084961

> <r_mmod_Stretch_Energy-OPLS-2005>
87.7673263549805

> <r_mmod_Bend_Energy-OPLS-2005>
156.670928955078

> <r_mmod_Torsional_Energy-OPLS-2005>
245.634536743164

> <r_mmod_Improper_Torsional_Energy-OPLS-2005>
6.06277656555176

> <r_mmod_Van_der_Waal_Energy-OPLS-2005>
165.41471862793

> <r_mmod_Electrostatic_Energy-OPLS-2005>
-376.569427490234

> <r_mmod_Solvation_Energy-OPLS-2005>
-245.365432739258

> <b_mmod_Minimization_Converged-OPLS-2005>
0

> <r_mmod_RMS_Derivative-OPLS-2005>
0.841373145580292

$$$$
80
                    3D
 Structure written by MMmdl.
152160  0  0  1  0            999 V2000
  -30.4619  -15.2329   20.3728 C   0  0  0  0  0  0
  -30.4373  -12.7855   19.5243 C   0  0  0  0  0  0
  -29.5333  -12.5704   18.2846 C   0  0  0  0  0  0
  -28.0797  -12.3023   18.7112 C   0  0  0  0  0  0
  -27.6131  -13.2736   19.8250 C   0  0  2  0  0  0
  -28.6491  -13.4381   20.9587 C   0  0  0  0  0  0
  -25.2381  -13.8215   20.5732 C   0  0  0  0  0  0
  -24.1737  -13.0412   20.9253 C   0  0  0  0  0  0
  -24.6393  -11.6915   20.8762 C   0  0  0  0  0  0
  -23.9081  -10.4280   21.0401 C   0  0  0  0  0  0
  -24.3625   -9.4195   21.9180 C   0  0  0  0  0  0
  -23.6297   -8.2235   22.0752 C   0  0  0  0  0  0
  -22.4283   -8.0269   21.3539 C   0  0  0  0  0  0
  -21.9920   -9.0244   20.4641 C   0  0  0  0  0  0
  -22.7251  -10.2118   20.3050 C   0  0  0  0  0  0
  -21.6852   -6.0728   22.5279 C   0  0  0  0  0  0
  -21.4010   -6.5635   23.8207 C   0  0  0  0  0  0
  -21.3663   -5.6789   24.9175 C   0  0  0  0  0  0
  -21.6047   -4.3054   24.7227 C   0  0  0  0  0  0
  -21.8820   -3.8140   23.4351 C   0  0  0  0  0  0
  -21.9193   -4.6958   22.3401 C   0  0  0  0  0  0
  -22.7756  -13.5172   21.1907 C   0  0  0  0  0  0
  -22.1663   -4.2139   21.0981 F   0  0  0  0  0  0
  -21.5634   -3.4540   25.7743 F   0  0  0  0  0  0
  -29.8866  -13.9333   20.3346 N   0  0  0  0  0  0
  -26.2823  -12.9504   20.3234 N   0  0  0  0  0  0
  -25.9333  -11.6609   20.5729 N   0  0  0  0  0  0
  -22.0418  -12.8148   22.0462 N   0  0  0  0  0  0
  -25.3990  -15.1932   20.4116 N   0  0  0  0  0  0
  -31.6800  -15.2267   20.1449 O   0  0  0  0  0  0
  -21.6644   -6.8873   21.4239 O   0  0  0  0  0  0
  -22.3436  -14.5476   20.6750 O   0  0  0  0  0  0
  -24.6616  -31.8263   23.1725 C   0  0  0  0  0  0
  -25.9314  -32.4607   23.8180 C   0  0  1  0  0  0
  -27.2239  -26.9464   20.1848 C   0  0  0  0  0  0
  -25.5982  -33.8418   24.2090 N   0  0  0  0  0  0
  -23.4755  -30.4374   21.5208 C   0  0  2  0  0  0
  -24.9304  -28.8247   20.1174 C   0  0  0  0  0  0
  -22.7661  -29.4453   22.4791 C   0  0  0  0  0  0
  -18.0315  -28.1438   22.8479 C   0  0  0  0  0  0
  -24.1477  -36.7204   23.2641 C   0  0  0  0  0  0
  -26.0430  -30.6383   21.4001 C   0  0  0  0  0  0
  -26.1119  -29.2253   20.7542 C   0  0  0  0  0  0
  -27.2523  -28.3042   20.7701 C   0  0  0  0  0  0
  -26.0168  -26.6972   19.4942 C   0  0  0  0  0  0
  -24.9059  -27.5794   19.4695 C   0  0  0  0  0  0
  -23.7164  -29.7515   20.1476 C   0  0  0  0  0  0
  -25.4119  -36.2977   24.0296 C   0  0  1  0  0  0
  -20.5939  -28.3772   23.1200 C   0  0  2  0  0  0
  -20.6779  -26.9452   22.5412 C   0  0  0  0  0  0
  -19.5751  -26.6404   21.5222 C   0  0  0  0  0  0
  -18.1939  -26.7970   22.1636 C   0  0  0  0  0  0
  -19.1581  -28.8929   23.2823 C   0  0  0  0  0  0
  -18.9492  -30.1513   23.8862 C   0  0  0  0  0  0
  -17.6488  -30.6623   24.0574 C   0  0  0  0  0  0
  -25.9089  -34.9361   23.5015 C   0  0  0  0  0  0
  -16.5376  -29.9114   23.6352 C   0  0  0  0  0  0
  -16.7297  -28.6535   23.0366 C   0  0  0  0  0  0
  -26.4563  -31.6545   25.0705 C   0  0  0  0  0  0
  -25.3698  -31.3811   26.1375 C   0  0  0  0  0  0
  -27.0439  -30.2909   24.6411 C   0  0  0  0  0  0
  -27.6055  -32.4344   25.7522 C   0  0  0  0  0  0
  -27.5558  -37.1756   24.8464 C   0  0  0  0  0  0
  -21.4331  -29.3055   22.3547 N   0  0  0  0  0  0
  -26.4260  -37.3718   23.9422 N   0  0  0  0  0  0
  -24.7478  -30.9934   22.0856 N   0  0  0  0  0  0
  -23.4211  -28.8025   23.3037 O   0  0  0  0  0  0
  -28.2388  -25.8576   20.1882 O   0  0  0  0  0  0
  -26.5695  -34.8895   22.4607 O   0  0  0  0  0  0
  -23.5687  -32.1227   23.6821 O   0  0  0  0  0  0
  -27.7777  -21.6944   20.9489 C   0  0  0  0  0  0
  -28.1902  -20.2617   20.9444 C   0  0  0  0  0  0
  -29.3853  -19.7185   20.3044 C   0  0  0  0  0  0
  -28.4257  -22.8749   20.3730 C   0  0  0  0  0  0
  -29.6220  -22.3326   19.7467 C   0  0  0  0  0  0
  -30.0504  -20.8973   19.7276 C   0  0  0  0  0  0
  -26.9461  -18.1151   21.2504 C   0  0  0  0  0  0
  -27.2696  -19.3554   21.6442 C   0  0  0  0  0  0
  -30.1104  -18.1149   20.2511 C   0  0  0  0  0  0
  -30.4414  -23.2518   19.0909 N   0  0  0  0  0  0
  -27.7858  -24.2904   20.4568 N   0  0  0  0  0  0
  -29.7202  -16.5110   20.4589 N   0  0  0  0  0  0
  -31.2262  -20.6495   19.0978 F   0  0  0  0  0  0
  -31.4592  -12.9776   19.1945 H   0  0  0  0  0  0
  -30.4933  -11.8769   20.1256 H   0  0  0  0  0  0
  -29.9055  -11.7413   17.6808 H   0  0  0  0  0  0
  -29.5707  -13.4556   17.6474 H   0  0  0  0  0  0
  -28.0287  -11.2754   19.0765 H   0  0  0  0  0  0
  -27.4116  -12.3535   17.8508 H   0  0  0  0  0  0
  -27.5311  -14.2431   19.3322 H   0  0  0  0  0  0
  -28.8107  -12.5001   21.4914 H   0  0  0  0  0  0
  -28.2957  -14.1586   21.6976 H   0  0  0  0  0  0
  -25.2763   -9.5677   22.4761 H   0  0  0  0  0  0
  -24.0004   -7.4626   22.7470 H   0  0  0  0  0  0
  -21.0852   -8.8750   19.8947 H   0  0  0  0  0  0
  -22.3695  -10.9653   19.6163 H   0  0  0  0  0  0
  -21.1995   -7.6141   23.9702 H   0  0  0  0  0  0
  -21.1491   -6.0526   25.9073 H   0  0  0  0  0  0
  -22.0598   -2.7602   23.2851 H   0  0  0  0  0  0
  -22.4061  -11.9819   22.4841 H   0  0  0  0  0  0
  -21.1030  -13.1143   22.2671 H   0  0  0  0  0  0
  -24.6239  -15.8386   20.5165 H   0  0  0  0  0  0
  -26.2324  -15.6298   20.0439 H   0  0  0  0  0  0
  -26.7387  -32.5171   23.0897 H   0  0  0  0  0  0
  -25.0092  -33.9491   25.0215 H   0  0  0  0  0  0
  -22.7869  -31.2677   21.3493 H   0  0  0  0  0  0
  -23.3748  -35.9526   23.3288 H   0  0  0  0  0  0
  -24.3535  -36.8862   22.2055 H   0  0  0  0  0  0
  -23.7218  -37.6383   23.6702 H   0  0  0  0  0  0
  -26.2121  -31.3745   20.6131 H   0  0  0  0  0  0
  -26.9067  -30.7053   22.0494 H   0  0  0  0  0  0
  -28.1517  -28.6110   21.2833 H   0  0  0  0  0  0
  -25.9102  -25.7496   18.9854 H   0  0  0  0  0  0
  -24.0109  -27.2698   18.9480 H   0  0  0  0  0  0
  -23.8726  -30.5189   19.3882 H   0  0  0  0  0  0
  -22.8262  -29.2042   19.8319 H   0  0  0  0  0  0
  -25.1306  -36.1763   25.0781 H   0  0  0  0  0  0
  -21.0027  -28.3387   24.1327 H   0  0  0  0  0  0
  -20.5659  -26.2398   23.3655 H   0  0  0  0  0  0
  -21.6644  -26.7425   22.1228 H   0  0  0  0  0  0
  -19.6899  -25.6304   21.1281 H   0  0  0  0  0  0
  -19.6690  -27.3188   20.6730 H   0  0  0  0  0  0
  -17.4205  -26.6727   21.4041 H   0  0  0  0  0  0
  -18.0324  -26.0126   22.9048 H   0  0  0  0  0  0
  -19.7962  -30.7346   24.2217 H   0  0  0  0  0  0
  -17.5035  -31.6294   24.5192 H   0  0  0  0  0  0
  -15.5372  -30.3009   23.7695 H   0  0  0  0  0  0
  -15.8692  -28.0841   22.7103 H   0  0  0  0  0  0
  -24.5915  -30.7092   25.7728 H   0  0  0  0  0  0
  -24.8839  -32.3018   26.4621 H   0  0  0  0  0  0
  -25.7958  -30.9136   27.0262 H   0  0  0  0  0  0
  -26.3098  -29.6618   24.1368 H   0  0  0  0  0  0
  -27.3922  -29.7238   25.5051 H   0  0  0  0  0  0
  -27.9055  -30.4078   23.9837 H   0  0  0  0  0  0
  -27.2622  -33.3692   26.1964 H   0  0  0  0  0  0
  -28.3962  -32.6823   25.0432 H   0  0  0  0  0  0
  -28.0615  -31.8553   26.5561 H   0  0  0  0  0  0
  -28.2558  -38.0069   24.7527 H   0  0  0  0  0  0
  -28.1069  -36.2599   24.6266 H   0  0  0  0  0  0
  -27.2280  -37.1381   25.8867 H   0  0  0  0  0  0
  -20.9590  -29.8762   21.6689 H   0  0  0  0  0  0
  -26.0099  -38.2767   24.1464 H   0  0  0  0  0  0
  -26.8457  -21.9006   21.4541 H   0  0  0  0  0  0
  -26.2815  -17.5022   21.8433 H   0  0  0  0  0  0
  -27.3272  -17.6975   20.3314 H   0  0  0  0  0  0
  -26.8399  -19.7279   22.5643 H   0  0  0  0  0  0
  -30.9804  -18.2311   20.8979 H   0  0  0  0  0  0
  -30.5438  -18.1022   19.2503 H   0  0  0  0  0  0
  -30.3432  -24.2223   19.3719 H   0  0  0  0  0  0
  -31.4005  -22.9614   18.9355 H   0  0  0  0  0  0
  -26.8256  -24.3083   20.7867 H   0  0  0  0  0  0
  -28.7390  -16.3691   20.6419 H   0  0  0  0  0  0
  1 25  1  0  0  0
  1 30  2  0  0  0
  1 82  1  0  0  0
  2  3  1  0  0  0
  2 25  1  0  0  0
  2 84  1  0  0  0
  2 85  1  0  0  0
  3  4  1  0  0  0
  3 86  1  0  0  0
  3 87  1  0  0  0
  4  5  1  0  0  0
  4 88  1  0  0  0
  4 89  1  0  0  0
  5  6  1  0  0  0
  5 26  1  0  0  0
  5 90  1  0  0  0
  6 25  1  0  0  0
  6 91  1  0  0  0
  6 92  1  0  0  0
  7  8  2  0  0  0
  7 26  1  0  0  0
  7 29  1  0  0  0
  8  9  1  0  0  0
  8 22  1  0  0  0
  9 10  1  0  0  0
  9 27  2  0  0  0
 10 11  2  0  0  0
 10 15  1  0  0  0
 11 12  1  0  0  0
 11 93  1  0  0  0
 12 13  2  0  0  0
 12 94  1  0  0  0
 13 14  1  0  0  0
 13 31  1  0  0  0
 14 15  2  0  0  0
 14 95  1  0  0  0
 15 96  1  0  0  0
 16 17  2  0  0  0
 16 21  1  0  0  0
 16 31  1  0  0  0
 17 18  1  0  0  0
 17 97  1  0  0  0
 18 19  2  0  0  0
 18 98  1  0  0  0
 19 20  1  0  0  0
 19 24  1  0  0  0
 20 21  2  0  0  0
 20 99  1  0  0  0
 21 23  1  0  0  0
 22 28  1  0  0  0
 22 32  2  0  0  0
 26 27  1  0  0  0
 28100  1  0  0  0
 28101  1  0  0  0
 29102  1  0  0  0
 29103  1  0  0  0
 33 34  1  0  0  0
 33 66  1  0  0  0
 33 70  2  0  0  0
 34 36  1  0  0  0
 34 59  1  0  0  0
 34104  1  0  0  0
 35 44  2  0  0  0
 35 45  1  0  0  0
 35 68  1  0  0  0
 36 56  1  0  0  0
 36105  1  0  0  0
 37 39  1  0  0  0
 37 47  1  0  0  0
 37 66  1  0  0  0
 37106  1  0  0  0
 38 43  2  0  0  0
 38 46  1  0  0  0
 38 47  1  0  0  0
 39 64  1  0  0  0
 39 67  2  0  0  0
 40 52  1  0  0  0
 40 53  2  0  0  0
 40 58  1  0  0  0
 41107  1  0  0  0
 41108  1  0  0  0
 41109  1  0  0  0
 41 48  1  0  0  0
 42 43  1  0  0  0
 42 66  1  0  0  0
 42110  1  0  0  0
 42111  1  0  0  0
 43 44  1  0  0  0
 44112  1  0  0  0
 45 46  2  0  0  0
 45113  1  0  0  0
 46114  1  0  0  0
 47115  1  0  0  0
 47116  1  0  0  0
 48 56  1  0  0  0
 48 65  1  0  0  0
 48117  1  0  0  0
 49 50  1  0  0  0
 49 53  1  0  0  0
 49 64  1  0  0  0
 49118  1  0  0  0
 50 51  1  0  0  0
 50119  1  0  0  0
 50120  1  0  0  0
 51 52  1  0  0  0
 51121  1  0  0  0
 51122  1  0  0  0
 52123  1  0  0  0
 52124  1  0  0  0
 53 54  1  0  0  0
 54 55  2  0  0  0
 54125  1  0  0  0
 55 57  1  0  0  0
 55126  1  0  0  0
 56 69  2  0  0  0
 57 58  2  0  0  0
 57127  1  0  0  0
 58128  1  0  0  0
 59 60  1  0  0  0
 59 61  1  0  0  0
 59 62  1  0  0  0
 60129  1  0  0  0
 60130  1  0  0  0
 60131  1  0  0  0
 61132  1  0  0  0
 61133  1  0  0  0
 61134  1  0  0  0
 62135  1  0  0  0
 62136  1  0  0  0
 62137  1  0  0  0
 63 65  1  0  0  0
 63138  1  0  0  0
 63139  1  0  0  0
 63140  1  0  0  0
 64141  1  0  0  0
 65142  1  0  0  0
 68 81  1  0  0  0
 71 72  2  0  0  0
 71 74  1  0  0  0
 71143  1  0  0  0
 72 73  1  0  0  0
 72 78  1  0  0  0
 73 76  2  0  0  0
 73 79  1  0  0  0
 74 75  2  0  0  0
 74 81  1  0  0  0
 75 76  1  0  0  0
 75 80  1  0  0  0
 76 83  1  0  0  0
 77 78  2  0  0  0
 77144  1  0  0  0
 77145  1  0  0  0
 78146  1  0  0  0
 79 82  1  0  0  0
 79147  1  0  0  0
 79148  1  0  0  0
 80149  1  0  0  0
 80150  1  0  0  0
 81151  1  0  0  0
 82152  1  0  0  0
M  ISO  4   1 100  68 101  81 101  82 100
M  END
> <chiral flag>
0

> <version>
0

> <s_m_source_file>
/data/baiqing/PycharmProjects/Reinvent-master-3.2/result/LINK_invent/BTK/process_docking_weight1_custom_product_contain_oxygen_bond_distance_aromatic_linkinvent_7_9_3/rearranged_h_0095.sdf

> <i_m_source_file_index>
81

> <r_mmod_Potential_Energy-OPLS-2005>
1098.19177246094

> <r_mmod_Stretch_Energy-OPLS-2005>
487.321746826172

> <r_mmod_Bend_Energy-OPLS-2005>
476.045989990234

> <r_mmod_Torsional_Energy-OPLS-2005>
207.152847290039

> <r_mmod_Improper_Torsional_Energy-OPLS-2005>
8.38296508789062

> <r_mmod_Van_der_Waal_Energy-OPLS-2005>
128.686264038086

> <r_mmod_Electrostatic_Energy-OPLS-2005>
-402.721099853516

> <r_mmod_Solvation_Energy-OPLS-2005>
-228.590972900391

> <b_mmod_Minimization_Converged-OPLS-2005>
0

> <r_mmod_RMS_Derivative-OPLS-2005>
1.62151217460632

$$$$
81
                    3D
 Structure written by MMmdl.
158167  0  0  1  0            999 V2000
  -30.6057  -14.6734   20.4755 C   0  0  0  0  0  0
  -30.4444  -12.4097   19.4500 C   0  0  0  0  0  0
  -29.5087  -12.5065   18.2235 C   0  0  0  0  0  0
  -28.0320  -12.3397   18.6382 C   0  0  0  0  0  0
  -27.6508  -13.2159   19.8609 C   0  0  2  0  0  0
  -28.7011  -13.0880   20.9877 C   0  0  0  0  0  0
  -25.2542  -13.8161   20.5723 C   0  0  0  0  0  0
  -24.1811  -13.0410   20.9181 C   0  0  0  0  0  0
  -24.6395  -11.6891   20.8730 C   0  0  0  0  0  0
  -23.9068  -10.4277   21.0398 C   0  0  0  0  0  0
  -24.3618   -9.4197   21.9179 C   0  0  0  0  0  0
  -23.6287   -8.2238   22.0754 C   0  0  0  0  0  0
  -22.4269   -8.0278   21.3546 C   0  0  0  0  0  0
  -21.9904   -9.0250   20.4647 C   0  0  0  0  0  0
  -22.7238  -10.2124   20.3050 C   0  0  0  0  0  0
  -21.6852   -6.0732   22.5279 C   0  0  0  0  0  0
  -21.4014   -6.5636   23.8213 C   0  0  0  0  0  0
  -21.3657   -5.6789   24.9175 C   0  0  0  0  0  0
  -21.6042   -4.3052   24.7226 C   0  0  0  0  0  0
  -21.8820   -3.8144   23.4347 C   0  0  0  0  0  0
  -21.9192   -4.6960   22.3402 C   0  0  0  0  0  0
  -22.7832  -13.5204   21.1847 C   0  0  0  0  0  0
  -22.1661   -4.2146   21.0980 F   0  0  0  0  0  0
  -21.5626   -3.4536   25.7739 F   0  0  0  0  0  0
  -30.0117  -13.4378   20.4159 N   0  0  0  0  0  0
  -26.2983  -12.9351   20.3338 N   0  0  0  0  0  0
  -25.9325  -11.6499   20.5757 N   0  0  0  0  0  0
  -22.0480  -12.8206   22.0416 N   0  0  0  0  0  0
  -25.4132  -15.1904   20.4261 N   0  0  0  0  0  0
  -31.7856  -14.8364   20.1507 O   0  0  0  0  0  0
  -21.6635   -6.8876   21.4243 O   0  0  0  0  0  0
  -22.3510  -14.5508   20.6697 O   0  0  0  0  0  0
  -24.6273  -31.8592   23.2023 C   0  0  0  0  0  0
  -25.9116  -32.4776   23.8355 C   0  0  1  0  0  0
  -27.2234  -27.3103   20.1238 C   0  0  0  0  0  0
  -25.5929  -33.8577   24.2282 N   0  0  0  0  0  0
  -23.4224  -30.4826   21.5447 C   0  0  2  0  0  0
  -24.8714  -28.9384   20.1102 C   0  0  0  0  0  0
  -22.7485  -29.4616   22.4928 C   0  0  0  0  0  0
  -18.0290  -28.1385   22.8483 C   0  0  0  0  0  0
  -24.1489  -36.7291   23.2637 C   0  0  0  0  0  0
  -25.9647  -30.7870   21.3765 C   0  0  0  0  0  0
  -26.0407  -29.4135   20.7195 C   0  0  0  0  0  0
  -27.2227  -28.6112   20.7174 C   0  0  0  0  0  0
  -26.0389  -26.9001   19.4731 C   0  0  0  0  0  0
  -24.8727  -27.6870   19.4765 C   0  0  0  0  0  0
  -23.6389  -29.8188   20.1598 C   0  0  0  0  0  0
  -25.4112  -36.3080   24.0328 C   0  0  1  0  0  0
  -20.5892  -28.3691   23.1277 C   0  0  2  0  0  0
  -20.6778  -26.9412   22.5408 C   0  0  0  0  0  0
  -19.5755  -26.6383   21.5209 C   0  0  0  0  0  0
  -18.1934  -26.7926   22.1621 C   0  0  0  0  0  0
  -19.1542  -28.8854   23.2876 C   0  0  0  0  0  0
  -18.9464  -30.1454   23.8896 C   0  0  0  0  0  0
  -17.6464  -30.6586   24.0563 C   0  0  0  0  0  0
  -25.9051  -34.9449   23.5106 C   0  0  0  0  0  0
  -16.5355  -29.9084   23.6328 C   0  0  0  0  0  0
  -16.7277  -28.6501   23.0349 C   0  0  0  0  0  0
  -26.4497  -31.6584   25.0725 C   0  0  0  0  0  0
  -25.3731  -31.3724   26.1452 C   0  0  0  0  0  0
  -27.0336  -30.3004   24.6181 C   0  0  0  0  0  0
  -27.6059  -32.4315   25.7496 C   0  0  0  0  0  0
  -27.5579  -37.1799   24.8461 C   0  0  0  0  0  0
  -21.4196  -29.3041   22.3668 N   0  0  0  0  0  0
  -26.4289  -37.3775   23.9408 N   0  0  0  0  0  0
  -24.6902  -31.0596   22.0980 N   0  0  0  0  0  0
  -23.4201  -28.8153   23.3011 O   0  0  0  0  0  0
  -28.3093  -26.4188   20.1592 O   0  0  0  0  0  0
  -26.5619  -34.8917   22.4671 O   0  0  0  0  0  0
  -23.5433  -32.1393   23.7343 O   0  0  0  0  0  0
  -30.8057  -19.4353   20.8712 C   0  0  0  0  0  0
  -30.8956  -18.0067   20.9526 C   0  0  0  0  0  0
  -30.1157  -23.7277   19.7201 C   0  0  0  0  0  0
  -28.6009  -19.2630   19.9331 C   0  0  0  0  0  0
  -28.8577  -23.8007   20.3868 C   0  0  0  0  0  0
  -29.6535  -20.1108   20.3689 C   0  0  0  0  0  0
  -29.8297  -17.1701   20.5262 C   0  0  0  0  0  0
  -28.6896  -17.8391   20.0018 C   0  0  0  0  0  0
  -28.5580  -22.4690   20.7014 C   0  0  0  0  0  0
  -30.5091  -22.4135   19.6601 C   0  0  0  0  0  0
  -27.3567  -21.9409   21.4240 C   0  0  0  0  0  0
  -28.0067  -25.0810   20.7340 C   0  0  0  0  0  0
  -29.5711  -21.5785   20.2594 N   0  0  0  0  0  0
  -27.6353  -17.0659   19.5129 N   0  0  0  0  0  0
  -29.7491  -15.7181   20.7041 N   0  0  0  0  0  0
  -31.6379  -21.9012   19.0993 O   0  0  0  0  0  0
  -31.4833  -12.5457   19.1449 H   0  0  0  0  0  0
  -30.3901  -11.4181   19.9019 H   0  0  0  0  0  0
  -29.7763  -11.7504   17.4842 H   0  0  0  0  0  0
  -29.6439  -13.4724   17.7345 H   0  0  0  0  0  0
  -27.8742  -11.2874   18.8764 H   0  0  0  0  0  0
  -27.3759  -12.5614   17.7956 H   0  0  0  0  0  0
  -27.6571  -14.2455   19.5079 H   0  0  0  0  0  0
  -28.7214  -12.0705   21.3807 H   0  0  0  0  0  0
  -28.4478  -13.7298   21.8333 H   0  0  0  0  0  0
  -25.2764   -9.5669   22.4753 H   0  0  0  0  0  0
  -23.9993   -7.4628   22.7475 H   0  0  0  0  0  0
  -21.0833   -8.8773   19.8956 H   0  0  0  0  0  0
  -22.3702  -10.9663   19.6158 H   0  0  0  0  0  0
  -21.2011   -7.6145   23.9716 H   0  0  0  0  0  0
  -21.1474   -6.0519   25.9077 H   0  0  0  0  0  0
  -22.0603   -2.7607   23.2851 H   0  0  0  0  0  0
  -22.4095  -11.9873   22.4812 H   0  0  0  0  0  0
  -21.1101  -13.1241   22.2624 H   0  0  0  0  0  0
  -24.6344  -15.8249   20.5593 H   0  0  0  0  0  0
  -26.2687  -15.6875   20.1768 H   0  0  0  0  0  0
  -26.7184  -32.5445   23.1104 H   0  0  0  0  0  0
  -25.0072  -33.9721   25.0424 H   0  0  0  0  0  0
  -22.7166  -31.3034   21.4015 H   0  0  0  0  0  0
  -23.3748  -35.9627   23.3303 H   0  0  0  0  0  0
  -24.3582  -36.8907   22.2051 H   0  0  0  0  0  0
  -23.7248  -37.6497   23.6657 H   0  0  0  0  0  0
  -26.0976  -31.5498   20.6080 H   0  0  0  0  0  0
  -26.8446  -30.8365   22.0063 H   0  0  0  0  0  0
  -28.1177  -28.9679   21.2077 H   0  0  0  0  0  0
  -26.0022  -25.9464   18.9660 H   0  0  0  0  0  0
  -23.9805  -27.3213   18.9870 H   0  0  0  0  0  0
  -23.7590  -30.5962   19.4045 H   0  0  0  0  0  0
  -22.7589  -29.2489   19.8558 H   0  0  0  0  0  0
  -25.1292  -36.1931   25.0820 H   0  0  0  0  0  0
  -20.9984  -28.3269   24.1397 H   0  0  0  0  0  0
  -20.5675  -26.2300   23.3609 H   0  0  0  0  0  0
  -21.6650  -26.7438   22.1207 H   0  0  0  0  0  0
  -19.6919  -25.6295   21.1237 H   0  0  0  0  0  0
  -19.6692  -27.3192   20.6738 H   0  0  0  0  0  0
  -17.4203  -26.6669   21.4025 H   0  0  0  0  0  0
  -18.0340  -26.0070   22.9020 H   0  0  0  0  0  0
  -19.7940  -30.7269   24.2266 H   0  0  0  0  0  0
  -17.5019  -31.6265   24.5167 H   0  0  0  0  0  0
  -15.5356  -30.2986   23.7652 H   0  0  0  0  0  0
  -15.8676  -28.0819   22.7067 H   0  0  0  0  0  0
  -24.5908  -30.7068   25.7783 H   0  0  0  0  0  0
  -24.8919  -32.2890   26.4873 H   0  0  0  0  0  0
  -25.8056  -30.8907   27.0230 H   0  0  0  0  0  0
  -26.2909  -29.6758   24.1203 H   0  0  0  0  0  0
  -27.4028  -29.7257   25.4686 H   0  0  0  0  0  0
  -27.8783  -30.4286   23.9409 H   0  0  0  0  0  0
  -27.2672  -33.3614   26.2076 H   0  0  0  0  0  0
  -28.3869  -32.6875   25.0323 H   0  0  0  0  0  0
  -28.0726  -31.8437   26.5410 H   0  0  0  0  0  0
  -28.2592  -38.0101   24.7515 H   0  0  0  0  0  0
  -28.1080  -36.2634   24.6276 H   0  0  0  0  0  0
  -27.2300  -37.1437   25.8864 H   0  0  0  0  0  0
  -20.9375  -29.8764   21.6877 H   0  0  0  0  0  0
  -26.0169  -38.2847   24.1416 H   0  0  0  0  0  0
  -31.6449  -20.0263   21.2096 H   0  0  0  0  0  0
  -31.7849  -17.5606   21.3739 H   0  0  0  0  0  0
  -30.6741  -24.5667   19.3275 H   0  0  0  0  0  0
  -27.7151  -19.7210   19.5182 H   0  0  0  0  0  0
  -26.8896  -22.7144   22.0333 H   0  0  0  0  0  0
  -27.6198  -21.1199   22.0917 H   0  0  0  0  0  0
  -26.6076  -21.5777   20.7202 H   0  0  0  0  0  0
  -28.0721  -25.2009   21.8159 H   0  0  0  0  0  0
  -26.9720  -24.7927   20.5557 H   0  0  0  0  0  0
  -26.9277  -17.5939   19.0129 H   0  0  0  0  0  0
  -27.9490  -16.2959   18.9336 H   0  0  0  0  0  0
  -28.7967  -15.4095   20.8257 H   0  0  0  0  0  0
  -32.1344  -22.6270   18.7342 H   0  0  0  0  0  0
  1 25  1  0  0  0
  1 30  2  0  0  0
  1 85  1  0  0  0
  2  3  1  0  0  0
  2 25  1  0  0  0
  2 87  1  0  0  0
  2 88  1  0  0  0
  3  4  1  0  0  0
  3 89  1  0  0  0
  3 90  1  0  0  0
  4  5  1  0  0  0
  4 91  1  0  0  0
  4 92  1  0  0  0
  5  6  1  0  0  0
  5 26  1  0  0  0
  5 93  1  0  0  0
  6 25  1  0  0  0
  6 94  1  0  0  0
  6 95  1  0  0  0
  7  8  2  0  0  0
  7 26  1  0  0  0
  7 29  1  0  0  0
  8  9  1  0  0  0
  8 22  1  0  0  0
  9 10  1  0  0  0
  9 27  2  0  0  0
 10 11  2  0  0  0
 10 15  1  0  0  0
 11 12  1  0  0  0
 11 96  1  0  0  0
 12 13  2  0  0  0
 12 97  1  0  0  0
 13 14  1  0  0  0
 13 31  1  0  0  0
 14 15  2  0  0  0
 14 98  1  0  0  0
 15 99  1  0  0  0
 16 17  2  0  0  0
 16 21  1  0  0  0
 16 31  1  0  0  0
 17 18  1  0  0  0
 17100  1  0  0  0
 18 19  2  0  0  0
 18101  1  0  0  0
 19 20  1  0  0  0
 19 24  1  0  0  0
 20 21  2  0  0  0
 20102  1  0  0  0
 21 23  1  0  0  0
 22 28  1  0  0  0
 22 32  2  0  0  0
 26 27  1  0  0  0
 28103  1  0  0  0
 28104  1  0  0  0
 29105  1  0  0  0
 29106  1  0  0  0
 33 34  1  0  0  0
 33 66  1  0  0  0
 33 70  2  0  0  0
 34 36  1  0  0  0
 34 59  1  0  0  0
 34107  1  0  0  0
 35 44  2  0  0  0
 35 45  1  0  0  0
 35 68  1  0  0  0
 36 56  1  0  0  0
 36108  1  0  0  0
 37 39  1  0  0  0
 37 47  1  0  0  0
 37 66  1  0  0  0
 37109  1  0  0  0
 38 43  2  0  0  0
 38 46  1  0  0  0
 38 47  1  0  0  0
 39 64  1  0  0  0
 39 67  2  0  0  0
 40 52  1  0  0  0
 40 53  2  0  0  0
 40 58  1  0  0  0
 41110  1  0  0  0
 41111  1  0  0  0
 41112  1  0  0  0
 41 48  1  0  0  0
 42 43  1  0  0  0
 42 66  1  0  0  0
 42113  1  0  0  0
 42114  1  0  0  0
 43 44  1  0  0  0
 44115  1  0  0  0
 45 46  2  0  0  0
 45116  1  0  0  0
 46117  1  0  0  0
 47118  1  0  0  0
 47119  1  0  0  0
 48 56  1  0  0  0
 48 65  1  0  0  0
 48120  1  0  0  0
 49 50  1  0  0  0
 49 53  1  0  0  0
 49 64  1  0  0  0
 49121  1  0  0  0
 50 51  1  0  0  0
 50122  1  0  0  0
 50123  1  0  0  0
 51 52  1  0  0  0
 51124  1  0  0  0
 51125  1  0  0  0
 52126  1  0  0  0
 52127  1  0  0  0
 53 54  1  0  0  0
 54 55  2  0  0  0
 54128  1  0  0  0
 55 57  1  0  0  0
 55129  1  0  0  0
 56 69  2  0  0  0
 57 58  2  0  0  0
 57130  1  0  0  0
 58131  1  0  0  0
 59 60  1  0  0  0
 59 61  1  0  0  0
 59 62  1  0  0  0
 60132  1  0  0  0
 60133  1  0  0  0
 60134  1  0  0  0
 61135  1  0  0  0
 61136  1  0  0  0
 61137  1  0  0  0
 62138  1  0  0  0
 62139  1  0  0  0
 62140  1  0  0  0
 63 65  1  0  0  0
 63141  1  0  0  0
 63142  1  0  0  0
 63143  1  0  0  0
 64144  1  0  0  0
 65145  1  0  0  0
 68 82  1  0  0  0
 71 72  2  0  0  0
 71 76  1  0  0  0
 71146  1  0  0  0
 72 77  1  0  0  0
 72147  1  0  0  0
 73 75  1  0  0  0
 73 80  2  0  0  0
 73148  1  0  0  0
 74 76  2  0  0  0
 74 78  1  0  0  0
 74149  1  0  0  0
 75 79  2  0  0  0
 75 82  1  0  0  0
 76 83  1  0  0  0
 77 78  2  0  0  0
 77 85  1  0  0  0
 78 84  1  0  0  0
 79 81  1  0  0  0
 79 83  1  0  0  0
 80 83  1  0  0  0
 80 86  1  0  0  0
 81150  1  0  0  0
 81151  1  0  0  0
 81152  1  0  0  0
 82153  1  0  0  0
 82154  1  0  0  0
 84155  1  0  0  0
 84156  1  0  0  0
 85157  1  0  0  0
 86158  1  0  0  0
M  ISO  4   1 100  68 101  82 101  85 100
M  END
> <chiral flag>
0

> <version>
0

> <s_m_source_file>
/data/baiqing/PycharmProjects/Reinvent-master-3.2/result/LINK_invent/BTK/process_docking_weight1_custom_product_contain_oxygen_bond_distance_aromatic_linkinvent_7_9_3/rearranged_h_0095.sdf

> <i_m_source_file_index>
82

> <r_mmod_Potential_Energy-OPLS-2005>
-15.6943712234497

> <r_mmod_Stretch_Energy-OPLS-2005>
82.7967071533203

> <r_mmod_Bend_Energy-OPLS-2005>
139.677734375

> <r_mmod_Torsional_Energy-OPLS-2005>
267.222412109375

> <r_mmod_Improper_Torsional_Energy-OPLS-2005>
11.4124870300293

> <r_mmod_Van_der_Waal_Energy-OPLS-2005>
139.330810546875

> <r_mmod_Electrostatic_Energy-OPLS-2005>
-497.172180175781

> <r_mmod_Solvation_Energy-OPLS-2005>
-218.963088989258

> <b_mmod_Minimization_Converged-OPLS-2005>
0

> <r_mmod_RMS_Derivative-OPLS-2005>
0.381087392568588

$$$$
82
                    3D
 Structure written by MMmdl.
156164  0  0  1  0            999 V2000
  -30.6294  -14.7621   20.5262 C   0  0  0  0  0  0
  -30.4267  -12.4811   19.4984 C   0  0  0  0  0  0
  -29.5123  -12.5290   18.2559 C   0  0  0  0  0  0
  -28.0416  -12.3391   18.6670 C   0  0  0  0  0  0
  -27.6431  -13.2349   19.8689 C   0  0  2  0  0  0
  -28.6802  -13.1667   21.0135 C   0  0  0  0  0  0
  -25.2412  -13.8104   20.5583 C   0  0  0  0  0  0
  -24.1749  -13.0373   20.9192 C   0  0  0  0  0  0
  -24.6387  -11.6872   20.8790 C   0  0  0  0  0  0
  -23.9072  -10.4259   21.0437 C   0  0  0  0  0  0
  -24.3621   -9.4173   21.9207 C   0  0  0  0  0  0
  -23.6289   -8.2215   22.0761 C   0  0  0  0  0  0
  -22.4269   -8.0266   21.3544 C   0  0  0  0  0  0
  -21.9917   -9.0245   20.4648 C   0  0  0  0  0  0
  -22.7253  -10.2120   20.3069 C   0  0  0  0  0  0
  -21.6842   -6.0730   22.5280 C   0  0  0  0  0  0
  -21.4007   -6.5633   23.8216 C   0  0  0  0  0  0
  -21.3651   -5.6786   24.9177 C   0  0  0  0  0  0
  -21.6049   -4.3050   24.7232 C   0  0  0  0  0  0
  -21.8816   -3.8142   23.4349 C   0  0  0  0  0  0
  -21.9189   -4.6958   22.3406 C   0  0  0  0  0  0
  -22.7771  -13.5164   21.1872 C   0  0  0  0  0  0
  -22.1654   -4.2140   21.0983 F   0  0  0  0  0  0
  -21.5633   -3.4537   25.7746 F   0  0  0  0  0  0
  -29.9859  -13.5370   20.4507 N   0  0  0  0  0  0
  -26.2920  -12.9383   20.3343 N   0  0  0  0  0  0
  -25.9336  -11.6521   20.5842 N   0  0  0  0  0  0
  -22.0438  -12.8174   22.0453 N   0  0  0  0  0  0
  -25.3972  -15.1772   20.3758 N   0  0  0  0  0  0
  -31.7263  -14.8954   19.9718 O   0  0  0  0  0  0
  -21.6622   -6.8871   21.4241 O   0  0  0  0  0  0
  -22.3446  -14.5467   20.6715 O   0  0  0  0  0  0
  -24.6324  -31.8530   23.1948 C   0  0  0  0  0  0
  -25.9132  -32.4741   23.8309 C   0  0  1  0  0  0
  -27.2242  -27.2383   20.1385 C   0  0  0  0  0  0
  -25.5928  -33.8547   24.2252 N   0  0  0  0  0  0
  -23.4302  -30.4707   21.5383 C   0  0  2  0  0  0
  -24.8794  -28.9095   20.1058 C   0  0  0  0  0  0
  -22.7502  -29.4568   22.4897 C   0  0  0  0  0  0
  -18.0289  -28.1388   22.8472 C   0  0  0  0  0  0
  -24.1483  -36.7287   23.2636 C   0  0  0  0  0  0
  -25.9763  -30.7575   21.3765 C   0  0  0  0  0  0
  -26.0471  -29.3759   20.7221 C   0  0  0  0  0  0
  -27.2168  -28.5514   20.7258 C   0  0  0  0  0  0
  -26.0355  -26.8366   19.4924 C   0  0  0  0  0  0
  -24.8815  -27.6518   19.4783 C   0  0  0  0  0  0
  -23.6498  -29.7996   20.1537 C   0  0  0  0  0  0
  -25.4112  -36.3074   24.0323 C   0  0  1  0  0  0
  -20.5901  -28.3694   23.1266 C   0  0  2  0  0  0
  -20.6784  -26.9410   22.5408 C   0  0  0  0  0  0
  -19.5758  -26.6386   21.5209 C   0  0  0  0  0  0
  -18.1936  -26.7925   22.1618 C   0  0  0  0  0  0
  -19.1545  -28.8856   23.2856 C   0  0  0  0  0  0
  -18.9466  -30.1455   23.8871 C   0  0  0  0  0  0
  -17.6470  -30.6586   24.0558 C   0  0  0  0  0  0
  -25.9051  -34.9433   23.5100 C   0  0  0  0  0  0
  -16.5358  -29.9090   23.6331 C   0  0  0  0  0  0
  -16.7276  -28.6510   23.0344 C   0  0  0  0  0  0
  -26.4492  -31.6566   25.0696 C   0  0  0  0  0  0
  -25.3694  -31.3752   26.1410 C   0  0  0  0  0  0
  -27.0335  -30.2976   24.6192 C   0  0  0  0  0  0
  -27.6045  -32.4329   25.7461 C   0  0  0  0  0  0
  -27.5589  -37.1797   24.8461 C   0  0  0  0  0  0
  -21.4209  -29.3034   22.3645 N   0  0  0  0  0  0
  -26.4294  -37.3774   23.9405 N   0  0  0  0  0  0
  -24.6995  -31.0460   22.0941 N   0  0  0  0  0  0
  -23.4188  -28.8120   23.3010 O   0  0  0  0  0  0
  -28.3408  -26.3750   20.2447 O   0  0  0  0  0  0
  -26.5626  -34.8904   22.4674 O   0  0  0  0  0  0
  -23.5472  -32.1382   23.7228 O   0  0  0  0  0  0
  -27.8837  -17.1060   21.3555 C   0  0  0  0  0  0
  -29.6742  -18.5700   20.6406 C   0  0  0  0  0  0
  -29.2515  -17.2185   21.0249 C   0  0  0  0  0  0
  -27.0001  -18.2041   21.3258 C   0  0  0  0  0  0
  -27.4361  -19.4946   20.9441 C   0  0  0  0  0  0
  -28.7883  -19.7422   20.5985 C   0  0  0  0  0  0
  -30.1071  -15.9688   21.4477 C   0  0  0  0  0  0
  -27.9892  -23.6136   20.5313 C   0  0  0  0  0  0
  -28.4385  -24.9574   19.7280 C   0  0  0  0  0  0
  -28.9385  -22.3272   20.9138 C   0  0  0  0  0  0
  -30.4204  -15.9175   22.6752 N   0  0  0  0  0  0
  -25.6691  -18.0123   21.7048 N   0  0  0  0  0  0
  -26.4854  -20.5150   20.8798 N   0  0  0  0  0  0
  -29.1582  -21.0543   20.1410 O   0  0  0  0  0  0
  -31.4683  -12.5989   19.1971 H   0  0  0  0  0  0
  -30.3758  -11.5005   19.9742 H   0  0  0  0  0  0
  -29.8036  -11.7581   17.5412 H   0  0  0  0  0  0
  -29.6336  -13.4858   17.7467 H   0  0  0  0  0  0
  -27.9091  -11.2893   18.9332 H   0  0  0  0  0  0
  -27.3815  -12.5225   17.8186 H   0  0  0  0  0  0
  -27.6417  -14.2596   19.4975 H   0  0  0  0  0  0
  -28.7206  -12.1633   21.4400 H   0  0  0  0  0  0
  -28.3921  -13.8266   21.8315 H   0  0  0  0  0  0
  -25.2766   -9.5635   22.4787 H   0  0  0  0  0  0
  -23.9986   -7.4595   22.7475 H   0  0  0  0  0  0
  -21.0848   -8.8778   19.8952 H   0  0  0  0  0  0
  -22.3724  -10.9668   19.6182 H   0  0  0  0  0  0
  -21.1993   -7.6140   23.9716 H   0  0  0  0  0  0
  -21.1477   -6.0517   25.9080 H   0  0  0  0  0  0
  -22.0605   -2.7603   23.2856 H   0  0  0  0  0  0
  -22.4065  -11.9836   22.4830 H   0  0  0  0  0  0
  -21.1065  -13.1205   22.2697 H   0  0  0  0  0  0
  -24.6327  -15.8343   20.4878 H   0  0  0  0  0  0
  -26.2391  -15.6312   20.0497 H   0  0  0  0  0  0
  -26.7175  -32.5372   23.1026 H   0  0  0  0  0  0
  -25.0043  -33.9684   25.0376 H   0  0  0  0  0  0
  -22.7273  -31.2937   21.3917 H   0  0  0  0  0  0
  -23.3750  -35.9619   23.3293 H   0  0  0  0  0  0
  -24.3557  -36.8930   22.2052 H   0  0  0  0  0  0
  -23.7239  -37.6481   23.6670 H   0  0  0  0  0  0
  -26.1146  -31.5112   20.6003 H   0  0  0  0  0  0
  -26.8558  -30.8162   22.0055 H   0  0  0  0  0  0
  -28.1104  -28.8992   21.2233 H   0  0  0  0  0  0
  -25.9739  -25.8671   19.0207 H   0  0  0  0  0  0
  -23.9858  -27.2897   18.9922 H   0  0  0  0  0  0
  -23.7767  -30.5738   19.3960 H   0  0  0  0  0  0
  -22.7681  -29.2328   19.8479 H   0  0  0  0  0  0
  -25.1300  -36.1935   25.0820 H   0  0  0  0  0  0
  -20.9982  -28.3286   24.1394 H   0  0  0  0  0  0
  -20.5715  -26.2295   23.3613 H   0  0  0  0  0  0
  -21.6647  -26.7460   22.1188 H   0  0  0  0  0  0
  -19.6913  -25.6304   21.1227 H   0  0  0  0  0  0
  -19.6682  -27.3190   20.6732 H   0  0  0  0  0  0
  -17.4209  -26.6660   21.4016 H   0  0  0  0  0  0
  -18.0315  -26.0075   22.9019 H   0  0  0  0  0  0
  -19.7945  -30.7270   24.2225 H   0  0  0  0  0  0
  -17.5032  -31.6249   24.5186 H   0  0  0  0  0  0
  -15.5358  -30.2997   23.7667 H   0  0  0  0  0  0
  -15.8670  -28.0832   22.7081 H   0  0  0  0  0  0
  -24.5879  -30.7080   25.7753 H   0  0  0  0  0  0
  -24.8839  -32.2923   26.4753 H   0  0  0  0  0  0
  -25.7990  -30.8996   27.0231 H   0  0  0  0  0  0
  -26.2918  -29.6707   24.1224 H   0  0  0  0  0  0
  -27.4016  -29.7271   25.4723 H   0  0  0  0  0  0
  -27.8797  -30.4241   23.9434 H   0  0  0  0  0  0
  -27.2647  -33.3650   26.1993 H   0  0  0  0  0  0
  -28.3856  -32.6873   25.0281 H   0  0  0  0  0  0
  -28.0686  -31.8473   26.5398 H   0  0  0  0  0  0
  -28.2617  -38.0090   24.7527 H   0  0  0  0  0  0
  -28.1091  -36.2628   24.6288 H   0  0  0  0  0  0
  -27.2289  -37.1444   25.8859 H   0  0  0  0  0  0
  -20.9406  -29.8743   21.6836 H   0  0  0  0  0  0
  -26.0180  -38.2852   24.1421 H   0  0  0  0  0  0
  -27.5185  -16.1564   21.7216 H   0  0  0  0  0  0
  -30.7211  -18.7238   20.4249 H   0  0  0  0  0  0
  -27.0779  -23.2383   20.0677 H   0  0  0  0  0  0
  -27.6433  -23.9933   21.4929 H   0  0  0  0  0  0
  -27.9787  -24.9297   18.7402 H   0  0  0  0  0  0
  -29.4986  -24.8269   19.5110 H   0  0  0  0  0  0
  -28.6051  -22.0046   21.9008 H   0  0  0  0  0  0
  -29.9356  -22.7210   21.1058 H   0  0  0  0  0  0
  -30.0519  -16.7187   23.1736 H   0  0  0  0  0  0
  -25.3992  -17.1429   22.1510 H   0  0  0  0  0  0
  -25.1079  -18.8099   21.9707 H   0  0  0  0  0  0
  -25.5986  -20.3679   21.3393 H   0  0  0  0  0  0
  -26.8084  -21.4717   20.8772 H   0  0  0  0  0  0
  1 25  1  0  0  0
  1 30  2  0  0  0
  1 77  1  0  0  0
  2  3  1  0  0  0
  2 25  1  0  0  0
  2 85  1  0  0  0
  2 86  1  0  0  0
  3  4  1  0  0  0
  3 87  1  0  0  0
  3 88  1  0  0  0
  4  5  1  0  0  0
  4 89  1  0  0  0
  4 90  1  0  0  0
  5  6  1  0  0  0
  5 26  1  0  0  0
  5 91  1  0  0  0
  6 25  1  0  0  0
  6 92  1  0  0  0
  6 93  1  0  0  0
  7  8  2  0  0  0
  7 26  1  0  0  0
  7 29  1  0  0  0
  8  9  1  0  0  0
  8 22  1  0  0  0
  9 10  1  0  0  0
  9 27  2  0  0  0
 10 11  2  0  0  0
 10 15  1  0  0  0
 11 12  1  0  0  0
 11 94  1  0  0  0
 12 13  2  0  0  0
 12 95  1  0  0  0
 13 14  1  0  0  0
 13 31  1  0  0  0
 14 15  2  0  0  0
 14 96  1  0  0  0
 15 97  1  0  0  0
 16 17  2  0  0  0
 16 21  1  0  0  0
 16 31  1  0  0  0
 17 18  1  0  0  0
 17 98  1  0  0  0
 18 19  2  0  0  0
 18 99  1  0  0  0
 19 20  1  0  0  0
 19 24  1  0  0  0
 20 21  2  0  0  0
 20100  1  0  0  0
 21 23  1  0  0  0
 22 28  1  0  0  0
 22 32  2  0  0  0
 26 27  1  0  0  0
 28101  1  0  0  0
 28102  1  0  0  0
 29103  1  0  0  0
 29104  1  0  0  0
 33 34  1  0  0  0
 33 66  1  0  0  0
 33 70  2  0  0  0
 34 36  1  0  0  0
 34 59  1  0  0  0
 34105  1  0  0  0
 35 44  2  0  0  0
 35 45  1  0  0  0
 35 68  1  0  0  0
 36 56  1  0  0  0
 36106  1  0  0  0
 37 39  1  0  0  0
 37 47  1  0  0  0
 37 66  1  0  0  0
 37107  1  0  0  0
 38 43  2  0  0  0
 38 46  1  0  0  0
 38 47  1  0  0  0
 39 64  1  0  0  0
 39 67  2  0  0  0
 40 52  1  0  0  0
 40 53  2  0  0  0
 40 58  1  0  0  0
 41108  1  0  0  0
 41109  1  0  0  0
 41110  1  0  0  0
 41 48  1  0  0  0
 42 43  1  0  0  0
 42 66  1  0  0  0
 42111  1  0  0  0
 42112  1  0  0  0
 43 44  1  0  0  0
 44113  1  0  0  0
 45 46  2  0  0  0
 45114  1  0  0  0
 46115  1  0  0  0
 47116  1  0  0  0
 47117  1  0  0  0
 48 56  1  0  0  0
 48 65  1  0  0  0
 48118  1  0  0  0
 49 50  1  0  0  0
 49 53  1  0  0  0
 49 64  1  0  0  0
 49119  1  0  0  0
 50 51  1  0  0  0
 50120  1  0  0  0
 50121  1  0  0  0
 51 52  1  0  0  0
 51122  1  0  0  0
 51123  1  0  0  0
 52124  1  0  0  0
 52125  1  0  0  0
 53 54  1  0  0  0
 54 55  2  0  0  0
 54126  1  0  0  0
 55 57  1  0  0  0
 55127  1  0  0  0
 56 69  2  0  0  0
 57 58  2  0  0  0
 57128  1  0  0  0
 58129  1  0  0  0
 59 60  1  0  0  0
 59 61  1  0  0  0
 59 62  1  0  0  0
 60130  1  0  0  0
 60131  1  0  0  0
 60132  1  0  0  0
 61133  1  0  0  0
 61134  1  0  0  0
 61135  1  0  0  0
 62136  1  0  0  0
 62137  1  0  0  0
 62138  1  0  0  0
 63 65  1  0  0  0
 63139  1  0  0  0
 63140  1  0  0  0
 63141  1  0  0  0
 64142  1  0  0  0
 65143  1  0  0  0
 68 79  1  0  0  0
 71 73  2  0  0  0
 71 74  1  0  0  0
 71144  1  0  0  0
 72 73  1  0  0  0
 72 76  2  0  0  0
 72145  1  0  0  0
 73 77  1  0  0  0
 74 75  2  0  0  0
 74 82  1  0  0  0
 75 76  1  0  0  0
 75 83  1  0  0  0
 76 84  1  0  0  0
 77 81  2  0  0  0
 78 79  1  0  0  0
 78 80  1  0  0  0
 78146  1  0  0  0
 78147  1  0  0  0
 79148  1  0  0  0
 79149  1  0  0  0
 80 84  1  0  0  0
 80150  1  0  0  0
 80151  1  0  0  0
 81152  1  0  0  0
 82153  1  0  0  0
 82154  1  0  0  0
 83155  1  0  0  0
 83156  1  0  0  0
M  ISO  4   1 100  68 101  77 100  79 101
M  END
> <chiral flag>
0

> <version>
0

> <s_m_source_file>
/data/baiqing/PycharmProjects/Reinvent-master-3.2/result/LINK_invent/BTK/process_docking_weight1_custom_product_contain_oxygen_bond_distance_aromatic_linkinvent_7_9_3/rearranged_h_0095.sdf

> <i_m_source_file_index>
83

> <r_mmod_Potential_Energy-OPLS-2005>
350.833709716797

> <r_mmod_Stretch_Energy-OPLS-2005>
159.306457519531

> <r_mmod_Bend_Energy-OPLS-2005>
271.954315185547

> <r_mmod_Torsional_Energy-OPLS-2005>
273.470825195312

> <r_mmod_Improper_Torsional_Energy-OPLS-2005>
11.0132913589478

> <r_mmod_Van_der_Waal_Energy-OPLS-2005>
136.829254150391

> <r_mmod_Electrostatic_Energy-OPLS-2005>
-380.112701416016

> <r_mmod_Solvation_Energy-OPLS-2005>
-216.314575195312

> <b_mmod_Minimization_Converged-OPLS-2005>
0

> <r_mmod_RMS_Derivative-OPLS-2005>
2.06284952163696

$$$$
83
                    3D
 Structure written by MMmdl.
161170  0  0  1  0            999 V2000
  -30.6324  -14.6223   20.5612 C   0  0  0  0  0  0
  -30.4326  -12.4015   19.4482 C   0  0  0  0  0  0
  -29.5026  -12.5357   18.2198 C   0  0  0  0  0  0
  -28.0227  -12.3672   18.6217 C   0  0  0  0  0  0
  -27.6522  -13.2103   19.8695 C   0  0  2  0  0  0
  -28.6890  -13.0003   20.9894 C   0  0  0  0  0  0
  -25.2539  -13.8148   20.5673 C   0  0  0  0  0  0
  -24.1809  -13.0428   20.9161 C   0  0  0  0  0  0
  -24.6378  -11.6892   20.8723 C   0  0  0  0  0  0
  -23.9054  -10.4291   21.0404 C   0  0  0  0  0  0
  -24.3609   -9.4206   21.9187 C   0  0  0  0  0  0
  -23.6285   -8.2244   22.0758 C   0  0  0  0  0  0
  -22.4269   -8.0279   21.3543 C   0  0  0  0  0  0
  -21.9903   -9.0249   20.4643 C   0  0  0  0  0  0
  -22.7230  -10.2129   20.3049 C   0  0  0  0  0  0
  -21.6852   -6.0722   22.5275 C   0  0  0  0  0  0
  -21.4019   -6.5630   23.8206 C   0  0  0  0  0  0
  -21.3658   -5.6787   24.9170 C   0  0  0  0  0  0
  -21.6044   -4.3049   24.7227 C   0  0  0  0  0  0
  -21.8819   -3.8140   23.4354 C   0  0  0  0  0  0
  -21.9193   -4.6952   22.3402 C   0  0  0  0  0  0
  -22.7841  -13.5217   21.1859 C   0  0  0  0  0  0
  -22.1661   -4.2134   21.0984 F   0  0  0  0  0  0
  -21.5628   -3.4543   25.7750 F   0  0  0  0  0  0
  -30.0080  -13.3956   20.4615 N   0  0  0  0  0  0
  -26.2968  -12.9323   20.3317 N   0  0  0  0  0  0
  -25.9291  -11.6481   20.5714 N   0  0  0  0  0  0
  -22.0489  -12.8204   22.0417 N   0  0  0  0  0  0
  -25.4263  -15.1872   20.4120 N   0  0  0  0  0  0
  -31.7296  -14.8182   20.0247 O   0  0  0  0  0  0
  -21.6634   -6.8872   21.4239 O   0  0  0  0  0  0
  -22.3530  -14.5537   20.6724 O   0  0  0  0  0  0
  -24.6217  -31.8620   23.2068 C   0  0  0  0  0  0
  -25.9071  -32.4792   23.8393 C   0  0  1  0  0  0
  -27.2247  -27.3553   20.1166 C   0  0  0  0  0  0
  -25.5892  -33.8590   24.2307 N   0  0  0  0  0  0
  -23.4140  -30.4847   21.5507 C   0  0  2  0  0  0
  -24.8610  -28.9407   20.1183 C   0  0  0  0  0  0
  -22.7442  -29.4647   22.4996 C   0  0  0  0  0  0
  -18.0267  -28.1377   22.8497 C   0  0  0  0  0  0
  -24.1484  -36.7297   23.2640 C   0  0  0  0  0  0
  -25.9513  -30.8079   21.3688 C   0  0  0  0  0  0
  -26.0282  -29.4350   20.7135 C   0  0  0  0  0  0
  -27.2183  -28.6545   20.6993 C   0  0  0  0  0  0
  -26.0399  -26.8965   19.5040 C   0  0  0  0  0  0
  -24.8644  -27.6737   19.5110 C   0  0  0  0  0  0
  -23.6264  -29.8177   20.1676 C   0  0  0  0  0  0
  -25.4105  -36.3090   24.0340 C   0  0  1  0  0  0
  -20.5860  -28.3686   23.1300 C   0  0  2  0  0  0
  -20.6764  -26.9416   22.5423 C   0  0  0  0  0  0
  -19.5748  -26.6397   21.5214 C   0  0  0  0  0  0
  -18.1914  -26.7927   22.1612 C   0  0  0  0  0  0
  -19.1518  -28.8841   23.2884 C   0  0  0  0  0  0
  -18.9455  -30.1437   23.8905 C   0  0  0  0  0  0
  -17.6469  -30.6596   24.0561 C   0  0  0  0  0  0
  -25.9048  -34.9452   23.5132 C   0  0  0  0  0  0
  -16.5352  -29.9101   23.6330 C   0  0  0  0  0  0
  -16.7261  -28.6502   23.0377 C   0  0  0  0  0  0
  -26.4484  -31.6601   25.0746 C   0  0  0  0  0  0
  -25.3735  -31.3657   26.1482 C   0  0  0  0  0  0
  -27.0364  -30.3054   24.6161 C   0  0  0  0  0  0
  -27.6070  -32.4325   25.7498 C   0  0  0  0  0  0
  -27.5585  -37.1777   24.8446 C   0  0  0  0  0  0
  -21.4168  -29.3041   22.3702 N   0  0  0  0  0  0
  -26.4272  -37.3810   23.9435 N   0  0  0  0  0  0
  -24.6813  -31.0658   22.1005 N   0  0  0  0  0  0
  -23.4172  -28.8180   23.3059 O   0  0  0  0  0  0
  -28.3554  -26.5422   20.1134 O   0  0  0  0  0  0
  -26.5647  -34.8897   22.4719 O   0  0  0  0  0  0
  -23.5391  -32.1427   23.7419 O   0  0  0  0  0  0
  -30.4526  -18.2911   21.5835 C   0  0  0  0  0  0
  -30.3017  -19.6602   21.2184 C   0  0  0  0  0  0
  -29.1518  -17.6187   19.6791 C   0  0  0  0  0  0
  -29.8955  -17.2242   20.8244 C   0  0  0  0  0  0
  -29.5738  -20.0495   20.0665 C   0  0  0  0  0  0
  -28.9847  -18.9905   19.3087 C   0  0  0  0  0  0
  -30.4307  -21.7892   18.6298 C   0  0  0  0  0  0
  -29.9397  -15.7890   21.3629 C   0  0  0  0  0  0
  -30.5039  -23.2362   18.1203 C   0  0  0  0  0  0
  -30.1380  -24.2915   19.1683 C   0  0  0  0  0  0
  -28.8370  -22.5298   20.3955 C   0  0  0  0  0  0
  -28.7571  -23.9816   19.7366 C   0  0  1  0  0  0
  -28.2246  -25.1733   20.6365 C   0  0  0  0  0  0
  -29.4677  -15.6097   22.5257 N   0  0  0  0  0  0
  -29.5649  -21.4514   19.6265 N   0  0  0  0  0  0
  -28.2069  -19.2809   18.1875 N   0  0  0  0  0  0
  -31.1770  -20.9711   18.0802 O   0  0  0  0  0  0
  -31.4735  -12.5279   19.1483 H   0  0  0  0  0  0
  -30.3716  -11.3926   19.8583 H   0  0  0  0  0  0
  -29.7686  -11.7982   17.4602 H   0  0  0  0  0  0
  -29.6441  -13.5140   17.7569 H   0  0  0  0  0  0
  -27.8533  -11.3091   18.8284 H   0  0  0  0  0  0
  -27.3700  -12.6203   17.7850 H   0  0  0  0  0  0
  -27.6886  -14.2575   19.5695 H   0  0  0  0  0  0
  -28.7095  -11.9492   21.2832 H   0  0  0  0  0  0
  -28.3879  -13.5199   21.8926 H   0  0  0  0  0  0
  -25.2747   -9.5680   22.4768 H   0  0  0  0  0  0
  -23.9990   -7.4628   22.7471 H   0  0  0  0  0  0
  -21.0834   -8.8746   19.8952 H   0  0  0  0  0  0
  -22.3671  -10.9660   19.6156 H   0  0  0  0  0  0
  -21.2018   -7.6141   23.9703 H   0  0  0  0  0  0
  -21.1479   -6.0524   25.9067 H   0  0  0  0  0  0
  -22.0604   -2.7606   23.2855 H   0  0  0  0  0  0
  -22.4106  -11.9847   22.4775 H   0  0  0  0  0  0
  -21.1105  -13.1213   22.2646 H   0  0  0  0  0  0
  -24.6632  -15.8447   20.5267 H   0  0  0  0  0  0
  -26.2928  -15.6304   20.1364 H   0  0  0  0  0  0
  -26.7145  -32.5499   23.1151 H   0  0  0  0  0  0
  -24.9997  -33.9780   25.0421 H   0  0  0  0  0  0
  -22.7061  -31.3041   21.4089 H   0  0  0  0  0  0
  -23.3768  -35.9601   23.3266 H   0  0  0  0  0  0
  -24.3573  -36.8980   22.2064 H   0  0  0  0  0  0
  -23.7212  -37.6466   23.6706 H   0  0  0  0  0  0
  -26.0737  -31.5717   20.5987 H   0  0  0  0  0  0
  -26.8331  -30.8594   21.9962 H   0  0  0  0  0  0
  -28.1182  -29.0313   21.1653 H   0  0  0  0  0  0
  -26.0224  -25.9264   19.0237 H   0  0  0  0  0  0
  -23.9653  -27.2907   19.0490 H   0  0  0  0  0  0
  -23.7376  -30.5938   19.4111 H   0  0  0  0  0  0
  -22.7466  -29.2445   19.8728 H   0  0  0  0  0  0
  -25.1266  -36.1961   25.0834 H   0  0  0  0  0  0
  -20.9929  -28.3265   24.1426 H   0  0  0  0  0  0
  -20.5699  -26.2279   23.3606 H   0  0  0  0  0  0
  -21.6628  -26.7485   22.1186 H   0  0  0  0  0  0
  -19.6939  -25.6312   21.1234 H   0  0  0  0  0  0
  -19.6701  -27.3198   20.6733 H   0  0  0  0  0  0
  -17.4194  -26.6674   21.4001 H   0  0  0  0  0  0
  -18.0314  -26.0058   22.8996 H   0  0  0  0  0  0
  -19.7942  -30.7229   24.2299 H   0  0  0  0  0  0
  -17.5038  -31.6286   24.5149 H   0  0  0  0  0  0
  -15.5349  -30.3015   23.7679 H   0  0  0  0  0  0
  -15.8644  -28.0828   22.7132 H   0  0  0  0  0  0
  -24.5927  -30.7000   25.7778 H   0  0  0  0  0  0
  -24.8887  -32.2768   26.4989 H   0  0  0  0  0  0
  -25.8062  -30.8783   27.0230 H   0  0  0  0  0  0
  -26.2947  -29.6749   24.1234 H   0  0  0  0  0  0
  -27.4172  -29.7334   25.4632 H   0  0  0  0  0  0
  -27.8745  -30.4384   23.9314 H   0  0  0  0  0  0
  -27.2748  -33.3658   26.2045 H   0  0  0  0  0  0
  -28.3876  -32.6835   25.0307 H   0  0  0  0  0  0
  -28.0738  -31.8472   26.5431 H   0  0  0  0  0  0
  -28.2526  -38.0147   24.7614 H   0  0  0  0  0  0
  -28.1157  -36.2688   24.6129 H   0  0  0  0  0  0
  -27.2307  -37.1246   25.8839 H   0  0  0  0  0  0
  -20.9354  -29.8730   21.6875 H   0  0  0  0  0  0
  -26.0150  -38.2872   24.1503 H   0  0  0  0  0  0
  -31.0026  -18.0577   22.4845 H   0  0  0  0  0  0
  -30.7801  -20.4194   21.8222 H   0  0  0  0  0  0
  -28.6648  -16.8497   19.0967 H   0  0  0  0  0  0
  -29.8376  -23.3193   17.2615 H   0  0  0  0  0  0
  -31.5091  -23.4279   17.7431 H   0  0  0  0  0  0
  -30.1464  -25.2781   18.7051 H   0  0  0  0  0  0
  -30.8853  -24.3169   19.9637 H   0  0  0  0  0  0
  -27.8279  -22.1773   20.6106 H   0  0  0  0  0  0
  -29.3331  -22.6183   21.3620 H   0  0  0  0  0  0
  -28.0638  -23.9195   18.8959 H   0  0  0  0  0  0
  -28.7785  -25.1631   21.5770 H   0  0  0  0  0  0
  -27.1936  -24.9634   20.9231 H   0  0  0  0  0  0
  -29.0944  -16.4767   22.8937 H   0  0  0  0  0  0
  -27.8785  -18.5521   17.5627 H   0  0  0  0  0  0
  -28.1701  -20.2168   17.7997 H   0  0  0  0  0  0
  1 25  1  0  0  0
  1 30  2  0  0  0
  1 78  1  0  0  0
  2  3  1  0  0  0
  2 25  1  0  0  0
  2 88  1  0  0  0
  2 89  1  0  0  0
  3  4  1  0  0  0
  3 90  1  0  0  0
  3 91  1  0  0  0
  4  5  1  0  0  0
  4 92  1  0  0  0
  4 93  1  0  0  0
  5  6  1  0  0  0
  5 26  1  0  0  0
  5 94  1  0  0  0
  6 25  1  0  0  0
  6 95  1  0  0  0
  6 96  1  0  0  0
  7  8  2  0  0  0
  7 26  1  0  0  0
  7 29  1  0  0  0
  8  9  1  0  0  0
  8 22  1  0  0  0
  9 10  1  0  0  0
  9 27  2  0  0  0
 10 11  2  0  0  0
 10 15  1  0  0  0
 11 12  1  0  0  0
 11 97  1  0  0  0
 12 13  2  0  0  0
 12 98  1  0  0  0
 13 14  1  0  0  0
 13 31  1  0  0  0
 14 15  2  0  0  0
 14 99  1  0  0  0
 15100  1  0  0  0
 16 17  2  0  0  0
 16 21  1  0  0  0
 16 31  1  0  0  0
 17 18  1  0  0  0
 17101  1  0  0  0
 18 19  2  0  0  0
 18102  1  0  0  0
 19 20  1  0  0  0
 19 24  1  0  0  0
 20 21  2  0  0  0
 20103  1  0  0  0
 21 23  1  0  0  0
 22 28  1  0  0  0
 22 32  2  0  0  0
 26 27  1  0  0  0
 28104  1  0  0  0
 28105  1  0  0  0
 29106  1  0  0  0
 29107  1  0  0  0
 33 34  1  0  0  0
 33 66  1  0  0  0
 33 70  2  0  0  0
 34 36  1  0  0  0
 34 59  1  0  0  0
 34108  1  0  0  0
 35 44  2  0  0  0
 35 45  1  0  0  0
 35 68  1  0  0  0
 36 56  1  0  0  0
 36109  1  0  0  0
 37 39  1  0  0  0
 37 47  1  0  0  0
 37 66  1  0  0  0
 37110  1  0  0  0
 38 43  2  0  0  0
 38 46  1  0  0  0
 38 47  1  0  0  0
 39 64  1  0  0  0
 39 67  2  0  0  0
 40 52  1  0  0  0
 40 53  2  0  0  0
 40 58  1  0  0  0
 41111  1  0  0  0
 41112  1  0  0  0
 41113  1  0  0  0
 41 48  1  0  0  0
 42 43  1  0  0  0
 42 66  1  0  0  0
 42114  1  0  0  0
 42115  1  0  0  0
 43 44  1  0  0  0
 44116  1  0  0  0
 45 46  2  0  0  0
 45117  1  0  0  0
 46118  1  0  0  0
 47119  1  0  0  0
 47120  1  0  0  0
 48 56  1  0  0  0
 48 65  1  0  0  0
 48121  1  0  0  0
 49 50  1  0  0  0
 49 53  1  0  0  0
 49 64  1  0  0  0
 49122  1  0  0  0
 50 51  1  0  0  0
 50123  1  0  0  0
 50124  1  0  0  0
 51 52  1  0  0  0
 51125  1  0  0  0
 51126  1  0  0  0
 52127  1  0  0  0
 52128  1  0  0  0
 53 54  1  0  0  0
 54 55  2  0  0  0
 54129  1  0  0  0
 55 57  1  0  0  0
 55130  1  0  0  0
 56 69  2  0  0  0
 57 58  2  0  0  0
 57131  1  0  0  0
 58132  1  0  0  0
 59 60  1  0  0  0
 59 61  1  0  0  0
 59 62  1  0  0  0
 60133  1  0  0  0
 60134  1  0  0  0
 60135  1  0  0  0
 61136  1  0  0  0
 61137  1  0  0  0
 61138  1  0  0  0
 62139  1  0  0  0
 62140  1  0  0  0
 62141  1  0  0  0
 63 65  1  0  0  0
 63142  1  0  0  0
 63143  1  0  0  0
 63144  1  0  0  0
 64145  1  0  0  0
 65146  1  0  0  0
 68 83  1  0  0  0
 71 72  2  0  0  0
 71 74  1  0  0  0
 71147  1  0  0  0
 72 75  1  0  0  0
 72148  1  0  0  0
 73 74  2  0  0  0
 73 76  1  0  0  0
 73149  1  0  0  0
 74 78  1  0  0  0
 75 76  2  0  0  0
 75 85  1  0  0  0
 76 86  1  0  0  0
 77 79  1  0  0  0
 77 85  1  0  0  0
 77 87  2  0  0  0
 78 84  2  0  0  0
 79 80  1  0  0  0
 79150  1  0  0  0
 79151  1  0  0  0
 80 82  1  0  0  0
 80152  1  0  0  0
 80153  1  0  0  0
 81 82  1  0  0  0
 81 85  1  0  0  0
 81154  1  0  0  0
 81155  1  0  0  0
 82 83  1  0  0  0
 82156  1  0  0  0
 83157  1  0  0  0
 83158  1  0  0  0
 84159  1  0  0  0
 86160  1  0  0  0
 86161  1  0  0  0
M  ISO  4   1 100  68 101  78 100  83 101
M  END
> <chiral flag>
0

> <version>
0

> <s_m_source_file>
/data/baiqing/PycharmProjects/Reinvent-master-3.2/result/LINK_invent/BTK/process_docking_weight1_custom_product_contain_oxygen_bond_distance_aromatic_linkinvent_7_9_3/rearranged_h_0095.sdf

> <i_m_source_file_index>
84

> <r_mmod_Potential_Energy-OPLS-2005>
247.244171142578

> <r_mmod_Stretch_Energy-OPLS-2005>
86.4728317260742

> <r_mmod_Bend_Energy-OPLS-2005>
147.04736328125

> <r_mmod_Torsional_Energy-OPLS-2005>
303.219207763672

> <r_mmod_Improper_Torsional_Energy-OPLS-2005>
5.07793140411377

> <r_mmod_Van_der_Waal_Energy-OPLS-2005>
152.885894775391

> <r_mmod_Electrostatic_Energy-OPLS-2005>
-259.406311035156

> <r_mmod_Solvation_Energy-OPLS-2005>
-224.026168823242

> <b_mmod_Minimization_Converged-OPLS-2005>
0

> <r_mmod_RMS_Derivative-OPLS-2005>
2.85099244117737

$$$$
84
                    3D
 Structure written by MMmdl.
149157  0  0  1  0            999 V2000
  -30.6973  -14.6722   20.4675 C   0  0  0  0  0  0
  -30.4091  -12.4140   19.4645 C   0  0  0  0  0  0
  -29.4958  -12.4919   18.2258 C   0  0  0  0  0  0
  -28.0234  -12.3308   18.6448 C   0  0  0  0  0  0
  -27.6382  -13.2362   19.8465 C   0  0  2  0  0  0
  -28.6867  -13.1846   20.9796 C   0  0  0  0  0  0
  -25.2496  -13.8216   20.5719 C   0  0  0  0  0  0
  -24.1790  -13.0449   20.9208 C   0  0  0  0  0  0
  -24.6390  -11.6930   20.8754 C   0  0  0  0  0  0
  -23.9074  -10.4298   21.0406 C   0  0  0  0  0  0
  -24.3623   -9.4212   21.9185 C   0  0  0  0  0  0
  -23.6301   -8.2245   22.0753 C   0  0  0  0  0  0
  -22.4283   -8.0282   21.3544 C   0  0  0  0  0  0
  -21.9917   -9.0255   20.4646 C   0  0  0  0  0  0
  -22.7244  -10.2136   20.3056 C   0  0  0  0  0  0
  -21.6854   -6.0737   22.5279 C   0  0  0  0  0  0
  -21.4017   -6.5642   23.8213 C   0  0  0  0  0  0
  -21.3659   -5.6794   24.9174 C   0  0  0  0  0  0
  -21.6044   -4.3058   24.7225 C   0  0  0  0  0  0
  -21.8820   -3.8148   23.4348 C   0  0  0  0  0  0
  -21.9194   -4.6963   22.3403 C   0  0  0  0  0  0
  -22.7810  -13.5221   21.1864 C   0  0  0  0  0  0
  -22.1662   -4.2149   21.0981 F   0  0  0  0  0  0
  -21.5626   -3.4540   25.7738 F   0  0  0  0  0  0
  -29.9897  -13.4969   20.3838 N   0  0  0  0  0  0
  -26.2927  -12.9436   20.3300 N   0  0  0  0  0  0
  -25.9324  -11.6571   20.5770 N   0  0  0  0  0  0
  -22.0463  -12.8210   22.0423 N   0  0  0  0  0  0
  -25.4181  -15.1943   20.4170 N   0  0  0  0  0  0
  -31.8937  -14.6466   20.1690 O   0  0  0  0  0  0
  -21.6644   -6.8881   21.4243 O   0  0  0  0  0  0
  -22.3488  -14.5522   20.6709 O   0  0  0  0  0  0
  -24.6278  -31.8587   23.2026 C   0  0  0  0  0  0
  -25.9122  -32.4772   23.8356 C   0  0  1  0  0  0
  -27.2109  -27.3048   20.1246 C   0  0  0  0  0  0
  -25.5935  -33.8575   24.2283 N   0  0  0  0  0  0
  -23.4218  -30.4840   21.5449 C   0  0  2  0  0  0
  -24.8681  -28.9401   20.1075 C   0  0  0  0  0  0
  -22.7480  -29.4626   22.4926 C   0  0  0  0  0  0
  -18.0289  -28.1386   22.8493 C   0  0  0  0  0  0
  -24.1489  -36.7291   23.2639 C   0  0  0  0  0  0
  -25.9647  -30.7855   21.3762 C   0  0  0  0  0  0
  -26.0384  -29.4125   20.7178 C   0  0  0  0  0  0
  -27.2177  -28.6062   20.7177 C   0  0  0  0  0  0
  -26.0282  -26.8980   19.4721 C   0  0  0  0  0  0
  -24.8660  -27.6893   19.4730 C   0  0  0  0  0  0
  -23.6367  -29.8217   20.1589 C   0  0  0  0  0  0
  -25.4114  -36.3081   24.0330 C   0  0  1  0  0  0
  -20.5892  -28.3690   23.1280 C   0  0  2  0  0  0
  -20.6780  -26.9411   22.5410 C   0  0  0  0  0  0
  -19.5752  -26.6386   21.5215 C   0  0  0  0  0  0
  -18.1933  -26.7930   22.1632 C   0  0  0  0  0  0
  -19.1542  -28.8855   23.2883 C   0  0  0  0  0  0
  -18.9465  -30.1460   23.8895 C   0  0  0  0  0  0
  -17.6463  -30.6588   24.0565 C   0  0  0  0  0  0
  -25.9050  -34.9450   23.5104 C   0  0  0  0  0  0
  -16.5355  -29.9086   23.6333 C   0  0  0  0  0  0
  -16.7276  -28.6504   23.0354 C   0  0  0  0  0  0
  -26.4500  -31.6584   25.0727 C   0  0  0  0  0  0
  -25.3733  -31.3736   26.1455 C   0  0  0  0  0  0
  -27.0337  -30.3006   24.6187 C   0  0  0  0  0  0
  -27.6064  -32.4316   25.7492 C   0  0  0  0  0  0
  -27.5578  -37.1800   24.8465 C   0  0  0  0  0  0
  -21.4192  -29.3047   22.3671 N   0  0  0  0  0  0
  -26.4291  -37.3776   23.9408 N   0  0  0  0  0  0
  -24.6902  -31.0592   22.0980 N   0  0  0  0  0  0
  -23.4195  -28.8159   23.3005 O   0  0  0  0  0  0
  -28.2793  -26.3966   20.1742 O   0  0  0  0  0  0
  -26.5612  -34.8922   22.4666 O   0  0  0  0  0  0
  -23.5440  -32.1391   23.7349 O   0  0  0  0  0  0
  -30.5839  -19.6159   20.0669 C   0  0  0  0  0  0
  -30.0702  -20.9489   20.0721 C   0  0  0  0  0  0
  -28.0604  -20.1111   21.0695 C   0  0  0  0  0  0
  -29.8753  -18.4853   20.5815 C   0  0  0  0  0  0
  -28.7908  -21.2480   20.6046 C   0  0  0  0  0  0
  -28.5738  -18.7720   21.0677 C   0  0  0  0  0  0
  -28.6752  -23.7381   20.3971 C   0  0  0  0  0  0
  -30.6157  -17.1284   20.7321 C   0  0  0  0  0  0
  -27.9554  -25.0892   20.8143 C   0  0  0  0  0  0
  -28.2191  -22.5664   20.7612 N   0  0  0  0  0  0
  -30.0283  -15.8761   20.6419 N   0  0  0  0  0  0
  -31.8337  -17.2486   20.9187 O   0  0  0  0  0  0
  -27.8150  -17.7715   21.5787 F   0  0  0  0  0  0
  -31.4538  -12.4891   19.1586 H   0  0  0  0  0  0
  -30.3155  -11.4426   19.9533 H   0  0  0  0  0  0
  -29.7665  -11.7172   17.5071 H   0  0  0  0  0  0
  -29.6367  -13.4472   17.7169 H   0  0  0  0  0  0
  -27.8742  -11.2832   18.9096 H   0  0  0  0  0  0
  -27.3641  -12.5248   17.7979 H   0  0  0  0  0  0
  -27.6295  -14.2557   19.4602 H   0  0  0  0  0  0
  -28.7084  -12.1990   21.4471 H   0  0  0  0  0  0
  -28.4384  -13.8963   21.7686 H   0  0  0  0  0  0
  -25.2769   -9.5687   22.4759 H   0  0  0  0  0  0
  -24.0009   -7.4635   22.7473 H   0  0  0  0  0  0
  -21.0846   -8.8771   19.8953 H   0  0  0  0  0  0
  -22.3700  -10.9673   19.6163 H   0  0  0  0  0  0
  -21.2011   -7.6151   23.9716 H   0  0  0  0  0  0
  -21.1480   -6.0525   25.9078 H   0  0  0  0  0  0
  -22.0599   -2.7610   23.2847 H   0  0  0  0  0  0
  -22.4088  -11.9878   22.4817 H   0  0  0  0  0  0
  -21.1076  -13.1223   22.2627 H   0  0  0  0  0  0
  -24.6572  -15.8504   20.5544 H   0  0  0  0  0  0
  -26.2793  -15.6450   20.1375 H   0  0  0  0  0  0
  -26.7183  -32.5434   23.1098 H   0  0  0  0  0  0
  -25.0099  -33.9722   25.0439 H   0  0  0  0  0  0
  -22.7174  -31.3063   21.4033 H   0  0  0  0  0  0
  -23.3754  -35.9620   23.3301 H   0  0  0  0  0  0
  -24.3586  -36.8905   22.2053 H   0  0  0  0  0  0
  -23.7240  -37.6497   23.6654 H   0  0  0  0  0  0
  -26.0983  -31.5482   20.6077 H   0  0  0  0  0  0
  -26.8451  -30.8336   22.0053 H   0  0  0  0  0  0
  -28.1120  -28.9582   21.2129 H   0  0  0  0  0  0
  -25.9904  -25.9375   18.9776 H   0  0  0  0  0  0
  -23.9720  -27.3257   18.9851 H   0  0  0  0  0  0
  -23.7562  -30.5997   19.4038 H   0  0  0  0  0  0
  -22.7560  -29.2523   19.8551 H   0  0  0  0  0  0
  -25.1295  -36.1930   25.0823 H   0  0  0  0  0  0
  -20.9992  -28.3259   24.1398 H   0  0  0  0  0  0
  -20.5693  -26.2294   23.3609 H   0  0  0  0  0  0
  -21.6646  -26.7445   22.1193 H   0  0  0  0  0  0
  -19.6907  -25.6298   21.1241 H   0  0  0  0  0  0
  -19.6683  -27.3202   20.6750 H   0  0  0  0  0  0
  -17.4203  -26.6683   21.4031 H   0  0  0  0  0  0
  -18.0331  -26.0073   22.9027 H   0  0  0  0  0  0
  -19.7938  -30.7282   24.2255 H   0  0  0  0  0  0
  -17.5017  -31.6268   24.5164 H   0  0  0  0  0  0
  -15.5355  -30.2986   23.7661 H   0  0  0  0  0  0
  -15.8678  -28.0823   22.7064 H   0  0  0  0  0  0
  -24.5895  -30.7097   25.7791 H   0  0  0  0  0  0
  -24.8945  -32.2912   26.4881 H   0  0  0  0  0  0
  -25.8060  -30.8908   27.0227 H   0  0  0  0  0  0
  -26.2906  -29.6759   24.1214 H   0  0  0  0  0  0
  -27.4035  -29.7258   25.4690 H   0  0  0  0  0  0
  -27.8780  -30.4295   23.9410 H   0  0  0  0  0  0
  -27.2681  -33.3628   26.2052 H   0  0  0  0  0  0
  -28.3882  -32.6852   25.0319 H   0  0  0  0  0  0
  -28.0720  -31.8445   26.5419 H   0  0  0  0  0  0
  -28.2596  -38.0096   24.7515 H   0  0  0  0  0  0
  -28.1071  -36.2630   24.6285 H   0  0  0  0  0  0
  -27.2300  -37.1440   25.8868 H   0  0  0  0  0  0
  -20.9363  -29.8771   21.6887 H   0  0  0  0  0  0
  -26.0170  -38.2848   24.1417 H   0  0  0  0  0  0
  -31.5872  -19.4706   19.6908 H   0  0  0  0  0  0
  -30.6994  -21.7426   19.6943 H   0  0  0  0  0  0
  -27.0741  -20.2665   21.4829 H   0  0  0  0  0  0
  -29.5915  -23.8624   19.8142 H   0  0  0  0  0  0
  -28.1613  -25.2289   21.8759 H   0  0  0  0  0  0
  -26.8853  -24.8858   20.7799 H   0  0  0  0  0  0
  -29.0227  -15.8514   20.6549 H   0  0  0  0  0  0
  1 25  1  0  0  0
  1 30  2  0  0  0
  1 81  1  0  0  0
  2  3  1  0  0  0
  2 25  1  0  0  0
  2 84  1  0  0  0
  2 85  1  0  0  0
  3  4  1  0  0  0
  3 86  1  0  0  0
  3 87  1  0  0  0
  4  5  1  0  0  0
  4 88  1  0  0  0
  4 89  1  0  0  0
  5  6  1  0  0  0
  5 26  1  0  0  0
  5 90  1  0  0  0
  6 25  1  0  0  0
  6 91  1  0  0  0
  6 92  1  0  0  0
  7  8  2  0  0  0
  7 26  1  0  0  0
  7 29  1  0  0  0
  8  9  1  0  0  0
  8 22  1  0  0  0
  9 10  1  0  0  0
  9 27  2  0  0  0
 10 11  2  0  0  0
 10 15  1  0  0  0
 11 12  1  0  0  0
 11 93  1  0  0  0
 12 13  2  0  0  0
 12 94  1  0  0  0
 13 14  1  0  0  0
 13 31  1  0  0  0
 14 15  2  0  0  0
 14 95  1  0  0  0
 15 96  1  0  0  0
 16 17  2  0  0  0
 16 21  1  0  0  0
 16 31  1  0  0  0
 17 18  1  0  0  0
 17 97  1  0  0  0
 18 19  2  0  0  0
 18 98  1  0  0  0
 19 20  1  0  0  0
 19 24  1  0  0  0
 20 21  2  0  0  0
 20 99  1  0  0  0
 21 23  1  0  0  0
 22 28  1  0  0  0
 22 32  2  0  0  0
 26 27  1  0  0  0
 28100  1  0  0  0
 28101  1  0  0  0
 29102  1  0  0  0
 29103  1  0  0  0
 33 34  1  0  0  0
 33 66  1  0  0  0
 33 70  2  0  0  0
 34 36  1  0  0  0
 34 59  1  0  0  0
 34104  1  0  0  0
 35 44  2  0  0  0
 35 45  1  0  0  0
 35 68  1  0  0  0
 36 56  1  0  0  0
 36105  1  0  0  0
 37 39  1  0  0  0
 37 47  1  0  0  0
 37 66  1  0  0  0
 37106  1  0  0  0
 38 43  2  0  0  0
 38 46  1  0  0  0
 38 47  1  0  0  0
 39 64  1  0  0  0
 39 67  2  0  0  0
 40 52  1  0  0  0
 40 53  2  0  0  0
 40 58  1  0  0  0
 41107  1  0  0  0
 41108  1  0  0  0
 41109  1  0  0  0
 41 48  1  0  0  0
 42 43  1  0  0  0
 42 66  1  0  0  0
 42110  1  0  0  0
 42111  1  0  0  0
 43 44  1  0  0  0
 44112  1  0  0  0
 45 46  2  0  0  0
 45113  1  0  0  0
 46114  1  0  0  0
 47115  1  0  0  0
 47116  1  0  0  0
 48 56  1  0  0  0
 48 65  1  0  0  0
 48117  1  0  0  0
 49 50  1  0  0  0
 49 53  1  0  0  0
 49 64  1  0  0  0
 49118  1  0  0  0
 50 51  1  0  0  0
 50119  1  0  0  0
 50120  1  0  0  0
 51 52  1  0  0  0
 51121  1  0  0  0
 51122  1  0  0  0
 52123  1  0  0  0
 52124  1  0  0  0
 53 54  1  0  0  0
 54 55  2  0  0  0
 54125  1  0  0  0
 55 57  1  0  0  0
 55126  1  0  0  0
 56 69  2  0  0  0
 57 58  2  0  0  0
 57127  1  0  0  0
 58128  1  0  0  0
 59 60  1  0  0  0
 59 61  1  0  0  0
 59 62  1  0  0  0
 60129  1  0  0  0
 60130  1  0  0  0
 60131  1  0  0  0
 61132  1  0  0  0
 61133  1  0  0  0
 61134  1  0  0  0
 62135  1  0  0  0
 62136  1  0  0  0
 62137  1  0  0  0
 63 65  1  0  0  0
 63138  1  0  0  0
 63139  1  0  0  0
 63140  1  0  0  0
 64141  1  0  0  0
 65142  1  0  0  0
 68 79  1  0  0  0
 71 72  2  0  0  0
 71 74  1  0  0  0
 71143  1  0  0  0
 72 75  1  0  0  0
 72144  1  0  0  0
 73 75  2  0  0  0
 73 76  1  0  0  0
 73145  1  0  0  0
 74 76  2  0  0  0
 74 78  1  0  0  0
 75 80  1  0  0  0
 76 83  1  0  0  0
 77 79  1  0  0  0
 77 80  2  0  0  0
 77146  1  0  0  0
 78 81  1  0  0  0
 78 82  2  0  0  0
 79147  1  0  0  0
 79148  1  0  0  0
 81149  1  0  0  0
M  ISO  4   1 100  68 101  79 101  81 100
M  END
> <chiral flag>
0

> <version>
0

> <s_m_source_file>
/data/baiqing/PycharmProjects/Reinvent-master-3.2/result/LINK_invent/BTK/process_docking_weight1_custom_product_contain_oxygen_bond_distance_aromatic_linkinvent_7_9_3/rearranged_h_0095.sdf

> <i_m_source_file_index>
85

> <r_mmod_Potential_Energy-OPLS-2005>
112.583511352539

> <r_mmod_Stretch_Energy-OPLS-2005>
91.4567794799805

> <r_mmod_Bend_Energy-OPLS-2005>
169.932464599609

> <r_mmod_Torsional_Energy-OPLS-2005>
239.018981933594

> <r_mmod_Improper_Torsional_Energy-OPLS-2005>
6.20280027389526

> <r_mmod_Van_der_Waal_Energy-OPLS-2005>
156.562911987305

> <r_mmod_Electrostatic_Energy-OPLS-2005>
-402.642517089844

> <r_mmod_Solvation_Energy-OPLS-2005>
-216.218353271484

> <b_mmod_Minimization_Converged-OPLS-2005>
0

> <r_mmod_RMS_Derivative-OPLS-2005>
0.673451483249664

$$$$
85
                    3D
 Structure written by MMmdl.
167175  0  0  1  0            999 V2000
  -30.7143  -14.4236   20.4782 C   0  0  0  0  0  0
  -30.4140  -12.2456   19.4323 C   0  0  0  0  0  0
  -29.4956  -12.4626   18.2104 C   0  0  0  0  0  0
  -28.0126  -12.3461   18.6177 C   0  0  0  0  0  0
  -27.6562  -13.1943   19.8663 C   0  0  2  0  0  0
  -28.7004  -13.0060   20.9904 C   0  0  0  0  0  0
  -25.2600  -13.8132   20.5687 C   0  0  0  0  0  0
  -24.1837  -13.0427   20.9171 C   0  0  0  0  0  0
  -24.6373  -11.6892   20.8725 C   0  0  0  0  0  0
  -23.9042  -10.4286   21.0401 C   0  0  0  0  0  0
  -24.3603   -9.4209   21.9179 C   0  0  0  0  0  0
  -23.6286   -8.2243   22.0747 C   0  0  0  0  0  0
  -22.4269   -8.0281   21.3541 C   0  0  0  0  0  0
  -21.9898   -9.0249   20.4639 C   0  0  0  0  0  0
  -22.7219  -10.2127   20.3048 C   0  0  0  0  0  0
  -21.6852   -6.0735   22.5270 C   0  0  0  0  0  0
  -21.4016   -6.5640   23.8200 C   0  0  0  0  0  0
  -21.3655   -5.6792   24.9159 C   0  0  0  0  0  0
  -21.6040   -4.3057   24.7211 C   0  0  0  0  0  0
  -21.8823   -3.8146   23.4332 C   0  0  0  0  0  0
  -21.9193   -4.6964   22.3394 C   0  0  0  0  0  0
  -22.7874  -13.5255   21.1845 C   0  0  0  0  0  0
  -22.1663   -4.2152   21.0971 F   0  0  0  0  0  0
  -21.5624   -3.4540   25.7726 F   0  0  0  0  0  0
  -30.0416  -13.2474   20.4370 N   0  0  0  0  0  0
  -26.3001  -12.9265   20.3334 N   0  0  0  0  0  0
  -25.9297  -11.6443   20.5767 N   0  0  0  0  0  0
  -22.0507  -12.8237   22.0391 N   0  0  0  0  0  0
  -25.4370  -15.1843   20.4167 N   0  0  0  0  0  0
  -31.8992  -14.5593   20.1636 O   0  0  0  0  0  0
  -21.6639   -6.8875   21.4232 O   0  0  0  0  0  0
  -22.3575  -14.5574   20.6717 O   0  0  0  0  0  0
  -24.6100  -31.8701   23.2141 C   0  0  0  0  0  0
  -25.9023  -32.4828   23.8415 C   0  0  1  0  0  0
  -27.2470  -27.4869   20.0642 C   0  0  0  0  0  0
  -25.5898  -33.8624   24.2341 N   0  0  0  0  0  0
  -23.3954  -30.4944   21.5529 C   0  0  2  0  0  0
  -24.8415  -28.9617   20.1170 C   0  0  0  0  0  0
  -22.7384  -29.4672   22.5014 C   0  0  0  0  0  0
  -18.0253  -28.1388   22.8496 C   0  0  0  0  0  0
  -24.1482  -36.7328   23.2638 C   0  0  0  0  0  0
  -25.9199  -30.8437   21.3646 C   0  0  0  0  0  0
  -25.9959  -29.4797   20.7163 C   0  0  0  0  0  0
  -27.1953  -28.7405   20.7042 C   0  0  0  0  0  0
  -26.0706  -26.9621   19.4806 C   0  0  0  0  0  0
  -24.8694  -27.6955   19.5060 C   0  0  0  0  0  0
  -23.6009  -29.8233   20.1676 C   0  0  0  0  0  0
  -25.4100  -36.3113   24.0338 C   0  0  1  0  0  0
  -20.5847  -28.3669   23.1339 C   0  0  2  0  0  0
  -20.6749  -26.9407   22.5438 C   0  0  0  0  0  0
  -19.5735  -26.6387   21.5224 C   0  0  0  0  0  0
  -18.1902  -26.7943   22.1609 C   0  0  0  0  0  0
  -19.1504  -28.8842   23.2915 C   0  0  0  0  0  0
  -18.9437  -30.1452   23.8919 C   0  0  0  0  0  0
  -17.6439  -30.6593   24.0569 C   0  0  0  0  0  0
  -25.9032  -34.9482   23.5135 C   0  0  0  0  0  0
  -16.5327  -29.9096   23.6330 C   0  0  0  0  0  0
  -16.7239  -28.6515   23.0343 C   0  0  0  0  0  0
  -26.4452  -31.6600   25.0734 C   0  0  0  0  0  0
  -25.3735  -31.3717   26.1500 C   0  0  0  0  0  0
  -27.0259  -30.3035   24.6112 C   0  0  0  0  0  0
  -27.6053  -32.4303   25.7479 C   0  0  0  0  0  0
  -27.5584  -37.1804   24.8447 C   0  0  0  0  0  0
  -21.4117  -29.3040   22.3751 N   0  0  0  0  0  0
  -26.4278  -37.3804   23.9416 N   0  0  0  0  0  0
  -24.6595  -31.0833   22.1026 N   0  0  0  0  0  0
  -23.4172  -28.8212   23.3043 O   0  0  0  0  0  0
  -28.4507  -26.8246   20.0322 O   0  0  0  0  0  0
  -26.5599  -34.8926   22.4696 O   0  0  0  0  0  0
  -23.5307  -32.1437   23.7569 O   0  0  0  0  0  0
  -29.8212  -20.3884   19.5752 C   0  0  0  0  0  0
  -29.6275  -21.7788   19.5877 C   0  0  0  0  0  0
  -30.4911  -21.9175   17.3142 C   0  0  0  0  0  0
  -30.3263  -19.7443   18.4260 C   0  0  0  0  0  0
  -30.6850  -20.5195   17.2891 C   0  0  0  0  0  0
  -29.9341  -22.5488   18.4441 C   0  0  0  0  0  0
  -30.5057  -18.2720   18.4786 C   0  0  0  0  0  0
  -29.8604  -15.7165   20.4310 C   0  0  0  0  0  0
  -28.7627  -24.6564   19.0005 C   0  0  0  0  0  0
  -31.2334  -19.8863   16.0178 C   0  0  0  0  0  0
  -29.1308  -16.5133   16.2688 C   0  0  0  0  0  0
  -27.0205  -16.7194   17.6199 C   0  0  0  0  0  0
  -28.8087  -26.1739   18.8109 C   0  0  0  0  0  0
  -29.2253  -17.4306   18.7249 C   0  0  1  0  0  0
  -28.4229  -17.3067   17.3918 C   0  0  0  0  0  0
  -29.7349  -23.9513   18.3988 N   0  0  0  0  0  0
  -29.6147  -16.0978   19.1704 N   0  0  0  0  0  0
  -31.6080  -17.7440   18.2904 O   0  0  0  0  0  0
  -29.5339  -16.3430   21.4418 O   0  0  0  0  0  0
  -27.8564  -24.1471   19.6677 O   0  0  0  0  0  0
  -31.4637  -12.3105   19.1376 H   0  0  0  0  0  0
  -30.2814  -11.2410   19.8374 H   0  0  0  0  0  0
  -29.7229  -11.7267   17.4380 H   0  0  0  0  0  0
  -29.6838  -13.4382   17.7629 H   0  0  0  0  0  0
  -27.8126  -11.2942   18.8203 H   0  0  0  0  0  0
  -27.3675  -12.6194   17.7822 H   0  0  0  0  0  0
  -27.6805  -14.2326   19.5503 H   0  0  0  0  0  0
  -28.6511  -11.9927   21.3920 H   0  0  0  0  0  0
  -28.4898  -13.6719   21.8290 H   0  0  0  0  0  0
  -25.2747   -9.5689   22.4753 H   0  0  0  0  0  0
  -23.9991   -7.4638   22.7475 H   0  0  0  0  0  0
  -21.0820   -8.8769   19.8957 H   0  0  0  0  0  0
  -22.3680  -10.9668   19.6157 H   0  0  0  0  0  0
  -21.2014   -7.6149   23.9705 H   0  0  0  0  0  0
  -21.1469   -6.0517   25.9060 H   0  0  0  0  0  0
  -22.0610   -2.7612   23.2822 H   0  0  0  0  0  0
  -22.4110  -11.9884   22.4743 H   0  0  0  0  0  0
  -21.1136  -13.1272   22.2625 H   0  0  0  0  0  0
  -24.6749  -15.8430   20.5280 H   0  0  0  0  0  0
  -26.3011  -15.6232   20.1274 H   0  0  0  0  0  0
  -26.7107  -32.5535   23.1192 H   0  0  0  0  0  0
  -25.0029  -33.9790   25.0473 H   0  0  0  0  0  0
  -22.6830  -31.3104   21.4154 H   0  0  0  0  0  0
  -23.3740  -35.9664   23.3269 H   0  0  0  0  0  0
  -24.3590  -36.8972   22.2060 H   0  0  0  0  0  0
  -23.7224  -37.6523   23.6665 H   0  0  0  0  0  0
  -26.0312  -31.6111   20.5971 H   0  0  0  0  0  0
  -26.8094  -30.8943   21.9811 H   0  0  0  0  0  0
  -28.0902  -29.1433   21.1590 H   0  0  0  0  0  0
  -26.0742  -25.9939   19.0019 H   0  0  0  0  0  0
  -23.9795  -27.2867   19.0469 H   0  0  0  0  0  0
  -23.7042  -30.5954   19.4042 H   0  0  0  0  0  0
  -22.7264  -29.2381   19.8759 H   0  0  0  0  0  0
  -25.1272  -36.1975   25.0830 H   0  0  0  0  0  0
  -20.9938  -28.3227   24.1462 H   0  0  0  0  0  0
  -20.5625  -26.2288   23.3630 H   0  0  0  0  0  0
  -21.6621  -26.7441   22.1240 H   0  0  0  0  0  0
  -19.6890  -25.6294   21.1249 H   0  0  0  0  0  0
  -19.6686  -27.3201   20.6761 H   0  0  0  0  0  0
  -17.4199  -26.6732   21.3981 H   0  0  0  0  0  0
  -18.0259  -26.0060   22.8971 H   0  0  0  0  0  0
  -19.7915  -30.7263   24.2296 H   0  0  0  0  0  0
  -17.4995  -31.6276   24.5157 H   0  0  0  0  0  0
  -15.5327  -30.3002   23.7646 H   0  0  0  0  0  0
  -15.8643  -28.0837   22.7042 H   0  0  0  0  0  0
  -24.5931  -30.7019   25.7859 H   0  0  0  0  0  0
  -24.8900  -32.2879   26.4914 H   0  0  0  0  0  0
  -25.8116  -30.8933   27.0273 H   0  0  0  0  0  0
  -26.2797  -29.6817   24.1156 H   0  0  0  0  0  0
  -27.3990  -29.7246   25.4568 H   0  0  0  0  0  0
  -27.8656  -30.4307   23.9278 H   0  0  0  0  0  0
  -27.2693  -33.3600   26.2081 H   0  0  0  0  0  0
  -28.3859  -32.6860   25.0299 H   0  0  0  0  0  0
  -28.0733  -31.8411   26.5372 H   0  0  0  0  0  0
  -28.2584  -38.0119   24.7531 H   0  0  0  0  0  0
  -28.1095  -36.2661   24.6205 H   0  0  0  0  0  0
  -27.2332  -37.1377   25.8856 H   0  0  0  0  0  0
  -20.9275  -29.8781   21.6990 H   0  0  0  0  0  0
  -26.0165  -38.2878   24.1430 H   0  0  0  0  0  0
  -29.5772  -19.8218   20.4638 H   0  0  0  0  0  0
  -29.2405  -22.2377   20.4870 H   0  0  0  0  0  0
  -30.7472  -22.5082   16.4447 H   0  0  0  0  0  0
  -31.4480  -20.6356   15.2550 H   0  0  0  0  0  0
  -30.5095  -19.1910   15.5932 H   0  0  0  0  0  0
  -32.1599  -19.3458   16.2146 H   0  0  0  0  0  0
  -28.5517  -16.5535   15.3454 H   0  0  0  0  0  0
  -29.2473  -15.4607   16.5237 H   0  0  0  0  0  0
  -30.1206  -16.9057   16.0374 H   0  0  0  0  0  0
  -26.4171  -16.7909   16.7145 H   0  0  0  0  0  0
  -26.4877  -17.2511   18.4081 H   0  0  0  0  0  0
  -27.0634  -15.6665   17.8936 H   0  0  0  0  0  0
  -28.1874  -26.4654   17.9628 H   0  0  0  0  0  0
  -29.8247  -26.4815   18.5606 H   0  0  0  0  0  0
  -28.6067  -17.9124   19.4831 H   0  0  0  0  0  0
  -28.2655  -18.3195   17.0153 H   0  0  0  0  0  0
  -30.3462  -24.4770   17.7881 H   0  0  0  0  0  0
  -30.0239  -15.5086   18.4598 H   0  0  0  0  0  0
  1 25  1  0  0  0
  1 30  2  0  0  0
  1 78  1  0  0  0
  2  3  1  0  0  0
  2 25  1  0  0  0
  2 91  1  0  0  0
  2 92  1  0  0  0
  3  4  1  0  0  0
  3 93  1  0  0  0
  3 94  1  0  0  0
  4  5  1  0  0  0
  4 95  1  0  0  0
  4 96  1  0  0  0
  5  6  1  0  0  0
  5 26  1  0  0  0
  5 97  1  0  0  0
  6 25  1  0  0  0
  6 98  1  0  0  0
  6 99  1  0  0  0
  7  8  2  0  0  0
  7 26  1  0  0  0
  7 29  1  0  0  0
  8  9  1  0  0  0
  8 22  1  0  0  0
  9 10  1  0  0  0
  9 27  2  0  0  0
 10 11  2  0  0  0
 10 15  1  0  0  0
 11 12  1  0  0  0
 11100  1  0  0  0
 12 13  2  0  0  0
 12101  1  0  0  0
 13 14  1  0  0  0
 13 31  1  0  0  0
 14 15  2  0  0  0
 14102  1  0  0  0
 15103  1  0  0  0
 16 17  2  0  0  0
 16 21  1  0  0  0
 16 31  1  0  0  0
 17 18  1  0  0  0
 17104  1  0  0  0
 18 19  2  0  0  0
 18105  1  0  0  0
 19 20  1  0  0  0
 19 24  1  0  0  0
 20 21  2  0  0  0
 20106  1  0  0  0
 21 23  1  0  0  0
 22 28  1  0  0  0
 22 32  2  0  0  0
 26 27  1  0  0  0
 28107  1  0  0  0
 28108  1  0  0  0
 29109  1  0  0  0
 29110  1  0  0  0
 33 34  1  0  0  0
 33 66  1  0  0  0
 33 70  2  0  0  0
 34 36  1  0  0  0
 34 59  1  0  0  0
 34111  1  0  0  0
 35 44  2  0  0  0
 35 45  1  0  0  0
 35 68  1  0  0  0
 36 56  1  0  0  0
 36112  1  0  0  0
 37 39  1  0  0  0
 37 47  1  0  0  0
 37 66  1  0  0  0
 37113  1  0  0  0
 38 43  2  0  0  0
 38 46  1  0  0  0
 38 47  1  0  0  0
 39 64  1  0  0  0
 39 67  2  0  0  0
 40 52  1  0  0  0
 40 53  2  0  0  0
 40 58  1  0  0  0
 41114  1  0  0  0
 41115  1  0  0  0
 41116  1  0  0  0
 41 48  1  0  0  0
 42 43  1  0  0  0
 42 66  1  0  0  0
 42117  1  0  0  0
 42118  1  0  0  0
 43 44  1  0  0  0
 44119  1  0  0  0
 45 46  2  0  0  0
 45120  1  0  0  0
 46121  1  0  0  0
 47122  1  0  0  0
 47123  1  0  0  0
 48 56  1  0  0  0
 48 65  1  0  0  0
 48124  1  0  0  0
 49 50  1  0  0  0
 49 53  1  0  0  0
 49 64  1  0  0  0
 49125  1  0  0  0
 50 51  1  0  0  0
 50126  1  0  0  0
 50127  1  0  0  0
 51 52  1  0  0  0
 51128  1  0  0  0
 51129  1  0  0  0
 52130  1  0  0  0
 52131  1  0  0  0
 53 54  1  0  0  0
 54 55  2  0  0  0
 54132  1  0  0  0
 55 57  1  0  0  0
 55133  1  0  0  0
 56 69  2  0  0  0
 57 58  2  0  0  0
 57134  1  0  0  0
 58135  1  0  0  0
 59 60  1  0  0  0
 59 61  1  0  0  0
 59 62  1  0  0  0
 60136  1  0  0  0
 60137  1  0  0  0
 60138  1  0  0  0
 61139  1  0  0  0
 61140  1  0  0  0
 61141  1  0  0  0
 62142  1  0  0  0
 62143  1  0  0  0
 62144  1  0  0  0
 63 65  1  0  0  0
 63145  1  0  0  0
 63146  1  0  0  0
 63147  1  0  0  0
 64148  1  0  0  0
 65149  1  0  0  0
 68 83  1  0  0  0
 71 72  2  0  0  0
 71 74  1  0  0  0
 71150  1  0  0  0
 72 76  1  0  0  0
 72151  1  0  0  0
 73 75  1  0  0  0
 73 76  2  0  0  0
 73152  1  0  0  0
 74 75  2  0  0  0
 74 77  1  0  0  0
 75 80  1  0  0  0
 76 86  1  0  0  0
 77 84  1  0  0  0
 77 88  2  0  0  0
 78 87  1  0  0  0
 78 89  2  0  0  0
 79 83  1  0  0  0
 79 86  1  0  0  0
 79 90  2  0  0  0
 80153  1  0  0  0
 80154  1  0  0  0
 80155  1  0  0  0
 81156  1  0  0  0
 81157  1  0  0  0
 81158  1  0  0  0
 81 85  1  0  0  0
 82 85  1  0  0  0
 82159  1  0  0  0
 82160  1  0  0  0
 82161  1  0  0  0
 83162  1  0  0  0
 83163  1  0  0  0
 84 85  1  0  0  0
 84 87  1  0  0  0
 84164  1  0  0  0
 85165  1  0  0  0
 86166  1  0  0  0
 87167  1  0  0  0
M  ISO  4   1 100  68 101  78 100  83 101
M  END
> <chiral flag>
0

> <version>
0

> <s_m_source_file>
/data/baiqing/PycharmProjects/Reinvent-master-3.2/result/LINK_invent/BTK/process_docking_weight1_custom_product_contain_oxygen_bond_distance_aromatic_linkinvent_7_9_3/rearranged_h_0095.sdf

> <i_m_source_file_index>
86

> <r_mmod_Potential_Energy-OPLS-2005>
98.9690170288086

> <r_mmod_Stretch_Energy-OPLS-2005>
34.2928161621094

> <r_mmod_Bend_Energy-OPLS-2005>
100.431846618652

> <r_mmod_Torsional_Energy-OPLS-2005>
273.759918212891

> <r_mmod_Improper_Torsional_Energy-OPLS-2005>
14.565447807312

> <r_mmod_Van_der_Waal_Energy-OPLS-2005>
147.398590087891

> <r_mmod_Electrostatic_Energy-OPLS-2005>
-243.925109863281

> <r_mmod_Solvation_Energy-OPLS-2005>
-244.106307983398

> <b_mmod_Minimization_Converged-OPLS-2005>
0

> <r_mmod_RMS_Derivative-OPLS-2005>
1.65057575702667

$$$$
86
                    3D
 Structure written by MMmdl.
154162  0  0  1  0            999 V2000
  -30.6424  -14.7107   20.3404 C   0  0  0  0  0  0
  -30.4382  -12.3990   19.4540 C   0  0  0  0  0  0
  -29.5013  -12.3925   18.2252 C   0  0  0  0  0  0
  -28.0207  -12.2797   18.6486 C   0  0  0  0  0  0
  -27.6303  -13.2075   19.8311 C   0  0  2  0  0  0
  -28.6958  -13.1924   20.9471 C   0  0  0  0  0  0
  -25.2461  -13.8026   20.5840 C   0  0  0  0  0  0
  -24.1739  -13.0306   20.9267 C   0  0  0  0  0  0
  -24.6346  -11.6807   20.8791 C   0  0  0  0  0  0
  -23.9032  -10.4214   21.0427 C   0  0  0  0  0  0
  -24.3588   -9.4137   21.9201 C   0  0  0  0  0  0
  -23.6261   -8.2181   22.0754 C   0  0  0  0  0  0
  -22.4246   -8.0238   21.3535 C   0  0  0  0  0  0
  -21.9882   -9.0213   20.4639 C   0  0  0  0  0  0
  -22.7214  -10.2085   20.3061 C   0  0  0  0  0  0
  -21.6832   -6.0716   22.5281 C   0  0  0  0  0  0
  -21.4000   -6.5627   23.8213 C   0  0  0  0  0  0
  -21.3656   -5.6783   24.9177 C   0  0  0  0  0  0
  -21.6046   -4.3047   24.7230 C   0  0  0  0  0  0
  -21.8822   -3.8136   23.4351 C   0  0  0  0  0  0
  -21.9186   -4.6948   22.3405 C   0  0  0  0  0  0
  -22.7772  -13.5136   21.1902 C   0  0  0  0  0  0
  -22.1657   -4.2138   21.0981 F   0  0  0  0  0  0
  -21.5631   -3.4531   25.7743 F   0  0  0  0  0  0
  -30.0040  -13.4909   20.3440 N   0  0  0  0  0  0
  -26.2894  -12.9244   20.3328 N   0  0  0  0  0  0
  -25.9273  -11.6411   20.5814 N   0  0  0  0  0  0
  -22.0407  -12.8145   22.0458 N   0  0  0  0  0  0
  -25.4024  -15.1732   20.4471 N   0  0  0  0  0  0
  -31.8730  -14.7795   20.3254 O   0  0  0  0  0  0
  -21.6604   -6.8847   21.4237 O   0  0  0  0  0  0
  -22.3484  -14.5455   20.6746 O   0  0  0  0  0  0
  -24.6234  -31.8611   23.2040 C   0  0  0  0  0  0
  -25.9089  -32.4786   23.8366 C   0  0  1  0  0  0
  -27.2345  -27.3387   20.1206 C   0  0  0  0  0  0
  -25.5913  -33.8588   24.2291 N   0  0  0  0  0  0
  -23.4180  -30.4832   21.5452 C   0  0  2  0  0  0
  -24.8688  -28.9399   20.1121 C   0  0  0  0  0  0
  -22.7463  -29.4626   22.4941 C   0  0  0  0  0  0
  -18.0283  -28.1384   22.8486 C   0  0  0  0  0  0
  -24.1490  -36.7298   23.2638 C   0  0  0  0  0  0
  -25.9569  -30.7955   21.3758 C   0  0  0  0  0  0
  -26.0335  -29.4228   20.7225 C   0  0  0  0  0  0
  -27.2183  -28.6309   20.7237 C   0  0  0  0  0  0
  -26.0529  -26.9106   19.4725 C   0  0  0  0  0  0
  -24.8784  -27.6869   19.4794 C   0  0  0  0  0  0
  -23.6342  -29.8164   20.1608 C   0  0  0  0  0  0
  -25.4112  -36.3089   24.0333 C   0  0  1  0  0  0
  -20.5880  -28.3685   23.1287 C   0  0  2  0  0  0
  -20.6771  -26.9408   22.5415 C   0  0  0  0  0  0
  -19.5752  -26.6382   21.5212 C   0  0  0  0  0  0
  -18.1927  -26.7930   22.1617 C   0  0  0  0  0  0
  -19.1533  -28.8849   23.2887 C   0  0  0  0  0  0
  -18.9459  -30.1450   23.8905 C   0  0  0  0  0  0
  -17.6461  -30.6587   24.0563 C   0  0  0  0  0  0
  -25.9044  -34.9457   23.5112 C   0  0  0  0  0  0
  -16.5350  -29.9086   23.6328 C   0  0  0  0  0  0
  -16.7270  -28.6501   23.0351 C   0  0  0  0  0  0
  -26.4481  -31.6591   25.0730 C   0  0  0  0  0  0
  -25.3721  -31.3724   26.1460 C   0  0  0  0  0  0
  -27.0314  -30.3013   24.6174 C   0  0  0  0  0  0
  -27.6052  -32.4318   25.7490 C   0  0  0  0  0  0
  -27.5583  -37.1801   24.8462 C   0  0  0  0  0  0
  -21.4178  -29.3041   22.3684 N   0  0  0  0  0  0
  -26.4293  -37.3781   23.9409 N   0  0  0  0  0  0
  -24.6843  -31.0631   22.0988 N   0  0  0  0  0  0
  -23.4189  -28.8167   23.3021 O   0  0  0  0  0  0
  -28.3531  -26.4950   20.1526 O   0  0  0  0  0  0
  -26.5614  -34.8920   22.4679 O   0  0  0  0  0  0
  -23.5400  -32.1403   23.7373 O   0  0  0  0  0  0
  -30.8933  -18.1138   20.5195 C   0  0  0  0  0  0
  -28.5644  -19.5630   20.0019 C   0  0  0  0  0  0
  -29.7746  -17.3600   20.0637 C   0  0  0  0  0  0
  -28.5916  -18.1520   19.8272 C   0  0  0  0  0  0
  -29.6983  -20.3067   20.3932 C   0  0  0  0  0  0
  -30.8636  -19.5383   20.6639 C   0  0  0  0  0  0
  -28.1534  -25.1173   20.3751 C   0  0  0  0  0  0
  -29.8828  -15.8854   19.5923 C   0  0  0  0  0  0
  -29.0841  -24.1138   20.2770 C   0  0  0  0  0  0
  -28.7068  -22.6841   20.4969 C   0  0  0  0  0  0
  -27.2880  -17.5795   19.2943 C   0  0  0  0  0  0
  -29.4194  -15.6517   18.4361 N   0  0  0  0  0  0
  -29.7256  -21.7724   20.4214 N   0  0  0  0  0  0
  -27.5524  -22.3323   20.7518 O   0  0  0  0  0  0
  -30.3530  -24.4169   19.9645 O   0  0  0  0  0  0
  -31.9969  -20.1833   21.0319 F   0  0  0  0  0  0
  -31.4751  -12.5226   19.1357 H   0  0  0  0  0  0
  -30.3917  -11.4444   19.9804 H   0  0  0  0  0  0
  -29.7552  -11.5528   17.5773 H   0  0  0  0  0  0
  -29.6574  -13.2777   17.6132 H   0  0  0  0  0  0
  -27.8545  -11.2403   18.9339 H   0  0  0  0  0  0
  -27.3682  -12.4632   17.7945 H   0  0  0  0  0  0
  -27.5825  -14.2086   19.4187 H   0  0  0  0  0  0
  -28.7224  -12.2231   21.4462 H   0  0  0  0  0  0
  -28.4528  -13.9307   21.7135 H   0  0  0  0  0  0
  -25.2729   -9.5609   22.4782 H   0  0  0  0  0  0
  -23.9962   -7.4564   22.7467 H   0  0  0  0  0  0
  -21.0815   -8.8736   19.8942 H   0  0  0  0  0  0
  -22.3683  -10.9633   19.6175 H   0  0  0  0  0  0
  -21.1984   -7.6134   23.9713 H   0  0  0  0  0  0
  -21.1479   -6.0513   25.9081 H   0  0  0  0  0  0
  -22.0607   -2.7598   23.2853 H   0  0  0  0  0  0
  -22.4011  -11.9795   22.4829 H   0  0  0  0  0  0
  -21.1039  -13.1192   22.2690 H   0  0  0  0  0  0
  -24.6350  -15.8224   20.5798 H   0  0  0  0  0  0
  -26.2687  -15.6216   20.1862 H   0  0  0  0  0  0
  -26.7158  -32.5465   23.1120 H   0  0  0  0  0  0
  -25.0070  -33.9741   25.0441 H   0  0  0  0  0  0
  -22.7114  -31.3032   21.4010 H   0  0  0  0  0  0
  -23.3753  -35.9629   23.3298 H   0  0  0  0  0  0
  -24.3586  -36.8918   22.2054 H   0  0  0  0  0  0
  -23.7239  -37.6501   23.6657 H   0  0  0  0  0  0
  -26.0859  -31.5575   20.6060 H   0  0  0  0  0  0
  -26.8379  -30.8468   22.0039 H   0  0  0  0  0  0
  -28.1117  -28.9944   21.2115 H   0  0  0  0  0  0
  -26.0263  -25.9551   18.9682 H   0  0  0  0  0  0
  -23.9884  -27.3140   18.9913 H   0  0  0  0  0  0
  -23.7512  -30.5921   19.4032 H   0  0  0  0  0  0
  -22.7562  -29.2427   19.8593 H   0  0  0  0  0  0
  -25.1292  -36.1947   25.0826 H   0  0  0  0  0  0
  -20.9972  -28.3257   24.1409 H   0  0  0  0  0  0
  -20.5659  -26.2298   23.3616 H   0  0  0  0  0  0
  -21.6643  -26.7432   22.1217 H   0  0  0  0  0  0
  -19.6914  -25.6290   21.1247 H   0  0  0  0  0  0
  -19.6696  -27.3190   20.6739 H   0  0  0  0  0  0
  -17.4202  -26.6684   21.4014 H   0  0  0  0  0  0
  -18.0323  -26.0066   22.9005 H   0  0  0  0  0  0
  -19.7935  -30.7264   24.2282 H   0  0  0  0  0  0
  -17.5015  -31.6270   24.5157 H   0  0  0  0  0  0
  -15.5353  -30.2992   23.7649 H   0  0  0  0  0  0
  -15.8669  -28.0824   22.7067 H   0  0  0  0  0  0
  -24.5932  -30.7021   25.7804 H   0  0  0  0  0  0
  -24.8866  -32.2881   26.4844 H   0  0  0  0  0  0
  -25.8061  -30.8955   27.0258 H   0  0  0  0  0  0
  -26.2880  -29.6777   24.1193 H   0  0  0  0  0  0
  -27.4004  -29.7255   25.4672 H   0  0  0  0  0  0
  -27.8756  -30.4295   23.9396 H   0  0  0  0  0  0
  -27.2673  -33.3619   26.2072 H   0  0  0  0  0  0
  -28.3856  -32.6873   25.0311 H   0  0  0  0  0  0
  -28.0727  -31.8441   26.5400 H   0  0  0  0  0  0
  -28.2598  -38.0101   24.7510 H   0  0  0  0  0  0
  -28.1082  -36.2633   24.6280 H   0  0  0  0  0  0
  -27.2308  -37.1442   25.8868 H   0  0  0  0  0  0
  -20.9352  -29.8771   21.6904 H   0  0  0  0  0  0
  -26.0178  -38.2858   24.1410 H   0  0  0  0  0  0
  -31.8322  -17.6064   20.6839 H   0  0  0  0  0  0
  -27.6503  -20.0832   19.7559 H   0  0  0  0  0  0
  -27.1315  -24.8914   20.6512 H   0  0  0  0  0  0
  -26.4398  -17.9735   19.8556 H   0  0  0  0  0  0
  -27.2389  -16.5014   19.3549 H   0  0  0  0  0  0
  -27.1563  -17.8602   18.2488 H   0  0  0  0  0  0
  -29.0151  -16.4906   18.0402 H   0  0  0  0  0  0
  -30.6422  -22.1943   20.3478 H   0  0  0  0  0  0
  -30.3900  -25.3594   19.8592 H   0  0  0  0  0  0
  1 25  1  0  0  0
  1 30  2  0  0  0
  1 78  1  0  0  0
  2  3  1  0  0  0
  2 25  1  0  0  0
  2 87  1  0  0  0
  2 88  1  0  0  0
  3  4  1  0  0  0
  3 89  1  0  0  0
  3 90  1  0  0  0
  4  5  1  0  0  0
  4 91  1  0  0  0
  4 92  1  0  0  0
  5  6  1  0  0  0
  5 26  1  0  0  0
  5 93  1  0  0  0
  6 25  1  0  0  0
  6 94  1  0  0  0
  6 95  1  0  0  0
  7  8  2  0  0  0
  7 26  1  0  0  0
  7 29  1  0  0  0
  8  9  1  0  0  0
  8 22  1  0  0  0
  9 10  1  0  0  0
  9 27  2  0  0  0
 10 11  2  0  0  0
 10 15  1  0  0  0
 11 12  1  0  0  0
 11 96  1  0  0  0
 12 13  2  0  0  0
 12 97  1  0  0  0
 13 14  1  0  0  0
 13 31  1  0  0  0
 14 15  2  0  0  0
 14 98  1  0  0  0
 15 99  1  0  0  0
 16 17  2  0  0  0
 16 21  1  0  0  0
 16 31  1  0  0  0
 17 18  1  0  0  0
 17100  1  0  0  0
 18 19  2  0  0  0
 18101  1  0  0  0
 19 20  1  0  0  0
 19 24  1  0  0  0
 20 21  2  0  0  0
 20102  1  0  0  0
 21 23  1  0  0  0
 22 28  1  0  0  0
 22 32  2  0  0  0
 26 27  1  0  0  0
 28103  1  0  0  0
 28104  1  0  0  0
 29105  1  0  0  0
 29106  1  0  0  0
 33 34  1  0  0  0
 33 66  1  0  0  0
 33 70  2  0  0  0
 34 36  1  0  0  0
 34 59  1  0  0  0
 34107  1  0  0  0
 35 44  2  0  0  0
 35 45  1  0  0  0
 35 68  1  0  0  0
 36 56  1  0  0  0
 36108  1  0  0  0
 37 39  1  0  0  0
 37 47  1  0  0  0
 37 66  1  0  0  0
 37109  1  0  0  0
 38 43  2  0  0  0
 38 46  1  0  0  0
 38 47  1  0  0  0
 39 64  1  0  0  0
 39 67  2  0  0  0
 40 52  1  0  0  0
 40 53  2  0  0  0
 40 58  1  0  0  0
 41110  1  0  0  0
 41111  1  0  0  0
 41112  1  0  0  0
 41 48  1  0  0  0
 42 43  1  0  0  0
 42 66  1  0  0  0
 42113  1  0  0  0
 42114  1  0  0  0
 43 44  1  0  0  0
 44115  1  0  0  0
 45 46  2  0  0  0
 45116  1  0  0  0
 46117  1  0  0  0
 47118  1  0  0  0
 47119  1  0  0  0
 48 56  1  0  0  0
 48 65  1  0  0  0
 48120  1  0  0  0
 49 50  1  0  0  0
 49 53  1  0  0  0
 49 64  1  0  0  0
 49121  1  0  0  0
 50 51  1  0  0  0
 50122  1  0  0  0
 50123  1  0  0  0
 51 52  1  0  0  0
 51124  1  0  0  0
 51125  1  0  0  0
 52126  1  0  0  0
 52127  1  0  0  0
 53 54  1  0  0  0
 54 55  2  0  0  0
 54128  1  0  0  0
 55 57  1  0  0  0
 55129  1  0  0  0
 56 69  2  0  0  0
 57 58  2  0  0  0
 57130  1  0  0  0
 58131  1  0  0  0
 59 60  1  0  0  0
 59 61  1  0  0  0
 59 62  1  0  0  0
 60132  1  0  0  0
 60133  1  0  0  0
 60134  1  0  0  0
 61135  1  0  0  0
 61136  1  0  0  0
 61137  1  0  0  0
 62138  1  0  0  0
 62139  1  0  0  0
 62140  1  0  0  0
 63 65  1  0  0  0
 63141  1  0  0  0
 63142  1  0  0  0
 63143  1  0  0  0
 64144  1  0  0  0
 65145  1  0  0  0
 68 77  1  0  0  0
 71 73  2  0  0  0
 71 76  1  0  0  0
 71146  1  0  0  0
 72 74  2  0  0  0
 72 75  1  0  0  0
 72147  1  0  0  0
 73 74  1  0  0  0
 73 78  1  0  0  0
 74 81  1  0  0  0
 75 76  2  0  0  0
 75 83  1  0  0  0
 76 86  1  0  0  0
 77 79  2  0  0  0
 77148  1  0  0  0
 78 82  2  0  0  0
 79 80  1  0  0  0
 79 85  1  0  0  0
 80 83  1  0  0  0
 80 84  2  0  0  0
 81149  1  0  0  0
 81150  1  0  0  0
 81151  1  0  0  0
 82152  1  0  0  0
 83153  1  0  0  0
 85154  1  0  0  0
M  ISO  4   1 100  68 101  77 101  78 100
M  END
> <chiral flag>
0

> <version>
0

> <s_m_source_file>
/data/baiqing/PycharmProjects/Reinvent-master-3.2/result/LINK_invent/BTK/process_docking_weight1_custom_product_contain_oxygen_bond_distance_aromatic_linkinvent_7_9_3/rearranged_h_0095.sdf

> <i_m_source_file_index>
87

> <r_mmod_Potential_Energy-OPLS-2005>
237.506973266602

> <r_mmod_Stretch_Energy-OPLS-2005>
86.4042358398438

> <r_mmod_Bend_Energy-OPLS-2005>
143.373489379883

> <r_mmod_Torsional_Energy-OPLS-2005>
257.344635009766

> <r_mmod_Improper_Torsional_Energy-OPLS-2005>
27.71604347229

> <r_mmod_Van_der_Waal_Energy-OPLS-2005>
165.070358276367

> <r_mmod_Electrostatic_Energy-OPLS-2005>
-316.539093017578

> <r_mmod_Solvation_Energy-OPLS-2005>
-203.689819335938

> <b_mmod_Minimization_Converged-OPLS-2005>
0

> <r_mmod_RMS_Derivative-OPLS-2005>
0.630546987056732

$$$$
87
                    3D
 Structure written by MMmdl.
159168  0  0  1  0            999 V2000
  -30.6442  -14.6871   20.3608 C   0  0  0  0  0  0
  -30.4412  -12.3840   19.4641 C   0  0  0  0  0  0
  -29.5112  -12.4028   18.2311 C   0  0  0  0  0  0
  -28.0273  -12.2808   18.6454 C   0  0  0  0  0  0
  -27.6327  -13.1890   19.8421 C   0  0  2  0  0  0
  -28.6980  -13.1659   20.9609 C   0  0  0  0  0  0
  -25.2555  -13.8055   20.5755 C   0  0  0  0  0  0
  -24.1804  -13.0366   20.9245 C   0  0  0  0  0  0
  -24.6338  -11.6830   20.8803 C   0  0  0  0  0  0
  -23.8998  -10.4252   21.0453 C   0  0  0  0  0  0
  -24.3571   -9.4171   21.9216 C   0  0  0  0  0  0
  -23.6264   -8.2202   22.0764 C   0  0  0  0  0  0
  -22.4250   -8.0249   21.3547 C   0  0  0  0  0  0
  -21.9874   -9.0219   20.4650 C   0  0  0  0  0  0
  -22.7186  -10.2105   20.3084 C   0  0  0  0  0  0
  -21.6842   -6.0715   22.5279 C   0  0  0  0  0  0
  -21.3998   -6.5621   23.8204 C   0  0  0  0  0  0
  -21.3663   -5.6780   24.9169 C   0  0  0  0  0  0
  -21.6048   -4.3046   24.7233 C   0  0  0  0  0  0
  -21.8820   -3.8135   23.4353 C   0  0  0  0  0  0
  -21.9193   -4.6945   22.3407 C   0  0  0  0  0  0
  -22.7838  -13.5203   21.1869 C   0  0  0  0  0  0
  -22.1663   -4.2128   21.0984 F   0  0  0  0  0  0
  -21.5640   -3.4540   25.7755 F   0  0  0  0  0  0
  -30.0089  -13.4668   20.3656 N   0  0  0  0  0  0
  -26.2915  -12.9145   20.3353 N   0  0  0  0  0  0
  -25.9252  -11.6344   20.5846 N   0  0  0  0  0  0
  -22.0441  -12.8236   22.0413 N   0  0  0  0  0  0
  -25.4299  -15.1779   20.4175 N   0  0  0  0  0  0
  -31.8730  -14.7610   20.2934 O   0  0  0  0  0  0
  -21.6614   -6.8854   21.4241 O   0  0  0  0  0  0
  -22.3568  -14.5518   20.6692 O   0  0  0  0  0  0
  -24.6237  -31.8623   23.2052 C   0  0  0  0  0  0
  -25.9098  -32.4791   23.8369 C   0  0  1  0  0  0
  -27.2334  -27.3510   20.1149 C   0  0  0  0  0  0
  -25.5939  -33.8593   24.2309 N   0  0  0  0  0  0
  -23.4163  -30.4857   21.5475 C   0  0  2  0  0  0
  -24.8630  -28.9444   20.1141 C   0  0  0  0  0  0
  -22.7461  -29.4640   22.4957 C   0  0  0  0  0  0
  -18.0289  -28.1375   22.8495 C   0  0  0  0  0  0
  -24.1493  -36.7296   23.2635 C   0  0  0  0  0  0
  -25.9547  -30.8018   21.3720 C   0  0  0  0  0  0
  -26.0297  -29.4317   20.7156 C   0  0  0  0  0  0
  -27.2161  -28.6464   20.7072 C   0  0  0  0  0  0
  -26.0394  -26.9062   19.4957 C   0  0  0  0  0  0
  -24.8682  -27.6850   19.4965 C   0  0  0  0  0  0
  -23.6285  -29.8187   20.1632 C   0  0  0  0  0  0
  -25.4114  -36.3093   24.0331 C   0  0  1  0  0  0
  -20.5885  -28.3681   23.1293 C   0  0  2  0  0  0
  -20.6784  -26.9408   22.5413 C   0  0  0  0  0  0
  -19.5758  -26.6380   21.5218 C   0  0  0  0  0  0
  -18.1934  -26.7922   22.1626 C   0  0  0  0  0  0
  -19.1538  -28.8847   23.2888 C   0  0  0  0  0  0
  -18.9458  -30.1450   23.8902 C   0  0  0  0  0  0
  -17.6456  -30.6582   24.0559 C   0  0  0  0  0  0
  -25.9049  -34.9458   23.5116 C   0  0  0  0  0  0
  -16.5350  -29.9080   23.6325 C   0  0  0  0  0  0
  -16.7275  -28.6493   23.0357 C   0  0  0  0  0  0
  -26.4492  -31.6583   25.0724 C   0  0  0  0  0  0
  -25.3742  -31.3703   26.1462 C   0  0  0  0  0  0
  -27.0325  -30.3014   24.6144 C   0  0  0  0  0  0
  -27.6058  -32.4300   25.7498 C   0  0  0  0  0  0
  -27.5581  -37.1806   24.8464 C   0  0  0  0  0  0
  -21.4180  -29.3046   22.3698 N   0  0  0  0  0  0
  -26.4295  -37.3781   23.9406 N   0  0  0  0  0  0
  -24.6835  -31.0654   22.0991 N   0  0  0  0  0  0
  -23.4192  -28.8177   23.3023 O   0  0  0  0  0  0
  -28.3735  -26.5398   20.1670 O   0  0  0  0  0  0
  -26.5604  -34.8916   22.4675 O   0  0  0  0  0  0
  -23.5407  -32.1411   23.7397 O   0  0  0  0  0  0
  -28.7318  -18.1495   19.6616 C   0  0  0  0  0  0
  -28.6740  -19.5538   19.8287 C   0  0  0  0  0  0
  -30.6795  -19.4440   21.1421 C   0  0  0  0  0  0
  -29.7883  -17.3304   20.1670 C   0  0  0  0  0  0
  -29.6686  -20.2551   20.5450 C   0  0  0  0  0  0
  -30.7484  -18.0247   20.9573 C   0  0  0  0  0  0
  -29.1831  -22.6432   19.7833 C   0  0  0  0  0  0
  -29.8381  -15.8665   19.6860 C   0  0  0  0  0  0
  -29.7591  -23.8826   21.7128 C   0  0  0  0  0  0
  -30.2319  -22.4125   21.8124 C   0  0  0  0  0  0
  -29.4241  -24.1221   20.2301 C   0  0  1  0  0  0
  -30.6513  -24.6664   19.4677 C   0  0  0  0  0  0
  -28.1964  -25.0929   19.9705 C   0  0  0  0  0  0
  -29.2603  -15.6406   18.5772 N   0  0  0  0  0  0
  -29.6347  -21.7156   20.6776 N   0  0  0  0  0  0
  -28.6576  -22.3856   18.6955 O   0  0  0  0  0  0
  -31.7782  -17.3529   21.5241 F   0  0  0  0  0  0
  -31.4809  -12.5030   19.1542 H   0  0  0  0  0  0
  -30.3855  -11.4227   19.9755 H   0  0  0  0  0  0
  -29.7709  -11.5799   17.5642 H   0  0  0  0  0  0
  -29.6731  -13.3059   17.6467 H   0  0  0  0  0  0
  -27.8575  -11.2369   18.9107 H   0  0  0  0  0  0
  -27.3819  -12.4827   17.7897 H   0  0  0  0  0  0
  -27.5680  -14.1905   19.4462 H   0  0  0  0  0  0
  -28.7249  -12.1909   21.4489 H   0  0  0  0  0  0
  -28.4552  -13.8958   21.7349 H   0  0  0  0  0  0
  -25.2715   -9.5650   22.4792 H   0  0  0  0  0  0
  -23.9977   -7.4588   22.7473 H   0  0  0  0  0  0
  -21.0813   -8.8728   19.8956 H   0  0  0  0  0  0
  -22.3646  -10.9649   19.6204 H   0  0  0  0  0  0
  -21.1967   -7.6124   23.9699 H   0  0  0  0  0  0
  -21.1493   -6.0513   25.9070 H   0  0  0  0  0  0
  -22.0602   -2.7599   23.2857 H   0  0  0  0  0  0
  -22.4039  -11.9907   22.4836 H   0  0  0  0  0  0
  -21.1059  -13.1294   22.2574 H   0  0  0  0  0  0
  -24.6658  -15.8363   20.5269 H   0  0  0  0  0  0
  -26.2834  -15.6127   20.0914 H   0  0  0  0  0  0
  -26.7171  -32.5465   23.1122 H   0  0  0  0  0  0
  -25.0132  -33.9751   25.0486 H   0  0  0  0  0  0
  -22.7089  -31.3047   21.4048 H   0  0  0  0  0  0
  -23.3756  -35.9629   23.3303 H   0  0  0  0  0  0
  -24.3588  -36.8908   22.2049 H   0  0  0  0  0  0
  -23.7243  -37.6500   23.6648 H   0  0  0  0  0  0
  -26.0812  -31.5638   20.6018 H   0  0  0  0  0  0
  -26.8374  -30.8516   21.9981 H   0  0  0  0  0  0
  -28.1111  -29.0169   21.1870 H   0  0  0  0  0  0
  -25.9756  -25.9443   19.0115 H   0  0  0  0  0  0
  -23.9725  -27.3037   19.0251 H   0  0  0  0  0  0
  -23.7432  -30.5933   19.4043 H   0  0  0  0  0  0
  -22.7508  -29.2421   19.8645 H   0  0  0  0  0  0
  -25.1291  -36.1956   25.0823 H   0  0  0  0  0  0
  -20.9976  -28.3255   24.1413 H   0  0  0  0  0  0
  -20.5703  -26.2289   23.3609 H   0  0  0  0  0  0
  -21.6649  -26.7457   22.1190 H   0  0  0  0  0  0
  -19.6921  -25.6291   21.1247 H   0  0  0  0  0  0
  -19.6690  -27.3192   20.6749 H   0  0  0  0  0  0
  -17.4208  -26.6684   21.4020 H   0  0  0  0  0  0
  -18.0323  -26.0054   22.9012 H   0  0  0  0  0  0
  -19.7932  -30.7270   24.2267 H   0  0  0  0  0  0
  -17.5010  -31.6263   24.5155 H   0  0  0  0  0  0
  -15.5350  -30.2981   23.7639 H   0  0  0  0  0  0
  -15.8680  -28.0807   22.7075 H   0  0  0  0  0  0
  -24.5926  -30.7038   25.7797 H   0  0  0  0  0  0
  -24.8919  -32.2861   26.4885 H   0  0  0  0  0  0
  -25.8085  -30.8891   27.0236 H   0  0  0  0  0  0
  -26.2892  -29.6773   24.1173 H   0  0  0  0  0  0
  -27.4050  -29.7244   25.4618 H   0  0  0  0  0  0
  -27.8747  -30.4305   23.9341 H   0  0  0  0  0  0
  -27.2681  -33.3594   26.2087 H   0  0  0  0  0  0
  -28.3870  -32.6865   25.0333 H   0  0  0  0  0  0
  -28.0728  -31.8417   26.5405 H   0  0  0  0  0  0
  -28.2598  -38.0103   24.7510 H   0  0  0  0  0  0
  -28.1081  -36.2635   24.6298 H   0  0  0  0  0  0
  -27.2302  -37.1463   25.8868 H   0  0  0  0  0  0
  -20.9360  -29.8763   21.6905 H   0  0  0  0  0  0
  -26.0183  -38.2860   24.1403 H   0  0  0  0  0  0
  -27.9355  -17.7121   19.0760 H   0  0  0  0  0  0
  -27.8477  -20.0884   19.3821 H   0  0  0  0  0  0
  -31.4582  -19.9129   21.7250 H   0  0  0  0  0  0
  -30.5105  -24.5763   22.0922 H   0  0  0  0  0  0
  -28.8658  -24.0184   22.3248 H   0  0  0  0  0  0
  -29.9341  -21.9579   22.7579 H   0  0  0  0  0  0
  -31.3186  -22.3531   21.7341 H   0  0  0  0  0  0
  -31.5117  -24.0014   19.5529 H   0  0  0  0  0  0
  -30.9535  -25.6405   19.8541 H   0  0  0  0  0  0
  -30.4347  -24.7912   18.4058 H   0  0  0  0  0  0
  -27.3591  -24.7541   20.5845 H   0  0  0  0  0  0
  -27.8935  -24.9484   18.9323 H   0  0  0  0  0  0
  -28.8299  -16.4805   18.2129 H   0  0  0  0  0  0
  1 25  1  0  0  0
  1 30  2  0  0  0
  1 78  1  0  0  0
  2  3  1  0  0  0
  2 25  1  0  0  0
  2 88  1  0  0  0
  2 89  1  0  0  0
  3  4  1  0  0  0
  3 90  1  0  0  0
  3 91  1  0  0  0
  4  5  1  0  0  0
  4 92  1  0  0  0
  4 93  1  0  0  0
  5  6  1  0  0  0
  5 26  1  0  0  0
  5 94  1  0  0  0
  6 25  1  0  0  0
  6 95  1  0  0  0
  6 96  1  0  0  0
  7  8  2  0  0  0
  7 26  1  0  0  0
  7 29  1  0  0  0
  8  9  1  0  0  0
  8 22  1  0  0  0
  9 10  1  0  0  0
  9 27  2  0  0  0
 10 11  2  0  0  0
 10 15  1  0  0  0
 11 12  1  0  0  0
 11 97  1  0  0  0
 12 13  2  0  0  0
 12 98  1  0  0  0
 13 14  1  0  0  0
 13 31  1  0  0  0
 14 15  2  0  0  0
 14 99  1  0  0  0
 15100  1  0  0  0
 16 17  2  0  0  0
 16 21  1  0  0  0
 16 31  1  0  0  0
 17 18  1  0  0  0
 17101  1  0  0  0
 18 19  2  0  0  0
 18102  1  0  0  0
 19 20  1  0  0  0
 19 24  1  0  0  0
 20 21  2  0  0  0
 20103  1  0  0  0
 21 23  1  0  0  0
 22 28  1  0  0  0
 22 32  2  0  0  0
 26 27  1  0  0  0
 28104  1  0  0  0
 28105  1  0  0  0
 29106  1  0  0  0
 29107  1  0  0  0
 33 34  1  0  0  0
 33 66  1  0  0  0
 33 70  2  0  0  0
 34 36  1  0  0  0
 34 59  1  0  0  0
 34108  1  0  0  0
 35 44  2  0  0  0
 35 45  1  0  0  0
 35 68  1  0  0  0
 36 56  1  0  0  0
 36109  1  0  0  0
 37 39  1  0  0  0
 37 47  1  0  0  0
 37 66  1  0  0  0
 37110  1  0  0  0
 38 43  2  0  0  0
 38 46  1  0  0  0
 38 47  1  0  0  0
 39 64  1  0  0  0
 39 67  2  0  0  0
 40 52  1  0  0  0
 40 53  2  0  0  0
 40 58  1  0  0  0
 41111  1  0  0  0
 41112  1  0  0  0
 41113  1  0  0  0
 41 48  1  0  0  0
 42 43  1  0  0  0
 42 66  1  0  0  0
 42114  1  0  0  0
 42115  1  0  0  0
 43 44  1  0  0  0
 44116  1  0  0  0
 45 46  2  0  0  0
 45117  1  0  0  0
 46118  1  0  0  0
 47119  1  0  0  0
 47120  1  0  0  0
 48 56  1  0  0  0
 48 65  1  0  0  0
 48121  1  0  0  0
 49 50  1  0  0  0
 49 53  1  0  0  0
 49 64  1  0  0  0
 49122  1  0  0  0
 50 51  1  0  0  0
 50123  1  0  0  0
 50124  1  0  0  0
 51 52  1  0  0  0
 51125  1  0  0  0
 51126  1  0  0  0
 52127  1  0  0  0
 52128  1  0  0  0
 53 54  1  0  0  0
 54 55  2  0  0  0
 54129  1  0  0  0
 55 57  1  0  0  0
 55130  1  0  0  0
 56 69  2  0  0  0
 57 58  2  0  0  0
 57131  1  0  0  0
 58132  1  0  0  0
 59 60  1  0  0  0
 59 61  1  0  0  0
 59 62  1  0  0  0
 60133  1  0  0  0
 60134  1  0  0  0
 60135  1  0  0  0
 61136  1  0  0  0
 61137  1  0  0  0
 61138  1  0  0  0
 62139  1  0  0  0
 62140  1  0  0  0
 62141  1  0  0  0
 63 65  1  0  0  0
 63142  1  0  0  0
 63143  1  0  0  0
 63144  1  0  0  0
 64145  1  0  0  0
 65146  1  0  0  0
 68 83  1  0  0  0
 71 72  2  0  0  0
 71 74  1  0  0  0
 71147  1  0  0  0
 72 75  1  0  0  0
 72148  1  0  0  0
 73 75  2  0  0  0
 73 76  1  0  0  0
 73149  1  0  0  0
 74 76  2  0  0  0
 74 78  1  0  0  0
 75 85  1  0  0  0
 76 87  1  0  0  0
 77 81  1  0  0  0
 77 85  1  0  0  0
 77 86  2  0  0  0
 78 84  2  0  0  0
 79 80  1  0  0  0
 79 81  1  0  0  0
 79150  1  0  0  0
 79151  1  0  0  0
 80 85  1  0  0  0
 80152  1  0  0  0
 80153  1  0  0  0
 81 82  1  0  0  0
 81 83  1  0  0  0
 82154  1  0  0  0
 82155  1  0  0  0
 82156  1  0  0  0
 83157  1  0  0  0
 83158  1  0  0  0
 84159  1  0  0  0
M  ISO  4   1 100  68 101  78 100  83 101
M  END
> <chiral flag>
0

> <version>
0

> <s_m_source_file>
/data/baiqing/PycharmProjects/Reinvent-master-3.2/result/LINK_invent/BTK/process_docking_weight1_custom_product_contain_oxygen_bond_distance_aromatic_linkinvent_7_9_3/rearranged_h_0095.sdf

> <i_m_source_file_index>
88

> <r_mmod_Potential_Energy-OPLS-2005>
395.902526855469

> <r_mmod_Stretch_Energy-OPLS-2005>
80.2884902954102

> <r_mmod_Bend_Energy-OPLS-2005>
168.744674682617

> <r_mmod_Torsional_Energy-OPLS-2005>
301.980590820312

> <r_mmod_Improper_Torsional_Energy-OPLS-2005>
25.758674621582

> <r_mmod_Van_der_Waal_Energy-OPLS-2005>
162.251998901367

> <r_mmod_Electrostatic_Energy-OPLS-2005>
-200.802169799805

> <r_mmod_Solvation_Energy-OPLS-2005>
-208.382141113281

> <b_mmod_Minimization_Converged-OPLS-2005>
0

> <r_mmod_RMS_Derivative-OPLS-2005>
1.46065509319305

$$$$
88
                    3D
 Structure written by MMmdl.
158167  0  0  1  0            999 V2000
  -30.5979  -14.8852   20.5133 C   0  0  0  0  0  0
  -30.4397  -12.5719   19.4950 C   0  0  0  0  0  0
  -29.5208  -12.5648   18.2514 C   0  0  0  0  0  0
  -28.0487  -12.3579   18.6509 C   0  0  0  0  0  0
  -27.6359  -13.2495   19.8480 C   0  0  2  0  0  0
  -28.6698  -13.2052   20.9851 C   0  0  0  0  0  0
  -25.2463  -13.8209   20.5688 C   0  0  0  0  0  0
  -24.1774  -13.0422   20.9169 C   0  0  0  0  0  0
  -24.6397  -11.6910   20.8701 C   0  0  0  0  0  0
  -23.9085  -10.4280   21.0386 C   0  0  0  0  0  0
  -24.3639   -9.4200   21.9168 C   0  0  0  0  0  0
  -23.6310   -8.2241   22.0741 C   0  0  0  0  0  0
  -22.4287   -8.0280   21.3540 C   0  0  0  0  0  0
  -21.9923   -9.0238   20.4636 C   0  0  0  0  0  0
  -22.7246  -10.2111   20.3036 C   0  0  0  0  0  0
  -21.6862   -6.0743   22.5278 C   0  0  0  0  0  0
  -21.4021   -6.5649   23.8208 C   0  0  0  0  0  0
  -21.3660   -5.6797   24.9167 C   0  0  0  0  0  0
  -21.6039   -4.3058   24.7220 C   0  0  0  0  0  0
  -21.8824   -3.8148   23.4348 C   0  0  0  0  0  0
  -21.9190   -4.6966   22.3405 C   0  0  0  0  0  0
  -22.7798  -13.5186   21.1873 C   0  0  0  0  0  0
  -22.1672   -4.2154   21.0982 F   0  0  0  0  0  0
  -21.5618   -3.4541   25.7743 F   0  0  0  0  0  0
  -29.9638  -13.6421   20.4240 N   0  0  0  0  0  0
  -26.2898  -12.9441   20.3220 N   0  0  0  0  0  0
  -25.9321  -11.6565   20.5668 N   0  0  0  0  0  0
  -22.0470  -12.8156   22.0433 N   0  0  0  0  0  0
  -25.4147  -15.1950   20.4210 N   0  0  0  0  0  0
  -31.7630  -14.9452   20.1014 O   0  0  0  0  0  0
  -21.6647   -6.8876   21.4236 O   0  0  0  0  0  0
  -22.3467  -14.5502   20.6754 O   0  0  0  0  0  0
  -24.6343  -31.8527   23.1913 C   0  0  0  0  0  0
  -25.9166  -32.4741   23.8253 C   0  0  1  0  0  0
  -27.2516  -27.2366   20.1417 C   0  0  0  0  0  0
  -25.5990  -33.8524   24.2249 N   0  0  0  0  0  0
  -23.4336  -30.4696   21.5334 C   0  0  2  0  0  0
  -24.8912  -28.9017   20.1124 C   0  0  0  0  0  0
  -22.7501  -29.4586   22.4870 C   0  0  0  0  0  0
  -18.0306  -28.1339   22.8501 C   0  0  0  0  0  0
  -24.1497  -36.7220   23.2645 C   0  0  0  0  0  0
  -25.9799  -30.7608   21.3676 C   0  0  0  0  0  0
  -26.0643  -29.3779   20.7150 C   0  0  0  0  0  0
  -27.2462  -28.5603   20.7111 C   0  0  0  0  0  0
  -26.0560  -26.8311   19.5102 C   0  0  0  0  0  0
  -24.8928  -27.6335   19.5017 C   0  0  0  0  0  0
  -23.6596  -29.7910   20.1543 C   0  0  0  0  0  0
  -25.4118  -36.3042   24.0343 C   0  0  1  0  0  0
  -20.5911  -28.3661   23.1286 C   0  0  2  0  0  0
  -20.6758  -26.9362   22.5438 C   0  0  0  0  0  0
  -19.5759  -26.6353   21.5217 C   0  0  0  0  0  0
  -18.1924  -26.7906   22.1610 C   0  0  0  0  0  0
  -19.1552  -28.8820   23.2905 C   0  0  0  0  0  0
  -18.9478  -30.1416   23.8941 C   0  0  0  0  0  0
  -17.6472  -30.6549   24.0540 C   0  0  0  0  0  0
  -25.9068  -34.9423   23.5090 C   0  0  0  0  0  0
  -16.5369  -29.9047   23.6301 C   0  0  0  0  0  0
  -16.7283  -28.6449   23.0360 C   0  0  0  0  0  0
  -26.4532  -31.6520   25.0597 C   0  0  0  0  0  0
  -25.3768  -31.3716   26.1341 C   0  0  0  0  0  0
  -27.0371  -30.2966   24.6008 C   0  0  0  0  0  0
  -27.6092  -32.4216   25.7421 C   0  0  0  0  0  0
  -27.5584  -37.1749   24.8469 C   0  0  0  0  0  0
  -21.4179  -29.3050   22.3665 N   0  0  0  0  0  0
  -26.4279  -37.3747   23.9437 N   0  0  0  0  0  0
  -24.7028  -31.0440   22.0907 N   0  0  0  0  0  0
  -23.4222  -28.8122   23.2953 O   0  0  0  0  0  0
  -28.3591  -26.3432   20.1574 O   0  0  0  0  0  0
  -26.5596  -34.8907   22.4634 O   0  0  0  0  0  0
  -23.5487  -32.1345   23.7206 O   0  0  0  0  0  0
  -30.4213  -18.7114   18.1707 C   0  0  0  0  0  0
  -30.0625  -19.9460   18.7499 C   0  0  0  0  0  0
  -30.3586  -17.5004   18.8842 C   0  0  0  0  0  0
  -29.5895  -20.0721   20.0768 C   0  0  0  0  0  0
  -29.9594  -17.4533   20.2374 C   0  0  0  0  0  0
  -29.5715  -18.7809   20.7928 C   0  0  0  0  0  0
  -29.8576  -22.6679   20.8292 C   0  0  0  0  0  0
  -28.0677  -22.1825   19.9143 C   0  0  0  0  0  0
  -28.8496  -23.5597   19.9525 C   0  0  2  0  0  0
  -29.5526  -23.9833   18.6534 C   0  0  0  0  0  0
  -29.3502  -16.0612   22.2576 C   0  0  0  0  0  0
  -28.1921  -24.9050   20.6288 C   0  0  0  0  0  0
  -29.1887  -21.4529   20.5415 N   0  0  0  0  0  0
  -29.9220  -16.0773   20.9065 N   0  0  0  0  0  0
  -30.8733  -22.8748   21.4672 O   0  0  0  0  0  0
  -29.1422  -18.8625   22.0736 F   0  0  0  0  0  0
  -31.4735  -12.7279   19.1806 H   0  0  0  0  0  0
  -30.4283  -11.6025   19.9925 H   0  0  0  0  0  0
  -29.8342  -11.7923   17.5481 H   0  0  0  0  0  0
  -29.6244  -13.5168   17.7271 H   0  0  0  0  0  0
  -27.9111  -11.3049   18.9030 H   0  0  0  0  0  0
  -27.3981  -12.5587   17.7976 H   0  0  0  0  0  0
  -27.6212  -14.2739   19.4734 H   0  0  0  0  0  0
  -28.7458  -12.2047   21.4107 H   0  0  0  0  0  0
  -28.3145  -13.8299   21.7951 H   0  0  0  0  0  0
  -25.2776   -9.5689   22.4734 H   0  0  0  0  0  0
  -24.0026   -7.4628   22.7461 H   0  0  0  0  0  0
  -21.0859   -8.8750   19.8946 H   0  0  0  0  0  0
  -22.3696  -10.9656   19.6150 H   0  0  0  0  0  0
  -21.2037   -7.6151   23.9718 H   0  0  0  0  0  0
  -21.1475   -6.0529   25.9078 H   0  0  0  0  0  0
  -22.0608   -2.7614   23.2847 H   0  0  0  0  0  0
  -22.4122  -11.9826   22.4826 H   0  0  0  0  0  0
  -21.1076  -13.1146   22.2645 H   0  0  0  0  0  0
  -24.6520  -15.8515   20.5449 H   0  0  0  0  0  0
  -26.2781  -15.6407   20.1354 H   0  0  0  0  0  0
  -26.7230  -32.5399   23.0984 H   0  0  0  0  0  0
  -25.0204  -33.9644   25.0457 H   0  0  0  0  0  0
  -22.7353  -31.2941   21.3784 H   0  0  0  0  0  0
  -23.3778  -35.9538   23.3303 H   0  0  0  0  0  0
  -24.3616  -36.8823   22.2070 H   0  0  0  0  0  0
  -23.7215  -37.6410   23.6646 H   0  0  0  0  0  0
  -26.0970  -31.5233   20.5970 H   0  0  0  0  0  0
  -26.8704  -30.8367   21.9821 H   0  0  0  0  0  0
  -28.1472  -28.9214   21.1905 H   0  0  0  0  0  0
  -26.0134  -25.8570   19.0393 H   0  0  0  0  0  0
  -23.9946  -27.2485   19.0365 H   0  0  0  0  0  0
  -23.7808  -30.5682   19.3971 H   0  0  0  0  0  0
  -22.7786  -29.2222   19.8474 H   0  0  0  0  0  0
  -25.1294  -36.1867   25.0828 H   0  0  0  0  0  0
  -21.0024  -28.3227   24.1408 H   0  0  0  0  0  0
  -20.5573  -26.2258   23.3640 H   0  0  0  0  0  0
  -21.6626  -26.7295   22.1302 H   0  0  0  0  0  0
  -19.6871  -25.6275   21.1221 H   0  0  0  0  0  0
  -19.6708  -27.3187   20.6779 H   0  0  0  0  0  0
  -17.4189  -26.6700   21.3992 H   0  0  0  0  0  0
  -18.0267  -26.0034   22.9000 H   0  0  0  0  0  0
  -19.7951  -30.7185   24.2337 H   0  0  0  0  0  0
  -17.5024  -31.6245   24.5115 H   0  0  0  0  0  0
  -15.5355  -30.2948   23.7582 H   0  0  0  0  0  0
  -15.8688  -28.0741   22.7091 H   0  0  0  0  0  0
  -24.5949  -30.7042   25.7702 H   0  0  0  0  0  0
  -24.8947  -32.2907   26.4665 H   0  0  0  0  0  0
  -25.8106  -30.8969   27.0149 H   0  0  0  0  0  0
  -26.2937  -29.6689   24.1072 H   0  0  0  0  0  0
  -27.4218  -29.7201   25.4428 H   0  0  0  0  0  0
  -27.8732  -30.4305   23.9134 H   0  0  0  0  0  0
  -27.2756  -33.3552   26.1955 H   0  0  0  0  0  0
  -28.3995  -32.6673   25.0308 H   0  0  0  0  0  0
  -28.0643  -31.8288   26.5380 H   0  0  0  0  0  0
  -28.2560  -38.0073   24.7527 H   0  0  0  0  0  0
  -28.1099  -36.2591   24.6263 H   0  0  0  0  0  0
  -27.2305  -37.1389   25.8870 H   0  0  0  0  0  0
  -20.9291  -29.8861   21.6996 H   0  0  0  0  0  0
  -26.0139  -38.2803   24.1478 H   0  0  0  0  0  0
  -30.7392  -18.6824   17.1376 H   0  0  0  0  0  0
  -30.1434  -20.8269   18.1281 H   0  0  0  0  0  0
  -30.6161  -16.5992   18.3499 H   0  0  0  0  0  0
  -27.8226  -21.8447   18.9069 H   0  0  0  0  0  0
  -27.1798  -22.1815   20.5533 H   0  0  0  0  0  0
  -29.9190  -23.1212   18.0973 H   0  0  0  0  0  0
  -30.4079  -24.6332   18.8456 H   0  0  0  0  0  0
  -28.8849  -24.5267   17.9858 H   0  0  0  0  0  0
  -28.2636  -16.1553   22.2008 H   0  0  0  0  0  0
  -29.7398  -16.8633   22.8779 H   0  0  0  0  0  0
  -29.5977  -15.1597   22.8230 H   0  0  0  0  0  0
  -28.5796  -24.9429   21.6455 H   0  0  0  0  0  0
  -27.1277  -24.7213   20.7676 H   0  0  0  0  0  0
  1 25  1  0  0  0
  1 30  2  0  0  0
  1 84  1  0  0  0
  2  3  1  0  0  0
  2 25  1  0  0  0
  2 87  1  0  0  0
  2 88  1  0  0  0
  3  4  1  0  0  0
  3 89  1  0  0  0
  3 90  1  0  0  0
  4  5  1  0  0  0
  4 91  1  0  0  0
  4 92  1  0  0  0
  5  6  1  0  0  0
  5 26  1  0  0  0
  5 93  1  0  0  0
  6 25  1  0  0  0
  6 94  1  0  0  0
  6 95  1  0  0  0
  7  8  2  0  0  0
  7 26  1  0  0  0
  7 29  1  0  0  0
  8  9  1  0  0  0
  8 22  1  0  0  0
  9 10  1  0  0  0
  9 27  2  0  0  0
 10 11  2  0  0  0
 10 15  1  0  0  0
 11 12  1  0  0  0
 11 96  1  0  0  0
 12 13  2  0  0  0
 12 97  1  0  0  0
 13 14  1  0  0  0
 13 31  1  0  0  0
 14 15  2  0  0  0
 14 98  1  0  0  0
 15 99  1  0  0  0
 16 17  2  0  0  0
 16 21  1  0  0  0
 16 31  1  0  0  0
 17 18  1  0  0  0
 17100  1  0  0  0
 18 19  2  0  0  0
 18101  1  0  0  0
 19 20  1  0  0  0
 19 24  1  0  0  0
 20 21  2  0  0  0
 20102  1  0  0  0
 21 23  1  0  0  0
 22 28  1  0  0  0
 22 32  2  0  0  0
 26 27  1  0  0  0
 28103  1  0  0  0
 28104  1  0  0  0
 29105  1  0  0  0
 29106  1  0  0  0
 33 34  1  0  0  0
 33 66  1  0  0  0
 33 70  2  0  0  0
 34 36  1  0  0  0
 34 59  1  0  0  0
 34107  1  0  0  0
 35 44  2  0  0  0
 35 45  1  0  0  0
 35 68  1  0  0  0
 36 56  1  0  0  0
 36108  1  0  0  0
 37 39  1  0  0  0
 37 47  1  0  0  0
 37 66  1  0  0  0
 37109  1  0  0  0
 38 43  2  0  0  0
 38 46  1  0  0  0
 38 47  1  0  0  0
 39 64  1  0  0  0
 39 67  2  0  0  0
 40 52  1  0  0  0
 40 53  2  0  0  0
 40 58  1  0  0  0
 41110  1  0  0  0
 41111  1  0  0  0
 41112  1  0  0  0
 41 48  1  0  0  0
 42 43  1  0  0  0
 42 66  1  0  0  0
 42113  1  0  0  0
 42114  1  0  0  0
 43 44  1  0  0  0
 44115  1  0  0  0
 45 46  2  0  0  0
 45116  1  0  0  0
 46117  1  0  0  0
 47118  1  0  0  0
 47119  1  0  0  0
 48 56  1  0  0  0
 48 65  1  0  0  0
 48120  1  0  0  0
 49 50  1  0  0  0
 49 53  1  0  0  0
 49 64  1  0  0  0
 49121  1  0  0  0
 50 51  1  0  0  0
 50122  1  0  0  0
 50123  1  0  0  0
 51 52  1  0  0  0
 51124  1  0  0  0
 51125  1  0  0  0
 52126  1  0  0  0
 52127  1  0  0  0
 53 54  1  0  0  0
 54 55  2  0  0  0
 54128  1  0  0  0
 55 57  1  0  0  0
 55129  1  0  0  0
 56 69  2  0  0  0
 57 58  2  0  0  0
 57130  1  0  0  0
 58131  1  0  0  0
 59 60  1  0  0  0
 59 61  1  0  0  0
 59 62  1  0  0  0
 60132  1  0  0  0
 60133  1  0  0  0
 60134  1  0  0  0
 61135  1  0  0  0
 61136  1  0  0  0
 61137  1  0  0  0
 62138  1  0  0  0
 62139  1  0  0  0
 62140  1  0  0  0
 63 65  1  0  0  0
 63141  1  0  0  0
 63142  1  0  0  0
 63143  1  0  0  0
 64144  1  0  0  0
 65145  1  0  0  0
 68 82  1  0  0  0
 71 72  2  0  0  0
 71 73  1  0  0  0
 71146  1  0  0  0
 72 74  1  0  0  0
 72147  1  0  0  0
 73 75  2  0  0  0
 73148  1  0  0  0
 74 76  2  0  0  0
 74 83  1  0  0  0
 75 76  1  0  0  0
 75 84  1  0  0  0
 76 86  1  0  0  0
 77 79  1  0  0  0
 77 83  1  0  0  0
 77 85  2  0  0  0
 78 79  1  0  0  0
 78 83  1  0  0  0
 78149  1  0  0  0
 78150  1  0  0  0
 79 80  1  0  0  0
 79 82  1  0  0  0
 80151  1  0  0  0
 80152  1  0  0  0
 80153  1  0  0  0
 81 84  1  0  0  0
 81154  1  0  0  0
 81155  1  0  0  0
 81156  1  0  0  0
 82157  1  0  0  0
 82158  1  0  0  0
M  ISO  4   1 100  68 101  82 101  84 100
M  END
> <chiral flag>
0

> <version>
0

> <s_m_source_file>
/data/baiqing/PycharmProjects/Reinvent-master-3.2/result/LINK_invent/BTK/process_docking_weight1_custom_product_contain_oxygen_bond_distance_aromatic_linkinvent_7_9_3/rearranged_h_0095.sdf

> <i_m_source_file_index>
89

> <r_mmod_Potential_Energy-OPLS-2005>
520.693664550781

> <r_mmod_Stretch_Energy-OPLS-2005>
185.632232666016

> <r_mmod_Bend_Energy-OPLS-2005>
224.613723754883

> <r_mmod_Torsional_Energy-OPLS-2005>
352.156799316406

> <r_mmod_Improper_Torsional_Energy-OPLS-2005>
7.09379148483276

> <r_mmod_Van_der_Waal_Energy-OPLS-2005>
141.351989746094

> <r_mmod_Electrostatic_Energy-OPLS-2005>
-305.956848144531

> <r_mmod_Solvation_Energy-OPLS-2005>
-207.808319091797

> <b_mmod_Minimization_Converged-OPLS-2005>
0

> <r_mmod_RMS_Derivative-OPLS-2005>
6.22810745239258

$$$$
89
                    3D
 Structure written by MMmdl.
159167  0  0  1  0            999 V2000
  -30.7640  -14.4448   20.6183 C   0  0  0  0  0  0
  -30.4224  -12.3105   19.4234 C   0  0  0  0  0  0
  -29.5001  -12.5163   18.2078 C   0  0  0  0  0  0
  -28.0202  -12.3936   18.6192 C   0  0  0  0  0  0
  -27.6734  -13.2154   19.8902 C   0  0  2  0  0  0
  -28.7189  -12.9993   21.0081 C   0  0  0  0  0  0
  -25.2666  -13.8183   20.5679 C   0  0  0  0  0  0
  -24.1880  -13.0444   20.9145 C   0  0  0  0  0  0
  -24.6433  -11.6936   20.8696 C   0  0  0  0  0  0
  -23.9054  -10.4290   21.0374 C   0  0  0  0  0  0
  -24.3612   -9.4210   21.9144 C   0  0  0  0  0  0
  -23.6268   -8.2249   22.0720 C   0  0  0  0  0  0
  -22.4258   -8.0282   21.3512 C   0  0  0  0  0  0
  -21.9892   -9.0271   20.4645 C   0  0  0  0  0  0
  -22.7216  -10.2156   20.3044 C   0  0  0  0  0  0
  -21.6857   -6.0717   22.5258 C   0  0  0  0  0  0
  -21.3999   -6.5626   23.8181 C   0  0  0  0  0  0
  -21.3647   -5.6785   24.9147 C   0  0  0  0  0  0
  -21.6032   -4.3042   24.7209 C   0  0  0  0  0  0
  -21.8851   -3.8143   23.4338 C   0  0  0  0  0  0
  -21.9190   -4.6943   22.3388 C   0  0  0  0  0  0
  -22.7906  -13.5269   21.1832 C   0  0  0  0  0  0
  -22.1680   -4.2128   21.0955 F   0  0  0  0  0  0
  -21.5626   -3.4542   25.7724 F   0  0  0  0  0  0
  -30.0513  -13.2942   20.4550 N   0  0  0  0  0  0
  -26.3107  -12.9368   20.3455 N   0  0  0  0  0  0
  -25.9391  -11.6516   20.5786 N   0  0  0  0  0  0
  -22.0544  -12.8221   22.0383 N   0  0  0  0  0  0
  -25.4474  -15.1881   20.4083 N   0  0  0  0  0  0
  -31.8298  -14.6506   20.0355 O   0  0  0  0  0  0
  -21.6643   -6.8870   21.4229 O   0  0  0  0  0  0
  -22.3577  -14.5546   20.6653 O   0  0  0  0  0  0
  -24.6092  -31.8651   23.2097 C   0  0  0  0  0  0
  -25.8999  -32.4774   23.8397 C   0  0  1  0  0  0
  -27.2346  -27.4177   20.1395 C   0  0  0  0  0  0
  -25.5852  -33.8589   24.2309 N   0  0  0  0  0  0
  -23.4013  -30.4776   21.5470 C   0  0  2  0  0  0
  -24.8602  -28.9456   20.1159 C   0  0  0  0  0  0
  -22.7395  -29.4591   22.5034 C   0  0  0  0  0  0
  -18.0231  -28.1350   22.8531 C   0  0  0  0  0  0
  -24.1485  -36.7291   23.2643 C   0  0  0  0  0  0
  -25.9303  -30.8240   21.3740 C   0  0  0  0  0  0
  -26.0133  -29.4571   20.7266 C   0  0  0  0  0  0
  -27.2074  -28.6980   20.7399 C   0  0  0  0  0  0
  -26.0785  -26.9331   19.5043 C   0  0  0  0  0  0
  -24.8907  -27.6850   19.4925 C   0  0  0  0  0  0
  -23.6132  -29.7982   20.1667 C   0  0  0  0  0  0
  -25.4105  -36.3091   24.0346 C   0  0  1  0  0  0
  -20.5837  -28.3594   23.1362 C   0  0  2  0  0  0
  -20.6682  -26.9341   22.5436 C   0  0  0  0  0  0
  -19.5655  -26.6387   21.5212 C   0  0  0  0  0  0
  -18.1856  -26.7902   22.1662 C   0  0  0  0  0  0
  -19.1488  -28.8799   23.2946 C   0  0  0  0  0  0
  -18.9434  -30.1412   23.8948 C   0  0  0  0  0  0
  -17.6443  -30.6588   24.0568 C   0  0  0  0  0  0
  -25.9036  -34.9457   23.5137 C   0  0  0  0  0  0
  -16.5340  -29.9100   23.6315 C   0  0  0  0  0  0
  -16.7228  -28.6502   23.0377 C   0  0  0  0  0  0
  -26.4491  -31.6534   25.0702 C   0  0  0  0  0  0
  -25.3765  -31.3598   26.1434 C   0  0  0  0  0  0
  -27.0315  -30.2980   24.6047 C   0  0  0  0  0  0
  -27.6111  -32.4219   25.7384 C   0  0  0  0  0  0
  -27.5582  -37.1790   24.8485 C   0  0  0  0  0  0
  -21.4131  -29.2961   22.3780 N   0  0  0  0  0  0
  -26.4289  -37.3766   23.9414 N   0  0  0  0  0  0
  -24.6624  -31.0729   22.1004 N   0  0  0  0  0  0
  -23.4193  -28.8137   23.3065 O   0  0  0  0  0  0
  -28.3725  -26.6478   20.1356 O   0  0  0  0  0  0
  -26.5640  -34.8917   22.4722 O   0  0  0  0  0  0
  -23.5269  -32.1438   23.7463 O   0  0  0  0  0  0
  -28.9293  -18.0216   21.2169 C   0  0  0  0  0  0
  -28.3582  -19.2569   20.8396 C   0  0  0  0  0  0
  -30.5352  -20.2949   20.9354 C   0  0  0  0  0  0
  -30.3170  -17.8840   21.4770 C   0  0  0  0  0  0
  -29.1422  -20.4221   20.7301 C   0  0  0  0  0  0
  -31.1048  -19.0552   21.3086 C   0  0  0  0  0  0
  -30.9338  -16.6121   23.4633 C   0  0  0  0  0  0
  -28.8475  -22.8940   20.8430 C   0  0  0  0  0  0
  -31.8517  -17.6044   24.1700 C   0  0  0  0  0  0
  -28.1467  -24.1112   20.1929 C   0  0  0  0  0  0
  -28.3417  -25.4627   20.9602 C   0  0  0  0  0  0
  -30.9542  -16.5790   21.9204 C   0  0  1  0  0  0
  -28.5095  -21.6658   20.3975 N   0  0  0  0  0  0
  -30.2416  -15.3765   21.4331 N   0  0  0  0  0  0
  -30.2307  -15.8562   24.1414 O   0  0  0  0  0  0
  -29.6789  -23.0632   21.7410 O   0  0  0  0  0  0
  -32.4444  -18.9983   21.5227 F   0  0  0  0  0  0
  -31.4673  -12.3935   19.1225 H   0  0  0  0  0  0
  -30.3143  -11.2987   19.8195 H   0  0  0  0  0  0
  -29.7286  -11.7827   17.4353 H   0  0  0  0  0  0
  -29.6903  -13.4934   17.7654 H   0  0  0  0  0  0
  -27.8095  -11.3365   18.7890 H   0  0  0  0  0  0
  -27.3768  -12.6969   17.7932 H   0  0  0  0  0  0
  -27.7232  -14.2644   19.6068 H   0  0  0  0  0  0
  -28.6976  -11.9676   21.3609 H   0  0  0  0  0  0
  -28.4815  -13.6063   21.8804 H   0  0  0  0  0  0
  -25.2778   -9.5668   22.4695 H   0  0  0  0  0  0
  -23.9995   -7.4632   22.7434 H   0  0  0  0  0  0
  -21.0805   -8.8796   19.8960 H   0  0  0  0  0  0
  -22.3666  -10.9687   19.6168 H   0  0  0  0  0  0
  -21.1991   -7.6144   23.9667 H   0  0  0  0  0  0
  -21.1431   -6.0515   25.9030 H   0  0  0  0  0  0
  -22.0635   -2.7611   23.2842 H   0  0  0  0  0  0
  -22.4185  -11.9918   22.4769 H   0  0  0  0  0  0
  -21.1165  -13.1253   22.2554 H   0  0  0  0  0  0
  -24.7030  -15.8646   20.5200 H   0  0  0  0  0  0
  -26.3108  -15.6043   20.0814 H   0  0  0  0  0  0
  -26.7045  -32.5541   23.1146 H   0  0  0  0  0  0
  -24.9884  -33.9736   25.0349 H   0  0  0  0  0  0
  -22.6878  -31.2894   21.3955 H   0  0  0  0  0  0
  -23.3750  -35.9629   23.3310 H   0  0  0  0  0  0
  -24.3606  -36.8881   22.2068 H   0  0  0  0  0  0
  -23.7251  -37.6492   23.6651 H   0  0  0  0  0  0
  -26.0504  -31.5865   20.6032 H   0  0  0  0  0  0
  -26.8186  -30.8829   21.9911 H   0  0  0  0  0  0
  -28.0944  -29.0724   21.2357 H   0  0  0  0  0  0
  -26.1112  -25.9683   19.0239 H   0  0  0  0  0  0
  -24.0164  -27.2783   19.0026 H   0  0  0  0  0  0
  -23.7125  -30.5594   19.3933 H   0  0  0  0  0  0
  -22.7479  -29.1916   19.8854 H   0  0  0  0  0  0
  -25.1272  -36.1955   25.0841 H   0  0  0  0  0  0
  -20.9925  -28.3121   24.1484 H   0  0  0  0  0  0
  -20.5497  -26.2211   23.3616 H   0  0  0  0  0  0
  -21.6550  -26.7308   22.1263 H   0  0  0  0  0  0
  -19.6790  -25.6318   21.1163 H   0  0  0  0  0  0
  -19.6566  -27.3265   20.6804 H   0  0  0  0  0  0
  -17.4099  -26.6678   21.4092 H   0  0  0  0  0  0
  -18.0263  -26.0031   22.9049 H   0  0  0  0  0  0
  -19.7920  -30.7193   24.2371 H   0  0  0  0  0  0
  -17.5009  -31.6273   24.5135 H   0  0  0  0  0  0
  -15.5344  -30.3034   23.7562 H   0  0  0  0  0  0
  -15.8634  -28.0815   22.7096 H   0  0  0  0  0  0
  -24.6000  -30.6871   25.7749 H   0  0  0  0  0  0
  -24.8888  -32.2721   26.4873 H   0  0  0  0  0  0
  -25.8162  -30.8777   27.0174 H   0  0  0  0  0  0
  -26.2890  -29.6747   24.1049 H   0  0  0  0  0  0
  -27.4039  -29.7182   25.4501 H   0  0  0  0  0  0
  -27.8743  -30.4287   23.9258 H   0  0  0  0  0  0
  -27.2824  -33.3539   26.1971 H   0  0  0  0  0  0
  -28.3890  -32.6698   25.0150 H   0  0  0  0  0  0
  -28.0820  -31.8312   26.5235 H   0  0  0  0  0  0
  -28.2610  -38.0060   24.7483 H   0  0  0  0  0  0
  -28.1053  -36.2601   24.6356 H   0  0  0  0  0  0
  -27.2311  -37.1498   25.8885 H   0  0  0  0  0  0
  -20.9298  -29.8746   21.7047 H   0  0  0  0  0  0
  -26.0185  -38.2835   24.1404 H   0  0  0  0  0  0
  -28.2789  -17.1668   21.3218 H   0  0  0  0  0  0
  -27.2955  -19.3107   20.6583 H   0  0  0  0  0  0
  -31.1765  -21.1566   20.8089 H   0  0  0  0  0  0
  -31.4552  -18.6173   24.1016 H   0  0  0  0  0  0
  -32.8450  -17.5913   23.7213 H   0  0  0  0  0  0
  -31.9432  -17.3381   25.2209 H   0  0  0  0  0  0
  -27.0855  -23.9109   20.0216 H   0  0  0  0  0  0
  -28.5816  -24.1878   19.1999 H   0  0  0  0  0  0
  -29.3139  -25.4899   21.4543 H   0  0  0  0  0  0
  -27.6134  -25.5477   21.7734 H   0  0  0  0  0  0
  -31.9982  -16.5517   21.6060 H   0  0  0  0  0  0
  -27.6755  -21.6160   19.8220 H   0  0  0  0  0  0
  -29.3880  -15.1357   21.9105 H   0  0  0  0  0  0
  1 25  1  0  0  0
  1 30  2  0  0  0
  1 84  1  0  0  0
  2  3  1  0  0  0
  2 25  1  0  0  0
  2 88  1  0  0  0
  2 89  1  0  0  0
  3  4  1  0  0  0
  3 90  1  0  0  0
  3 91  1  0  0  0
  4  5  1  0  0  0
  4 92  1  0  0  0
  4 93  1  0  0  0
  5  6  1  0  0  0
  5 26  1  0  0  0
  5 94  1  0  0  0
  6 25  1  0  0  0
  6 95  1  0  0  0
  6 96  1  0  0  0
  7  8  2  0  0  0
  7 26  1  0  0  0
  7 29  1  0  0  0
  8  9  1  0  0  0
  8 22  1  0  0  0
  9 10  1  0  0  0
  9 27  2  0  0  0
 10 11  2  0  0  0
 10 15  1  0  0  0
 11 12  1  0  0  0
 11 97  1  0  0  0
 12 13  2  0  0  0
 12 98  1  0  0  0
 13 14  1  0  0  0
 13 31  1  0  0  0
 14 15  2  0  0  0
 14 99  1  0  0  0
 15100  1  0  0  0
 16 17  2  0  0  0
 16 21  1  0  0  0
 16 31  1  0  0  0
 17 18  1  0  0  0
 17101  1  0  0  0
 18 19  2  0  0  0
 18102  1  0  0  0
 19 20  1  0  0  0
 19 24  1  0  0  0
 20 21  2  0  0  0
 20103  1  0  0  0
 21 23  1  0  0  0
 22 28  1  0  0  0
 22 32  2  0  0  0
 26 27  1  0  0  0
 28104  1  0  0  0
 28105  1  0  0  0
 29106  1  0  0  0
 29107  1  0  0  0
 33 34  1  0  0  0
 33 66  1  0  0  0
 33 70  2  0  0  0
 34 36  1  0  0  0
 34 59  1  0  0  0
 34108  1  0  0  0
 35 44  2  0  0  0
 35 45  1  0  0  0
 35 68  1  0  0  0
 36 56  1  0  0  0
 36109  1  0  0  0
 37 39  1  0  0  0
 37 47  1  0  0  0
 37 66  1  0  0  0
 37110  1  0  0  0
 38 43  2  0  0  0
 38 46  1  0  0  0
 38 47  1  0  0  0
 39 64  1  0  0  0
 39 67  2  0  0  0
 40 52  1  0  0  0
 40 53  2  0  0  0
 40 58  1  0  0  0
 41111  1  0  0  0
 41112  1  0  0  0
 41113  1  0  0  0
 41 48  1  0  0  0
 42 43  1  0  0  0
 42 66  1  0  0  0
 42114  1  0  0  0
 42115  1  0  0  0
 43 44  1  0  0  0
 44116  1  0  0  0
 45 46  2  0  0  0
 45117  1  0  0  0
 46118  1  0  0  0
 47119  1  0  0  0
 47120  1  0  0  0
 48 56  1  0  0  0
 48 65  1  0  0  0
 48121  1  0  0  0
 49 50  1  0  0  0
 49 53  1  0  0  0
 49 64  1  0  0  0
 49122  1  0  0  0
 50 51  1  0  0  0
 50123  1  0  0  0
 50124  1  0  0  0
 51 52  1  0  0  0
 51125  1  0  0  0
 51126  1  0  0  0
 52127  1  0  0  0
 52128  1  0  0  0
 53 54  1  0  0  0
 54 55  2  0  0  0
 54129  1  0  0  0
 55 57  1  0  0  0
 55130  1  0  0  0
 56 69  2  0  0  0
 57 58  2  0  0  0
 57131  1  0  0  0
 58132  1  0  0  0
 59 60  1  0  0  0
 59 61  1  0  0  0
 59 62  1  0  0  0
 60133  1  0  0  0
 60134  1  0  0  0
 60135  1  0  0  0
 61136  1  0  0  0
 61137  1  0  0  0
 61138  1  0  0  0
 62139  1  0  0  0
 62140  1  0  0  0
 62141  1  0  0  0
 63 65  1  0  0  0
 63142  1  0  0  0
 63143  1  0  0  0
 63144  1  0  0  0
 64145  1  0  0  0
 65146  1  0  0  0
 68 81  1  0  0  0
 71 72  2  0  0  0
 71 74  1  0  0  0
 71147  1  0  0  0
 72 75  1  0  0  0
 72148  1  0  0  0
 73 75  2  0  0  0
 73 76  1  0  0  0
 73149  1  0  0  0
 74 76  2  0  0  0
 74 82  1  0  0  0
 75 83  1  0  0  0
 76 87  1  0  0  0
 77 79  1  0  0  0
 77 82  1  0  0  0
 77 85  2  0  0  0
 78 80  1  0  0  0
 78 83  1  0  0  0
 78 86  2  0  0  0
 79150  1  0  0  0
 79151  1  0  0  0
 79152  1  0  0  0
 80 81  1  0  0  0
 80153  1  0  0  0
 80154  1  0  0  0
 81155  1  0  0  0
 81156  1  0  0  0
 82 84  1  0  0  0
 82157  1  0  0  0
 83158  1  0  0  0
 84159  1  0  0  0
M  ISO  4   1 100  68 101  81 101  84 100
M  END
> <chiral flag>
0

> <version>
0

> <s_m_source_file>
/data/baiqing/PycharmProjects/Reinvent-master-3.2/result/LINK_invent/BTK/process_docking_weight1_custom_product_contain_oxygen_bond_distance_aromatic_linkinvent_7_9_3/rearranged_h_0095.sdf

> <i_m_source_file_index>
90

> <r_mmod_Potential_Energy-OPLS-2005>
-211.798110961914

> <r_mmod_Stretch_Energy-OPLS-2005>
43.5551338195801

> <r_mmod_Bend_Energy-OPLS-2005>
104.806343078613

> <r_mmod_Torsional_Energy-OPLS-2005>
220.007537841797

> <r_mmod_Improper_Torsional_Energy-OPLS-2005>
2.40862417221069

> <r_mmod_Van_der_Waal_Energy-OPLS-2005>
154.681381225586

> <r_mmod_Electrostatic_Energy-OPLS-2005>
-515.365539550781

> <r_mmod_Solvation_Energy-OPLS-2005>
-234.458221435547

> <b_mmod_Minimization_Converged-OPLS-2005>
0

> <r_mmod_RMS_Derivative-OPLS-2005>
6.97435665130615

$$$$
90
                    3D
 Structure written by MMmdl.
161170  0  0  1  0            999 V2000
  -30.6346  -14.6974   20.4057 C   0  0  0  0  0  0
  -30.4316  -12.4638   19.4293 C   0  0  0  0  0  0
  -29.5024  -12.5373   18.1927 C   0  0  0  0  0  0
  -28.0217  -12.3925   18.6072 C   0  0  0  0  0  0
  -27.6410  -13.2609   19.8395 C   0  0  2  0  0  0
  -28.6923  -13.2292   20.9728 C   0  0  0  0  0  0
  -25.2474  -13.8351   20.5789 C   0  0  0  0  0  0
  -24.1857  -13.0469   20.9254 C   0  0  0  0  0  0
  -24.6556  -11.6923   20.8837 C   0  0  0  0  0  0
  -23.9208  -10.4273   21.0411 C   0  0  0  0  0  0
  -24.3776   -9.4183   21.9173 C   0  0  0  0  0  0
  -23.6416   -8.2266   22.0737 C   0  0  0  0  0  0
  -22.4370   -8.0346   21.3544 C   0  0  0  0  0  0
  -22.0053   -9.0306   20.4623 C   0  0  0  0  0  0
  -22.7406  -10.2139   20.2998 C   0  0  0  0  0  0
  -21.6846   -6.0788   22.5257 C   0  0  0  0  0  0
  -21.4054   -6.5693   23.8213 C   0  0  0  0  0  0
  -21.3682   -5.6835   24.9163 C   0  0  0  0  0  0
  -21.6001   -4.3089   24.7187 C   0  0  0  0  0  0
  -21.8830   -3.8201   23.4328 C   0  0  0  0  0  0
  -21.9215   -4.7020   22.3385 C   0  0  0  0  0  0
  -22.7825  -13.5146   21.1896 C   0  0  0  0  0  0
  -22.1658   -4.2231   21.0954 F   0  0  0  0  0  0
  -21.5621   -3.4527   25.7703 F   0  0  0  0  0  0
  -29.9902  -13.5063   20.3667 N   0  0  0  0  0  0
  -26.2964  -12.9585   20.3337 N   0  0  0  0  0  0
  -25.9473  -11.6661   20.5797 N   0  0  0  0  0  0
  -22.0514  -12.8070   22.0462 N   0  0  0  0  0  0
  -25.4101  -15.2115   20.4381 N   0  0  0  0  0  0
  -31.8492  -14.7518   20.2088 O   0  0  0  0  0  0
  -21.6658   -6.8961   21.4245 O   0  0  0  0  0  0
  -22.3437  -14.5410   20.6708 O   0  0  0  0  0  0
  -24.6271  -31.8701   23.2133 C   0  0  0  0  0  0
  -25.9050  -32.4873   23.8405 C   0  0  1  0  0  0
  -27.2237  -27.4498   20.0507 C   0  0  0  0  0  0
  -25.5971  -33.8679   24.2360 N   0  0  0  0  0  0
  -23.3999  -30.4882   21.5742 C   0  0  2  0  0  0
  -24.8354  -28.9712   20.0921 C   0  0  0  0  0  0
  -22.7527  -29.4545   22.5136 C   0  0  0  0  0  0
  -18.0295  -28.1307   22.8490 C   0  0  0  0  0  0
  -24.1481  -36.7341   23.2642 C   0  0  0  0  0  0
  -25.9216  -30.8449   21.3435 C   0  0  0  0  0  0
  -26.0119  -29.4899   20.6688 C   0  0  0  0  0  0
  -27.1936  -28.7291   20.6623 C   0  0  0  0  0  0
  -26.0305  -26.9581   19.4608 C   0  0  0  0  0  0
  -24.8452  -27.7263   19.4581 C   0  0  0  0  0  0
  -23.5827  -29.8283   20.1788 C   0  0  0  0  0  0
  -25.4077  -36.3167   24.0334 C   0  0  1  0  0  0
  -20.5961  -28.3338   23.1249 C   0  0  2  0  0  0
  -20.6735  -26.8969   22.5485 C   0  0  0  0  0  0
  -19.5816  -26.6394   21.4928 C   0  0  0  0  0  0
  -18.1986  -26.7872   22.1341 C   0  0  0  0  0  0
  -19.1682  -28.8721   23.2808 C   0  0  0  0  0  0
  -18.9807  -30.1415   23.8834 C   0  0  0  0  0  0
  -17.6834  -30.6500   24.0623 C   0  0  0  0  0  0
  -25.9004  -34.9538   23.5195 C   0  0  0  0  0  0
  -16.5609  -29.8998   23.6735 C   0  0  0  0  0  0
  -16.7335  -28.6516   23.0593 C   0  0  0  0  0  0
  -26.4498  -31.6624   25.0712 C   0  0  0  0  0  0
  -25.3781  -31.3604   26.1445 C   0  0  0  0  0  0
  -27.0276  -30.3093   24.5959 C   0  0  0  0  0  0
  -27.6088  -32.4265   25.7478 C   0  0  0  0  0  0
  -27.5588  -37.1809   24.8481 C   0  0  0  0  0  0
  -21.4310  -29.2815   22.3840 N   0  0  0  0  0  0
  -26.4279  -37.3812   23.9502 N   0  0  0  0  0  0
  -24.6633  -31.0696   22.1027 N   0  0  0  0  0  0
  -23.4368  -28.8069   23.3119 O   0  0  0  0  0  0
  -28.3408  -26.6376   20.0340 O   0  0  0  0  0  0
  -26.5574  -34.8941   22.4762 O   0  0  0  0  0  0
  -23.5396  -32.1508   23.7478 O   0  0  0  0  0  0
  -29.5380  -19.6079   20.5151 C   0  0  0  0  0  0
  -29.6984  -18.1933   22.4910 C   0  0  0  0  0  0
  -29.8772  -18.3542   21.1143 C   0  0  0  0  0  0
  -28.8302  -20.6139   21.2382 C   0  0  0  0  0  0
  -28.9761  -19.1358   23.2291 C   0  0  0  0  0  0
  -28.4862  -20.3015   22.5927 C   0  0  0  0  0  0
  -28.2176  -24.1983   20.3116 C   0  0  0  0  0  0
  -28.1254  -25.4768   20.7429 C   0  0  0  0  0  0
  -28.7094  -23.6510   18.9772 C   0  0  0  0  0  0
  -27.8555  -23.0193   21.1873 C   0  0  0  0  0  0
  -28.6563  -22.1089   19.1527 C   0  0  0  0  0  0
  -30.5425  -17.2029   20.3612 C   0  0  0  0  0  0
  -28.4747  -21.8444   20.5862 N   0  0  0  0  0  0
  -28.6262  -18.8430   24.5591 N   0  0  0  0  0  0
  -27.5843  -21.0850   23.3275 N   0  0  0  0  0  0
  -29.9091  -15.8481   20.4629 N   0  0  0  0  0  0
  -31.4715  -12.6392   19.1243 H   0  0  0  0  0  0
  -30.3880  -11.4841   19.9076 H   0  0  0  0  0  0
  -29.7668  -11.7705   17.4626 H   0  0  0  0  0  0
  -29.6689  -13.4928   17.6916 H   0  0  0  0  0  0
  -27.8179  -11.3386   18.8172 H   0  0  0  0  0  0
  -27.3798  -12.6515   17.7600 H   0  0  0  0  0  0
  -27.6017  -14.2813   19.4594 H   0  0  0  0  0  0
  -28.7373  -12.2959   21.5151 H   0  0  0  0  0  0
  -28.4592  -14.0057   21.7087 H   0  0  0  0  0  0
  -25.2902   -9.5609   22.4733 H   0  0  0  0  0  0
  -24.0069   -7.4614   22.7465 H   0  0  0  0  0  0
  -21.0972   -8.8908   19.8900 H   0  0  0  0  0  0
  -22.3973  -10.9732   19.6114 H   0  0  0  0  0  0
  -21.2053   -7.6184   23.9753 H   0  0  0  0  0  0
  -21.1478   -6.0526   25.9078 H   0  0  0  0  0  0
  -22.0591   -2.7654   23.2766 H   0  0  0  0  0  0
  -22.4237  -11.9747   22.4837 H   0  0  0  0  0  0
  -21.1074  -13.0994   22.2596 H   0  0  0  0  0  0
  -24.6450  -15.8583   20.5727 H   0  0  0  0  0  0
  -26.2710  -15.6750   20.1879 H   0  0  0  0  0  0
  -26.7093  -32.5516   23.1122 H   0  0  0  0  0  0
  -25.0017  -33.9800   25.0404 H   0  0  0  0  0  0
  -22.6914  -31.3114   21.4670 H   0  0  0  0  0  0
  -23.3770  -35.9692   23.3315 H   0  0  0  0  0  0
  -24.3563  -36.8921   22.2095 H   0  0  0  0  0  0
  -23.7236  -37.6514   23.6615 H   0  0  0  0  0  0
  -25.9988  -31.6078   20.5760 H   0  0  0  0  0  0
  -26.8260  -30.9179   21.9332 H   0  0  0  0  0  0
  -28.1039  -29.1314   21.0837 H   0  0  0  0  0  0
  -26.0288  -25.9873   18.9895 H   0  0  0  0  0  0
  -23.9482  -27.3506   18.9840 H   0  0  0  0  0  0
  -23.6306  -30.6253   19.4292 H   0  0  0  0  0  0
  -22.7124  -29.2234   19.9068 H   0  0  0  0  0  0
  -25.1286  -36.2014   25.0802 H   0  0  0  0  0  0
  -21.0246  -28.2780   24.1222 H   0  0  0  0  0  0
  -20.4785  -26.2004   23.3600 H   0  0  0  0  0  0
  -21.6856  -26.6374   22.2152 H   0  0  0  0  0  0
  -19.7354  -25.6514   21.0175 H   0  0  0  0  0  0
  -19.6777  -27.3679   20.6770 H   0  0  0  0  0  0
  -17.4295  -26.6861   21.3683 H   0  0  0  0  0  0
  -18.0163  -25.9707   22.8418 H   0  0  0  0  0  0
  -19.8252  -30.7264   24.2069 H   0  0  0  0  0  0
  -17.5350  -31.6018   24.5282 H   0  0  0  0  0  0
  -15.5675  -30.2744   23.8472 H   0  0  0  0  0  0
  -15.8445  -28.0918   22.7682 H   0  0  0  0  0  0
  -24.5946  -30.7001   25.7694 H   0  0  0  0  0  0
  -24.8994  -32.2698   26.5066 H   0  0  0  0  0  0
  -25.8125  -30.8589   27.0113 H   0  0  0  0  0  0
  -26.2750  -29.6920   24.1026 H   0  0  0  0  0  0
  -27.4141  -29.7233   25.4322 H   0  0  0  0  0  0
  -27.8566  -30.4511   23.9029 H   0  0  0  0  0  0
  -27.2756  -33.3501   26.2223 H   0  0  0  0  0  0
  -28.3821  -32.6911   25.0255 H   0  0  0  0  0  0
  -28.0876  -31.8282   26.5250 H   0  0  0  0  0  0
  -28.2606  -38.0066   24.7553 H   0  0  0  0  0  0
  -28.1038  -36.2661   24.6270 H   0  0  0  0  0  0
  -27.2335  -37.1433   25.8841 H   0  0  0  0  0  0
  -20.9426  -29.9020   21.7515 H   0  0  0  0  0  0
  -26.0200  -38.2897   24.1410 H   0  0  0  0  0  0
  -29.7962  -19.7624   19.4811 H   0  0  0  0  0  0
  -30.0451  -17.2689   22.9471 H   0  0  0  0  0  0
  -27.8010  -25.6991   21.7489 H   0  0  0  0  0  0
  -29.7487  -23.9388   18.8018 H   0  0  0  0  0  0
  -28.1611  -24.0019   18.1093 H   0  0  0  0  0  0
  -26.7768  -22.8703   21.1352 H   0  0  0  0  0  0
  -28.1271  -23.2345   22.2249 H   0  0  0  0  0  0
  -29.5605  -21.6649   18.7208 H   0  0  0  0  0  0
  -27.8086  -21.6813   18.6333 H   0  0  0  0  0  0
  -31.5041  -17.1244   20.8796 H   0  0  0  0  0  0
  -30.8217  -17.4646   19.3427 H   0  0  0  0  0  0
  -27.6056  -18.9319   24.6509 H   0  0  0  0  0  0
  -28.8751  -19.5488   25.2405 H   0  0  0  0  0  0
  -27.9204  -21.4079   24.2196 H   0  0  0  0  0  0
  -27.1723  -21.8149   22.7820 H   0  0  0  0  0  0
  -28.8935  -15.8449   20.5679 H   0  0  0  0  0  0
  1 25  1  0  0  0
  1 30  2  0  0  0
  1 86  1  0  0  0
  2  3  1  0  0  0
  2 25  1  0  0  0
  2 87  1  0  0  0
  2 88  1  0  0  0
  3  4  1  0  0  0
  3 89  1  0  0  0
  3 90  1  0  0  0
  4  5  1  0  0  0
  4 91  1  0  0  0
  4 92  1  0  0  0
  5  6  1  0  0  0
  5 26  1  0  0  0
  5 93  1  0  0  0
  6 25  1  0  0  0
  6 94  1  0  0  0
  6 95  1  0  0  0
  7  8  2  0  0  0
  7 26  1  0  0  0
  7 29  1  0  0  0
  8  9  1  0  0  0
  8 22  1  0  0  0
  9 10  1  0  0  0
  9 27  2  0  0  0
 10 11  2  0  0  0
 10 15  1  0  0  0
 11 12  1  0  0  0
 11 96  1  0  0  0
 12 13  2  0  0  0
 12 97  1  0  0  0
 13 14  1  0  0  0
 13 31  1  0  0  0
 14 15  2  0  0  0
 14 98  1  0  0  0
 15 99  1  0  0  0
 16 17  2  0  0  0
 16 21  1  0  0  0
 16 31  1  0  0  0
 17 18  1  0  0  0
 17100  1  0  0  0
 18 19  2  0  0  0
 18101  1  0  0  0
 19 20  1  0  0  0
 19 24  1  0  0  0
 20 21  2  0  0  0
 20102  1  0  0  0
 21 23  1  0  0  0
 22 28  1  0  0  0
 22 32  2  0  0  0
 26 27  1  0  0  0
 28103  1  0  0  0
 28104  1  0  0  0
 29105  1  0  0  0
 29106  1  0  0  0
 33 34  1  0  0  0
 33 66  1  0  0  0
 33 70  2  0  0  0
 34 36  1  0  0  0
 34 59  1  0  0  0
 34107  1  0  0  0
 35 44  2  0  0  0
 35 45  1  0  0  0
 35 68  1  0  0  0
 36 56  1  0  0  0
 36108  1  0  0  0
 37 39  1  0  0  0
 37 47  1  0  0  0
 37 66  1  0  0  0
 37109  1  0  0  0
 38 43  2  0  0  0
 38 46  1  0  0  0
 38 47  1  0  0  0
 39 64  1  0  0  0
 39 67  2  0  0  0
 40 52  1  0  0  0
 40 53  2  0  0  0
 40 58  1  0  0  0
 41110  1  0  0  0
 41111  1  0  0  0
 41112  1  0  0  0
 41 48  1  0  0  0
 42 43  1  0  0  0
 42 66  1  0  0  0
 42113  1  0  0  0
 42114  1  0  0  0
 43 44  1  0  0  0
 44115  1  0  0  0
 45 46  2  0  0  0
 45116  1  0  0  0
 46117  1  0  0  0
 47118  1  0  0  0
 47119  1  0  0  0
 48 56  1  0  0  0
 48 65  1  0  0  0
 48120  1  0  0  0
 49 50  1  0  0  0
 49 53  1  0  0  0
 49 64  1  0  0  0
 49121  1  0  0  0
 50 51  1  0  0  0
 50122  1  0  0  0
 50123  1  0  0  0
 51 52  1  0  0  0
 51124  1  0  0  0
 51125  1  0  0  0
 52126  1  0  0  0
 52127  1  0  0  0
 53 54  1  0  0  0
 54 55  2  0  0  0
 54128  1  0  0  0
 55 57  1  0  0  0
 55129  1  0  0  0
 56 69  2  0  0  0
 57 58  2  0  0  0
 57130  1  0  0  0
 58131  1  0  0  0
 59 60  1  0  0  0
 59 61  1  0  0  0
 59 62  1  0  0  0
 60132  1  0  0  0
 60133  1  0  0  0
 60134  1  0  0  0
 61135  1  0  0  0
 61136  1  0  0  0
 61137  1  0  0  0
 62138  1  0  0  0
 62139  1  0  0  0
 62140  1  0  0  0
 63 65  1  0  0  0
 63141  1  0  0  0
 63142  1  0  0  0
 63143  1  0  0  0
 64144  1  0  0  0
 65145  1  0  0  0
 68 78  1  0  0  0
 71 73  2  0  0  0
 71 74  1  0  0  0
 71146  1  0  0  0
 72 73  1  0  0  0
 72 75  2  0  0  0
 72147  1  0  0  0
 73 82  1  0  0  0
 74 76  2  0  0  0
 74 83  1  0  0  0
 75 76  1  0  0  0
 75 84  1  0  0  0
 76 85  1  0  0  0
 77 78  2  0  0  0
 77 79  1  0  0  0
 77 80  1  0  0  0
 78148  1  0  0  0
 79 81  1  0  0  0
 79149  1  0  0  0
 79150  1  0  0  0
 80 83  1  0  0  0
 80151  1  0  0  0
 80152  1  0  0  0
 81 83  1  0  0  0
 81153  1  0  0  0
 81154  1  0  0  0
 82 86  1  0  0  0
 82155  1  0  0  0
 82156  1  0  0  0
 84157  1  0  0  0
 84158  1  0  0  0
 85159  1  0  0  0
 85160  1  0  0  0
 86161  1  0  0  0
M  ISO  4   1 100  68 101  78 101  86 100
M  END
> <chiral flag>
0

> <version>
0

> <s_m_source_file>
/data/baiqing/PycharmProjects/Reinvent-master-3.2/result/LINK_invent/BTK/process_docking_weight1_custom_product_contain_oxygen_bond_distance_aromatic_linkinvent_7_9_3/rearranged_h_0095.sdf

> <i_m_source_file_index>
91

> <r_mmod_Potential_Energy-OPLS-2005>
-24.5314102172852

> <r_mmod_Stretch_Energy-OPLS-2005>
51.6235885620117

> <r_mmod_Bend_Energy-OPLS-2005>
187.975936889648

> <r_mmod_Torsional_Energy-OPLS-2005>
281.908843994141

> <r_mmod_Improper_Torsional_Energy-OPLS-2005>
17.8923625946045

> <r_mmod_Van_der_Waal_Energy-OPLS-2005>
166.627227783203

> <r_mmod_Electrostatic_Energy-OPLS-2005>
-552.1142578125

> <r_mmod_Solvation_Energy-OPLS-2005>
-236.890319824219

> <b_mmod_Minimization_Converged-OPLS-2005>
0

> <r_mmod_RMS_Derivative-OPLS-2005>
29.6155586242676

$$$$
91
                    3D
 Structure written by MMmdl.
163172  0  0  1  0            999 V2000
  -30.6707  -14.6091   20.5998 C   0  0  0  0  0  0
  -30.4283  -12.4082   19.4462 C   0  0  0  0  0  0
  -29.5019  -12.5326   18.2188 C   0  0  0  0  0  0
  -28.0270  -12.3509   18.6272 C   0  0  0  0  0  0
  -27.6475  -13.2192   19.8550 C   0  0  2  0  0  0
  -28.6815  -13.0577   20.9851 C   0  0  0  0  0  0
  -25.2535  -13.8200   20.5680 C   0  0  0  0  0  0
  -24.1794  -13.0452   20.9191 C   0  0  0  0  0  0
  -24.6373  -11.6924   20.8732 C   0  0  0  0  0  0
  -23.9050  -10.4298   21.0403 C   0  0  0  0  0  0
  -24.3610   -9.4213   21.9176 C   0  0  0  0  0  0
  -23.6299   -8.2237   22.0739 C   0  0  0  0  0  0
  -22.4275   -8.0279   21.3541 C   0  0  0  0  0  0
  -21.9901   -9.0242   20.4631 C   0  0  0  0  0  0
  -22.7225  -10.2129   20.3043 C   0  0  0  0  0  0
  -21.6850   -6.0735   22.5279 C   0  0  0  0  0  0
  -21.4006   -6.5632   23.8216 C   0  0  0  0  0  0
  -21.3667   -5.6787   24.9177 C   0  0  0  0  0  0
  -21.6051   -4.3051   24.7222 C   0  0  0  0  0  0
  -21.8816   -3.8142   23.4343 C   0  0  0  0  0  0
  -21.9191   -4.6960   22.3406 C   0  0  0  0  0  0
  -22.7824  -13.5241   21.1876 C   0  0  0  0  0  0
  -22.1660   -4.2150   21.0982 F   0  0  0  0  0  0
  -21.5636   -3.4533   25.7734 F   0  0  0  0  0  0
  -30.0076  -13.4125   20.4481 N   0  0  0  0  0  0
  -26.2932  -12.9368   20.3246 N   0  0  0  0  0  0
  -25.9283  -11.6522   20.5705 N   0  0  0  0  0  0
  -22.0470  -12.8223   22.0440 N   0  0  0  0  0  0
  -25.4287  -15.1915   20.4138 N   0  0  0  0  0  0
  -31.7520  -14.8040   20.0347 O   0  0  0  0  0  0
  -21.6649   -6.8871   21.4240 O   0  0  0  0  0  0
  -22.3493  -14.5547   20.6740 O   0  0  0  0  0  0
  -24.6264  -31.8589   23.2029 C   0  0  0  0  0  0
  -25.9114  -32.4758   23.8359 C   0  0  1  0  0  0
  -27.2290  -27.3241   20.1179 C   0  0  0  0  0  0
  -25.5917  -33.8556   24.2299 N   0  0  0  0  0  0
  -23.4195  -30.4860   21.5416 C   0  0  2  0  0  0
  -24.8687  -28.9389   20.1084 C   0  0  0  0  0  0
  -22.7470  -29.4649   22.4896 C   0  0  0  0  0  0
  -18.0291  -28.1365   22.8488 C   0  0  0  0  0  0
  -24.1475  -36.7292   23.2650 C   0  0  0  0  0  0
  -25.9610  -30.7887   21.3783 C   0  0  0  0  0  0
  -26.0349  -29.4175   20.7197 C   0  0  0  0  0  0
  -27.2194  -28.6225   20.7136 C   0  0  0  0  0  0
  -26.0527  -26.9080   19.4597 C   0  0  0  0  0  0
  -24.8809  -27.6909   19.4656 C   0  0  0  0  0  0
  -23.6351  -29.8196   20.1569 C   0  0  0  0  0  0
  -25.4102  -36.3079   24.0351 C   0  0  1  0  0  0
  -20.5890  -28.3709   23.1233 C   0  0  2  0  0  0
  -20.6762  -26.9421   22.5386 C   0  0  0  0  0  0
  -19.5731  -26.6380   21.5194 C   0  0  0  0  0  0
  -18.1925  -26.7907   22.1624 C   0  0  0  0  0  0
  -19.1541  -28.8848   23.2861 C   0  0  0  0  0  0
  -18.9471  -30.1435   23.8897 C   0  0  0  0  0  0
  -17.6471  -30.6567   24.0555 C   0  0  0  0  0  0
  -25.9048  -34.9440   23.5137 C   0  0  0  0  0  0
  -16.5363  -29.9077   23.6299 C   0  0  0  0  0  0
  -16.7279  -28.6480   23.0356 C   0  0  0  0  0  0
  -26.4507  -31.6561   25.0728 C   0  0  0  0  0  0
  -25.3748  -31.3696   26.1467 C   0  0  0  0  0  0
  -27.0378  -30.2982   24.6209 C   0  0  0  0  0  0
  -27.6046  -32.4342   25.7484 C   0  0  0  0  0  0
  -27.5574  -37.1799   24.8464 C   0  0  0  0  0  0
  -21.4182  -29.3073   22.3626 N   0  0  0  0  0  0
  -26.4270  -37.3780   23.9424 N   0  0  0  0  0  0
  -24.6866  -31.0628   22.0957 N   0  0  0  0  0  0
  -23.4204  -28.8179   23.2958 O   0  0  0  0  0  0
  -28.3404  -26.4692   20.1369 O   0  0  0  0  0  0
  -26.5628  -34.8909   22.4710 O   0  0  0  0  0  0
  -23.5434  -32.1377   23.7371 O   0  0  0  0  0  0
  -29.8620  -19.4205   21.7912 C   0  0  0  0  0  0
  -29.9685  -18.0285   22.0743 C   0  0  0  0  0  0
  -29.7354  -17.5121   19.7452 C   0  0  0  0  0  0
  -29.7234  -19.9121   20.4699 C   0  0  0  0  0  0
  -29.9533  -17.0177   21.0637 C   0  0  0  0  0  0
  -29.6203  -18.9125   19.4537 C   0  0  0  0  0  0
  -31.1265  -21.7494   19.7915 C   0  0  0  0  0  0
  -31.3921  -23.2124   19.4100 C   0  0  0  0  0  0
  -30.5189  -24.2353   20.1435 C   0  0  0  0  0  0
  -28.8409  -22.3975   20.5264 C   0  0  0  0  0  0
  -29.0430  -23.8955   19.9747 C   0  0  1  0  0  0
  -30.1798  -15.2543   22.8421 C   0  0  0  0  0  0
  -28.1294  -25.0632   20.5756 C   0  0  0  0  0  0
  -29.8809  -21.3504   20.1732 N   0  0  0  0  0  0
  -29.4064  -19.2985   18.1311 N   0  0  0  0  0  0
  -30.1177  -15.5827   21.4068 N   0  0  0  0  0  0
  -32.0869  -20.9741   19.7101 O   0  0  0  0  0  0
  -31.4694  -12.5329   19.1441 H   0  0  0  0  0  0
  -30.3678  -11.4057   19.8711 H   0  0  0  0  0  0
  -29.7783  -11.7973   17.4613 H   0  0  0  0  0  0
  -29.6369  -13.5133   17.7587 H   0  0  0  0  0  0
  -27.8723  -11.2961   18.8579 H   0  0  0  0  0  0
  -27.3721  -12.5758   17.7845 H   0  0  0  0  0  0
  -27.6714  -14.2580   19.5258 H   0  0  0  0  0  0
  -28.6901  -12.0283   21.3447 H   0  0  0  0  0  0
  -28.3819  -13.6653   21.8367 H   0  0  0  0  0  0
  -25.2749   -9.5705   22.4757 H   0  0  0  0  0  0
  -24.0022   -7.4622   22.7441 H   0  0  0  0  0  0
  -21.0833   -8.8744   19.8934 H   0  0  0  0  0  0
  -22.3669  -10.9664   19.6150 H   0  0  0  0  0  0
  -21.1984   -7.6138   23.9722 H   0  0  0  0  0  0
  -21.1508   -6.0516   25.9090 H   0  0  0  0  0  0
  -22.0592   -2.7602   23.2848 H   0  0  0  0  0  0
  -22.4086  -11.9896   22.4849 H   0  0  0  0  0  0
  -21.1079  -13.1228   22.2633 H   0  0  0  0  0  0
  -24.6738  -15.8591   20.5320 H   0  0  0  0  0  0
  -26.2978  -15.6276   20.1289 H   0  0  0  0  0  0
  -26.7162  -32.5430   23.1083 H   0  0  0  0  0  0
  -25.0013  -33.9662   25.0418 H   0  0  0  0  0  0
  -22.7139  -31.3074   21.3989 H   0  0  0  0  0  0
  -23.3731  -35.9628   23.3307 H   0  0  0  0  0  0
  -24.3552  -36.8918   22.2060 H   0  0  0  0  0  0
  -23.7226  -37.6498   23.6669 H   0  0  0  0  0  0
  -26.1088  -31.5528   20.6142 H   0  0  0  0  0  0
  -26.8328  -30.8244   22.0187 H   0  0  0  0  0  0
  -28.1138  -28.9903   21.1971 H   0  0  0  0  0  0
  -26.0414  -25.9692   18.9257 H   0  0  0  0  0  0
  -23.9964  -27.3354   18.9565 H   0  0  0  0  0  0
  -23.7495  -30.5963   19.3993 H   0  0  0  0  0  0
  -22.7540  -29.2495   19.8576 H   0  0  0  0  0  0
  -25.1277  -36.1925   25.0842 H   0  0  0  0  0  0
  -21.0004  -28.3295   24.1343 H   0  0  0  0  0  0
  -20.5592  -26.2359   23.3622 H   0  0  0  0  0  0
  -21.6632  -26.7389   22.1221 H   0  0  0  0  0  0
  -19.6888  -25.6291   21.1219 H   0  0  0  0  0  0
  -19.6620  -27.3183   20.6714 H   0  0  0  0  0  0
  -17.4183  -26.6645   21.4038 H   0  0  0  0  0  0
  -18.0335  -26.0032   22.9006 H   0  0  0  0  0  0
  -19.7954  -30.7228   24.2287 H   0  0  0  0  0  0
  -17.5036  -31.6243   24.5171 H   0  0  0  0  0  0
  -15.5365  -30.2991   23.7595 H   0  0  0  0  0  0
  -15.8685  -28.0774   22.7107 H   0  0  0  0  0  0
  -24.5854  -30.7134   25.7783 H   0  0  0  0  0  0
  -24.9030  -32.2870   26.4989 H   0  0  0  0  0  0
  -25.8055  -30.8763   27.0188 H   0  0  0  0  0  0
  -26.2973  -29.6697   24.1246 H   0  0  0  0  0  0
  -27.4082  -29.7255   25.4722 H   0  0  0  0  0  0
  -27.8832  -30.4258   23.9446 H   0  0  0  0  0  0
  -27.2604  -33.3609   26.2084 H   0  0  0  0  0  0
  -28.3808  -32.6981   25.0290 H   0  0  0  0  0  0
  -28.0783  -31.8492   26.5374 H   0  0  0  0  0  0
  -28.2603  -38.0088   24.7518 H   0  0  0  0  0  0
  -28.1051  -36.2622   24.6268 H   0  0  0  0  0  0
  -27.2290  -37.1436   25.8865 H   0  0  0  0  0  0
  -20.9372  -29.8824   21.6849 H   0  0  0  0  0  0
  -26.0155  -38.2858   24.1408 H   0  0  0  0  0  0
  -29.9549  -20.1199   22.6091 H   0  0  0  0  0  0
  -30.1015  -17.7655   23.1128 H   0  0  0  0  0  0
  -29.6661  -16.8052   18.9298 H   0  0  0  0  0  0
  -31.2410  -23.3015   18.3341 H   0  0  0  0  0  0
  -32.4415  -23.4400   19.5986 H   0  0  0  0  0  0
  -30.7158  -25.2295   19.7428 H   0  0  0  0  0  0
  -30.7820  -24.2704   21.2016 H   0  0  0  0  0  0
  -27.8615  -22.0286   20.2180 H   0  0  0  0  0  0
  -28.8146  -22.4310   21.6154 H   0  0  0  0  0  0
  -28.8335  -23.8790   18.9023 H   0  0  0  0  0  0
  -29.2861  -15.6059   23.3588 H   0  0  0  0  0  0
  -31.0538  -15.7177   23.3005 H   0  0  0  0  0  0
  -30.2642  -14.1858   23.0522 H   0  0  0  0  0  0
  -28.2718  -25.0676   21.6561 H   0  0  0  0  0  0
  -27.0914  -24.7608   20.4468 H   0  0  0  0  0  0
  -28.9326  -18.6337   17.5274 H   0  0  0  0  0  0
  -29.0729  -20.2435   17.9777 H   0  0  0  0  0  0
  1 25  1  0  0  0
  1 30  2  0  0  0
  1 86  1  0  0  0
  2  3  1  0  0  0
  2 25  1  0  0  0
  2 88  1  0  0  0
  2 89  1  0  0  0
  3  4  1  0  0  0
  3 90  1  0  0  0
  3 91  1  0  0  0
  4  5  1  0  0  0
  4 92  1  0  0  0
  4 93  1  0  0  0
  5  6  1  0  0  0
  5 26  1  0  0  0
  5 94  1  0  0  0
  6 25  1  0  0  0
  6 95  1  0  0  0
  6 96  1  0  0  0
  7  8  2  0  0  0
  7 26  1  0  0  0
  7 29  1  0  0  0
  8  9  1  0  0  0
  8 22  1  0  0  0
  9 10  1  0  0  0
  9 27  2  0  0  0
 10 11  2  0  0  0
 10 15  1  0  0  0
 11 12  1  0  0  0
 11 97  1  0  0  0
 12 13  2  0  0  0
 12 98  1  0  0  0
 13 14  1  0  0  0
 13 31  1  0  0  0
 14 15  2  0  0  0
 14 99  1  0  0  0
 15100  1  0  0  0
 16 17  2  0  0  0
 16 21  1  0  0  0
 16 31  1  0  0  0
 17 18  1  0  0  0
 17101  1  0  0  0
 18 19  2  0  0  0
 18102  1  0  0  0
 19 20  1  0  0  0
 19 24  1  0  0  0
 20 21  2  0  0  0
 20103  1  0  0  0
 21 23  1  0  0  0
 22 28  1  0  0  0
 22 32  2  0  0  0
 26 27  1  0  0  0
 28104  1  0  0  0
 28105  1  0  0  0
 29106  1  0  0  0
 29107  1  0  0  0
 33 34  1  0  0  0
 33 66  1  0  0  0
 33 70  2  0  0  0
 34 36  1  0  0  0
 34 59  1  0  0  0
 34108  1  0  0  0
 35 44  2  0  0  0
 35 45  1  0  0  0
 35 68  1  0  0  0
 36 56  1  0  0  0
 36109  1  0  0  0
 37 39  1  0  0  0
 37 47  1  0  0  0
 37 66  1  0  0  0
 37110  1  0  0  0
 38 43  2  0  0  0
 38 46  1  0  0  0
 38 47  1  0  0  0
 39 64  1  0  0  0
 39 67  2  0  0  0
 40 52  1  0  0  0
 40 53  2  0  0  0
 40 58  1  0  0  0
 41111  1  0  0  0
 41112  1  0  0  0
 41113  1  0  0  0
 41 48  1  0  0  0
 42 43  1  0  0  0
 42 66  1  0  0  0
 42114  1  0  0  0
 42115  1  0  0  0
 43 44  1  0  0  0
 44116  1  0  0  0
 45 46  2  0  0  0
 45117  1  0  0  0
 46118  1  0  0  0
 47119  1  0  0  0
 47120  1  0  0  0
 48 56  1  0  0  0
 48 65  1  0  0  0
 48121  1  0  0  0
 49 50  1  0  0  0
 49 53  1  0  0  0
 49 64  1  0  0  0
 49122  1  0  0  0
 50 51  1  0  0  0
 50123  1  0  0  0
 50124  1  0  0  0
 51 52  1  0  0  0
 51125  1  0  0  0
 51126  1  0  0  0
 52127  1  0  0  0
 52128  1  0  0  0
 53 54  1  0  0  0
 54 55  2  0  0  0
 54129  1  0  0  0
 55 57  1  0  0  0
 55130  1  0  0  0
 56 69  2  0  0  0
 57 58  2  0  0  0
 57131  1  0  0  0
 58132  1  0  0  0
 59 60  1  0  0  0
 59 61  1  0  0  0
 59 62  1  0  0  0
 60133  1  0  0  0
 60134  1  0  0  0
 60135  1  0  0  0
 61136  1  0  0  0
 61137  1  0  0  0
 61138  1  0  0  0
 62139  1  0  0  0
 62140  1  0  0  0
 62141  1  0  0  0
 63 65  1  0  0  0
 63142  1  0  0  0
 63143  1  0  0  0
 63144  1  0  0  0
 64145  1  0  0  0
 65146  1  0  0  0
 68 83  1  0  0  0
 71 72  2  0  0  0
 71 74  1  0  0  0
 71147  1  0  0  0
 72 75  1  0  0  0
 72148  1  0  0  0
 73 75  2  0  0  0
 73 76  1  0  0  0
 73149  1  0  0  0
 74 76  2  0  0  0
 74 84  1  0  0  0
 75 86  1  0  0  0
 76 85  1  0  0  0
 77 78  1  0  0  0
 77 84  1  0  0  0
 77 87  2  0  0  0
 78 79  1  0  0  0
 78150  1  0  0  0
 78151  1  0  0  0
 79 81  1  0  0  0
 79152  1  0  0  0
 79153  1  0  0  0
 80 81  1  0  0  0
 80 84  1  0  0  0
 80154  1  0  0  0
 80155  1  0  0  0
 81 83  1  0  0  0
 81156  1  0  0  0
 82 86  1  0  0  0
 82157  1  0  0  0
 82158  1  0  0  0
 82159  1  0  0  0
 83160  1  0  0  0
 83161  1  0  0  0
 85162  1  0  0  0
 85163  1  0  0  0
M  ISO  4   1 100  68 101  83 101  86 100
M  END
> <chiral flag>
0

> <version>
0

> <s_m_source_file>
/data/baiqing/PycharmProjects/Reinvent-master-3.2/result/LINK_invent/BTK/process_docking_weight1_custom_product_contain_oxygen_bond_distance_aromatic_linkinvent_7_9_3/rearranged_h_0095.sdf

> <i_m_source_file_index>
92

> <r_mmod_Potential_Energy-OPLS-2005>
307.712585449219

> <r_mmod_Stretch_Energy-OPLS-2005>
99.0898208618164

> <r_mmod_Bend_Energy-OPLS-2005>
146.066162109375

> <r_mmod_Torsional_Energy-OPLS-2005>
372.039245605469

> <r_mmod_Improper_Torsional_Energy-OPLS-2005>
8.39142227172852

> <r_mmod_Van_der_Waal_Energy-OPLS-2005>
160.405776977539

> <r_mmod_Electrostatic_Energy-OPLS-2005>
-292.878509521484

> <r_mmod_Solvation_Energy-OPLS-2005>
-227.696426391602

> <b_mmod_Minimization_Converged-OPLS-2005>
0

> <r_mmod_RMS_Derivative-OPLS-2005>
2.94302463531494

$$$$
92
                    3D
 Structure written by MMmdl.
153161  0  0  1  0            999 V2000
  -30.6169  -14.6428   20.5101 C   0  0  0  0  0  0
  -30.4373  -12.3981   19.4469 C   0  0  0  0  0  0
  -29.5150  -12.5530   18.2181 C   0  0  0  0  0  0
  -28.0346  -12.3760   18.6175 C   0  0  0  0  0  0
  -27.6540  -13.2218   19.8642 C   0  0  2  0  0  0
  -28.7018  -13.0577   20.9914 C   0  0  0  0  0  0
  -25.2542  -13.8150   20.5675 C   0  0  0  0  0  0
  -24.1819  -13.0407   20.9175 C   0  0  0  0  0  0
  -24.6406  -11.6894   20.8716 C   0  0  0  0  0  0
  -23.9073  -10.4286   21.0376 C   0  0  0  0  0  0
  -24.3622   -9.4217   21.9154 C   0  0  0  0  0  0
  -23.6305   -8.2256   22.0734 C   0  0  0  0  0  0
  -22.4294   -8.0276   21.3538 C   0  0  0  0  0  0
  -21.9915   -9.0244   20.4641 C   0  0  0  0  0  0
  -22.7240  -10.2127   20.3037 C   0  0  0  0  0  0
  -21.6856   -6.0730   22.5292 C   0  0  0  0  0  0
  -21.4014   -6.5639   23.8218 C   0  0  0  0  0  0
  -21.3663   -5.6794   24.9185 C   0  0  0  0  0  0
  -21.6040   -4.3059   24.7229 C   0  0  0  0  0  0
  -21.8818   -3.8144   23.4352 C   0  0  0  0  0  0
  -21.9186   -4.6958   22.3410 C   0  0  0  0  0  0
  -22.7836  -13.5209   21.1832 C   0  0  0  0  0  0
  -22.1656   -4.2143   21.0980 F   0  0  0  0  0  0
  -21.5627   -3.4534   25.7736 F   0  0  0  0  0  0
  -30.0177  -13.4107   20.4351 N   0  0  0  0  0  0
  -26.2993  -12.9356   20.3311 N   0  0  0  0  0  0
  -25.9329  -11.6510   20.5713 N   0  0  0  0  0  0
  -22.0492  -12.8229   22.0436 N   0  0  0  0  0  0
  -25.4158  -15.1884   20.4155 N   0  0  0  0  0  0
  -31.7796  -14.8177   20.1391 O   0  0  0  0  0  0
  -21.6642   -6.8884   21.4257 O   0  0  0  0  0  0
  -22.3517  -14.5503   20.6692 O   0  0  0  0  0  0
  -24.6269  -31.8651   23.2039 C   0  0  0  0  0  0
  -25.9150  -32.4790   23.8348 C   0  0  1  0  0  0
  -27.2149  -27.3284   20.1126 C   0  0  0  0  0  0
  -25.5976  -33.8585   24.2273 N   0  0  0  0  0  0
  -23.4140  -30.4932   21.5487 C   0  0  2  0  0  0
  -24.8527  -28.9467   20.1166 C   0  0  0  0  0  0
  -22.7469  -29.4673   22.4958 C   0  0  0  0  0  0
  -18.0305  -28.1398   22.8469 C   0  0  0  0  0  0
  -24.1487  -36.7275   23.2631 C   0  0  0  0  0  0
  -25.9551  -30.7980   21.3682 C   0  0  0  0  0  0
  -26.0256  -29.4262   20.7103 C   0  0  0  0  0  0
  -27.2077  -28.6295   20.7009 C   0  0  0  0  0  0
  -26.0144  -26.8982   19.4962 C   0  0  0  0  0  0
  -24.8473  -27.6834   19.5051 C   0  0  0  0  0  0
  -23.6242  -29.8331   20.1622 C   0  0  0  0  0  0
  -25.4113  -36.3069   24.0320 C   0  0  1  0  0  0
  -20.5893  -28.3704   23.1288 C   0  0  2  0  0  0
  -20.6812  -26.9439   22.5409 C   0  0  0  0  0  0
  -19.5788  -26.6384   21.5221 C   0  0  0  0  0  0
  -18.1957  -26.7940   22.1612 C   0  0  0  0  0  0
  -19.1553  -28.8865   23.2860 C   0  0  0  0  0  0
  -18.9473  -30.1465   23.8886 C   0  0  0  0  0  0
  -17.6471  -30.6593   24.0562 C   0  0  0  0  0  0
  -25.9082  -34.9453   23.5086 C   0  0  0  0  0  0
  -16.5362  -29.9097   23.6315 C   0  0  0  0  0  0
  -16.7293  -28.6518   23.0329 C   0  0  0  0  0  0
  -26.4511  -31.6597   25.0727 C   0  0  0  0  0  0
  -25.3734  -31.3735   26.1445 C   0  0  0  0  0  0
  -27.0360  -30.3036   24.6162 C   0  0  0  0  0  0
  -27.6068  -32.4323   25.7512 C   0  0  0  0  0  0
  -27.5581  -37.1782   24.8451 C   0  0  0  0  0  0
  -21.4198  -29.3049   22.3686 N   0  0  0  0  0  0
  -26.4268  -37.3792   23.9433 N   0  0  0  0  0  0
  -24.6845  -31.0671   22.0975 N   0  0  0  0  0  0
  -23.4201  -28.8220   23.3048 O   0  0  0  0  0  0
  -28.3418  -26.4928   20.1675 O   0  0  0  0  0  0
  -26.5638  -34.8932   22.4649 O   0  0  0  0  0  0
  -23.5449  -32.1438   23.7406 O   0  0  0  0  0  0
  -31.0425  -17.9030   20.9742 C   0  0  0  0  0  0
  -31.0018  -19.3314   20.9446 C   0  0  0  0  0  0
  -29.8853  -17.1297   20.7017 C   0  0  0  0  0  0
  -28.6802  -19.2984   20.3186 C   0  0  0  0  0  0
  -29.8339  -20.0875   20.6336 C   0  0  0  0  0  0
  -28.7153  -17.8669   20.3777 C   0  0  0  0  0  0
  -29.2080  -24.0124   20.5207 C   0  0  0  0  0  0
  -28.1669  -25.0448   19.9159 C   0  0  0  0  0  0
  -28.9406  -22.4659   20.2266 C   0  0  0  0  0  0
  -27.4599  -19.8796   19.9634 N   0  0  0  0  0  0
  -29.7824  -15.6777   20.8319 N   0  0  0  0  0  0
  -29.9379  -21.5039   20.7093 O   0  0  0  0  0  0
  -27.5771  -17.1747   20.1117 F   0  0  0  0  0  0
  -31.4842  -12.5162   19.1618 H   0  0  0  0  0  0
  -30.3443  -11.3957   19.8645 H   0  0  0  0  0  0
  -29.7938  -11.8443   17.4378 H   0  0  0  0  0  0
  -29.6506  -13.5451   17.7851 H   0  0  0  0  0  0
  -27.8725  -11.3163   18.8191 H   0  0  0  0  0  0
  -27.3846  -12.6283   17.7769 H   0  0  0  0  0  0
  -27.6706  -14.2636   19.5428 H   0  0  0  0  0  0
  -28.7156  -12.0284   21.3519 H   0  0  0  0  0  0
  -28.4488  -13.6714   21.8582 H   0  0  0  0  0  0
  -25.2767   -9.5689   22.4725 H   0  0  0  0  0  0
  -24.0005   -7.4651   22.7457 H   0  0  0  0  0  0
  -21.0840   -8.8768   19.8976 H   0  0  0  0  0  0
  -22.3688  -10.9652   19.6147 H   0  0  0  0  0  0
  -21.2025   -7.6146   23.9732 H   0  0  0  0  0  0
  -21.1482   -6.0514   25.9084 H   0  0  0  0  0  0
  -22.0595   -2.7600   23.2850 H   0  0  0  0  0  0
  -22.4106  -11.9918   22.4881 H   0  0  0  0  0  0
  -21.1095  -13.1252   22.2590 H   0  0  0  0  0  0
  -24.6426  -15.8290   20.5517 H   0  0  0  0  0  0
  -26.2621  -15.6711   20.1342 H   0  0  0  0  0  0
  -26.7225  -32.5435   23.1094 H   0  0  0  0  0  0
  -25.0145  -33.9726   25.0426 H   0  0  0  0  0  0
  -22.7056  -31.3135   21.4166 H   0  0  0  0  0  0
  -23.3771  -35.9581   23.3254 H   0  0  0  0  0  0
  -24.3575  -36.8944   22.2047 H   0  0  0  0  0  0
  -23.7214  -37.6452   23.6688 H   0  0  0  0  0  0
  -26.0916  -31.5610   20.6005 H   0  0  0  0  0  0
  -26.8330  -30.8382   21.9999 H   0  0  0  0  0  0
  -28.1044  -29.0017   21.1748 H   0  0  0  0  0  0
  -25.9415  -25.9361   19.0122 H   0  0  0  0  0  0
  -23.9420  -27.3023   19.0506 H   0  0  0  0  0  0
  -23.7567  -30.6178   19.4176 H   0  0  0  0  0  0
  -22.7353  -29.2835   19.8468 H   0  0  0  0  0  0
  -25.1289  -36.1888   25.0811 H   0  0  0  0  0  0
  -20.9977  -28.3301   24.1415 H   0  0  0  0  0  0
  -20.5755  -26.2328   23.3618 H   0  0  0  0  0  0
  -21.6680  -26.7513   22.1188 H   0  0  0  0  0  0
  -19.6968  -25.6288   21.1274 H   0  0  0  0  0  0
  -19.6734  -27.3175   20.6738 H   0  0  0  0  0  0
  -17.4243  -26.6673   21.4000 H   0  0  0  0  0  0
  -18.0357  -26.0082   22.9014 H   0  0  0  0  0  0
  -19.7960  -30.7280   24.2239 H   0  0  0  0  0  0
  -17.5046  -31.6275   24.5195 H   0  0  0  0  0  0
  -15.5370  -30.3005   23.7667 H   0  0  0  0  0  0
  -15.8691  -28.0856   22.7031 H   0  0  0  0  0  0
  -24.5889  -30.7121   25.7762 H   0  0  0  0  0  0
  -24.8950  -32.2907   26.4894 H   0  0  0  0  0  0
  -25.8037  -30.8879   27.0210 H   0  0  0  0  0  0
  -26.2934  -29.6782   24.1204 H   0  0  0  0  0  0
  -27.4113  -29.7299   25.4642 H   0  0  0  0  0  0
  -27.8773  -30.4352   23.9351 H   0  0  0  0  0  0
  -27.2683  -33.3616   26.2103 H   0  0  0  0  0  0
  -28.3886  -32.6895   25.0356 H   0  0  0  0  0  0
  -28.0734  -31.8442   26.5421 H   0  0  0  0  0  0
  -28.2548  -38.0132   24.7597 H   0  0  0  0  0  0
  -28.1128  -36.2676   24.6146 H   0  0  0  0  0  0
  -27.2318  -37.1268   25.8854 H   0  0  0  0  0  0
  -20.9409  -29.8724   21.6837 H   0  0  0  0  0  0
  -26.0128  -38.2842   24.1513 H   0  0  0  0  0  0
  -31.9647  -17.4072   21.2445 H   0  0  0  0  0  0
  -31.9091  -19.8674   21.1903 H   0  0  0  0  0  0
  -29.2154  -24.1600   21.6023 H   0  0  0  0  0  0
  -30.2065  -24.2841   20.1808 H   0  0  0  0  0  0
  -27.2008  -24.7242   20.3064 H   0  0  0  0  0  0
  -28.1242  -24.9013   18.8350 H   0  0  0  0  0  0
  -28.8568  -22.3310   19.1484 H   0  0  0  0  0  0
  -27.9704  -22.2339   20.6621 H   0  0  0  0  0  0
  -27.4853  -20.7719   19.4886 H   0  0  0  0  0  0
  -26.7734  -19.2401   19.5736 H   0  0  0  0  0  0
  -28.8395  -15.3664   21.0100 H   0  0  0  0  0  0
  1 25  1  0  0  0
  1 30  2  0  0  0
  1 81  1  0  0  0
  2  3  1  0  0  0
  2 25  1  0  0  0
  2 84  1  0  0  0
  2 85  1  0  0  0
  3  4  1  0  0  0
  3 86  1  0  0  0
  3 87  1  0  0  0
  4  5  1  0  0  0
  4 88  1  0  0  0
  4 89  1  0  0  0
  5  6  1  0  0  0
  5 26  1  0  0  0
  5 90  1  0  0  0
  6 25  1  0  0  0
  6 91  1  0  0  0
  6 92  1  0  0  0
  7  8  2  0  0  0
  7 26  1  0  0  0
  7 29  1  0  0  0
  8  9  1  0  0  0
  8 22  1  0  0  0
  9 10  1  0  0  0
  9 27  2  0  0  0
 10 11  2  0  0  0
 10 15  1  0  0  0
 11 12  1  0  0  0
 11 93  1  0  0  0
 12 13  2  0  0  0
 12 94  1  0  0  0
 13 14  1  0  0  0
 13 31  1  0  0  0
 14 15  2  0  0  0
 14 95  1  0  0  0
 15 96  1  0  0  0
 16 17  2  0  0  0
 16 21  1  0  0  0
 16 31  1  0  0  0
 17 18  1  0  0  0
 17 97  1  0  0  0
 18 19  2  0  0  0
 18 98  1  0  0  0
 19 20  1  0  0  0
 19 24  1  0  0  0
 20 21  2  0  0  0
 20 99  1  0  0  0
 21 23  1  0  0  0
 22 28  1  0  0  0
 22 32  2  0  0  0
 26 27  1  0  0  0
 28100  1  0  0  0
 28101  1  0  0  0
 29102  1  0  0  0
 29103  1  0  0  0
 33 34  1  0  0  0
 33 66  1  0  0  0
 33 70  2  0  0  0
 34 36  1  0  0  0
 34 59  1  0  0  0
 34104  1  0  0  0
 35 44  2  0  0  0
 35 45  1  0  0  0
 35 68  1  0  0  0
 36 56  1  0  0  0
 36105  1  0  0  0
 37 39  1  0  0  0
 37 47  1  0  0  0
 37 66  1  0  0  0
 37106  1  0  0  0
 38 43  2  0  0  0
 38 46  1  0  0  0
 38 47  1  0  0  0
 39 64  1  0  0  0
 39 67  2  0  0  0
 40 52  1  0  0  0
 40 53  2  0  0  0
 40 58  1  0  0  0
 41107  1  0  0  0
 41108  1  0  0  0
 41109  1  0  0  0
 41 48  1  0  0  0
 42 43  1  0  0  0
 42 66  1  0  0  0
 42110  1  0  0  0
 42111  1  0  0  0
 43 44  1  0  0  0
 44112  1  0  0  0
 45 46  2  0  0  0
 45113  1  0  0  0
 46114  1  0  0  0
 47115  1  0  0  0
 47116  1  0  0  0
 48 56  1  0  0  0
 48 65  1  0  0  0
 48117  1  0  0  0
 49 50  1  0  0  0
 49 53  1  0  0  0
 49 64  1  0  0  0
 49118  1  0  0  0
 50 51  1  0  0  0
 50119  1  0  0  0
 50120  1  0  0  0
 51 52  1  0  0  0
 51121  1  0  0  0
 51122  1  0  0  0
 52123  1  0  0  0
 52124  1  0  0  0
 53 54  1  0  0  0
 54 55  2  0  0  0
 54125  1  0  0  0
 55 57  1  0  0  0
 55126  1  0  0  0
 56 69  2  0  0  0
 57 58  2  0  0  0
 57127  1  0  0  0
 58128  1  0  0  0
 59 60  1  0  0  0
 59 61  1  0  0  0
 59 62  1  0  0  0
 60129  1  0  0  0
 60130  1  0  0  0
 60131  1  0  0  0
 61132  1  0  0  0
 61133  1  0  0  0
 61134  1  0  0  0
 62135  1  0  0  0
 62136  1  0  0  0
 62137  1  0  0  0
 63 65  1  0  0  0
 63138  1  0  0  0
 63139  1  0  0  0
 63140  1  0  0  0
 64141  1  0  0  0
 65142  1  0  0  0
 68 78  1  0  0  0
 71 72  2  0  0  0
 71 73  1  0  0  0
 71143  1  0  0  0
 72 75  1  0  0  0
 72144  1  0  0  0
 73 76  2  0  0  0
 73 81  1  0  0  0
 74 75  2  0  0  0
 74 76  1  0  0  0
 74 80  1  0  0  0
 75 82  1  0  0  0
 76 83  1  0  0  0
 77 78  1  0  0  0
 77 79  1  0  0  0
 77145  1  0  0  0
 77146  1  0  0  0
 78147  1  0  0  0
 78148  1  0  0  0
 79 82  1  0  0  0
 79149  1  0  0  0
 79150  1  0  0  0
 80151  1  0  0  0
 80152  1  0  0  0
 81153  1  0  0  0
M  ISO  4   1 100  68 101  78 101  81 100
M  END
> <chiral flag>
0

> <version>
0

> <s_m_source_file>
/data/baiqing/PycharmProjects/Reinvent-master-3.2/result/LINK_invent/BTK/process_docking_weight1_custom_product_contain_oxygen_bond_distance_aromatic_linkinvent_7_9_3/rearranged_h_0095.sdf

> <i_m_source_file_index>
93

> <r_mmod_Potential_Energy-OPLS-2005>
60.9827499389648

> <r_mmod_Stretch_Energy-OPLS-2005>
79.3266143798828

> <r_mmod_Bend_Energy-OPLS-2005>
159.869247436523

> <r_mmod_Torsional_Energy-OPLS-2005>
218.634170532227

> <r_mmod_Improper_Torsional_Energy-OPLS-2005>
9.08645725250244

> <r_mmod_Van_der_Waal_Energy-OPLS-2005>
150.110305786133

> <r_mmod_Electrostatic_Energy-OPLS-2005>
-393.809692382812

> <r_mmod_Solvation_Energy-OPLS-2005>
-209.237747192383

> <b_mmod_Minimization_Converged-OPLS-2005>
0

> <r_mmod_RMS_Derivative-OPLS-2005>
4.0394721031189

$$$$
93
                    3D
 Structure written by MMmdl.
155164  0  0  1  0            999 V2000
  -30.6010  -14.7303   20.4561 C   0  0  0  0  0  0
  -30.4350  -12.4471   19.4610 C   0  0  0  0  0  0
  -29.5103  -12.4876   18.2260 C   0  0  0  0  0  0
  -28.0371  -12.3098   18.6453 C   0  0  0  0  0  0
  -27.6397  -13.2231   19.8359 C   0  0  2  0  0  0
  -28.6827  -13.1627   20.9703 C   0  0  0  0  0  0
  -25.2535  -13.8173   20.5653 C   0  0  0  0  0  0
  -24.1816  -13.0422   20.9189 C   0  0  0  0  0  0
  -24.6408  -11.6895   20.8715 C   0  0  0  0  0  0
  -23.9083  -10.4284   21.0406 C   0  0  0  0  0  0
  -24.3641   -9.4192   21.9174 C   0  0  0  0  0  0
  -23.6314   -8.2221   22.0723 C   0  0  0  0  0  0
  -22.4286   -8.0277   21.3527 C   0  0  0  0  0  0
  -21.9926   -9.0249   20.4613 C   0  0  0  0  0  0
  -22.7262  -10.2128   20.3040 C   0  0  0  0  0  0
  -21.6853   -6.0738   22.5288 C   0  0  0  0  0  0
  -21.4004   -6.5642   23.8218 C   0  0  0  0  0  0
  -21.3662   -5.6798   24.9180 C   0  0  0  0  0  0
  -21.6042   -4.3056   24.7240 C   0  0  0  0  0  0
  -21.8826   -3.8147   23.4366 C   0  0  0  0  0  0
  -21.9191   -4.6958   22.3416 C   0  0  0  0  0  0
  -22.7851  -13.5179   21.1922 C   0  0  0  0  0  0
  -22.1663   -4.2146   21.0991 F   0  0  0  0  0  0
  -21.5639   -3.4542   25.7752 F   0  0  0  0  0  0
  -29.9797  -13.5088   20.3792 N   0  0  0  0  0  0
  -26.2927  -12.9355   20.3165 N   0  0  0  0  0  0
  -25.9327  -11.6505   20.5686 N   0  0  0  0  0  0
  -22.0533  -12.8112   22.0467 N   0  0  0  0  0  0
  -25.4253  -15.1906   20.4079 N   0  0  0  0  0  0
  -31.8054  -14.8260   20.1977 O   0  0  0  0  0  0
  -21.6633   -6.8891   21.4251 O   0  0  0  0  0  0
  -22.3501  -14.5502   20.6814 O   0  0  0  0  0  0
  -24.6323  -31.8546   23.1961 C   0  0  0  0  0  0
  -25.9118  -32.4743   23.8353 C   0  0  1  0  0  0
  -27.2122  -27.2600   20.1243 C   0  0  0  0  0  0
  -25.5873  -33.8549   24.2264 N   0  0  0  0  0  0
  -23.4292  -30.4804   21.5363 C   0  0  2  0  0  0
  -24.8737  -28.9174   20.1140 C   0  0  0  0  0  0
  -22.7503  -29.4646   22.4864 C   0  0  0  0  0  0
  -18.0351  -28.1292   22.8484 C   0  0  0  0  0  0
  -24.1478  -36.7346   23.2655 C   0  0  0  0  0  0
  -25.9757  -30.7670   21.3741 C   0  0  0  0  0  0
  -26.0471  -29.3871   20.7200 C   0  0  0  0  0  0
  -27.2232  -28.5709   20.7112 C   0  0  0  0  0  0
  -26.0230  -26.8622   19.4813 C   0  0  0  0  0  0
  -24.8648  -27.6620   19.4854 C   0  0  0  0  0  0
  -23.6464  -29.8058   20.1570 C   0  0  0  0  0  0
  -25.4090  -36.3089   24.0349 C   0  0  1  0  0  0
  -20.5929  -28.3752   23.1233 C   0  0  2  0  0  0
  -20.6829  -26.9455   22.5407 C   0  0  0  0  0  0
  -19.5839  -26.6381   21.5189 C   0  0  0  0  0  0
  -18.2015  -26.7841   22.1611 C   0  0  0  0  0  0
  -19.1557  -28.8829   23.2858 C   0  0  0  0  0  0
  -18.9439  -30.1442   23.8872 C   0  0  0  0  0  0
  -17.6420  -30.6520   24.0505 C   0  0  0  0  0  0
  -25.9029  -34.9450   23.5125 C   0  0  0  0  0  0
  -16.5345  -29.8982   23.6246 C   0  0  0  0  0  0
  -16.7318  -28.6392   23.0300 C   0  0  0  0  0  0
  -26.4490  -31.6569   25.0759 C   0  0  0  0  0  0
  -25.3738  -31.3725   26.1515 C   0  0  0  0  0  0
  -27.0347  -30.2978   24.6273 C   0  0  0  0  0  0
  -27.6046  -32.4322   25.7512 C   0  0  0  0  0  0
  -27.5571  -37.1835   24.8464 C   0  0  0  0  0  0
  -21.4212  -29.3108   22.3606 N   0  0  0  0  0  0
  -26.4280  -37.3774   23.9412 N   0  0  0  0  0  0
  -24.6987  -31.0542   22.0909 N   0  0  0  0  0  0
  -23.4186  -28.8192   23.2979 O   0  0  0  0  0  0
  -28.2889  -26.3485   20.1408 O   0  0  0  0  0  0
  -26.5641  -34.8918   22.4719 O   0  0  0  0  0  0
  -23.5474  -32.1365   23.7241 O   0  0  0  0  0  0
  -31.4251  -18.8111   22.2257 C   0  0  0  0  0  0
  -30.7005  -19.9224   21.7525 C   0  0  0  0  0  0
  -31.1468  -17.5090   21.7756 C   0  0  0  0  0  0
  -29.6798  -19.8006   20.7795 C   0  0  0  0  0  0
  -30.1202  -17.2650   20.8440 C   0  0  0  0  0  0
  -29.3891  -18.4282   20.3529 C   0  0  0  0  0  0
  -28.5059  -21.3434   19.1052 C   0  0  0  0  0  0
  -28.0016  -22.8010   18.9756 C   0  0  0  0  0  0
  -29.0060  -22.3890   21.0591 C   0  0  0  0  0  0
  -28.7376  -23.6026   20.0666 C   0  0  2  0  0  0
  -28.0227  -24.9492   20.6322 C   0  0  0  0  0  0
  -29.0391  -21.0757   20.3156 N   0  0  0  0  0  0
  -29.7967  -15.8562   20.5294 N   0  0  0  0  0  0
  -28.4315  -20.5624   18.1536 O   0  0  0  0  0  0
  -28.3797  -18.1999   19.4816 F   0  0  0  0  0  0
  -31.4752  -12.5795   19.1614 H   0  0  0  0  0  0
  -30.3822  -11.4748   19.9523 H   0  0  0  0  0  0
  -29.7943  -11.7017   17.5238 H   0  0  0  0  0  0
  -29.6308  -13.4362   17.7010 H   0  0  0  0  0  0
  -27.9023  -11.2645   18.9241 H   0  0  0  0  0  0
  -27.3747  -12.4785   17.7947 H   0  0  0  0  0  0
  -27.6305  -14.2373   19.4370 H   0  0  0  0  0  0
  -28.7146  -12.1689   21.4165 H   0  0  0  0  0  0
  -28.4181  -13.8521   21.7743 H   0  0  0  0  0  0
  -25.2804   -9.5638   22.4737 H   0  0  0  0  0  0
  -24.0021   -7.4593   22.7429 H   0  0  0  0  0  0
  -21.0854   -8.8775   19.8918 H   0  0  0  0  0  0
  -22.3744  -10.9666   19.6129 H   0  0  0  0  0  0
  -21.1983   -7.6143   23.9728 H   0  0  0  0  0  0
  -21.1478   -6.0519   25.9090 H   0  0  0  0  0  0
  -22.0604   -2.7614   23.2867 H   0  0  0  0  0  0
  -22.4170  -11.9743   22.4782 H   0  0  0  0  0  0
  -21.1146  -13.1057   22.2750 H   0  0  0  0  0  0
  -24.6576  -15.8440   20.5220 H   0  0  0  0  0  0
  -26.2703  -15.6357   20.0718 H   0  0  0  0  0  0
  -26.7202  -32.5382   23.1115 H   0  0  0  0  0  0
  -24.9863  -33.9662   25.0299 H   0  0  0  0  0  0
  -22.7308  -31.3068   21.3816 H   0  0  0  0  0  0
  -23.3691  -35.9723   23.3301 H   0  0  0  0  0  0
  -24.3601  -36.8988   22.2080 H   0  0  0  0  0  0
  -23.7271  -37.6576   23.6668 H   0  0  0  0  0  0
  -26.1139  -31.5245   20.6012 H   0  0  0  0  0  0
  -26.8551  -30.8206   22.0056 H   0  0  0  0  0  0
  -28.1250  -28.9268   21.1895 H   0  0  0  0  0  0
  -25.9843  -25.9066   18.9779 H   0  0  0  0  0  0
  -23.9648  -27.2995   19.0088 H   0  0  0  0  0  0
  -23.7761  -30.5744   19.3955 H   0  0  0  0  0  0
  -22.7642  -29.2418   19.8479 H   0  0  0  0  0  0
  -25.1249  -36.1968   25.0842 H   0  0  0  0  0  0
  -21.0076  -28.3364   24.1333 H   0  0  0  0  0  0
  -20.5696  -26.2399   23.3652 H   0  0  0  0  0  0
  -21.6716  -26.7452   22.1275 H   0  0  0  0  0  0
  -19.7083  -25.6321   21.1174 H   0  0  0  0  0  0
  -19.6783  -27.3228   20.6757 H   0  0  0  0  0  0
  -17.4317  -26.6532   21.4000 H   0  0  0  0  0  0
  -18.0459  -25.9934   22.8975 H   0  0  0  0  0  0
  -19.7896  -30.7315   24.2198 H   0  0  0  0  0  0
  -17.4940  -31.6199   24.5103 H   0  0  0  0  0  0
  -15.5318  -30.2855   23.7486 H   0  0  0  0  0  0
  -15.8785  -28.0643   22.6956 H   0  0  0  0  0  0
  -24.5885  -30.7083   25.7897 H   0  0  0  0  0  0
  -24.8962  -32.2897   26.4978 H   0  0  0  0  0  0
  -25.8104  -30.8916   27.0281 H   0  0  0  0  0  0
  -26.2994  -29.6754   24.1166 H   0  0  0  0  0  0
  -27.3873  -29.7207   25.4839 H   0  0  0  0  0  0
  -27.8916  -30.4259   23.9649 H   0  0  0  0  0  0
  -27.2639  -33.3610   26.2106 H   0  0  0  0  0  0
  -28.3823  -32.6913   25.0310 H   0  0  0  0  0  0
  -28.0736  -31.8444   26.5419 H   0  0  0  0  0  0
  -28.2586  -38.0126   24.7427 H   0  0  0  0  0  0
  -28.1054  -36.2648   24.6325 H   0  0  0  0  0  0
  -27.2311  -37.1546   25.8878 H   0  0  0  0  0  0
  -20.9411  -29.8819   21.6790 H   0  0  0  0  0  0
  -26.0165  -38.2868   24.1336 H   0  0  0  0  0  0
  -32.2056  -18.9549   22.9599 H   0  0  0  0  0  0
  -30.9803  -20.8856   22.1515 H   0  0  0  0  0  0
  -31.7156  -16.6876   22.1884 H   0  0  0  0  0  0
  -26.9229  -22.7980   19.1468 H   0  0  0  0  0  0
  -28.1889  -23.1942   17.9774 H   0  0  0  0  0  0
  -28.1804  -22.3249   21.7677 H   0  0  0  0  0  0
  -29.9073  -22.5888   21.6355 H   0  0  0  0  0  0
  -29.7046  -23.9015   19.6577 H   0  0  0  0  0  0
  -28.2911  -25.0016   21.6876 H   0  0  0  0  0  0
  -26.9527  -24.7479   20.6581 H   0  0  0  0  0  0
  -28.8138  -15.6718   20.4022 H   0  0  0  0  0  0
  1 25  1  0  0  0
  1 30  2  0  0  0
  1 83  1  0  0  0
  2  3  1  0  0  0
  2 25  1  0  0  0
  2 86  1  0  0  0
  2 87  1  0  0  0
  3  4  1  0  0  0
  3 88  1  0  0  0
  3 89  1  0  0  0
  4  5  1  0  0  0
  4 90  1  0  0  0
  4 91  1  0  0  0
  5  6  1  0  0  0
  5 26  1  0  0  0
  5 92  1  0  0  0
  6 25  1  0  0  0
  6 93  1  0  0  0
  6 94  1  0  0  0
  7  8  2  0  0  0
  7 26  1  0  0  0
  7 29  1  0  0  0
  8  9  1  0  0  0
  8 22  1  0  0  0
  9 10  1  0  0  0
  9 27  2  0  0  0
 10 11  2  0  0  0
 10 15  1  0  0  0
 11 12  1  0  0  0
 11 95  1  0  0  0
 12 13  2  0  0  0
 12 96  1  0  0  0
 13 14  1  0  0  0
 13 31  1  0  0  0
 14 15  2  0  0  0
 14 97  1  0  0  0
 15 98  1  0  0  0
 16 17  2  0  0  0
 16 21  1  0  0  0
 16 31  1  0  0  0
 17 18  1  0  0  0
 17 99  1  0  0  0
 18 19  2  0  0  0
 18100  1  0  0  0
 19 20  1  0  0  0
 19 24  1  0  0  0
 20 21  2  0  0  0
 20101  1  0  0  0
 21 23  1  0  0  0
 22 28  1  0  0  0
 22 32  2  0  0  0
 26 27  1  0  0  0
 28102  1  0  0  0
 28103  1  0  0  0
 29104  1  0  0  0
 29105  1  0  0  0
 33 34  1  0  0  0
 33 66  1  0  0  0
 33 70  2  0  0  0
 34 36  1  0  0  0
 34 59  1  0  0  0
 34106  1  0  0  0
 35 44  2  0  0  0
 35 45  1  0  0  0
 35 68  1  0  0  0
 36 56  1  0  0  0
 36107  1  0  0  0
 37 39  1  0  0  0
 37 47  1  0  0  0
 37 66  1  0  0  0
 37108  1  0  0  0
 38 43  2  0  0  0
 38 46  1  0  0  0
 38 47  1  0  0  0
 39 64  1  0  0  0
 39 67  2  0  0  0
 40 52  1  0  0  0
 40 53  2  0  0  0
 40 58  1  0  0  0
 41109  1  0  0  0
 41110  1  0  0  0
 41111  1  0  0  0
 41 48  1  0  0  0
 42 43  1  0  0  0
 42 66  1  0  0  0
 42112  1  0  0  0
 42113  1  0  0  0
 43 44  1  0  0  0
 44114  1  0  0  0
 45 46  2  0  0  0
 45115  1  0  0  0
 46116  1  0  0  0
 47117  1  0  0  0
 47118  1  0  0  0
 48 56  1  0  0  0
 48 65  1  0  0  0
 48119  1  0  0  0
 49 50  1  0  0  0
 49 53  1  0  0  0
 49 64  1  0  0  0
 49120  1  0  0  0
 50 51  1  0  0  0
 50121  1  0  0  0
 50122  1  0  0  0
 51 52  1  0  0  0
 51123  1  0  0  0
 51124  1  0  0  0
 52125  1  0  0  0
 52126  1  0  0  0
 53 54  1  0  0  0
 54 55  2  0  0  0
 54127  1  0  0  0
 55 57  1  0  0  0
 55128  1  0  0  0
 56 69  2  0  0  0
 57 58  2  0  0  0
 57129  1  0  0  0
 58130  1  0  0  0
 59 60  1  0  0  0
 59 61  1  0  0  0
 59 62  1  0  0  0
 60131  1  0  0  0
 60132  1  0  0  0
 60133  1  0  0  0
 61134  1  0  0  0
 61135  1  0  0  0
 61136  1  0  0  0
 62137  1  0  0  0
 62138  1  0  0  0
 62139  1  0  0  0
 63 65  1  0  0  0
 63140  1  0  0  0
 63141  1  0  0  0
 63142  1  0  0  0
 64143  1  0  0  0
 65144  1  0  0  0
 68 81  1  0  0  0
 71 72  2  0  0  0
 71 73  1  0  0  0
 71145  1  0  0  0
 72 74  1  0  0  0
 72146  1  0  0  0
 73 75  2  0  0  0
 73147  1  0  0  0
 74 76  2  0  0  0
 74 82  1  0  0  0
 75 76  1  0  0  0
 75 83  1  0  0  0
 76 85  1  0  0  0
 77 78  1  0  0  0
 77 82  1  0  0  0
 77 84  2  0  0  0
 78 80  1  0  0  0
 78148  1  0  0  0
 78149  1  0  0  0
 79 80  1  0  0  0
 79 82  1  0  0  0
 79150  1  0  0  0
 79151  1  0  0  0
 80 81  1  0  0  0
 80152  1  0  0  0
 81153  1  0  0  0
 81154  1  0  0  0
 83155  1  0  0  0
M  ISO  4   1 100  68 101  81 101  83 100
M  END
> <chiral flag>
0

> <version>
0

> <s_m_source_file>
/data/baiqing/PycharmProjects/Reinvent-master-3.2/result/LINK_invent/BTK/process_docking_weight1_custom_product_contain_oxygen_bond_distance_aromatic_linkinvent_7_9_3/rearranged_h_0095.sdf

> <i_m_source_file_index>
94

> <r_mmod_Potential_Energy-OPLS-2005>
215.932876586914

> <r_mmod_Stretch_Energy-OPLS-2005>
118.768432617188

> <r_mmod_Bend_Energy-OPLS-2005>
193.526107788086

> <r_mmod_Torsional_Energy-OPLS-2005>
294.774536132812

> <r_mmod_Improper_Torsional_Energy-OPLS-2005>
7.53125190734863

> <r_mmod_Van_der_Waal_Energy-OPLS-2005>
138.654891967773

> <r_mmod_Electrostatic_Energy-OPLS-2005>
-401.31787109375

> <r_mmod_Solvation_Energy-OPLS-2005>
-222.686126708984

> <b_mmod_Minimization_Converged-OPLS-2005>
0

> <r_mmod_RMS_Derivative-OPLS-2005>
4.06869316101074

$$$$
94
                    3D
 Structure written by MMmdl.
159168  0  0  1  0            999 V2000
  -30.7213  -14.4630   20.4705 C   0  0  0  0  0  0
  -30.4066  -12.2720   19.4401 C   0  0  0  0  0  0
  -29.4929  -12.4679   18.2136 C   0  0  0  0  0  0
  -28.0118  -12.3486   18.6216 C   0  0  0  0  0  0
  -27.6549  -13.2137   19.8605 C   0  0  2  0  0  0
  -28.6958  -13.0513   20.9911 C   0  0  0  0  0  0
  -25.2573  -13.8193   20.5711 C   0  0  0  0  0  0
  -24.1827  -13.0450   20.9211 C   0  0  0  0  0  0
  -24.6387  -11.6918   20.8754 C   0  0  0  0  0  0
  -23.9052  -10.4296   21.0414 C   0  0  0  0  0  0
  -24.3599   -9.4201   21.9190 C   0  0  0  0  0  0
  -23.6281   -8.2232   22.0756 C   0  0  0  0  0  0
  -22.4262   -8.0279   21.3552 C   0  0  0  0  0  0
  -21.9895   -9.0246   20.4647 C   0  0  0  0  0  0
  -22.7219  -10.2133   20.3059 C   0  0  0  0  0  0
  -21.6850   -6.0737   22.5282 C   0  0  0  0  0  0
  -21.4006   -6.5642   23.8217 C   0  0  0  0  0  0
  -21.3662   -5.6794   24.9186 C   0  0  0  0  0  0
  -21.6049   -4.3056   24.7230 C   0  0  0  0  0  0
  -21.8812   -3.8151   23.4352 C   0  0  0  0  0  0
  -21.9195   -4.6969   22.3412 C   0  0  0  0  0  0
  -22.7835  -13.5239   21.1865 C   0  0  0  0  0  0
  -22.1663   -4.2159   21.0987 F   0  0  0  0  0  0
  -21.5634   -3.4534   25.7743 F   0  0  0  0  0  0
  -30.0307  -13.2936   20.4289 N   0  0  0  0  0  0
  -26.2991  -12.9362   20.3322 N   0  0  0  0  0  0
  -25.9322  -11.6518   20.5767 N   0  0  0  0  0  0
  -22.0465  -12.8248   22.0418 N   0  0  0  0  0  0
  -25.4340  -15.1910   20.4183 N   0  0  0  0  0  0
  -31.9125  -14.5360   20.1531 O   0  0  0  0  0  0
  -21.6630   -6.8874   21.4245 O   0  0  0  0  0  0
  -22.3525  -14.5528   20.6700 O   0  0  0  0  0  0
  -24.6163  -31.8741   23.2155 C   0  0  0  0  0  0
  -25.9077  -32.4838   23.8435 C   0  0  1  0  0  0
  -27.2215  -27.4547   20.0807 C   0  0  0  0  0  0
  -25.5954  -33.8628   24.2363 N   0  0  0  0  0  0
  -23.3973  -30.5014   21.5593 C   0  0  2  0  0  0
  -24.8333  -28.9723   20.1136 C   0  0  0  0  0  0
  -22.7408  -29.4720   22.5050 C   0  0  0  0  0  0
  -18.0281  -28.1382   22.8483 C   0  0  0  0  0  0
  -24.1480  -36.7294   23.2619 C   0  0  0  0  0  0
  -25.9250  -30.8362   21.3663 C   0  0  0  0  0  0
  -25.9938  -29.4742   20.7128 C   0  0  0  0  0  0
  -27.1886  -28.7218   20.7009 C   0  0  0  0  0  0
  -26.0437  -26.9704   19.4624 C   0  0  0  0  0  0
  -24.8531  -27.7152   19.4872 C   0  0  0  0  0  0
  -23.5980  -29.8424   20.1680 C   0  0  0  0  0  0
  -25.4111  -36.3109   24.0326 C   0  0  1  0  0  0
  -20.5860  -28.3690   23.1289 C   0  0  2  0  0  0
  -20.6785  -26.9445   22.5350 C   0  0  0  0  0  0
  -19.5746  -26.6400   21.5178 C   0  0  0  0  0  0
  -18.1944  -26.7926   22.1626 C   0  0  0  0  0  0
  -19.1524  -28.8856   23.2877 C   0  0  0  0  0  0
  -18.9455  -30.1463   23.8886 C   0  0  0  0  0  0
  -17.6450  -30.6586   24.0558 C   0  0  0  0  0  0
  -25.9049  -34.9473   23.5139 C   0  0  0  0  0  0
  -16.5347  -29.9075   23.6318 C   0  0  0  0  0  0
  -16.7265  -28.6489   23.0349 C   0  0  0  0  0  0
  -26.4470  -31.6618   25.0767 C   0  0  0  0  0  0
  -25.3747  -31.3729   26.1531 C   0  0  0  0  0  0
  -27.0278  -30.3065   24.6093 C   0  0  0  0  0  0
  -27.6025  -32.4366   25.7559 C   0  0  0  0  0  0
  -27.5592  -37.1837   24.8459 C   0  0  0  0  0  0
  -21.4142  -29.3084   22.3741 N   0  0  0  0  0  0
  -26.4304  -37.3791   23.9406 N   0  0  0  0  0  0
  -24.6647  -31.0855   22.1043 N   0  0  0  0  0  0
  -23.4188  -28.8261   23.3100 O   0  0  0  0  0  0
  -28.3977  -26.7358   20.1085 O   0  0  0  0  0  0
  -26.5585  -34.8895   22.4682 O   0  0  0  0  0  0
  -23.5362  -32.1498   23.7557 O   0  0  0  0  0  0
  -31.3904  -18.6319   19.7691 C   0  0  0  0  0  0
  -31.4983  -20.0239   19.9215 C   0  0  0  0  0  0
  -29.1588  -20.1209   20.5540 C   0  0  0  0  0  0
  -30.1612  -17.9693   19.9709 C   0  0  0  0  0  0
  -30.3720  -20.8123   20.2674 C   0  0  0  0  0  0
  -29.0441  -18.7219   20.3948 C   0  0  0  0  0  0
  -31.9531  -24.3602   20.6421 C   0  0  0  0  0  0
  -29.4278  -23.0622   19.9962 C   0  0  0  0  0  0
  -30.0736  -16.5262   19.5732 C   0  0  0  0  0  0
  -30.8527  -25.1526   19.9583 C   0  0  0  0  0  0
  -31.8322  -22.8296   20.6077 C   0  0  0  0  0  0
  -29.5029  -24.5599   20.3690 C   0  0  1  0  0  0
  -28.3105  -25.3448   19.8006 C   0  0  0  0  0  0
  -30.4816  -22.2581   20.3264 N   0  0  0  0  0  0
  -29.9740  -15.5823   20.5302 N   0  0  0  0  0  0
  -32.9138  -24.9219   21.1721 O   0  0  0  0  0  0
  -28.4262  -22.6502   19.4015 O   0  0  0  0  0  0
  -30.1842  -16.2524   18.3710 O   0  0  0  0  0  0
  -27.8448  -18.1273   20.5991 F   0  0  0  0  0  0
  -31.4543  -12.3359   19.1398 H   0  0  0  0  0  0
  -30.2766  -11.2740   19.8608 H   0  0  0  0  0  0
  -29.7253  -11.7220   17.4517 H   0  0  0  0  0  0
  -29.6771  -13.4435   17.7614 H   0  0  0  0  0  0
  -27.8177  -11.2967   18.8335 H   0  0  0  0  0  0
  -27.3644  -12.6138   17.7856 H   0  0  0  0  0  0
  -27.6842  -14.2501   19.5252 H   0  0  0  0  0  0
  -28.6450  -12.0480   21.4149 H   0  0  0  0  0  0
  -28.4821  -13.7431   21.8069 H   0  0  0  0  0  0
  -25.2751   -9.5691   22.4755 H   0  0  0  0  0  0
  -24.0008   -7.4624   22.7473 H   0  0  0  0  0  0
  -21.0826   -8.8749   19.8947 H   0  0  0  0  0  0
  -22.3670  -10.9664   19.6163 H   0  0  0  0  0  0
  -21.1967   -7.6143   23.9724 H   0  0  0  0  0  0
  -21.1505   -6.0527   25.9093 H   0  0  0  0  0  0
  -22.0584   -2.7613   23.2850 H   0  0  0  0  0  0
  -22.4057  -11.9912   22.4826 H   0  0  0  0  0  0
  -21.1085  -13.1292   22.2586 H   0  0  0  0  0  0
  -24.6762  -15.8510   20.5528 H   0  0  0  0  0  0
  -26.3018  -15.6371   20.1485 H   0  0  0  0  0  0
  -26.7209  -32.5500   23.1243 H   0  0  0  0  0  0
  -25.0167  -33.9808   25.0551 H   0  0  0  0  0  0
  -22.6862  -31.3213   21.4377 H   0  0  0  0  0  0
  -23.3742  -35.9623   23.3289 H   0  0  0  0  0  0
  -24.3563  -36.8888   22.2028 H   0  0  0  0  0  0
  -23.7243  -37.6508   23.6626 H   0  0  0  0  0  0
  -26.0468  -31.6009   20.5967 H   0  0  0  0  0  0
  -26.8148  -30.8813   21.9819 H   0  0  0  0  0  0
  -28.0807  -29.1077   21.1735 H   0  0  0  0  0  0
  -26.0228  -26.0216   18.9469 H   0  0  0  0  0  0
  -23.9638  -27.3256   19.0116 H   0  0  0  0  0  0
  -23.7061  -30.6257   19.4165 H   0  0  0  0  0  0
  -22.7172  -29.2726   19.8643 H   0  0  0  0  0  0
  -25.1286  -36.1979   25.0822 H   0  0  0  0  0  0
  -20.9974  -28.3238   24.1398 H   0  0  0  0  0  0
  -20.5736  -26.2316   23.3532 H   0  0  0  0  0  0
  -21.6661  -26.7523   22.1129 H   0  0  0  0  0  0
  -19.6911  -25.6309   21.1232 H   0  0  0  0  0  0
  -19.6661  -27.3183   20.6686 H   0  0  0  0  0  0
  -17.4202  -26.6635   21.4057 H   0  0  0  0  0  0
  -18.0386  -26.0083   22.9049 H   0  0  0  0  0  0
  -19.7923  -30.7282   24.2278 H   0  0  0  0  0  0
  -17.4998  -31.6275   24.5150 H   0  0  0  0  0  0
  -15.5351  -30.2973   23.7649 H   0  0  0  0  0  0
  -15.8668  -28.0790   22.7083 H   0  0  0  0  0  0
  -24.5893  -30.7069   25.7962 H   0  0  0  0  0  0
  -24.8918  -32.2866   26.4988 H   0  0  0  0  0  0
  -25.8103  -30.8953   27.0312 H   0  0  0  0  0  0
  -26.2832  -29.6908   24.1041 H   0  0  0  0  0  0
  -27.3985  -29.7170   25.4491 H   0  0  0  0  0  0
  -27.8686  -30.4413   23.9288 H   0  0  0  0  0  0
  -27.2574  -33.3622   26.2188 H   0  0  0  0  0  0
  -28.3814  -32.7044   25.0409 H   0  0  0  0  0  0
  -28.0708  -31.8478   26.5460 H   0  0  0  0  0  0
  -28.2648  -38.0107   24.7520 H   0  0  0  0  0  0
  -28.1079  -36.2663   24.6308 H   0  0  0  0  0  0
  -27.2296  -37.1489   25.8852 H   0  0  0  0  0  0
  -20.9339  -29.8820   21.6947 H   0  0  0  0  0  0
  -26.0199  -38.2879   24.1382 H   0  0  0  0  0  0
  -32.2570  -18.0715   19.4436 H   0  0  0  0  0  0
  -32.4645  -20.4597   19.7132 H   0  0  0  0  0  0
  -28.2710  -20.6538   20.8628 H   0  0  0  0  0  0
  -30.9859  -25.1143   18.8772 H   0  0  0  0  0  0
  -30.9236  -26.1959   20.2648 H   0  0  0  0  0  0
  -32.1904  -22.4291   21.5565 H   0  0  0  0  0  0
  -32.5360  -22.5317   19.8326 H   0  0  0  0  0  0
  -29.4230  -24.6112   21.4572 H   0  0  0  0  0  0
  -27.4163  -24.9177   20.2606 H   0  0  0  0  0  0
  -28.2327  -25.2210   18.7203 H   0  0  0  0  0  0
  -29.5930  -15.8378   21.4274 H   0  0  0  0  0  0
  1 25  1  0  0  0
  1 30  2  0  0  0
  1 85  1  0  0  0
  2  3  1  0  0  0
  2 25  1  0  0  0
  2 90  1  0  0  0
  2 91  1  0  0  0
  3  4  1  0  0  0
  3 92  1  0  0  0
  3 93  1  0  0  0
  4  5  1  0  0  0
  4 94  1  0  0  0
  4 95  1  0  0  0
  5  6  1  0  0  0
  5 26  1  0  0  0
  5 96  1  0  0  0
  6 25  1  0  0  0
  6 97  1  0  0  0
  6 98  1  0  0  0
  7  8  2  0  0  0
  7 26  1  0  0  0
  7 29  1  0  0  0
  8  9  1  0  0  0
  8 22  1  0  0  0
  9 10  1  0  0  0
  9 27  2  0  0  0
 10 11  2  0  0  0
 10 15  1  0  0  0
 11 12  1  0  0  0
 11 99  1  0  0  0
 12 13  2  0  0  0
 12100  1  0  0  0
 13 14  1  0  0  0
 13 31  1  0  0  0
 14 15  2  0  0  0
 14101  1  0  0  0
 15102  1  0  0  0
 16 17  2  0  0  0
 16 21  1  0  0  0
 16 31  1  0  0  0
 17 18  1  0  0  0
 17103  1  0  0  0
 18 19  2  0  0  0
 18104  1  0  0  0
 19 20  1  0  0  0
 19 24  1  0  0  0
 20 21  2  0  0  0
 20105  1  0  0  0
 21 23  1  0  0  0
 22 28  1  0  0  0
 22 32  2  0  0  0
 26 27  1  0  0  0
 28106  1  0  0  0
 28107  1  0  0  0
 29108  1  0  0  0
 29109  1  0  0  0
 33 34  1  0  0  0
 33 66  1  0  0  0
 33 70  2  0  0  0
 34 36  1  0  0  0
 34 59  1  0  0  0
 34110  1  0  0  0
 35 44  2  0  0  0
 35 45  1  0  0  0
 35 68  1  0  0  0
 36 56  1  0  0  0
 36111  1  0  0  0
 37 39  1  0  0  0
 37 47  1  0  0  0
 37 66  1  0  0  0
 37112  1  0  0  0
 38 43  2  0  0  0
 38 46  1  0  0  0
 38 47  1  0  0  0
 39 64  1  0  0  0
 39 67  2  0  0  0
 40 52  1  0  0  0
 40 53  2  0  0  0
 40 58  1  0  0  0
 41113  1  0  0  0
 41114  1  0  0  0
 41115  1  0  0  0
 41 48  1  0  0  0
 42 43  1  0  0  0
 42 66  1  0  0  0
 42116  1  0  0  0
 42117  1  0  0  0
 43 44  1  0  0  0
 44118  1  0  0  0
 45 46  2  0  0  0
 45119  1  0  0  0
 46120  1  0  0  0
 47121  1  0  0  0
 47122  1  0  0  0
 48 56  1  0  0  0
 48 65  1  0  0  0
 48123  1  0  0  0
 49 50  1  0  0  0
 49 53  1  0  0  0
 49 64  1  0  0  0
 49124  1  0  0  0
 50 51  1  0  0  0
 50125  1  0  0  0
 50126  1  0  0  0
 51 52  1  0  0  0
 51127  1  0  0  0
 51128  1  0  0  0
 52129  1  0  0  0
 52130  1  0  0  0
 53 54  1  0  0  0
 54 55  2  0  0  0
 54131  1  0  0  0
 55 57  1  0  0  0
 55132  1  0  0  0
 56 69  2  0  0  0
 57 58  2  0  0  0
 57133  1  0  0  0
 58134  1  0  0  0
 59 60  1  0  0  0
 59 61  1  0  0  0
 59 62  1  0  0  0
 60135  1  0  0  0
 60136  1  0  0  0
 60137  1  0  0  0
 61138  1  0  0  0
 61139  1  0  0  0
 61140  1  0  0  0
 62141  1  0  0  0
 62142  1  0  0  0
 62143  1  0  0  0
 63 65  1  0  0  0
 63144  1  0  0  0
 63145  1  0  0  0
 63146  1  0  0  0
 64147  1  0  0  0
 65148  1  0  0  0
 68 83  1  0  0  0
 71 72  2  0  0  0
 71 74  1  0  0  0
 71149  1  0  0  0
 72 75  1  0  0  0
 72150  1  0  0  0
 73 75  2  0  0  0
 73 76  1  0  0  0
 73151  1  0  0  0
 74 76  2  0  0  0
 74 79  1  0  0  0
 75 84  1  0  0  0
 76 89  1  0  0  0
 77 80  1  0  0  0
 77 81  1  0  0  0
 77 86  2  0  0  0
 78 82  1  0  0  0
 78 84  1  0  0  0
 78 87  2  0  0  0
 79 85  1  0  0  0
 79 88  2  0  0  0
 80 82  1  0  0  0
 80152  1  0  0  0
 80153  1  0  0  0
 81 84  1  0  0  0
 81154  1  0  0  0
 81155  1  0  0  0
 82 83  1  0  0  0
 82156  1  0  0  0
 83157  1  0  0  0
 83158  1  0  0  0
 85159  1  0  0  0
M  ISO  4   1 100  68 101  83 101  85 100
M  END
> <chiral flag>
0

> <version>
0

> <s_m_source_file>
/data/baiqing/PycharmProjects/Reinvent-master-3.2/result/LINK_invent/BTK/process_docking_weight1_custom_product_contain_oxygen_bond_distance_aromatic_linkinvent_7_9_3/rearranged_h_0095.sdf

> <i_m_source_file_index>
95

> <r_mmod_Potential_Energy-OPLS-2005>
38.0655746459961

> <r_mmod_Stretch_Energy-OPLS-2005>
41.9727020263672

> <r_mmod_Bend_Energy-OPLS-2005>
104.954254150391

> <r_mmod_Torsional_Energy-OPLS-2005>
386.40185546875

> <r_mmod_Improper_Torsional_Energy-OPLS-2005>
11.5334558486938

> <r_mmod_Van_der_Waal_Energy-OPLS-2005>
195.698196411133

> <r_mmod_Electrostatic_Energy-OPLS-2005>
-486.312042236328

> <r_mmod_Solvation_Energy-OPLS-2005>
-236.936370849609

> <b_mmod_Minimization_Converged-OPLS-2005>
0

> <r_mmod_RMS_Derivative-OPLS-2005>
3.97808885574341

$$$$
95
                    3D
 Structure written by MMmdl.
155164  0  0  1  0            999 V2000
  -30.6137  -14.8313   20.4233 C   0  0  0  0  0  0
  -30.4270  -12.5072   19.4912 C   0  0  0  0  0  0
  -29.5124  -12.5120   18.2470 C   0  0  0  0  0  0
  -28.0414  -12.3252   18.6617 C   0  0  0  0  0  0
  -27.6342  -13.2459   19.8431 C   0  0  2  0  0  0
  -28.6790  -13.2414   20.9800 C   0  0  0  0  0  0
  -25.2478  -13.8225   20.5713 C   0  0  0  0  0  0
  -24.1787  -13.0448   20.9220 C   0  0  0  0  0  0
  -24.6400  -11.6933   20.8756 C   0  0  0  0  0  0
  -23.9084  -10.4299   21.0411 C   0  0  0  0  0  0
  -24.3631   -9.4211   21.9186 C   0  0  0  0  0  0
  -23.6303   -8.2247   22.0756 C   0  0  0  0  0  0
  -22.4284   -8.0288   21.3546 C   0  0  0  0  0  0
  -21.9925   -9.0262   20.4646 C   0  0  0  0  0  0
  -22.7257  -10.2140   20.3058 C   0  0  0  0  0  0
  -21.6855   -6.0741   22.5279 C   0  0  0  0  0  0
  -21.4016   -6.5642   23.8213 C   0  0  0  0  0  0
  -21.3660   -5.6794   24.9175 C   0  0  0  0  0  0
  -21.6044   -4.3057   24.7224 C   0  0  0  0  0  0
  -21.8819   -3.8152   23.4345 C   0  0  0  0  0  0
  -21.9194   -4.6968   22.3401 C   0  0  0  0  0  0
  -22.7805  -13.5216   21.1877 C   0  0  0  0  0  0
  -22.1660   -4.2154   21.0978 F   0  0  0  0  0  0
  -21.5630   -3.4540   25.7736 F   0  0  0  0  0  0
  -29.9707  -13.6045   20.3853 N   0  0  0  0  0  0
  -26.2910  -12.9457   20.3275 N   0  0  0  0  0  0
  -25.9336  -11.6586   20.5760 N   0  0  0  0  0  0
  -22.0457  -12.8198   22.0429 N   0  0  0  0  0  0
  -25.4148  -15.1952   20.4140 N   0  0  0  0  0  0
  -31.8179  -14.8422   20.1592 O   0  0  0  0  0  0
  -21.6645   -6.8886   21.4242 O   0  0  0  0  0  0
  -22.3483  -14.5519   20.6726 O   0  0  0  0  0  0
  -24.6371  -31.8506   23.1952 C   0  0  0  0  0  0
  -25.9172  -32.4733   23.8316 C   0  0  1  0  0  0
  -27.2155  -27.2118   20.1391 C   0  0  0  0  0  0
  -25.5947  -33.8537   24.2233 N   0  0  0  0  0  0
  -23.4382  -30.4723   21.5385 C   0  0  2  0  0  0
  -24.8897  -28.9166   20.1056 C   0  0  0  0  0  0
  -22.7538  -29.4577   22.4880 C   0  0  0  0  0  0
  -18.0299  -28.1394   22.8486 C   0  0  0  0  0  0
  -24.1488  -36.7272   23.2640 C   0  0  0  0  0  0
  -25.9894  -30.7475   21.3853 C   0  0  0  0  0  0
  -26.0640  -29.3663   20.7257 C   0  0  0  0  0  0
  -27.2329  -28.5256   20.7352 C   0  0  0  0  0  0
  -26.0253  -26.8529   19.4721 C   0  0  0  0  0  0
  -24.8782  -27.6695   19.4646 C   0  0  0  0  0  0
  -23.6612  -29.8075   20.1548 C   0  0  0  0  0  0
  -25.4118  -36.3056   24.0320 C   0  0  1  0  0  0
  -20.5909  -28.3715   23.1250 C   0  0  2  0  0  0
  -20.6786  -26.9425   22.5406 C   0  0  0  0  0  0
  -19.5757  -26.6384   21.5217 C   0  0  0  0  0  0
  -18.1936  -26.7935   22.1626 C   0  0  0  0  0  0
  -19.1555  -28.8873   23.2860 C   0  0  0  0  0  0
  -18.9474  -30.1473   23.8881 C   0  0  0  0  0  0
  -17.6471  -30.6593   24.0564 C   0  0  0  0  0  0
  -25.9063  -34.9428   23.5079 C   0  0  0  0  0  0
  -16.5362  -29.9087   23.6337 C   0  0  0  0  0  0
  -16.7284  -28.6505   23.0360 C   0  0  0  0  0  0
  -26.4514  -31.6579   25.0729 C   0  0  0  0  0  0
  -25.3718  -31.3750   26.1438 C   0  0  0  0  0  0
  -27.0374  -30.2986   24.6264 C   0  0  0  0  0  0
  -27.6055  -32.4336   25.7508 C   0  0  0  0  0  0
  -27.5577  -37.1790   24.8462 C   0  0  0  0  0  0
  -21.4237  -29.3050   22.3628 N   0  0  0  0  0  0
  -26.4286  -37.3764   23.9411 N   0  0  0  0  0  0
  -24.7074  -31.0423   22.0953 N   0  0  0  0  0  0
  -23.4209  -28.8116   23.3002 O   0  0  0  0  0  0
  -28.2212  -26.2021   20.2130 O   0  0  0  0  0  0
  -26.5638  -34.8911   22.4650 O   0  0  0  0  0  0
  -23.5504  -32.1351   23.7209 O   0  0  0  0  0  0
  -31.0250  -20.2118   19.6566 C   0  0  0  0  0  0
  -31.4757  -17.7928   19.6777 C   0  0  0  0  0  0
  -29.7501  -20.0622   20.2509 C   0  0  0  0  0  0
  -31.8603  -19.1143   19.3750 C   0  0  0  0  0  0
  -30.2353  -17.4819   20.2868 C   0  0  0  0  0  0
  -29.3848  -18.6575   20.5577 C   0  0  0  0  0  0
  -28.1182  -23.5814   20.8124 C   0  0  0  0  0  0
  -29.1149  -22.6758   20.1446 C   0  0  0  0  0  0
  -27.8053  -24.9585   20.8086 C   0  0  0  0  0  0
  -27.2874  -22.6669   21.6800 C   0  0  0  0  0  0
  -27.7786  -21.2353   21.4097 C   0  0  0  0  0  0
  -28.9474  -21.3255   20.5387 N   0  0  0  0  0  0
  -33.1036  -19.3451   18.7878 N   0  0  0  0  0  0
  -29.8833  -16.0290   20.5662 N   0  0  0  0  0  0
  -29.9610  -23.0675   19.3361 O   0  0  0  0  0  0
  -28.1809  -18.4109   21.1265 F   0  0  0  0  0  0
  -31.4681  -12.6221   19.1852 H   0  0  0  0  0  0
  -30.3750  -11.5471   20.0071 H   0  0  0  0  0  0
  -29.8095  -11.7237   17.5539 H   0  0  0  0  0  0
  -29.6271  -13.4539   17.7085 H   0  0  0  0  0  0
  -27.9135  -11.2806   18.9475 H   0  0  0  0  0  0
  -27.3827  -12.4891   17.8081 H   0  0  0  0  0  0
  -27.6094  -14.2559   19.4330 H   0  0  0  0  0  0
  -28.7341  -12.2626   21.4585 H   0  0  0  0  0  0
  -28.4021  -13.9520   21.7605 H   0  0  0  0  0  0
  -25.2773   -9.5684   22.4764 H   0  0  0  0  0  0
  -24.0009   -7.4638   22.7475 H   0  0  0  0  0  0
  -21.0857   -8.8785   19.8949 H   0  0  0  0  0  0
  -22.3718  -10.9681   19.6168 H   0  0  0  0  0  0
  -21.2007   -7.6150   23.9719 H   0  0  0  0  0  0
  -21.1482   -6.0524   25.9078 H   0  0  0  0  0  0
  -22.0596   -2.7614   23.2844 H   0  0  0  0  0  0
  -22.4082  -11.9861   22.4812 H   0  0  0  0  0  0
  -21.1074  -13.1215   22.2640 H   0  0  0  0  0  0
  -24.6481  -15.8483   20.5332 H   0  0  0  0  0  0
  -26.2628  -15.6402   20.0876 H   0  0  0  0  0  0
  -26.7242  -32.5365   23.1057 H   0  0  0  0  0  0
  -25.0097  -33.9668   25.0381 H   0  0  0  0  0  0
  -22.7378  -31.2966   21.3892 H   0  0  0  0  0  0
  -23.3757  -35.9596   23.3286 H   0  0  0  0  0  0
  -24.3576  -36.8918   22.2058 H   0  0  0  0  0  0
  -23.7234  -37.6461   23.6682 H   0  0  0  0  0  0
  -26.1354  -31.5064   20.6154 H   0  0  0  0  0  0
  -26.8637  -30.7974   22.0226 H   0  0  0  0  0  0
  -28.1241  -28.8538   21.2511 H   0  0  0  0  0  0
  -25.9644  -25.8882   18.9883 H   0  0  0  0  0  0
  -23.9824  -27.3197   18.9700 H   0  0  0  0  0  0
  -23.7881  -30.5843   19.3999 H   0  0  0  0  0  0
  -22.7791  -29.2429   19.8472 H   0  0  0  0  0  0
  -25.1301  -36.1894   25.0811 H   0  0  0  0  0  0
  -21.0003  -28.3302   24.1369 H   0  0  0  0  0  0
  -20.5691  -26.2326   23.3618 H   0  0  0  0  0  0
  -21.6651  -26.7439   22.1198 H   0  0  0  0  0  0
  -19.6915  -25.6291   21.1257 H   0  0  0  0  0  0
  -19.6694  -27.3184   20.6739 H   0  0  0  0  0  0
  -17.4208  -26.6693   21.4026 H   0  0  0  0  0  0
  -18.0326  -26.0077   22.9022 H   0  0  0  0  0  0
  -19.7948  -30.7299   24.2236 H   0  0  0  0  0  0
  -17.5022  -31.6270   24.5171 H   0  0  0  0  0  0
  -15.5361  -30.2987   23.7668 H   0  0  0  0  0  0
  -15.8684  -28.0819   22.7086 H   0  0  0  0  0  0
  -24.5898  -30.7094   25.7765 H   0  0  0  0  0  0
  -24.8903  -32.2927   26.4826 H   0  0  0  0  0  0
  -25.8017  -30.8952   27.0239 H   0  0  0  0  0  0
  -26.2980  -29.6721   24.1262 H   0  0  0  0  0  0
  -27.4005  -29.7268   25.4815 H   0  0  0  0  0  0
  -27.8878  -30.4245   23.9559 H   0  0  0  0  0  0
  -27.2656  -33.3656   26.2036 H   0  0  0  0  0  0
  -28.3889  -32.6866   25.0351 H   0  0  0  0  0  0
  -28.0693  -31.8493   26.5465 H   0  0  0  0  0  0
  -28.2582  -38.0100   24.7523 H   0  0  0  0  0  0
  -28.1086  -36.2630   24.6272 H   0  0  0  0  0  0
  -27.2293  -37.1418   25.8864 H   0  0  0  0  0  0
  -20.9431  -29.8780   21.6833 H   0  0  0  0  0  0
  -26.0156  -38.2829   24.1429 H   0  0  0  0  0  0
  -31.4033  -21.1922   19.4169 H   0  0  0  0  0  0
  -32.1731  -17.0150   19.4169 H   0  0  0  0  0  0
  -26.9830  -25.1991   21.4699 H   0  0  0  0  0  0
  -26.2269  -22.7720   21.4462 H   0  0  0  0  0  0
  -27.4285  -22.9319   22.7287 H   0  0  0  0  0  0
  -27.0008  -20.6541   20.9126 H   0  0  0  0  0  0
  -28.0332  -20.7283   22.3412 H   0  0  0  0  0  0
  -33.2924  -20.2403   18.3457 H   0  0  0  0  0  0
  -33.6104  -18.5737   18.3632 H   0  0  0  0  0  0
  -28.9221  -15.8877   20.8375 H   0  0  0  0  0  0
  1 25  1  0  0  0
  1 30  2  0  0  0
  1 84  1  0  0  0
  2  3  1  0  0  0
  2 25  1  0  0  0
  2 87  1  0  0  0
  2 88  1  0  0  0
  3  4  1  0  0  0
  3 89  1  0  0  0
  3 90  1  0  0  0
  4  5  1  0  0  0
  4 91  1  0  0  0
  4 92  1  0  0  0
  5  6  1  0  0  0
  5 26  1  0  0  0
  5 93  1  0  0  0
  6 25  1  0  0  0
  6 94  1  0  0  0
  6 95  1  0  0  0
  7  8  2  0  0  0
  7 26  1  0  0  0
  7 29  1  0  0  0
  8  9  1  0  0  0
  8 22  1  0  0  0
  9 10  1  0  0  0
  9 27  2  0  0  0
 10 11  2  0  0  0
 10 15  1  0  0  0
 11 12  1  0  0  0
 11 96  1  0  0  0
 12 13  2  0  0  0
 12 97  1  0  0  0
 13 14  1  0  0  0
 13 31  1  0  0  0
 14 15  2  0  0  0
 14 98  1  0  0  0
 15 99  1  0  0  0
 16 17  2  0  0  0
 16 21  1  0  0  0
 16 31  1  0  0  0
 17 18  1  0  0  0
 17100  1  0  0  0
 18 19  2  0  0  0
 18101  1  0  0  0
 19 20  1  0  0  0
 19 24  1  0  0  0
 20 21  2  0  0  0
 20102  1  0  0  0
 21 23  1  0  0  0
 22 28  1  0  0  0
 22 32  2  0  0  0
 26 27  1  0  0  0
 28103  1  0  0  0
 28104  1  0  0  0
 29105  1  0  0  0
 29106  1  0  0  0
 33 34  1  0  0  0
 33 66  1  0  0  0
 33 70  2  0  0  0
 34 36  1  0  0  0
 34 59  1  0  0  0
 34107  1  0  0  0
 35 44  2  0  0  0
 35 45  1  0  0  0
 35 68  1  0  0  0
 36 56  1  0  0  0
 36108  1  0  0  0
 37 39  1  0  0  0
 37 47  1  0  0  0
 37 66  1  0  0  0
 37109  1  0  0  0
 38 43  2  0  0  0
 38 46  1  0  0  0
 38 47  1  0  0  0
 39 64  1  0  0  0
 39 67  2  0  0  0
 40 52  1  0  0  0
 40 53  2  0  0  0
 40 58  1  0  0  0
 41110  1  0  0  0
 41111  1  0  0  0
 41112  1  0  0  0
 41 48  1  0  0  0
 42 43  1  0  0  0
 42 66  1  0  0  0
 42113  1  0  0  0
 42114  1  0  0  0
 43 44  1  0  0  0
 44115  1  0  0  0
 45 46  2  0  0  0
 45116  1  0  0  0
 46117  1  0  0  0
 47118  1  0  0  0
 47119  1  0  0  0
 48 56  1  0  0  0
 48 65  1  0  0  0
 48120  1  0  0  0
 49 50  1  0  0  0
 49 53  1  0  0  0
 49 64  1  0  0  0
 49121  1  0  0  0
 50 51  1  0  0  0
 50122  1  0  0  0
 50123  1  0  0  0
 51 52  1  0  0  0
 51124  1  0  0  0
 51125  1  0  0  0
 52126  1  0  0  0
 52127  1  0  0  0
 53 54  1  0  0  0
 54 55  2  0  0  0
 54128  1  0  0  0
 55 57  1  0  0  0
 55129  1  0  0  0
 56 69  2  0  0  0
 57 58  2  0  0  0
 57130  1  0  0  0
 58131  1  0  0  0
 59 60  1  0  0  0
 59 61  1  0  0  0
 59 62  1  0  0  0
 60132  1  0  0  0
 60133  1  0  0  0
 60134  1  0  0  0
 61135  1  0  0  0
 61136  1  0  0  0
 61137  1  0  0  0
 62138  1  0  0  0
 62139  1  0  0  0
 62140  1  0  0  0
 63 65  1  0  0  0
 63141  1  0  0  0
 63142  1  0  0  0
 63143  1  0  0  0
 64144  1  0  0  0
 65145  1  0  0  0
 68 79  1  0  0  0
 71 73  2  0  0  0
 71 74  1  0  0  0
 71146  1  0  0  0
 72 74  2  0  0  0
 72 75  1  0  0  0
 72147  1  0  0  0
 73 76  1  0  0  0
 73 82  1  0  0  0
 74 83  1  0  0  0
 75 76  2  0  0  0
 75 84  1  0  0  0
 76 86  1  0  0  0
 77 78  1  0  0  0
 77 79  2  0  0  0
 77 80  1  0  0  0
 78 82  1  0  0  0
 78 85  2  0  0  0
 79148  1  0  0  0
 80 81  1  0  0  0
 80149  1  0  0  0
 80150  1  0  0  0
 81 82  1  0  0  0
 81151  1  0  0  0
 81152  1  0  0  0
 83153  1  0  0  0
 83154  1  0  0  0
 84155  1  0  0  0
M  ISO  4   1 100  68 101  79 101  84 100
M  END
> <chiral flag>
0

> <version>
0

> <s_m_source_file>
/data/baiqing/PycharmProjects/Reinvent-master-3.2/result/LINK_invent/BTK/process_docking_weight1_custom_product_contain_oxygen_bond_distance_aromatic_linkinvent_7_9_3/rearranged_h_0095.sdf

> <i_m_source_file_index>
96

> <r_mmod_Potential_Energy-OPLS-2005>
402.701904296875

> <r_mmod_Stretch_Energy-OPLS-2005>
174.285675048828

> <r_mmod_Bend_Energy-OPLS-2005>
268.423828125

> <r_mmod_Torsional_Energy-OPLS-2005>
264.010101318359

> <r_mmod_Improper_Torsional_Energy-OPLS-2005>
6.61572599411011

> <r_mmod_Van_der_Waal_Energy-OPLS-2005>
145.476577758789

> <r_mmod_Electrostatic_Energy-OPLS-2005>
-371.156616210938

> <r_mmod_Solvation_Energy-OPLS-2005>
-219.736801147461

> <b_mmod_Minimization_Converged-OPLS-2005>
0

> <r_mmod_RMS_Derivative-OPLS-2005>
0.332095056772232

$$$$
