0
                    3D
 Structure written by MMmdl.
167175  0  0  1  0            999 V2000
  -30.7163  -14.5644   20.5912 C   0  0  0  0  0  0
  -30.4272  -12.3821   19.4327 C   0  0  0  0  0  0
  -29.4993  -12.5031   18.2077 C   0  0  0  0  0  0
  -28.0252  -12.3478   18.6269 C   0  0  0  0  0  0
  -27.6527  -13.2214   19.8573 C   0  0  2  0  0  0
  -28.6979  -13.0856   20.9866 C   0  0  0  0  0  0
  -25.2560  -13.8186   20.5669 C   0  0  0  0  0  0
  -24.1846  -13.0438   20.9191 C   0  0  0  0  0  0
  -24.6421  -11.6915   20.8745 C   0  0  0  0  0  0
  -23.9097  -10.4288   21.0417 C   0  0  0  0  0  0
  -24.3636   -9.4201   21.9192 C   0  0  0  0  0  0
  -23.6306   -8.2239   22.0755 C   0  0  0  0  0  0
  -22.4280   -8.0297   21.3560 C   0  0  0  0  0  0
  -21.9927   -9.0272   20.4640 C   0  0  0  0  0  0
  -22.7264  -10.2142   20.3060 C   0  0  0  0  0  0
  -21.6858   -6.0747   22.5285 C   0  0  0  0  0  0
  -21.3998   -6.5647   23.8214 C   0  0  0  0  0  0
  -21.3660   -5.6798   24.9178 C   0  0  0  0  0  0
  -21.6036   -4.3062   24.7224 C   0  0  0  0  0  0
  -21.8828   -3.8161   23.4343 C   0  0  0  0  0  0
  -21.9186   -4.6976   22.3400 C   0  0  0  0  0  0
  -22.7853  -13.5224   21.1845 C   0  0  0  0  0  0
  -22.1665   -4.2164   21.0982 F   0  0  0  0  0  0
  -21.5628   -3.4540   25.7733 F   0  0  0  0  0  0
  -30.0170  -13.4033   20.4185 N   0  0  0  0  0  0
  -26.2997  -12.9389   20.3288 N   0  0  0  0  0  0
  -25.9352  -11.6539   20.5732 N   0  0  0  0  0  0
  -22.0493  -12.8237   22.0398 N   0  0  0  0  0  0
  -25.4236  -15.1889   20.4070 N   0  0  0  0  0  0
  -31.8718  -14.6830   20.1722 O   0  0  0  0  0  0
  -21.6645   -6.8893   21.4255 O   0  0  0  0  0  0
  -22.3567  -14.5551   20.6696 O   0  0  0  0  0  0
  -24.6239  -31.8614   23.2016 C   0  0  0  0  0  0
  -25.9094  -32.4781   23.8379 C   0  0  1  0  0  0
  -27.2460  -27.3662   20.1264 C   0  0  0  0  0  0
  -25.5920  -33.8596   24.2331 N   0  0  0  0  0  0
  -23.4198  -30.4805   21.5403 C   0  0  2  0  0  0
  -24.8747  -28.9387   20.1066 C   0  0  0  0  0  0
  -22.7491  -29.4622   22.4912 C   0  0  0  0  0  0
  -18.0300  -28.1369   22.8491 C   0  0  0  0  0  0
  -24.1482  -36.7287   23.2643 C   0  0  0  0  0  0
  -25.9548  -30.8050   21.3670 C   0  0  0  0  0  0
  -26.0366  -29.4364   20.7088 C   0  0  0  0  0  0
  -27.2281  -28.6627   20.7121 C   0  0  0  0  0  0
  -26.0774  -26.9147   19.4798 C   0  0  0  0  0  0
  -24.8938  -27.6779   19.4829 C   0  0  0  0  0  0
  -23.6402  -29.8148   20.1558 C   0  0  0  0  0  0
  -25.4107  -36.3088   24.0353 C   0  0  1  0  0  0
  -20.5908  -28.3676   23.1251 C   0  0  2  0  0  0
  -20.6767  -26.9389   22.5384 C   0  0  0  0  0  0
  -19.5742  -26.6371   21.5192 C   0  0  0  0  0  0
  -18.1933  -26.7925   22.1623 C   0  0  0  0  0  0
  -19.1550  -28.8850   23.2861 C   0  0  0  0  0  0
  -18.9502  -30.1472   23.8856 C   0  0  0  0  0  0
  -17.6496  -30.6583   24.0569 C   0  0  0  0  0  0
  -25.9035  -34.9464   23.5116 C   0  0  0  0  0  0
  -16.5388  -29.9091   23.6304 C   0  0  0  0  0  0
  -16.7292  -28.6508   23.0321 C   0  0  0  0  0  0
  -26.4468  -31.6564   25.0746 C   0  0  0  0  0  0
  -25.3692  -31.3691   26.1435 C   0  0  0  0  0  0
  -27.0324  -30.3005   24.6173 C   0  0  0  0  0  0
  -27.6044  -32.4294   25.7513 C   0  0  0  0  0  0
  -27.5567  -37.1802   24.8482 C   0  0  0  0  0  0
  -21.4208  -29.3045   22.3667 N   0  0  0  0  0  0
  -26.4277  -37.3793   23.9438 N   0  0  0  0  0  0
  -24.6846  -31.0664   22.0935 N   0  0  0  0  0  0
  -23.4234  -28.8210   23.3030 O   0  0  0  0  0  0
  -28.3547  -26.5187   20.1852 O   0  0  0  0  0  0
  -26.5628  -34.8938   22.4688 O   0  0  0  0  0  0
  -23.5418  -32.1354   23.7359 O   0  0  0  0  0  0
  -31.6336  -16.5784   22.7365 C   0  0  0  0  0  0
  -31.2026  -18.6588   22.5284 C   0  0  0  0  0  0
  -30.6590  -16.6829   21.7612 C   0  0  0  0  0  0
  -27.1461  -22.0489   20.4359 C   0  0  0  0  0  0
  -26.3562  -21.0117   21.2219 C   0  0  0  0  0  0
  -29.3742  -20.4550   18.8123 C   0  0  0  0  0  0
  -26.9286  -25.0908   21.7405 C   0  0  0  0  0  0
  -28.9222  -23.9751   20.4043 C   0  0  0  0  0  0
  -29.3695  -18.8193   20.8350 C   0  0  0  0  0  0
  -28.4837  -22.5623   21.0241 C   0  0  2  0  0  0
  -29.7803  -20.2625   20.2856 C   0  0  2  0  0  0
  -28.2928  -25.3081   21.0332 C   0  0  1  0  0  0
  -31.9761  -17.8331   23.2206 N   0  0  0  0  0  0
  -30.3709  -18.0763   21.6437 N   0  0  0  0  0  0
  -30.0545  -15.6617   21.0622 N   0  0  0  0  0  0
  -29.5279  -21.4605   21.1905 N   0  3  0  0  0  0
  -26.6883  -22.4402   19.3587 O   0  0  0  0  0  0
  -31.4657  -12.4991   19.1187 H   0  0  0  0  0  0
  -30.3587  -11.3868   19.8724 H   0  0  0  0  0  0
  -29.7586  -11.7441   17.4681 H   0  0  0  0  0  0
  -29.6480  -13.4691   17.7204 H   0  0  0  0  0  0
  -27.8637  -11.2937   18.8585 H   0  0  0  0  0  0
  -27.3684  -12.5782   17.7853 H   0  0  0  0  0  0
  -27.6723  -14.2569   19.5201 H   0  0  0  0  0  0
  -28.7001  -12.0701   21.3855 H   0  0  0  0  0  0
  -28.4457  -13.7373   21.8237 H   0  0  0  0  0  0
  -25.2786   -9.5672   22.4761 H   0  0  0  0  0  0
  -24.0002   -7.4643   22.7481 H   0  0  0  0  0  0
  -21.0851   -8.8803   19.8960 H   0  0  0  0  0  0
  -22.3735  -10.9688   19.6163 H   0  0  0  0  0  0
  -21.1990   -7.6152   23.9723 H   0  0  0  0  0  0
  -21.1468   -6.0521   25.9075 H   0  0  0  0  0  0
  -22.0603   -2.7621   23.2838 H   0  0  0  0  0  0
  -22.4101  -11.9908   22.4810 H   0  0  0  0  0  0
  -21.1098  -13.1262   22.2551 H   0  0  0  0  0  0
  -24.6457  -15.8323   20.5068 H   0  0  0  0  0  0
  -26.2607  -15.6356   20.0566 H   0  0  0  0  0  0
  -26.7190  -32.5452   23.1156 H   0  0  0  0  0  0
  -25.0110  -33.9757   25.0514 H   0  0  0  0  0  0
  -22.7140  -31.3018   21.3906 H   0  0  0  0  0  0
  -23.3761  -35.9587   23.3329 H   0  0  0  0  0  0
  -24.3560  -36.8871   22.2040 H   0  0  0  0  0  0
  -23.7221  -37.6511   23.6622 H   0  0  0  0  0  0
  -26.0891  -31.5675   20.5975 H   0  0  0  0  0  0
  -26.8301  -30.8469   22.0024 H   0  0  0  0  0  0
  -28.1135  -29.0425   21.2008 H   0  0  0  0  0  0
  -26.0753  -25.9343   19.0213 H   0  0  0  0  0  0
  -24.0068  -27.2826   19.0092 H   0  0  0  0  0  0
  -23.7737  -30.5878   19.3976 H   0  0  0  0  0  0
  -22.7643  -29.2441   19.8513 H   0  0  0  0  0  0
  -25.1281  -36.1943   25.0846 H   0  0  0  0  0  0
  -21.0009  -28.3222   24.1360 H   0  0  0  0  0  0
  -20.5584  -26.2318   23.3599 H   0  0  0  0  0  0
  -21.6651  -26.7353   22.1220 H   0  0  0  0  0  0
  -19.6863  -25.6277   21.1232 H   0  0  0  0  0  0
  -19.6641  -27.3193   20.6733 H   0  0  0  0  0  0
  -17.4174  -26.6695   21.4039 H   0  0  0  0  0  0
  -18.0300  -26.0051   22.9004 H   0  0  0  0  0  0
  -19.7986  -30.7297   24.2181 H   0  0  0  0  0  0
  -17.5068  -31.6248   24.5226 H   0  0  0  0  0  0
  -15.5392  -30.2998   23.7644 H   0  0  0  0  0  0
  -15.8701  -28.0849   22.6982 H   0  0  0  0  0  0
  -24.5907  -30.6976   25.7842 H   0  0  0  0  0  0
  -24.8793  -32.2827   26.4793 H   0  0  0  0  0  0
  -25.8031  -30.8953   27.0237 H   0  0  0  0  0  0
  -26.2846  -29.6776   24.1273 H   0  0  0  0  0  0
  -27.4144  -29.7245   25.4617 H   0  0  0  0  0  0
  -27.8690  -30.4352   23.9324 H   0  0  0  0  0  0
  -27.2634  -33.3621   26.1996 H   0  0  0  0  0  0
  -28.3889  -32.6796   25.0374 H   0  0  0  0  0  0
  -28.0660  -31.8459   26.5474 H   0  0  0  0  0  0
  -28.2611  -38.0079   24.7529 H   0  0  0  0  0  0
  -28.1027  -36.2620   24.6283 H   0  0  0  0  0  0
  -27.2287  -37.1437   25.8887 H   0  0  0  0  0  0
  -20.9359  -29.8848   21.6959 H   0  0  0  0  0  0
  -26.0181  -38.2883   24.1423 H   0  0  0  0  0  0
  -32.1041  -15.6949   23.1365 H   0  0  0  0  0  0
  -31.2496  -19.7262   22.6840 H   0  0  0  0  0  0
  -25.2907  -21.1725   21.0522 H   0  0  0  0  0  0
  -26.5411  -21.0831   22.2944 H   0  0  0  0  0  0
  -26.6086  -20.0108   20.8734 H   0  0  0  0  0  0
  -28.3175  -20.2540   18.6530 H   0  0  0  0  0  0
  -29.9210  -19.7507   18.1809 H   0  0  0  0  0  0
  -29.6055  -21.4563   18.4459 H   0  0  0  0  0  0
  -26.9928  -24.3560   22.5380 H   0  0  0  0  0  0
  -26.1544  -24.7482   21.0541 H   0  0  0  0  0  0
  -26.5691  -25.9965   22.2291 H   0  0  0  0  0  0
  -28.7246  -23.9797   19.3323 H   0  0  0  0  0  0
  -30.0068  -24.0534   20.4649 H   0  0  0  0  0  0
  -29.1245  -18.1738   19.9938 H   0  0  0  0  0  0
  -28.4546  -18.8786   21.4226 H   0  0  0  0  0  0
  -28.2900  -22.7788   22.0728 H   0  0  0  0  0  0
  -30.8688  -20.2447   20.2415 H   0  0  0  0  0  0
  -28.9592  -25.5747   21.8530 H   0  0  0  0  0  0
  -29.0480  -15.6030   21.1119 H   0  0  0  0  0  0
  -29.3787  -21.0914   22.1168 H   0  0  0  0  0  0
  -30.4140  -21.9362   21.2598 H   0  0  0  0  0  0
  1 25  1  0  0  0
  1 30  2  0  0  0
  1 85  1  0  0  0
  2  3  1  0  0  0
  2 25  1  0  0  0
  2 88  1  0  0  0
  2 89  1  0  0  0
  3  4  1  0  0  0
  3 90  1  0  0  0
  3 91  1  0  0  0
  4  5  1  0  0  0
  4 92  1  0  0  0
  4 93  1  0  0  0
  5  6  1  0  0  0
  5 26  1  0  0  0
  5 94  1  0  0  0
  6 25  1  0  0  0
  6 95  1  0  0  0
  6 96  1  0  0  0
  7  8  2  0  0  0
  7 26  1  0  0  0
  7 29  1  0  0  0
  8  9  1  0  0  0
  8 22  1  0  0  0
  9 10  1  0  0  0
  9 27  2  0  0  0
 10 11  2  0  0  0
 10 15  1  0  0  0
 11 12  1  0  0  0
 11 97  1  0  0  0
 12 13  2  0  0  0
 12 98  1  0  0  0
 13 14  1  0  0  0
 13 31  1  0  0  0
 14 15  2  0  0  0
 14 99  1  0  0  0
 15100  1  0  0  0
 16 17  2  0  0  0
 16 21  1  0  0  0
 16 31  1  0  0  0
 17 18  1  0  0  0
 17101  1  0  0  0
 18 19  2  0  0  0
 18102  1  0  0  0
 19 20  1  0  0  0
 19 24  1  0  0  0
 20 21  2  0  0  0
 20103  1  0  0  0
 21 23  1  0  0  0
 22 28  1  0  0  0
 22 32  2  0  0  0
 26 27  1  0  0  0
 28104  1  0  0  0
 28105  1  0  0  0
 29106  1  0  0  0
 29107  1  0  0  0
 33 34  1  0  0  0
 33 66  1  0  0  0
 33 70  2  0  0  0
 34 36  1  0  0  0
 34 59  1  0  0  0
 34108  1  0  0  0
 35 44  2  0  0  0
 35 45  1  0  0  0
 35 68  1  0  0  0
 36 56  1  0  0  0
 36109  1  0  0  0
 37 39  1  0  0  0
 37 47  1  0  0  0
 37 66  1  0  0  0
 37110  1  0  0  0
 38 43  2  0  0  0
 38 46  1  0  0  0
 38 47  1  0  0  0
 39 64  1  0  0  0
 39 67  2  0  0  0
 40 52  1  0  0  0
 40 53  2  0  0  0
 40 58  1  0  0  0
 41111  1  0  0  0
 41112  1  0  0  0
 41113  1  0  0  0
 41 48  1  0  0  0
 42 43  1  0  0  0
 42 66  1  0  0  0
 42114  1  0  0  0
 42115  1  0  0  0
 43 44  1  0  0  0
 44116  1  0  0  0
 45 46  2  0  0  0
 45117  1  0  0  0
 46118  1  0  0  0
 47119  1  0  0  0
 47120  1  0  0  0
 48 56  1  0  0  0
 48 65  1  0  0  0
 48121  1  0  0  0
 49 50  1  0  0  0
 49 53  1  0  0  0
 49 64  1  0  0  0
 49122  1  0  0  0
 50 51  1  0  0  0
 50123  1  0  0  0
 50124  1  0  0  0
 51 52  1  0  0  0
 51125  1  0  0  0
 51126  1  0  0  0
 52127  1  0  0  0
 52128  1  0  0  0
 53 54  1  0  0  0
 54 55  2  0  0  0
 54129  1  0  0  0
 55 57  1  0  0  0
 55130  1  0  0  0
 56 69  2  0  0  0
 57 58  2  0  0  0
 57131  1  0  0  0
 58132  1  0  0  0
 59 60  1  0  0  0
 59 61  1  0  0  0
 59 62  1  0  0  0
 60133  1  0  0  0
 60134  1  0  0  0
 60135  1  0  0  0
 61136  1  0  0  0
 61137  1  0  0  0
 61138  1  0  0  0
 62139  1  0  0  0
 62140  1  0  0  0
 62141  1  0  0  0
 63 65  1  0  0  0
 63142  1  0  0  0
 63143  1  0  0  0
 63144  1  0  0  0
 64145  1  0  0  0
 65146  1  0  0  0
 68 82  1  0  0  0
 71 73  2  0  0  0
 71 83  1  0  0  0
 71147  1  0  0  0
 72 83  2  0  0  0
 72 84  1  0  0  0
 72148  1  0  0  0
 73 84  1  0  0  0
 73 85  1  0  0  0
 74 75  1  0  0  0
 74 80  1  0  0  0
 74 87  2  0  0  0
 75149  1  0  0  0
 75150  1  0  0  0
 75151  1  0  0  0
 76152  1  0  0  0
 76153  1  0  0  0
 76154  1  0  0  0
 76 81  1  0  0  0
 77155  1  0  0  0
 77156  1  0  0  0
 77157  1  0  0  0
 77 82  1  0  0  0
 78 82  1  0  0  0
 78158  1  0  0  0
 78159  1  0  0  0
 78 80  1  0  0  0
 79 81  1  0  0  0
 79 84  1  0  0  0
 79160  1  0  0  0
 79161  1  0  0  0
 80 86  1  0  0  0
 80162  1  0  0  0
 81 86  1  0  0  0
 81163  1  0  0  0
 82164  1  0  0  0
 85165  1  0  0  0
 86166  1  0  0  0
 86167  1  0  0  0
M  CHG  1  86   1
M  ISO  4   1 100  68 101  82 101  85 100
M  END
> <chiral flag>
0

> <version>
0

> <s_m_source_file>
/data/baiqing/PycharmProjects/Reinvent-master-3.2/result/LINK_invent/BTK/process_docking_weight1_custom_product_contain_oxygen_bond_distance_aromatic_linkinvent_7_9_3/rearranged_h_0196.sdf

> <i_m_source_file_index>
1

> <r_mmod_Potential_Energy-OPLS-2005>
-144.483612060547

> <r_mmod_Stretch_Energy-OPLS-2005>
80.1653518676758

> <r_mmod_Bend_Energy-OPLS-2005>
188.522994995117

> <r_mmod_Torsional_Energy-OPLS-2005>
307.369049072266

> <r_mmod_Improper_Torsional_Energy-OPLS-2005>
4.82055187225342

> <r_mmod_Van_der_Waal_Energy-OPLS-2005>
127.241340637207

> <r_mmod_Electrostatic_Energy-OPLS-2005>
-343.23486328125

> <r_mmod_Solvation_Energy-OPLS-2005>
-544.030883789062

> <b_mmod_Minimization_Converged-OPLS-2005>
0

> <r_mmod_RMS_Derivative-OPLS-2005>
5.32094526290894

$$$$
1
                    3D
 Structure written by MMmdl.
156164  0  0  1  0            999 V2000
  -30.5853  -14.6722   20.4687 C   0  0  0  0  0  0
  -30.4439  -12.4054   19.4545 C   0  0  0  0  0  0
  -29.5172  -12.5056   18.2246 C   0  0  0  0  0  0
  -28.0383  -12.3446   18.6306 C   0  0  0  0  0  0
  -27.6539  -13.2120   19.8591 C   0  0  2  0  0  0
  -28.6967  -13.0711   20.9903 C   0  0  0  0  0  0
  -25.2570  -13.8144   20.5621 C   0  0  0  0  0  0
  -24.1841  -13.0441   20.9187 C   0  0  0  0  0  0
  -24.6396  -11.6917   20.8699 C   0  0  0  0  0  0
  -23.9076  -10.4290   21.0364 C   0  0  0  0  0  0
  -24.3641   -9.4200   21.9145 C   0  0  0  0  0  0
  -23.6291   -8.2257   22.0744 C   0  0  0  0  0  0
  -22.4282   -8.0280   21.3572 C   0  0  0  0  0  0
  -21.9910   -9.0244   20.4678 C   0  0  0  0  0  0
  -22.7227  -10.2117   20.3034 C   0  0  0  0  0  0
  -21.6853   -6.0720   22.5266 C   0  0  0  0  0  0
  -21.4030   -6.5628   23.8197 C   0  0  0  0  0  0
  -21.3662   -5.6775   24.9171 C   0  0  0  0  0  0
  -21.6043   -4.3035   24.7211 C   0  0  0  0  0  0
  -21.8829   -3.8139   23.4322 C   0  0  0  0  0  0
  -21.9205   -4.6956   22.3386 C   0  0  0  0  0  0
  -22.7870  -13.5236   21.1834 C   0  0  0  0  0  0
  -22.1664   -4.2136   21.0952 F   0  0  0  0  0  0
  -21.5639   -3.4520   25.7720 F   0  0  0  0  0  0
  -30.0086  -13.4272   20.4298 N   0  0  0  0  0  0
  -26.2986  -12.9311   20.3232 N   0  0  0  0  0  0
  -25.9326  -11.6479   20.5736 N   0  0  0  0  0  0
  -22.0510  -12.8252   22.0405 N   0  0  0  0  0  0
  -25.4260  -15.1877   20.3987 N   0  0  0  0  0  0
  -31.7435  -14.8473   20.0756 O   0  0  0  0  0  0
  -21.6658   -6.8863   21.4240 O   0  0  0  0  0  0
  -22.3550  -14.5506   20.6626 O   0  0  0  0  0  0
  -24.6257  -31.8613   23.1986 C   0  0  0  0  0  0
  -25.9102  -32.4772   23.8319 C   0  0  1  0  0  0
  -27.2240  -27.3249   20.1430 C   0  0  0  0  0  0
  -25.5931  -33.8575   24.2260 N   0  0  0  0  0  0
  -23.4184  -30.4853   21.5400 C   0  0  2  0  0  0
  -24.8664  -28.9304   20.1147 C   0  0  0  0  0  0
  -22.7459  -29.4657   22.4918 C   0  0  0  0  0  0
  -18.0291  -28.1392   22.8498 C   0  0  0  0  0  0
  -24.1496  -36.7298   23.2637 C   0  0  0  0  0  0
  -25.9552  -30.7987   21.3652 C   0  0  0  0  0  0
  -26.0350  -29.4229   20.7136 C   0  0  0  0  0  0
  -27.2181  -28.6302   20.7195 C   0  0  0  0  0  0
  -26.0403  -26.8782   19.5238 C   0  0  0  0  0  0
  -24.8722  -27.6640   19.5072 C   0  0  0  0  0  0
  -23.6359  -29.8127   20.1570 C   0  0  0  0  0  0
  -25.4109  -36.3085   24.0328 C   0  0  1  0  0  0
  -20.5891  -28.3697   23.1275 C   0  0  2  0  0  0
  -20.6788  -26.9426   22.5410 C   0  0  0  0  0  0
  -19.5758  -26.6386   21.5217 C   0  0  0  0  0  0
  -18.1932  -26.7932   22.1620 C   0  0  0  0  0  0
  -19.1546  -28.8836   23.2887 C   0  0  0  0  0  0
  -18.9470  -30.1453   23.8903 C   0  0  0  0  0  0
  -17.6468  -30.6578   24.0569 C   0  0  0  0  0  0
  -25.9054  -34.9460   23.5088 C   0  0  0  0  0  0
  -16.5355  -29.9090   23.6327 C   0  0  0  0  0  0
  -16.7280  -28.6512   23.0327 C   0  0  0  0  0  0
  -26.4497  -31.6590   25.0693 C   0  0  0  0  0  0
  -25.3750  -31.3734   26.1442 C   0  0  0  0  0  0
  -27.0335  -30.3017   24.6131 C   0  0  0  0  0  0
  -27.6047  -32.4342   25.7468 C   0  0  0  0  0  0
  -27.5568  -37.1798   24.8444 C   0  0  0  0  0  0
  -21.4154  -29.3065   22.3640 N   0  0  0  0  0  0
  -26.4265  -37.3781   23.9418 N   0  0  0  0  0  0
  -24.6844  -31.0653   22.0914 N   0  0  0  0  0  0
  -23.4191  -28.8209   23.2984 O   0  0  0  0  0  0
  -28.3370  -26.4806   20.1695 O   0  0  0  0  0  0
  -26.5604  -34.8928   22.4651 O   0  0  0  0  0  0
  -23.5429  -32.1384   23.7323 O   0  0  0  0  0  0
  -29.4679  -18.9596   19.0935 C   0  0  0  0  0  0
  -29.3317  -19.8958   20.1666 C   0  0  0  0  0  0
  -29.7545  -17.1247   20.5361 C   0  0  0  0  0  0
  -29.6135  -18.0642   21.6069 C   0  0  0  0  0  0
  -29.9580  -22.6392   21.8583 C   0  0  0  0  0  0
  -28.1557  -25.1402   20.7724 C   0  0  0  0  0  0
  -28.8557  -22.4577   20.7942 C   0  0  1  0  0  0
  -28.6653  -23.8440   19.9918 C   0  0  1  0  0  0
  -29.6774  -17.6156   19.2666 N   0  0  0  0  0  0
  -29.4146  -19.4112   21.4356 N   0  0  0  0  0  0
  -29.6593  -17.6290   22.9259 N   0  0  0  0  0  0
  -29.7706  -15.6998   20.8643 N   0  0  0  0  0  0
  -29.1401  -21.2966   19.8887 N   0  0  0  0  0  0
  -27.7280  -23.5934   18.9576 O   0  0  0  0  0  0
  -31.4808  -12.5451   19.1515 H   0  0  0  0  0  0
  -30.3953  -11.4104   19.8954 H   0  0  0  0  0  0
  -29.7849  -11.7462   17.4888 H   0  0  0  0  0  0
  -29.6621  -13.4677   17.7303 H   0  0  0  0  0  0
  -27.8713  -11.2902   18.8591 H   0  0  0  0  0  0
  -27.3909  -12.5786   17.7837 H   0  0  0  0  0  0
  -27.6701  -14.2453   19.5156 H   0  0  0  0  0  0
  -28.7173  -12.0449   21.3593 H   0  0  0  0  0  0
  -28.4314  -13.6946   21.8474 H   0  0  0  0  0  0
  -25.2809   -9.5670   22.4712 H   0  0  0  0  0  0
  -24.0017   -7.4638   22.7444 H   0  0  0  0  0  0
  -21.0842   -8.8774   19.8961 H   0  0  0  0  0  0
  -22.3692  -10.9679   19.6149 H   0  0  0  0  0  0
  -21.2011   -7.6136   23.9696 H   0  0  0  0  0  0
  -21.1487   -6.0511   25.9069 H   0  0  0  0  0  0
  -22.0606   -2.7601   23.2828 H   0  0  0  0  0  0
  -22.4176  -11.9987   22.4888 H   0  0  0  0  0  0
  -21.1118  -13.1271   22.2550 H   0  0  0  0  0  0
  -24.6499  -15.8334   20.4983 H   0  0  0  0  0  0
  -26.2562  -15.6281   20.0236 H   0  0  0  0  0  0
  -26.7166  -32.5477   23.1080 H   0  0  0  0  0  0
  -25.0113  -33.9724   25.0418 H   0  0  0  0  0  0
  -22.7157  -31.3053   21.3908 H   0  0  0  0  0  0
  -23.3760  -35.9618   23.3253 H   0  0  0  0  0  0
  -24.3597  -36.8964   22.2055 H   0  0  0  0  0  0
  -23.7227  -37.6482   23.6684 H   0  0  0  0  0  0
  -26.0767  -31.5584   20.5918 H   0  0  0  0  0  0
  -26.8386  -30.8560   21.9905 H   0  0  0  0  0  0
  -28.1130  -29.0036   21.1966 H   0  0  0  0  0  0
  -26.0091  -25.9009   19.0642 H   0  0  0  0  0  0
  -23.9774  -27.2798   19.0379 H   0  0  0  0  0  0
  -23.7541  -30.5842   19.3945 H   0  0  0  0  0  0
  -22.7565  -29.2415   19.8549 H   0  0  0  0  0  0
  -25.1302  -36.1906   25.0809 H   0  0  0  0  0  0
  -21.0011  -28.3291   24.1380 H   0  0  0  0  0  0
  -20.5675  -26.2334   23.3615 H   0  0  0  0  0  0
  -21.6661  -26.7448   22.1213 H   0  0  0  0  0  0
  -19.6932  -25.6289   21.1252 H   0  0  0  0  0  0
  -19.6694  -27.3180   20.6727 H   0  0  0  0  0  0
  -17.4225  -26.6681   21.4008 H   0  0  0  0  0  0
  -18.0338  -26.0055   22.8992 H   0  0  0  0  0  0
  -19.7943  -30.7265   24.2286 H   0  0  0  0  0  0
  -17.5018  -31.6265   24.5158 H   0  0  0  0  0  0
  -15.5359  -30.2984   23.7623 H   0  0  0  0  0  0
  -15.8689  -28.0819   22.7026 H   0  0  0  0  0  0
  -24.5873  -30.7147   25.7770 H   0  0  0  0  0  0
  -24.9022  -32.2923   26.4931 H   0  0  0  0  0  0
  -25.8100  -30.8849   27.0176 H   0  0  0  0  0  0
  -26.2899  -29.6767   24.1182 H   0  0  0  0  0  0
  -27.4063  -29.7276   25.4625 H   0  0  0  0  0  0
  -27.8754  -30.4297   23.9322 H   0  0  0  0  0  0
  -27.2612  -33.3596   26.2106 H   0  0  0  0  0  0
  -28.3827  -32.6993   25.0295 H   0  0  0  0  0  0
  -28.0762  -31.8453   26.5350 H   0  0  0  0  0  0
  -28.2576  -38.0117   24.7550 H   0  0  0  0  0  0
  -28.1102  -36.2662   24.6206 H   0  0  0  0  0  0
  -27.2323  -37.1361   25.8858 H   0  0  0  0  0  0
  -20.9310  -29.8806   21.6870 H   0  0  0  0  0  0
  -26.0154  -38.2847   24.1458 H   0  0  0  0  0  0
  -29.3921  -19.3000   18.0705 H   0  0  0  0  0  0
  -29.5732  -23.1998   22.7109 H   0  0  0  0  0  0
  -30.8094  -23.1921   21.4625 H   0  0  0  0  0  0
  -30.3430  -21.7017   22.2560 H   0  0  0  0  0  0
  -28.7344  -25.1894   21.6948 H   0  0  0  0  0  0
  -27.1306  -24.9862   21.1169 H   0  0  0  0  0  0
  -27.9244  -22.2202   21.3150 H   0  0  0  0  0  0
  -29.6200  -24.0953   19.5288 H   0  0  0  0  0  0
  -30.1237  -16.7446   23.1019 H   0  0  0  0  0  0
  -29.8033  -18.3268   23.6455 H   0  0  0  0  0  0
  -28.9346  -15.4044   21.3409 H   0  0  0  0  0  0
  -28.8662  -21.5057   18.9312 H   0  0  0  0  0  0
  -27.6564  -24.3955   18.4515 H   0  0  0  0  0  0
  1 25  1  0  0  0
  1 30  2  0  0  0
  1 82  1  0  0  0
  2  3  1  0  0  0
  2 25  1  0  0  0
  2 85  1  0  0  0
  2 86  1  0  0  0
  3  4  1  0  0  0
  3 87  1  0  0  0
  3 88  1  0  0  0
  4  5  1  0  0  0
  4 89  1  0  0  0
  4 90  1  0  0  0
  5  6  1  0  0  0
  5 26  1  0  0  0
  5 91  1  0  0  0
  6 25  1  0  0  0
  6 92  1  0  0  0
  6 93  1  0  0  0
  7  8  2  0  0  0
  7 26  1  0  0  0
  7 29  1  0  0  0
  8  9  1  0  0  0
  8 22  1  0  0  0
  9 10  1  0  0  0
  9 27  2  0  0  0
 10 11  2  0  0  0
 10 15  1  0  0  0
 11 12  1  0  0  0
 11 94  1  0  0  0
 12 13  2  0  0  0
 12 95  1  0  0  0
 13 14  1  0  0  0
 13 31  1  0  0  0
 14 15  2  0  0  0
 14 96  1  0  0  0
 15 97  1  0  0  0
 16 17  2  0  0  0
 16 21  1  0  0  0
 16 31  1  0  0  0
 17 18  1  0  0  0
 17 98  1  0  0  0
 18 19  2  0  0  0
 18 99  1  0  0  0
 19 20  1  0  0  0
 19 24  1  0  0  0
 20 21  2  0  0  0
 20100  1  0  0  0
 21 23  1  0  0  0
 22 28  1  0  0  0
 22 32  2  0  0  0
 26 27  1  0  0  0
 28101  1  0  0  0
 28102  1  0  0  0
 29103  1  0  0  0
 29104  1  0  0  0
 33 34  1  0  0  0
 33 66  1  0  0  0
 33 70  2  0  0  0
 34 36  1  0  0  0
 34 59  1  0  0  0
 34105  1  0  0  0
 35 44  2  0  0  0
 35 45  1  0  0  0
 35 68  1  0  0  0
 36 56  1  0  0  0
 36106  1  0  0  0
 37 39  1  0  0  0
 37 47  1  0  0  0
 37 66  1  0  0  0
 37107  1  0  0  0
 38 43  2  0  0  0
 38 46  1  0  0  0
 38 47  1  0  0  0
 39 64  1  0  0  0
 39 67  2  0  0  0
 40 52  1  0  0  0
 40 53  2  0  0  0
 40 58  1  0  0  0
 41108  1  0  0  0
 41109  1  0  0  0
 41110  1  0  0  0
 41 48  1  0  0  0
 42 43  1  0  0  0
 42 66  1  0  0  0
 42111  1  0  0  0
 42112  1  0  0  0
 43 44  1  0  0  0
 44113  1  0  0  0
 45 46  2  0  0  0
 45114  1  0  0  0
 46115  1  0  0  0
 47116  1  0  0  0
 47117  1  0  0  0
 48 56  1  0  0  0
 48 65  1  0  0  0
 48118  1  0  0  0
 49 50  1  0  0  0
 49 53  1  0  0  0
 49 64  1  0  0  0
 49119  1  0  0  0
 50 51  1  0  0  0
 50120  1  0  0  0
 50121  1  0  0  0
 51 52  1  0  0  0
 51122  1  0  0  0
 51123  1  0  0  0
 52124  1  0  0  0
 52125  1  0  0  0
 53 54  1  0  0  0
 54 55  2  0  0  0
 54126  1  0  0  0
 55 57  1  0  0  0
 55127  1  0  0  0
 56 69  2  0  0  0
 57 58  2  0  0  0
 57128  1  0  0  0
 58129  1  0  0  0
 59 60  1  0  0  0
 59 61  1  0  0  0
 59 62  1  0  0  0
 60130  1  0  0  0
 60131  1  0  0  0
 60132  1  0  0  0
 61133  1  0  0  0
 61134  1  0  0  0
 61135  1  0  0  0
 62136  1  0  0  0
 62137  1  0  0  0
 62138  1  0  0  0
 63 65  1  0  0  0
 63139  1  0  0  0
 63140  1  0  0  0
 63141  1  0  0  0
 64142  1  0  0  0
 65143  1  0  0  0
 68 76  1  0  0  0
 71 72  2  0  0  0
 71 79  1  0  0  0
 71144  1  0  0  0
 72 80  1  0  0  0
 72 83  1  0  0  0
 73 74  1  0  0  0
 73 79  2  0  0  0
 73 82  1  0  0  0
 74 80  2  0  0  0
 74 81  1  0  0  0
 75145  1  0  0  0
 75146  1  0  0  0
 75147  1  0  0  0
 75 77  1  0  0  0
 76 78  1  0  0  0
 76148  1  0  0  0
 76149  1  0  0  0
 77 78  1  0  0  0
 77 83  1  0  0  0
 77150  1  0  0  0
 78 84  1  0  0  0
 78151  1  0  0  0
 81152  1  0  0  0
 81153  1  0  0  0
 82154  1  0  0  0
 83155  1  0  0  0
 84156  1  0  0  0
M  ISO  4   1 100  68 101  76 101  82 100
M  END
> <chiral flag>
0

> <version>
0

> <s_m_source_file>
/data/baiqing/PycharmProjects/Reinvent-master-3.2/result/LINK_invent/BTK/process_docking_weight1_custom_product_contain_oxygen_bond_distance_aromatic_linkinvent_7_9_3/rearranged_h_0196.sdf

> <i_m_source_file_index>
2

> <r_mmod_Potential_Energy-OPLS-2005>
-54.6408195495605

> <r_mmod_Stretch_Energy-OPLS-2005>
82.7881851196289

> <r_mmod_Bend_Energy-OPLS-2005>
157.061233520508

> <r_mmod_Torsional_Energy-OPLS-2005>
279.857849121094

> <r_mmod_Improper_Torsional_Energy-OPLS-2005>
8.70798206329346

> <r_mmod_Van_der_Waal_Energy-OPLS-2005>
145.273040771484

> <r_mmod_Electrostatic_Energy-OPLS-2005>
-534.193237304688

> <r_mmod_Solvation_Energy-OPLS-2005>
-248.408889770508

> <b_mmod_Minimization_Converged-OPLS-2005>
0

> <r_mmod_RMS_Derivative-OPLS-2005>
5.87102365493774

$$$$
2
                    3D
 Structure written by MMmdl.
153161  0  0  1  0            999 V2000
  -30.5690  -14.8058   20.4973 C   0  0  0  0  0  0
  -30.4353  -12.4906   19.5042 C   0  0  0  0  0  0
  -29.5177  -12.4838   18.2592 C   0  0  0  0  0  0
  -28.0432  -12.2948   18.6660 C   0  0  0  0  0  0
  -27.6211  -13.2273   19.8273 C   0  0  2  0  0  0
  -28.6505  -13.2262   20.9741 C   0  0  0  0  0  0
  -25.2354  -13.8172   20.5637 C   0  0  0  0  0  0
  -24.1709  -13.0439   20.9221 C   0  0  0  0  0  0
  -24.6298  -11.6907   20.8736 C   0  0  0  0  0  0
  -23.8999  -10.4316   21.0407 C   0  0  0  0  0  0
  -24.3552   -9.4231   21.9167 C   0  0  0  0  0  0
  -23.6282   -8.2250   22.0725 C   0  0  0  0  0  0
  -22.4283   -8.0253   21.3526 C   0  0  0  0  0  0
  -21.9899   -9.0209   20.4640 C   0  0  0  0  0  0
  -22.7168  -10.2099   20.3079 C   0  0  0  0  0  0
  -21.6842   -6.0736   22.5282 C   0  0  0  0  0  0
  -21.3986   -6.5625   23.8215 C   0  0  0  0  0  0
  -21.3677   -5.6786   24.9178 C   0  0  0  0  0  0
  -21.6037   -4.3065   24.7242 C   0  0  0  0  0  0
  -21.8795   -3.8139   23.4381 C   0  0  0  0  0  0
  -21.9178   -4.6955   22.3415 C   0  0  0  0  0  0
  -22.7743  -13.5178   21.1958 C   0  0  0  0  0  0
  -22.1641   -4.2116   21.1012 F   0  0  0  0  0  0
  -21.5646   -3.4562   25.7779 F   0  0  0  0  0  0
  -29.9569  -13.5740   20.3984 N   0  0  0  0  0  0
  -26.2770  -12.9355   20.3149 N   0  0  0  0  0  0
  -25.9199  -11.6516   20.5665 N   0  0  0  0  0  0
  -22.0532  -12.8112   22.0537 N   0  0  0  0  0  0
  -25.4025  -15.1931   20.4001 N   0  0  0  0  0  0
  -31.7874  -14.8847   20.2765 O   0  0  0  0  0  0
  -21.6620   -6.8865   21.4266 O   0  0  0  0  0  0
  -22.3416  -14.5527   20.6876 O   0  0  0  0  0  0
  -24.6290  -31.8592   23.1907 C   0  0  0  0  0  0
  -25.9101  -32.4777   23.8268 C   0  0  1  0  0  0
  -27.2207  -27.2661   20.1264 C   0  0  0  0  0  0
  -25.5921  -33.8577   24.2234 N   0  0  0  0  0  0
  -23.4231  -30.4734   21.5369 C   0  0  2  0  0  0
  -24.8785  -28.9123   20.1112 C   0  0  0  0  0  0
  -22.7448  -29.4636   22.4955 C   0  0  0  0  0  0
  -18.0301  -28.1476   22.8378 C   0  0  0  0  0  0
  -24.1487  -36.7321   23.2613 C   0  0  0  0  0  0
  -25.9577  -30.7765   21.3550 C   0  0  0  0  0  0
  -26.0452  -29.3934   20.7168 C   0  0  0  0  0  0
  -27.2155  -28.5730   20.7190 C   0  0  0  0  0  0
  -26.0325  -26.8456   19.5004 C   0  0  0  0  0  0
  -24.8712  -27.6468   19.5000 C   0  0  0  0  0  0
  -23.6436  -29.7950   20.1579 C   0  0  0  0  0  0
  -25.4110  -36.3084   24.0296 C   0  0  1  0  0  0
  -20.5868  -28.3787   23.1293 C   0  0  2  0  0  0
  -20.6831  -26.9542   22.5377 C   0  0  0  0  0  0
  -19.5854  -26.6439   21.5204 C   0  0  0  0  0  0
  -18.2010  -26.7967   22.1584 C   0  0  0  0  0  0
  -19.1538  -28.8926   23.2855 C   0  0  0  0  0  0
  -18.9424  -30.1522   23.8900 C   0  0  0  0  0  0
  -17.6412  -30.6552   24.0611 C   0  0  0  0  0  0
  -25.9057  -34.9437   23.5086 C   0  0  0  0  0  0
  -16.5322  -29.9096   23.6335 C   0  0  0  0  0  0
  -16.7271  -28.6567   23.0280 C   0  0  0  0  0  0
  -26.4489  -31.6631   25.0690 C   0  0  0  0  0  0
  -25.3739  -31.3792   26.1432 C   0  0  0  0  0  0
  -27.0290  -30.3070   24.6106 C   0  0  0  0  0  0
  -27.6105  -32.4300   25.7506 C   0  0  0  0  0  0
  -27.5563  -37.1805   24.8448 C   0  0  0  0  0  0
  -21.4152  -29.3160   22.3700 N   0  0  0  0  0  0
  -26.4278  -37.3809   23.9396 N   0  0  0  0  0  0
  -24.6918  -31.0456   22.0924 N   0  0  0  0  0  0
  -23.4170  -28.8073   23.2992 O   0  0  0  0  0  0
  -28.3397  -26.4161   20.2071 O   0  0  0  0  0  0
  -26.5615  -34.8921   22.4632 O   0  0  0  0  0  0
  -23.5450  -32.1320   23.7223 O   0  0  0  0  0  0
  -29.1499  -18.4379   20.2832 C   0  0  0  0  0  0
  -29.9286  -17.3687   20.8820 C   0  0  0  0  0  0
  -29.3264  -19.8173   20.6813 C   0  0  0  0  0  0
  -30.7625  -19.0222   22.2748 C   0  0  0  0  0  0
  -29.1152  -22.3681   19.9981 C   0  0  0  0  0  0
  -28.4401  -25.0660   19.5737 C   0  0  0  0  0  0
  -28.1501  -23.6388   20.2998 C   0  0  1  0  0  0
  -30.7319  -17.7437   21.9074 N   0  0  0  0  0  0
  -30.1580  -20.0677   21.7118 N   0  0  0  0  0  0
  -31.4271  -19.2769   23.4397 N   0  0  0  0  0  0
  -29.7387  -15.9335   20.5281 N   0  0  0  0  0  0
  -28.5852  -20.9524   20.1600 N   0  0  0  0  0  0
  -26.8898  -23.1547   19.8798 O   0  0  0  0  0  0
  -31.4748  -12.6421   19.2094 H   0  0  0  0  0  0
  -30.4053  -11.5370   20.0388 H   0  0  0  0  0  0
  -29.8016  -11.6941   17.5622 H   0  0  0  0  0  0
  -29.6299  -13.4241   17.7207 H   0  0  0  0  0  0
  -27.9230  -11.2559   18.9797 H   0  0  0  0  0  0
  -27.3829  -12.4232   17.8030 H   0  0  0  0  0  0
  -27.5905  -14.2268   19.3891 H   0  0  0  0  0  0
  -28.7065  -12.2637   21.4783 H   0  0  0  0  0  0
  -28.3358  -13.9456   21.7334 H   0  0  0  0  0  0
  -25.2695   -9.5704   22.4713 H   0  0  0  0  0  0
  -23.9988   -7.4651   22.7423 H   0  0  0  0  0  0
  -21.0832   -8.8713   19.8973 H   0  0  0  0  0  0
  -22.3601  -10.9625   19.6212 H   0  0  0  0  0  0
  -21.1942   -7.6130   23.9684 H   0  0  0  0  0  0
  -21.1545   -6.0550   25.9069 H   0  0  0  0  0  0
  -22.0564   -2.7607   23.2892 H   0  0  0  0  0  0
  -22.4117  -11.9657   22.4738 H   0  0  0  0  0  0
  -21.1239  -13.1157   22.2966 H   0  0  0  0  0  0
  -24.6108  -15.8278   20.4535 H   0  0  0  0  0  0
  -26.2222  -15.6280   19.9968 H   0  0  0  0  0  0
  -26.7208  -32.5454   23.1045 H   0  0  0  0  0  0
  -25.0084  -33.9775   25.0388 H   0  0  0  0  0  0
  -22.7261  -31.2977   21.3737 H   0  0  0  0  0  0
  -23.3743  -35.9668   23.3281 H   0  0  0  0  0  0
  -24.3569  -36.8960   22.2032 H   0  0  0  0  0  0
  -23.7256  -37.6528   23.6652 H   0  0  0  0  0  0
  -26.0520  -31.5020   20.5550 H   0  0  0  0  0  0
  -26.8602  -30.8766   21.9426 H   0  0  0  0  0  0
  -28.1001  -28.9213   21.2273 H   0  0  0  0  0  0
  -25.9633  -25.8692   19.0476 H   0  0  0  0  0  0
  -23.9630  -27.2697   19.0461 H   0  0  0  0  0  0
  -23.7605  -30.5644   19.3965 H   0  0  0  0  0  0
  -22.7652  -29.2244   19.8611 H   0  0  0  0  0  0
  -25.1280  -36.1943   25.0799 H   0  0  0  0  0  0
  -20.9956  -28.3433   24.1371 H   0  0  0  0  0  0
  -20.5745  -26.2327   23.3518 H   0  0  0  0  0  0
  -21.6700  -26.7568   22.1214 H   0  0  0  0  0  0
  -19.7082  -25.6345   21.1261 H   0  0  0  0  0  0
  -19.6851  -27.3216   20.6703 H   0  0  0  0  0  0
  -17.4300  -26.6694   21.3915 H   0  0  0  0  0  0
  -18.0439  -26.0180   22.9046 H   0  0  0  0  0  0
  -19.7832  -30.7417   24.2342 H   0  0  0  0  0  0
  -17.4964  -31.6238   24.5125 H   0  0  0  0  0  0
  -15.5338  -30.3019   23.7660 H   0  0  0  0  0  0
  -15.8727  -28.0902   22.6897 H   0  0  0  0  0  0
  -24.5930  -30.7120   25.7766 H   0  0  0  0  0  0
  -24.8863  -32.2958   26.4788 H   0  0  0  0  0  0
  -25.8003  -30.9033   27.0268 H   0  0  0  0  0  0
  -26.2812  -29.6925   24.1049 H   0  0  0  0  0  0
  -27.3957  -29.7252   25.4575 H   0  0  0  0  0  0
  -27.8724  -30.4431   23.9317 H   0  0  0  0  0  0
  -27.2798  -33.3607   26.2137 H   0  0  0  0  0  0
  -28.3925  -32.6823   25.0334 H   0  0  0  0  0  0
  -28.0788  -31.8368   26.5386 H   0  0  0  0  0  0
  -28.2570  -38.0113   24.7463 H   0  0  0  0  0  0
  -28.1055  -36.2610   24.6286 H   0  0  0  0  0  0
  -27.2278  -37.1513   25.8863 H   0  0  0  0  0  0
  -20.9319  -29.8882   21.6901 H   0  0  0  0  0  0
  -26.0136  -38.2883   24.1435 H   0  0  0  0  0  0
  -28.4015  -18.1809   19.5462 H   0  0  0  0  0  0
  -29.4161  -22.4596   18.9530 H   0  0  0  0  0  0
  -30.0402  -22.4697   20.5666 H   0  0  0  0  0  0
  -27.9871  -25.0835   18.5824 H   0  0  0  0  0  0
  -29.5059  -25.0123   19.3499 H   0  0  0  0  0  0
  -28.1073  -23.7808   21.3810 H   0  0  0  0  0  0
  -31.4629  -18.5074   24.1000 H   0  0  0  0  0  0
  -31.1699  -20.1506   23.8842 H   0  0  0  0  0  0
  -28.7783  -15.7060   20.3296 H   0  0  0  0  0  0
  -28.0127  -20.6743   19.3673 H   0  0  0  0  0  0
  -26.9275  -22.2252   20.0847 H   0  0  0  0  0  0
  1 25  1  0  0  0
  1 30  2  0  0  0
  1 81  1  0  0  0
  2  3  1  0  0  0
  2 25  1  0  0  0
  2 84  1  0  0  0
  2 85  1  0  0  0
  3  4  1  0  0  0
  3 86  1  0  0  0
  3 87  1  0  0  0
  4  5  1  0  0  0
  4 88  1  0  0  0
  4 89  1  0  0  0
  5  6  1  0  0  0
  5 26  1  0  0  0
  5 90  1  0  0  0
  6 25  1  0  0  0
  6 91  1  0  0  0
  6 92  1  0  0  0
  7  8  2  0  0  0
  7 26  1  0  0  0
  7 29  1  0  0  0
  8  9  1  0  0  0
  8 22  1  0  0  0
  9 10  1  0  0  0
  9 27  2  0  0  0
 10 11  2  0  0  0
 10 15  1  0  0  0
 11 12  1  0  0  0
 11 93  1  0  0  0
 12 13  2  0  0  0
 12 94  1  0  0  0
 13 14  1  0  0  0
 13 31  1  0  0  0
 14 15  2  0  0  0
 14 95  1  0  0  0
 15 96  1  0  0  0
 16 17  2  0  0  0
 16 21  1  0  0  0
 16 31  1  0  0  0
 17 18  1  0  0  0
 17 97  1  0  0  0
 18 19  2  0  0  0
 18 98  1  0  0  0
 19 20  1  0  0  0
 19 24  1  0  0  0
 20 21  2  0  0  0
 20 99  1  0  0  0
 21 23  1  0  0  0
 22 28  1  0  0  0
 22 32  2  0  0  0
 26 27  1  0  0  0
 28100  1  0  0  0
 28101  1  0  0  0
 29102  1  0  0  0
 29103  1  0  0  0
 33 34  1  0  0  0
 33 66  1  0  0  0
 33 70  2  0  0  0
 34 36  1  0  0  0
 34 59  1  0  0  0
 34104  1  0  0  0
 35 44  2  0  0  0
 35 45  1  0  0  0
 35 68  1  0  0  0
 36 56  1  0  0  0
 36105  1  0  0  0
 37 39  1  0  0  0
 37 47  1  0  0  0
 37 66  1  0  0  0
 37106  1  0  0  0
 38 43  2  0  0  0
 38 46  1  0  0  0
 38 47  1  0  0  0
 39 64  1  0  0  0
 39 67  2  0  0  0
 40 52  1  0  0  0
 40 53  2  0  0  0
 40 58  1  0  0  0
 41107  1  0  0  0
 41108  1  0  0  0
 41109  1  0  0  0
 41 48  1  0  0  0
 42 43  1  0  0  0
 42 66  1  0  0  0
 42110  1  0  0  0
 42111  1  0  0  0
 43 44  1  0  0  0
 44112  1  0  0  0
 45 46  2  0  0  0
 45113  1  0  0  0
 46114  1  0  0  0
 47115  1  0  0  0
 47116  1  0  0  0
 48 56  1  0  0  0
 48 65  1  0  0  0
 48117  1  0  0  0
 49 50  1  0  0  0
 49 53  1  0  0  0
 49 64  1  0  0  0
 49118  1  0  0  0
 50 51  1  0  0  0
 50119  1  0  0  0
 50120  1  0  0  0
 51 52  1  0  0  0
 51121  1  0  0  0
 51122  1  0  0  0
 52123  1  0  0  0
 52124  1  0  0  0
 53 54  1  0  0  0
 54 55  2  0  0  0
 54125  1  0  0  0
 55 57  1  0  0  0
 55126  1  0  0  0
 56 69  2  0  0  0
 57 58  2  0  0  0
 57127  1  0  0  0
 58128  1  0  0  0
 59 60  1  0  0  0
 59 61  1  0  0  0
 59 62  1  0  0  0
 60129  1  0  0  0
 60130  1  0  0  0
 60131  1  0  0  0
 61132  1  0  0  0
 61133  1  0  0  0
 61134  1  0  0  0
 62135  1  0  0  0
 62136  1  0  0  0
 62137  1  0  0  0
 63 65  1  0  0  0
 63138  1  0  0  0
 63139  1  0  0  0
 63140  1  0  0  0
 64141  1  0  0  0
 65142  1  0  0  0
 68 76  1  0  0  0
 71 72  2  0  0  0
 71 73  1  0  0  0
 71143  1  0  0  0
 72 78  1  0  0  0
 72 81  1  0  0  0
 73 79  2  0  0  0
 73 82  1  0  0  0
 74 78  2  0  0  0
 74 79  1  0  0  0
 74 80  1  0  0  0
 75 77  1  0  0  0
 75 82  1  0  0  0
 75144  1  0  0  0
 75145  1  0  0  0
 76 77  1  0  0  0
 76146  1  0  0  0
 76147  1  0  0  0
 77 83  1  0  0  0
 77148  1  0  0  0
 80149  1  0  0  0
 80150  1  0  0  0
 81151  1  0  0  0
 82152  1  0  0  0
 83153  1  0  0  0
M  ISO  4   1 100  68 101  76 101  81 100
M  END
> <chiral flag>
0

> <version>
0

> <s_m_source_file>
/data/baiqing/PycharmProjects/Reinvent-master-3.2/result/LINK_invent/BTK/process_docking_weight1_custom_product_contain_oxygen_bond_distance_aromatic_linkinvent_7_9_3/rearranged_h_0196.sdf

> <i_m_source_file_index>
3

> <r_mmod_Potential_Energy-OPLS-2005>
-432.957794189453

> <r_mmod_Stretch_Energy-OPLS-2005>
118.533798217773

> <r_mmod_Bend_Energy-OPLS-2005>
198.210357666016

> <r_mmod_Torsional_Energy-OPLS-2005>
263.596618652344

> <r_mmod_Improper_Torsional_Energy-OPLS-2005>
17.9400043487549

> <r_mmod_Van_der_Waal_Energy-OPLS-2005>
144.214630126953

> <r_mmod_Electrostatic_Energy-OPLS-2005>
-995.2822265625

> <r_mmod_Solvation_Energy-OPLS-2005>
-285.299987792969

> <b_mmod_Minimization_Converged-OPLS-2005>
0

> <r_mmod_RMS_Derivative-OPLS-2005>
11.1575202941895

$$$$
3
                    3D
 Structure written by MMmdl.
167175  0  0  1  0            999 V2000
  -30.6333  -14.5632   20.5778 C   0  0  0  0  0  0
  -30.4487  -12.3623   19.4380 C   0  0  0  0  0  0
  -29.5163  -12.5154   18.2165 C   0  0  0  0  0  0
  -28.0304  -12.3758   18.6153 C   0  0  0  0  0  0
  -27.6637  -13.2088   19.8735 C   0  0  2  0  0  0
  -28.7043  -12.9934   20.9943 C   0  0  0  0  0  0
  -25.2630  -13.8148   20.5677 C   0  0  0  0  0  0
  -24.1881  -13.0444   20.9191 C   0  0  0  0  0  0
  -24.6427  -11.6902   20.8733 C   0  0  0  0  0  0
  -23.9073  -10.4294   21.0390 C   0  0  0  0  0  0
  -24.3625   -9.4213   21.9172 C   0  0  0  0  0  0
  -23.6310   -8.2244   22.0734 C   0  0  0  0  0  0
  -22.4291   -8.0282   21.3528 C   0  0  0  0  0  0
  -21.9928   -9.0247   20.4633 C   0  0  0  0  0  0
  -22.7246  -10.2134   20.3040 C   0  0  0  0  0  0
  -21.6851   -6.0745   22.5284 C   0  0  0  0  0  0
  -21.4011   -6.5645   23.8215 C   0  0  0  0  0  0
  -21.3663   -5.6799   24.9179 C   0  0  0  0  0  0
  -21.6033   -4.3049   24.7217 C   0  0  0  0  0  0
  -21.8828   -3.8157   23.4342 C   0  0  0  0  0  0
  -21.9197   -4.6976   22.3396 C   0  0  0  0  0  0
  -22.7908  -13.5252   21.1829 C   0  0  0  0  0  0
  -22.1670   -4.2170   21.0976 F   0  0  0  0  0  0
  -21.5627   -3.4535   25.7726 F   0  0  0  0  0  0
  -30.0273  -13.3448   20.4497 N   0  0  0  0  0  0
  -26.3057  -12.9319   20.3348 N   0  0  0  0  0  0
  -25.9344  -11.6480   20.5745 N   0  0  0  0  0  0
  -22.0522  -12.8271   22.0379 N   0  0  0  0  0  0
  -25.4373  -15.1861   20.4073 N   0  0  0  0  0  0
  -31.7697  -14.7808   20.1371 O   0  0  0  0  0  0
  -21.6649   -6.8880   21.4233 O   0  0  0  0  0  0
  -22.3626  -14.5566   20.6657 O   0  0  0  0  0  0
  -24.6186  -31.8649   23.2070 C   0  0  0  0  0  0
  -25.9063  -32.4810   23.8387 C   0  0  1  0  0  0
  -27.2400  -27.3788   20.1190 C   0  0  0  0  0  0
  -25.5906  -33.8613   24.2319 N   0  0  0  0  0  0
  -23.4120  -30.4846   21.5474 C   0  0  2  0  0  0
  -24.8632  -28.9457   20.1193 C   0  0  0  0  0  0
  -22.7451  -29.4631   22.4975 C   0  0  0  0  0  0
  -18.0277  -28.1377   22.8492 C   0  0  0  0  0  0
  -24.1483  -36.7305   23.2631 C   0  0  0  0  0  0
  -25.9461  -30.8145   21.3689 C   0  0  0  0  0  0
  -26.0268  -29.4437   20.7184 C   0  0  0  0  0  0
  -27.2187  -28.6708   20.7115 C   0  0  0  0  0  0
  -26.0556  -26.9208   19.4955 C   0  0  0  0  0  0
  -24.8758  -27.6862   19.5015 C   0  0  0  0  0  0
  -23.6268  -29.8152   20.1644 C   0  0  0  0  0  0
  -25.4106  -36.3105   24.0332 C   0  0  1  0  0  0
  -20.5876  -28.3679   23.1308 C   0  0  2  0  0  0
  -20.6771  -26.9413   22.5415 C   0  0  0  0  0  0
  -19.5750  -26.6385   21.5216 C   0  0  0  0  0  0
  -18.1928  -26.7923   22.1621 C   0  0  0  0  0  0
  -19.1532  -28.8847   23.2893 C   0  0  0  0  0  0
  -18.9455  -30.1447   23.8910 C   0  0  0  0  0  0
  -17.6461  -30.6590   24.0559 C   0  0  0  0  0  0
  -25.9037  -34.9470   23.5121 C   0  0  0  0  0  0
  -16.5351  -29.9089   23.6327 C   0  0  0  0  0  0
  -16.7265  -28.6501   23.0356 C   0  0  0  0  0  0
  -26.4489  -31.6592   25.0726 C   0  0  0  0  0  0
  -25.3736  -31.3707   26.1459 C   0  0  0  0  0  0
  -27.0322  -30.3027   24.6119 C   0  0  0  0  0  0
  -27.6057  -32.4313   25.7494 C   0  0  0  0  0  0
  -27.5587  -37.1808   24.8463 C   0  0  0  0  0  0
  -21.4174  -29.3041   22.3721 N   0  0  0  0  0  0
  -26.4292  -37.3797   23.9414 N   0  0  0  0  0  0
  -24.6770  -31.0701   22.0991 N   0  0  0  0  0  0
  -23.4197  -28.8184   23.3047 O   0  0  0  0  0  0
  -28.3837  -26.5832   20.1396 O   0  0  0  0  0  0
  -26.5608  -34.8924   22.4687 O   0  0  0  0  0  0
  -23.5360  -32.1438   23.7421 O   0  0  0  0  0  0
  -30.2155  -18.4991   23.2505 C   0  0  0  0  0  0
  -30.2409  -17.1736   22.7807 C   0  0  0  0  0  0
  -29.9704  -19.5418   22.3407 C   0  0  0  0  0  0
  -30.0423  -16.9071   21.4114 C   0  0  0  0  0  0
  -29.7989  -19.2361   20.9809 C   0  0  0  0  0  0
  -33.6601  -20.2946   20.6585 C   0  0  0  0  0  0
  -33.1442  -21.4840   18.4867 C   0  0  0  0  0  0
  -31.5529  -21.7108   20.4867 C   0  0  0  0  0  0
  -29.1168  -22.7100   20.6308 C   0  0  0  0  0  0
  -28.1911  -25.1883   20.5266 C   0  0  0  0  0  0
  -32.5492  -20.7945   19.7252 C   0  0  0  0  0  0
  -30.0793  -21.6286   20.0049 C   0  0  2  0  0  0
  -29.4345  -24.2413   20.3906 C   0  0  1  0  0  0
  -29.8210  -17.9435   20.5412 N   0  0  0  0  0  0
  -29.8250  -15.5288   21.0823 N   0  0  0  0  0  0
  -29.5392  -20.2384   20.0160 N   0  0  0  0  0  0
  -30.3747  -24.6595   21.3676 O   0  0  0  0  0  0
  -31.4888  -12.5034   19.1389 H   0  0  0  0  0  0
  -30.3895  -11.3525   19.8467 H   0  0  0  0  0  0
  -29.7762  -11.7760   17.4576 H   0  0  0  0  0  0
  -29.6825  -13.4901   17.7553 H   0  0  0  0  0  0
  -27.8351  -11.3192   18.7999 H   0  0  0  0  0  0
  -27.3903  -12.6568   17.7781 H   0  0  0  0  0  0
  -27.7004  -14.2574   19.5772 H   0  0  0  0  0  0
  -28.7060  -11.9497   21.3103 H   0  0  0  0  0  0
  -28.4486  -13.5634   21.8889 H   0  0  0  0  0  0
  -25.2745   -9.5719   22.4779 H   0  0  0  0  0  0
  -24.0018   -7.4647   22.7461 H   0  0  0  0  0  0
  -21.0847   -8.8750   19.8963 H   0  0  0  0  0  0
  -22.3658  -10.9670   19.6177 H   0  0  0  0  0  0
  -21.1989   -7.6154   23.9732 H   0  0  0  0  0  0
  -21.1489   -6.0516   25.9083 H   0  0  0  0  0  0
  -22.0604   -2.7618   23.2827 H   0  0  0  0  0  0
  -22.4084  -11.9916   22.4777 H   0  0  0  0  0  0
  -21.1129  -13.1300   22.2514 H   0  0  0  0  0  0
  -24.6693  -15.8408   20.5039 H   0  0  0  0  0  0
  -26.2839  -15.6203   20.0623 H   0  0  0  0  0  0
  -26.7134  -32.5520   23.1148 H   0  0  0  0  0  0
  -25.0063  -33.9780   25.0471 H   0  0  0  0  0  0
  -22.7018  -31.3013   21.4031 H   0  0  0  0  0  0
  -23.3749  -35.9630   23.3278 H   0  0  0  0  0  0
  -24.3582  -36.8935   22.2049 H   0  0  0  0  0  0
  -23.7229  -37.6498   23.6663 H   0  0  0  0  0  0
  -26.0624  -31.5777   20.5986 H   0  0  0  0  0  0
  -26.8310  -30.8733   21.9905 H   0  0  0  0  0  0
  -28.1117  -29.0524   21.1875 H   0  0  0  0  0  0
  -26.0209  -25.9681   18.9897 H   0  0  0  0  0  0
  -23.9844  -27.2996   19.0268 H   0  0  0  0  0  0
  -23.7404  -30.5875   19.4029 H   0  0  0  0  0  0
  -22.7531  -29.2333   19.8663 H   0  0  0  0  0  0
  -25.1287  -36.1950   25.0826 H   0  0  0  0  0  0
  -20.9956  -28.3219   24.1432 H   0  0  0  0  0  0
  -20.5677  -26.2289   23.3606 H   0  0  0  0  0  0
  -21.6637  -26.7459   22.1202 H   0  0  0  0  0  0
  -19.6916  -25.6299   21.1241 H   0  0  0  0  0  0
  -19.6674  -27.3196   20.6746 H   0  0  0  0  0  0
  -17.4202  -26.6671   21.4014 H   0  0  0  0  0  0
  -18.0319  -26.0063   22.9018 H   0  0  0  0  0  0
  -19.7935  -30.7254   24.2281 H   0  0  0  0  0  0
  -17.5019  -31.6273   24.5156 H   0  0  0  0  0  0
  -15.5354  -30.2995   23.7652 H   0  0  0  0  0  0
  -15.8659  -28.0819   22.7081 H   0  0  0  0  0  0
  -24.5900  -30.7077   25.7781 H   0  0  0  0  0  0
  -24.8946  -32.2867   26.4923 H   0  0  0  0  0  0
  -25.8067  -30.8849   27.0213 H   0  0  0  0  0  0
  -26.2880  -29.6782   24.1162 H   0  0  0  0  0  0
  -27.4077  -29.7269   25.4594 H   0  0  0  0  0  0
  -27.8727  -30.4343   23.9297 H   0  0  0  0  0  0
  -27.2685  -33.3616   26.2081 H   0  0  0  0  0  0
  -28.3871  -32.6861   25.0321 H   0  0  0  0  0  0
  -28.0723  -31.8424   26.5406 H   0  0  0  0  0  0
  -28.2585  -38.0126   24.7544 H   0  0  0  0  0  0
  -28.1105  -36.2663   24.6241 H   0  0  0  0  0  0
  -27.2318  -37.1388   25.8869 H   0  0  0  0  0  0
  -20.9351  -29.8764   21.6937 H   0  0  0  0  0  0
  -26.0166  -38.2863   24.1434 H   0  0  0  0  0  0
  -30.3532  -18.7132   24.3007 H   0  0  0  0  0  0
  -30.3705  -16.3660   23.4878 H   0  0  0  0  0  0
  -29.9118  -20.5577   22.7035 H   0  0  0  0  0  0
  -34.3382  -19.6141   20.1418 H   0  0  0  0  0  0
  -33.2356  -19.7430   21.4987 H   0  0  0  0  0  0
  -34.2513  -21.1167   21.0649 H   0  0  0  0  0  0
  -33.7325  -20.7854   17.8898 H   0  0  0  0  0  0
  -33.7994  -22.3120   18.7611 H   0  0  0  0  0  0
  -32.3593  -21.8810   17.8430 H   0  0  0  0  0  0
  -31.9078  -22.7388   20.4050 H   0  0  0  0  0  0
  -31.5885  -21.5025   21.5543 H   0  0  0  0  0  0
  -28.9951  -22.5287   21.6978 H   0  0  0  0  0  0
  -28.1283  -22.5236   20.2084 H   0  0  0  0  0  0
  -27.8191  -25.1622   21.5526 H   0  0  0  0  0  0
  -27.4134  -24.7376   19.9145 H   0  0  0  0  0  0
  -32.0310  -19.9026   19.3717 H   0  0  0  0  0  0
  -30.1156  -21.8798   18.9445 H   0  0  0  0  0  0
  -29.8666  -24.3635   19.3958 H   0  0  0  0  0  0
  -28.9319  -15.1720   21.3775 H   0  0  0  0  0  0
  -29.3596  -19.8672   19.0892 H   0  0  0  0  0  0
  -30.5141  -25.5939   21.2389 H   0  0  0  0  0  0
  1 25  1  0  0  0
  1 30  2  0  0  0
  1 85  1  0  0  0
  2  3  1  0  0  0
  2 25  1  0  0  0
  2 88  1  0  0  0
  2 89  1  0  0  0
  3  4  1  0  0  0
  3 90  1  0  0  0
  3 91  1  0  0  0
  4  5  1  0  0  0
  4 92  1  0  0  0
  4 93  1  0  0  0
  5  6  1  0  0  0
  5 26  1  0  0  0
  5 94  1  0  0  0
  6 25  1  0  0  0
  6 95  1  0  0  0
  6 96  1  0  0  0
  7  8  2  0  0  0
  7 26  1  0  0  0
  7 29  1  0  0  0
  8  9  1  0  0  0
  8 22  1  0  0  0
  9 10  1  0  0  0
  9 27  2  0  0  0
 10 11  2  0  0  0
 10 15  1  0  0  0
 11 12  1  0  0  0
 11 97  1  0  0  0
 12 13  2  0  0  0
 12 98  1  0  0  0
 13 14  1  0  0  0
 13 31  1  0  0  0
 14 15  2  0  0  0
 14 99  1  0  0  0
 15100  1  0  0  0
 16 17  2  0  0  0
 16 21  1  0  0  0
 16 31  1  0  0  0
 17 18  1  0  0  0
 17101  1  0  0  0
 18 19  2  0  0  0
 18102  1  0  0  0
 19 20  1  0  0  0
 19 24  1  0  0  0
 20 21  2  0  0  0
 20103  1  0  0  0
 21 23  1  0  0  0
 22 28  1  0  0  0
 22 32  2  0  0  0
 26 27  1  0  0  0
 28104  1  0  0  0
 28105  1  0  0  0
 29106  1  0  0  0
 29107  1  0  0  0
 33 34  1  0  0  0
 33 66  1  0  0  0
 33 70  2  0  0  0
 34 36  1  0  0  0
 34 59  1  0  0  0
 34108  1  0  0  0
 35 44  2  0  0  0
 35 45  1  0  0  0
 35 68  1  0  0  0
 36 56  1  0  0  0
 36109  1  0  0  0
 37 39  1  0  0  0
 37 47  1  0  0  0
 37 66  1  0  0  0
 37110  1  0  0  0
 38 43  2  0  0  0
 38 46  1  0  0  0
 38 47  1  0  0  0
 39 64  1  0  0  0
 39 67  2  0  0  0
 40 52  1  0  0  0
 40 53  2  0  0  0
 40 58  1  0  0  0
 41111  1  0  0  0
 41112  1  0  0  0
 41113  1  0  0  0
 41 48  1  0  0  0
 42 43  1  0  0  0
 42 66  1  0  0  0
 42114  1  0  0  0
 42115  1  0  0  0
 43 44  1  0  0  0
 44116  1  0  0  0
 45 46  2  0  0  0
 45117  1  0  0  0
 46118  1  0  0  0
 47119  1  0  0  0
 47120  1  0  0  0
 48 56  1  0  0  0
 48 65  1  0  0  0
 48121  1  0  0  0
 49 50  1  0  0  0
 49 53  1  0  0  0
 49 64  1  0  0  0
 49122  1  0  0  0
 50 51  1  0  0  0
 50123  1  0  0  0
 50124  1  0  0  0
 51 52  1  0  0  0
 51125  1  0  0  0
 51126  1  0  0  0
 52127  1  0  0  0
 52128  1  0  0  0
 53 54  1  0  0  0
 54 55  2  0  0  0
 54129  1  0  0  0
 55 57  1  0  0  0
 55130  1  0  0  0
 56 69  2  0  0  0
 57 58  2  0  0  0
 57131  1  0  0  0
 58132  1  0  0  0
 59 60  1  0  0  0
 59 61  1  0  0  0
 59 62  1  0  0  0
 60133  1  0  0  0
 60134  1  0  0  0
 60135  1  0  0  0
 61136  1  0  0  0
 61137  1  0  0  0
 61138  1  0  0  0
 62139  1  0  0  0
 62140  1  0  0  0
 62141  1  0  0  0
 63 65  1  0  0  0
 63142  1  0  0  0
 63143  1  0  0  0
 63144  1  0  0  0
 64145  1  0  0  0
 65146  1  0  0  0
 68 80  1  0  0  0
 71 72  2  0  0  0
 71 73  1  0  0  0
 71147  1  0  0  0
 72 74  1  0  0  0
 72148  1  0  0  0
 73 75  2  0  0  0
 73149  1  0  0  0
 74 84  2  0  0  0
 74 85  1  0  0  0
 75 84  1  0  0  0
 75 86  1  0  0  0
 76150  1  0  0  0
 76151  1  0  0  0
 76152  1  0  0  0
 76 81  1  0  0  0
 77 81  1  0  0  0
 77153  1  0  0  0
 77154  1  0  0  0
 77155  1  0  0  0
 78 81  1  0  0  0
 78156  1  0  0  0
 78157  1  0  0  0
 78 82  1  0  0  0
 79 82  1  0  0  0
 79 83  1  0  0  0
 79158  1  0  0  0
 79159  1  0  0  0
 80 83  1  0  0  0
 80160  1  0  0  0
 80161  1  0  0  0
 81162  1  0  0  0
 82 86  1  0  0  0
 82163  1  0  0  0
 83 87  1  0  0  0
 83164  1  0  0  0
 85165  1  0  0  0
 86166  1  0  0  0
 87167  1  0  0  0
M  ISO  4   1 100  68 101  80 101  85 100
M  END
> <chiral flag>
0

> <version>
0

> <s_m_source_file>
/data/baiqing/PycharmProjects/Reinvent-master-3.2/result/LINK_invent/BTK/process_docking_weight1_custom_product_contain_oxygen_bond_distance_aromatic_linkinvent_7_9_3/rearranged_h_0196.sdf

> <i_m_source_file_index>
4

> <r_mmod_Potential_Energy-OPLS-2005>
-130.949737548828

> <r_mmod_Stretch_Energy-OPLS-2005>
56.5687217712402

> <r_mmod_Bend_Energy-OPLS-2005>
136.696380615234

> <r_mmod_Torsional_Energy-OPLS-2005>
274.10888671875

> <r_mmod_Improper_Torsional_Energy-OPLS-2005>
7.4825553894043

> <r_mmod_Van_der_Waal_Energy-OPLS-2005>
146.710525512695

> <r_mmod_Electrostatic_Energy-OPLS-2005>
-539.899047851562

> <r_mmod_Solvation_Energy-OPLS-2005>
-238.804489135742

> <b_mmod_Minimization_Converged-OPLS-2005>
0

> <r_mmod_RMS_Derivative-OPLS-2005>
2.88155722618103

$$$$
4
                    3D
 Structure written by MMmdl.
165173  0  0  1  0            999 V2000
  -30.5899  -14.7294   20.4650 C   0  0  0  0  0  0
  -30.4533  -12.4469   19.4552 C   0  0  0  0  0  0
  -29.5210  -12.5066   18.2242 C   0  0  0  0  0  0
  -28.0413  -12.3427   18.6327 C   0  0  0  0  0  0
  -27.6518  -13.2219   19.8511 C   0  0  2  0  0  0
  -28.7003  -13.1147   20.9808 C   0  0  0  0  0  0
  -25.2586  -13.8181   20.5666 C   0  0  0  0  0  0
  -24.1854  -13.0451   20.9206 C   0  0  0  0  0  0
  -24.6429  -11.6921   20.8746 C   0  0  0  0  0  0
  -23.9098  -10.4307   21.0399 C   0  0  0  0  0  0
  -24.3650   -9.4220   21.9182 C   0  0  0  0  0  0
  -23.6317   -8.2259   22.0751 C   0  0  0  0  0  0
  -22.4302   -8.0307   21.3542 C   0  0  0  0  0  0
  -21.9936   -9.0279   20.4640 C   0  0  0  0  0  0
  -22.7269  -10.2154   20.3044 C   0  0  0  0  0  0
  -21.6863   -6.0753   22.5279 C   0  0  0  0  0  0
  -21.3999   -6.5637   23.8221 C   0  0  0  0  0  0
  -21.3652   -5.6786   24.9184 C   0  0  0  0  0  0
  -21.6050   -4.3050   24.7223 C   0  0  0  0  0  0
  -21.8829   -3.8149   23.4335 C   0  0  0  0  0  0
  -21.9191   -4.6977   22.3395 C   0  0  0  0  0  0
  -22.7878  -13.5249   21.1847 C   0  0  0  0  0  0
  -22.1665   -4.2163   21.0978 F   0  0  0  0  0  0
  -21.5635   -3.4517   25.7726 F   0  0  0  0  0  0
  -30.0024  -13.4864   20.4069 N   0  0  0  0  0  0
  -26.3002  -12.9366   20.3256 N   0  0  0  0  0  0
  -25.9357  -11.6527   20.5723 N   0  0  0  0  0  0
  -22.0474  -12.8272   22.0392 N   0  0  0  0  0  0
  -25.4305  -15.1914   20.4062 N   0  0  0  0  0  0
  -31.7760  -14.8783   20.1581 O   0  0  0  0  0  0
  -21.6645   -6.8911   21.4256 O   0  0  0  0  0  0
  -22.3591  -14.5552   20.6675 O   0  0  0  0  0  0
  -24.6317  -31.8546   23.1970 C   0  0  0  0  0  0
  -25.9135  -32.4760   23.8333 C   0  0  1  0  0  0
  -27.2337  -27.2541   20.1177 C   0  0  0  0  0  0
  -25.5928  -33.8557   24.2260 N   0  0  0  0  0  0
  -23.4317  -30.4750   21.5398 C   0  0  2  0  0  0
  -24.8800  -28.9175   20.1123 C   0  0  0  0  0  0
  -22.7519  -29.4604   22.4923 C   0  0  0  0  0  0
  -18.0309  -28.1378   22.8484 C   0  0  0  0  0  0
  -24.1486  -36.7269   23.2645 C   0  0  0  0  0  0
  -25.9783  -30.7599   21.3848 C   0  0  0  0  0  0
  -26.0505  -29.3833   20.7217 C   0  0  0  0  0  0
  -27.2246  -28.5621   20.7166 C   0  0  0  0  0  0
  -26.0369  -26.8634   19.4724 C   0  0  0  0  0  0
  -24.8775  -27.6659   19.4814 C   0  0  0  0  0  0
  -23.6510  -29.8041   20.1583 C   0  0  0  0  0  0
  -25.4121  -36.3081   24.0337 C   0  0  1  0  0  0
  -20.5905  -28.3694   23.1253 C   0  0  2  0  0  0
  -20.6783  -26.9412   22.5391 C   0  0  0  0  0  0
  -19.5758  -26.6373   21.5198 C   0  0  0  0  0  0
  -18.1946  -26.7921   22.1618 C   0  0  0  0  0  0
  -19.1558  -28.8855   23.2864 C   0  0  0  0  0  0
  -18.9474  -30.1454   23.8889 C   0  0  0  0  0  0
  -17.6470  -30.6575   24.0546 C   0  0  0  0  0  0
  -25.9058  -34.9450   23.5110 C   0  0  0  0  0  0
  -16.5363  -29.9063   23.6330 C   0  0  0  0  0  0
  -16.7293  -28.6477   23.0366 C   0  0  0  0  0  0
  -26.4478  -31.6608   25.0745 C   0  0  0  0  0  0
  -25.3672  -31.3763   26.1443 C   0  0  0  0  0  0
  -27.0344  -30.3025   24.6283 C   0  0  0  0  0  0
  -27.6049  -32.4351   25.7494 C   0  0  0  0  0  0
  -27.5588  -37.1799   24.8471 C   0  0  0  0  0  0
  -21.4229  -29.3041   22.3643 N   0  0  0  0  0  0
  -26.4300  -37.3781   23.9413 N   0  0  0  0  0  0
  -24.6991  -31.0481   22.0967 N   0  0  0  0  0  0
  -23.4208  -28.8174   23.3050 O   0  0  0  0  0  0
  -28.3540  -26.3862   20.2016 O   0  0  0  0  0  0
  -26.5629  -34.8917   22.4675 O   0  0  0  0  0  0
  -23.5457  -32.1382   23.7241 O   0  0  0  0  0  0
  -31.1309  -18.0441   20.6542 C   0  0  0  0  0  0
  -28.9564  -18.2711   20.4963 C   0  0  0  0  0  0
  -29.9298  -17.2783   20.5804 C   0  0  0  0  0  0
  -31.6496  -24.0545   18.4468 C   0  0  0  0  0  0
  -31.1775  -22.6194   16.4680 C   0  0  0  0  0  0
  -32.2811  -21.6218   18.4744 C   0  0  0  0  0  0
  -29.0384  -23.7723   20.6338 C   0  0  0  0  0  0
  -29.8032  -22.2609   18.5482 C   0  0  0  0  0  0
  -28.8918  -20.9458   20.6402 C   0  0  0  0  0  0
  -28.3591  -24.9469   19.7389 C   0  0  0  0  0  0
  -29.5725  -22.3127   20.0878 C   0  0  2  0  0  0
  -31.2179  -22.6416   18.0108 C   0  0  0  0  0  0
  -30.8958  -19.3730   20.6484 N   0  0  0  0  0  0
  -29.5487  -19.5602   20.5250 N   0  0  0  0  0  0
  -29.7392  -15.8068   20.6482 N   0  0  0  0  0  0
  -31.4881  -12.5997   19.1428 H   0  0  0  0  0  0
  -30.4255  -11.4590   19.9175 H   0  0  0  0  0  0
  -29.7981  -11.7327   17.5060 H   0  0  0  0  0  0
  -29.6589  -13.4609   17.7138 H   0  0  0  0  0  0
  -27.8828  -11.2906   18.8684 H   0  0  0  0  0  0
  -27.3932  -12.5644   17.7848 H   0  0  0  0  0  0
  -27.6570  -14.2517   19.4951 H   0  0  0  0  0  0
  -28.7366  -12.0956   21.3717 H   0  0  0  0  0  0
  -28.4411  -13.7594   21.8224 H   0  0  0  0  0  0
  -25.2794   -9.5683   22.4767 H   0  0  0  0  0  0
  -24.0012   -7.4642   22.7472 H   0  0  0  0  0  0
  -21.0850   -8.8803   19.8962 H   0  0  0  0  0  0
  -22.3725  -10.9697   19.6150 H   0  0  0  0  0  0
  -21.1977   -7.6142   23.9729 H   0  0  0  0  0  0
  -21.1467   -6.0503   25.9085 H   0  0  0  0  0  0
  -22.0613   -2.7605   23.2827 H   0  0  0  0  0  0
  -22.4029  -11.9926   22.4814 H   0  0  0  0  0  0
  -21.1085  -13.1326   22.2536 H   0  0  0  0  0  0
  -24.6641  -15.8474   20.5240 H   0  0  0  0  0  0
  -26.2606  -15.6190   20.0171 H   0  0  0  0  0  0
  -26.7205  -32.5398   23.1072 H   0  0  0  0  0  0
  -25.0067  -33.9695   25.0402 H   0  0  0  0  0  0
  -22.7299  -31.2975   21.3890 H   0  0  0  0  0  0
  -23.3779  -35.9570   23.3309 H   0  0  0  0  0  0
  -24.3574  -36.8876   22.2056 H   0  0  0  0  0  0
  -23.7194  -37.6453   23.6657 H   0  0  0  0  0  0
  -26.1289  -31.5276   20.6247 H   0  0  0  0  0  0
  -26.8490  -30.7987   22.0280 H   0  0  0  0  0  0
  -28.1196  -28.9133   21.2111 H   0  0  0  0  0  0
  -25.9490  -25.9223   18.9561 H   0  0  0  0  0  0
  -23.9797  -27.3045   18.9975 H   0  0  0  0  0  0
  -23.7735  -30.5745   19.3958 H   0  0  0  0  0  0
  -22.7718  -29.2311   19.8599 H   0  0  0  0  0  0
  -25.1305  -36.1935   25.0831 H   0  0  0  0  0  0
  -21.0004  -28.3252   24.1368 H   0  0  0  0  0  0
  -20.5650  -26.2319   23.3604 H   0  0  0  0  0  0
  -21.6655  -26.7407   22.1206 H   0  0  0  0  0  0
  -19.6913  -25.6273   21.1253 H   0  0  0  0  0  0
  -19.6683  -27.3157   20.6708 H   0  0  0  0  0  0
  -17.4215  -26.6679   21.4020 H   0  0  0  0  0  0
  -18.0341  -26.0050   22.8999 H   0  0  0  0  0  0
  -19.7949  -30.7272   24.2263 H   0  0  0  0  0  0
  -17.5021  -31.6265   24.5128 H   0  0  0  0  0  0
  -15.5359  -30.2954   23.7659 H   0  0  0  0  0  0
  -15.8703  -28.0774   22.7105 H   0  0  0  0  0  0
  -24.5848  -30.7130   25.7726 H   0  0  0  0  0  0
  -24.8849  -32.2928   26.4854 H   0  0  0  0  0  0
  -25.7934  -30.8915   27.0236 H   0  0  0  0  0  0
  -26.2952  -29.6762   24.1273 H   0  0  0  0  0  0
  -27.3969  -29.7304   25.4835 H   0  0  0  0  0  0
  -27.8853  -30.4298   23.9588 H   0  0  0  0  0  0
  -27.2699  -33.3677   26.2048 H   0  0  0  0  0  0
  -28.3849  -32.6879   25.0298 H   0  0  0  0  0  0
  -28.0742  -31.8497   26.5413 H   0  0  0  0  0  0
  -28.2623  -38.0084   24.7538 H   0  0  0  0  0  0
  -28.1076  -36.2626   24.6291 H   0  0  0  0  0  0
  -27.2315  -37.1431   25.8875 H   0  0  0  0  0  0
  -20.9443  -29.8728   21.6799 H   0  0  0  0  0  0
  -26.0194  -38.2864   24.1390 H   0  0  0  0  0  0
  -32.1487  -17.6924   20.7533 H   0  0  0  0  0  0
  -27.8807  -18.1729   20.4465 H   0  0  0  0  0  0
  -32.6698  -24.2701   18.1276 H   0  0  0  0  0  0
  -31.6258  -24.1793   19.5288 H   0  0  0  0  0  0
  -31.0130  -24.8229   18.0081 H   0  0  0  0  0  0
  -32.1505  -22.8592   16.0356 H   0  0  0  0  0  0
  -30.4664  -23.3460   16.0727 H   0  0  0  0  0  0
  -30.8912  -21.6386   16.0861 H   0  0  0  0  0  0
  -33.2490  -21.8060   18.0057 H   0  0  0  0  0  0
  -31.9933  -20.6003   18.2200 H   0  0  0  0  0  0
  -32.4448  -21.6551   19.5518 H   0  0  0  0  0  0
  -28.3707  -23.5810   21.4730 H   0  0  0  0  0  0
  -29.8993  -24.2412   21.1117 H   0  0  0  0  0  0
  -29.0407  -22.8610   18.0530 H   0  0  0  0  0  0
  -29.5900  -21.2465   18.2085 H   0  0  0  0  0  0
  -27.8996  -20.8625   20.1943 H   0  0  0  0  0  0
  -28.7070  -21.0902   21.7053 H   0  0  0  0  0  0
  -27.3613  -24.5843   19.5133 H   0  0  0  0  0  0
  -28.8656  -24.9803   18.7761 H   0  0  0  0  0  0
  -30.5593  -22.2332   20.5423 H   0  0  0  0  0  0
  -28.7876  -15.5092   20.8013 H   0  0  0  0  0  0
  1 25  1  0  0  0
  1 30  2  0  0  0
  1 85  1  0  0  0
  2  3  1  0  0  0
  2 25  1  0  0  0
  2 86  1  0  0  0
  2 87  1  0  0  0
  3  4  1  0  0  0
  3 88  1  0  0  0
  3 89  1  0  0  0
  4  5  1  0  0  0
  4 90  1  0  0  0
  4 91  1  0  0  0
  5  6  1  0  0  0
  5 26  1  0  0  0
  5 92  1  0  0  0
  6 25  1  0  0  0
  6 93  1  0  0  0
  6 94  1  0  0  0
  7  8  2  0  0  0
  7 26  1  0  0  0
  7 29  1  0  0  0
  8  9  1  0  0  0
  8 22  1  0  0  0
  9 10  1  0  0  0
  9 27  2  0  0  0
 10 11  2  0  0  0
 10 15  1  0  0  0
 11 12  1  0  0  0
 11 95  1  0  0  0
 12 13  2  0  0  0
 12 96  1  0  0  0
 13 14  1  0  0  0
 13 31  1  0  0  0
 14 15  2  0  0  0
 14 97  1  0  0  0
 15 98  1  0  0  0
 16 17  2  0  0  0
 16 21  1  0  0  0
 16 31  1  0  0  0
 17 18  1  0  0  0
 17 99  1  0  0  0
 18 19  2  0  0  0
 18100  1  0  0  0
 19 20  1  0  0  0
 19 24  1  0  0  0
 20 21  2  0  0  0
 20101  1  0  0  0
 21 23  1  0  0  0
 22 28  1  0  0  0
 22 32  2  0  0  0
 26 27  1  0  0  0
 28102  1  0  0  0
 28103  1  0  0  0
 29104  1  0  0  0
 29105  1  0  0  0
 33 34  1  0  0  0
 33 66  1  0  0  0
 33 70  2  0  0  0
 34 36  1  0  0  0
 34 59  1  0  0  0
 34106  1  0  0  0
 35 44  2  0  0  0
 35 45  1  0  0  0
 35 68  1  0  0  0
 36 56  1  0  0  0
 36107  1  0  0  0
 37 39  1  0  0  0
 37 47  1  0  0  0
 37 66  1  0  0  0
 37108  1  0  0  0
 38 43  2  0  0  0
 38 46  1  0  0  0
 38 47  1  0  0  0
 39 64  1  0  0  0
 39 67  2  0  0  0
 40 52  1  0  0  0
 40 53  2  0  0  0
 40 58  1  0  0  0
 41109  1  0  0  0
 41110  1  0  0  0
 41111  1  0  0  0
 41 48  1  0  0  0
 42 43  1  0  0  0
 42 66  1  0  0  0
 42112  1  0  0  0
 42113  1  0  0  0
 43 44  1  0  0  0
 44114  1  0  0  0
 45 46  2  0  0  0
 45115  1  0  0  0
 46116  1  0  0  0
 47117  1  0  0  0
 47118  1  0  0  0
 48 56  1  0  0  0
 48 65  1  0  0  0
 48119  1  0  0  0
 49 50  1  0  0  0
 49 53  1  0  0  0
 49 64  1  0  0  0
 49120  1  0  0  0
 50 51  1  0  0  0
 50121  1  0  0  0
 50122  1  0  0  0
 51 52  1  0  0  0
 51123  1  0  0  0
 51124  1  0  0  0
 52125  1  0  0  0
 52126  1  0  0  0
 53 54  1  0  0  0
 54 55  2  0  0  0
 54127  1  0  0  0
 55 57  1  0  0  0
 55128  1  0  0  0
 56 69  2  0  0  0
 57 58  2  0  0  0
 57129  1  0  0  0
 58130  1  0  0  0
 59 60  1  0  0  0
 59 61  1  0  0  0
 59 62  1  0  0  0
 60131  1  0  0  0
 60132  1  0  0  0
 60133  1  0  0  0
 61134  1  0  0  0
 61135  1  0  0  0
 61136  1  0  0  0
 62137  1  0  0  0
 62138  1  0  0  0
 62139  1  0  0  0
 63 65  1  0  0  0
 63140  1  0  0  0
 63141  1  0  0  0
 63142  1  0  0  0
 64143  1  0  0  0
 65144  1  0  0  0
 68 80  1  0  0  0
 71 73  1  0  0  0
 71 83  2  0  0  0
 71145  1  0  0  0
 72 73  2  0  0  0
 72 84  1  0  0  0
 72146  1  0  0  0
 73 85  1  0  0  0
 74147  1  0  0  0
 74148  1  0  0  0
 74149  1  0  0  0
 74 82  1  0  0  0
 75 82  1  0  0  0
 75150  1  0  0  0
 75151  1  0  0  0
 75152  1  0  0  0
 76 82  1  0  0  0
 76153  1  0  0  0
 76154  1  0  0  0
 76155  1  0  0  0
 77 80  1  0  0  0
 77156  1  0  0  0
 77157  1  0  0  0
 77 81  1  0  0  0
 78 81  1  0  0  0
 78 82  1  0  0  0
 78158  1  0  0  0
 78159  1  0  0  0
 79 81  1  0  0  0
 79 84  1  0  0  0
 79160  1  0  0  0
 79161  1  0  0  0
 80162  1  0  0  0
 80163  1  0  0  0
 81164  1  0  0  0
 83 84  1  0  0  0
 85165  1  0  0  0
M  ISO  4   1 100  68 101  80 101  85 100
M  END
> <chiral flag>
0

> <version>
0

> <s_m_source_file>
/data/baiqing/PycharmProjects/Reinvent-master-3.2/result/LINK_invent/BTK/process_docking_weight1_custom_product_contain_oxygen_bond_distance_aromatic_linkinvent_7_9_3/rearranged_h_0196.sdf

> <i_m_source_file_index>
5

> <r_mmod_Potential_Energy-OPLS-2005>
213.54264831543

> <r_mmod_Stretch_Energy-OPLS-2005>
130.460296630859

> <r_mmod_Bend_Energy-OPLS-2005>
211.923217773438

> <r_mmod_Torsional_Energy-OPLS-2005>
253.020751953125

> <r_mmod_Improper_Torsional_Energy-OPLS-2005>
6.44580030441284

> <r_mmod_Van_der_Waal_Energy-OPLS-2005>
114.281730651855

> <r_mmod_Electrostatic_Energy-OPLS-2005>
-366.834259033203

> <r_mmod_Solvation_Energy-OPLS-2005>
-217.692718505859

> <b_mmod_Minimization_Converged-OPLS-2005>
0

> <r_mmod_RMS_Derivative-OPLS-2005>
2.98588538169861

$$$$
5
                    3D
 Structure written by MMmdl.
154162  0  0  1  0            999 V2000
  -30.6611  -14.5862   20.5302 C   0  0  0  0  0  0
  -30.4278  -12.3701   19.4398 C   0  0  0  0  0  0
  -29.5010  -12.5076   18.2137 C   0  0  0  0  0  0
  -28.0204  -12.3576   18.6204 C   0  0  0  0  0  0
  -27.6510  -13.2196   19.8580 C   0  0  2  0  0  0
  -28.6949  -13.0617   20.9850 C   0  0  0  0  0  0
  -25.2554  -13.8184   20.5697 C   0  0  0  0  0  0
  -24.1825  -13.0443   20.9209 C   0  0  0  0  0  0
  -24.6397  -11.6913   20.8741 C   0  0  0  0  0  0
  -23.9070  -10.4289   21.0405 C   0  0  0  0  0  0
  -24.3618   -9.4201   21.9173 C   0  0  0  0  0  0
  -23.6304   -8.2228   22.0727 C   0  0  0  0  0  0
  -22.4281   -8.0287   21.3528 C   0  0  0  0  0  0
  -21.9921   -9.0254   20.4631 C   0  0  0  0  0  0
  -22.7246  -10.2139   20.3053 C   0  0  0  0  0  0
  -21.6853   -6.0751   22.5279 C   0  0  0  0  0  0
  -21.4009   -6.5637   23.8220 C   0  0  0  0  0  0
  -21.3665   -5.6782   24.9173 C   0  0  0  0  0  0
  -21.6054   -4.3048   24.7220 C   0  0  0  0  0  0
  -21.8818   -3.8154   23.4335 C   0  0  0  0  0  0
  -21.9190   -4.6975   22.3397 C   0  0  0  0  0  0
  -22.7836  -13.5228   21.1867 C   0  0  0  0  0  0
  -22.1657   -4.2162   21.0973 F   0  0  0  0  0  0
  -21.5636   -3.4534   25.7730 F   0  0  0  0  0  0
  -30.0108  -13.3902   20.4201 N   0  0  0  0  0  0
  -26.2980  -12.9380   20.3297 N   0  0  0  0  0  0
  -25.9324  -11.6532   20.5738 N   0  0  0  0  0  0
  -22.0474  -12.8222   22.0426 N   0  0  0  0  0  0
  -25.4260  -15.1909   20.4096 N   0  0  0  0  0  0
  -31.8201  -14.7308   20.1347 O   0  0  0  0  0  0
  -21.6636   -6.8888   21.4241 O   0  0  0  0  0  0
  -22.3523  -14.5535   20.6714 O   0  0  0  0  0  0
  -24.6204  -31.8636   23.2061 C   0  0  0  0  0  0
  -25.9093  -32.4792   23.8353 C   0  0  1  0  0  0
  -27.2225  -27.3657   20.1238 C   0  0  0  0  0  0
  -25.5930  -33.8585   24.2280 N   0  0  0  0  0  0
  -23.4107  -30.4884   21.5460 C   0  0  2  0  0  0
  -24.8574  -28.9429   20.1167 C   0  0  0  0  0  0
  -22.7428  -29.4651   22.4940 C   0  0  0  0  0  0
  -18.0280  -28.1383   22.8505 C   0  0  0  0  0  0
  -24.1487  -36.7300   23.2633 C   0  0  0  0  0  0
  -25.9456  -30.8085   21.3698 C   0  0  0  0  0  0
  -26.0214  -29.4365   20.7201 C   0  0  0  0  0  0
  -27.2090  -28.6569   20.7169 C   0  0  0  0  0  0
  -26.0403  -26.9039   19.5104 C   0  0  0  0  0  0
  -24.8641  -27.6781   19.5071 C   0  0  0  0  0  0
  -23.6250  -29.8213   20.1611 C   0  0  0  0  0  0
  -25.4108  -36.3075   24.0320 C   0  0  1  0  0  0
  -20.5877  -28.3686   23.1303 C   0  0  2  0  0  0
  -20.6778  -26.9417   22.5415 C   0  0  0  0  0  0
  -19.5755  -26.6391   21.5218 C   0  0  0  0  0  0
  -18.1932  -26.7933   22.1630 C   0  0  0  0  0  0
  -19.1532  -28.8847   23.2907 C   0  0  0  0  0  0
  -18.9456  -30.1448   23.8923 C   0  0  0  0  0  0
  -17.6461  -30.6595   24.0568 C   0  0  0  0  0  0
  -25.9047  -34.9452   23.5091 C   0  0  0  0  0  0
  -16.5351  -29.9098   23.6324 C   0  0  0  0  0  0
  -16.7268  -28.6506   23.0363 C   0  0  0  0  0  0
  -26.4508  -31.6592   25.0704 C   0  0  0  0  0  0
  -25.3766  -31.3737   26.1448 C   0  0  0  0  0  0
  -27.0343  -30.3013   24.6137 C   0  0  0  0  0  0
  -27.6046  -32.4343   25.7496 C   0  0  0  0  0  0
  -27.5576  -37.1798   24.8453 C   0  0  0  0  0  0
  -21.4143  -29.3052   22.3689 N   0  0  0  0  0  0
  -26.4279  -37.3777   23.9407 N   0  0  0  0  0  0
  -24.6771  -31.0693   22.0987 N   0  0  0  0  0  0
  -23.4172  -28.8193   23.3001 O   0  0  0  0  0  0
  -28.3601  -26.5684   20.1086 O   0  0  0  0  0  0
  -26.5599  -34.8922   22.4648 O   0  0  0  0  0  0
  -23.5387  -32.1410   23.7440 O   0  0  0  0  0  0
  -29.6546  -18.1918   20.5975 C   0  0  0  0  0  0
  -28.9180  -20.0843   19.9485 C   0  0  0  0  0  0
  -30.4894  -22.8024   20.9123 C   0  0  0  0  0  0
  -30.4491  -17.0322   21.2116 C   0  0  0  0  0  0
  -28.2763  -25.2608   20.7612 C   0  0  0  0  0  0
  -29.0022  -22.6402   20.5516 C   0  0  1  0  0  0
  -28.4387  -23.9607   19.8695 C   0  0  1  0  0  0
  -29.8640  -19.5188   20.7636 N   0  0  0  0  0  0
  -28.1430  -19.2029   19.3298 N   0  0  0  0  0  0
  -28.7899  -21.4789   19.6561 N   0  0  0  0  0  0
  -29.9344  -15.6523   20.9555 N   0  0  0  0  0  0
  -28.6178  -17.9457   19.7578 O   0  0  0  0  0  0
  -27.1611  -23.5910   19.3708 O   0  0  0  0  0  0
  -31.4684  -12.4872   19.1337 H   0  0  0  0  0  0
  -30.3559  -11.3700   19.8728 H   0  0  0  0  0  0
  -29.7609  -11.7669   17.4559 H   0  0  0  0  0  0
  -29.6560  -13.4852   17.7535 H   0  0  0  0  0  0
  -27.8361  -11.3044   18.8334 H   0  0  0  0  0  0
  -27.3744  -12.6132   17.7799 H   0  0  0  0  0  0
  -27.6737  -14.2569   19.5243 H   0  0  0  0  0  0
  -28.6941  -12.0393   21.3666 H   0  0  0  0  0  0
  -28.4471  -13.6962   21.8365 H   0  0  0  0  0  0
  -25.2760   -9.5678   22.4751 H   0  0  0  0  0  0
  -24.0027   -7.4608   22.7430 H   0  0  0  0  0  0
  -21.0863   -8.8777   19.8927 H   0  0  0  0  0  0
  -22.3711  -10.9675   19.6163 H   0  0  0  0  0  0
  -21.1990   -7.6142   23.9735 H   0  0  0  0  0  0
  -21.1494   -6.0501   25.9082 H   0  0  0  0  0  0
  -22.0602   -2.7623   23.2826 H   0  0  0  0  0  0
  -22.4088  -11.9902   22.4851 H   0  0  0  0  0  0
  -21.1077  -13.1234   22.2588 H   0  0  0  0  0  0
  -24.6556  -15.8419   20.5149 H   0  0  0  0  0  0
  -26.2659  -15.6290   20.0514 H   0  0  0  0  0  0
  -26.7151  -32.5489   23.1098 H   0  0  0  0  0  0
  -25.0096  -33.9726   25.0435 H   0  0  0  0  0  0
  -22.7030  -31.3077   21.4041 H   0  0  0  0  0  0
  -23.3746  -35.9638   23.3283 H   0  0  0  0  0  0
  -24.3576  -36.8939   22.2050 H   0  0  0  0  0  0
  -23.7254  -37.6501   23.6671 H   0  0  0  0  0  0
  -26.0646  -31.5721   20.5997 H   0  0  0  0  0  0
  -26.8302  -30.8617   21.9923 H   0  0  0  0  0  0
  -28.1049  -29.0302   21.1930 H   0  0  0  0  0  0
  -26.0183  -25.9406   19.0296 H   0  0  0  0  0  0
  -23.9706  -27.2928   19.0345 H   0  0  0  0  0  0
  -23.7450  -30.5973   19.4041 H   0  0  0  0  0  0
  -22.7453  -29.2499   19.8588 H   0  0  0  0  0  0
  -25.1296  -36.1907   25.0813 H   0  0  0  0  0  0
  -20.9982  -28.3264   24.1420 H   0  0  0  0  0  0
  -20.5699  -26.2290   23.3605 H   0  0  0  0  0  0
  -21.6649  -26.7469   22.1202 H   0  0  0  0  0  0
  -19.6923  -25.6304   21.1246 H   0  0  0  0  0  0
  -19.6704  -27.3206   20.6755 H   0  0  0  0  0  0
  -17.4209  -26.6695   21.4023 H   0  0  0  0  0  0
  -18.0331  -26.0063   22.9011 H   0  0  0  0  0  0
  -19.7928  -30.7253   24.2319 H   0  0  0  0  0  0
  -17.5015  -31.6279   24.5162 H   0  0  0  0  0  0
  -15.5354  -30.3015   23.7625 H   0  0  0  0  0  0
  -15.8666  -28.0822   22.7088 H   0  0  0  0  0  0
  -24.5906  -30.7124   25.7791 H   0  0  0  0  0  0
  -24.9016  -32.2925   26.4896 H   0  0  0  0  0  0
  -25.8110  -30.8890   27.0200 H   0  0  0  0  0  0
  -26.2900  -29.6765   24.1188 H   0  0  0  0  0  0
  -27.4069  -29.7262   25.4625 H   0  0  0  0  0  0
  -27.8759  -30.4283   23.9324 H   0  0  0  0  0  0
  -27.2607  -33.3615   26.2093 H   0  0  0  0  0  0
  -28.3867  -32.6964   25.0358 H   0  0  0  0  0  0
  -28.0715  -31.8474   26.5414 H   0  0  0  0  0  0
  -28.2573  -38.0115   24.7518 H   0  0  0  0  0  0
  -28.1092  -36.2643   24.6254 H   0  0  0  0  0  0
  -27.2291  -37.1421   25.8855 H   0  0  0  0  0  0
  -20.9291  -29.8763   21.6910 H   0  0  0  0  0  0
  -26.0151  -38.2841   24.1446 H   0  0  0  0  0  0
  -30.6467  -23.6245   21.6102 H   0  0  0  0  0  0
  -31.0954  -23.0077   20.0301 H   0  0  0  0  0  0
  -30.8884  -21.9090   21.3888 H   0  0  0  0  0  0
  -30.4594  -17.1843   22.2910 H   0  0  0  0  0  0
  -31.4858  -17.1330   20.8861 H   0  0  0  0  0  0
  -29.1009  -25.2779   21.4724 H   0  0  0  0  0  0
  -27.3846  -25.1851   21.3854 H   0  0  0  0  0  0
  -28.4391  -22.4508   21.4674 H   0  0  0  0  0  0
  -29.0784  -24.2089   19.0212 H   0  0  0  0  0  0
  -28.0098  -21.6813   19.0347 H   0  0  0  0  0  0
  -28.9704  -15.4857   21.1983 H   0  0  0  0  0  0
  -26.8371  -24.3235   18.8590 H   0  0  0  0  0  0
  1 25  1  0  0  0
  1 30  2  0  0  0
  1 81  1  0  0  0
  2  3  1  0  0  0
  2 25  1  0  0  0
  2 84  1  0  0  0
  2 85  1  0  0  0
  3  4  1  0  0  0
  3 86  1  0  0  0
  3 87  1  0  0  0
  4  5  1  0  0  0
  4 88  1  0  0  0
  4 89  1  0  0  0
  5  6  1  0  0  0
  5 26  1  0  0  0
  5 90  1  0  0  0
  6 25  1  0  0  0
  6 91  1  0  0  0
  6 92  1  0  0  0
  7  8  2  0  0  0
  7 26  1  0  0  0
  7 29  1  0  0  0
  8  9  1  0  0  0
  8 22  1  0  0  0
  9 10  1  0  0  0
  9 27  2  0  0  0
 10 11  2  0  0  0
 10 15  1  0  0  0
 11 12  1  0  0  0
 11 93  1  0  0  0
 12 13  2  0  0  0
 12 94  1  0  0  0
 13 14  1  0  0  0
 13 31  1  0  0  0
 14 15  2  0  0  0
 14 95  1  0  0  0
 15 96  1  0  0  0
 16 17  2  0  0  0
 16 21  1  0  0  0
 16 31  1  0  0  0
 17 18  1  0  0  0
 17 97  1  0  0  0
 18 19  2  0  0  0
 18 98  1  0  0  0
 19 20  1  0  0  0
 19 24  1  0  0  0
 20 21  2  0  0  0
 20 99  1  0  0  0
 21 23  1  0  0  0
 22 28  1  0  0  0
 22 32  2  0  0  0
 26 27  1  0  0  0
 28100  1  0  0  0
 28101  1  0  0  0
 29102  1  0  0  0
 29103  1  0  0  0
 33 34  1  0  0  0
 33 66  1  0  0  0
 33 70  2  0  0  0
 34 36  1  0  0  0
 34 59  1  0  0  0
 34104  1  0  0  0
 35 44  2  0  0  0
 35 45  1  0  0  0
 35 68  1  0  0  0
 36 56  1  0  0  0
 36105  1  0  0  0
 37 39  1  0  0  0
 37 47  1  0  0  0
 37 66  1  0  0  0
 37106  1  0  0  0
 38 43  2  0  0  0
 38 46  1  0  0  0
 38 47  1  0  0  0
 39 64  1  0  0  0
 39 67  2  0  0  0
 40 52  1  0  0  0
 40 53  2  0  0  0
 40 58  1  0  0  0
 41107  1  0  0  0
 41108  1  0  0  0
 41109  1  0  0  0
 41 48  1  0  0  0
 42 43  1  0  0  0
 42 66  1  0  0  0
 42110  1  0  0  0
 42111  1  0  0  0
 43 44  1  0  0  0
 44112  1  0  0  0
 45 46  2  0  0  0
 45113  1  0  0  0
 46114  1  0  0  0
 47115  1  0  0  0
 47116  1  0  0  0
 48 56  1  0  0  0
 48 65  1  0  0  0
 48117  1  0  0  0
 49 50  1  0  0  0
 49 53  1  0  0  0
 49 64  1  0  0  0
 49118  1  0  0  0
 50 51  1  0  0  0
 50119  1  0  0  0
 50120  1  0  0  0
 51 52  1  0  0  0
 51121  1  0  0  0
 51122  1  0  0  0
 52123  1  0  0  0
 52124  1  0  0  0
 53 54  1  0  0  0
 54 55  2  0  0  0
 54125  1  0  0  0
 55 57  1  0  0  0
 55126  1  0  0  0
 56 69  2  0  0  0
 57 58  2  0  0  0
 57127  1  0  0  0
 58128  1  0  0  0
 59 60  1  0  0  0
 59 61  1  0  0  0
 59 62  1  0  0  0
 60129  1  0  0  0
 60130  1  0  0  0
 60131  1  0  0  0
 61132  1  0  0  0
 61133  1  0  0  0
 61134  1  0  0  0
 62135  1  0  0  0
 62136  1  0  0  0
 62137  1  0  0  0
 63 65  1  0  0  0
 63138  1  0  0  0
 63139  1  0  0  0
 63140  1  0  0  0
 64141  1  0  0  0
 65142  1  0  0  0
 68 75  1  0  0  0
 71 74  1  0  0  0
 71 78  2  0  0  0
 71 82  1  0  0  0
 72 78  1  0  0  0
 72 79  2  0  0  0
 72 80  1  0  0  0
 73143  1  0  0  0
 73144  1  0  0  0
 73145  1  0  0  0
 73 76  1  0  0  0
 74 81  1  0  0  0
 74146  1  0  0  0
 74147  1  0  0  0
 75 77  1  0  0  0
 75148  1  0  0  0
 75149  1  0  0  0
 76 77  1  0  0  0
 76 80  1  0  0  0
 76150  1  0  0  0
 77 83  1  0  0  0
 77151  1  0  0  0
 79 82  1  0  0  0
 80152  1  0  0  0
 81153  1  0  0  0
 83154  1  0  0  0
M  ISO  4   1 100  68 101  75 101  81 100
M  END
> <chiral flag>
0

> <version>
0

> <s_m_source_file>
/data/baiqing/PycharmProjects/Reinvent-master-3.2/result/LINK_invent/BTK/process_docking_weight1_custom_product_contain_oxygen_bond_distance_aromatic_linkinvent_7_9_3/rearranged_h_0196.sdf

> <i_m_source_file_index>
6

> <r_mmod_Potential_Energy-OPLS-2005>
-304.627349853516

> <r_mmod_Stretch_Energy-OPLS-2005>
55.0351982116699

> <r_mmod_Bend_Energy-OPLS-2005>
137.647277832031

> <r_mmod_Torsional_Energy-OPLS-2005>
243.634231567383

> <r_mmod_Improper_Torsional_Energy-OPLS-2005>
6.78034925460815

> <r_mmod_Van_der_Waal_Energy-OPLS-2005>
125.251029968262

> <r_mmod_Electrostatic_Energy-OPLS-2005>
-660.171447753906

> <r_mmod_Solvation_Energy-OPLS-2005>
-243.763610839844

> <b_mmod_Minimization_Converged-OPLS-2005>
0

> <r_mmod_RMS_Derivative-OPLS-2005>
2.25120067596436

$$$$
6
                    3D
 Structure written by MMmdl.
148156  0  0  1  0            999 V2000
  -30.5901  -14.6670   20.5481 C   0  0  0  0  0  0
  -30.4512  -12.4236   19.4429 C   0  0  0  0  0  0
  -29.5099  -12.5299   18.2214 C   0  0  0  0  0  0
  -28.0338  -12.3532   18.6347 C   0  0  0  0  0  0
  -27.6580  -13.2120   19.8710 C   0  0  2  0  0  0
  -28.7067  -13.0354   20.9919 C   0  0  0  0  0  0
  -25.2596  -13.8148   20.5712 C   0  0  0  0  0  0
  -24.1849  -13.0419   20.9182 C   0  0  0  0  0  0
  -24.6397  -11.6891   20.8721 C   0  0  0  0  0  0
  -23.9051  -10.4281   21.0400 C   0  0  0  0  0  0
  -24.3604   -9.4195   21.9180 C   0  0  0  0  0  0
  -23.6275   -8.2235   22.0758 C   0  0  0  0  0  0
  -22.4258   -8.0275   21.3548 C   0  0  0  0  0  0
  -21.9899   -9.0246   20.4643 C   0  0  0  0  0  0
  -22.7228  -10.2123   20.3043 C   0  0  0  0  0  0
  -21.6843   -6.0726   22.5277 C   0  0  0  0  0  0
  -21.4013   -6.5639   23.8212 C   0  0  0  0  0  0
  -21.3659   -5.6796   24.9177 C   0  0  0  0  0  0
  -21.6041   -4.3059   24.7225 C   0  0  0  0  0  0
  -21.8823   -3.8141   23.4349 C   0  0  0  0  0  0
  -21.9196   -4.6954   22.3402 C   0  0  0  0  0  0
  -22.7877  -13.5219   21.1858 C   0  0  0  0  0  0
  -22.1678   -4.2140   21.0980 F   0  0  0  0  0  0
  -21.5614   -3.4547   25.7736 F   0  0  0  0  0  0
  -30.0121  -13.4236   20.4380 N   0  0  0  0  0  0
  -26.3022  -12.9322   20.3356 N   0  0  0  0  0  0
  -25.9330  -11.6477   20.5749 N   0  0  0  0  0  0
  -22.0515  -12.8193   22.0397 N   0  0  0  0  0  0
  -25.4296  -15.1875   20.4170 N   0  0  0  0  0  0
  -31.7190  -14.8641   20.0834 O   0  0  0  0  0  0
  -21.6624   -6.8869   21.4242 O   0  0  0  0  0  0
  -22.3571  -14.5527   20.6716 O   0  0  0  0  0  0
  -24.6260  -31.8584   23.1996 C   0  0  0  0  0  0
  -25.9100  -32.4772   23.8337 C   0  0  1  0  0  0
  -27.2352  -27.3031   20.1087 C   0  0  0  0  0  0
  -25.5901  -33.8570   24.2264 N   0  0  0  0  0  0
  -23.4203  -30.4791   21.5440 C   0  0  2  0  0  0
  -24.8665  -28.9261   20.1128 C   0  0  0  0  0  0
  -22.7474  -29.4619   22.4958 C   0  0  0  0  0  0
  -18.0281  -28.1389   22.8492 C   0  0  0  0  0  0
  -24.1484  -36.7305   23.2637 C   0  0  0  0  0  0
  -25.9607  -30.7840   21.3690 C   0  0  0  0  0  0
  -26.0352  -29.4064   20.7156 C   0  0  0  0  0  0
  -27.2159  -28.6059   20.7039 C   0  0  0  0  0  0
  -26.0356  -26.8700   19.4966 C   0  0  0  0  0  0
  -24.8698  -27.6638   19.4972 C   0  0  0  0  0  0
  -23.6336  -29.8071   20.1615 C   0  0  0  0  0  0
  -25.4105  -36.3084   24.0328 C   0  0  1  0  0  0
  -20.5876  -28.3688   23.1300 C   0  0  2  0  0  0
  -20.6764  -26.9413   22.5422 C   0  0  0  0  0  0
  -19.5742  -26.6393   21.5220 C   0  0  0  0  0  0
  -18.1921  -26.7930   22.1634 C   0  0  0  0  0  0
  -19.1531  -28.8855   23.2894 C   0  0  0  0  0  0
  -18.9450  -30.1458   23.8906 C   0  0  0  0  0  0
  -17.6446  -30.6589   24.0564 C   0  0  0  0  0  0
  -25.9051  -34.9453   23.5112 C   0  0  0  0  0  0
  -16.5342  -29.9085   23.6324 C   0  0  0  0  0  0
  -16.7267  -28.6508   23.0341 C   0  0  0  0  0  0
  -26.4467  -31.6567   25.0710 C   0  0  0  0  0  0
  -25.3685  -31.3700   26.1425 C   0  0  0  0  0  0
  -27.0287  -30.2983   24.6163 C   0  0  0  0  0  0
  -27.6033  -32.4275   25.7491 C   0  0  0  0  0  0
  -27.5575  -37.1804   24.8462 C   0  0  0  0  0  0
  -21.4187  -29.3050   22.3707 N   0  0  0  0  0  0
  -26.4282  -37.3780   23.9410 N   0  0  0  0  0  0
  -24.6885  -31.0577   22.0952 N   0  0  0  0  0  0
  -23.4193  -28.8166   23.3049 O   0  0  0  0  0  0
  -28.3888  -26.4964   20.1674 O   0  0  0  0  0  0
  -26.5650  -34.8927   22.4697 O   0  0  0  0  0  0
  -23.5422  -32.1395   23.7317 O   0  0  0  0  0  0
  -30.2870  -17.9681   19.5659 C   0  0  0  0  0  0
  -29.8632  -17.3683   20.7390 C   0  0  0  0  0  0
  -29.4652  -19.9156   20.5542 C   0  0  0  0  0  0
  -29.1239  -22.4482   19.9601 C   0  0  0  0  0  0
  -29.8032  -15.8789   21.2224 C   0  0  0  0  0  0
  -28.6845  -23.8562   20.5660 C   0  0  0  0  0  0
  -28.5002  -25.1226   19.5979 C   0  0  0  0  0  0
  -30.0625  -19.3771   19.4739 N   0  0  0  0  0  0
  -29.1036  -21.3270   20.7591 N   0  0  0  0  0  0
  -29.4825  -22.4006   18.7810 O   0  0  0  0  0  0
  -29.1767  -18.6430   21.7734 S   0  0  0  0  0  0
  -31.4873  -12.5761   19.1342 H   0  0  0  0  0  0
  -30.4168  -11.4216   19.8725 H   0  0  0  0  0  0
  -29.7795  -11.7876   17.4694 H   0  0  0  0  0  0
  -29.6392  -13.5054   17.7491 H   0  0  0  0  0  0
  -27.8754  -11.2979   18.8587 H   0  0  0  0  0  0
  -27.3768  -12.5883   17.7964 H   0  0  0  0  0  0
  -27.6830  -14.2515   19.5451 H   0  0  0  0  0  0
  -28.7354  -11.9955   21.3207 H   0  0  0  0  0  0
  -28.4450  -13.6074   21.8827 H   0  0  0  0  0  0
  -25.2762   -9.5658   22.4742 H   0  0  0  0  0  0
  -23.9981   -7.4620   22.7482 H   0  0  0  0  0  0
  -21.0836   -8.8766   19.8941 H   0  0  0  0  0  0
  -22.3710  -10.9657   19.6133 H   0  0  0  0  0  0
  -21.2017   -7.6149   23.9709 H   0  0  0  0  0  0
  -21.1479   -6.0529   25.9076 H   0  0  0  0  0  0
  -22.0602   -2.7600   23.2851 H   0  0  0  0  0  0
  -22.4164  -11.9842   22.4742 H   0  0  0  0  0  0
  -21.1131  -13.1209   22.2620 H   0  0  0  0  0  0
  -24.6592  -15.8379   20.5245 H   0  0  0  0  0  0
  -26.2812  -15.6314   20.0969 H   0  0  0  0  0  0
  -26.7169  -32.5439   23.1088 H   0  0  0  0  0  0
  -24.9941  -33.9703   25.0332 H   0  0  0  0  0  0
  -22.7148  -31.2999   21.3990 H   0  0  0  0  0  0
  -23.3741  -35.9644   23.3289 H   0  0  0  0  0  0
  -24.3569  -36.8939   22.2055 H   0  0  0  0  0  0
  -23.7243  -37.6504   23.6667 H   0  0  0  0  0  0
  -26.0851  -31.5419   20.5935 H   0  0  0  0  0  0
  -26.8435  -30.8422   21.9937 H   0  0  0  0  0  0
  -28.1138  -28.9748   21.1807 H   0  0  0  0  0  0
  -25.9507  -25.9042   19.0282 H   0  0  0  0  0  0
  -23.9706  -27.2870   19.0300 H   0  0  0  0  0  0
  -23.7509  -30.5802   19.4020 H   0  0  0  0  0  0
  -22.7537  -29.2341   19.8638 H   0  0  0  0  0  0
  -25.1280  -36.1930   25.0819 H   0  0  0  0  0  0
  -20.9964  -28.3257   24.1425 H   0  0  0  0  0  0
  -20.5648  -26.2304   23.3627 H   0  0  0  0  0  0
  -21.6635  -26.7440   22.1226 H   0  0  0  0  0  0
  -19.6904  -25.6308   21.1244 H   0  0  0  0  0  0
  -19.6665  -27.3212   20.6755 H   0  0  0  0  0  0
  -17.4189  -26.6671   21.4045 H   0  0  0  0  0  0
  -18.0328  -26.0076   22.9037 H   0  0  0  0  0  0
  -19.7921  -30.7279   24.2285 H   0  0  0  0  0  0
  -17.4996  -31.6267   24.5170 H   0  0  0  0  0  0
  -15.5340  -30.2986   23.7646 H   0  0  0  0  0  0
  -15.8670  -28.0835   22.7035 H   0  0  0  0  0  0
  -24.5907  -30.6994   25.7751 H   0  0  0  0  0  0
  -24.8810  -32.2859   26.4790 H   0  0  0  0  0  0
  -25.7997  -30.8935   27.0243 H   0  0  0  0  0  0
  -26.2865  -29.6764   24.1155 H   0  0  0  0  0  0
  -27.3935  -29.7201   25.4660 H   0  0  0  0  0  0
  -27.8750  -30.4248   23.9411 H   0  0  0  0  0  0
  -27.2666  -33.3590   26.2054 H   0  0  0  0  0  0
  -28.3860  -32.6796   25.0325 H   0  0  0  0  0  0
  -28.0680  -31.8397   26.5421 H   0  0  0  0  0  0
  -28.2585  -38.0108   24.7513 H   0  0  0  0  0  0
  -28.1080  -36.2641   24.6272 H   0  0  0  0  0  0
  -27.2308  -37.1437   25.8871 H   0  0  0  0  0  0
  -20.9370  -29.8771   21.6910 H   0  0  0  0  0  0
  -26.0165  -38.2858   24.1403 H   0  0  0  0  0  0
  -30.7357  -17.4627   18.7213 H   0  0  0  0  0  0
  -28.7444  -15.6344   21.2190 H   0  0  0  0  0  0
  -30.0871  -15.8566   22.2749 H   0  0  0  0  0  0
  -29.4389  -24.1137   21.3092 H   0  0  0  0  0  0
  -27.7588  -23.7084   21.1205 H   0  0  0  0  0  0
  -27.7213  -24.9008   18.8742 H   0  0  0  0  0  0
  -29.4002  -25.1696   18.9835 H   0  0  0  0  0  0
  -28.7566  -21.5090   21.6903 H   0  0  0  0  0  0
  1 25  1  0  0  0
  1 30  2  0  0  0
  1 75  1  0  0  0
  2  3  1  0  0  0
  2 25  1  0  0  0
  2 82  1  0  0  0
  2 83  1  0  0  0
  3  4  1  0  0  0
  3 84  1  0  0  0
  3 85  1  0  0  0
  4  5  1  0  0  0
  4 86  1  0  0  0
  4 87  1  0  0  0
  5  6  1  0  0  0
  5 26  1  0  0  0
  5 88  1  0  0  0
  6 25  1  0  0  0
  6 89  1  0  0  0
  6 90  1  0  0  0
  7  8  2  0  0  0
  7 26  1  0  0  0
  7 29  1  0  0  0
  8  9  1  0  0  0
  8 22  1  0  0  0
  9 10  1  0  0  0
  9 27  2  0  0  0
 10 11  2  0  0  0
 10 15  1  0  0  0
 11 12  1  0  0  0
 11 91  1  0  0  0
 12 13  2  0  0  0
 12 92  1  0  0  0
 13 14  1  0  0  0
 13 31  1  0  0  0
 14 15  2  0  0  0
 14 93  1  0  0  0
 15 94  1  0  0  0
 16 17  2  0  0  0
 16 21  1  0  0  0
 16 31  1  0  0  0
 17 18  1  0  0  0
 17 95  1  0  0  0
 18 19  2  0  0  0
 18 96  1  0  0  0
 19 20  1  0  0  0
 19 24  1  0  0  0
 20 21  2  0  0  0
 20 97  1  0  0  0
 21 23  1  0  0  0
 22 28  1  0  0  0
 22 32  2  0  0  0
 26 27  1  0  0  0
 28 98  1  0  0  0
 28 99  1  0  0  0
 29100  1  0  0  0
 29101  1  0  0  0
 33 34  1  0  0  0
 33 66  1  0  0  0
 33 70  2  0  0  0
 34 36  1  0  0  0
 34 59  1  0  0  0
 34102  1  0  0  0
 35 44  2  0  0  0
 35 45  1  0  0  0
 35 68  1  0  0  0
 36 56  1  0  0  0
 36103  1  0  0  0
 37 39  1  0  0  0
 37 47  1  0  0  0
 37 66  1  0  0  0
 37104  1  0  0  0
 38 43  2  0  0  0
 38 46  1  0  0  0
 38 47  1  0  0  0
 39 64  1  0  0  0
 39 67  2  0  0  0
 40 52  1  0  0  0
 40 53  2  0  0  0
 40 58  1  0  0  0
 41105  1  0  0  0
 41106  1  0  0  0
 41107  1  0  0  0
 41 48  1  0  0  0
 42 43  1  0  0  0
 42 66  1  0  0  0
 42108  1  0  0  0
 42109  1  0  0  0
 43 44  1  0  0  0
 44110  1  0  0  0
 45 46  2  0  0  0
 45111  1  0  0  0
 46112  1  0  0  0
 47113  1  0  0  0
 47114  1  0  0  0
 48 56  1  0  0  0
 48 65  1  0  0  0
 48115  1  0  0  0
 49 50  1  0  0  0
 49 53  1  0  0  0
 49 64  1  0  0  0
 49116  1  0  0  0
 50 51  1  0  0  0
 50117  1  0  0  0
 50118  1  0  0  0
 51 52  1  0  0  0
 51119  1  0  0  0
 51120  1  0  0  0
 52121  1  0  0  0
 52122  1  0  0  0
 53 54  1  0  0  0
 54 55  2  0  0  0
 54123  1  0  0  0
 55 57  1  0  0  0
 55124  1  0  0  0
 56 69  2  0  0  0
 57 58  2  0  0  0
 57125  1  0  0  0
 58126  1  0  0  0
 59 60  1  0  0  0
 59 61  1  0  0  0
 59 62  1  0  0  0
 60127  1  0  0  0
 60128  1  0  0  0
 60129  1  0  0  0
 61130  1  0  0  0
 61131  1  0  0  0
 61132  1  0  0  0
 62133  1  0  0  0
 62134  1  0  0  0
 62135  1  0  0  0
 63 65  1  0  0  0
 63136  1  0  0  0
 63137  1  0  0  0
 63138  1  0  0  0
 64139  1  0  0  0
 65140  1  0  0  0
 68 77  1  0  0  0
 71 72  2  0  0  0
 71 78  1  0  0  0
 71141  1  0  0  0
 72 75  1  0  0  0
 72 81  1  0  0  0
 73 78  2  0  0  0
 73 79  1  0  0  0
 73 81  1  0  0  0
 74 76  1  0  0  0
 74 79  1  0  0  0
 74 80  2  0  0  0
 75142  1  0  0  0
 75143  1  0  0  0
 76 77  1  0  0  0
 76144  1  0  0  0
 76145  1  0  0  0
 77146  1  0  0  0
 77147  1  0  0  0
 79148  1  0  0  0
M  ISO  4   1 100  68 101  75 100  77 101
M  END
> <chiral flag>
0

> <version>
0

> <s_m_source_file>
/data/baiqing/PycharmProjects/Reinvent-master-3.2/result/LINK_invent/BTK/process_docking_weight1_custom_product_contain_oxygen_bond_distance_aromatic_linkinvent_7_9_3/rearranged_h_0196.sdf

> <i_m_source_file_index>
7

> <r_mmod_Potential_Energy-OPLS-2005>
-2.23804187774658

> <r_mmod_Stretch_Energy-OPLS-2005>
91.9024429321289

> <r_mmod_Bend_Energy-OPLS-2005>
177.044326782227

> <r_mmod_Torsional_Energy-OPLS-2005>
162.221710205078

> <r_mmod_Improper_Torsional_Energy-OPLS-2005>
2.23497295379639

> <r_mmod_Van_der_Waal_Energy-OPLS-2005>
118.713607788086

> <r_mmod_Electrostatic_Energy-OPLS-2005>
-361.919738769531

> <r_mmod_Solvation_Energy-OPLS-2005>
-245.112289428711

> <b_mmod_Minimization_Converged-OPLS-2005>
0

> <r_mmod_RMS_Derivative-OPLS-2005>
1.73667824268341

$$$$
7
                    3D
 Structure written by MMmdl.
152160  0  0  1  0            999 V2000
  -30.5421  -14.7911   20.4805 C   0  0  0  0  0  0
  -30.4502  -12.4820   19.5052 C   0  0  0  0  0  0
  -29.5327  -12.5271   18.2593 C   0  0  0  0  0  0
  -28.0540  -12.3255   18.6554 C   0  0  0  0  0  0
  -27.6390  -13.2224   19.8526 C   0  0  2  0  0  0
  -28.6778  -13.1417   20.9961 C   0  0  0  0  0  0
  -25.2477  -13.8144   20.5653 C   0  0  0  0  0  0
  -24.1759  -13.0407   20.9166 C   0  0  0  0  0  0
  -24.6350  -11.6895   20.8726 C   0  0  0  0  0  0
  -23.9024  -10.4276   21.0403 C   0  0  0  0  0  0
  -24.3568   -9.4180   21.9178 C   0  0  0  0  0  0
  -23.6240   -8.2208   22.0746 C   0  0  0  0  0  0
  -22.4223   -8.0262   21.3527 C   0  0  0  0  0  0
  -21.9858   -9.0241   20.4622 C   0  0  0  0  0  0
  -22.7195  -10.2122   20.3046 C   0  0  0  0  0  0
  -21.6839   -6.0693   22.5278 C   0  0  0  0  0  0
  -21.4013   -6.5606   23.8208 C   0  0  0  0  0  0
  -21.3669   -5.6769   24.9167 C   0  0  0  0  0  0
  -21.6040   -4.3031   24.7221 C   0  0  0  0  0  0
  -21.8820   -3.8110   23.4348 C   0  0  0  0  0  0
  -21.9175   -4.6917   22.3401 C   0  0  0  0  0  0
  -22.7798  -13.5208   21.1834 C   0  0  0  0  0  0
  -22.1653   -4.2091   21.0977 F   0  0  0  0  0  0
  -21.5632   -3.4535   25.7744 F   0  0  0  0  0  0
  -29.9784  -13.5308   20.4354 N   0  0  0  0  0  0
  -26.2893  -12.9335   20.3228 N   0  0  0  0  0  0
  -25.9275  -11.6483   20.5702 N   0  0  0  0  0  0
  -22.0452  -12.8246   22.0413 N   0  0  0  0  0  0
  -25.4163  -15.1879   20.4123 N   0  0  0  0  0  0
  -31.7235  -14.9417   20.1516 O   0  0  0  0  0  0
  -21.6612   -6.8835   21.4227 O   0  0  0  0  0  0
  -22.3505  -14.5517   20.6680 O   0  0  0  0  0  0
  -24.6352  -31.8524   23.1960 C   0  0  0  0  0  0
  -25.9175  -32.4732   23.8288 C   0  0  1  0  0  0
  -27.2072  -27.2400   20.1292 C   0  0  0  0  0  0
  -25.5934  -33.8532   24.2212 N   0  0  0  0  0  0
  -23.4278  -30.4766   21.5417 C   0  0  2  0  0  0
  -24.8718  -28.9110   20.1164 C   0  0  0  0  0  0
  -22.7489  -29.4579   22.4897 C   0  0  0  0  0  0
  -18.0299  -28.1337   22.8513 C   0  0  0  0  0  0
  -24.1494  -36.7280   23.2638 C   0  0  0  0  0  0
  -25.9765  -30.7613   21.3719 C   0  0  0  0  0  0
  -26.0471  -29.3779   20.7221 C   0  0  0  0  0  0
  -27.2203  -28.5556   20.7143 C   0  0  0  0  0  0
  -26.0129  -26.8422   19.4981 C   0  0  0  0  0  0
  -24.8584  -27.6505   19.4994 C   0  0  0  0  0  0
  -23.6483  -29.8076   20.1594 C   0  0  0  0  0  0
  -25.4119  -36.3067   24.0318 C   0  0  1  0  0  0
  -20.5896  -28.3711   23.1267 C   0  0  2  0  0  0
  -20.6798  -26.9418   22.5451 C   0  0  0  0  0  0
  -19.5773  -26.6327   21.5284 C   0  0  0  0  0  0
  -18.1965  -26.7864   22.1719 C   0  0  0  0  0  0
  -19.1552  -28.8858   23.2850 C   0  0  0  0  0  0
  -18.9452  -30.1481   23.8780 C   0  0  0  0  0  0
  -17.6447  -30.6584   24.0471 C   0  0  0  0  0  0
  -25.9075  -34.9428   23.5076 C   0  0  0  0  0  0
  -16.5355  -29.9029   23.6344 C   0  0  0  0  0  0
  -16.7285  -28.6428   23.0385 C   0  0  0  0  0  0
  -26.4515  -31.6578   25.0695 C   0  0  0  0  0  0
  -25.3705  -31.3752   26.1399 C   0  0  0  0  0  0
  -27.0367  -30.3000   24.6202 C   0  0  0  0  0  0
  -27.6063  -32.4305   25.7474 C   0  0  0  0  0  0
  -27.5567  -37.1801   24.8469 C   0  0  0  0  0  0
  -21.4216  -29.3044   22.3661 N   0  0  0  0  0  0
  -26.4289  -37.3766   23.9406 N   0  0  0  0  0  0
  -24.7011  -31.0487   22.0930 N   0  0  0  0  0  0
  -23.4206  -28.8133   23.2996 O   0  0  0  0  0  0
  -28.3163  -26.3662   20.0849 O   0  0  0  0  0  0
  -26.5651  -34.8923   22.4645 O   0  0  0  0  0  0
  -23.5505  -32.1360   23.7283 O   0  0  0  0  0  0
  -30.9575  -18.1309   20.5621 C   0  0  0  0  0  0
  -29.7747  -17.3431   20.6236 C   0  0  0  0  0  0
  -29.0225  -22.2326   20.0609 C   0  0  0  0  0  0
  -28.4870  -20.7930   20.6259 C   0  0  0  0  0  0
  -28.2698  -24.9705   20.6694 C   0  0  0  0  0  0
  -28.0724  -23.5727   19.8427 C   0  0  2  0  0  0
  -30.6755  -19.4297   20.5418 N   0  0  0  0  0  0
  -28.7505  -18.2060   20.6382 N   0  0  0  0  0  0
  -29.3079  -19.4914   20.5573 N   0  0  0  0  0  0
  -29.6717  -15.8579   20.7094 N   0  0  0  0  0  0
  -26.6363  -23.1950   19.8718 N   0  3  0  0  0  0
  -31.4912  -12.6412   19.2206 H   0  0  0  0  0  0
  -30.4164  -11.5061   19.9968 H   0  0  0  0  0  0
  -29.8452  -11.7722   17.5358 H   0  0  0  0  0  0
  -29.6454  -13.4930   17.7629 H   0  0  0  0  0  0
  -27.9266  -11.2767   18.9299 H   0  0  0  0  0  0
  -27.4054  -12.5072   17.7942 H   0  0  0  0  0  0
  -27.6267  -14.2408   19.4666 H   0  0  0  0  0  0
  -28.7243  -12.1250   21.3925 H   0  0  0  0  0  0
  -28.3941  -13.7832   21.8308 H   0  0  0  0  0  0
  -25.2703   -9.5646   22.4759 H   0  0  0  0  0  0
  -23.9925   -7.4588   22.7493 H   0  0  0  0  0  0
  -21.0768   -8.8766   19.8934 H   0  0  0  0  0  0
  -22.3650  -10.9656   19.6157 H   0  0  0  0  0  0
  -21.2037   -7.6123   23.9691 H   0  0  0  0  0  0
  -21.1495   -6.0513   25.9067 H   0  0  0  0  0  0
  -22.0591   -2.7571   23.2889 H   0  0  0  0  0  0
  -22.4067  -11.9883   22.4760 H   0  0  0  0  0  0
  -21.1084  -13.1324   22.2635 H   0  0  0  0  0  0
  -24.6508  -15.8405   20.5386 H   0  0  0  0  0  0
  -26.2635  -15.6381   20.0941 H   0  0  0  0  0  0
  -26.7238  -32.5409   23.1014 H   0  0  0  0  0  0
  -25.0070  -33.9647   25.0361 H   0  0  0  0  0  0
  -22.7302  -31.3021   21.3930 H   0  0  0  0  0  0
  -23.3756  -35.9614   23.3304 H   0  0  0  0  0  0
  -24.3583  -36.8903   22.2057 H   0  0  0  0  0  0
  -23.7283  -37.6487   23.6667 H   0  0  0  0  0  0
  -26.1136  -31.5160   20.5957 H   0  0  0  0  0  0
  -26.8550  -30.8157   22.0039 H   0  0  0  0  0  0
  -28.1281  -28.9097   21.1843 H   0  0  0  0  0  0
  -25.9711  -25.8925   18.9853 H   0  0  0  0  0  0
  -23.9553  -27.2958   19.0192 H   0  0  0  0  0  0
  -23.7786  -30.5812   19.4021 H   0  0  0  0  0  0
  -22.7646  -29.2431   19.8532 H   0  0  0  0  0  0
  -25.1308  -36.1861   25.0804 H   0  0  0  0  0  0
  -21.0019  -28.3296   24.1373 H   0  0  0  0  0  0
  -21.6662  -26.7459   22.1214 H   0  0  0  0  0  0
  -20.5757  -26.2330   23.3683 H   0  0  0  0  0  0
  -19.6940  -25.6215   21.1388 H   0  0  0  0  0  0
  -19.6678  -27.3094   20.6783 H   0  0  0  0  0  0
  -17.4206  -26.6498   21.4183 H   0  0  0  0  0  0
  -18.0420  -26.0045   22.9163 H   0  0  0  0  0  0
  -19.7930  -30.7351   24.2048 H   0  0  0  0  0  0
  -17.5024  -31.6311   24.4933 H   0  0  0  0  0  0
  -15.5357  -30.2902   23.7667 H   0  0  0  0  0  0
  -15.8685  -28.0687   22.7150 H   0  0  0  0  0  0
  -24.5887  -30.7100   25.7710 H   0  0  0  0  0  0
  -24.8896  -32.2936   26.4770 H   0  0  0  0  0  0
  -25.7979  -30.8962   27.0220 H   0  0  0  0  0  0
  -26.2965  -29.6736   24.1224 H   0  0  0  0  0  0
  -27.4052  -29.7274   25.4725 H   0  0  0  0  0  0
  -27.8828  -30.4277   23.9452 H   0  0  0  0  0  0
  -27.2679  -33.3609   26.2048 H   0  0  0  0  0  0
  -28.3883  -32.6849   25.0302 H   0  0  0  0  0  0
  -28.0723  -31.8432   26.5407 H   0  0  0  0  0  0
  -28.2592  -38.0084   24.7482 H   0  0  0  0  0  0
  -28.1053  -36.2620   24.6319 H   0  0  0  0  0  0
  -27.2292  -37.1478   25.8874 H   0  0  0  0  0  0
  -20.9418  -29.8766   21.6862 H   0  0  0  0  0  0
  -26.0158  -38.2828   24.1402 H   0  0  0  0  0  0
  -31.9817  -17.7807   20.5574 H   0  0  0  0  0  0
  -29.4091  -21.9939   19.0682 H   0  0  0  0  0  0
  -29.9192  -22.5176   20.6116 H   0  0  0  0  0  0
  -27.5634  -20.5608   20.0966 H   0  0  0  0  0  0
  -28.1971  -20.9335   21.6700 H   0  0  0  0  0  0
  -27.5461  -24.9909   21.4844 H   0  0  0  0  0  0
  -29.2242  -24.8721   21.1857 H   0  0  0  0  0  0
  -28.2543  -23.8685   18.8048 H   0  0  0  0  0  0
  -28.7389  -15.5409   20.9186 H   0  0  0  0  0  0
  -26.3731  -22.8201   20.7681 H   0  0  0  0  0  0
  -26.4144  -22.5178   19.1608 H   0  0  0  0  0  0
  -26.0496  -23.9944   19.7075 H   0  0  0  0  0  0
  1 25  1  0  0  0
  1 30  2  0  0  0
  1 80  1  0  0  0
  2  3  1  0  0  0
  2 25  1  0  0  0
  2 82  1  0  0  0
  2 83  1  0  0  0
  3  4  1  0  0  0
  3 84  1  0  0  0
  3 85  1  0  0  0
  4  5  1  0  0  0
  4 86  1  0  0  0
  4 87  1  0  0  0
  5  6  1  0  0  0
  5 26  1  0  0  0
  5 88  1  0  0  0
  6 25  1  0  0  0
  6 89  1  0  0  0
  6 90  1  0  0  0
  7  8  2  0  0  0
  7 26  1  0  0  0
  7 29  1  0  0  0
  8  9  1  0  0  0
  8 22  1  0  0  0
  9 10  1  0  0  0
  9 27  2  0  0  0
 10 11  2  0  0  0
 10 15  1  0  0  0
 11 12  1  0  0  0
 11 91  1  0  0  0
 12 13  2  0  0  0
 12 92  1  0  0  0
 13 14  1  0  0  0
 13 31  1  0  0  0
 14 15  2  0  0  0
 14 93  1  0  0  0
 15 94  1  0  0  0
 16 17  2  0  0  0
 16 21  1  0  0  0
 16 31  1  0  0  0
 17 18  1  0  0  0
 17 95  1  0  0  0
 18 19  2  0  0  0
 18 96  1  0  0  0
 19 20  1  0  0  0
 19 24  1  0  0  0
 20 21  2  0  0  0
 20 97  1  0  0  0
 21 23  1  0  0  0
 22 28  1  0  0  0
 22 32  2  0  0  0
 26 27  1  0  0  0
 28 98  1  0  0  0
 28 99  1  0  0  0
 29100  1  0  0  0
 29101  1  0  0  0
 33 34  1  0  0  0
 33 66  1  0  0  0
 33 70  2  0  0  0
 34 36  1  0  0  0
 34 59  1  0  0  0
 34102  1  0  0  0
 35 44  2  0  0  0
 35 45  1  0  0  0
 35 68  1  0  0  0
 36 56  1  0  0  0
 36103  1  0  0  0
 37 39  1  0  0  0
 37 47  1  0  0  0
 37 66  1  0  0  0
 37104  1  0  0  0
 38 43  2  0  0  0
 38 46  1  0  0  0
 38 47  1  0  0  0
 39 64  1  0  0  0
 39 67  2  0  0  0
 40 52  1  0  0  0
 40 53  2  0  0  0
 40 58  1  0  0  0
 41105  1  0  0  0
 41106  1  0  0  0
 41107  1  0  0  0
 41 48  1  0  0  0
 42 43  1  0  0  0
 42 66  1  0  0  0
 42108  1  0  0  0
 42109  1  0  0  0
 43 44  1  0  0  0
 44110  1  0  0  0
 45 46  2  0  0  0
 45111  1  0  0  0
 46112  1  0  0  0
 47113  1  0  0  0
 47114  1  0  0  0
 48 56  1  0  0  0
 48 65  1  0  0  0
 48115  1  0  0  0
 49 50  1  0  0  0
 49 53  1  0  0  0
 49 64  1  0  0  0
 49116  1  0  0  0
 50 51  1  0  0  0
 50117  1  0  0  0
 50118  1  0  0  0
 51 52  1  0  0  0
 51119  1  0  0  0
 51120  1  0  0  0
 52121  1  0  0  0
 52122  1  0  0  0
 53 54  1  0  0  0
 54 55  2  0  0  0
 54123  1  0  0  0
 55 57  1  0  0  0
 55124  1  0  0  0
 56 69  2  0  0  0
 57 58  2  0  0  0
 57125  1  0  0  0
 58126  1  0  0  0
 59 60  1  0  0  0
 59 61  1  0  0  0
 59 62  1  0  0  0
 60127  1  0  0  0
 60128  1  0  0  0
 60129  1  0  0  0
 61130  1  0  0  0
 61131  1  0  0  0
 61132  1  0  0  0
 62133  1  0  0  0
 62134  1  0  0  0
 62135  1  0  0  0
 63 65  1  0  0  0
 63136  1  0  0  0
 63137  1  0  0  0
 63138  1  0  0  0
 64139  1  0  0  0
 65140  1  0  0  0
 68 75  1  0  0  0
 71 72  1  0  0  0
 71 77  2  0  0  0
 71141  1  0  0  0
 72 78  2  0  0  0
 72 80  1  0  0  0
 73 74  1  0  0  0
 73 76  1  0  0  0
 73142  1  0  0  0
 73143  1  0  0  0
 74 79  1  0  0  0
 74144  1  0  0  0
 74145  1  0  0  0
 75 76  1  0  0  0
 75146  1  0  0  0
 75147  1  0  0  0
 76 81  1  0  0  0
 76148  1  0  0  0
 77 79  1  0  0  0
 78 79  1  0  0  0
 80149  1  0  0  0
 81150  1  0  0  0
 81151  1  0  0  0
 81152  1  0  0  0
M  CHG  1  81   1
M  ISO  4   1 100  68 101  75 101  80 100
M  END
> <chiral flag>
0

> <version>
0

> <s_m_source_file>
/data/baiqing/PycharmProjects/Reinvent-master-3.2/result/LINK_invent/BTK/process_docking_weight1_custom_product_contain_oxygen_bond_distance_aromatic_linkinvent_7_9_3/rearranged_h_0196.sdf

> <i_m_source_file_index>
8

> <r_mmod_Potential_Energy-OPLS-2005>
32.2181510925293

> <r_mmod_Stretch_Energy-OPLS-2005>
143.319625854492

> <r_mmod_Bend_Energy-OPLS-2005>
214.230819702148

> <r_mmod_Torsional_Energy-OPLS-2005>
267.77685546875

> <r_mmod_Improper_Torsional_Energy-OPLS-2005>
4.94822692871094

> <r_mmod_Van_der_Waal_Energy-OPLS-2005>
109.094581604004

> <r_mmod_Electrostatic_Energy-OPLS-2005>
-301.091766357422

> <r_mmod_Solvation_Energy-OPLS-2005>
-505.355743408203

> <b_mmod_Minimization_Converged-OPLS-2005>
0

> <r_mmod_RMS_Derivative-OPLS-2005>
5.31048536300659

$$$$
8
                    3D
 Structure written by MMmdl.
154162  0  0  1  0            999 V2000
  -30.6201  -14.6529   20.5124 C   0  0  0  0  0  0
  -30.4430  -12.4028   19.4565 C   0  0  0  0  0  0
  -29.5121  -12.5143   18.2277 C   0  0  0  0  0  0
  -28.0348  -12.3474   18.6366 C   0  0  0  0  0  0
  -27.6544  -13.2170   19.8642 C   0  0  2  0  0  0
  -28.6990  -13.0701   20.9950 C   0  0  0  0  0  0
  -25.2532  -13.8153   20.5607 C   0  0  0  0  0  0
  -24.1824  -13.0429   20.9197 C   0  0  0  0  0  0
  -24.6402  -11.6904   20.8759 C   0  0  0  0  0  0
  -23.9069  -10.4290   21.0419 C   0  0  0  0  0  0
  -24.3618   -9.4203   21.9192 C   0  0  0  0  0  0
  -23.6289   -8.2241   22.0759 C   0  0  0  0  0  0
  -22.4273   -8.0281   21.3547 C   0  0  0  0  0  0
  -21.9908   -9.0258   20.4654 C   0  0  0  0  0  0
  -22.7244  -10.2134   20.3062 C   0  0  0  0  0  0
  -21.6851   -6.0737   22.5278 C   0  0  0  0  0  0
  -21.4016   -6.5638   23.8213 C   0  0  0  0  0  0
  -21.3659   -5.6789   24.9174 C   0  0  0  0  0  0
  -21.6042   -4.3053   24.7225 C   0  0  0  0  0  0
  -21.8818   -3.8148   23.4347 C   0  0  0  0  0  0
  -21.9191   -4.6965   22.3403 C   0  0  0  0  0  0
  -22.7845  -13.5229   21.1848 C   0  0  0  0  0  0
  -22.1659   -4.2152   21.0981 F   0  0  0  0  0  0
  -21.5625   -3.4536   25.7740 F   0  0  0  0  0  0
  -30.0165  -13.4217   20.4377 N   0  0  0  0  0  0
  -26.2986  -12.9347   20.3301 N   0  0  0  0  0  0
  -25.9334  -11.6507   20.5782 N   0  0  0  0  0  0
  -22.0476  -12.8238   22.0409 N   0  0  0  0  0  0
  -25.4165  -15.1854   20.3840 N   0  0  0  0  0  0
  -31.7747  -14.8179   20.1042 O   0  0  0  0  0  0
  -21.6636   -6.8879   21.4240 O   0  0  0  0  0  0
  -22.3540  -14.5533   20.6686 O   0  0  0  0  0  0
  -24.6275  -31.8597   23.2032 C   0  0  0  0  0  0
  -25.9123  -32.4773   23.8360 C   0  0  1  0  0  0
  -27.2212  -27.3127   20.1141 C   0  0  0  0  0  0
  -25.5935  -33.8572   24.2289 N   0  0  0  0  0  0
  -23.4208  -30.4857   21.5464 C   0  0  2  0  0  0
  -24.8658  -28.9434   20.1113 C   0  0  0  0  0  0
  -22.7481  -29.4630   22.4932 C   0  0  0  0  0  0
  -18.0291  -28.1380   22.8484 C   0  0  0  0  0  0
  -24.1489  -36.7300   23.2636 C   0  0  0  0  0  0
  -25.9637  -30.7889   21.3756 C   0  0  0  0  0  0
  -26.0373  -29.4169   20.7158 C   0  0  0  0  0  0
  -27.2186  -28.6145   20.7065 C   0  0  0  0  0  0
  -26.0230  -26.8971   19.4851 C   0  0  0  0  0  0
  -24.8613  -27.6887   19.4872 C   0  0  0  0  0  0
  -23.6349  -29.8245   20.1609 C   0  0  0  0  0  0
  -25.4111  -36.3081   24.0328 C   0  0  1  0  0  0
  -20.5891  -28.3693   23.1274 C   0  0  2  0  0  0
  -20.6781  -26.9412   22.5404 C   0  0  0  0  0  0
  -19.5755  -26.6382   21.5207 C   0  0  0  0  0  0
  -18.1938  -26.7924   22.1622 C   0  0  0  0  0  0
  -19.1542  -28.8854   23.2875 C   0  0  0  0  0  0
  -18.9463  -30.1459   23.8889 C   0  0  0  0  0  0
  -17.6461  -30.6581   24.0566 C   0  0  0  0  0  0
  -25.9049  -34.9448   23.5109 C   0  0  0  0  0  0
  -16.5355  -29.9079   23.6326 C   0  0  0  0  0  0
  -16.7278  -28.6496   23.0347 C   0  0  0  0  0  0
  -26.4502  -31.6576   25.0729 C   0  0  0  0  0  0
  -25.3740  -31.3714   26.1463 C   0  0  0  0  0  0
  -27.0339  -30.2996   24.6185 C   0  0  0  0  0  0
  -27.6073  -32.4300   25.7495 C   0  0  0  0  0  0
  -27.5580  -37.1800   24.8459 C   0  0  0  0  0  0
  -21.4192  -29.3049   22.3669 N   0  0  0  0  0  0
  -26.4290  -37.3776   23.9405 N   0  0  0  0  0  0
  -24.6897  -31.0610   22.0985 N   0  0  0  0  0  0
  -23.4199  -28.8161   23.3010 O   0  0  0  0  0  0
  -28.3312  -26.4479   20.1610 O   0  0  0  0  0  0
  -26.5615  -34.8914   22.4673 O   0  0  0  0  0  0
  -23.5436  -32.1397   23.7359 O   0  0  0  0  0  0
  -28.7239  -19.2990   21.1808 C   0  0  0  0  0  0
  -28.7680  -17.8813   21.3423 C   0  0  0  0  0  0
  -29.7769  -19.9497   20.5011 C   0  0  0  0  0  0
  -29.8558  -17.1310   20.7928 C   0  0  0  0  0  0
  -27.6493  -17.2167   22.1318 C   0  0  0  0  0  0
  -28.7800  -22.3700   20.3784 C   0  0  0  0  0  0
  -28.0505  -24.9871   20.1594 C   0  0  0  0  0  0
  -29.2090  -23.9165   20.3988 C   0  0  1  0  0  0
  -30.7970  -19.1864   20.0133 N   0  0  0  0  0  0
  -30.8311  -17.8363   20.1428 N   0  0  0  0  0  0
  -29.8210  -15.6780   20.9454 N   0  0  0  0  0  0
  -29.8876  -21.3639   20.3204 N   0  0  0  0  0  0
  -29.7205  -24.1431   21.6991 O   0  0  0  0  0  0
  -31.4838  -12.5308   19.1539 H   0  0  0  0  0  0
  -30.3826  -11.4063   19.8971 H   0  0  0  0  0  0
  -29.7807  -11.7645   17.4822 H   0  0  0  0  0  0
  -29.6532  -13.4845   17.7491 H   0  0  0  0  0  0
  -27.8739  -11.2937   18.8688 H   0  0  0  0  0  0
  -27.3818  -12.5761   17.7936 H   0  0  0  0  0  0
  -27.6732  -14.2527   19.5248 H   0  0  0  0  0  0
  -28.7140  -12.0457   21.3696 H   0  0  0  0  0  0
  -28.4377  -13.6908   21.8531 H   0  0  0  0  0  0
  -25.2763   -9.5679   22.4768 H   0  0  0  0  0  0
  -23.9999   -7.4631   22.7475 H   0  0  0  0  0  0
  -21.0840   -8.8782   19.8960 H   0  0  0  0  0  0
  -22.3706  -10.9673   19.6171 H   0  0  0  0  0  0
  -21.2009   -7.6146   23.9715 H   0  0  0  0  0  0
  -21.1480   -6.0522   25.9077 H   0  0  0  0  0  0
  -22.0598   -2.7611   23.2845 H   0  0  0  0  0  0
  -22.4072  -11.9907   22.4824 H   0  0  0  0  0  0
  -21.1092  -13.1277   22.2596 H   0  0  0  0  0  0
  -24.6296  -15.8216   20.4532 H   0  0  0  0  0  0
  -26.2235  -15.6054   19.9425 H   0  0  0  0  0  0
  -26.7192  -32.5438   23.1106 H   0  0  0  0  0  0
  -25.0081  -33.9716   25.0434 H   0  0  0  0  0  0
  -22.7150  -31.3072   21.4056 H   0  0  0  0  0  0
  -23.3745  -35.9638   23.3290 H   0  0  0  0  0  0
  -24.3592  -36.8931   22.2054 H   0  0  0  0  0  0
  -23.7246  -37.6501   23.6667 H   0  0  0  0  0  0
  -26.0970  -31.5524   20.6081 H   0  0  0  0  0  0
  -26.8437  -30.8362   22.0053 H   0  0  0  0  0  0
  -28.1160  -28.9733   21.1912 H   0  0  0  0  0  0
  -25.9456  -25.9437   18.9870 H   0  0  0  0  0  0
  -23.9645  -27.3201   19.0079 H   0  0  0  0  0  0
  -23.7563  -30.6031   19.4068 H   0  0  0  0  0  0
  -22.7538  -29.2567   19.8562 H   0  0  0  0  0  0
  -25.1286  -36.1936   25.0820 H   0  0  0  0  0  0
  -20.9988  -28.3268   24.1391 H   0  0  0  0  0  0
  -20.5685  -26.2299   23.3603 H   0  0  0  0  0  0
  -21.6650  -26.7444   22.1194 H   0  0  0  0  0  0
  -19.6919  -25.6293   21.1238 H   0  0  0  0  0  0
  -19.6686  -27.3187   20.6732 H   0  0  0  0  0  0
  -17.4203  -26.6670   21.4027 H   0  0  0  0  0  0
  -18.0343  -26.0064   22.9016 H   0  0  0  0  0  0
  -19.7941  -30.7283   24.2244 H   0  0  0  0  0  0
  -17.5014  -31.6258   24.5176 H   0  0  0  0  0  0
  -15.5355  -30.2979   23.7647 H   0  0  0  0  0  0
  -15.8679  -28.0814   22.7056 H   0  0  0  0  0  0
  -24.5885  -30.7104   25.7782 H   0  0  0  0  0  0
  -24.8971  -32.2885   26.4933 H   0  0  0  0  0  0
  -25.8063  -30.8841   27.0212 H   0  0  0  0  0  0
  -26.2904  -29.6740   24.1229 H   0  0  0  0  0  0
  -27.4052  -29.7259   25.4686 H   0  0  0  0  0  0
  -27.8773  -30.4271   23.9396 H   0  0  0  0  0  0
  -27.2695  -33.3597   26.2087 H   0  0  0  0  0  0
  -28.3876  -32.6860   25.0315 H   0  0  0  0  0  0
  -28.0751  -31.8413   26.5397 H   0  0  0  0  0  0
  -28.2587  -38.0105   24.7516 H   0  0  0  0  0  0
  -28.1086  -36.2639   24.6269 H   0  0  0  0  0  0
  -27.2308  -37.1434   25.8865 H   0  0  0  0  0  0
  -20.9365  -29.8780   21.6888 H   0  0  0  0  0  0
  -26.0171  -38.2851   24.1404 H   0  0  0  0  0  0
  -27.9093  -19.8704   21.5994 H   0  0  0  0  0  0
  -27.8810  -17.2362   23.1970 H   0  0  0  0  0  0
  -27.4844  -16.1801   21.8455 H   0  0  0  0  0  0
  -26.7061  -17.7440   21.9849 H   0  0  0  0  0  0
  -28.1583  -22.2023   19.4976 H   0  0  0  0  0  0
  -28.1384  -22.1581   21.2347 H   0  0  0  0  0  0
  -27.2476  -24.7889   20.8720 H   0  0  0  0  0  0
  -27.6538  -24.7370   19.1756 H   0  0  0  0  0  0
  -29.9930  -24.0913   19.6607 H   0  0  0  0  0  0
  -28.9558  -15.3433   21.3339 H   0  0  0  0  0  0
  -30.7435  -21.6773   19.8758 H   0  0  0  0  0  0
  -29.9580  -25.0652   21.7439 H   0  0  0  0  0  0
  1 25  1  0  0  0
  1 30  2  0  0  0
  1 81  1  0  0  0
  2  3  1  0  0  0
  2 25  1  0  0  0
  2 84  1  0  0  0
  2 85  1  0  0  0
  3  4  1  0  0  0
  3 86  1  0  0  0
  3 87  1  0  0  0
  4  5  1  0  0  0
  4 88  1  0  0  0
  4 89  1  0  0  0
  5  6  1  0  0  0
  5 26  1  0  0  0
  5 90  1  0  0  0
  6 25  1  0  0  0
  6 91  1  0  0  0
  6 92  1  0  0  0
  7  8  2  0  0  0
  7 26  1  0  0  0
  7 29  1  0  0  0
  8  9  1  0  0  0
  8 22  1  0  0  0
  9 10  1  0  0  0
  9 27  2  0  0  0
 10 11  2  0  0  0
 10 15  1  0  0  0
 11 12  1  0  0  0
 11 93  1  0  0  0
 12 13  2  0  0  0
 12 94  1  0  0  0
 13 14  1  0  0  0
 13 31  1  0  0  0
 14 15  2  0  0  0
 14 95  1  0  0  0
 15 96  1  0  0  0
 16 17  2  0  0  0
 16 21  1  0  0  0
 16 31  1  0  0  0
 17 18  1  0  0  0
 17 97  1  0  0  0
 18 19  2  0  0  0
 18 98  1  0  0  0
 19 20  1  0  0  0
 19 24  1  0  0  0
 20 21  2  0  0  0
 20 99  1  0  0  0
 21 23  1  0  0  0
 22 28  1  0  0  0
 22 32  2  0  0  0
 26 27  1  0  0  0
 28100  1  0  0  0
 28101  1  0  0  0
 29102  1  0  0  0
 29103  1  0  0  0
 33 34  1  0  0  0
 33 66  1  0  0  0
 33 70  2  0  0  0
 34 36  1  0  0  0
 34 59  1  0  0  0
 34104  1  0  0  0
 35 44  2  0  0  0
 35 45  1  0  0  0
 35 68  1  0  0  0
 36 56  1  0  0  0
 36105  1  0  0  0
 37 39  1  0  0  0
 37 47  1  0  0  0
 37 66  1  0  0  0
 37106  1  0  0  0
 38 43  2  0  0  0
 38 46  1  0  0  0
 38 47  1  0  0  0
 39 64  1  0  0  0
 39 67  2  0  0  0
 40 52  1  0  0  0
 40 53  2  0  0  0
 40 58  1  0  0  0
 41107  1  0  0  0
 41108  1  0  0  0
 41109  1  0  0  0
 41 48  1  0  0  0
 42 43  1  0  0  0
 42 66  1  0  0  0
 42110  1  0  0  0
 42111  1  0  0  0
 43 44  1  0  0  0
 44112  1  0  0  0
 45 46  2  0  0  0
 45113  1  0  0  0
 46114  1  0  0  0
 47115  1  0  0  0
 47116  1  0  0  0
 48 56  1  0  0  0
 48 65  1  0  0  0
 48117  1  0  0  0
 49 50  1  0  0  0
 49 53  1  0  0  0
 49 64  1  0  0  0
 49118  1  0  0  0
 50 51  1  0  0  0
 50119  1  0  0  0
 50120  1  0  0  0
 51 52  1  0  0  0
 51121  1  0  0  0
 51122  1  0  0  0
 52123  1  0  0  0
 52124  1  0  0  0
 53 54  1  0  0  0
 54 55  2  0  0  0
 54125  1  0  0  0
 55 57  1  0  0  0
 55126  1  0  0  0
 56 69  2  0  0  0
 57 58  2  0  0  0
 57127  1  0  0  0
 58128  1  0  0  0
 59 60  1  0  0  0
 59 61  1  0  0  0
 59 62  1  0  0  0
 60129  1  0  0  0
 60130  1  0  0  0
 60131  1  0  0  0
 61132  1  0  0  0
 61133  1  0  0  0
 61134  1  0  0  0
 62135  1  0  0  0
 62136  1  0  0  0
 62137  1  0  0  0
 63 65  1  0  0  0
 63138  1  0  0  0
 63139  1  0  0  0
 63140  1  0  0  0
 64141  1  0  0  0
 65142  1  0  0  0
 68 77  1  0  0  0
 71 72  2  0  0  0
 71 73  1  0  0  0
 71143  1  0  0  0
 72 74  1  0  0  0
 72 75  1  0  0  0
 73 79  2  0  0  0
 73 82  1  0  0  0
 74 80  2  0  0  0
 74 81  1  0  0  0
 75144  1  0  0  0
 75145  1  0  0  0
 75146  1  0  0  0
 76 78  1  0  0  0
 76 82  1  0  0  0
 76147  1  0  0  0
 76148  1  0  0  0
 77 78  1  0  0  0
 77149  1  0  0  0
 77150  1  0  0  0
 78 83  1  0  0  0
 78151  1  0  0  0
 79 80  1  0  0  0
 81152  1  0  0  0
 82153  1  0  0  0
 83154  1  0  0  0
M  ISO  4   1 100  68 101  77 101  81 100
M  END
> <chiral flag>
0

> <version>
0

> <s_m_source_file>
/data/baiqing/PycharmProjects/Reinvent-master-3.2/result/LINK_invent/BTK/process_docking_weight1_custom_product_contain_oxygen_bond_distance_aromatic_linkinvent_7_9_3/rearranged_h_0196.sdf

> <i_m_source_file_index>
9

> <r_mmod_Potential_Energy-OPLS-2005>
-90.4521636962891

> <r_mmod_Stretch_Energy-OPLS-2005>
82.505989074707

> <r_mmod_Bend_Energy-OPLS-2005>
154.924041748047

> <r_mmod_Torsional_Energy-OPLS-2005>
226.014770507812

> <r_mmod_Improper_Torsional_Energy-OPLS-2005>
4.76088285446167

> <r_mmod_Van_der_Waal_Energy-OPLS-2005>
145.563293457031

> <r_mmod_Electrostatic_Energy-OPLS-2005>
-480.833129882812

> <r_mmod_Solvation_Energy-OPLS-2005>
-275.379943847656

> <b_mmod_Minimization_Converged-OPLS-2005>
0

> <r_mmod_RMS_Derivative-OPLS-2005>
0.858264446258545

$$$$
9
                    3D
 Structure written by MMmdl.
167175  0  0  1  0            999 V2000
  -30.4914  -14.7172   20.4693 C   0  0  0  0  0  0
  -30.4171  -12.4300   19.4312 C   0  0  0  0  0  0
  -29.4825  -12.4753   18.1994 C   0  0  0  0  0  0
  -28.0114  -12.2874   18.6122 C   0  0  0  0  0  0
  -27.6266  -13.1871   19.8222 C   0  0  2  0  0  0
  -28.6619  -13.0713   20.9608 C   0  0  0  0  0  0
  -25.2573  -13.7978   20.6048 C   0  0  0  0  0  0
  -24.1736  -13.0303   20.9202 C   0  0  0  0  0  0
  -24.6332  -11.6811   20.8754 C   0  0  0  0  0  0
  -23.9035  -10.4252   21.0369 C   0  0  0  0  0  0
  -24.3667   -9.4244   21.9144 C   0  0  0  0  0  0
  -23.6336   -8.2298   22.0744 C   0  0  0  0  0  0
  -22.4272   -8.0397   21.3574 C   0  0  0  0  0  0
  -21.9908   -9.0315   20.4614 C   0  0  0  0  0  0
  -22.7237  -10.2156   20.2970 C   0  0  0  0  0  0
  -21.6849   -6.0815   22.5311 C   0  0  0  0  0  0
  -21.4022   -6.5723   23.8250 C   0  0  0  0  0  0
  -21.3605   -5.6812   24.9226 C   0  0  0  0  0  0
  -21.5960   -4.3056   24.7221 C   0  0  0  0  0  0
  -21.8842   -3.8222   23.4348 C   0  0  0  0  0  0
  -21.9228   -4.7066   22.3434 C   0  0  0  0  0  0
  -22.7816  -13.5225   21.1849 C   0  0  0  0  0  0
  -22.1654   -4.2274   21.1009 F   0  0  0  0  0  0
  -21.5570   -3.4531   25.7730 F   0  0  0  0  0  0
  -29.9620  -13.4570   20.3979 N   0  0  0  0  0  0
  -26.2836  -12.9126   20.3072 N   0  0  0  0  0  0
  -25.9207  -11.6323   20.5608 N   0  0  0  0  0  0
  -22.0464  -12.8187   22.0423 N   0  0  0  0  0  0
  -25.4437  -15.1615   20.5536 N   0  0  0  0  0  0
  -31.6699  -14.9341   20.1473 O   0  0  0  0  0  0
  -21.6624   -6.9045   21.4277 O   0  0  0  0  0  0
  -22.3607  -14.5652   20.6894 O   0  0  0  0  0  0
  -24.6181  -31.8717   23.2107 C   0  0  0  0  0  0
  -25.9038  -32.4838   23.8470 C   0  0  1  0  0  0
  -27.2153  -27.3780   20.1319 C   0  0  0  0  0  0
  -25.5870  -33.8627   24.2340 N   0  0  0  0  0  0
  -23.4034  -30.4981   21.5509 C   0  0  2  0  0  0
  -24.8514  -28.9734   20.1075 C   0  0  0  0  0  0
  -22.7430  -29.4691   22.4951 C   0  0  0  0  0  0
  -18.0330  -28.1370   22.8484 C   0  0  0  0  0  0
  -24.1446  -36.7322   23.2648 C   0  0  0  0  0  0
  -25.9383  -30.8375   21.3635 C   0  0  0  0  0  0
  -26.0157  -29.4697   20.7058 C   0  0  0  0  0  0
  -27.1992  -28.6882   20.7045 C   0  0  0  0  0  0
  -26.0282  -26.9354   19.4936 C   0  0  0  0  0  0
  -24.8597  -27.7219   19.4858 C   0  0  0  0  0  0
  -23.6096  -29.8349   20.1648 C   0  0  0  0  0  0
  -25.4050  -36.3141   24.0341 C   0  0  1  0  0  0
  -20.5933  -28.3669   23.1340 C   0  0  2  0  0  0
  -20.6746  -26.9368   22.5446 C   0  0  0  0  0  0
  -19.5760  -26.6358   21.5204 C   0  0  0  0  0  0
  -18.1926  -26.7925   22.1559 C   0  0  0  0  0  0
  -19.1593  -28.8808   23.2975 C   0  0  0  0  0  0
  -18.9455  -30.1428   23.8936 C   0  0  0  0  0  0
  -17.6471  -30.6586   24.0551 C   0  0  0  0  0  0
  -25.9028  -34.9482   23.5161 C   0  0  0  0  0  0
  -16.5367  -29.9095   23.6304 C   0  0  0  0  0  0
  -16.7290  -28.6460   23.0403 C   0  0  0  0  0  0
  -26.4428  -31.6651   25.0820 C   0  0  0  0  0  0
  -25.3677  -31.3808   26.1566 C   0  0  0  0  0  0
  -27.0299  -30.3104   24.6257 C   0  0  0  0  0  0
  -27.6022  -32.4363   25.7557 C   0  0  0  0  0  0
  -27.5548  -37.1819   24.8456 C   0  0  0  0  0  0
  -21.4173  -29.3056   22.3733 N   0  0  0  0  0  0
  -26.4294  -37.3773   23.9413 N   0  0  0  0  0  0
  -24.6711  -31.0834   22.0990 N   0  0  0  0  0  0
  -23.4242  -28.8240   23.2949 O   0  0  0  0  0  0
  -28.3705  -26.5928   20.2065 O   0  0  0  0  0  0
  -26.5585  -34.8925   22.4729 O   0  0  0  0  0  0
  -23.5381  -32.1383   23.7531 O   0  0  0  0  0  0
  -27.2777  -19.7673   18.9566 C   0  0  0  0  0  0
  -28.4925  -19.5468   19.7115 C   0  0  0  0  0  0
  -26.6942  -21.0714   19.0328 C   0  0  0  0  0  0
  -28.3259  -21.7827   20.4369 C   0  0  0  0  0  0
  -26.2640  -17.4507   19.0079 C   0  0  0  0  0  0
  -27.0811  -18.2919   16.7928 C   0  0  0  0  0  0
  -27.4559  -24.5091   22.4306 C   0  0  0  0  0  0
  -29.3957  -18.2348   19.6434 C   0  0  0  0  0  0
  -29.5986  -17.2532   20.8914 C   0  0  0  0  0  0
  -28.3263  -25.1324   20.0431 C   0  0  0  0  0  0
  -26.5155  -18.6837   18.1653 C   0  0  0  0  0  0
  -28.5358  -24.2670   21.3455 C   0  0  2  0  0  0
  -28.9659  -20.6010   20.4522 N   0  0  0  0  0  0
  -27.2354  -22.0642   19.7480 N   0  0  0  0  0  0
  -25.5090  -21.4449   18.3801 N   0  0  0  0  0  0
  -28.9120  -22.8305   21.1509 N   0  0  0  0  0  0
  -29.5762  -15.7217   20.7420 N   0  0  0  0  0  0
  -31.4440  -12.5942   19.1014 H   0  0  0  0  0  0
  -30.4153  -11.4353   19.8732 H   0  0  0  0  0  0
  -29.7765  -11.7223   17.4599 H   0  0  0  0  0  0
  -29.5866  -13.4358   17.7033 H   0  0  0  0  0  0
  -27.8739  -11.2307   18.8469 H   0  0  0  0  0  0
  -27.3451  -12.4745   17.7676 H   0  0  0  0  0  0
  -27.6362  -14.2053   19.4376 H   0  0  0  0  0  0
  -28.6956  -12.0540   21.3444 H   0  0  0  0  0  0
  -28.3707  -13.7022   21.8043 H   0  0  0  0  0  0
  -25.2863   -9.5710   22.4616 H   0  0  0  0  0  0
  -24.0054   -7.4709   22.7448 H   0  0  0  0  0  0
  -21.0832   -8.8873   19.8954 H   0  0  0  0  0  0
  -22.3774  -10.9731   19.6033 H   0  0  0  0  0  0
  -21.2003   -7.6217   23.9827 H   0  0  0  0  0  0
  -21.1302   -6.0523   25.9117 H   0  0  0  0  0  0
  -22.0663   -2.7708   23.2805 H   0  0  0  0  0  0
  -22.4049  -11.9707   22.4547 H   0  0  0  0  0  0
  -21.1113  -13.1291   22.2738 H   0  0  0  0  0  0
  -24.6826  -15.8005   20.7643 H   0  0  0  0  0  0
  -26.3168  -15.6428   20.3589 H   0  0  0  0  0  0
  -26.7158  -32.5507   23.1289 H   0  0  0  0  0  0
  -24.9940  -33.9770   25.0442 H   0  0  0  0  0  0
  -22.6966  -31.3198   21.4124 H   0  0  0  0  0  0
  -23.3721  -35.9683   23.3341 H   0  0  0  0  0  0
  -24.3550  -36.8902   22.2090 H   0  0  0  0  0  0
  -23.7204  -37.6524   23.6639 H   0  0  0  0  0  0
  -26.0535  -31.6141   20.6064 H   0  0  0  0  0  0
  -26.8256  -30.8918   21.9842 H   0  0  0  0  0  0
  -28.0969  -29.0752   21.1680 H   0  0  0  0  0  0
  -25.9516  -25.9868   18.9928 H   0  0  0  0  0  0
  -23.9669  -27.3532   19.0065 H   0  0  0  0  0  0
  -23.6923  -30.6044   19.3946 H   0  0  0  0  0  0
  -22.7363  -29.2453   19.8838 H   0  0  0  0  0  0
  -25.1242  -36.2047   25.0846 H   0  0  0  0  0  0
  -21.0065  -28.3220   24.1413 H   0  0  0  0  0  0
  -20.5574  -26.2288   23.3660 H   0  0  0  0  0  0
  -21.6606  -26.7368   22.1270 H   0  0  0  0  0  0
  -19.6945  -25.6285   21.1155 H   0  0  0  0  0  0
  -19.6764  -27.3160   20.6736 H   0  0  0  0  0  0
  -17.4211  -26.6682   21.3902 H   0  0  0  0  0  0
  -18.0237  -26.0006   22.8904 H   0  0  0  0  0  0
  -19.7897  -30.7206   24.2371 H   0  0  0  0  0  0
  -17.5031  -31.6298   24.5053 H   0  0  0  0  0  0
  -15.5354  -30.3016   23.7570 H   0  0  0  0  0  0
  -15.8678  -28.0761   22.7108 H   0  0  0  0  0  0
  -24.5776  -30.7217   25.7882 H   0  0  0  0  0  0
  -24.8929  -32.3021   26.5019 H   0  0  0  0  0  0
  -25.7986  -30.8945   27.0344 H   0  0  0  0  0  0
  -26.2941  -29.6868   24.1143 H   0  0  0  0  0  0
  -27.3903  -29.7305   25.4772 H   0  0  0  0  0  0
  -27.8824  -30.4400   23.9555 H   0  0  0  0  0  0
  -27.2662  -33.3642   26.2192 H   0  0  0  0  0  0
  -28.3810  -32.6965   25.0368 H   0  0  0  0  0  0
  -28.0745  -31.8469   26.5439 H   0  0  0  0  0  0
  -28.2599  -38.0077   24.7460 H   0  0  0  0  0  0
  -28.1024  -36.2618   24.6349 H   0  0  0  0  0  0
  -27.2283  -37.1515   25.8865 H   0  0  0  0  0  0
  -20.9259  -29.8869   21.7090 H   0  0  0  0  0  0
  -26.0192  -38.2893   24.1390 H   0  0  0  0  0  0
  -27.1749  -16.8813   19.1832 H   0  0  0  0  0  0
  -25.5651  -16.7878   18.4871 H   0  0  0  0  0  0
  -25.8335  -17.7146   19.9753 H   0  0  0  0  0  0
  -27.2661  -19.1525   16.1572 H   0  0  0  0  0  0
  -26.3375  -17.6848   16.2607 H   0  0  0  0  0  0
  -27.9989  -17.7064   16.8763 H   0  0  0  0  0  0
  -27.6238  -23.9169   23.3366 H   0  0  0  0  0  0
  -26.4454  -24.3282   22.0700 H   0  0  0  0  0  0
  -27.4888  -25.5484   22.7707 H   0  0  0  0  0  0
  -30.4033  -18.5981   19.4468 H   0  0  0  0  0  0
  -29.1464  -17.6533   18.7630 H   0  0  0  0  0  0
  -30.5255  -17.5444   21.3777 H   0  0  0  0  0  0
  -28.8157  -17.5361   21.5975 H   0  0  0  0  0  0
  -27.4299  -24.7714   19.5568 H   0  0  0  0  0  0
  -29.1332  -24.8945   19.3492 H   0  0  0  0  0  0
  -25.5201  -19.0557   17.9372 H   0  0  0  0  0  0
  -29.4438  -24.6538   21.8035 H   0  0  0  0  0  0
  -25.0250  -22.3158   18.5855 H   0  0  0  0  0  0
  -24.8582  -20.7444   18.0602 H   0  0  0  0  0  0
  -29.7799  -22.5621   21.6074 H   0  0  0  0  0  0
  -28.6765  -15.3277   21.0022 H   0  0  0  0  0  0
  1 25  1  0  0  0
  1 30  2  0  0  0
  1 87  1  0  0  0
  2  3  1  0  0  0
  2 25  1  0  0  0
  2 88  1  0  0  0
  2 89  1  0  0  0
  3  4  1  0  0  0
  3 90  1  0  0  0
  3 91  1  0  0  0
  4  5  1  0  0  0
  4 92  1  0  0  0
  4 93  1  0  0  0
  5  6  1  0  0  0
  5 26  1  0  0  0
  5 94  1  0  0  0
  6 25  1  0  0  0
  6 95  1  0  0  0
  6 96  1  0  0  0
  7  8  2  0  0  0
  7 26  1  0  0  0
  7 29  1  0  0  0
  8  9  1  0  0  0
  8 22  1  0  0  0
  9 10  1  0  0  0
  9 27  2  0  0  0
 10 11  2  0  0  0
 10 15  1  0  0  0
 11 12  1  0  0  0
 11 97  1  0  0  0
 12 13  2  0  0  0
 12 98  1  0  0  0
 13 14  1  0  0  0
 13 31  1  0  0  0
 14 15  2  0  0  0
 14 99  1  0  0  0
 15100  1  0  0  0
 16 17  2  0  0  0
 16 21  1  0  0  0
 16 31  1  0  0  0
 17 18  1  0  0  0
 17101  1  0  0  0
 18 19  2  0  0  0
 18102  1  0  0  0
 19 20  1  0  0  0
 19 24  1  0  0  0
 20 21  2  0  0  0
 20103  1  0  0  0
 21 23  1  0  0  0
 22 28  1  0  0  0
 22 32  2  0  0  0
 26 27  1  0  0  0
 28104  1  0  0  0
 28105  1  0  0  0
 29106  1  0  0  0
 29107  1  0  0  0
 33 34  1  0  0  0
 33 66  1  0  0  0
 33 70  2  0  0  0
 34 36  1  0  0  0
 34 59  1  0  0  0
 34108  1  0  0  0
 35 44  2  0  0  0
 35 45  1  0  0  0
 35 68  1  0  0  0
 36 56  1  0  0  0
 36109  1  0  0  0
 37 39  1  0  0  0
 37 47  1  0  0  0
 37 66  1  0  0  0
 37110  1  0  0  0
 38 43  2  0  0  0
 38 46  1  0  0  0
 38 47  1  0  0  0
 39 64  1  0  0  0
 39 67  2  0  0  0
 40 52  1  0  0  0
 40 53  2  0  0  0
 40 58  1  0  0  0
 41111  1  0  0  0
 41112  1  0  0  0
 41113  1  0  0  0
 41 48  1  0  0  0
 42 43  1  0  0  0
 42 66  1  0  0  0
 42114  1  0  0  0
 42115  1  0  0  0
 43 44  1  0  0  0
 44116  1  0  0  0
 45 46  2  0  0  0
 45117  1  0  0  0
 46118  1  0  0  0
 47119  1  0  0  0
 47120  1  0  0  0
 48 56  1  0  0  0
 48 65  1  0  0  0
 48121  1  0  0  0
 49 50  1  0  0  0
 49 53  1  0  0  0
 49 64  1  0  0  0
 49122  1  0  0  0
 50 51  1  0  0  0
 50123  1  0  0  0
 50124  1  0  0  0
 51 52  1  0  0  0
 51125  1  0  0  0
 51126  1  0  0  0
 52127  1  0  0  0
 52128  1  0  0  0
 53 54  1  0  0  0
 54 55  2  0  0  0
 54129  1  0  0  0
 55 57  1  0  0  0
 55130  1  0  0  0
 56 69  2  0  0  0
 57 58  2  0  0  0
 57131  1  0  0  0
 58132  1  0  0  0
 59 60  1  0  0  0
 59 61  1  0  0  0
 59 62  1  0  0  0
 60133  1  0  0  0
 60134  1  0  0  0
 60135  1  0  0  0
 61136  1  0  0  0
 61137  1  0  0  0
 61138  1  0  0  0
 62139  1  0  0  0
 62140  1  0  0  0
 62141  1  0  0  0
 63 65  1  0  0  0
 63142  1  0  0  0
 63143  1  0  0  0
 63144  1  0  0  0
 64145  1  0  0  0
 65146  1  0  0  0
 68 80  1  0  0  0
 71 72  2  0  0  0
 71 73  1  0  0  0
 71 81  1  0  0  0
 72 78  1  0  0  0
 72 83  1  0  0  0
 73 84  2  0  0  0
 73 85  1  0  0  0
 74 83  2  0  0  0
 74 84  1  0  0  0
 74 86  1  0  0  0
 75147  1  0  0  0
 75148  1  0  0  0
 75149  1  0  0  0
 75 81  1  0  0  0
 76 81  1  0  0  0
 76150  1  0  0  0
 76151  1  0  0  0
 76152  1  0  0  0
 77153  1  0  0  0
 77154  1  0  0  0
 77155  1  0  0  0
 77 82  1  0  0  0
 78 79  1  0  0  0
 78156  1  0  0  0
 78157  1  0  0  0
 79 87  1  0  0  0
 79158  1  0  0  0
 79159  1  0  0  0
 80 82  1  0  0  0
 80160  1  0  0  0
 80161  1  0  0  0
 81162  1  0  0  0
 82 86  1  0  0  0
 82163  1  0  0  0
 85164  1  0  0  0
 85165  1  0  0  0
 86166  1  0  0  0
 87167  1  0  0  0
M  ISO  4   1 100  68 101  80 101  87 100
M  END
> <chiral flag>
0

> <version>
0

> <s_m_source_file>
/data/baiqing/PycharmProjects/Reinvent-master-3.2/result/LINK_invent/BTK/process_docking_weight1_custom_product_contain_oxygen_bond_distance_aromatic_linkinvent_7_9_3/rearranged_h_0196.sdf

> <i_m_source_file_index>
10

> <r_mmod_Potential_Energy-OPLS-2005>
-410.356109619141

> <r_mmod_Stretch_Energy-OPLS-2005>
92.2975997924805

> <r_mmod_Bend_Energy-OPLS-2005>
210.77961730957

> <r_mmod_Torsional_Energy-OPLS-2005>
207.803466796875

> <r_mmod_Improper_Torsional_Energy-OPLS-2005>
7.11037969589233

> <r_mmod_Van_der_Waal_Energy-OPLS-2005>
154.120162963867

> <r_mmod_Electrostatic_Energy-OPLS-2005>
-902.237976074219

> <r_mmod_Solvation_Energy-OPLS-2005>
-246.225769042969

> <b_mmod_Minimization_Converged-OPLS-2005>
0

> <r_mmod_RMS_Derivative-OPLS-2005>
15.8058519363403

$$$$
10
                    3D
 Structure written by MMmdl.
151159  0  0  1  0            999 V2000
  -30.6625  -14.5269   20.5597 C   0  0  0  0  0  0
  -30.4453  -12.3473   19.4155 C   0  0  0  0  0  0
  -29.4991  -12.5050   18.2046 C   0  0  0  0  0  0
  -28.0187  -12.3777   18.6224 C   0  0  0  0  0  0
  -27.6654  -13.2133   19.8806 C   0  0  2  0  0  0
  -28.7161  -12.9895   20.9927 C   0  0  0  0  0  0
  -25.2586  -13.8179   20.5741 C   0  0  0  0  0  0
  -24.1857  -13.0449   20.9285 C   0  0  0  0  0  0
  -24.6429  -11.6929   20.8788 C   0  0  0  0  0  0
  -23.9086  -10.4313   21.0438 C   0  0  0  0  0  0
  -24.3615   -9.4217   21.9215 C   0  0  0  0  0  0
  -23.6295   -8.2257   22.0768 C   0  0  0  0  0  0
  -22.4286   -8.0307   21.3545 C   0  0  0  0  0  0
  -21.9917   -9.0312   20.4655 C   0  0  0  0  0  0
  -22.7262  -10.2186   20.3093 C   0  0  0  0  0  0
  -21.6835   -6.0765   22.5302 C   0  0  0  0  0  0
  -21.4009   -6.5660   23.8245 C   0  0  0  0  0  0
  -21.3647   -5.6804   24.9200 C   0  0  0  0  0  0
  -21.6038   -4.3073   24.7233 C   0  0  0  0  0  0
  -21.8803   -3.8168   23.4354 C   0  0  0  0  0  0
  -21.9194   -4.6998   22.3414 C   0  0  0  0  0  0
  -22.7869  -13.5237   21.1905 C   0  0  0  0  0  0
  -22.1648   -4.2198   21.0985 F   0  0  0  0  0  0
  -21.5637   -3.4539   25.7731 F   0  0  0  0  0  0
  -30.0341  -13.3268   20.4314 N   0  0  0  0  0  0
  -26.3053  -12.9365   20.3436 N   0  0  0  0  0  0
  -25.9358  -11.6521   20.5813 N   0  0  0  0  0  0
  -22.0467  -12.8285   22.0448 N   0  0  0  0  0  0
  -25.4249  -15.1907   20.4098 N   0  0  0  0  0  0
  -31.7980  -14.7370   20.1223 O   0  0  0  0  0  0
  -21.6628   -6.8924   21.4272 O   0  0  0  0  0  0
  -22.3585  -14.5544   20.6754 O   0  0  0  0  0  0
  -24.6156  -31.8668   23.2090 C   0  0  0  0  0  0
  -25.9040  -32.4836   23.8392 C   0  0  1  0  0  0
  -27.2421  -27.4062   20.1032 C   0  0  0  0  0  0
  -25.5903  -33.8641   24.2330 N   0  0  0  0  0  0
  -23.4052  -30.4908   21.5485 C   0  0  2  0  0  0
  -24.8519  -28.9506   20.1163 C   0  0  0  0  0  0
  -22.7407  -29.4665   22.4956 C   0  0  0  0  0  0
  -18.0272  -28.1376   22.8516 C   0  0  0  0  0  0
  -24.1494  -36.7324   23.2642 C   0  0  0  0  0  0
  -25.9365  -30.8234   21.3641 C   0  0  0  0  0  0
  -26.0112  -29.4559   20.7112 C   0  0  0  0  0  0
  -27.2043  -28.6942   20.6961 C   0  0  0  0  0  0
  -26.0520  -26.9105   19.5209 C   0  0  0  0  0  0
  -24.8674  -27.6765   19.5202 C   0  0  0  0  0  0
  -23.6122  -29.8192   20.1634 C   0  0  0  0  0  0
  -25.4122  -36.3123   24.0336 C   0  0  1  0  0  0
  -20.5871  -28.3704   23.1296 C   0  0  2  0  0  0
  -20.6780  -26.9430   22.5414 C   0  0  0  0  0  0
  -19.5749  -26.6398   21.5223 C   0  0  0  0  0  0
  -18.1928  -26.7936   22.1631 C   0  0  0  0  0  0
  -19.1525  -28.8854   23.2926 C   0  0  0  0  0  0
  -18.9444  -30.1449   23.8937 C   0  0  0  0  0  0
  -17.6449  -30.6604   24.0557 C   0  0  0  0  0  0
  -25.9050  -34.9491   23.5127 C   0  0  0  0  0  0
  -16.5343  -29.9096   23.6328 C   0  0  0  0  0  0
  -16.7268  -28.6505   23.0370 C   0  0  0  0  0  0
  -26.4442  -31.6641   25.0753 C   0  0  0  0  0  0
  -25.3679  -31.3767   26.1481 C   0  0  0  0  0  0
  -27.0300  -30.3092   24.6184 C   0  0  0  0  0  0
  -27.6018  -32.4361   25.7503 C   0  0  0  0  0  0
  -27.5582  -37.1823   24.8453 C   0  0  0  0  0  0
  -21.4131  -29.3068   22.3686 N   0  0  0  0  0  0
  -26.4298  -37.3815   23.9401 N   0  0  0  0  0  0
  -24.6710  -31.0761   22.0984 N   0  0  0  0  0  0
  -23.4164  -28.8190   23.2989 O   0  0  0  0  0  0
  -28.4383  -26.7018   20.1220 O   0  0  0  0  0  0
  -26.5609  -34.8929   22.4691 O   0  0  0  0  0  0
  -23.5340  -32.1406   23.7490 O   0  0  0  0  0  0
  -28.7504  -19.6657   22.2644 C   0  0  0  0  0  0
  -29.1423  -19.3489   20.9831 C   0  0  0  0  0  0
  -28.8852  -21.6384   20.7988 C   0  0  0  0  0  0
  -29.3577  -17.9410   20.4194 C   0  0  0  0  0  0
  -30.2037  -16.9501   21.2881 C   0  0  0  0  0  0
  -28.3852  -24.2310   20.6602 C   0  0  0  0  0  0
  -28.5609  -25.3584   19.6002 C   0  0  0  0  0  0
  -29.2294  -20.5030   20.1663 N   0  0  0  0  0  0
  -28.8291  -22.9017   20.2008 N   0  0  0  0  0  0
  -29.8943  -15.5182   21.0615 N   0  0  0  0  0  0
  -28.4721  -21.3803   22.4895 S   0  0  0  0  0  0
  -31.4811  -12.4868   19.0995 H   0  0  0  0  0  0
  -30.3962  -11.3387   19.8302 H   0  0  0  0  0  0
  -29.7322  -11.7568   17.4462 H   0  0  0  0  0  0
  -29.6752  -13.4758   17.7360 H   0  0  0  0  0  0
  -27.8117  -11.3228   18.8141 H   0  0  0  0  0  0
  -27.3748  -12.6654   17.7924 H   0  0  0  0  0  0
  -27.7047  -14.2644   19.5902 H   0  0  0  0  0  0
  -28.7127  -11.9474   21.3141 H   0  0  0  0  0  0
  -28.4763  -13.5657   21.8873 H   0  0  0  0  0  0
  -25.2740   -9.5703   22.4826 H   0  0  0  0  0  0
  -23.9999   -7.4616   22.7475 H   0  0  0  0  0  0
  -21.0859   -8.8856   19.8914 H   0  0  0  0  0  0
  -22.3736  -10.9761   19.6222 H   0  0  0  0  0  0
  -21.1987   -7.6160   23.9784 H   0  0  0  0  0  0
  -21.1465   -6.0514   25.9113 H   0  0  0  0  0  0
  -22.0584   -2.7640   23.2846 H   0  0  0  0  0  0
  -22.3956  -11.9898   22.4822 H   0  0  0  0  0  0
  -21.1113  -13.1396   22.2594 H   0  0  0  0  0  0
  -24.6461  -15.8339   20.5058 H   0  0  0  0  0  0
  -26.2604  -15.6370   20.0512 H   0  0  0  0  0  0
  -26.7119  -32.5529   23.1153 H   0  0  0  0  0  0
  -25.0012  -33.9799   25.0435 H   0  0  0  0  0  0
  -22.6969  -31.3102   21.4101 H   0  0  0  0  0  0
  -23.3751  -35.9656   23.3303 H   0  0  0  0  0  0
  -24.3572  -36.8947   22.2051 H   0  0  0  0  0  0
  -23.7240  -37.6531   23.6654 H   0  0  0  0  0  0
  -26.0522  -31.5832   20.5902 H   0  0  0  0  0  0
  -26.8237  -30.8761   21.9841 H   0  0  0  0  0  0
  -28.1024  -29.0915   21.1492 H   0  0  0  0  0  0
  -26.0069  -25.9302   19.0722 H   0  0  0  0  0  0
  -23.9723  -27.2759   19.0671 H   0  0  0  0  0  0
  -23.7098  -30.5926   19.3999 H   0  0  0  0  0  0
  -22.7378  -29.2340   19.8740 H   0  0  0  0  0  0
  -25.1290  -36.1992   25.0826 H   0  0  0  0  0  0
  -21.0002  -28.3288   24.1398 H   0  0  0  0  0  0
  -20.5703  -26.2312   23.3617 H   0  0  0  0  0  0
  -21.6642  -26.7471   22.1179 H   0  0  0  0  0  0
  -19.6905  -25.6303   21.1256 H   0  0  0  0  0  0
  -19.6681  -27.3198   20.6736 H   0  0  0  0  0  0
  -17.4200  -26.6696   21.4022 H   0  0  0  0  0  0
  -18.0328  -26.0053   22.9004 H   0  0  0  0  0  0
  -19.7904  -30.7266   24.2341 H   0  0  0  0  0  0
  -17.4987  -31.6288   24.5147 H   0  0  0  0  0  0
  -15.5343  -30.3003   23.7646 H   0  0  0  0  0  0
  -15.8656  -28.0832   22.7077 H   0  0  0  0  0  0
  -24.5793  -30.7213   25.7764 H   0  0  0  0  0  0
  -24.8925  -32.2941   26.4975 H   0  0  0  0  0  0
  -25.7959  -30.8841   27.0222 H   0  0  0  0  0  0
  -26.2887  -29.6869   24.1171 H   0  0  0  0  0  0
  -27.3974  -29.7336   25.4688 H   0  0  0  0  0  0
  -27.8746  -30.4418   23.9422 H   0  0  0  0  0  0
  -27.2641  -33.3626   26.2152 H   0  0  0  0  0  0
  -28.3771  -32.7001   25.0299 H   0  0  0  0  0  0
  -28.0758  -31.8463   26.5355 H   0  0  0  0  0  0
  -28.2610  -38.0118   24.7510 H   0  0  0  0  0  0
  -28.1077  -36.2651   24.6264 H   0  0  0  0  0  0
  -27.2298  -37.1445   25.8858 H   0  0  0  0  0  0
  -20.9299  -29.8793   21.6902 H   0  0  0  0  0  0
  -26.0189  -38.2903   24.1381 H   0  0  0  0  0  0
  -28.5716  -18.9900   23.0935 H   0  0  0  0  0  0
  -29.8121  -18.0098   19.4290 H   0  0  0  0  0  0
  -28.3777  -17.4960   20.2501 H   0  0  0  0  0  0
  -29.9782  -17.1199   22.3405 H   0  0  0  0  0  0
  -31.2702  -17.1528   21.1705 H   0  0  0  0  0  0
  -27.3411  -24.1782   20.9740 H   0  0  0  0  0  0
  -28.9614  -24.4860   21.5505 H   0  0  0  0  0  0
  -27.9377  -25.1751   18.7259 H   0  0  0  0  0  0
  -29.5825  -25.2989   19.2247 H   0  0  0  0  0  0
  -29.1453  -22.8915   19.2354 H   0  0  0  0  0  0
  -28.9734  -15.2256   21.3499 H   0  0  0  0  0  0
  1 25  1  0  0  0
  1 30  2  0  0  0
  1 80  1  0  0  0
  2  3  1  0  0  0
  2 25  1  0  0  0
  2 82  1  0  0  0
  2 83  1  0  0  0
  3  4  1  0  0  0
  3 84  1  0  0  0
  3 85  1  0  0  0
  4  5  1  0  0  0
  4 86  1  0  0  0
  4 87  1  0  0  0
  5  6  1  0  0  0
  5 26  1  0  0  0
  5 88  1  0  0  0
  6 25  1  0  0  0
  6 89  1  0  0  0
  6 90  1  0  0  0
  7  8  2  0  0  0
  7 26  1  0  0  0
  7 29  1  0  0  0
  8  9  1  0  0  0
  8 22  1  0  0  0
  9 10  1  0  0  0
  9 27  2  0  0  0
 10 11  2  0  0  0
 10 15  1  0  0  0
 11 12  1  0  0  0
 11 91  1  0  0  0
 12 13  2  0  0  0
 12 92  1  0  0  0
 13 14  1  0  0  0
 13 31  1  0  0  0
 14 15  2  0  0  0
 14 93  1  0  0  0
 15 94  1  0  0  0
 16 17  2  0  0  0
 16 21  1  0  0  0
 16 31  1  0  0  0
 17 18  1  0  0  0
 17 95  1  0  0  0
 18 19  2  0  0  0
 18 96  1  0  0  0
 19 20  1  0  0  0
 19 24  1  0  0  0
 20 21  2  0  0  0
 20 97  1  0  0  0
 21 23  1  0  0  0
 22 28  1  0  0  0
 22 32  2  0  0  0
 26 27  1  0  0  0
 28 98  1  0  0  0
 28 99  1  0  0  0
 29100  1  0  0  0
 29101  1  0  0  0
 33 34  1  0  0  0
 33 66  1  0  0  0
 33 70  2  0  0  0
 34 36  1  0  0  0
 34 59  1  0  0  0
 34102  1  0  0  0
 35 44  2  0  0  0
 35 45  1  0  0  0
 35 68  1  0  0  0
 36 56  1  0  0  0
 36103  1  0  0  0
 37 39  1  0  0  0
 37 47  1  0  0  0
 37 66  1  0  0  0
 37104  1  0  0  0
 38 43  2  0  0  0
 38 46  1  0  0  0
 38 47  1  0  0  0
 39 64  1  0  0  0
 39 67  2  0  0  0
 40 52  1  0  0  0
 40 53  2  0  0  0
 40 58  1  0  0  0
 41105  1  0  0  0
 41106  1  0  0  0
 41107  1  0  0  0
 41 48  1  0  0  0
 42 43  1  0  0  0
 42 66  1  0  0  0
 42108  1  0  0  0
 42109  1  0  0  0
 43 44  1  0  0  0
 44110  1  0  0  0
 45 46  2  0  0  0
 45111  1  0  0  0
 46112  1  0  0  0
 47113  1  0  0  0
 47114  1  0  0  0
 48 56  1  0  0  0
 48 65  1  0  0  0
 48115  1  0  0  0
 49 50  1  0  0  0
 49 53  1  0  0  0
 49 64  1  0  0  0
 49116  1  0  0  0
 50 51  1  0  0  0
 50117  1  0  0  0
 50118  1  0  0  0
 51 52  1  0  0  0
 51119  1  0  0  0
 51120  1  0  0  0
 52121  1  0  0  0
 52122  1  0  0  0
 53 54  1  0  0  0
 54 55  2  0  0  0
 54123  1  0  0  0
 55 57  1  0  0  0
 55124  1  0  0  0
 56 69  2  0  0  0
 57 58  2  0  0  0
 57125  1  0  0  0
 58126  1  0  0  0
 59 60  1  0  0  0
 59 61  1  0  0  0
 59 62  1  0  0  0
 60127  1  0  0  0
 60128  1  0  0  0
 60129  1  0  0  0
 61130  1  0  0  0
 61131  1  0  0  0
 61132  1  0  0  0
 62133  1  0  0  0
 62134  1  0  0  0
 62135  1  0  0  0
 63 65  1  0  0  0
 63136  1  0  0  0
 63137  1  0  0  0
 63138  1  0  0  0
 64139  1  0  0  0
 65140  1  0  0  0
 68 77  1  0  0  0
 71 72  2  0  0  0
 71 81  1  0  0  0
 71141  1  0  0  0
 72 74  1  0  0  0
 72 78  1  0  0  0
 73 78  2  0  0  0
 73 79  1  0  0  0
 73 81  1  0  0  0
 74 75  1  0  0  0
 74142  1  0  0  0
 74143  1  0  0  0
 75 80  1  0  0  0
 75144  1  0  0  0
 75145  1  0  0  0
 76 77  1  0  0  0
 76 79  1  0  0  0
 76146  1  0  0  0
 76147  1  0  0  0
 77148  1  0  0  0
 77149  1  0  0  0
 79150  1  0  0  0
 80151  1  0  0  0
M  ISO  4   1 100  68 101  77 101  80 100
M  END
> <chiral flag>
0

> <version>
0

> <s_m_source_file>
/data/baiqing/PycharmProjects/Reinvent-master-3.2/result/LINK_invent/BTK/process_docking_weight1_custom_product_contain_oxygen_bond_distance_aromatic_linkinvent_7_9_3/rearranged_h_0196.sdf

> <i_m_source_file_index>
11

> <r_mmod_Potential_Energy-OPLS-2005>
-173.389938354492

> <r_mmod_Stretch_Energy-OPLS-2005>
42.4171028137207

> <r_mmod_Bend_Energy-OPLS-2005>
111.85572052002

> <r_mmod_Torsional_Energy-OPLS-2005>
182.386001586914

> <r_mmod_Improper_Torsional_Energy-OPLS-2005>
3.82826828956604

> <r_mmod_Van_der_Waal_Energy-OPLS-2005>
123.955810546875

> <r_mmod_Electrostatic_Energy-OPLS-2005>
-421.844543457031

> <r_mmod_Solvation_Energy-OPLS-2005>
-234.670028686523

> <b_mmod_Minimization_Converged-OPLS-2005>
0

> <r_mmod_RMS_Derivative-OPLS-2005>
4.6012487411499

$$$$
11
                    3D
 Structure written by MMmdl.
156164  0  0  1  0            999 V2000
  -30.6536  -14.6028   20.5300 C   0  0  0  0  0  0
  -30.4259  -12.3704   19.4625 C   0  0  0  0  0  0
  -29.5066  -12.4962   18.2299 C   0  0  0  0  0  0
  -28.0275  -12.3417   18.6344 C   0  0  0  0  0  0
  -27.6474  -13.2186   19.8580 C   0  0  2  0  0  0
  -28.6859  -13.0784   20.9940 C   0  0  0  0  0  0
  -25.2514  -13.8176   20.5643 C   0  0  0  0  0  0
  -24.1792  -13.0445   20.9169 C   0  0  0  0  0  0
  -24.6361  -11.6917   20.8717 C   0  0  0  0  0  0
  -23.9040  -10.4296   21.0375 C   0  0  0  0  0  0
  -24.3604   -9.4223   21.9153 C   0  0  0  0  0  0
  -23.6287   -8.2250   22.0730 C   0  0  0  0  0  0
  -22.4272   -8.0262   21.3523 C   0  0  0  0  0  0
  -21.9894   -9.0230   20.4632 C   0  0  0  0  0  0
  -22.7208  -10.2120   20.3039 C   0  0  0  0  0  0
  -21.6864   -6.0721   22.5271 C   0  0  0  0  0  0
  -21.4019   -6.5630   23.8202 C   0  0  0  0  0  0
  -21.3666   -5.6785   24.9167 C   0  0  0  0  0  0
  -21.6049   -4.3048   24.7218 C   0  0  0  0  0  0
  -21.8826   -3.8135   23.4343 C   0  0  0  0  0  0
  -21.9195   -4.6951   22.3400 C   0  0  0  0  0  0
  -22.7820  -13.5226   21.1834 C   0  0  0  0  0  0
  -22.1658   -4.2134   21.0978 F   0  0  0  0  0  0
  -21.5635   -3.4532   25.7733 F   0  0  0  0  0  0
  -30.0055  -13.3999   20.4336 N   0  0  0  0  0  0
  -26.2933  -12.9362   20.3262 N   0  0  0  0  0  0
  -25.9290  -11.6526   20.5752 N   0  0  0  0  0  0
  -22.0472  -12.8221   22.0418 N   0  0  0  0  0  0
  -25.4243  -15.1893   20.4052 N   0  0  0  0  0  0
  -31.8244  -14.7041   20.1432 O   0  0  0  0  0  0
  -21.6646   -6.8848   21.4223 O   0  0  0  0  0  0
  -22.3502  -14.5515   20.6660 O   0  0  0  0  0  0
  -24.6216  -31.8603   23.2025 C   0  0  0  0  0  0
  -25.9079  -32.4773   23.8346 C   0  0  1  0  0  0
  -27.2206  -27.3404   20.1261 C   0  0  0  0  0  0
  -25.5911  -33.8576   24.2277 N   0  0  0  0  0  0
  -23.4137  -30.4812   21.5431 C   0  0  2  0  0  0
  -24.8588  -28.9343   20.1117 C   0  0  0  0  0  0
  -22.7452  -29.4608   22.4946 C   0  0  0  0  0  0
  -18.0275  -28.1371   22.8484 C   0  0  0  0  0  0
  -24.1490  -36.7302   23.2638 C   0  0  0  0  0  0
  -25.9492  -30.7979   21.3694 C   0  0  0  0  0  0
  -26.0215  -29.4253   20.7160 C   0  0  0  0  0  0
  -27.2035  -28.6379   20.7141 C   0  0  0  0  0  0
  -26.0359  -26.8835   19.5085 C   0  0  0  0  0  0
  -24.8659  -27.6689   19.5002 C   0  0  0  0  0  0
  -23.6265  -29.8119   20.1589 C   0  0  0  0  0  0
  -25.4109  -36.3075   24.0327 C   0  0  1  0  0  0
  -20.5870  -28.3662   23.1297 C   0  0  2  0  0  0
  -20.6759  -26.9390   22.5410 C   0  0  0  0  0  0
  -19.5735  -26.6375   21.5211 C   0  0  0  0  0  0
  -18.1916  -26.7915   22.1622 C   0  0  0  0  0  0
  -19.1520  -28.8833   23.2887 C   0  0  0  0  0  0
  -18.9452  -30.1439   23.8901 C   0  0  0  0  0  0
  -17.6453  -30.6580   24.0553 C   0  0  0  0  0  0
  -25.9043  -34.9445   23.5102 C   0  0  0  0  0  0
  -16.5344  -29.9077   23.6321 C   0  0  0  0  0  0
  -16.7260  -28.6490   23.0345 C   0  0  0  0  0  0
  -26.4481  -31.6581   25.0710 C   0  0  0  0  0  0
  -25.3743  -31.3716   26.1463 C   0  0  0  0  0  0
  -27.0329  -30.3006   24.6160 C   0  0  0  0  0  0
  -27.6036  -32.4324   25.7487 C   0  0  0  0  0  0
  -27.5576  -37.1800   24.8456 C   0  0  0  0  0  0
  -21.4167  -29.3026   22.3705 N   0  0  0  0  0  0
  -26.4284  -37.3769   23.9407 N   0  0  0  0  0  0
  -24.6792  -31.0637   22.0959 N   0  0  0  0  0  0
  -23.4194  -28.8154   23.3017 O   0  0  0  0  0  0
  -28.3773  -26.5653   20.1781 O   0  0  0  0  0  0
  -26.5611  -34.8904   22.4669 O   0  0  0  0  0  0
  -23.5385  -32.1395   23.7376 O   0  0  0  0  0  0
  -30.6186  -19.7491   20.9947 C   0  0  0  0  0  0
  -31.6440  -18.8030   21.1025 C   0  0  0  0  0  0
  -29.3200  -19.2631   20.8680 C   0  0  0  0  0  0
  -30.1443  -17.0645   20.9200 C   0  0  0  0  0  0
  -28.7592  -21.5994   18.8334 C   0  0  0  0  0  0
  -27.8891  -24.1396   20.9716 C   0  0  0  0  0  0
  -28.5421  -22.7007   21.1580 C   0  0  0  0  0  0
  -28.3969  -25.1307   19.8606 C   0  0  0  0  0  0
  -28.1172  -21.5089   20.2246 C   0  0  2  0  0  0
  -31.4022  -17.4778   21.0651 N   0  0  0  0  0  0
  -29.0958  -17.9173   20.8505 N   0  0  0  0  0  0
  -28.1994  -20.1305   20.7988 N   0  0  0  0  0  0
  -29.8829  -15.6842   20.8730 N   0  0  0  0  0  0
  -31.4705  -12.4764   19.1654 H   0  0  0  0  0  0
  -30.3439  -11.3766   19.9056 H   0  0  0  0  0  0
  -29.7729  -11.7456   17.4847 H   0  0  0  0  0  0
  -29.6613  -13.4679   17.7591 H   0  0  0  0  0  0
  -27.8606  -11.2897   18.8655 H   0  0  0  0  0  0
  -27.3797  -12.5694   17.7865 H   0  0  0  0  0  0
  -27.6651  -14.2526   19.5133 H   0  0  0  0  0  0
  -28.6878  -12.0615   21.3867 H   0  0  0  0  0  0
  -28.4321  -13.7255   21.8352 H   0  0  0  0  0  0
  -25.2745   -9.5720   22.4720 H   0  0  0  0  0  0
  -24.0018   -7.4653   22.7450 H   0  0  0  0  0  0
  -21.0821   -8.8719   19.8946 H   0  0  0  0  0  0
  -22.3622  -10.9641   19.6152 H   0  0  0  0  0  0
  -21.2008   -7.6137   23.9694 H   0  0  0  0  0  0
  -21.1485   -6.0518   25.9066 H   0  0  0  0  0  0
  -22.0598   -2.7596   23.2845 H   0  0  0  0  0  0
  -22.4101  -11.9935   22.4892 H   0  0  0  0  0  0
  -21.1064  -13.1205   22.2568 H   0  0  0  0  0  0
  -24.6580  -15.8441   20.5080 H   0  0  0  0  0  0
  -26.2705  -15.6276   20.0654 H   0  0  0  0  0  0
  -26.7148  -32.5448   23.1097 H   0  0  0  0  0  0
  -25.0050  -33.9720   25.0418 H   0  0  0  0  0  0
  -22.7061  -31.2998   21.3994 H   0  0  0  0  0  0
  -23.3742  -35.9647   23.3290 H   0  0  0  0  0  0
  -24.3587  -36.8934   22.2053 H   0  0  0  0  0  0
  -23.7259  -37.6504   23.6675 H   0  0  0  0  0  0
  -26.0798  -31.5622   20.6017 H   0  0  0  0  0  0
  -26.8308  -30.8457   21.9980 H   0  0  0  0  0  0
  -28.0992  -29.0072   21.1936 H   0  0  0  0  0  0
  -25.9901  -25.9133   19.0371 H   0  0  0  0  0  0
  -23.9719  -27.2878   19.0266 H   0  0  0  0  0  0
  -23.7413  -30.5844   19.3976 H   0  0  0  0  0  0
  -22.7503  -29.2345   19.8605 H   0  0  0  0  0  0
  -25.1297  -36.1915   25.0820 H   0  0  0  0  0  0
  -20.9951  -28.3219   24.1422 H   0  0  0  0  0  0
  -20.5649  -26.2271   23.3601 H   0  0  0  0  0  0
  -21.6629  -26.7415   22.1206 H   0  0  0  0  0  0
  -19.6891  -25.6290   21.1229 H   0  0  0  0  0  0
  -19.6675  -27.3192   20.6743 H   0  0  0  0  0  0
  -17.4188  -26.6652   21.4026 H   0  0  0  0  0  0
  -18.0319  -26.0059   22.9017 H   0  0  0  0  0  0
  -19.7930  -30.7243   24.2281 H   0  0  0  0  0  0
  -17.5009  -31.6262   24.5152 H   0  0  0  0  0  0
  -15.5339  -30.2978   23.7649 H   0  0  0  0  0  0
  -15.8659  -28.0812   22.7063 H   0  0  0  0  0  0
  -24.5891  -30.7090   25.7802 H   0  0  0  0  0  0
  -24.8982  -32.2890   26.4933 H   0  0  0  0  0  0
  -25.8092  -30.8858   27.0209 H   0  0  0  0  0  0
  -26.2897  -29.6751   24.1200 H   0  0  0  0  0  0
  -27.4040  -29.7258   25.4655 H   0  0  0  0  0  0
  -27.8761  -30.4282   23.9370 H   0  0  0  0  0  0
  -27.2621  -33.3598   26.2098 H   0  0  0  0  0  0
  -28.3836  -32.6928   25.0323 H   0  0  0  0  0  0
  -28.0729  -31.8445   26.5384 H   0  0  0  0  0  0
  -28.2575  -38.0109   24.7505 H   0  0  0  0  0  0
  -28.1086  -36.2642   24.6275 H   0  0  0  0  0  0
  -27.2303  -37.1438   25.8858 H   0  0  0  0  0  0
  -20.9337  -29.8776   21.6948 H   0  0  0  0  0  0
  -26.0159  -38.2841   24.1411 H   0  0  0  0  0  0
  -30.8421  -20.8043   21.0365 H   0  0  0  0  0  0
  -32.6735  -19.1093   21.2255 H   0  0  0  0  0  0
  -28.4792  -22.5302   18.3410 H   0  0  0  0  0  0
  -28.4311  -20.7822   18.1899 H   0  0  0  0  0  0
  -29.8481  -21.5697   18.8849 H   0  0  0  0  0  0
  -28.0569  -24.6572   21.9161 H   0  0  0  0  0  0
  -26.8057  -24.0403   20.8998 H   0  0  0  0  0  0
  -28.2729  -22.3940   22.1702 H   0  0  0  0  0  0
  -29.6279  -22.7909   21.1807 H   0  0  0  0  0  0
  -27.9112  -24.9221   18.9074 H   0  0  0  0  0  0
  -29.4471  -24.8968   19.6836 H   0  0  0  0  0  0
  -27.0433  -21.6354   20.0648 H   0  0  0  0  0  0
  -27.3146  -19.6334   20.7990 H   0  0  0  0  0  0
  -28.9222  -15.4546   21.0582 H   0  0  0  0  0  0
  1 25  1  0  0  0
  1 30  2  0  0  0
  1 83  1  0  0  0
  2  3  1  0  0  0
  2 25  1  0  0  0
  2 84  1  0  0  0
  2 85  1  0  0  0
  3  4  1  0  0  0
  3 86  1  0  0  0
  3 87  1  0  0  0
  4  5  1  0  0  0
  4 88  1  0  0  0
  4 89  1  0  0  0
  5  6  1  0  0  0
  5 26  1  0  0  0
  5 90  1  0  0  0
  6 25  1  0  0  0
  6 91  1  0  0  0
  6 92  1  0  0  0
  7  8  2  0  0  0
  7 26  1  0  0  0
  7 29  1  0  0  0
  8  9  1  0  0  0
  8 22  1  0  0  0
  9 10  1  0  0  0
  9 27  2  0  0  0
 10 11  2  0  0  0
 10 15  1  0  0  0
 11 12  1  0  0  0
 11 93  1  0  0  0
 12 13  2  0  0  0
 12 94  1  0  0  0
 13 14  1  0  0  0
 13 31  1  0  0  0
 14 15  2  0  0  0
 14 95  1  0  0  0
 15 96  1  0  0  0
 16 17  2  0  0  0
 16 21  1  0  0  0
 16 31  1  0  0  0
 17 18  1  0  0  0
 17 97  1  0  0  0
 18 19  2  0  0  0
 18 98  1  0  0  0
 19 20  1  0  0  0
 19 24  1  0  0  0
 20 21  2  0  0  0
 20 99  1  0  0  0
 21 23  1  0  0  0
 22 28  1  0  0  0
 22 32  2  0  0  0
 26 27  1  0  0  0
 28100  1  0  0  0
 28101  1  0  0  0
 29102  1  0  0  0
 29103  1  0  0  0
 33 34  1  0  0  0
 33 66  1  0  0  0
 33 70  2  0  0  0
 34 36  1  0  0  0
 34 59  1  0  0  0
 34104  1  0  0  0
 35 44  2  0  0  0
 35 45  1  0  0  0
 35 68  1  0  0  0
 36 56  1  0  0  0
 36105  1  0  0  0
 37 39  1  0  0  0
 37 47  1  0  0  0
 37 66  1  0  0  0
 37106  1  0  0  0
 38 43  2  0  0  0
 38 46  1  0  0  0
 38 47  1  0  0  0
 39 64  1  0  0  0
 39 67  2  0  0  0
 40 52  1  0  0  0
 40 53  2  0  0  0
 40 58  1  0  0  0
 41107  1  0  0  0
 41108  1  0  0  0
 41109  1  0  0  0
 41 48  1  0  0  0
 42 43  1  0  0  0
 42 66  1  0  0  0
 42110  1  0  0  0
 42111  1  0  0  0
 43 44  1  0  0  0
 44112  1  0  0  0
 45 46  2  0  0  0
 45113  1  0  0  0
 46114  1  0  0  0
 47115  1  0  0  0
 47116  1  0  0  0
 48 56  1  0  0  0
 48 65  1  0  0  0
 48117  1  0  0  0
 49 50  1  0  0  0
 49 53  1  0  0  0
 49 64  1  0  0  0
 49118  1  0  0  0
 50 51  1  0  0  0
 50119  1  0  0  0
 50120  1  0  0  0
 51 52  1  0  0  0
 51121  1  0  0  0
 51122  1  0  0  0
 52123  1  0  0  0
 52124  1  0  0  0
 53 54  1  0  0  0
 54 55  2  0  0  0
 54125  1  0  0  0
 55 57  1  0  0  0
 55126  1  0  0  0
 56 69  2  0  0  0
 57 58  2  0  0  0
 57127  1  0  0  0
 58128  1  0  0  0
 59 60  1  0  0  0
 59 61  1  0  0  0
 59 62  1  0  0  0
 60129  1  0  0  0
 60130  1  0  0  0
 60131  1  0  0  0
 61132  1  0  0  0
 61133  1  0  0  0
 61134  1  0  0  0
 62135  1  0  0  0
 62136  1  0  0  0
 62137  1  0  0  0
 63 65  1  0  0  0
 63138  1  0  0  0
 63139  1  0  0  0
 63140  1  0  0  0
 64141  1  0  0  0
 65142  1  0  0  0
 68 78  1  0  0  0
 71 72  2  0  0  0
 71 73  1  0  0  0
 71143  1  0  0  0
 72 80  1  0  0  0
 72144  1  0  0  0
 73 81  2  0  0  0
 73 82  1  0  0  0
 74 80  2  0  0  0
 74 81  1  0  0  0
 74 83  1  0  0  0
 75145  1  0  0  0
 75146  1  0  0  0
 75147  1  0  0  0
 75 79  1  0  0  0
 76 77  1  0  0  0
 76 78  1  0  0  0
 76148  1  0  0  0
 76149  1  0  0  0
 77 79  1  0  0  0
 77150  1  0  0  0
 77151  1  0  0  0
 78152  1  0  0  0
 78153  1  0  0  0
 79 82  1  0  0  0
 79154  1  0  0  0
 82155  1  0  0  0
 83156  1  0  0  0
M  ISO  4   1 100  68 101  78 101  83 100
M  END
> <chiral flag>
0

> <version>
0

> <s_m_source_file>
/data/baiqing/PycharmProjects/Reinvent-master-3.2/result/LINK_invent/BTK/process_docking_weight1_custom_product_contain_oxygen_bond_distance_aromatic_linkinvent_7_9_3/rearranged_h_0196.sdf

> <i_m_source_file_index>
12

> <r_mmod_Potential_Energy-OPLS-2005>
-481.492065429688

> <r_mmod_Stretch_Energy-OPLS-2005>
62.1562042236328

> <r_mmod_Bend_Energy-OPLS-2005>
164.08903503418

> <r_mmod_Torsional_Energy-OPLS-2005>
203.024566650391

> <r_mmod_Improper_Torsional_Energy-OPLS-2005>
6.16581249237061

> <r_mmod_Van_der_Waal_Energy-OPLS-2005>
147.997894287109

> <r_mmod_Electrostatic_Energy-OPLS-2005>
-864.550903320312

> <r_mmod_Solvation_Energy-OPLS-2005>
-237.716796875

> <b_mmod_Minimization_Converged-OPLS-2005>
0

> <r_mmod_RMS_Derivative-OPLS-2005>
2.51385831832886

$$$$
12
                    3D
 Structure written by MMmdl.
150158  0  0  1  0            999 V2000
  -30.7096  -14.5085   20.4920 C   0  0  0  0  0  0
  -30.4139  -12.3075   19.4485 C   0  0  0  0  0  0
  -29.5024  -12.4895   18.2159 C   0  0  0  0  0  0
  -28.0184  -12.3687   18.6199 C   0  0  0  0  0  0
  -27.6563  -13.2218   19.8665 C   0  0  2  0  0  0
  -28.7008  -13.0544   20.9959 C   0  0  0  0  0  0
  -25.2534  -13.8190   20.5652 C   0  0  0  0  0  0
  -24.1798  -13.0452   20.9172 C   0  0  0  0  0  0
  -24.6388  -11.6926   20.8722 C   0  0  0  0  0  0
  -23.9062  -10.4304   21.0384 C   0  0  0  0  0  0
  -24.3614   -9.4220   21.9162 C   0  0  0  0  0  0
  -23.6290   -8.2248   22.0752 C   0  0  0  0  0  0
  -22.4266   -8.0288   21.3543 C   0  0  0  0  0  0
  -21.9894   -9.0253   20.4647 C   0  0  0  0  0  0
  -22.7230  -10.2130   20.3033 C   0  0  0  0  0  0
  -21.6853   -6.0720   22.5263 C   0  0  0  0  0  0
  -21.4028   -6.5619   23.8190 C   0  0  0  0  0  0
  -21.3660   -5.6783   24.9151 C   0  0  0  0  0  0
  -21.6037   -4.3039   24.7215 C   0  0  0  0  0  0
  -21.8818   -3.8130   23.4338 C   0  0  0  0  0  0
  -21.9191   -4.6948   22.3388 C   0  0  0  0  0  0
  -22.7819  -13.5237   21.1840 C   0  0  0  0  0  0
  -22.1654   -4.2141   21.0964 F   0  0  0  0  0  0
  -21.5642   -3.4526   25.7722 F   0  0  0  0  0  0
  -30.0255  -13.3343   20.4289 N   0  0  0  0  0  0
  -26.2991  -12.9401   20.3311 N   0  0  0  0  0  0
  -25.9318  -11.6551   20.5746 N   0  0  0  0  0  0
  -22.0461  -12.8231   22.0405 N   0  0  0  0  0  0
  -25.4229  -15.1912   20.4055 N   0  0  0  0  0  0
  -31.8819  -14.6004   20.1256 O   0  0  0  0  0  0
  -21.6650   -6.8876   21.4231 O   0  0  0  0  0  0
  -22.3480  -14.5539   20.6678 O   0  0  0  0  0  0
  -24.6145  -31.8650   23.2099 C   0  0  0  0  0  0
  -25.9039  -32.4796   23.8381 C   0  0  1  0  0  0
  -27.2192  -27.3990   20.1198 C   0  0  0  0  0  0
  -25.5902  -33.8592   24.2319 N   0  0  0  0  0  0
  -23.4033  -30.4923   21.5460 C   0  0  2  0  0  0
  -24.8531  -28.9619   20.1060 C   0  0  0  0  0  0
  -22.7407  -29.4654   22.4922 C   0  0  0  0  0  0
  -18.0268  -28.1351   22.8477 C   0  0  0  0  0  0
  -24.1492  -36.7318   23.2634 C   0  0  0  0  0  0
  -25.9373  -30.8222   21.3722 C   0  0  0  0  0  0
  -26.0140  -29.4570   20.7164 C   0  0  0  0  0  0
  -27.2025  -28.6837   20.7181 C   0  0  0  0  0  0
  -26.0494  -26.9423   19.4736 C   0  0  0  0  0  0
  -24.8703  -27.7080   19.4735 C   0  0  0  0  0  0
  -23.6157  -29.8288   20.1584 C   0  0  0  0  0  0
  -25.4106  -36.3090   24.0328 C   0  0  1  0  0  0
  -20.5860  -28.3657   23.1285 C   0  0  2  0  0  0
  -20.6751  -26.9381   22.5399 C   0  0  0  0  0  0
  -19.5744  -26.6361   21.5174 C   0  0  0  0  0  0
  -18.1925  -26.7906   22.1597 C   0  0  0  0  0  0
  -19.1513  -28.8819   23.2890 C   0  0  0  0  0  0
  -18.9453  -30.1414   23.8918 C   0  0  0  0  0  0
  -17.6456  -30.6568   24.0546 C   0  0  0  0  0  0
  -25.9029  -34.9456   23.5119 C   0  0  0  0  0  0
  -16.5345  -29.9068   23.6314 C   0  0  0  0  0  0
  -16.7257  -28.6472   23.0362 C   0  0  0  0  0  0
  -26.4478  -31.6579   25.0708 C   0  0  0  0  0  0
  -25.3760  -31.3686   26.1462 C   0  0  0  0  0  0
  -27.0294  -30.3009   24.6107 C   0  0  0  0  0  0
  -27.6052  -32.4298   25.7482 C   0  0  0  0  0  0
  -27.5587  -37.1798   24.8445 C   0  0  0  0  0  0
  -21.4131  -29.3040   22.3683 N   0  0  0  0  0  0
  -26.4292  -37.3782   23.9404 N   0  0  0  0  0  0
  -24.6692  -31.0750   22.1011 N   0  0  0  0  0  0
  -23.4172  -28.8169   23.2947 O   0  0  0  0  0  0
  -28.3400  -26.5891   20.1692 O   0  0  0  0  0  0
  -26.5590  -34.8912   22.4676 O   0  0  0  0  0  0
  -23.5337  -32.1399   23.7498 O   0  0  0  0  0  0
  -28.6734  -20.0536   21.8058 C   0  0  0  0  0  0
  -29.5998  -20.4816   20.8830 C   0  0  0  0  0  0
  -29.8167  -18.1804   20.6546 C   0  0  0  0  0  0
  -29.2477  -24.2708   20.4663 C   0  0  0  0  0  0
  -30.0356  -21.8997   20.5366 C   0  0  0  0  0  0
  -30.4189  -16.9160   20.0808 C   0  0  0  0  0  0
  -28.0965  -25.2686   20.7341 C   0  0  0  0  0  0
  -30.2247  -19.3941   20.2471 N   0  0  0  0  0  0
  -29.0507  -22.9684   20.7739 N   0  0  0  0  0  0
  -29.9802  -15.6326   20.6784 N   0  0  0  0  0  0
  -30.3087  -24.6663   19.9755 O   0  0  0  0  0  0
  -28.5617  -18.3012   21.8837 S   0  0  0  0  0  0
  -31.4642  -12.3711   19.1599 H   0  0  0  0  0  0
  -30.2866  -11.3127   19.8787 H   0  0  0  0  0  0
  -29.7469  -11.7486   17.4544 H   0  0  0  0  0  0
  -29.6859  -13.4640   17.7598 H   0  0  0  0  0  0
  -27.8158  -11.3156   18.8158 H   0  0  0  0  0  0
  -27.3812  -12.6530   17.7829 H   0  0  0  0  0  0
  -27.6849  -14.2634   19.5434 H   0  0  0  0  0  0
  -28.6738  -12.0364   21.3891 H   0  0  0  0  0  0
  -28.4800  -13.7114   21.8374 H   0  0  0  0  0  0
  -25.2764   -9.5694   22.4732 H   0  0  0  0  0  0
  -23.9988   -7.4647   22.7473 H   0  0  0  0  0  0
  -21.0814   -8.8769   19.8973 H   0  0  0  0  0  0
  -22.3683  -10.9650   19.6132 H   0  0  0  0  0  0
  -21.2036   -7.6132   23.9684 H   0  0  0  0  0  0
  -21.1486   -6.0517   25.9053 H   0  0  0  0  0  0
  -22.0611   -2.7597   23.2826 H   0  0  0  0  0  0
  -22.4074  -11.9903   22.4796 H   0  0  0  0  0  0
  -21.1083  -13.1264   22.2643 H   0  0  0  0  0  0
  -24.6576  -15.8488   20.5134 H   0  0  0  0  0  0
  -26.2666  -15.6271   20.0576 H   0  0  0  0  0  0
  -26.7099  -32.5508   23.1126 H   0  0  0  0  0  0
  -25.0070  -33.9746   25.0473 H   0  0  0  0  0  0
  -22.6914  -31.3094   21.4059 H   0  0  0  0  0  0
  -23.3742  -35.9662   23.3278 H   0  0  0  0  0  0
  -24.3603  -36.8954   22.2055 H   0  0  0  0  0  0
  -23.7252  -37.6518   23.6670 H   0  0  0  0  0  0
  -26.0593  -31.5918   20.6087 H   0  0  0  0  0  0
  -26.8214  -30.8700   21.9967 H   0  0  0  0  0  0
  -28.0944  -29.0520   21.2072 H   0  0  0  0  0  0
  -26.0385  -25.9895   18.9650 H   0  0  0  0  0  0
  -23.9855  -27.3334   18.9765 H   0  0  0  0  0  0
  -23.7215  -30.6040   19.3985 H   0  0  0  0  0  0
  -22.7410  -29.2473   19.8629 H   0  0  0  0  0  0
  -25.1280  -36.1947   25.0822 H   0  0  0  0  0  0
  -20.9958  -28.3229   24.1396 H   0  0  0  0  0  0
  -20.5597  -26.2269   23.3585 H   0  0  0  0  0  0
  -21.6631  -26.7390   22.1229 H   0  0  0  0  0  0
  -19.6912  -25.6266   21.1221 H   0  0  0  0  0  0
  -19.6697  -27.3151   20.6687 H   0  0  0  0  0  0
  -17.4182  -26.6626   21.4012 H   0  0  0  0  0  0
  -18.0365  -26.0032   22.8988 H   0  0  0  0  0  0
  -19.7928  -30.7204   24.2328 H   0  0  0  0  0  0
  -17.5017  -31.6262   24.5118 H   0  0  0  0  0  0
  -15.5350  -30.2987   23.7615 H   0  0  0  0  0  0
  -15.8652  -28.0775   22.7117 H   0  0  0  0  0  0
  -24.5926  -30.7036   25.7807 H   0  0  0  0  0  0
  -24.8962  -32.2844   26.4937 H   0  0  0  0  0  0
  -25.8129  -30.8836   27.0203 H   0  0  0  0  0  0
  -26.2825  -29.6777   24.1175 H   0  0  0  0  0  0
  -27.4047  -29.7242   25.4573 H   0  0  0  0  0  0
  -27.8687  -30.4288   23.9263 H   0  0  0  0  0  0
  -27.2661  -33.3579   26.2105 H   0  0  0  0  0  0
  -28.3863  -32.6890   25.0319 H   0  0  0  0  0  0
  -28.0732  -31.8392   26.5372 H   0  0  0  0  0  0
  -28.2564  -38.0138   24.7534 H   0  0  0  0  0  0
  -28.1128  -36.2663   24.6214 H   0  0  0  0  0  0
  -27.2317  -37.1380   25.8854 H   0  0  0  0  0  0
  -20.9254  -29.8809   21.6962 H   0  0  0  0  0  0
  -26.0171  -38.2854   24.1428 H   0  0  0  0  0  0
  -28.0617  -20.6569   22.4633 H   0  0  0  0  0  0
  -30.3350  -21.9453   19.4870 H   0  0  0  0  0  0
  -30.9361  -22.1414   21.1018 H   0  0  0  0  0  0
  -31.5028  -17.0287   20.1441 H   0  0  0  0  0  0
  -30.1764  -16.8851   19.0172 H   0  0  0  0  0  0
  -27.9669  -25.3650   21.8129 H   0  0  0  0  0  0
  -27.1856  -24.8066   20.3569 H   0  0  0  0  0  0
  -28.1613  -22.6945   21.1683 H   0  0  0  0  0  0
  -29.0107  -15.5392   20.9387 H   0  0  0  0  0  0
  1 25  1  0  0  0
  1 30  2  0  0  0
  1 80  1  0  0  0
  2  3  1  0  0  0
  2 25  1  0  0  0
  2 83  1  0  0  0
  2 84  1  0  0  0
  3  4  1  0  0  0
  3 85  1  0  0  0
  3 86  1  0  0  0
  4  5  1  0  0  0
  4 87  1  0  0  0
  4 88  1  0  0  0
  5  6  1  0  0  0
  5 26  1  0  0  0
  5 89  1  0  0  0
  6 25  1  0  0  0
  6 90  1  0  0  0
  6 91  1  0  0  0
  7  8  2  0  0  0
  7 26  1  0  0  0
  7 29  1  0  0  0
  8  9  1  0  0  0
  8 22  1  0  0  0
  9 10  1  0  0  0
  9 27  2  0  0  0
 10 11  2  0  0  0
 10 15  1  0  0  0
 11 12  1  0  0  0
 11 92  1  0  0  0
 12 13  2  0  0  0
 12 93  1  0  0  0
 13 14  1  0  0  0
 13 31  1  0  0  0
 14 15  2  0  0  0
 14 94  1  0  0  0
 15 95  1  0  0  0
 16 17  2  0  0  0
 16 21  1  0  0  0
 16 31  1  0  0  0
 17 18  1  0  0  0
 17 96  1  0  0  0
 18 19  2  0  0  0
 18 97  1  0  0  0
 19 20  1  0  0  0
 19 24  1  0  0  0
 20 21  2  0  0  0
 20 98  1  0  0  0
 21 23  1  0  0  0
 22 28  1  0  0  0
 22 32  2  0  0  0
 26 27  1  0  0  0
 28 99  1  0  0  0
 28100  1  0  0  0
 29101  1  0  0  0
 29102  1  0  0  0
 33 34  1  0  0  0
 33 66  1  0  0  0
 33 70  2  0  0  0
 34 36  1  0  0  0
 34 59  1  0  0  0
 34103  1  0  0  0
 35 44  2  0  0  0
 35 45  1  0  0  0
 35 68  1  0  0  0
 36 56  1  0  0  0
 36104  1  0  0  0
 37 39  1  0  0  0
 37 47  1  0  0  0
 37 66  1  0  0  0
 37105  1  0  0  0
 38 43  2  0  0  0
 38 46  1  0  0  0
 38 47  1  0  0  0
 39 64  1  0  0  0
 39 67  2  0  0  0
 40 52  1  0  0  0
 40 53  2  0  0  0
 40 58  1  0  0  0
 41106  1  0  0  0
 41107  1  0  0  0
 41108  1  0  0  0
 41 48  1  0  0  0
 42 43  1  0  0  0
 42 66  1  0  0  0
 42109  1  0  0  0
 42110  1  0  0  0
 43 44  1  0  0  0
 44111  1  0  0  0
 45 46  2  0  0  0
 45112  1  0  0  0
 46113  1  0  0  0
 47114  1  0  0  0
 47115  1  0  0  0
 48 56  1  0  0  0
 48 65  1  0  0  0
 48116  1  0  0  0
 49 50  1  0  0  0
 49 53  1  0  0  0
 49 64  1  0  0  0
 49117  1  0  0  0
 50 51  1  0  0  0
 50118  1  0  0  0
 50119  1  0  0  0
 51 52  1  0  0  0
 51120  1  0  0  0
 51121  1  0  0  0
 52122  1  0  0  0
 52123  1  0  0  0
 53 54  1  0  0  0
 54 55  2  0  0  0
 54124  1  0  0  0
 55 57  1  0  0  0
 55125  1  0  0  0
 56 69  2  0  0  0
 57 58  2  0  0  0
 57126  1  0  0  0
 58127  1  0  0  0
 59 60  1  0  0  0
 59 61  1  0  0  0
 59 62  1  0  0  0
 60128  1  0  0  0
 60129  1  0  0  0
 60130  1  0  0  0
 61131  1  0  0  0
 61132  1  0  0  0
 61133  1  0  0  0
 62134  1  0  0  0
 62135  1  0  0  0
 62136  1  0  0  0
 63 65  1  0  0  0
 63137  1  0  0  0
 63138  1  0  0  0
 63139  1  0  0  0
 64140  1  0  0  0
 65141  1  0  0  0
 68 77  1  0  0  0
 71 72  2  0  0  0
 71 82  1  0  0  0
 71142  1  0  0  0
 72 75  1  0  0  0
 72 78  1  0  0  0
 73 76  1  0  0  0
 73 78  2  0  0  0
 73 82  1  0  0  0
 74 77  1  0  0  0
 74 79  1  0  0  0
 74 81  2  0  0  0
 75 79  1  0  0  0
 75143  1  0  0  0
 75144  1  0  0  0
 76 80  1  0  0  0
 76145  1  0  0  0
 76146  1  0  0  0
 77147  1  0  0  0
 77148  1  0  0  0
 79149  1  0  0  0
 80150  1  0  0  0
M  ISO  4   1 100  68 101  77 101  80 100
M  END
> <chiral flag>
0

> <version>
0

> <s_m_source_file>
/data/baiqing/PycharmProjects/Reinvent-master-3.2/result/LINK_invent/BTK/process_docking_weight1_custom_product_contain_oxygen_bond_distance_aromatic_linkinvent_7_9_3/rearranged_h_0196.sdf

> <i_m_source_file_index>
13

> <r_mmod_Potential_Energy-OPLS-2005>
-233.041442871094

> <r_mmod_Stretch_Energy-OPLS-2005>
40.5577392578125

> <r_mmod_Bend_Energy-OPLS-2005>
103.887405395508

> <r_mmod_Torsional_Energy-OPLS-2005>
219.487823486328

> <r_mmod_Improper_Torsional_Energy-OPLS-2005>
8.54110240936279

> <r_mmod_Van_der_Waal_Energy-OPLS-2005>
130.857833862305

> <r_mmod_Electrostatic_Energy-OPLS-2005>
-500.830474853516

> <r_mmod_Solvation_Energy-OPLS-2005>
-260.627593994141

> <b_mmod_Minimization_Converged-OPLS-2005>
0

> <r_mmod_RMS_Derivative-OPLS-2005>
3.0688042640686

$$$$
13
                    3D
 Structure written by MMmdl.
153161  0  0  1  0            999 V2000
  -30.6181  -14.7602   20.4061 C   0  0  0  0  0  0
  -30.4343  -12.4558   19.4704 C   0  0  0  0  0  0
  -29.5205  -12.4917   18.2263 C   0  0  0  0  0  0
  -28.0451  -12.3189   18.6366 C   0  0  0  0  0  0
  -27.6425  -13.2303   19.8282 C   0  0  2  0  0  0
  -28.6859  -13.1961   20.9668 C   0  0  0  0  0  0
  -25.2545  -13.8169   20.5650 C   0  0  0  0  0  0
  -24.1834  -13.0428   20.9172 C   0  0  0  0  0  0
  -24.6411  -11.6912   20.8698 C   0  0  0  0  0  0
  -23.9065  -10.4300   21.0394 C   0  0  0  0  0  0
  -24.3635   -9.4228   21.9175 C   0  0  0  0  0  0
  -23.6321   -8.2256   22.0741 C   0  0  0  0  0  0
  -22.4305   -8.0282   21.3524 C   0  0  0  0  0  0
  -21.9918   -9.0257   20.4626 C   0  0  0  0  0  0
  -22.7239  -10.2148   20.3033 C   0  0  0  0  0  0
  -21.6877   -6.0755   22.5277 C   0  0  0  0  0  0
  -21.4036   -6.5645   23.8210 C   0  0  0  0  0  0
  -21.3648   -5.6781   24.9159 C   0  0  0  0  0  0
  -21.6053   -4.3051   24.7213 C   0  0  0  0  0  0
  -21.8823   -3.8144   23.4333 C   0  0  0  0  0  0
  -21.9198   -4.6983   22.3393 C   0  0  0  0  0  0
  -22.7850  -13.5245   21.1827 C   0  0  0  0  0  0
  -22.1667   -4.2165   21.0988 F   0  0  0  0  0  0
  -21.5609   -3.4530   25.7724 F   0  0  0  0  0  0
  -29.9883  -13.5345   20.3830 N   0  0  0  0  0  0
  -26.2949  -12.9370   20.3148 N   0  0  0  0  0  0
  -25.9354  -11.6519   20.5660 N   0  0  0  0  0  0
  -22.0470  -12.8273   22.0384 N   0  0  0  0  0  0
  -25.4214  -15.1911   20.4143 N   0  0  0  0  0  0
  -31.8274  -14.8061   20.1518 O   0  0  0  0  0  0
  -21.6652   -6.8910   21.4238 O   0  0  0  0  0  0
  -22.3582  -14.5575   20.6680 O   0  0  0  0  0  0
  -24.6315  -31.8506   23.1964 C   0  0  0  0  0  0
  -25.9150  -32.4726   23.8303 C   0  0  1  0  0  0
  -27.2305  -27.2649   20.1147 C   0  0  0  0  0  0
  -25.5932  -33.8535   24.2217 N   0  0  0  0  0  0
  -23.4279  -30.4681   21.5424 C   0  0  2  0  0  0
  -24.8720  -28.9087   20.1106 C   0  0  0  0  0  0
  -22.7522  -29.4563   22.4964 C   0  0  0  0  0  0
  -18.0284  -28.1393   22.8498 C   0  0  0  0  0  0
  -24.1487  -36.7290   23.2629 C   0  0  0  0  0  0
  -25.9708  -30.7609   21.3741 C   0  0  0  0  0  0
  -26.0412  -29.3831   20.7165 C   0  0  0  0  0  0
  -27.2179  -28.5714   20.7085 C   0  0  0  0  0  0
  -26.0364  -26.8427   19.4913 C   0  0  0  0  0  0
  -24.8740  -27.6453   19.4924 C   0  0  0  0  0  0
  -23.6445  -29.7984   20.1595 C   0  0  0  0  0  0
  -25.4118  -36.3052   24.0307 C   0  0  1  0  0  0
  -20.5896  -28.3698   23.1313 C   0  0  2  0  0  0
  -20.6797  -26.9423   22.5430 C   0  0  0  0  0  0
  -19.5763  -26.6390   21.5242 C   0  0  0  0  0  0
  -18.1937  -26.7940   22.1636 C   0  0  0  0  0  0
  -19.1539  -28.8866   23.2887 C   0  0  0  0  0  0
  -18.9450  -30.1480   23.8884 C   0  0  0  0  0  0
  -17.6448  -30.6599   24.0566 C   0  0  0  0  0  0
  -25.9059  -34.9426   23.5058 C   0  0  0  0  0  0
  -16.5348  -29.9097   23.6336 C   0  0  0  0  0  0
  -16.7272  -28.6519   23.0357 C   0  0  0  0  0  0
  -26.4485  -31.6583   25.0725 C   0  0  0  0  0  0
  -25.3700  -31.3771   26.1457 C   0  0  0  0  0  0
  -27.0319  -30.2992   24.6233 C   0  0  0  0  0  0
  -27.6019  -32.4348   25.7519 C   0  0  0  0  0  0
  -27.5586  -37.1788   24.8450 C   0  0  0  0  0  0
  -21.4226  -29.3022   22.3705 N   0  0  0  0  0  0
  -26.4282  -37.3771   23.9410 N   0  0  0  0  0  0
  -24.6962  -31.0477   22.0934 N   0  0  0  0  0  0
  -23.4224  -28.8134   23.3098 O   0  0  0  0  0  0
  -28.3620  -26.4223   20.2089 O   0  0  0  0  0  0
  -26.5650  -34.8913   22.4640 O   0  0  0  0  0  0
  -23.5478  -32.1342   23.7267 O   0  0  0  0  0  0
  -30.8892  -17.4425   18.8872 C   0  0  0  0  0  0
  -31.0612  -18.7022   18.3096 C   0  0  0  0  0  0
  -30.0648  -17.3032   20.0163 C   0  0  0  0  0  0
  -29.7051  -19.6980   19.8676 C   0  0  0  0  0  0
  -30.5621  -22.7009   19.0471 C   0  0  0  0  0  0
  -28.4398  -23.6332   20.3460 C   0  0  0  0  0  0
  -28.5228  -25.0743   19.5678 C   0  0  0  0  0  0
  -29.5329  -22.4135   20.1664 C   0  0  1  0  0  0
  -30.4675  -19.8005   18.7973 N   0  0  0  0  0  0
  -29.4632  -18.4878   20.4720 N   0  0  0  0  0  0
  -29.8487  -15.9188   20.5332 N   0  0  0  0  0  0
  -29.0936  -20.9389   20.3001 N   0  0  0  0  0  0
  -31.4776  -12.5678   19.1712 H   0  0  0  0  0  0
  -30.3712  -11.4870   19.9683 H   0  0  0  0  0  0
  -29.8126  -11.7009   17.5346 H   0  0  0  0  0  0
  -29.6480  -13.4315   17.6864 H   0  0  0  0  0  0
  -27.9046  -11.2709   18.9069 H   0  0  0  0  0  0
  -27.3915  -12.4972   17.7807 H   0  0  0  0  0  0
  -27.6285  -14.2454   19.4294 H   0  0  0  0  0  0
  -28.7201  -12.2159   21.4455 H   0  0  0  0  0  0
  -28.4175  -13.9111   21.7449 H   0  0  0  0  0  0
  -25.2785   -9.5744   22.4731 H   0  0  0  0  0  0
  -24.0021   -7.4692   22.7489 H   0  0  0  0  0  0
  -21.0824   -8.8799   19.8974 H   0  0  0  0  0  0
  -22.3679  -10.9694   19.6140 H   0  0  0  0  0  0
  -21.2044   -7.6162   23.9731 H   0  0  0  0  0  0
  -21.1453   -6.0505   25.9076 H   0  0  0  0  0  0
  -22.0610   -2.7613   23.2818 H   0  0  0  0  0  0
  -22.4077  -11.9968   22.4846 H   0  0  0  0  0  0
  -21.1082  -13.1305   22.2501 H   0  0  0  0  0  0
  -24.6451  -15.8294   20.5427 H   0  0  0  0  0  0
  -26.2613  -15.6511   20.0850 H   0  0  0  0  0  0
  -26.7221  -32.5347   23.1043 H   0  0  0  0  0  0
  -25.0070  -33.9658   25.0355 H   0  0  0  0  0  0
  -22.7239  -31.2888   21.3987 H   0  0  0  0  0  0
  -23.3744  -35.9621   23.3250 H   0  0  0  0  0  0
  -24.3584  -36.8971   22.2051 H   0  0  0  0  0  0
  -23.7248  -37.6475   23.6702 H   0  0  0  0  0  0
  -26.1115  -31.5179   20.6010 H   0  0  0  0  0  0
  -26.8491  -30.8072   22.0089 H   0  0  0  0  0  0
  -28.1184  -28.9320   21.1879 H   0  0  0  0  0  0
  -25.9694  -25.8701   19.0264 H   0  0  0  0  0  0
  -23.9754  -27.2747   19.0218 H   0  0  0  0  0  0
  -23.7742  -30.5744   19.4046 H   0  0  0  0  0  0
  -22.7603  -29.2362   19.8550 H   0  0  0  0  0  0
  -25.1292  -36.1861   25.0798 H   0  0  0  0  0  0
  -20.9948  -28.3263   24.1455 H   0  0  0  0  0  0
  -20.5782  -26.2282   23.3621 H   0  0  0  0  0  0
  -21.6656  -26.7517   22.1171 H   0  0  0  0  0  0
  -19.6936  -25.6300   21.1280 H   0  0  0  0  0  0
  -19.6710  -27.3205   20.6775 H   0  0  0  0  0  0
  -17.4224  -26.6707   21.4017 H   0  0  0  0  0  0
  -18.0316  -26.0091   22.9033 H   0  0  0  0  0  0
  -19.7917  -30.7305   24.2260 H   0  0  0  0  0  0
  -17.4993  -31.6275   24.5164 H   0  0  0  0  0  0
  -15.5348  -30.2981   23.7664 H   0  0  0  0  0  0
  -15.8684  -28.0829   22.7073 H   0  0  0  0  0  0
  -24.5867  -30.7112   25.7818 H   0  0  0  0  0  0
  -24.8894  -32.2955   26.4845 H   0  0  0  0  0  0
  -25.8010  -30.8991   27.0263 H   0  0  0  0  0  0
  -26.2895  -29.6782   24.1213 H   0  0  0  0  0  0
  -27.3928  -29.7228   25.4757 H   0  0  0  0  0  0
  -27.8806  -30.4251   23.9511 H   0  0  0  0  0  0
  -27.2586  -33.3651   26.2069 H   0  0  0  0  0  0
  -28.3851  -32.6921   25.0373 H   0  0  0  0  0  0
  -28.0668  -31.8506   26.5474 H   0  0  0  0  0  0
  -28.2542  -38.0142   24.7550 H   0  0  0  0  0  0
  -28.1128  -36.2669   24.6176 H   0  0  0  0  0  0
  -27.2314  -37.1325   25.8851 H   0  0  0  0  0  0
  -20.9452  -29.8644   21.6796 H   0  0  0  0  0  0
  -26.0132  -38.2816   24.1466 H   0  0  0  0  0  0
  -31.3891  -16.6003   18.4295 H   0  0  0  0  0  0
  -31.6692  -18.8346   17.4263 H   0  0  0  0  0  0
  -30.9972  -23.6958   19.1316 H   0  0  0  0  0  0
  -30.1412  -22.5915   18.0460 H   0  0  0  0  0  0
  -31.4352  -22.0524   19.1313 H   0  0  0  0  0  0
  -27.4457  -23.2299   20.1449 H   0  0  0  0  0  0
  -28.4179  -23.8653   21.4108 H   0  0  0  0  0  0
  -27.9177  -25.0098   18.6645 H   0  0  0  0  0  0
  -29.5237  -25.1757   19.1589 H   0  0  0  0  0  0
  -30.1454  -22.5244   21.0627 H   0  0  0  0  0  0
  -28.9220  -15.7513   20.8925 H   0  0  0  0  0  0
  -28.4498  -20.7896   21.0693 H   0  0  0  0  0  0
  1 25  1  0  0  0
  1 30  2  0  0  0
  1 81  1  0  0  0
  2  3  1  0  0  0
  2 25  1  0  0  0
  2 83  1  0  0  0
  2 84  1  0  0  0
  3  4  1  0  0  0
  3 85  1  0  0  0
  3 86  1  0  0  0
  4  5  1  0  0  0
  4 87  1  0  0  0
  4 88  1  0  0  0
  5  6  1  0  0  0
  5 26  1  0  0  0
  5 89  1  0  0  0
  6 25  1  0  0  0
  6 90  1  0  0  0
  6 91  1  0  0  0
  7  8  2  0  0  0
  7 26  1  0  0  0
  7 29  1  0  0  0
  8  9  1  0  0  0
  8 22  1  0  0  0
  9 10  1  0  0  0
  9 27  2  0  0  0
 10 11  2  0  0  0
 10 15  1  0  0  0
 11 12  1  0  0  0
 11 92  1  0  0  0
 12 13  2  0  0  0
 12 93  1  0  0  0
 13 14  1  0  0  0
 13 31  1  0  0  0
 14 15  2  0  0  0
 14 94  1  0  0  0
 15 95  1  0  0  0
 16 17  2  0  0  0
 16 21  1  0  0  0
 16 31  1  0  0  0
 17 18  1  0  0  0
 17 96  1  0  0  0
 18 19  2  0  0  0
 18 97  1  0  0  0
 19 20  1  0  0  0
 19 24  1  0  0  0
 20 21  2  0  0  0
 20 98  1  0  0  0
 21 23  1  0  0  0
 22 28  1  0  0  0
 22 32  2  0  0  0
 26 27  1  0  0  0
 28 99  1  0  0  0
 28100  1  0  0  0
 29101  1  0  0  0
 29102  1  0  0  0
 33 34  1  0  0  0
 33 66  1  0  0  0
 33 70  2  0  0  0
 34 36  1  0  0  0
 34 59  1  0  0  0
 34103  1  0  0  0
 35 44  2  0  0  0
 35 45  1  0  0  0
 35 68  1  0  0  0
 36 56  1  0  0  0
 36104  1  0  0  0
 37 39  1  0  0  0
 37 47  1  0  0  0
 37 66  1  0  0  0
 37105  1  0  0  0
 38 43  2  0  0  0
 38 46  1  0  0  0
 38 47  1  0  0  0
 39 64  1  0  0  0
 39 67  2  0  0  0
 40 52  1  0  0  0
 40 53  2  0  0  0
 40 58  1  0  0  0
 41106  1  0  0  0
 41107  1  0  0  0
 41108  1  0  0  0
 41 48  1  0  0  0
 42 43  1  0  0  0
 42 66  1  0  0  0
 42109  1  0  0  0
 42110  1  0  0  0
 43 44  1  0  0  0
 44111  1  0  0  0
 45 46  2  0  0  0
 45112  1  0  0  0
 46113  1  0  0  0
 47114  1  0  0  0
 47115  1  0  0  0
 48 56  1  0  0  0
 48 65  1  0  0  0
 48116  1  0  0  0
 49 50  1  0  0  0
 49 53  1  0  0  0
 49 64  1  0  0  0
 49117  1  0  0  0
 50 51  1  0  0  0
 50118  1  0  0  0
 50119  1  0  0  0
 51 52  1  0  0  0
 51120  1  0  0  0
 51121  1  0  0  0
 52122  1  0  0  0
 52123  1  0  0  0
 53 54  1  0  0  0
 54 55  2  0  0  0
 54124  1  0  0  0
 55 57  1  0  0  0
 55125  1  0  0  0
 56 69  2  0  0  0
 57 58  2  0  0  0
 57126  1  0  0  0
 58127  1  0  0  0
 59 60  1  0  0  0
 59 61  1  0  0  0
 59 62  1  0  0  0
 60128  1  0  0  0
 60129  1  0  0  0
 60130  1  0  0  0
 61131  1  0  0  0
 61132  1  0  0  0
 61133  1  0  0  0
 62134  1  0  0  0
 62135  1  0  0  0
 62136  1  0  0  0
 63 65  1  0  0  0
 63137  1  0  0  0
 63138  1  0  0  0
 63139  1  0  0  0
 64140  1  0  0  0
 65141  1  0  0  0
 68 77  1  0  0  0
 71 72  2  0  0  0
 71 73  1  0  0  0
 71142  1  0  0  0
 72 79  1  0  0  0
 72143  1  0  0  0
 73 80  2  0  0  0
 73 81  1  0  0  0
 74 79  2  0  0  0
 74 80  1  0  0  0
 74 82  1  0  0  0
 75144  1  0  0  0
 75145  1  0  0  0
 75146  1  0  0  0
 75 78  1  0  0  0
 76 77  1  0  0  0
 76 78  1  0  0  0
 76147  1  0  0  0
 76148  1  0  0  0
 77149  1  0  0  0
 77150  1  0  0  0
 78 82  1  0  0  0
 78151  1  0  0  0
 81152  1  0  0  0
 82153  1  0  0  0
M  ISO  4   1 100  68 101  77 101  81 100
M  END
> <chiral flag>
0

> <version>
0

> <s_m_source_file>
/data/baiqing/PycharmProjects/Reinvent-master-3.2/result/LINK_invent/BTK/process_docking_weight1_custom_product_contain_oxygen_bond_distance_aromatic_linkinvent_7_9_3/rearranged_h_0196.sdf

> <i_m_source_file_index>
14

> <r_mmod_Potential_Energy-OPLS-2005>
-209.2783203125

> <r_mmod_Stretch_Energy-OPLS-2005>
142.45832824707

> <r_mmod_Bend_Energy-OPLS-2005>
218.344635009766

> <r_mmod_Torsional_Energy-OPLS-2005>
239.895004272461

> <r_mmod_Improper_Torsional_Energy-OPLS-2005>
6.00649261474609

> <r_mmod_Van_der_Waal_Energy-OPLS-2005>
157.36930847168

> <r_mmod_Electrostatic_Energy-OPLS-2005>
-821.530212402344

> <r_mmod_Solvation_Energy-OPLS-2005>
-240.732498168945

> <b_mmod_Minimization_Converged-OPLS-2005>
0

> <r_mmod_RMS_Derivative-OPLS-2005>
4.23062992095947

$$$$
14
                    3D
 Structure written by MMmdl.
155163  0  0  1  0            999 V2000
  -30.6130  -14.7889   20.4631 C   0  0  0  0  0  0
  -30.4311  -12.4881   19.4800 C   0  0  0  0  0  0
  -29.5071  -12.5173   18.2423 C   0  0  0  0  0  0
  -28.0345  -12.3385   18.6588 C   0  0  0  0  0  0
  -27.6363  -13.2447   19.8549 C   0  0  2  0  0  0
  -28.6849  -13.2018   20.9871 C   0  0  0  0  0  0
  -25.2371  -13.8134   20.5595 C   0  0  0  0  0  0
  -24.1724  -13.0364   20.9166 C   0  0  0  0  0  0
  -24.6399  -11.6879   20.8769 C   0  0  0  0  0  0
  -23.9097  -10.4255   21.0412 C   0  0  0  0  0  0
  -24.3636   -9.4170   21.9188 C   0  0  0  0  0  0
  -23.6302   -8.2212   22.0747 C   0  0  0  0  0  0
  -22.4287   -8.0263   21.3528 C   0  0  0  0  0  0
  -21.9930   -9.0244   20.4630 C   0  0  0  0  0  0
  -22.7276  -10.2112   20.3047 C   0  0  0  0  0  0
  -21.6855   -6.0732   22.5274 C   0  0  0  0  0  0
  -21.4024   -6.5634   23.8209 C   0  0  0  0  0  0
  -21.3659   -5.6781   24.9169 C   0  0  0  0  0  0
  -21.6042   -4.3047   24.7218 C   0  0  0  0  0  0
  -21.8829   -3.8140   23.4341 C   0  0  0  0  0  0
  -21.9199   -4.6957   22.3399 C   0  0  0  0  0  0
  -22.7747  -13.5133   21.1848 C   0  0  0  0  0  0
  -22.1664   -4.2142   21.0977 F   0  0  0  0  0  0
  -21.5625   -3.4532   25.7734 F   0  0  0  0  0  0
  -29.9790  -13.5636   20.3955 N   0  0  0  0  0  0
  -26.2914  -12.9440   20.3359 N   0  0  0  0  0  0
  -25.9355  -11.6561   20.5841 N   0  0  0  0  0  0
  -22.0437  -12.8137   22.0445 N   0  0  0  0  0  0
  -25.3758  -15.1831   20.3864 N   0  0  0  0  0  0
  -31.8093  -14.8650   20.1711 O   0  0  0  0  0  0
  -21.6638   -6.8871   21.4232 O   0  0  0  0  0  0
  -22.3412  -14.5442   20.6714 O   0  0  0  0  0  0
  -24.6318  -31.8521   23.1937 C   0  0  0  0  0  0
  -25.9134  -32.4740   23.8298 C   0  0  1  0  0  0
  -27.2259  -27.2423   20.1497 C   0  0  0  0  0  0
  -25.5925  -33.8544   24.2227 N   0  0  0  0  0  0
  -23.4303  -30.4721   21.5366 C   0  0  2  0  0  0
  -24.8801  -28.9057   20.1176 C   0  0  0  0  0  0
  -22.7506  -29.4590   22.4891 C   0  0  0  0  0  0
  -18.0295  -28.1391   22.8480 C   0  0  0  0  0  0
  -24.1493  -36.7283   23.2644 C   0  0  0  0  0  0
  -25.9760  -30.7614   21.3743 C   0  0  0  0  0  0
  -26.0515  -29.3784   20.7241 C   0  0  0  0  0  0
  -27.2292  -28.5614   20.7219 C   0  0  0  0  0  0
  -26.0316  -26.8316   19.5244 C   0  0  0  0  0  0
  -24.8752  -27.6399   19.5077 C   0  0  0  0  0  0
  -23.6519  -29.7973   20.1565 C   0  0  0  0  0  0
  -25.4120  -36.3063   24.0324 C   0  0  1  0  0  0
  -20.5899  -28.3704   23.1260 C   0  0  2  0  0  0
  -20.6786  -26.9419   22.5405 C   0  0  0  0  0  0
  -19.5767  -26.6381   21.5211 C   0  0  0  0  0  0
  -18.1944  -26.7928   22.1619 C   0  0  0  0  0  0
  -19.1549  -28.8861   23.2861 C   0  0  0  0  0  0
  -18.9473  -30.1461   23.8886 C   0  0  0  0  0  0
  -17.6474  -30.6590   24.0564 C   0  0  0  0  0  0
  -25.9058  -34.9435   23.5081 C   0  0  0  0  0  0
  -16.5363  -29.9091   23.6337 C   0  0  0  0  0  0
  -16.7283  -28.6507   23.0353 C   0  0  0  0  0  0
  -26.4497  -31.6576   25.0699 C   0  0  0  0  0  0
  -25.3717  -31.3737   26.1417 C   0  0  0  0  0  0
  -27.0348  -30.2991   24.6195 C   0  0  0  0  0  0
  -27.6040  -32.4318   25.7486 C   0  0  0  0  0  0
  -27.5575  -37.1801   24.8468 C   0  0  0  0  0  0
  -21.4209  -29.3046   22.3641 N   0  0  0  0  0  0
  -26.4291  -37.3767   23.9405 N   0  0  0  0  0  0
  -24.6986  -31.0471   22.0916 N   0  0  0  0  0  0
  -23.4195  -28.8139   23.3004 O   0  0  0  0  0  0
  -28.3335  -26.3620   20.1285 O   0  0  0  0  0  0
  -26.5643  -34.8920   22.4657 O   0  0  0  0  0  0
  -23.5465  -32.1346   23.7224 O   0  0  0  0  0  0
  -27.0443  -19.5844   20.6011 C   0  0  0  0  0  0
  -27.8806  -18.4546   20.7581 C   0  0  0  0  0  0
  -29.2733  -18.6555   20.6131 C   0  0  0  0  0  0
  -28.8084  -21.0121   20.4222 C   0  0  0  0  0  0
  -29.1317  -25.0346   21.9522 C   0  0  0  0  0  0
  -30.3089  -17.4216   20.6258 C   0  0  0  0  0  0
  -28.5894  -23.6313   19.8231 C   0  0  0  0  0  0
  -28.2424  -24.9657   20.7040 C   0  0  2  0  0  0
  -27.5025  -20.8398   20.4267 N   0  0  0  0  0  0
  -29.7043  -19.9780   20.4858 N   0  0  0  0  0  0
  -27.3164  -17.2279   21.1223 N   0  0  0  0  0  0
  -29.2277  -22.3828   20.4398 N   0  0  0  0  0  0
  -29.8678  -15.9466   20.6513 N   0  0  0  0  0  0
  -31.4701  -12.6185   19.1729 H   0  0  0  0  0  0
  -30.3843  -11.5182   19.9783 H   0  0  0  0  0  0
  -29.7944  -11.7366   17.5370 H   0  0  0  0  0  0
  -29.6248  -13.4662   17.7165 H   0  0  0  0  0  0
  -27.8954  -11.2916   18.9305 H   0  0  0  0  0  0
  -27.3750  -12.5233   17.8102 H   0  0  0  0  0  0
  -27.6182  -14.2652   19.4704 H   0  0  0  0  0  0
  -28.7308  -12.2115   21.4432 H   0  0  0  0  0  0
  -28.4162  -13.8961   21.7846 H   0  0  0  0  0  0
  -25.2780   -9.5642   22.4769 H   0  0  0  0  0  0
  -24.0004   -7.4605   22.7472 H   0  0  0  0  0  0
  -21.0862   -8.8788   19.8931 H   0  0  0  0  0  0
  -22.3757  -10.9661   19.6155 H   0  0  0  0  0  0
  -21.2027   -7.6143   23.9715 H   0  0  0  0  0  0
  -21.1463   -6.0506   25.9071 H   0  0  0  0  0  0
  -22.0612   -2.7602   23.2844 H   0  0  0  0  0  0
  -22.4078  -11.9801   22.4817 H   0  0  0  0  0  0
  -21.1057  -13.1147   22.2673 H   0  0  0  0  0  0
  -24.5814  -15.8042   20.4843 H   0  0  0  0  0  0
  -26.2538  -15.6834   20.2508 H   0  0  0  0  0  0
  -26.7198  -32.5394   23.1037 H   0  0  0  0  0  0
  -25.0061  -33.9678   25.0366 H   0  0  0  0  0  0
  -22.7285  -31.2947   21.3839 H   0  0  0  0  0  0
  -23.3756  -35.9616   23.3305 H   0  0  0  0  0  0
  -24.3579  -36.8909   22.2058 H   0  0  0  0  0  0
  -23.7247  -37.6484   23.6672 H   0  0  0  0  0  0
  -26.1130  -31.5175   20.5997 H   0  0  0  0  0  0
  -26.8539  -30.8159   22.0065 H   0  0  0  0  0  0
  -28.1308  -28.9226   21.1963 H   0  0  0  0  0  0
  -25.9900  -25.8608   19.0506 H   0  0  0  0  0  0
  -23.9778  -27.2701   19.0314 H   0  0  0  0  0  0
  -23.7833  -30.5688   19.3968 H   0  0  0  0  0  0
  -22.7692  -29.2323   19.8512 H   0  0  0  0  0  0
  -25.1308  -36.1900   25.0818 H   0  0  0  0  0  0
  -21.0000  -28.3286   24.1376 H   0  0  0  0  0  0
  -20.5685  -26.2316   23.3612 H   0  0  0  0  0  0
  -21.6655  -26.7443   22.1205 H   0  0  0  0  0  0
  -19.6932  -25.6288   21.1248 H   0  0  0  0  0  0
  -19.6704  -27.3189   20.6736 H   0  0  0  0  0  0
  -17.4213  -26.6672   21.4022 H   0  0  0  0  0  0
  -18.0343  -26.0077   22.9020 H   0  0  0  0  0  0
  -19.7952  -30.7277   24.2250 H   0  0  0  0  0  0
  -17.5034  -31.6272   24.5166 H   0  0  0  0  0  0
  -15.5368  -30.2995   23.7660 H   0  0  0  0  0  0
  -15.8681  -28.0827   22.7071 H   0  0  0  0  0  0
  -24.5894  -30.7082   25.7750 H   0  0  0  0  0  0
  -24.8911  -32.2915   26.4819 H   0  0  0  0  0  0
  -25.8026  -30.8932   27.0208 H   0  0  0  0  0  0
  -26.2937  -29.6736   24.1206 H   0  0  0  0  0  0
  -27.4022  -29.7257   25.4716 H   0  0  0  0  0  0
  -27.8816  -30.4269   23.9450 H   0  0  0  0  0  0
  -27.2636  -33.3620   26.2048 H   0  0  0  0  0  0
  -28.3868  -32.6870   25.0331 H   0  0  0  0  0  0
  -28.0692  -31.8451   26.5422 H   0  0  0  0  0  0
  -28.2599  -38.0092   24.7501 H   0  0  0  0  0  0
  -28.1065  -36.2620   24.6313 H   0  0  0  0  0  0
  -27.2292  -37.1479   25.8872 H   0  0  0  0  0  0
  -20.9391  -29.8765   21.6846 H   0  0  0  0  0  0
  -26.0167  -38.2840   24.1401 H   0  0  0  0  0  0
  -25.9714  -19.4853   20.6791 H   0  0  0  0  0  0
  -29.0420  -24.1329   22.5583 H   0  0  0  0  0  0
  -30.1804  -25.1520   21.6797 H   0  0  0  0  0  0
  -28.8512  -25.8777   22.5846 H   0  0  0  0  0  0
  -30.9573  -17.5712   21.4887 H   0  0  0  0  0  0
  -30.9522  -17.5482   19.7545 H   0  0  0  0  0  0
  -27.6900  -23.3278   19.2856 H   0  0  0  0  0  0
  -29.2819  -23.9433   19.0416 H   0  0  0  0  0  0
  -27.2241  -24.8256   21.0695 H   0  0  0  0  0  0
  -26.3162  -17.2754   21.3093 H   0  0  0  0  0  0
  -27.7579  -16.8025   21.9334 H   0  0  0  0  0  0
  -30.2274  -22.4791   20.5669 H   0  0  0  0  0  0
  -28.8648  -15.8498   20.7503 H   0  0  0  0  0  0
  1 25  1  0  0  0
  1 30  2  0  0  0
  1 83  1  0  0  0
  2  3  1  0  0  0
  2 25  1  0  0  0
  2 84  1  0  0  0
  2 85  1  0  0  0
  3  4  1  0  0  0
  3 86  1  0  0  0
  3 87  1  0  0  0
  4  5  1  0  0  0
  4 88  1  0  0  0
  4 89  1  0  0  0
  5  6  1  0  0  0
  5 26  1  0  0  0
  5 90  1  0  0  0
  6 25  1  0  0  0
  6 91  1  0  0  0
  6 92  1  0  0  0
  7  8  2  0  0  0
  7 26  1  0  0  0
  7 29  1  0  0  0
  8  9  1  0  0  0
  8 22  1  0  0  0
  9 10  1  0  0  0
  9 27  2  0  0  0
 10 11  2  0  0  0
 10 15  1  0  0  0
 11 12  1  0  0  0
 11 93  1  0  0  0
 12 13  2  0  0  0
 12 94  1  0  0  0
 13 14  1  0  0  0
 13 31  1  0  0  0
 14 15  2  0  0  0
 14 95  1  0  0  0
 15 96  1  0  0  0
 16 17  2  0  0  0
 16 21  1  0  0  0
 16 31  1  0  0  0
 17 18  1  0  0  0
 17 97  1  0  0  0
 18 19  2  0  0  0
 18 98  1  0  0  0
 19 20  1  0  0  0
 19 24  1  0  0  0
 20 21  2  0  0  0
 20 99  1  0  0  0
 21 23  1  0  0  0
 22 28  1  0  0  0
 22 32  2  0  0  0
 26 27  1  0  0  0
 28100  1  0  0  0
 28101  1  0  0  0
 29102  1  0  0  0
 29103  1  0  0  0
 33 34  1  0  0  0
 33 66  1  0  0  0
 33 70  2  0  0  0
 34 36  1  0  0  0
 34 59  1  0  0  0
 34104  1  0  0  0
 35 44  2  0  0  0
 35 45  1  0  0  0
 35 68  1  0  0  0
 36 56  1  0  0  0
 36105  1  0  0  0
 37 39  1  0  0  0
 37 47  1  0  0  0
 37 66  1  0  0  0
 37106  1  0  0  0
 38 43  2  0  0  0
 38 46  1  0  0  0
 38 47  1  0  0  0
 39 64  1  0  0  0
 39 67  2  0  0  0
 40 52  1  0  0  0
 40 53  2  0  0  0
 40 58  1  0  0  0
 41107  1  0  0  0
 41108  1  0  0  0
 41109  1  0  0  0
 41 48  1  0  0  0
 42 43  1  0  0  0
 42 66  1  0  0  0
 42110  1  0  0  0
 42111  1  0  0  0
 43 44  1  0  0  0
 44112  1  0  0  0
 45 46  2  0  0  0
 45113  1  0  0  0
 46114  1  0  0  0
 47115  1  0  0  0
 47116  1  0  0  0
 48 56  1  0  0  0
 48 65  1  0  0  0
 48117  1  0  0  0
 49 50  1  0  0  0
 49 53  1  0  0  0
 49 64  1  0  0  0
 49118  1  0  0  0
 50 51  1  0  0  0
 50119  1  0  0  0
 50120  1  0  0  0
 51 52  1  0  0  0
 51121  1  0  0  0
 51122  1  0  0  0
 52123  1  0  0  0
 52124  1  0  0  0
 53 54  1  0  0  0
 54 55  2  0  0  0
 54125  1  0  0  0
 55 57  1  0  0  0
 55126  1  0  0  0
 56 69  2  0  0  0
 57 58  2  0  0  0
 57127  1  0  0  0
 58128  1  0  0  0
 59 60  1  0  0  0
 59 61  1  0  0  0
 59 62  1  0  0  0
 60129  1  0  0  0
 60130  1  0  0  0
 60131  1  0  0  0
 61132  1  0  0  0
 61133  1  0  0  0
 61134  1  0  0  0
 62135  1  0  0  0
 62136  1  0  0  0
 62137  1  0  0  0
 63 65  1  0  0  0
 63138  1  0  0  0
 63139  1  0  0  0
 63140  1  0  0  0
 64141  1  0  0  0
 65142  1  0  0  0
 68 78  1  0  0  0
 71 72  2  0  0  0
 71 79  1  0  0  0
 71143  1  0  0  0
 72 73  1  0  0  0
 72 81  1  0  0  0
 73 76  1  0  0  0
 73 80  2  0  0  0
 74 79  2  0  0  0
 74 80  1  0  0  0
 74 82  1  0  0  0
 75144  1  0  0  0
 75145  1  0  0  0
 75146  1  0  0  0
 75 78  1  0  0  0
 76 83  1  0  0  0
 76147  1  0  0  0
 76148  1  0  0  0
 77 78  1  0  0  0
 77 82  1  0  0  0
 77149  1  0  0  0
 77150  1  0  0  0
 78151  1  0  0  0
 81152  1  0  0  0
 81153  1  0  0  0
 82154  1  0  0  0
 83155  1  0  0  0
M  ISO  4   1 100  68 101  78 101  83 100
M  END
> <chiral flag>
0

> <version>
0

> <s_m_source_file>
/data/baiqing/PycharmProjects/Reinvent-master-3.2/result/LINK_invent/BTK/process_docking_weight1_custom_product_contain_oxygen_bond_distance_aromatic_linkinvent_7_9_3/rearranged_h_0196.sdf

> <i_m_source_file_index>
15

> <r_mmod_Potential_Energy-OPLS-2005>
-412.086822509766

> <r_mmod_Stretch_Energy-OPLS-2005>
132.329818725586

> <r_mmod_Bend_Energy-OPLS-2005>
185.812271118164

> <r_mmod_Torsional_Energy-OPLS-2005>
245.818054199219

> <r_mmod_Improper_Torsional_Energy-OPLS-2005>
12.2033500671387

> <r_mmod_Van_der_Waal_Energy-OPLS-2005>
147.299362182617

> <r_mmod_Electrostatic_Energy-OPLS-2005>
-994.349304199219

> <r_mmod_Solvation_Energy-OPLS-2005>
-240.054626464844

> <b_mmod_Minimization_Converged-OPLS-2005>
0

> <r_mmod_RMS_Derivative-OPLS-2005>
1.2088451385498

$$$$
15
                    3D
 Structure written by MMmdl.
154162  0  0  1  0            999 V2000
  -30.7008  -14.5007   20.5806 C   0  0  0  0  0  0
  -30.4191  -12.3306   19.4275 C   0  0  0  0  0  0
  -29.4920  -12.4997   18.2078 C   0  0  0  0  0  0
  -28.0186  -12.3383   18.6289 C   0  0  0  0  0  0
  -27.6541  -13.2072   19.8622 C   0  0  2  0  0  0
  -28.6928  -13.0230   20.9905 C   0  0  0  0  0  0
  -25.2558  -13.8156   20.5669 C   0  0  0  0  0  0
  -24.1819  -13.0442   20.9190 C   0  0  0  0  0  0
  -24.6359  -11.6895   20.8739 C   0  0  0  0  0  0
  -23.9031  -10.4292   21.0423 C   0  0  0  0  0  0
  -24.3598   -9.4206   21.9196 C   0  0  0  0  0  0
  -23.6288   -8.2228   22.0752 C   0  0  0  0  0  0
  -22.4273   -8.0272   21.3533 C   0  0  0  0  0  0
  -21.9890   -9.0240   20.4635 C   0  0  0  0  0  0
  -22.7209  -10.2124   20.3063 C   0  0  0  0  0  0
  -21.6848   -6.0728   22.5281 C   0  0  0  0  0  0
  -21.4011   -6.5635   23.8211 C   0  0  0  0  0  0
  -21.3665   -5.6787   24.9174 C   0  0  0  0  0  0
  -21.6050   -4.3050   24.7229 C   0  0  0  0  0  0
  -21.8816   -3.8140   23.4348 C   0  0  0  0  0  0
  -21.9184   -4.6956   22.3404 C   0  0  0  0  0  0
  -22.7851  -13.5250   21.1871 C   0  0  0  0  0  0
  -22.1662   -4.2140   21.0986 F   0  0  0  0  0  0
  -21.5626   -3.4538   25.7740 F   0  0  0  0  0  0
  -30.0203  -13.3301   20.4318 N   0  0  0  0  0  0
  -26.2972  -12.9321   20.3293 N   0  0  0  0  0  0
  -25.9281  -11.6488   20.5744 N   0  0  0  0  0  0
  -22.0475  -12.8243   22.0415 N   0  0  0  0  0  0
  -25.4286  -15.1873   20.4078 N   0  0  0  0  0  0
  -31.8320  -14.6715   20.1191 O   0  0  0  0  0  0
  -21.6625   -6.8879   21.4244 O   0  0  0  0  0  0
  -22.3540  -14.5550   20.6692 O   0  0  0  0  0  0
  -24.6153  -31.8694   23.2099 C   0  0  0  0  0  0
  -25.9041  -32.4834   23.8399 C   0  0  1  0  0  0
  -27.2313  -27.4197   20.1130 C   0  0  0  0  0  0
  -25.5890  -33.8622   24.2333 N   0  0  0  0  0  0
  -23.4041  -30.4910   21.5526 C   0  0  2  0  0  0
  -24.8487  -28.9589   20.1123 C   0  0  0  0  0  0
  -22.7425  -29.4651   22.5013 C   0  0  0  0  0  0
  -18.0277  -28.1380   22.8505 C   0  0  0  0  0  0
  -24.1485  -36.7306   23.2640 C   0  0  0  0  0  0
  -25.9322  -30.8321   21.3631 C   0  0  0  0  0  0
  -26.0090  -29.4665   20.7103 C   0  0  0  0  0  0
  -27.2016  -28.7060   20.7025 C   0  0  0  0  0  0
  -26.0535  -26.9363   19.4964 C   0  0  0  0  0  0
  -24.8674  -27.6954   19.4984 C   0  0  0  0  0  0
  -23.6109  -29.8246   20.1654 C   0  0  0  0  0  0
  -25.4107  -36.3117   24.0345 C   0  0  1  0  0  0
  -20.5865  -28.3656   23.1329 C   0  0  2  0  0  0
  -20.6760  -26.9396   22.5425 C   0  0  0  0  0  0
  -19.5731  -26.6394   21.5225 C   0  0  0  0  0  0
  -18.1920  -26.7931   22.1637 C   0  0  0  0  0  0
  -19.1524  -28.8840   23.2911 C   0  0  0  0  0  0
  -18.9449  -30.1454   23.8913 C   0  0  0  0  0  0
  -17.6445  -30.6585   24.0572 C   0  0  0  0  0  0
  -25.9036  -34.9478   23.5139 C   0  0  0  0  0  0
  -16.5340  -29.9083   23.6331 C   0  0  0  0  0  0
  -16.7266  -28.6499   23.0360 C   0  0  0  0  0  0
  -26.4465  -31.6607   25.0721 C   0  0  0  0  0  0
  -25.3714  -31.3705   26.1456 C   0  0  0  0  0  0
  -27.0300  -30.3054   24.6091 C   0  0  0  0  0  0
  -27.6063  -32.4304   25.7473 C   0  0  0  0  0  0
  -27.5582  -37.1817   24.8476 C   0  0  0  0  0  0
  -21.4150  -29.3025   22.3745 N   0  0  0  0  0  0
  -26.4300  -37.3798   23.9412 N   0  0  0  0  0  0
  -24.6694  -31.0776   22.1015 N   0  0  0  0  0  0
  -23.4192  -28.8208   23.3069 O   0  0  0  0  0  0
  -28.3962  -26.6728   20.1637 O   0  0  0  0  0  0
  -26.5599  -34.8932   22.4700 O   0  0  0  0  0  0
  -23.5331  -32.1444   23.7483 O   0  0  0  0  0  0
  -28.9758  -18.6973   22.0320 C   0  0  0  0  0  0
  -30.2583  -20.1131   20.1282 C   0  0  0  0  0  0
  -30.0229  -18.1086   21.2773 C   0  0  0  0  0  0
  -29.2426  -20.7155   20.9226 C   0  0  0  0  0  0
  -30.6512  -16.7593   21.6768 C   0  0  0  0  0  0
  -29.8070  -23.0829   20.3678 C   0  0  0  0  0  0
  -28.2835  -25.2325   20.1100 C   0  0  0  0  0  0
  -29.4587  -24.5268   20.8473 C   0  0  1  0  0  0
  -30.6496  -18.8198   20.3027 N   0  0  0  0  0  0
  -28.5859  -19.9901   21.8578 N   0  0  0  0  0  0
  -28.8535  -22.0663   20.8313 N   0  0  0  0  0  0
  -30.0381  -15.5054   21.1905 N   0  0  0  0  0  0
  -29.1673  -24.4272   22.2358 O   0  0  0  0  0  0
  -31.4652  -12.4250   19.1287 H   0  0  0  0  0  0
  -30.3246  -11.3253   19.8423 H   0  0  0  0  0  0
  -29.7442  -11.7698   17.4377 H   0  0  0  0  0  0
  -29.6412  -13.4839   17.7627 H   0  0  0  0  0  0
  -27.8614  -11.2850   18.8629 H   0  0  0  0  0  0
  -27.3554  -12.5627   17.7932 H   0  0  0  0  0  0
  -27.6903  -14.2470   19.5372 H   0  0  0  0  0  0
  -28.6765  -11.9961   21.3574 H   0  0  0  0  0  0
  -28.4427  -13.6425   21.8525 H   0  0  0  0  0  0
  -25.2748   -9.5677   22.4769 H   0  0  0  0  0  0
  -23.9987   -7.4622   22.7472 H   0  0  0  0  0  0
  -21.0814   -8.8755   19.8955 H   0  0  0  0  0  0
  -22.3672  -10.9656   19.6167 H   0  0  0  0  0  0
  -21.2009   -7.6139   23.9717 H   0  0  0  0  0  0
  -21.1498   -6.0515   25.9075 H   0  0  0  0  0  0
  -22.0591   -2.7600   23.2843 H   0  0  0  0  0  0
  -22.4075  -11.9903   22.4811 H   0  0  0  0  0  0
  -21.1095  -13.1277   22.2629 H   0  0  0  0  0  0
  -24.6571  -15.8393   20.5017 H   0  0  0  0  0  0
  -26.2740  -15.6207   20.0576 H   0  0  0  0  0  0
  -26.7117  -32.5556   23.1170 H   0  0  0  0  0  0
  -25.0054  -33.9787   25.0486 H   0  0  0  0  0  0
  -22.6917  -31.3076   21.4163 H   0  0  0  0  0  0
  -23.3748  -35.9642   23.3331 H   0  0  0  0  0  0
  -24.3570  -36.8886   22.2051 H   0  0  0  0  0  0
  -23.7240  -37.6522   23.6621 H   0  0  0  0  0  0
  -26.0404  -31.5954   20.5921 H   0  0  0  0  0  0
  -26.8218  -30.8884   21.9790 H   0  0  0  0  0  0
  -28.0946  -29.0917   21.1737 H   0  0  0  0  0  0
  -26.0343  -25.9706   19.0119 H   0  0  0  0  0  0
  -23.9791  -27.3001   19.0251 H   0  0  0  0  0  0
  -23.7161  -30.6010   19.4059 H   0  0  0  0  0  0
  -22.7338  -29.2426   19.8757 H   0  0  0  0  0  0
  -25.1288  -36.1997   25.0842 H   0  0  0  0  0  0
  -20.9956  -28.3223   24.1443 H   0  0  0  0  0  0
  -20.5672  -26.2272   23.3618 H   0  0  0  0  0  0
  -21.6638  -26.7456   22.1210 H   0  0  0  0  0  0
  -19.6886  -25.6315   21.1239 H   0  0  0  0  0  0
  -19.6660  -27.3220   20.6767 H   0  0  0  0  0  0
  -17.4198  -26.6704   21.4034 H   0  0  0  0  0  0
  -18.0293  -26.0070   22.9017 H   0  0  0  0  0  0
  -19.7923  -30.7280   24.2282 H   0  0  0  0  0  0
  -17.4996  -31.6267   24.5170 H   0  0  0  0  0  0
  -15.5338  -30.2983   23.7645 H   0  0  0  0  0  0
  -15.8671  -28.0818   22.7059 H   0  0  0  0  0  0
  -24.5902  -30.7045   25.7771 H   0  0  0  0  0  0
  -24.8868  -32.2846   26.4889 H   0  0  0  0  0  0
  -25.8033  -30.8874   27.0226 H   0  0  0  0  0  0
  -26.2844  -29.6820   24.1137 H   0  0  0  0  0  0
  -27.4079  -29.7292   25.4550 H   0  0  0  0  0  0
  -27.8671  -30.4400   23.9238 H   0  0  0  0  0  0
  -27.2732  -33.3619   26.2062 H   0  0  0  0  0  0
  -28.3857  -32.6834   25.0271 H   0  0  0  0  0  0
  -28.0745  -31.8404   26.5369 H   0  0  0  0  0  0
  -28.2639  -38.0081   24.7500 H   0  0  0  0  0  0
  -28.1044  -36.2612   24.6336 H   0  0  0  0  0  0
  -27.2293  -37.1521   25.8882 H   0  0  0  0  0  0
  -20.9321  -29.8726   21.6946 H   0  0  0  0  0  0
  -26.0195  -38.2889   24.1377 H   0  0  0  0  0  0
  -28.4935  -18.1537   22.8316 H   0  0  0  0  0  0
  -30.7760  -20.6730   19.3631 H   0  0  0  0  0  0
  -30.6344  -16.7152   22.7656 H   0  0  0  0  0  0
  -31.7107  -16.7997   21.4212 H   0  0  0  0  0  0
  -30.7993  -22.8250   20.7461 H   0  0  0  0  0  0
  -29.8851  -23.0616   19.2801 H   0  0  0  0  0  0
  -28.2873  -24.9429   19.0583 H   0  0  0  0  0  0
  -27.3422  -24.8774   20.5347 H   0  0  0  0  0  0
  -30.3547  -25.1372   20.7183 H   0  0  0  0  0  0
  -28.2196  -22.3965   21.5535 H   0  0  0  0  0  0
  -29.0905  -15.3154   21.4769 H   0  0  0  0  0  0
  -29.8304  -23.8641   22.6251 H   0  0  0  0  0  0
  1 25  1  0  0  0
  1 30  2  0  0  0
  1 82  1  0  0  0
  2  3  1  0  0  0
  2 25  1  0  0  0
  2 84  1  0  0  0
  2 85  1  0  0  0
  3  4  1  0  0  0
  3 86  1  0  0  0
  3 87  1  0  0  0
  4  5  1  0  0  0
  4 88  1  0  0  0
  4 89  1  0  0  0
  5  6  1  0  0  0
  5 26  1  0  0  0
  5 90  1  0  0  0
  6 25  1  0  0  0
  6 91  1  0  0  0
  6 92  1  0  0  0
  7  8  2  0  0  0
  7 26  1  0  0  0
  7 29  1  0  0  0
  8  9  1  0  0  0
  8 22  1  0  0  0
  9 10  1  0  0  0
  9 27  2  0  0  0
 10 11  2  0  0  0
 10 15  1  0  0  0
 11 12  1  0  0  0
 11 93  1  0  0  0
 12 13  2  0  0  0
 12 94  1  0  0  0
 13 14  1  0  0  0
 13 31  1  0  0  0
 14 15  2  0  0  0
 14 95  1  0  0  0
 15 96  1  0  0  0
 16 17  2  0  0  0
 16 21  1  0  0  0
 16 31  1  0  0  0
 17 18  1  0  0  0
 17 97  1  0  0  0
 18 19  2  0  0  0
 18 98  1  0  0  0
 19 20  1  0  0  0
 19 24  1  0  0  0
 20 21  2  0  0  0
 20 99  1  0  0  0
 21 23  1  0  0  0
 22 28  1  0  0  0
 22 32  2  0  0  0
 26 27  1  0  0  0
 28100  1  0  0  0
 28101  1  0  0  0
 29102  1  0  0  0
 29103  1  0  0  0
 33 34  1  0  0  0
 33 66  1  0  0  0
 33 70  2  0  0  0
 34 36  1  0  0  0
 34 59  1  0  0  0
 34104  1  0  0  0
 35 44  2  0  0  0
 35 45  1  0  0  0
 35 68  1  0  0  0
 36 56  1  0  0  0
 36105  1  0  0  0
 37 39  1  0  0  0
 37 47  1  0  0  0
 37 66  1  0  0  0
 37106  1  0  0  0
 38 43  2  0  0  0
 38 46  1  0  0  0
 38 47  1  0  0  0
 39 64  1  0  0  0
 39 67  2  0  0  0
 40 52  1  0  0  0
 40 53  2  0  0  0
 40 58  1  0  0  0
 41107  1  0  0  0
 41108  1  0  0  0
 41109  1  0  0  0
 41 48  1  0  0  0
 42 43  1  0  0  0
 42 66  1  0  0  0
 42110  1  0  0  0
 42111  1  0  0  0
 43 44  1  0  0  0
 44112  1  0  0  0
 45 46  2  0  0  0
 45113  1  0  0  0
 46114  1  0  0  0
 47115  1  0  0  0
 47116  1  0  0  0
 48 56  1  0  0  0
 48 65  1  0  0  0
 48117  1  0  0  0
 49 50  1  0  0  0
 49 53  1  0  0  0
 49 64  1  0  0  0
 49118  1  0  0  0
 50 51  1  0  0  0
 50119  1  0  0  0
 50120  1  0  0  0
 51 52  1  0  0  0
 51121  1  0  0  0
 51122  1  0  0  0
 52123  1  0  0  0
 52124  1  0  0  0
 53 54  1  0  0  0
 54 55  2  0  0  0
 54125  1  0  0  0
 55 57  1  0  0  0
 55126  1  0  0  0
 56 69  2  0  0  0
 57 58  2  0  0  0
 57127  1  0  0  0
 58128  1  0  0  0
 59 60  1  0  0  0
 59 61  1  0  0  0
 59 62  1  0  0  0
 60129  1  0  0  0
 60130  1  0  0  0
 60131  1  0  0  0
 61132  1  0  0  0
 61133  1  0  0  0
 61134  1  0  0  0
 62135  1  0  0  0
 62136  1  0  0  0
 62137  1  0  0  0
 63 65  1  0  0  0
 63138  1  0  0  0
 63139  1  0  0  0
 63140  1  0  0  0
 64141  1  0  0  0
 65142  1  0  0  0
 68 77  1  0  0  0
 71 73  2  0  0  0
 71 80  1  0  0  0
 71143  1  0  0  0
 72 74  1  0  0  0
 72 79  2  0  0  0
 72144  1  0  0  0
 73 75  1  0  0  0
 73 79  1  0  0  0
 74 80  2  0  0  0
 74 81  1  0  0  0
 75 82  1  0  0  0
 75145  1  0  0  0
 75146  1  0  0  0
 76 78  1  0  0  0
 76 81  1  0  0  0
 76147  1  0  0  0
 76148  1  0  0  0
 77 78  1  0  0  0
 77149  1  0  0  0
 77150  1  0  0  0
 78 83  1  0  0  0
 78151  1  0  0  0
 81152  1  0  0  0
 82153  1  0  0  0
 83154  1  0  0  0
M  ISO  4   1 100  68 101  77 101  82 100
M  END
> <chiral flag>
0

> <version>
0

> <s_m_source_file>
/data/baiqing/PycharmProjects/Reinvent-master-3.2/result/LINK_invent/BTK/process_docking_weight1_custom_product_contain_oxygen_bond_distance_aromatic_linkinvent_7_9_3/rearranged_h_0196.sdf

> <i_m_source_file_index>
16

> <r_mmod_Potential_Energy-OPLS-2005>
-87.3046646118164

> <r_mmod_Stretch_Energy-OPLS-2005>
43.6412734985352

> <r_mmod_Bend_Energy-OPLS-2005>
107.62606048584

> <r_mmod_Torsional_Energy-OPLS-2005>
237.519256591797

> <r_mmod_Improper_Torsional_Energy-OPLS-2005>
6.55066967010498

> <r_mmod_Van_der_Waal_Energy-OPLS-2005>
161.976959228516

> <r_mmod_Electrostatic_Energy-OPLS-2005>
-404.374938964844

> <r_mmod_Solvation_Energy-OPLS-2005>
-257.6591796875

> <b_mmod_Minimization_Converged-OPLS-2005>
0

> <r_mmod_RMS_Derivative-OPLS-2005>
2.6592059135437

$$$$
16
                    3D
 Structure written by MMmdl.
150158  0  0  1  0            999 V2000
  -30.5933  -14.7050   20.4806 C   0  0  0  0  0  0
  -30.4399  -12.4286   19.4663 C   0  0  0  0  0  0
  -29.5119  -12.5145   18.2328 C   0  0  0  0  0  0
  -28.0355  -12.3428   18.6420 C   0  0  0  0  0  0
  -27.6498  -13.2215   19.8609 C   0  0  2  0  0  0
  -28.6931  -13.1029   20.9948 C   0  0  0  0  0  0
  -25.2542  -13.8176   20.5682 C   0  0  0  0  0  0
  -24.1819  -13.0437   20.9194 C   0  0  0  0  0  0
  -24.6393  -11.6909   20.8739 C   0  0  0  0  0  0
  -23.9063  -10.4292   21.0407 C   0  0  0  0  0  0
  -24.3618   -9.4207   21.9182 C   0  0  0  0  0  0
  -23.6294   -8.2242   22.0755 C   0  0  0  0  0  0
  -22.4275   -8.0281   21.3545 C   0  0  0  0  0  0
  -21.9909   -9.0253   20.4647 C   0  0  0  0  0  0
  -22.7237  -10.2132   20.3055 C   0  0  0  0  0  0
  -21.6856   -6.0735   22.5279 C   0  0  0  0  0  0
  -21.4016   -6.5641   23.8211 C   0  0  0  0  0  0
  -21.3659   -5.6794   24.9174 C   0  0  0  0  0  0
  -21.6043   -4.3056   24.7225 C   0  0  0  0  0  0
  -21.8820   -3.8147   23.4348 C   0  0  0  0  0  0
  -21.9193   -4.6962   22.3403 C   0  0  0  0  0  0
  -22.7840  -13.5225   21.1857 C   0  0  0  0  0  0
  -22.1662   -4.2148   21.0980 F   0  0  0  0  0  0
  -21.5628   -3.4540   25.7738 F   0  0  0  0  0  0
  -30.0038  -13.4623   20.4314 N   0  0  0  0  0  0
  -26.2969  -12.9363   20.3301 N   0  0  0  0  0  0
  -25.9322  -11.6516   20.5751 N   0  0  0  0  0  0
  -22.0484  -12.8216   22.0414 N   0  0  0  0  0  0
  -25.4249  -15.1899   20.4092 N   0  0  0  0  0  0
  -31.7560  -14.8565   20.0892 O   0  0  0  0  0  0
  -21.6640   -6.8878   21.4241 O   0  0  0  0  0  0
  -22.3527  -14.5533   20.6708 O   0  0  0  0  0  0
  -24.6283  -31.8558   23.1978 C   0  0  0  0  0  0
  -25.9116  -32.4757   23.8323 C   0  0  1  0  0  0
  -27.2319  -27.2863   20.1186 C   0  0  0  0  0  0
  -25.5918  -33.8558   24.2249 N   0  0  0  0  0  0
  -23.4238  -30.4768   21.5408 C   0  0  2  0  0  0
  -24.8709  -28.9219   20.1098 C   0  0  0  0  0  0
  -22.7483  -29.4605   22.4922 C   0  0  0  0  0  0
  -18.0288  -28.1383   22.8488 C   0  0  0  0  0  0
  -24.1489  -36.7293   23.2640 C   0  0  0  0  0  0
  -25.9659  -30.7761   21.3723 C   0  0  0  0  0  0
  -26.0388  -29.3995   20.7152 C   0  0  0  0  0  0
  -27.2166  -28.5921   20.7100 C   0  0  0  0  0  0
  -26.0349  -26.8589   19.5008 C   0  0  0  0  0  0
  -24.8727  -27.6588   19.4949 C   0  0  0  0  0  0
  -23.6392  -29.8053   20.1579 C   0  0  0  0  0  0
  -25.4117  -36.3075   24.0324 C   0  0  1  0  0  0
  -20.5888  -28.3691   23.1279 C   0  0  2  0  0  0
  -20.6775  -26.9411   22.5412 C   0  0  0  0  0  0
  -19.5752  -26.6379   21.5214 C   0  0  0  0  0  0
  -18.1931  -26.7926   22.1624 C   0  0  0  0  0  0
  -19.1540  -28.8856   23.2877 C   0  0  0  0  0  0
  -18.9460  -30.1457   23.8893 C   0  0  0  0  0  0
  -17.6459  -30.6585   24.0563 C   0  0  0  0  0  0
  -25.9053  -34.9442   23.5091 C   0  0  0  0  0  0
  -16.5351  -29.9082   23.6332 C   0  0  0  0  0  0
  -16.7274  -28.6501   23.0354 C   0  0  0  0  0  0
  -26.4489  -31.6588   25.0715 C   0  0  0  0  0  0
  -25.3711  -31.3739   26.1437 C   0  0  0  0  0  0
  -27.0338  -30.3005   24.6202 C   0  0  0  0  0  0
  -27.6037  -32.4335   25.7492 C   0  0  0  0  0  0
  -27.5580  -37.1803   24.8462 C   0  0  0  0  0  0
  -21.4194  -29.3038   22.3667 N   0  0  0  0  0  0
  -26.4293  -37.3773   23.9403 N   0  0  0  0  0  0
  -24.6915  -31.0542   22.0937 N   0  0  0  0  0  0
  -23.4194  -28.8154   23.3019 O   0  0  0  0  0  0
  -28.3726  -26.4608   20.1959 O   0  0  0  0  0  0
  -26.5631  -34.8917   22.4664 O   0  0  0  0  0  0
  -23.5438  -32.1368   23.7292 O   0  0  0  0  0  0
  -29.8177  -17.2120   20.6330 C   0  0  0  0  0  0
  -29.3969  -19.7096   20.4598 C   0  0  0  0  0  0
  -28.3969  -22.1479   18.3896 C   0  0  0  0  0  0
  -28.4850  -23.7333   20.4400 C   0  0  0  0  0  0
  -28.4965  -25.1043   19.5816 C   0  0  0  0  0  0
  -29.0412  -22.3646   19.7668 C   0  0  1  0  0  0
  -30.5968  -17.8397   19.7257 N   0  0  0  0  0  0
  -30.3481  -19.2449   19.6214 N   0  0  0  0  0  0
  -29.7893  -15.7550   20.8689 N   0  0  0  0  0  0
  -28.9384  -21.0791   20.5540 N   0  0  0  0  0  0
  -28.7164  -18.3756   21.4505 S   0  0  0  0  0  0
  -31.4805  -12.5601   19.1647 H   0  0  0  0  0  0
  -30.3847  -11.4385   19.9216 H   0  0  0  0  0  0
  -29.7866  -11.7561   17.4984 H   0  0  0  0  0  0
  -29.6446  -13.4783   17.7392 H   0  0  0  0  0  0
  -27.8803  -11.2904   18.8820 H   0  0  0  0  0  0
  -27.3813  -12.5607   17.7970 H   0  0  0  0  0  0
  -27.6592  -14.2525   19.5074 H   0  0  0  0  0  0
  -28.7168  -12.0861   21.3897 H   0  0  0  0  0  0
  -28.4262  -13.7414   21.8380 H   0  0  0  0  0  0
  -25.2766   -9.5681   22.4752 H   0  0  0  0  0  0
  -24.0003   -7.4634   22.7473 H   0  0  0  0  0  0
  -21.0842   -8.8772   19.8951 H   0  0  0  0  0  0
  -22.3699  -10.9670   19.6162 H   0  0  0  0  0  0
  -21.2011   -7.6149   23.9714 H   0  0  0  0  0  0
  -21.1479   -6.0525   25.9077 H   0  0  0  0  0  0
  -22.0600   -2.7609   23.2849 H   0  0  0  0  0  0
  -22.4109  -11.9880   22.4799 H   0  0  0  0  0  0
  -21.1100  -13.1235   22.2619 H   0  0  0  0  0  0
  -24.6530  -15.8400   20.5102 H   0  0  0  0  0  0
  -26.2619  -15.6259   20.0451 H   0  0  0  0  0  0
  -26.7181  -32.5410   23.1065 H   0  0  0  0  0  0
  -25.0049  -33.9695   25.0383 H   0  0  0  0  0  0
  -22.7194  -31.2982   21.3942 H   0  0  0  0  0  0
  -23.3747  -35.9629   23.3302 H   0  0  0  0  0  0
  -24.3575  -36.8921   22.2054 H   0  0  0  0  0  0
  -23.7245  -37.6496   23.6667 H   0  0  0  0  0  0
  -26.1006  -31.5376   20.6028 H   0  0  0  0  0  0
  -26.8447  -30.8250   22.0042 H   0  0  0  0  0  0
  -28.1131  -28.9562   21.1918 H   0  0  0  0  0  0
  -25.9569  -25.8851   19.0433 H   0  0  0  0  0  0
  -23.9738  -27.2827   19.0260 H   0  0  0  0  0  0
  -23.7578  -30.5788   19.3980 H   0  0  0  0  0  0
  -22.7587  -29.2337   19.8590 H   0  0  0  0  0  0
  -25.1300  -36.1924   25.0817 H   0  0  0  0  0  0
  -20.9981  -28.3269   24.1398 H   0  0  0  0  0  0
  -20.5675  -26.2301   23.3614 H   0  0  0  0  0  0
  -21.6644  -26.7435   22.1206 H   0  0  0  0  0  0
  -19.6913  -25.6288   21.1250 H   0  0  0  0  0  0
  -19.6691  -27.3186   20.6740 H   0  0  0  0  0  0
  -17.4202  -26.6675   21.4024 H   0  0  0  0  0  0
  -18.0329  -26.0066   22.9018 H   0  0  0  0  0  0
  -19.7934  -30.7277   24.2258 H   0  0  0  0  0  0
  -17.5011  -31.6265   24.5163 H   0  0  0  0  0  0
  -15.5351  -30.2980   23.7658 H   0  0  0  0  0  0
  -15.8675  -28.0817   22.7070 H   0  0  0  0  0  0
  -24.5879  -30.7099   25.7763 H   0  0  0  0  0  0
  -24.8911  -32.2909   26.4859 H   0  0  0  0  0  0
  -25.8023  -30.8913   27.0216 H   0  0  0  0  0  0
  -26.2925  -29.6752   24.1213 H   0  0  0  0  0  0
  -27.4005  -29.7271   25.4726 H   0  0  0  0  0  0
  -27.8804  -30.4283   23.9453 H   0  0  0  0  0  0
  -27.2635  -33.3632   26.2066 H   0  0  0  0  0  0
  -28.3848  -32.6905   25.0325 H   0  0  0  0  0  0
  -28.0704  -31.8467   26.5415 H   0  0  0  0  0  0
  -28.2597  -38.0100   24.7506 H   0  0  0  0  0  0
  -28.1076  -36.2631   24.6292 H   0  0  0  0  0  0
  -27.2296  -37.1459   25.8864 H   0  0  0  0  0  0
  -20.9376  -29.8755   21.6871 H   0  0  0  0  0  0
  -26.0173  -38.2850   24.1393 H   0  0  0  0  0  0
  -28.5847  -22.9899   17.7234 H   0  0  0  0  0  0
  -27.3165  -22.0218   18.4691 H   0  0  0  0  0  0
  -28.7997  -21.2634   17.8951 H   0  0  0  0  0  0
  -27.4622  -23.5688   20.7802 H   0  0  0  0  0  0
  -29.0653  -23.9110   21.3457 H   0  0  0  0  0  0
  -27.8248  -25.0021   18.7325 H   0  0  0  0  0  0
  -29.4799  -25.1371   19.1120 H   0  0  0  0  0  0
  -30.1085  -22.5164   19.5947 H   0  0  0  0  0  0
  -28.9418  -15.4429   21.3143 H   0  0  0  0  0  0
  -28.2926  -21.1706   21.3320 H   0  0  0  0  0  0
  1 25  1  0  0  0
  1 30  2  0  0  0
  1 79  1  0  0  0
  2  3  1  0  0  0
  2 25  1  0  0  0
  2 82  1  0  0  0
  2 83  1  0  0  0
  3  4  1  0  0  0
  3 84  1  0  0  0
  3 85  1  0  0  0
  4  5  1  0  0  0
  4 86  1  0  0  0
  4 87  1  0  0  0
  5  6  1  0  0  0
  5 26  1  0  0  0
  5 88  1  0  0  0
  6 25  1  0  0  0
  6 89  1  0  0  0
  6 90  1  0  0  0
  7  8  2  0  0  0
  7 26  1  0  0  0
  7 29  1  0  0  0
  8  9  1  0  0  0
  8 22  1  0  0  0
  9 10  1  0  0  0
  9 27  2  0  0  0
 10 11  2  0  0  0
 10 15  1  0  0  0
 11 12  1  0  0  0
 11 91  1  0  0  0
 12 13  2  0  0  0
 12 92  1  0  0  0
 13 14  1  0  0  0
 13 31  1  0  0  0
 14 15  2  0  0  0
 14 93  1  0  0  0
 15 94  1  0  0  0
 16 17  2  0  0  0
 16 21  1  0  0  0
 16 31  1  0  0  0
 17 18  1  0  0  0
 17 95  1  0  0  0
 18 19  2  0  0  0
 18 96  1  0  0  0
 19 20  1  0  0  0
 19 24  1  0  0  0
 20 21  2  0  0  0
 20 97  1  0  0  0
 21 23  1  0  0  0
 22 28  1  0  0  0
 22 32  2  0  0  0
 26 27  1  0  0  0
 28 98  1  0  0  0
 28 99  1  0  0  0
 29100  1  0  0  0
 29101  1  0  0  0
 33 34  1  0  0  0
 33 66  1  0  0  0
 33 70  2  0  0  0
 34 36  1  0  0  0
 34 59  1  0  0  0
 34102  1  0  0  0
 35 44  2  0  0  0
 35 45  1  0  0  0
 35 68  1  0  0  0
 36 56  1  0  0  0
 36103  1  0  0  0
 37 39  1  0  0  0
 37 47  1  0  0  0
 37 66  1  0  0  0
 37104  1  0  0  0
 38 43  2  0  0  0
 38 46  1  0  0  0
 38 47  1  0  0  0
 39 64  1  0  0  0
 39 67  2  0  0  0
 40 52  1  0  0  0
 40 53  2  0  0  0
 40 58  1  0  0  0
 41105  1  0  0  0
 41106  1  0  0  0
 41107  1  0  0  0
 41 48  1  0  0  0
 42 43  1  0  0  0
 42 66  1  0  0  0
 42108  1  0  0  0
 42109  1  0  0  0
 43 44  1  0  0  0
 44110  1  0  0  0
 45 46  2  0  0  0
 45111  1  0  0  0
 46112  1  0  0  0
 47113  1  0  0  0
 47114  1  0  0  0
 48 56  1  0  0  0
 48 65  1  0  0  0
 48115  1  0  0  0
 49 50  1  0  0  0
 49 53  1  0  0  0
 49 64  1  0  0  0
 49116  1  0  0  0
 50 51  1  0  0  0
 50117  1  0  0  0
 50118  1  0  0  0
 51 52  1  0  0  0
 51119  1  0  0  0
 51120  1  0  0  0
 52121  1  0  0  0
 52122  1  0  0  0
 53 54  1  0  0  0
 54 55  2  0  0  0
 54123  1  0  0  0
 55 57  1  0  0  0
 55124  1  0  0  0
 56 69  2  0  0  0
 57 58  2  0  0  0
 57125  1  0  0  0
 58126  1  0  0  0
 59 60  1  0  0  0
 59 61  1  0  0  0
 59 62  1  0  0  0
 60127  1  0  0  0
 60128  1  0  0  0
 60129  1  0  0  0
 61130  1  0  0  0
 61131  1  0  0  0
 61132  1  0  0  0
 62133  1  0  0  0
 62134  1  0  0  0
 62135  1  0  0  0
 63 65  1  0  0  0
 63136  1  0  0  0
 63137  1  0  0  0
 63138  1  0  0  0
 64139  1  0  0  0
 65140  1  0  0  0
 68 75  1  0  0  0
 71 77  2  0  0  0
 71 79  1  0  0  0
 71 81  1  0  0  0
 72 78  2  0  0  0
 72 80  1  0  0  0
 72 81  1  0  0  0
 73141  1  0  0  0
 73142  1  0  0  0
 73143  1  0  0  0
 73 76  1  0  0  0
 74 75  1  0  0  0
 74 76  1  0  0  0
 74144  1  0  0  0
 74145  1  0  0  0
 75146  1  0  0  0
 75147  1  0  0  0
 76 80  1  0  0  0
 76148  1  0  0  0
 77 78  1  0  0  0
 79149  1  0  0  0
 80150  1  0  0  0
M  ISO  4   1 100  68 101  75 101  79 100
M  END
> <chiral flag>
0

> <version>
0

> <s_m_source_file>
/data/baiqing/PycharmProjects/Reinvent-master-3.2/result/LINK_invent/BTK/process_docking_weight1_custom_product_contain_oxygen_bond_distance_aromatic_linkinvent_7_9_3/rearranged_h_0196.sdf

> <i_m_source_file_index>
17

> <r_mmod_Potential_Energy-OPLS-2005>
8.14903545379639

> <r_mmod_Stretch_Energy-OPLS-2005>
100.618583679199

> <r_mmod_Bend_Energy-OPLS-2005>
170.551147460938

> <r_mmod_Torsional_Energy-OPLS-2005>
193.016647338867

> <r_mmod_Improper_Torsional_Energy-OPLS-2005>
3.61410427093506

> <r_mmod_Van_der_Waal_Energy-OPLS-2005>
115.214141845703

> <r_mmod_Electrostatic_Energy-OPLS-2005>
-390.158264160156

> <r_mmod_Solvation_Energy-OPLS-2005>
-250.447280883789

> <b_mmod_Minimization_Converged-OPLS-2005>
0

> <r_mmod_RMS_Derivative-OPLS-2005>
0.501936614513397

$$$$
17
                    3D
 Structure written by MMmdl.
152160  0  0  1  0            999 V2000
  -30.5918  -14.7667   20.4480 C   0  0  0  0  0  0
  -30.4290  -12.4634   19.4871 C   0  0  0  0  0  0
  -29.5132  -12.5103   18.2435 C   0  0  0  0  0  0
  -28.0380  -12.3346   18.6504 C   0  0  0  0  0  0
  -27.6390  -13.2361   19.8494 C   0  0  2  0  0  0
  -28.6782  -13.1783   20.9902 C   0  0  0  0  0  0
  -25.2494  -13.8220   20.5674 C   0  0  0  0  0  0
  -24.1798  -13.0467   20.9237 C   0  0  0  0  0  0
  -24.6383  -11.6939   20.8765 C   0  0  0  0  0  0
  -23.9062  -10.4307   21.0419 C   0  0  0  0  0  0
  -24.3617   -9.4219   21.9193 C   0  0  0  0  0  0
  -23.6292   -8.2254   22.0764 C   0  0  0  0  0  0
  -22.4276   -8.0285   21.3550 C   0  0  0  0  0  0
  -21.9909   -9.0262   20.4657 C   0  0  0  0  0  0
  -22.7237  -10.2145   20.3064 C   0  0  0  0  0  0
  -21.6857   -6.0739   22.5279 C   0  0  0  0  0  0
  -21.4017   -6.5640   23.8212 C   0  0  0  0  0  0
  -21.3656   -5.6789   24.9174 C   0  0  0  0  0  0
  -21.6044   -4.3053   24.7226 C   0  0  0  0  0  0
  -21.8818   -3.8145   23.4344 C   0  0  0  0  0  0
  -21.9194   -4.6963   22.3401 C   0  0  0  0  0  0
  -22.7815  -13.5247   21.1872 C   0  0  0  0  0  0
  -22.1661   -4.2149   21.0980 F   0  0  0  0  0  0
  -21.5622   -3.4532   25.7738 F   0  0  0  0  0  0
  -29.9812  -13.5305   20.4152 N   0  0  0  0  0  0
  -26.2910  -12.9422   20.3248 N   0  0  0  0  0  0
  -25.9307  -11.6567   20.5745 N   0  0  0  0  0  0
  -22.0442  -12.8249   22.0422 N   0  0  0  0  0  0
  -25.4195  -15.1937   20.3971 N   0  0  0  0  0  0
  -31.7713  -14.8687   20.0983 O   0  0  0  0  0  0
  -21.6641   -6.8881   21.4241 O   0  0  0  0  0  0
  -22.3508  -14.5550   20.6701 O   0  0  0  0  0  0
  -24.6328  -31.8522   23.1938 C   0  0  0  0  0  0
  -25.9146  -32.4737   23.8296 C   0  0  1  0  0  0
  -27.2247  -27.2387   20.1301 C   0  0  0  0  0  0
  -25.5933  -33.8541   24.2231 N   0  0  0  0  0  0
  -23.4305  -30.4726   21.5379 C   0  0  2  0  0  0
  -24.8775  -28.9113   20.1088 C   0  0  0  0  0  0
  -22.7504  -29.4594   22.4902 C   0  0  0  0  0  0
  -18.0291  -28.1395   22.8487 C   0  0  0  0  0  0
  -24.1492  -36.7269   23.2642 C   0  0  0  0  0  0
  -25.9764  -30.7583   21.3750 C   0  0  0  0  0  0
  -26.0479  -29.3780   20.7178 C   0  0  0  0  0  0
  -27.2201  -28.5541   20.7153 C   0  0  0  0  0  0
  -26.0254  -26.8367   19.5010 C   0  0  0  0  0  0
  -24.8729  -27.6504   19.4906 C   0  0  0  0  0  0
  -23.6483  -29.7997   20.1560 C   0  0  0  0  0  0
  -25.4121  -36.3059   24.0325 C   0  0  1  0  0  0
  -20.5895  -28.3709   23.1268 C   0  0  2  0  0  0
  -20.6777  -26.9424   22.5411 C   0  0  0  0  0  0
  -19.5751  -26.6394   21.5217 C   0  0  0  0  0  0
  -18.1933  -26.7940   22.1627 C   0  0  0  0  0  0
  -19.1544  -28.8870   23.2872 C   0  0  0  0  0  0
  -18.9463  -30.1473   23.8889 C   0  0  0  0  0  0
  -17.6460  -30.6595   24.0566 C   0  0  0  0  0  0
  -25.9063  -34.9433   23.5087 C   0  0  0  0  0  0
  -16.5353  -29.9092   23.6334 C   0  0  0  0  0  0
  -16.7277  -28.6509   23.0357 C   0  0  0  0  0  0
  -26.4507  -31.6568   25.0692 C   0  0  0  0  0  0
  -25.3720  -31.3720   26.1402 C   0  0  0  0  0  0
  -27.0362  -30.2984   24.6188 C   0  0  0  0  0  0
  -27.6059  -32.4311   25.7466 C   0  0  0  0  0  0
  -27.5578  -37.1791   24.8469 C   0  0  0  0  0  0
  -21.4208  -29.3046   22.3647 N   0  0  0  0  0  0
  -26.4293  -37.3759   23.9411 N   0  0  0  0  0  0
  -24.6994  -31.0471   22.0920 N   0  0  0  0  0  0
  -23.4192  -28.8150   23.3024 O   0  0  0  0  0  0
  -28.3454  -26.3731   20.2153 O   0  0  0  0  0  0
  -26.5639  -34.8915   22.4658 O   0  0  0  0  0  0
  -23.5479  -32.1360   23.7224 O   0  0  0  0  0  0
  -27.3937  -19.6396   21.9222 C   0  0  0  0  0  0
  -28.0910  -18.4576   21.5779 C   0  0  0  0  0  0
  -29.2038  -18.6039   20.7111 C   0  0  0  0  0  0
  -28.7210  -20.9627   20.6213 C   0  0  0  0  0  0
  -30.1540  -17.3659   20.3278 C   0  0  0  0  0  0
  -28.4350  -23.6283   20.6513 C   0  0  0  0  0  0
  -28.4202  -24.9523   19.6971 C   0  0  0  0  0  0
  -27.7068  -20.8640   21.4567 N   0  0  0  0  0  0
  -29.4772  -19.8897   20.2376 N   0  0  0  0  0  0
  -27.6536  -17.2309   22.1009 N   0  0  0  0  0  0
  -28.9564  -22.2889   20.1206 N   0  0  0  0  0  0
  -29.8232  -15.9026   20.6528 N   0  0  0  0  0  0
  -31.4728  -12.5807   19.1911 H   0  0  0  0  0  0
  -30.3664  -11.4886   19.9729 H   0  0  0  0  0  0
  -29.7998  -11.7336   17.5329 H   0  0  0  0  0  0
  -29.6409  -13.4623   17.7260 H   0  0  0  0  0  0
  -27.8928  -11.2863   18.9129 H   0  0  0  0  0  0
  -27.3848  -12.5273   17.7985 H   0  0  0  0  0  0
  -27.6330  -14.2571   19.4665 H   0  0  0  0  0  0
  -28.7120  -12.1836   21.4361 H   0  0  0  0  0  0
  -28.4079  -13.8668   21.7925 H   0  0  0  0  0  0
  -25.2768   -9.5691   22.4767 H   0  0  0  0  0  0
  -24.0002   -7.4643   22.7484 H   0  0  0  0  0  0
  -21.0837   -8.8781   19.8963 H   0  0  0  0  0  0
  -22.3696  -10.9683   19.6168 H   0  0  0  0  0  0
  -21.2014   -7.6149   23.9716 H   0  0  0  0  0  0
  -21.1477   -6.0522   25.9079 H   0  0  0  0  0  0
  -22.0602   -2.7606   23.2847 H   0  0  0  0  0  0
  -22.4054  -11.9931   22.4842 H   0  0  0  0  0  0
  -21.1059  -13.1286   22.2617 H   0  0  0  0  0  0
  -24.6109  -15.8064   20.4075 H   0  0  0  0  0  0
  -26.1864  -15.5628   19.8506 H   0  0  0  0  0  0
  -26.7202  -32.5378   23.1026 H   0  0  0  0  0  0
  -25.0076  -33.9668   25.0373 H   0  0  0  0  0  0
  -22.7287  -31.2958   21.3880 H   0  0  0  0  0  0
  -23.3762  -35.9594   23.3304 H   0  0  0  0  0  0
  -24.3580  -36.8891   22.2056 H   0  0  0  0  0  0
  -23.7238  -37.6466   23.6666 H   0  0  0  0  0  0
  -26.1170  -31.5174   20.6046 H   0  0  0  0  0  0
  -26.8543  -30.8088   22.0077 H   0  0  0  0  0  0
  -28.1171  -28.9082   21.2041 H   0  0  0  0  0  0
  -25.9361  -25.8669   19.0385 H   0  0  0  0  0  0
  -23.9729  -27.2845   19.0157 H   0  0  0  0  0  0
  -23.7702  -30.5724   19.3965 H   0  0  0  0  0  0
  -22.7668  -29.2306   19.8546 H   0  0  0  0  0  0
  -25.1307  -36.1905   25.0817 H   0  0  0  0  0  0
  -20.9993  -28.3294   24.1387 H   0  0  0  0  0  0
  -20.5686  -26.2318   23.3618 H   0  0  0  0  0  0
  -21.6644  -26.7449   22.1199 H   0  0  0  0  0  0
  -19.6913  -25.6305   21.1248 H   0  0  0  0  0  0
  -19.6691  -27.3204   20.6749 H   0  0  0  0  0  0
  -17.4204  -26.6695   21.4027 H   0  0  0  0  0  0
  -18.0328  -26.0082   22.9022 H   0  0  0  0  0  0
  -19.7939  -30.7297   24.2249 H   0  0  0  0  0  0
  -17.5013  -31.6273   24.5169 H   0  0  0  0  0  0
  -15.5353  -30.2990   23.7662 H   0  0  0  0  0  0
  -15.8678  -28.0826   22.7072 H   0  0  0  0  0  0
  -24.5910  -30.7056   25.7718 H   0  0  0  0  0  0
  -24.8893  -32.2890   26.4793 H   0  0  0  0  0  0
  -25.8028  -30.8914   27.0196 H   0  0  0  0  0  0
  -26.2946  -29.6714   24.1221 H   0  0  0  0  0  0
  -27.4055  -29.7261   25.4709 H   0  0  0  0  0  0
  -27.8819  -30.4258   23.9426 H   0  0  0  0  0  0
  -27.2670  -33.3627   26.2012 H   0  0  0  0  0  0
  -28.3883  -32.6844   25.0297 H   0  0  0  0  0  0
  -28.0710  -31.8451   26.5404 H   0  0  0  0  0  0
  -28.2599  -38.0084   24.7511 H   0  0  0  0  0  0
  -28.1071  -36.2615   24.6309 H   0  0  0  0  0  0
  -27.2292  -37.1452   25.8870 H   0  0  0  0  0  0
  -20.9403  -29.8743   21.6820 H   0  0  0  0  0  0
  -26.0173  -38.2835   24.1405 H   0  0  0  0  0  0
  -26.5437  -19.5996   22.5884 H   0  0  0  0  0  0
  -30.3158  -17.4193   19.2516 H   0  0  0  0  0  0
  -31.1253  -17.5771   20.7749 H   0  0  0  0  0  0
  -27.4295  -23.4798   21.0457 H   0  0  0  0  0  0
  -29.0512  -23.8600   21.5202 H   0  0  0  0  0  0
  -27.7166  -24.7934   18.8835 H   0  0  0  0  0  0
  -29.3839  -24.9422   19.1880 H   0  0  0  0  0  0
  -27.1216  -17.3364   22.9622 H   0  0  0  0  0  0
  -27.0224  -16.7295   21.4782 H   0  0  0  0  0  0
  -29.7324  -22.3526   19.4729 H   0  0  0  0  0  0
  -28.8946  -15.7879   21.0389 H   0  0  0  0  0  0
  1 25  1  0  0  0
  1 30  2  0  0  0
  1 82  1  0  0  0
  2  3  1  0  0  0
  2 25  1  0  0  0
  2 83  1  0  0  0
  2 84  1  0  0  0
  3  4  1  0  0  0
  3 85  1  0  0  0
  3 86  1  0  0  0
  4  5  1  0  0  0
  4 87  1  0  0  0
  4 88  1  0  0  0
  5  6  1  0  0  0
  5 26  1  0  0  0
  5 89  1  0  0  0
  6 25  1  0  0  0
  6 90  1  0  0  0
  6 91  1  0  0  0
  7  8  2  0  0  0
  7 26  1  0  0  0
  7 29  1  0  0  0
  8  9  1  0  0  0
  8 22  1  0  0  0
  9 10  1  0  0  0
  9 27  2  0  0  0
 10 11  2  0  0  0
 10 15  1  0  0  0
 11 12  1  0  0  0
 11 92  1  0  0  0
 12 13  2  0  0  0
 12 93  1  0  0  0
 13 14  1  0  0  0
 13 31  1  0  0  0
 14 15  2  0  0  0
 14 94  1  0  0  0
 15 95  1  0  0  0
 16 17  2  0  0  0
 16 21  1  0  0  0
 16 31  1  0  0  0
 17 18  1  0  0  0
 17 96  1  0  0  0
 18 19  2  0  0  0
 18 97  1  0  0  0
 19 20  1  0  0  0
 19 24  1  0  0  0
 20 21  2  0  0  0
 20 98  1  0  0  0
 21 23  1  0  0  0
 22 28  1  0  0  0
 22 32  2  0  0  0
 26 27  1  0  0  0
 28 99  1  0  0  0
 28100  1  0  0  0
 29101  1  0  0  0
 29102  1  0  0  0
 33 34  1  0  0  0
 33 66  1  0  0  0
 33 70  2  0  0  0
 34 36  1  0  0  0
 34 59  1  0  0  0
 34103  1  0  0  0
 35 44  2  0  0  0
 35 45  1  0  0  0
 35 68  1  0  0  0
 36 56  1  0  0  0
 36104  1  0  0  0
 37 39  1  0  0  0
 37 47  1  0  0  0
 37 66  1  0  0  0
 37105  1  0  0  0
 38 43  2  0  0  0
 38 46  1  0  0  0
 38 47  1  0  0  0
 39 64  1  0  0  0
 39 67  2  0  0  0
 40 52  1  0  0  0
 40 53  2  0  0  0
 40 58  1  0  0  0
 41106  1  0  0  0
 41107  1  0  0  0
 41108  1  0  0  0
 41 48  1  0  0  0
 42 43  1  0  0  0
 42 66  1  0  0  0
 42109  1  0  0  0
 42110  1  0  0  0
 43 44  1  0  0  0
 44111  1  0  0  0
 45 46  2  0  0  0
 45112  1  0  0  0
 46113  1  0  0  0
 47114  1  0  0  0
 47115  1  0  0  0
 48 56  1  0  0  0
 48 65  1  0  0  0
 48116  1  0  0  0
 49 50  1  0  0  0
 49 53  1  0  0  0
 49 64  1  0  0  0
 49117  1  0  0  0
 50 51  1  0  0  0
 50118  1  0  0  0
 50119  1  0  0  0
 51 52  1  0  0  0
 51120  1  0  0  0
 51121  1  0  0  0
 52122  1  0  0  0
 52123  1  0  0  0
 53 54  1  0  0  0
 54 55  2  0  0  0
 54124  1  0  0  0
 55 57  1  0  0  0
 55125  1  0  0  0
 56 69  2  0  0  0
 57 58  2  0  0  0
 57126  1  0  0  0
 58127  1  0  0  0
 59 60  1  0  0  0
 59 61  1  0  0  0
 59 62  1  0  0  0
 60128  1  0  0  0
 60129  1  0  0  0
 60130  1  0  0  0
 61131  1  0  0  0
 61132  1  0  0  0
 61133  1  0  0  0
 62134  1  0  0  0
 62135  1  0  0  0
 62136  1  0  0  0
 63 65  1  0  0  0
 63137  1  0  0  0
 63138  1  0  0  0
 63139  1  0  0  0
 64140  1  0  0  0
 65141  1  0  0  0
 68 77  1  0  0  0
 71 72  2  0  0  0
 71 78  1  0  0  0
 71142  1  0  0  0
 72 73  1  0  0  0
 72 80  1  0  0  0
 73 75  1  0  0  0
 73 79  2  0  0  0
 74 78  2  0  0  0
 74 79  1  0  0  0
 74 81  1  0  0  0
 75 82  1  0  0  0
 75143  1  0  0  0
 75144  1  0  0  0
 76 77  1  0  0  0
 76 81  1  0  0  0
 76145  1  0  0  0
 76146  1  0  0  0
 77147  1  0  0  0
 77148  1  0  0  0
 80149  1  0  0  0
 80150  1  0  0  0
 81151  1  0  0  0
 82152  1  0  0  0
M  ISO  4   1 100  68 101  77 101  82 100
M  END
> <chiral flag>
0

> <version>
0

> <s_m_source_file>
/data/baiqing/PycharmProjects/Reinvent-master-3.2/result/LINK_invent/BTK/process_docking_weight1_custom_product_contain_oxygen_bond_distance_aromatic_linkinvent_7_9_3/rearranged_h_0196.sdf

> <i_m_source_file_index>
18

> <r_mmod_Potential_Energy-OPLS-2005>
-421.136749267578

> <r_mmod_Stretch_Energy-OPLS-2005>
130.467483520508

> <r_mmod_Bend_Energy-OPLS-2005>
189.622711181641

> <r_mmod_Torsional_Energy-OPLS-2005>
210.812515258789

> <r_mmod_Improper_Torsional_Energy-OPLS-2005>
14.2299947738647

> <r_mmod_Van_der_Waal_Energy-OPLS-2005>
145.3212890625

> <r_mmod_Electrostatic_Energy-OPLS-2005>
-955.867736816406

> <r_mmod_Solvation_Energy-OPLS-2005>
-250.252258300781

> <b_mmod_Minimization_Converged-OPLS-2005>
0

> <r_mmod_RMS_Derivative-OPLS-2005>
1.21152472496033

$$$$
18
                    3D
 Structure written by MMmdl.
163171  0  0  1  0            999 V2000
  -30.6569  -14.5578   20.5301 C   0  0  0  0  0  0
  -30.4340  -12.3489   19.4334 C   0  0  0  0  0  0
  -29.5006  -12.4976   18.2125 C   0  0  0  0  0  0
  -28.0228  -12.3474   18.6287 C   0  0  0  0  0  0
  -27.6573  -13.2090   19.8665 C   0  0  2  0  0  0
  -28.7021  -13.0298   20.9908 C   0  0  0  0  0  0
  -25.2576  -13.8163   20.5664 C   0  0  0  0  0  0
  -24.1837  -13.0441   20.9178 C   0  0  0  0  0  0
  -24.6395  -11.6905   20.8735 C   0  0  0  0  0  0
  -23.9063  -10.4292   21.0403 C   0  0  0  0  0  0
  -24.3612   -9.4208   21.9185 C   0  0  0  0  0  0
  -23.6288   -8.2243   22.0756 C   0  0  0  0  0  0
  -22.4275   -8.0283   21.3544 C   0  0  0  0  0  0
  -21.9907   -9.0253   20.4645 C   0  0  0  0  0  0
  -22.7236  -10.2131   20.3053 C   0  0  0  0  0  0
  -21.6855   -6.0731   22.5276 C   0  0  0  0  0  0
  -21.4013   -6.5635   23.8209 C   0  0  0  0  0  0
  -21.3658   -5.6789   24.9171 C   0  0  0  0  0  0
  -21.6045   -4.3052   24.7222 C   0  0  0  0  0  0
  -21.8822   -3.8144   23.4345 C   0  0  0  0  0  0
  -21.9192   -4.6958   22.3400 C   0  0  0  0  0  0
  -22.7859  -13.5231   21.1848 C   0  0  0  0  0  0
  -22.1664   -4.2145   21.0977 F   0  0  0  0  0  0
  -21.5628   -3.4538   25.7736 F   0  0  0  0  0  0
  -30.0229  -13.3537   20.4287 N   0  0  0  0  0  0
  -26.3009  -12.9328   20.3329 N   0  0  0  0  0  0
  -25.9322  -11.6491   20.5755 N   0  0  0  0  0  0
  -22.0513  -12.8214   22.0406 N   0  0  0  0  0  0
  -25.4288  -15.1881   20.4048 N   0  0  0  0  0  0
  -31.8193  -14.7251   20.1518 O   0  0  0  0  0  0
  -21.6639   -6.8880   21.4241 O   0  0  0  0  0  0
  -22.3544  -14.5545   20.6701 O   0  0  0  0  0  0
  -24.6198  -31.8649   23.2056 C   0  0  0  0  0  0
  -25.9069  -32.4808   23.8375 C   0  0  1  0  0  0
  -27.2333  -27.3788   20.1156 C   0  0  0  0  0  0
  -25.5909  -33.8605   24.2310 N   0  0  0  0  0  0
  -23.4109  -30.4862   21.5479 C   0  0  2  0  0  0
  -24.8591  -28.9423   20.1187 C   0  0  0  0  0  0
  -22.7440  -29.4646   22.4981 C   0  0  0  0  0  0
  -18.0277  -28.1379   22.8491 C   0  0  0  0  0  0
  -24.1486  -36.7302   23.2639 C   0  0  0  0  0  0
  -25.9445  -30.8141   21.3659 C   0  0  0  0  0  0
  -26.0233  -29.4423   20.7167 C   0  0  0  0  0  0
  -27.2160  -28.6712   20.7062 C   0  0  0  0  0  0
  -26.0517  -26.9097   19.5069 C   0  0  0  0  0  0
  -24.8706  -27.6769   19.5088 C   0  0  0  0  0  0
  -23.6230  -29.8154   20.1649 C   0  0  0  0  0  0
  -25.4106  -36.3099   24.0336 C   0  0  1  0  0  0
  -20.5869  -28.3678   23.1304 C   0  0  2  0  0  0
  -20.6768  -26.9411   22.5407 C   0  0  0  0  0  0
  -19.5747  -26.6388   21.5208 C   0  0  0  0  0  0
  -18.1926  -26.7922   22.1620 C   0  0  0  0  0  0
  -19.1527  -28.8842   23.2891 C   0  0  0  0  0  0
  -18.9455  -30.1445   23.8906 C   0  0  0  0  0  0
  -17.6457  -30.6586   24.0567 C   0  0  0  0  0  0
  -25.9039  -34.9468   23.5123 C   0  0  0  0  0  0
  -16.5347  -29.9087   23.6330 C   0  0  0  0  0  0
  -16.7264  -28.6502   23.0354 C   0  0  0  0  0  0
  -26.4478  -31.6591   25.0717 C   0  0  0  0  0  0
  -25.3729  -31.3687   26.1455 C   0  0  0  0  0  0
  -27.0327  -30.3037   24.6104 C   0  0  0  0  0  0
  -27.6053  -32.4311   25.7482 C   0  0  0  0  0  0
  -27.5575  -37.1803   24.8468 C   0  0  0  0  0  0
  -21.4162  -29.3037   22.3714 N   0  0  0  0  0  0
  -26.4290  -37.3786   23.9408 N   0  0  0  0  0  0
  -24.6770  -31.0700   22.0983 N   0  0  0  0  0  0
  -23.4185  -28.8196   23.3049 O   0  0  0  0  0  0
  -28.3814  -26.5984   20.0873 O   0  0  0  0  0  0
  -26.5609  -34.8928   22.4690 O   0  0  0  0  0  0
  -23.5376  -32.1429   23.7415 O   0  0  0  0  0  0
  -30.1224  -17.5641   17.2509 C   0  0  0  0  0  0
  -29.9396  -18.9477   17.0800 C   0  0  0  0  0  0
  -30.0064  -17.8168   19.5574 C   0  0  0  0  0  0
  -29.7812  -19.2413   19.3829 C   0  0  0  0  0  0
  -26.6154  -19.5266   20.3314 C   0  0  0  0  0  0
  -30.1614  -17.0649   20.9020 C   0  0  0  0  0  0
  -27.2285  -20.8138   20.9047 C   0  0  0  0  0  0
  -28.9577  -22.7137   20.6798 C   0  0  0  0  0  0
  -28.3489  -25.3199   20.7913 C   0  0  0  0  0  0
  -28.5343  -21.2620   20.2047 C   0  0  1  0  0  0
  -28.3430  -23.9852   19.9470 C   0  0  2  0  0  0
  -30.1577  -17.0042   18.4788 N   0  0  0  0  0  0
  -29.7712  -19.7747   18.1349 N   0  0  0  0  0  0
  -29.5619  -20.1969   20.4104 N   0  0  0  0  0  0
  -29.8694  -15.5977   20.8992 N   0  0  0  0  0  0
  -26.9970  -23.7295   19.5877 O   0  0  0  0  0  0
  -31.4758  -12.4679   19.1301 H   0  0  0  0  0  0
  -30.3574  -11.3466   19.8572 H   0  0  0  0  0  0
  -29.7503  -11.7521   17.4560 H   0  0  0  0  0  0
  -29.6546  -13.4717   17.7451 H   0  0  0  0  0  0
  -27.8505  -11.2934   18.8512 H   0  0  0  0  0  0
  -27.3675  -12.5911   17.7918 H   0  0  0  0  0  0
  -27.6875  -14.2488   19.5410 H   0  0  0  0  0  0
  -28.6983  -12.0020   21.3573 H   0  0  0  0  0  0
  -28.4611  -13.6511   21.8549 H   0  0  0  0  0  0
  -25.2764   -9.5683   22.4754 H   0  0  0  0  0  0
  -23.9996   -7.4638   22.7478 H   0  0  0  0  0  0
  -21.0840   -8.8771   19.8952 H   0  0  0  0  0  0
  -22.3700  -10.9666   19.6153 H   0  0  0  0  0  0
  -21.2004   -7.6146   23.9705 H   0  0  0  0  0  0
  -21.1477   -6.0525   25.9072 H   0  0  0  0  0  0
  -22.0599   -2.7605   23.2848 H   0  0  0  0  0  0
  -22.4137  -11.9862   22.4768 H   0  0  0  0  0  0
  -21.1129  -13.1226   22.2625 H   0  0  0  0  0  0
  -24.6593  -15.8413   20.5062 H   0  0  0  0  0  0
  -26.2695  -15.6231   20.0478 H   0  0  0  0  0  0
  -26.7142  -32.5515   23.1140 H   0  0  0  0  0  0
  -25.0068  -33.9757   25.0462 H   0  0  0  0  0  0
  -22.7020  -31.3045   21.4045 H   0  0  0  0  0  0
  -23.3750  -35.9635   23.3312 H   0  0  0  0  0  0
  -24.3579  -36.8909   22.2052 H   0  0  0  0  0  0
  -23.7238  -37.6506   23.6654 H   0  0  0  0  0  0
  -26.0600  -31.5754   20.5930 H   0  0  0  0  0  0
  -26.8313  -30.8729   21.9852 H   0  0  0  0  0  0
  -28.1166  -29.0554   21.1653 H   0  0  0  0  0  0
  -26.0395  -25.9477   19.0198 H   0  0  0  0  0  0
  -23.9788  -27.2856   19.0381 H   0  0  0  0  0  0
  -23.7364  -30.5896   19.4048 H   0  0  0  0  0  0
  -22.7451  -29.2381   19.8685 H   0  0  0  0  0  0
  -25.1280  -36.1965   25.0828 H   0  0  0  0  0  0
  -20.9957  -28.3248   24.1427 H   0  0  0  0  0  0
  -20.5682  -26.2285   23.3598 H   0  0  0  0  0  0
  -21.6640  -26.7459   22.1195 H   0  0  0  0  0  0
  -19.6916  -25.6305   21.1231 H   0  0  0  0  0  0
  -19.6683  -27.3209   20.6750 H   0  0  0  0  0  0
  -17.4193  -26.6675   21.4023 H   0  0  0  0  0  0
  -18.0324  -26.0058   22.9013 H   0  0  0  0  0  0
  -19.7934  -30.7252   24.2289 H   0  0  0  0  0  0
  -17.5017  -31.6271   24.5164 H   0  0  0  0  0  0
  -15.5351  -30.2995   23.7648 H   0  0  0  0  0  0
  -15.8665  -28.0827   22.7070 H   0  0  0  0  0  0
  -24.5922  -30.7020   25.7774 H   0  0  0  0  0  0
  -24.8893  -32.2833   26.4898 H   0  0  0  0  0  0
  -25.8068  -30.8857   27.0220 H   0  0  0  0  0  0
  -26.2887  -29.6780   24.1162 H   0  0  0  0  0  0
  -27.4111  -29.7284   25.4562 H   0  0  0  0  0  0
  -27.8708  -30.4361   23.9258 H   0  0  0  0  0  0
  -27.2692  -33.3619   26.2063 H   0  0  0  0  0  0
  -28.3863  -32.6855   25.0304 H   0  0  0  0  0  0
  -28.0728  -31.8432   26.5393 H   0  0  0  0  0  0
  -28.2598  -38.0096   24.7520 H   0  0  0  0  0  0
  -28.1068  -36.2629   24.6296 H   0  0  0  0  0  0
  -27.2294  -37.1455   25.8871 H   0  0  0  0  0  0
  -20.9336  -29.8760   21.6927 H   0  0  0  0  0  0
  -26.0180  -38.2865   24.1410 H   0  0  0  0  0  0
  -30.2521  -16.9085   16.4020 H   0  0  0  0  0  0
  -29.9243  -19.3908   16.0954 H   0  0  0  0  0  0
  -25.6417  -19.3293   20.7802 H   0  0  0  0  0  0
  -27.2424  -18.6581   20.5300 H   0  0  0  0  0  0
  -26.4754  -19.6015   19.2528 H   0  0  0  0  0  0
  -29.5047  -17.5360   21.6333 H   0  0  0  0  0  0
  -31.1792  -17.2263   21.2596 H   0  0  0  0  0  0
  -27.4012  -20.6866   21.9743 H   0  0  0  0  0  0
  -26.4749  -21.5964   20.8296 H   0  0  0  0  0  0
  -30.0420  -22.8032   20.5969 H   0  0  0  0  0  0
  -28.7580  -22.7952   21.7493 H   0  0  0  0  0  0
  -29.2661  -25.3186   21.3809 H   0  0  0  0  0  0
  -27.5475  -25.3043   21.5332 H   0  0  0  0  0  0
  -28.3063  -21.3579   19.1436 H   0  0  0  0  0  0
  -28.9100  -24.1483   19.0290 H   0  0  0  0  0  0
  -29.5976  -19.8198   21.3516 H   0  0  0  0  0  0
  -28.9259  -15.3472   21.1495 H   0  0  0  0  0  0
  -26.9972  -23.0679   18.9043 H   0  0  0  0  0  0
  1 25  1  0  0  0
  1 30  2  0  0  0
  1 85  1  0  0  0
  2  3  1  0  0  0
  2 25  1  0  0  0
  2 87  1  0  0  0
  2 88  1  0  0  0
  3  4  1  0  0  0
  3 89  1  0  0  0
  3 90  1  0  0  0
  4  5  1  0  0  0
  4 91  1  0  0  0
  4 92  1  0  0  0
  5  6  1  0  0  0
  5 26  1  0  0  0
  5 93  1  0  0  0
  6 25  1  0  0  0
  6 94  1  0  0  0
  6 95  1  0  0  0
  7  8  2  0  0  0
  7 26  1  0  0  0
  7 29  1  0  0  0
  8  9  1  0  0  0
  8 22  1  0  0  0
  9 10  1  0  0  0
  9 27  2  0  0  0
 10 11  2  0  0  0
 10 15  1  0  0  0
 11 12  1  0  0  0
 11 96  1  0  0  0
 12 13  2  0  0  0
 12 97  1  0  0  0
 13 14  1  0  0  0
 13 31  1  0  0  0
 14 15  2  0  0  0
 14 98  1  0  0  0
 15 99  1  0  0  0
 16 17  2  0  0  0
 16 21  1  0  0  0
 16 31  1  0  0  0
 17 18  1  0  0  0
 17100  1  0  0  0
 18 19  2  0  0  0
 18101  1  0  0  0
 19 20  1  0  0  0
 19 24  1  0  0  0
 20 21  2  0  0  0
 20102  1  0  0  0
 21 23  1  0  0  0
 22 28  1  0  0  0
 22 32  2  0  0  0
 26 27  1  0  0  0
 28103  1  0  0  0
 28104  1  0  0  0
 29105  1  0  0  0
 29106  1  0  0  0
 33 34  1  0  0  0
 33 66  1  0  0  0
 33 70  2  0  0  0
 34 36  1  0  0  0
 34 59  1  0  0  0
 34107  1  0  0  0
 35 44  2  0  0  0
 35 45  1  0  0  0
 35 68  1  0  0  0
 36 56  1  0  0  0
 36108  1  0  0  0
 37 39  1  0  0  0
 37 47  1  0  0  0
 37 66  1  0  0  0
 37109  1  0  0  0
 38 43  2  0  0  0
 38 46  1  0  0  0
 38 47  1  0  0  0
 39 64  1  0  0  0
 39 67  2  0  0  0
 40 52  1  0  0  0
 40 53  2  0  0  0
 40 58  1  0  0  0
 41110  1  0  0  0
 41111  1  0  0  0
 41112  1  0  0  0
 41 48  1  0  0  0
 42 43  1  0  0  0
 42 66  1  0  0  0
 42113  1  0  0  0
 42114  1  0  0  0
 43 44  1  0  0  0
 44115  1  0  0  0
 45 46  2  0  0  0
 45116  1  0  0  0
 46117  1  0  0  0
 47118  1  0  0  0
 47119  1  0  0  0
 48 56  1  0  0  0
 48 65  1  0  0  0
 48120  1  0  0  0
 49 50  1  0  0  0
 49 53  1  0  0  0
 49 64  1  0  0  0
 49121  1  0  0  0
 50 51  1  0  0  0
 50122  1  0  0  0
 50123  1  0  0  0
 51 52  1  0  0  0
 51124  1  0  0  0
 51125  1  0  0  0
 52126  1  0  0  0
 52127  1  0  0  0
 53 54  1  0  0  0
 54 55  2  0  0  0
 54128  1  0  0  0
 55 57  1  0  0  0
 55129  1  0  0  0
 56 69  2  0  0  0
 57 58  2  0  0  0
 57130  1  0  0  0
 58131  1  0  0  0
 59 60  1  0  0  0
 59 61  1  0  0  0
 59 62  1  0  0  0
 60132  1  0  0  0
 60133  1  0  0  0
 60134  1  0  0  0
 61135  1  0  0  0
 61136  1  0  0  0
 61137  1  0  0  0
 62138  1  0  0  0
 62139  1  0  0  0
 62140  1  0  0  0
 63 65  1  0  0  0
 63141  1  0  0  0
 63142  1  0  0  0
 63143  1  0  0  0
 64144  1  0  0  0
 65145  1  0  0  0
 68 79  1  0  0  0
 71 72  2  0  0  0
 71 82  1  0  0  0
 71146  1  0  0  0
 72 83  1  0  0  0
 72147  1  0  0  0
 73 74  1  0  0  0
 73 76  1  0  0  0
 73 82  2  0  0  0
 74 83  2  0  0  0
 74 84  1  0  0  0
 75 77  1  0  0  0
 75148  1  0  0  0
 75149  1  0  0  0
 75150  1  0  0  0
 76 85  1  0  0  0
 76151  1  0  0  0
 76152  1  0  0  0
 77153  1  0  0  0
 77154  1  0  0  0
 77 80  1  0  0  0
 78 80  1  0  0  0
 78 81  1  0  0  0
 78155  1  0  0  0
 78156  1  0  0  0
 79 81  1  0  0  0
 79157  1  0  0  0
 79158  1  0  0  0
 80 84  1  0  0  0
 80159  1  0  0  0
 81 86  1  0  0  0
 81160  1  0  0  0
 84161  1  0  0  0
 85162  1  0  0  0
 86163  1  0  0  0
M  ISO  4   1 100  68 101  79 101  85 100
M  END
> <chiral flag>
0

> <version>
0

> <s_m_source_file>
/data/baiqing/PycharmProjects/Reinvent-master-3.2/result/LINK_invent/BTK/process_docking_weight1_custom_product_contain_oxygen_bond_distance_aromatic_linkinvent_7_9_3/rearranged_h_0196.sdf

> <i_m_source_file_index>
19

> <r_mmod_Potential_Energy-OPLS-2005>
4.30913496017456

> <r_mmod_Stretch_Energy-OPLS-2005>
65.183837890625

> <r_mmod_Bend_Energy-OPLS-2005>
129.875625610352

> <r_mmod_Torsional_Energy-OPLS-2005>
244.725509643555

> <r_mmod_Improper_Torsional_Energy-OPLS-2005>
7.49750280380249

> <r_mmod_Van_der_Waal_Energy-OPLS-2005>
151.491607666016

> <r_mmod_Electrostatic_Energy-OPLS-2005>
-367.022888183594

> <r_mmod_Solvation_Energy-OPLS-2005>
-252.574661254883

> <b_mmod_Minimization_Converged-OPLS-2005>
0

> <r_mmod_RMS_Derivative-OPLS-2005>
0.96967488527298

$$$$
19
                    3D
 Structure written by MMmdl.
151159  0  0  1  0            999 V2000
  -30.6227  -14.6947   20.4694 C   0  0  0  0  0  0
  -30.4320  -12.4199   19.4729 C   0  0  0  0  0  0
  -29.5119  -12.5114   18.2357 C   0  0  0  0  0  0
  -28.0354  -12.3433   18.6438 C   0  0  0  0  0  0
  -27.6489  -13.2276   19.8598 C   0  0  2  0  0  0
  -28.6919  -13.1256   20.9954 C   0  0  0  0  0  0
  -25.2535  -13.8193   20.5686 C   0  0  0  0  0  0
  -24.1817  -13.0443   20.9195 C   0  0  0  0  0  0
  -24.6398  -11.6918   20.8738 C   0  0  0  0  0  0
  -23.9066  -10.4296   21.0402 C   0  0  0  0  0  0
  -24.3617   -9.4213   21.9180 C   0  0  0  0  0  0
  -23.6298   -8.2244   22.0752 C   0  0  0  0  0  0
  -22.4278   -8.0281   21.3544 C   0  0  0  0  0  0
  -21.9910   -9.0253   20.4645 C   0  0  0  0  0  0
  -22.7236  -10.2135   20.3054 C   0  0  0  0  0  0
  -21.6850   -6.0736   22.5280 C   0  0  0  0  0  0
  -21.4012   -6.5638   23.8214 C   0  0  0  0  0  0
  -21.3662   -5.6791   24.9177 C   0  0  0  0  0  0
  -21.6048   -4.3054   24.7226 C   0  0  0  0  0  0
  -21.8819   -3.8145   23.4345 C   0  0  0  0  0  0
  -21.9191   -4.6962   22.3402 C   0  0  0  0  0  0
  -22.7836  -13.5228   21.1854 C   0  0  0  0  0  0
  -22.1659   -4.2146   21.0981 F   0  0  0  0  0  0
  -21.5633   -3.4539   25.7740 F   0  0  0  0  0  0
  -30.0032  -13.4671   20.4272 N   0  0  0  0  0  0
  -26.2967  -12.9392   20.3306 N   0  0  0  0  0  0
  -25.9330  -11.6535   20.5755 N   0  0  0  0  0  0
  -22.0474  -12.8228   22.0414 N   0  0  0  0  0  0
  -25.4238  -15.1917   20.4098 N   0  0  0  0  0  0
  -31.7941  -14.8065   20.0954 O   0  0  0  0  0  0
  -21.6642   -6.8879   21.4242 O   0  0  0  0  0  0
  -22.3519  -14.5530   20.6697 O   0  0  0  0  0  0
  -24.6292  -31.8576   23.2010 C   0  0  0  0  0  0
  -25.9126  -32.4766   23.8349 C   0  0  1  0  0  0
  -27.2170  -27.2796   20.1216 C   0  0  0  0  0  0
  -25.5928  -33.8569   24.2269 N   0  0  0  0  0  0
  -23.4247  -30.4819   21.5442 C   0  0  2  0  0  0
  -24.8714  -28.9361   20.1075 C   0  0  0  0  0  0
  -22.7493  -29.4614   22.4919 C   0  0  0  0  0  0
  -18.0289  -28.1383   22.8485 C   0  0  0  0  0  0
  -24.1492  -36.7295   23.2638 C   0  0  0  0  0  0
  -25.9703  -30.7738   21.3817 C   0  0  0  0  0  0
  -26.0412  -29.3991   20.7223 C   0  0  0  0  0  0
  -27.2145  -28.5808   20.7246 C   0  0  0  0  0  0
  -26.0293  -26.8954   19.4549 C   0  0  0  0  0  0
  -24.8699  -27.6914   19.4636 C   0  0  0  0  0  0
  -23.6415  -29.8198   20.1587 C   0  0  0  0  0  0
  -25.4116  -36.3080   24.0327 C   0  0  1  0  0  0
  -20.5893  -28.3693   23.1271 C   0  0  2  0  0  0
  -20.6778  -26.9411   22.5407 C   0  0  0  0  0  0
  -19.5753  -26.6379   21.5212 C   0  0  0  0  0  0
  -18.1934  -26.7925   22.1624 C   0  0  0  0  0  0
  -19.1543  -28.8853   23.2874 C   0  0  0  0  0  0
  -18.9463  -30.1454   23.8894 C   0  0  0  0  0  0
  -17.6462  -30.6585   24.0559 C   0  0  0  0  0  0
  -25.9054  -34.9447   23.5100 C   0  0  0  0  0  0
  -16.5354  -29.9081   23.6328 C   0  0  0  0  0  0
  -16.7276  -28.6497   23.0353 C   0  0  0  0  0  0
  -26.4493  -31.6585   25.0734 C   0  0  0  0  0  0
  -25.3713  -31.3741   26.1455 C   0  0  0  0  0  0
  -27.0330  -30.2996   24.6220 C   0  0  0  0  0  0
  -27.6052  -32.4322   25.7502 C   0  0  0  0  0  0
  -27.5586  -37.1799   24.8458 C   0  0  0  0  0  0
  -21.4202  -29.3046   22.3664 N   0  0  0  0  0  0
  -26.4294  -37.3775   23.9409 N   0  0  0  0  0  0
  -24.6935  -31.0554   22.0984 N   0  0  0  0  0  0
  -23.4202  -28.8149   23.3008 O   0  0  0  0  0  0
  -28.3114  -26.3884   20.2077 O   0  0  0  0  0  0
  -26.5630  -34.8916   22.4672 O   0  0  0  0  0  0
  -23.5444  -32.1395   23.7312 O   0  0  0  0  0  0
  -29.4309  -18.2937   21.0586 C   0  0  0  0  0  0
  -30.5642  -19.3957   19.3771 C   0  0  0  0  0  0
  -29.7565  -19.6025   20.4682 C   0  0  0  0  0  0
  -30.0058  -17.1512   20.4743 C   0  0  0  0  0  0
  -29.3965  -21.0373   21.0206 C   0  0  0  0  0  0
  -28.9605  -23.7612   20.6068 C   0  0  0  0  0  0
  -28.1120  -24.9334   19.8994 C   0  0  0  0  0  0
  -28.8260  -22.2285   20.0930 C   0  0  2  0  0  0
  -29.8606  -15.7976   20.8098 N   0  0  0  0  0  0
  -27.4515  -21.9543   19.8720 O   0  0  0  0  0  0
  -30.9475  -17.7035   19.1015 S   0  0  0  0  0  0
  -31.4757  -12.5315   19.1745 H   0  0  0  0  0  0
  -30.3598  -11.4336   19.9334 H   0  0  0  0  0  0
  -29.7872  -11.7523   17.5024 H   0  0  0  0  0  0
  -29.6499  -13.4760   17.7443 H   0  0  0  0  0  0
  -27.8796  -11.2920   18.8883 H   0  0  0  0  0  0
  -27.3813  -12.5579   17.7980 H   0  0  0  0  0  0
  -27.6555  -14.2569   19.5002 H   0  0  0  0  0  0
  -28.7112  -12.1178   21.4125 H   0  0  0  0  0  0
  -28.4309  -13.7882   21.8217 H   0  0  0  0  0  0
  -25.2760   -9.5694   22.4754 H   0  0  0  0  0  0
  -24.0007   -7.4637   22.7473 H   0  0  0  0  0  0
  -21.0837   -8.8771   19.8955 H   0  0  0  0  0  0
  -22.3688  -10.9673   19.6167 H   0  0  0  0  0  0
  -21.2001   -7.6145   23.9715 H   0  0  0  0  0  0
  -21.1487   -6.0522   25.9082 H   0  0  0  0  0  0
  -22.0595   -2.7606   23.2843 H   0  0  0  0  0  0
  -22.4078  -11.9895   22.4822 H   0  0  0  0  0  0
  -21.1093  -13.1265   22.2609 H   0  0  0  0  0  0
  -24.6558  -15.8455   20.5164 H   0  0  0  0  0  0
  -26.2708  -15.6301   20.0697 H   0  0  0  0  0  0
  -26.7193  -32.5418   23.1091 H   0  0  0  0  0  0
  -25.0057  -33.9707   25.0402 H   0  0  0  0  0  0
  -22.7200  -31.3039   21.4012 H   0  0  0  0  0  0
  -23.3753  -35.9627   23.3293 H   0  0  0  0  0  0
  -24.3585  -36.8921   22.2054 H   0  0  0  0  0  0
  -23.7242  -37.6495   23.6662 H   0  0  0  0  0  0
  -26.1102  -31.5355   20.6138 H   0  0  0  0  0  0
  -26.8478  -30.8195   22.0151 H   0  0  0  0  0  0
  -28.1056  -28.9254   21.2302 H   0  0  0  0  0  0
  -25.9590  -25.9587   18.9232 H   0  0  0  0  0  0
  -23.9780  -27.3368   18.9655 H   0  0  0  0  0  0
  -23.7633  -30.5979   19.4043 H   0  0  0  0  0  0
  -22.7603  -29.2520   19.8545 H   0  0  0  0  0  0
  -25.1295  -36.1934   25.0821 H   0  0  0  0  0  0
  -20.9984  -28.3270   24.1393 H   0  0  0  0  0  0
  -20.5675  -26.2305   23.3611 H   0  0  0  0  0  0
  -21.6646  -26.7436   22.1203 H   0  0  0  0  0  0
  -19.6914  -25.6288   21.1247 H   0  0  0  0  0  0
  -19.6690  -27.3184   20.6737 H   0  0  0  0  0  0
  -17.4204  -26.6669   21.4028 H   0  0  0  0  0  0
  -18.0336  -26.0067   22.9021 H   0  0  0  0  0  0
  -19.7940  -30.7270   24.2264 H   0  0  0  0  0  0
  -17.5017  -31.6267   24.5159 H   0  0  0  0  0  0
  -15.5354  -30.2983   23.7651 H   0  0  0  0  0  0
  -15.8677  -28.0813   22.7073 H   0  0  0  0  0  0
  -24.5882  -30.7099   25.7780 H   0  0  0  0  0  0
  -24.8912  -32.2914   26.4874 H   0  0  0  0  0  0
  -25.8023  -30.8917   27.0236 H   0  0  0  0  0  0
  -26.2911  -29.6750   24.1231 H   0  0  0  0  0  0
  -27.3986  -29.7256   25.4745 H   0  0  0  0  0  0
  -27.8804  -30.4259   23.9478 H   0  0  0  0  0  0
  -27.2662  -33.3618   26.2084 H   0  0  0  0  0  0
  -28.3858  -32.6887   25.0328 H   0  0  0  0  0  0
  -28.0727  -31.8445   26.5412 H   0  0  0  0  0  0
  -28.2589  -38.0109   24.7527 H   0  0  0  0  0  0
  -28.1096  -36.2644   24.6255 H   0  0  0  0  0  0
  -27.2309  -37.1412   25.8860 H   0  0  0  0  0  0
  -20.9383  -29.8778   21.6881 H   0  0  0  0  0  0
  -26.0176  -38.2851   24.1411 H   0  0  0  0  0  0
  -28.7981  -18.2441   21.9340 H   0  0  0  0  0  0
  -31.0022  -20.1432   18.7253 H   0  0  0  0  0  0
  -30.3146  -21.4297   21.4595 H   0  0  0  0  0  0
  -28.7351  -20.9266   21.8810 H   0  0  0  0  0  0
  -28.7163  -23.7848   21.6695 H   0  0  0  0  0  0
  -30.0157  -24.0312   20.5561 H   0  0  0  0  0  0
  -27.0834  -24.6645   20.1345 H   0  0  0  0  0  0
  -28.2142  -24.8244   18.8192 H   0  0  0  0  0  0
  -29.3344  -22.1774   19.1290 H   0  0  0  0  0  0
  -28.9913  -15.5619   21.2646 H   0  0  0  0  0  0
  -27.0150  -21.9160   20.7179 H   0  0  0  0  0  0
  1 25  1  0  0  0
  1 30  2  0  0  0
  1 79  1  0  0  0
  2  3  1  0  0  0
  2 25  1  0  0  0
  2 82  1  0  0  0
  2 83  1  0  0  0
  3  4  1  0  0  0
  3 84  1  0  0  0
  3 85  1  0  0  0
  4  5  1  0  0  0
  4 86  1  0  0  0
  4 87  1  0  0  0
  5  6  1  0  0  0
  5 26  1  0  0  0
  5 88  1  0  0  0
  6 25  1  0  0  0
  6 89  1  0  0  0
  6 90  1  0  0  0
  7  8  2  0  0  0
  7 26  1  0  0  0
  7 29  1  0  0  0
  8  9  1  0  0  0
  8 22  1  0  0  0
  9 10  1  0  0  0
  9 27  2  0  0  0
 10 11  2  0  0  0
 10 15  1  0  0  0
 11 12  1  0  0  0
 11 91  1  0  0  0
 12 13  2  0  0  0
 12 92  1  0  0  0
 13 14  1  0  0  0
 13 31  1  0  0  0
 14 15  2  0  0  0
 14 93  1  0  0  0
 15 94  1  0  0  0
 16 17  2  0  0  0
 16 21  1  0  0  0
 16 31  1  0  0  0
 17 18  1  0  0  0
 17 95  1  0  0  0
 18 19  2  0  0  0
 18 96  1  0  0  0
 19 20  1  0  0  0
 19 24  1  0  0  0
 20 21  2  0  0  0
 20 97  1  0  0  0
 21 23  1  0  0  0
 22 28  1  0  0  0
 22 32  2  0  0  0
 26 27  1  0  0  0
 28 98  1  0  0  0
 28 99  1  0  0  0
 29100  1  0  0  0
 29101  1  0  0  0
 33 34  1  0  0  0
 33 66  1  0  0  0
 33 70  2  0  0  0
 34 36  1  0  0  0
 34 59  1  0  0  0
 34102  1  0  0  0
 35 44  2  0  0  0
 35 45  1  0  0  0
 35 68  1  0  0  0
 36 56  1  0  0  0
 36103  1  0  0  0
 37 39  1  0  0  0
 37 47  1  0  0  0
 37 66  1  0  0  0
 37104  1  0  0  0
 38 43  2  0  0  0
 38 46  1  0  0  0
 38 47  1  0  0  0
 39 64  1  0  0  0
 39 67  2  0  0  0
 40 52  1  0  0  0
 40 53  2  0  0  0
 40 58  1  0  0  0
 41105  1  0  0  0
 41106  1  0  0  0
 41107  1  0  0  0
 41 48  1  0  0  0
 42 43  1  0  0  0
 42 66  1  0  0  0
 42108  1  0  0  0
 42109  1  0  0  0
 43 44  1  0  0  0
 44110  1  0  0  0
 45 46  2  0  0  0
 45111  1  0  0  0
 46112  1  0  0  0
 47113  1  0  0  0
 47114  1  0  0  0
 48 56  1  0  0  0
 48 65  1  0  0  0
 48115  1  0  0  0
 49 50  1  0  0  0
 49 53  1  0  0  0
 49 64  1  0  0  0
 49116  1  0  0  0
 50 51  1  0  0  0
 50117  1  0  0  0
 50118  1  0  0  0
 51 52  1  0  0  0
 51119  1  0  0  0
 51120  1  0  0  0
 52121  1  0  0  0
 52122  1  0  0  0
 53 54  1  0  0  0
 54 55  2  0  0  0
 54123  1  0  0  0
 55 57  1  0  0  0
 55124  1  0  0  0
 56 69  2  0  0  0
 57 58  2  0  0  0
 57125  1  0  0  0
 58126  1  0  0  0
 59 60  1  0  0  0
 59 61  1  0  0  0
 59 62  1  0  0  0
 60127  1  0  0  0
 60128  1  0  0  0
 60129  1  0  0  0
 61130  1  0  0  0
 61131  1  0  0  0
 61132  1  0  0  0
 62133  1  0  0  0
 62134  1  0  0  0
 62135  1  0  0  0
 63 65  1  0  0  0
 63136  1  0  0  0
 63137  1  0  0  0
 63138  1  0  0  0
 64139  1  0  0  0
 65140  1  0  0  0
 68 77  1  0  0  0
 71 73  1  0  0  0
 71 74  2  0  0  0
 71141  1  0  0  0
 72 73  2  0  0  0
 72 81  1  0  0  0
 72142  1  0  0  0
 73 75  1  0  0  0
 74 79  1  0  0  0
 74 81  1  0  0  0
 75 78  1  0  0  0
 75143  1  0  0  0
 75144  1  0  0  0
 76 77  1  0  0  0
 76 78  1  0  0  0
 76145  1  0  0  0
 76146  1  0  0  0
 77147  1  0  0  0
 77148  1  0  0  0
 78 80  1  0  0  0
 78149  1  0  0  0
 79150  1  0  0  0
 80151  1  0  0  0
M  ISO  4   1 100  68 101  77 101  79 100
M  END
> <chiral flag>
0

> <version>
0

> <s_m_source_file>
/data/baiqing/PycharmProjects/Reinvent-master-3.2/result/LINK_invent/BTK/process_docking_weight1_custom_product_contain_oxygen_bond_distance_aromatic_linkinvent_7_9_3/rearranged_h_0196.sdf

> <i_m_source_file_index>
20

> <r_mmod_Potential_Energy-OPLS-2005>
101.725868225098

> <r_mmod_Stretch_Energy-OPLS-2005>
105.038642883301

> <r_mmod_Bend_Energy-OPLS-2005>
156.454544067383

> <r_mmod_Torsional_Energy-OPLS-2005>
213.035430908203

> <r_mmod_Improper_Torsional_Energy-OPLS-2005>
3.91013884544373

> <r_mmod_Van_der_Waal_Energy-OPLS-2005>
123.549942016602

> <r_mmod_Electrostatic_Energy-OPLS-2005>
-335.110137939453

> <r_mmod_Solvation_Energy-OPLS-2005>
-235.321929931641

> <b_mmod_Minimization_Converged-OPLS-2005>
0

> <r_mmod_RMS_Derivative-OPLS-2005>
0.591500282287598

$$$$
20
                    3D
 Structure written by MMmdl.
152160  0  0  1  0            999 V2000
  -30.6712  -14.5388   20.5146 C   0  0  0  0  0  0
  -30.4183  -12.3283   19.4483 C   0  0  0  0  0  0
  -29.4973  -12.4891   18.2200 C   0  0  0  0  0  0
  -28.0188  -12.3417   18.6322 C   0  0  0  0  0  0
  -27.6519  -13.2106   19.8657 C   0  0  2  0  0  0
  -28.6935  -13.0465   20.9963 C   0  0  0  0  0  0
  -25.2549  -13.8183   20.5681 C   0  0  0  0  0  0
  -24.1810  -13.0443   20.9193 C   0  0  0  0  0  0
  -24.6370  -11.6918   20.8738 C   0  0  0  0  0  0
  -23.9044  -10.4293   21.0404 C   0  0  0  0  0  0
  -24.3604   -9.4203   21.9175 C   0  0  0  0  0  0
  -23.6282   -8.2240   22.0744 C   0  0  0  0  0  0
  -22.4262   -8.0271   21.3542 C   0  0  0  0  0  0
  -21.9893   -9.0242   20.4644 C   0  0  0  0  0  0
  -22.7222  -10.2122   20.3050 C   0  0  0  0  0  0
  -21.6847   -6.0720   22.5279 C   0  0  0  0  0  0
  -21.4019   -6.5631   23.8210 C   0  0  0  0  0  0
  -21.3662   -5.6789   24.9177 C   0  0  0  0  0  0
  -21.6041   -4.3048   24.7231 C   0  0  0  0  0  0
  -21.8828   -3.8134   23.4355 C   0  0  0  0  0  0
  -21.9197   -4.6949   22.3408 C   0  0  0  0  0  0
  -22.7835  -13.5230   21.1865 C   0  0  0  0  0  0
  -22.1659   -4.2130   21.0985 F   0  0  0  0  0  0
  -21.5632   -3.4538   25.7750 F   0  0  0  0  0  0
  -30.0156  -13.3482   20.4322 N   0  0  0  0  0  0
  -26.2961  -12.9343   20.3343 N   0  0  0  0  0  0
  -25.9291  -11.6498   20.5768 N   0  0  0  0  0  0
  -22.0490  -12.8198   22.0426 N   0  0  0  0  0  0
  -25.4270  -15.1902   20.4091 N   0  0  0  0  0  0
  -31.8343  -14.6711   20.1241 O   0  0  0  0  0  0
  -21.6639   -6.8858   21.4236 O   0  0  0  0  0  0
  -22.3513  -14.5539   20.6719 O   0  0  0  0  0  0
  -24.6169  -31.8639   23.2060 C   0  0  0  0  0  0
  -25.9053  -32.4789   23.8371 C   0  0  1  0  0  0
  -27.2338  -27.3787   20.1046 C   0  0  0  0  0  0
  -25.5894  -33.8592   24.2301 N   0  0  0  0  0  0
  -23.4083  -30.4867   21.5453 C   0  0  2  0  0  0
  -24.8570  -28.9444   20.1084 C   0  0  0  0  0  0
  -22.7411  -29.4654   22.4943 C   0  0  0  0  0  0
  -18.0277  -28.1382   22.8503 C   0  0  0  0  0  0
  -24.1487  -36.7306   23.2641 C   0  0  0  0  0  0
  -25.9422  -30.8092   21.3710 C   0  0  0  0  0  0
  -26.0172  -29.4407   20.7139 C   0  0  0  0  0  0
  -27.2036  -28.6640   20.7094 C   0  0  0  0  0  0
  -26.0510  -26.9093   19.4882 C   0  0  0  0  0  0
  -24.8731  -27.6829   19.4889 C   0  0  0  0  0  0
  -23.6195  -29.8158   20.1599 C   0  0  0  0  0  0
  -25.4110  -36.3098   24.0332 C   0  0  1  0  0  0
  -20.5865  -28.3699   23.1296 C   0  0  2  0  0  0
  -20.6769  -26.9416   22.5458 C   0  0  0  0  0  0
  -19.5745  -26.6353   21.5279 C   0  0  0  0  0  0
  -18.1919  -26.7913   22.1673 C   0  0  0  0  0  0
  -19.1525  -28.8868   23.2881 C   0  0  0  0  0  0
  -18.9443  -30.1474   23.8882 C   0  0  0  0  0  0
  -17.6438  -30.6600   24.0547 C   0  0  0  0  0  0
  -25.9043  -34.9461   23.5119 C   0  0  0  0  0  0
  -16.5336  -29.9088   23.6332 C   0  0  0  0  0  0
  -16.7266  -28.6494   23.0369 C   0  0  0  0  0  0
  -26.4471  -31.6597   25.0723 C   0  0  0  0  0  0
  -25.3720  -31.3718   26.1460 C   0  0  0  0  0  0
  -27.0313  -30.3026   24.6163 C   0  0  0  0  0  0
  -27.6041  -32.4327   25.7474 C   0  0  0  0  0  0
  -27.5580  -37.1810   24.8463 C   0  0  0  0  0  0
  -21.4134  -29.3045   22.3670 N   0  0  0  0  0  0
  -26.4299  -37.3781   23.9396 N   0  0  0  0  0  0
  -24.6733  -31.0696   22.0980 N   0  0  0  0  0  0
  -23.4162  -28.8217   23.3019 O   0  0  0  0  0  0
  -28.4027  -26.6281   20.1659 O   0  0  0  0  0  0
  -26.5611  -34.8915   22.4686 O   0  0  0  0  0  0
  -23.5347  -32.1422   23.7427 O   0  0  0  0  0  0
  -28.3063  -18.2211   21.5655 C   0  0  0  0  0  0
  -29.4662  -18.1899   20.8284 C   0  0  0  0  0  0
  -28.9551  -20.4533   20.7042 C   0  0  0  0  0  0
  -30.4024  -17.0112   20.5533 C   0  0  0  0  0  0
  -28.7286  -23.0848   21.0438 C   0  0  0  0  0  0
  -28.5191  -25.3266   19.5277 C   0  0  0  0  0  0
  -27.8391  -24.0810   20.2139 C   0  0  1  0  0  0
  -29.7918  -19.4739   20.3234 N   0  0  0  0  0  0
  -29.1098  -21.8133   20.3708 N   0  0  0  0  0  0
  -29.9286  -15.6302   20.8206 N   0  0  0  0  0  0
  -27.2618  -23.2406   19.2380 O   0  0  0  0  0  0
  -27.6474  -19.8424   21.7122 S   0  0  0  0  0  0
  -31.4653  -12.4165   19.1526 H   0  0  0  0  0  0
  -30.3118  -11.3317   19.8808 H   0  0  0  0  0  0
  -29.7486  -11.7495   17.4589 H   0  0  0  0  0  0
  -29.6586  -13.4666   17.7619 H   0  0  0  0  0  0
  -27.8461  -11.2887   18.8591 H   0  0  0  0  0  0
  -27.3655  -12.5790   17.7915 H   0  0  0  0  0  0
  -27.6792  -14.2476   19.5321 H   0  0  0  0  0  0
  -28.6803  -12.0270   21.3857 H   0  0  0  0  0  0
  -28.4592  -13.6940   21.8424 H   0  0  0  0  0  0
  -25.2752   -9.5684   22.4738 H   0  0  0  0  0  0
  -23.9993   -7.4639   22.7459 H   0  0  0  0  0  0
  -21.0827   -8.8760   19.8954 H   0  0  0  0  0  0
  -22.3677  -10.9652   19.6157 H   0  0  0  0  0  0
  -21.2009   -7.6138   23.9712 H   0  0  0  0  0  0
  -21.1476   -6.0517   25.9082 H   0  0  0  0  0  0
  -22.0604   -2.7591   23.2872 H   0  0  0  0  0  0
  -22.4101  -11.9845   22.4779 H   0  0  0  0  0  0
  -21.1120  -13.1224   22.2677 H   0  0  0  0  0  0
  -24.6553  -15.8418   20.4992 H   0  0  0  0  0  0
  -26.2719  -15.6261   20.0627 H   0  0  0  0  0  0
  -26.7108  -32.5490   23.1116 H   0  0  0  0  0  0
  -25.0023  -33.9753   25.0432 H   0  0  0  0  0  0
  -22.7008  -31.3065   21.4030 H   0  0  0  0  0  0
  -23.3748  -35.9643   23.3315 H   0  0  0  0  0  0
  -24.3585  -36.8919   22.2057 H   0  0  0  0  0  0
  -23.7251  -37.6516   23.6653 H   0  0  0  0  0  0
  -26.0705  -31.5763   20.6061 H   0  0  0  0  0  0
  -26.8241  -30.8557   21.9985 H   0  0  0  0  0  0
  -28.0979  -29.0384   21.1880 H   0  0  0  0  0  0
  -26.0136  -25.9400   19.0139 H   0  0  0  0  0  0
  -23.9819  -27.2996   19.0122 H   0  0  0  0  0  0
  -23.7221  -30.5885   19.3971 H   0  0  0  0  0  0
  -22.7430  -29.2330   19.8690 H   0  0  0  0  0  0
  -25.1298  -36.1970   25.0827 H   0  0  0  0  0  0
  -20.9970  -28.3304   24.1421 H   0  0  0  0  0  0
  -20.5696  -26.2333   23.3688 H   0  0  0  0  0  0
  -21.6631  -26.7441   22.1243 H   0  0  0  0  0  0
  -19.6913  -25.6245   21.1358 H   0  0  0  0  0  0
  -19.6698  -27.3138   20.6778 H   0  0  0  0  0  0
  -17.4184  -26.6601   21.4083 H   0  0  0  0  0  0
  -18.0337  -26.0090   22.9114 H   0  0  0  0  0  0
  -19.7918  -30.7319   24.2208 H   0  0  0  0  0  0
  -17.4971  -31.6298   24.5108 H   0  0  0  0  0  0
  -15.5323  -30.2969   23.7629 H   0  0  0  0  0  0
  -15.8673  -28.0792   22.7101 H   0  0  0  0  0  0
  -24.5895  -30.7071   25.7784 H   0  0  0  0  0  0
  -24.8905  -32.2870   26.4900 H   0  0  0  0  0  0
  -25.8052  -30.8882   27.0225 H   0  0  0  0  0  0
  -26.2874  -29.6763   24.1224 H   0  0  0  0  0  0
  -27.4058  -29.7298   25.4663 H   0  0  0  0  0  0
  -27.8718  -30.4313   23.9340 H   0  0  0  0  0  0
  -27.2662  -33.3616   26.2071 H   0  0  0  0  0  0
  -28.3821  -32.6913   25.0283 H   0  0  0  0  0  0
  -28.0740  -31.8454   26.5374 H   0  0  0  0  0  0
  -28.2611  -38.0095   24.7504 H   0  0  0  0  0  0
  -28.1068  -36.2634   24.6302 H   0  0  0  0  0  0
  -27.2296  -37.1469   25.8866 H   0  0  0  0  0  0
  -20.9301  -29.8734   21.6859 H   0  0  0  0  0  0
  -26.0195  -38.2864   24.1389 H   0  0  0  0  0  0
  -27.8097  -17.4000   22.0657 H   0  0  0  0  0  0
  -31.3212  -17.1621   21.1224 H   0  0  0  0  0  0
  -30.7072  -17.0477   19.5052 H   0  0  0  0  0  0
  -28.1819  -22.8167   21.9499 H   0  0  0  0  0  0
  -29.6274  -23.5931   21.3966 H   0  0  0  0  0  0
  -28.1680  -25.4342   18.5011 H   0  0  0  0  0  0
  -29.5831  -25.1135   19.4166 H   0  0  0  0  0  0
  -27.0337  -24.4505   20.8515 H   0  0  0  0  0  0
  -29.9292  -21.9398   19.7832 H   0  0  0  0  0  0
  -28.9662  -15.4983   21.0898 H   0  0  0  0  0  0
  -27.8104  -22.4533   19.3038 H   0  0  0  0  0  0
  1 25  1  0  0  0
  1 30  2  0  0  0
  1 80  1  0  0  0
  2  3  1  0  0  0
  2 25  1  0  0  0
  2 83  1  0  0  0
  2 84  1  0  0  0
  3  4  1  0  0  0
  3 85  1  0  0  0
  3 86  1  0  0  0
  4  5  1  0  0  0
  4 87  1  0  0  0
  4 88  1  0  0  0
  5  6  1  0  0  0
  5 26  1  0  0  0
  5 89  1  0  0  0
  6 25  1  0  0  0
  6 90  1  0  0  0
  6 91  1  0  0  0
  7  8  2  0  0  0
  7 26  1  0  0  0
  7 29  1  0  0  0
  8  9  1  0  0  0
  8 22  1  0  0  0
  9 10  1  0  0  0
  9 27  2  0  0  0
 10 11  2  0  0  0
 10 15  1  0  0  0
 11 12  1  0  0  0
 11 92  1  0  0  0
 12 13  2  0  0  0
 12 93  1  0  0  0
 13 14  1  0  0  0
 13 31  1  0  0  0
 14 15  2  0  0  0
 14 94  1  0  0  0
 15 95  1  0  0  0
 16 17  2  0  0  0
 16 21  1  0  0  0
 16 31  1  0  0  0
 17 18  1  0  0  0
 17 96  1  0  0  0
 18 19  2  0  0  0
 18 97  1  0  0  0
 19 20  1  0  0  0
 19 24  1  0  0  0
 20 21  2  0  0  0
 20 98  1  0  0  0
 21 23  1  0  0  0
 22 28  1  0  0  0
 22 32  2  0  0  0
 26 27  1  0  0  0
 28 99  1  0  0  0
 28100  1  0  0  0
 29101  1  0  0  0
 29102  1  0  0  0
 33 34  1  0  0  0
 33 66  1  0  0  0
 33 70  2  0  0  0
 34 36  1  0  0  0
 34 59  1  0  0  0
 34103  1  0  0  0
 35 44  2  0  0  0
 35 45  1  0  0  0
 35 68  1  0  0  0
 36 56  1  0  0  0
 36104  1  0  0  0
 37 39  1  0  0  0
 37 47  1  0  0  0
 37 66  1  0  0  0
 37105  1  0  0  0
 38 43  2  0  0  0
 38 46  1  0  0  0
 38 47  1  0  0  0
 39 64  1  0  0  0
 39 67  2  0  0  0
 40 52  1  0  0  0
 40 53  2  0  0  0
 40 58  1  0  0  0
 41106  1  0  0  0
 41107  1  0  0  0
 41108  1  0  0  0
 41 48  1  0  0  0
 42 43  1  0  0  0
 42 66  1  0  0  0
 42109  1  0  0  0
 42110  1  0  0  0
 43 44  1  0  0  0
 44111  1  0  0  0
 45 46  2  0  0  0
 45112  1  0  0  0
 46113  1  0  0  0
 47114  1  0  0  0
 47115  1  0  0  0
 48 56  1  0  0  0
 48 65  1  0  0  0
 48116  1  0  0  0
 49 50  1  0  0  0
 49 53  1  0  0  0
 49 64  1  0  0  0
 49117  1  0  0  0
 50 51  1  0  0  0
 50118  1  0  0  0
 50119  1  0  0  0
 51 52  1  0  0  0
 51120  1  0  0  0
 51121  1  0  0  0
 52122  1  0  0  0
 52123  1  0  0  0
 53 54  1  0  0  0
 54 55  2  0  0  0
 54124  1  0  0  0
 55 57  1  0  0  0
 55125  1  0  0  0
 56 69  2  0  0  0
 57 58  2  0  0  0
 57126  1  0  0  0
 58127  1  0  0  0
 59 60  1  0  0  0
 59 61  1  0  0  0
 59 62  1  0  0  0
 60128  1  0  0  0
 60129  1  0  0  0
 60130  1  0  0  0
 61131  1  0  0  0
 61132  1  0  0  0
 61133  1  0  0  0
 62134  1  0  0  0
 62135  1  0  0  0
 62136  1  0  0  0
 63 65  1  0  0  0
 63137  1  0  0  0
 63138  1  0  0  0
 63139  1  0  0  0
 64140  1  0  0  0
 65141  1  0  0  0
 68 76  1  0  0  0
 71 72  2  0  0  0
 71 82  1  0  0  0
 71142  1  0  0  0
 72 74  1  0  0  0
 72 78  1  0  0  0
 73 78  2  0  0  0
 73 79  1  0  0  0
 73 82  1  0  0  0
 74 80  1  0  0  0
 74143  1  0  0  0
 74144  1  0  0  0
 75 77  1  0  0  0
 75 79  1  0  0  0
 75145  1  0  0  0
 75146  1  0  0  0
 76 77  1  0  0  0
 76147  1  0  0  0
 76148  1  0  0  0
 77 81  1  0  0  0
 77149  1  0  0  0
 79150  1  0  0  0
 80151  1  0  0  0
 81152  1  0  0  0
M  ISO  4   1 100  68 101  76 101  80 100
M  END
> <chiral flag>
0

> <version>
0

> <s_m_source_file>
/data/baiqing/PycharmProjects/Reinvent-master-3.2/result/LINK_invent/BTK/process_docking_weight1_custom_product_contain_oxygen_bond_distance_aromatic_linkinvent_7_9_3/rearranged_h_0196.sdf

> <i_m_source_file_index>
21

> <r_mmod_Potential_Energy-OPLS-2005>
-256.595001220703

> <r_mmod_Stretch_Energy-OPLS-2005>
48.977783203125

> <r_mmod_Bend_Energy-OPLS-2005>
123.672454833984

> <r_mmod_Torsional_Energy-OPLS-2005>
239.216522216797

> <r_mmod_Improper_Torsional_Energy-OPLS-2005>
7.51880645751953

> <r_mmod_Van_der_Waal_Energy-OPLS-2005>
133.392349243164

> <r_mmod_Electrostatic_Energy-OPLS-2005>
-595.460571289062

> <r_mmod_Solvation_Energy-OPLS-2005>
-239.425247192383

> <b_mmod_Minimization_Converged-OPLS-2005>
0

> <r_mmod_RMS_Derivative-OPLS-2005>
2.39066386222839

$$$$
21
                    3D
 Structure written by MMmdl.
163171  0  0  1  0            999 V2000
  -30.6713  -14.5132   20.5533 C   0  0  0  0  0  0
  -30.4237  -12.3232   19.4273 C   0  0  0  0  0  0
  -29.4952  -12.4963   18.2076 C   0  0  0  0  0  0
  -28.0160  -12.3580   18.6213 C   0  0  0  0  0  0
  -27.6563  -13.2071   19.8689 C   0  0  2  0  0  0
  -28.6987  -13.0135   20.9933 C   0  0  0  0  0  0
  -25.2575  -13.8165   20.5673 C   0  0  0  0  0  0
  -24.1841  -13.0440   20.9196 C   0  0  0  0  0  0
  -24.6407  -11.6904   20.8776 C   0  0  0  0  0  0
  -23.9083  -10.4292   21.0438 C   0  0  0  0  0  0
  -24.3631   -9.4199   21.9213 C   0  0  0  0  0  0
  -23.6299   -8.2237   22.0770 C   0  0  0  0  0  0
  -22.4279   -8.0287   21.3556 C   0  0  0  0  0  0
  -21.9929   -9.0271   20.4659 C   0  0  0  0  0  0
  -22.7265  -10.2142   20.3078 C   0  0  0  0  0  0
  -21.6850   -6.0746   22.5290 C   0  0  0  0  0  0
  -21.4008   -6.5649   23.8225 C   0  0  0  0  0  0
  -21.3657   -5.6799   24.9187 C   0  0  0  0  0  0
  -21.6041   -4.3064   24.7233 C   0  0  0  0  0  0
  -21.8816   -3.8155   23.4357 C   0  0  0  0  0  0
  -21.9187   -4.6973   22.3410 C   0  0  0  0  0  0
  -22.7866  -13.5239   21.1843 C   0  0  0  0  0  0
  -22.1659   -4.2160   21.0991 F   0  0  0  0  0  0
  -21.5625   -3.4544   25.7748 F   0  0  0  0  0  0
  -30.0211  -13.3227   20.4287 N   0  0  0  0  0  0
  -26.3003  -12.9334   20.3348 N   0  0  0  0  0  0
  -25.9329  -11.6500   20.5801 N   0  0  0  0  0  0
  -22.0487  -12.8244   22.0386 N   0  0  0  0  0  0
  -25.4283  -15.1890   20.4052 N   0  0  0  0  0  0
  -31.8345  -14.6708   20.1676 O   0  0  0  0  0  0
  -21.6634   -6.8889   21.4252 O   0  0  0  0  0  0
  -22.3565  -14.5553   20.6692 O   0  0  0  0  0  0
  -24.6165  -31.8667   23.2063 C   0  0  0  0  0  0
  -25.9056  -32.4816   23.8361 C   0  0  1  0  0  0
  -27.2380  -27.4024   20.1202 C   0  0  0  0  0  0
  -25.5905  -33.8601   24.2296 N   0  0  0  0  0  0
  -23.4048  -30.4890   21.5466 C   0  0  2  0  0  0
  -24.8540  -28.9474   20.1164 C   0  0  0  0  0  0
  -22.7418  -29.4663   22.4978 C   0  0  0  0  0  0
  -18.0287  -28.1365   22.8475 C   0  0  0  0  0  0
  -24.1487  -36.7303   23.2630 C   0  0  0  0  0  0
  -25.9361  -30.8260   21.3595 C   0  0  0  0  0  0
  -26.0164  -29.4556   20.7111 C   0  0  0  0  0  0
  -27.2146  -28.6954   20.7030 C   0  0  0  0  0  0
  -26.0598  -26.9200   19.5119 C   0  0  0  0  0  0
  -24.8732  -27.6794   19.5097 C   0  0  0  0  0  0
  -23.6145  -29.8156   20.1633 C   0  0  0  0  0  0
  -25.4102  -36.3090   24.0334 C   0  0  1  0  0  0
  -20.5875  -28.3660   23.1298 C   0  0  2  0  0  0
  -20.6772  -26.9390   22.5412 C   0  0  0  0  0  0
  -19.5760  -26.6370   21.5192 C   0  0  0  0  0  0
  -18.1931  -26.7910   22.1597 C   0  0  0  0  0  0
  -19.1531  -28.8821   23.2881 C   0  0  0  0  0  0
  -18.9471  -30.1426   23.8883 C   0  0  0  0  0  0
  -17.6474  -30.6568   24.0560 C   0  0  0  0  0  0
  -25.9039  -34.9465   23.5119 C   0  0  0  0  0  0
  -16.5359  -29.9075   23.6311 C   0  0  0  0  0  0
  -16.7278  -28.6493   23.0328 C   0  0  0  0  0  0
  -26.4455  -31.6596   25.0706 C   0  0  0  0  0  0
  -25.3685  -31.3721   26.1428 C   0  0  0  0  0  0
  -27.0287  -30.3039   24.6084 C   0  0  0  0  0  0
  -27.6037  -32.4291   25.7479 C   0  0  0  0  0  0
  -27.5573  -37.1803   24.8461 C   0  0  0  0  0  0
  -21.4154  -29.3032   22.3710 N   0  0  0  0  0  0
  -26.4278  -37.3780   23.9408 N   0  0  0  0  0  0
  -24.6704  -31.0759   22.0955 N   0  0  0  0  0  0
  -23.4177  -28.8196   23.3024 O   0  0  0  0  0  0
  -28.3830  -26.6199   20.1247 O   0  0  0  0  0  0
  -26.5601  -34.8929   22.4676 O   0  0  0  0  0  0
  -23.5369  -32.1445   23.7450 O   0  0  0  0  0  0
  -30.2553  -16.8920   21.2198 C   0  0  0  0  0  0
  -30.0314  -19.1061   21.2993 C   0  0  0  0  0  0
  -32.4134  -20.0947   19.1699 C   0  0  0  0  0  0
  -33.9243  -21.8225   20.1899 C   0  0  0  0  0  0
  -31.5208  -21.7838   20.9520 C   0  0  0  0  0  0
  -29.1527  -22.8832   21.1145 C   0  0  0  0  0  0
  -28.2547  -25.3382   20.7965 C   0  0  0  0  0  0
  -32.4813  -21.5112   19.7695 C   0  0  0  0  0  0
  -30.0052  -21.6387   20.6337 C   0  0  2  0  0  0
  -29.3810  -24.3073   20.4623 C   0  0  1  0  0  0
  -29.4974  -17.9604   20.8495 N   0  0  0  0  0  0
  -31.3261  -17.1187   22.0016 N   0  0  0  0  0  0
  -29.8764  -15.5577   20.8862 N   0  0  0  0  0  0
  -29.3862  -20.3537   21.0805 N   0  0  0  0  0  0
  -30.5591  -24.9055   20.9736 O   0  0  0  0  0  0
  -31.4207  -18.7756   22.3149 S   0  0  0  0  0  0
  -31.4666  -12.4301   19.1269 H   0  0  0  0  0  0
  -30.3319  -11.3165   19.8393 H   0  0  0  0  0  0
  -29.7374  -11.7602   17.4396 H   0  0  0  0  0  0
  -29.6622  -13.4743   17.7543 H   0  0  0  0  0  0
  -27.8290  -11.3044   18.8280 H   0  0  0  0  0  0
  -27.3671  -12.6240   17.7869 H   0  0  0  0  0  0
  -27.6895  -14.2496   19.5527 H   0  0  0  0  0  0
  -28.6823  -11.9874   21.3654 H   0  0  0  0  0  0
  -28.4620  -13.6401   21.8557 H   0  0  0  0  0  0
  -25.2775   -9.5660   22.4797 H   0  0  0  0  0  0
  -24.0000   -7.4622   22.7495 H   0  0  0  0  0  0
  -21.0859   -8.8813   19.8959 H   0  0  0  0  0  0
  -22.3755  -10.9697   19.6190 H   0  0  0  0  0  0
  -21.2003   -7.6156   23.9735 H   0  0  0  0  0  0
  -21.1478   -6.0530   25.9093 H   0  0  0  0  0  0
  -22.0592   -2.7617   23.2861 H   0  0  0  0  0  0
  -22.4073  -11.9892   22.4768 H   0  0  0  0  0  0
  -21.1112  -13.1308   22.2582 H   0  0  0  0  0  0
  -24.6541  -15.8375   20.5013 H   0  0  0  0  0  0
  -26.2675  -15.6297   20.0506 H   0  0  0  0  0  0
  -26.7129  -32.5518   23.1140 H   0  0  0  0  0  0
  -25.0075  -33.9765   25.0454 H   0  0  0  0  0  0
  -22.6932  -31.3056   21.4045 H   0  0  0  0  0  0
  -23.3746  -35.9638   23.3304 H   0  0  0  0  0  0
  -24.3596  -36.8917   22.2046 H   0  0  0  0  0  0
  -23.7261  -37.6515   23.6650 H   0  0  0  0  0  0
  -26.0465  -31.5888   20.5866 H   0  0  0  0  0  0
  -26.8244  -30.8892   21.9750 H   0  0  0  0  0  0
  -28.1100  -29.0891   21.1635 H   0  0  0  0  0  0
  -26.0533  -25.9475   19.0382 H   0  0  0  0  0  0
  -23.9832  -27.2794   19.0441 H   0  0  0  0  0  0
  -23.7184  -30.5899   19.4020 H   0  0  0  0  0  0
  -22.7390  -29.2328   19.8690 H   0  0  0  0  0  0
  -25.1285  -36.1941   25.0828 H   0  0  0  0  0  0
  -20.9964  -28.3230   24.1420 H   0  0  0  0  0  0
  -20.5636  -26.2278   23.3614 H   0  0  0  0  0  0
  -21.6653  -26.7408   22.1224 H   0  0  0  0  0  0
  -19.6923  -25.6274   21.1236 H   0  0  0  0  0  0
  -19.6703  -27.3166   20.6712 H   0  0  0  0  0  0
  -17.4203  -26.6654   21.3999 H   0  0  0  0  0  0
  -18.0337  -26.0036   22.8981 H   0  0  0  0  0  0
  -19.7951  -30.7236   24.2250 H   0  0  0  0  0  0
  -17.5040  -31.6249   24.5162 H   0  0  0  0  0  0
  -15.5365  -30.2977   23.7641 H   0  0  0  0  0  0
  -15.8681  -28.0827   22.7019 H   0  0  0  0  0  0
  -24.5929  -30.6964   25.7796 H   0  0  0  0  0  0
  -24.8754  -32.2864   26.4733 H   0  0  0  0  0  0
  -25.8006  -30.9034   27.0277 H   0  0  0  0  0  0
  -26.2855  -29.6826   24.1069 H   0  0  0  0  0  0
  -27.4012  -29.7242   25.4541 H   0  0  0  0  0  0
  -27.8698  -30.4384   23.9280 H   0  0  0  0  0  0
  -27.2697  -33.3630   26.1996 H   0  0  0  0  0  0
  -28.3878  -32.6765   25.0318 H   0  0  0  0  0  0
  -28.0641  -31.8420   26.5434 H   0  0  0  0  0  0
  -28.2585  -38.0107   24.7509 H   0  0  0  0  0  0
  -28.1085  -36.2640   24.6279 H   0  0  0  0  0  0
  -27.2306  -37.1448   25.8871 H   0  0  0  0  0  0
  -20.9309  -29.8800   21.6977 H   0  0  0  0  0  0
  -26.0168  -38.2859   24.1404 H   0  0  0  0  0  0
  -32.9993  -20.0433   18.2498 H   0  0  0  0  0  0
  -31.3974  -19.8042   18.9060 H   0  0  0  0  0  0
  -32.8201  -19.3450   19.8487 H   0  0  0  0  0  0
  -34.6150  -21.7052   19.3547 H   0  0  0  0  0  0
  -34.2501  -21.1541   20.9894 H   0  0  0  0  0  0
  -34.0223  -22.8453   20.5558 H   0  0  0  0  0  0
  -31.7208  -22.8088   21.2463 H   0  0  0  0  0  0
  -31.8147  -21.2631   21.8537 H   0  0  0  0  0  0
  -29.2089  -22.9749   22.1996 H   0  0  0  0  0  0
  -28.1093  -22.6342   20.9152 H   0  0  0  0  0  0
  -28.2349  -25.5237   21.8720 H   0  0  0  0  0  0
  -27.2995  -24.8699   20.5620 H   0  0  0  0  0  0
  -32.2093  -22.2095   18.9759 H   0  0  0  0  0  0
  -29.9107  -21.6367   19.5457 H   0  0  0  0  0  0
  -29.4600  -24.1998   19.3786 H   0  0  0  0  0  0
  -28.8937  -15.3538   20.9478 H   0  0  0  0  0  0
  -28.4441  -20.2331   20.7234 H   0  0  0  0  0  0
  -30.5872  -25.7952   20.6315 H   0  0  0  0  0  0
  1 25  1  0  0  0
  1 30  2  0  0  0
  1 83  1  0  0  0
  2  3  1  0  0  0
  2 25  1  0  0  0
  2 87  1  0  0  0
  2 88  1  0  0  0
  3  4  1  0  0  0
  3 89  1  0  0  0
  3 90  1  0  0  0
  4  5  1  0  0  0
  4 91  1  0  0  0
  4 92  1  0  0  0
  5  6  1  0  0  0
  5 26  1  0  0  0
  5 93  1  0  0  0
  6 25  1  0  0  0
  6 94  1  0  0  0
  6 95  1  0  0  0
  7  8  2  0  0  0
  7 26  1  0  0  0
  7 29  1  0  0  0
  8  9  1  0  0  0
  8 22  1  0  0  0
  9 10  1  0  0  0
  9 27  2  0  0  0
 10 11  2  0  0  0
 10 15  1  0  0  0
 11 12  1  0  0  0
 11 96  1  0  0  0
 12 13  2  0  0  0
 12 97  1  0  0  0
 13 14  1  0  0  0
 13 31  1  0  0  0
 14 15  2  0  0  0
 14 98  1  0  0  0
 15 99  1  0  0  0
 16 17  2  0  0  0
 16 21  1  0  0  0
 16 31  1  0  0  0
 17 18  1  0  0  0
 17100  1  0  0  0
 18 19  2  0  0  0
 18101  1  0  0  0
 19 20  1  0  0  0
 19 24  1  0  0  0
 20 21  2  0  0  0
 20102  1  0  0  0
 21 23  1  0  0  0
 22 28  1  0  0  0
 22 32  2  0  0  0
 26 27  1  0  0  0
 28103  1  0  0  0
 28104  1  0  0  0
 29105  1  0  0  0
 29106  1  0  0  0
 33 34  1  0  0  0
 33 66  1  0  0  0
 33 70  2  0  0  0
 34 36  1  0  0  0
 34 59  1  0  0  0
 34107  1  0  0  0
 35 44  2  0  0  0
 35 45  1  0  0  0
 35 68  1  0  0  0
 36 56  1  0  0  0
 36108  1  0  0  0
 37 39  1  0  0  0
 37 47  1  0  0  0
 37 66  1  0  0  0
 37109  1  0  0  0
 38 43  2  0  0  0
 38 46  1  0  0  0
 38 47  1  0  0  0
 39 64  1  0  0  0
 39 67  2  0  0  0
 40 52  1  0  0  0
 40 53  2  0  0  0
 40 58  1  0  0  0
 41110  1  0  0  0
 41111  1  0  0  0
 41112  1  0  0  0
 41 48  1  0  0  0
 42 43  1  0  0  0
 42 66  1  0  0  0
 42113  1  0  0  0
 42114  1  0  0  0
 43 44  1  0  0  0
 44115  1  0  0  0
 45 46  2  0  0  0
 45116  1  0  0  0
 46117  1  0  0  0
 47118  1  0  0  0
 47119  1  0  0  0
 48 56  1  0  0  0
 48 65  1  0  0  0
 48120  1  0  0  0
 49 50  1  0  0  0
 49 53  1  0  0  0
 49 64  1  0  0  0
 49121  1  0  0  0
 50 51  1  0  0  0
 50122  1  0  0  0
 50123  1  0  0  0
 51 52  1  0  0  0
 51124  1  0  0  0
 51125  1  0  0  0
 52126  1  0  0  0
 52127  1  0  0  0
 53 54  1  0  0  0
 54 55  2  0  0  0
 54128  1  0  0  0
 55 57  1  0  0  0
 55129  1  0  0  0
 56 69  2  0  0  0
 57 58  2  0  0  0
 57130  1  0  0  0
 58131  1  0  0  0
 59 60  1  0  0  0
 59 61  1  0  0  0
 59 62  1  0  0  0
 60132  1  0  0  0
 60133  1  0  0  0
 60134  1  0  0  0
 61135  1  0  0  0
 61136  1  0  0  0
 61137  1  0  0  0
 62138  1  0  0  0
 62139  1  0  0  0
 62140  1  0  0  0
 63 65  1  0  0  0
 63141  1  0  0  0
 63142  1  0  0  0
 63143  1  0  0  0
 64144  1  0  0  0
 65145  1  0  0  0
 68 77  1  0  0  0
 71 81  1  0  0  0
 71 82  2  0  0  0
 71 83  1  0  0  0
 72 81  2  0  0  0
 72 84  1  0  0  0
 72 86  1  0  0  0
 73146  1  0  0  0
 73147  1  0  0  0
 73148  1  0  0  0
 73 78  1  0  0  0
 74 78  1  0  0  0
 74149  1  0  0  0
 74150  1  0  0  0
 74151  1  0  0  0
 75 78  1  0  0  0
 75152  1  0  0  0
 75153  1  0  0  0
 75 79  1  0  0  0
 76 79  1  0  0  0
 76 80  1  0  0  0
 76154  1  0  0  0
 76155  1  0  0  0
 77 80  1  0  0  0
 77156  1  0  0  0
 77157  1  0  0  0
 78158  1  0  0  0
 79 84  1  0  0  0
 79159  1  0  0  0
 80 85  1  0  0  0
 80160  1  0  0  0
 82 86  1  0  0  0
 83161  1  0  0  0
 84162  1  0  0  0
 85163  1  0  0  0
M  ISO  4   1 100  68 101  77 101  83 100
M  END
> <chiral flag>
0

> <version>
0

> <s_m_source_file>
/data/baiqing/PycharmProjects/Reinvent-master-3.2/result/LINK_invent/BTK/process_docking_weight1_custom_product_contain_oxygen_bond_distance_aromatic_linkinvent_7_9_3/rearranged_h_0196.sdf

> <i_m_source_file_index>
22

> <r_mmod_Potential_Energy-OPLS-2005>
-2.34578561782837

> <r_mmod_Stretch_Energy-OPLS-2005>
52.3721733093262

> <r_mmod_Bend_Energy-OPLS-2005>
139.719924926758

> <r_mmod_Torsional_Energy-OPLS-2005>
271.440124511719

> <r_mmod_Improper_Torsional_Energy-OPLS-2005>
9.42402267456055

> <r_mmod_Van_der_Waal_Energy-OPLS-2005>
131.494522094727

> <r_mmod_Electrostatic_Energy-OPLS-2005>
-396.84326171875

> <r_mmod_Solvation_Energy-OPLS-2005>
-229.567276000977

> <b_mmod_Minimization_Converged-OPLS-2005>
0

> <r_mmod_RMS_Derivative-OPLS-2005>
2.89278650283813

$$$$
22
                    3D
 Structure written by MMmdl.
154162  0  0  1  0            999 V2000
  -30.7008  -14.5007   20.5806 C   0  0  0  0  0  0
  -30.4191  -12.3306   19.4275 C   0  0  0  0  0  0
  -29.4920  -12.4997   18.2078 C   0  0  0  0  0  0
  -28.0186  -12.3383   18.6289 C   0  0  0  0  0  0
  -27.6541  -13.2072   19.8622 C   0  0  2  0  0  0
  -28.6928  -13.0230   20.9905 C   0  0  0  0  0  0
  -25.2558  -13.8156   20.5669 C   0  0  0  0  0  0
  -24.1819  -13.0442   20.9190 C   0  0  0  0  0  0
  -24.6359  -11.6895   20.8739 C   0  0  0  0  0  0
  -23.9031  -10.4292   21.0423 C   0  0  0  0  0  0
  -24.3598   -9.4206   21.9196 C   0  0  0  0  0  0
  -23.6288   -8.2228   22.0752 C   0  0  0  0  0  0
  -22.4273   -8.0272   21.3533 C   0  0  0  0  0  0
  -21.9890   -9.0240   20.4635 C   0  0  0  0  0  0
  -22.7209  -10.2124   20.3063 C   0  0  0  0  0  0
  -21.6848   -6.0728   22.5281 C   0  0  0  0  0  0
  -21.4011   -6.5635   23.8211 C   0  0  0  0  0  0
  -21.3665   -5.6787   24.9174 C   0  0  0  0  0  0
  -21.6050   -4.3050   24.7229 C   0  0  0  0  0  0
  -21.8816   -3.8140   23.4348 C   0  0  0  0  0  0
  -21.9184   -4.6956   22.3404 C   0  0  0  0  0  0
  -22.7851  -13.5250   21.1871 C   0  0  0  0  0  0
  -22.1662   -4.2140   21.0986 F   0  0  0  0  0  0
  -21.5626   -3.4538   25.7740 F   0  0  0  0  0  0
  -30.0203  -13.3301   20.4318 N   0  0  0  0  0  0
  -26.2972  -12.9321   20.3293 N   0  0  0  0  0  0
  -25.9281  -11.6488   20.5744 N   0  0  0  0  0  0
  -22.0475  -12.8243   22.0415 N   0  0  0  0  0  0
  -25.4286  -15.1873   20.4078 N   0  0  0  0  0  0
  -31.8320  -14.6715   20.1191 O   0  0  0  0  0  0
  -21.6625   -6.8879   21.4244 O   0  0  0  0  0  0
  -22.3540  -14.5550   20.6692 O   0  0  0  0  0  0
  -24.6153  -31.8694   23.2099 C   0  0  0  0  0  0
  -25.9041  -32.4834   23.8399 C   0  0  1  0  0  0
  -27.2313  -27.4197   20.1130 C   0  0  0  0  0  0
  -25.5890  -33.8622   24.2333 N   0  0  0  0  0  0
  -23.4041  -30.4910   21.5526 C   0  0  2  0  0  0
  -24.8487  -28.9589   20.1123 C   0  0  0  0  0  0
  -22.7425  -29.4651   22.5013 C   0  0  0  0  0  0
  -18.0277  -28.1380   22.8505 C   0  0  0  0  0  0
  -24.1485  -36.7306   23.2640 C   0  0  0  0  0  0
  -25.9322  -30.8321   21.3631 C   0  0  0  0  0  0
  -26.0090  -29.4665   20.7103 C   0  0  0  0  0  0
  -27.2016  -28.7060   20.7025 C   0  0  0  0  0  0
  -26.0535  -26.9363   19.4964 C   0  0  0  0  0  0
  -24.8674  -27.6954   19.4984 C   0  0  0  0  0  0
  -23.6109  -29.8246   20.1654 C   0  0  0  0  0  0
  -25.4107  -36.3117   24.0345 C   0  0  1  0  0  0
  -20.5865  -28.3656   23.1329 C   0  0  2  0  0  0
  -20.6760  -26.9396   22.5425 C   0  0  0  0  0  0
  -19.5731  -26.6394   21.5225 C   0  0  0  0  0  0
  -18.1920  -26.7931   22.1637 C   0  0  0  0  0  0
  -19.1524  -28.8840   23.2911 C   0  0  0  0  0  0
  -18.9449  -30.1454   23.8913 C   0  0  0  0  0  0
  -17.6445  -30.6585   24.0572 C   0  0  0  0  0  0
  -25.9036  -34.9478   23.5139 C   0  0  0  0  0  0
  -16.5340  -29.9083   23.6331 C   0  0  0  0  0  0
  -16.7266  -28.6499   23.0360 C   0  0  0  0  0  0
  -26.4465  -31.6607   25.0721 C   0  0  0  0  0  0
  -25.3714  -31.3705   26.1456 C   0  0  0  0  0  0
  -27.0300  -30.3054   24.6091 C   0  0  0  0  0  0
  -27.6063  -32.4304   25.7473 C   0  0  0  0  0  0
  -27.5582  -37.1817   24.8476 C   0  0  0  0  0  0
  -21.4150  -29.3025   22.3745 N   0  0  0  0  0  0
  -26.4300  -37.3798   23.9412 N   0  0  0  0  0  0
  -24.6694  -31.0776   22.1015 N   0  0  0  0  0  0
  -23.4192  -28.8208   23.3069 O   0  0  0  0  0  0
  -28.3962  -26.6728   20.1637 O   0  0  0  0  0  0
  -26.5599  -34.8932   22.4700 O   0  0  0  0  0  0
  -23.5331  -32.1444   23.7483 O   0  0  0  0  0  0
  -28.9758  -18.6973   22.0320 C   0  0  0  0  0  0
  -30.2583  -20.1131   20.1282 C   0  0  0  0  0  0
  -30.0229  -18.1086   21.2773 C   0  0  0  0  0  0
  -29.2426  -20.7155   20.9226 C   0  0  0  0  0  0
  -30.6512  -16.7593   21.6768 C   0  0  0  0  0  0
  -29.8070  -23.0829   20.3678 C   0  0  0  0  0  0
  -28.2835  -25.2325   20.1100 C   0  0  0  0  0  0
  -29.4587  -24.5268   20.8473 C   0  0  1  0  0  0
  -30.6496  -18.8198   20.3027 N   0  0  0  0  0  0
  -28.5859  -19.9901   21.8578 N   0  0  0  0  0  0
  -28.8535  -22.0663   20.8313 N   0  0  0  0  0  0
  -30.0381  -15.5054   21.1905 N   0  0  0  0  0  0
  -29.1673  -24.4272   22.2358 O   0  0  0  0  0  0
  -31.4652  -12.4250   19.1287 H   0  0  0  0  0  0
  -30.3246  -11.3253   19.8423 H   0  0  0  0  0  0
  -29.7442  -11.7698   17.4377 H   0  0  0  0  0  0
  -29.6412  -13.4839   17.7627 H   0  0  0  0  0  0
  -27.8614  -11.2850   18.8629 H   0  0  0  0  0  0
  -27.3554  -12.5627   17.7932 H   0  0  0  0  0  0
  -27.6903  -14.2470   19.5372 H   0  0  0  0  0  0
  -28.6765  -11.9961   21.3574 H   0  0  0  0  0  0
  -28.4427  -13.6425   21.8525 H   0  0  0  0  0  0
  -25.2748   -9.5677   22.4769 H   0  0  0  0  0  0
  -23.9987   -7.4622   22.7472 H   0  0  0  0  0  0
  -21.0814   -8.8755   19.8955 H   0  0  0  0  0  0
  -22.3672  -10.9656   19.6167 H   0  0  0  0  0  0
  -21.2009   -7.6139   23.9717 H   0  0  0  0  0  0
  -21.1498   -6.0515   25.9075 H   0  0  0  0  0  0
  -22.0591   -2.7600   23.2843 H   0  0  0  0  0  0
  -22.4075  -11.9903   22.4811 H   0  0  0  0  0  0
  -21.1095  -13.1277   22.2629 H   0  0  0  0  0  0
  -24.6571  -15.8393   20.5017 H   0  0  0  0  0  0
  -26.2740  -15.6207   20.0576 H   0  0  0  0  0  0
  -26.7117  -32.5556   23.1170 H   0  0  0  0  0  0
  -25.0054  -33.9787   25.0486 H   0  0  0  0  0  0
  -22.6917  -31.3076   21.4163 H   0  0  0  0  0  0
  -23.3748  -35.9642   23.3331 H   0  0  0  0  0  0
  -24.3570  -36.8886   22.2051 H   0  0  0  0  0  0
  -23.7240  -37.6522   23.6621 H   0  0  0  0  0  0
  -26.0404  -31.5954   20.5921 H   0  0  0  0  0  0
  -26.8218  -30.8884   21.9790 H   0  0  0  0  0  0
  -28.0946  -29.0917   21.1737 H   0  0  0  0  0  0
  -26.0343  -25.9706   19.0119 H   0  0  0  0  0  0
  -23.9791  -27.3001   19.0251 H   0  0  0  0  0  0
  -23.7161  -30.6010   19.4059 H   0  0  0  0  0  0
  -22.7338  -29.2426   19.8757 H   0  0  0  0  0  0
  -25.1288  -36.1997   25.0842 H   0  0  0  0  0  0
  -20.9956  -28.3223   24.1443 H   0  0  0  0  0  0
  -20.5672  -26.2272   23.3618 H   0  0  0  0  0  0
  -21.6638  -26.7456   22.1210 H   0  0  0  0  0  0
  -19.6886  -25.6315   21.1239 H   0  0  0  0  0  0
  -19.6660  -27.3220   20.6767 H   0  0  0  0  0  0
  -17.4198  -26.6704   21.4034 H   0  0  0  0  0  0
  -18.0293  -26.0070   22.9017 H   0  0  0  0  0  0
  -19.7923  -30.7280   24.2282 H   0  0  0  0  0  0
  -17.4996  -31.6267   24.5170 H   0  0  0  0  0  0
  -15.5338  -30.2983   23.7645 H   0  0  0  0  0  0
  -15.8671  -28.0818   22.7059 H   0  0  0  0  0  0
  -24.5902  -30.7045   25.7771 H   0  0  0  0  0  0
  -24.8868  -32.2846   26.4889 H   0  0  0  0  0  0
  -25.8033  -30.8874   27.0226 H   0  0  0  0  0  0
  -26.2844  -29.6820   24.1137 H   0  0  0  0  0  0
  -27.4079  -29.7292   25.4550 H   0  0  0  0  0  0
  -27.8671  -30.4400   23.9238 H   0  0  0  0  0  0
  -27.2732  -33.3619   26.2062 H   0  0  0  0  0  0
  -28.3857  -32.6834   25.0271 H   0  0  0  0  0  0
  -28.0745  -31.8404   26.5369 H   0  0  0  0  0  0
  -28.2639  -38.0081   24.7500 H   0  0  0  0  0  0
  -28.1044  -36.2612   24.6336 H   0  0  0  0  0  0
  -27.2293  -37.1521   25.8882 H   0  0  0  0  0  0
  -20.9321  -29.8726   21.6946 H   0  0  0  0  0  0
  -26.0195  -38.2889   24.1377 H   0  0  0  0  0  0
  -28.4935  -18.1537   22.8316 H   0  0  0  0  0  0
  -30.7760  -20.6730   19.3631 H   0  0  0  0  0  0
  -30.6344  -16.7152   22.7656 H   0  0  0  0  0  0
  -31.7107  -16.7997   21.4212 H   0  0  0  0  0  0
  -30.7993  -22.8250   20.7461 H   0  0  0  0  0  0
  -29.8851  -23.0616   19.2801 H   0  0  0  0  0  0
  -28.2873  -24.9429   19.0583 H   0  0  0  0  0  0
  -27.3422  -24.8774   20.5347 H   0  0  0  0  0  0
  -30.3547  -25.1372   20.7183 H   0  0  0  0  0  0
  -28.2196  -22.3965   21.5535 H   0  0  0  0  0  0
  -29.0905  -15.3154   21.4769 H   0  0  0  0  0  0
  -29.8304  -23.8641   22.6251 H   0  0  0  0  0  0
  1 25  1  0  0  0
  1 30  2  0  0  0
  1 82  1  0  0  0
  2  3  1  0  0  0
  2 25  1  0  0  0
  2 84  1  0  0  0
  2 85  1  0  0  0
  3  4  1  0  0  0
  3 86  1  0  0  0
  3 87  1  0  0  0
  4  5  1  0  0  0
  4 88  1  0  0  0
  4 89  1  0  0  0
  5  6  1  0  0  0
  5 26  1  0  0  0
  5 90  1  0  0  0
  6 25  1  0  0  0
  6 91  1  0  0  0
  6 92  1  0  0  0
  7  8  2  0  0  0
  7 26  1  0  0  0
  7 29  1  0  0  0
  8  9  1  0  0  0
  8 22  1  0  0  0
  9 10  1  0  0  0
  9 27  2  0  0  0
 10 11  2  0  0  0
 10 15  1  0  0  0
 11 12  1  0  0  0
 11 93  1  0  0  0
 12 13  2  0  0  0
 12 94  1  0  0  0
 13 14  1  0  0  0
 13 31  1  0  0  0
 14 15  2  0  0  0
 14 95  1  0  0  0
 15 96  1  0  0  0
 16 17  2  0  0  0
 16 21  1  0  0  0
 16 31  1  0  0  0
 17 18  1  0  0  0
 17 97  1  0  0  0
 18 19  2  0  0  0
 18 98  1  0  0  0
 19 20  1  0  0  0
 19 24  1  0  0  0
 20 21  2  0  0  0
 20 99  1  0  0  0
 21 23  1  0  0  0
 22 28  1  0  0  0
 22 32  2  0  0  0
 26 27  1  0  0  0
 28100  1  0  0  0
 28101  1  0  0  0
 29102  1  0  0  0
 29103  1  0  0  0
 33 34  1  0  0  0
 33 66  1  0  0  0
 33 70  2  0  0  0
 34 36  1  0  0  0
 34 59  1  0  0  0
 34104  1  0  0  0
 35 44  2  0  0  0
 35 45  1  0  0  0
 35 68  1  0  0  0
 36 56  1  0  0  0
 36105  1  0  0  0
 37 39  1  0  0  0
 37 47  1  0  0  0
 37 66  1  0  0  0
 37106  1  0  0  0
 38 43  2  0  0  0
 38 46  1  0  0  0
 38 47  1  0  0  0
 39 64  1  0  0  0
 39 67  2  0  0  0
 40 52  1  0  0  0
 40 53  2  0  0  0
 40 58  1  0  0  0
 41107  1  0  0  0
 41108  1  0  0  0
 41109  1  0  0  0
 41 48  1  0  0  0
 42 43  1  0  0  0
 42 66  1  0  0  0
 42110  1  0  0  0
 42111  1  0  0  0
 43 44  1  0  0  0
 44112  1  0  0  0
 45 46  2  0  0  0
 45113  1  0  0  0
 46114  1  0  0  0
 47115  1  0  0  0
 47116  1  0  0  0
 48 56  1  0  0  0
 48 65  1  0  0  0
 48117  1  0  0  0
 49 50  1  0  0  0
 49 53  1  0  0  0
 49 64  1  0  0  0
 49118  1  0  0  0
 50 51  1  0  0  0
 50119  1  0  0  0
 50120  1  0  0  0
 51 52  1  0  0  0
 51121  1  0  0  0
 51122  1  0  0  0
 52123  1  0  0  0
 52124  1  0  0  0
 53 54  1  0  0  0
 54 55  2  0  0  0
 54125  1  0  0  0
 55 57  1  0  0  0
 55126  1  0  0  0
 56 69  2  0  0  0
 57 58  2  0  0  0
 57127  1  0  0  0
 58128  1  0  0  0
 59 60  1  0  0  0
 59 61  1  0  0  0
 59 62  1  0  0  0
 60129  1  0  0  0
 60130  1  0  0  0
 60131  1  0  0  0
 61132  1  0  0  0
 61133  1  0  0  0
 61134  1  0  0  0
 62135  1  0  0  0
 62136  1  0  0  0
 62137  1  0  0  0
 63 65  1  0  0  0
 63138  1  0  0  0
 63139  1  0  0  0
 63140  1  0  0  0
 64141  1  0  0  0
 65142  1  0  0  0
 68 77  1  0  0  0
 71 73  2  0  0  0
 71 80  1  0  0  0
 71143  1  0  0  0
 72 74  1  0  0  0
 72 79  2  0  0  0
 72144  1  0  0  0
 73 75  1  0  0  0
 73 79  1  0  0  0
 74 80  2  0  0  0
 74 81  1  0  0  0
 75 82  1  0  0  0
 75145  1  0  0  0
 75146  1  0  0  0
 76 78  1  0  0  0
 76 81  1  0  0  0
 76147  1  0  0  0
 76148  1  0  0  0
 77 78  1  0  0  0
 77149  1  0  0  0
 77150  1  0  0  0
 78 83  1  0  0  0
 78151  1  0  0  0
 81152  1  0  0  0
 82153  1  0  0  0
 83154  1  0  0  0
M  ISO  4   1 100  68 101  77 101  82 100
M  END
> <chiral flag>
0

> <version>
0

> <s_m_source_file>
/data/baiqing/PycharmProjects/Reinvent-master-3.2/result/LINK_invent/BTK/process_docking_weight1_custom_product_contain_oxygen_bond_distance_aromatic_linkinvent_7_9_3/rearranged_h_0196.sdf

> <i_m_source_file_index>
23

> <r_mmod_Potential_Energy-OPLS-2005>
-87.3046646118164

> <r_mmod_Stretch_Energy-OPLS-2005>
43.6412734985352

> <r_mmod_Bend_Energy-OPLS-2005>
107.62606048584

> <r_mmod_Torsional_Energy-OPLS-2005>
237.519256591797

> <r_mmod_Improper_Torsional_Energy-OPLS-2005>
6.55066967010498

> <r_mmod_Van_der_Waal_Energy-OPLS-2005>
161.976959228516

> <r_mmod_Electrostatic_Energy-OPLS-2005>
-404.374938964844

> <r_mmod_Solvation_Energy-OPLS-2005>
-257.6591796875

> <b_mmod_Minimization_Converged-OPLS-2005>
0

> <r_mmod_RMS_Derivative-OPLS-2005>
2.6592059135437

$$$$
23
                    3D
 Structure written by MMmdl.
173181  0  0  1  0            999 V2000
  -30.6759  -14.5479   20.5410 C   0  0  0  0  0  0
  -30.4373  -12.3508   19.4260 C   0  0  0  0  0  0
  -29.5026  -12.5006   18.2067 C   0  0  0  0  0  0
  -28.0240  -12.3545   18.6231 C   0  0  0  0  0  0
  -27.6598  -13.2081   19.8676 C   0  0  2  0  0  0
  -28.7082  -13.0282   20.9899 C   0  0  0  0  0  0
  -25.2615  -13.8149   20.5718 C   0  0  0  0  0  0
  -24.1868  -13.0444   20.9200 C   0  0  0  0  0  0
  -24.6396  -11.6903   20.8727 C   0  0  0  0  0  0
  -23.9052  -10.4299   21.0408 C   0  0  0  0  0  0
  -24.3605   -9.4208   21.9180 C   0  0  0  0  0  0
  -23.6279   -8.2251   22.0759 C   0  0  0  0  0  0
  -22.4257   -8.0283   21.3557 C   0  0  0  0  0  0
  -21.9894   -9.0255   20.4656 C   0  0  0  0  0  0
  -22.7226  -10.2136   20.3059 C   0  0  0  0  0  0
  -21.6860   -6.0727   22.5275 C   0  0  0  0  0  0
  -21.4018   -6.5633   23.8201 C   0  0  0  0  0  0
  -21.3657   -5.6793   24.9168 C   0  0  0  0  0  0
  -21.6053   -4.3052   24.7231 C   0  0  0  0  0  0
  -21.8814   -3.8137   23.4350 C   0  0  0  0  0  0
  -21.9192   -4.6956   22.3401 C   0  0  0  0  0  0
  -22.7882  -13.5248   21.1850 C   0  0  0  0  0  0
  -22.1664   -4.2139   21.0981 F   0  0  0  0  0  0
  -21.5626   -3.4533   25.7740 F   0  0  0  0  0  0
  -30.0271  -13.3524   20.4229 N   0  0  0  0  0  0
  -26.3027  -12.9308   20.3344 N   0  0  0  0  0  0
  -25.9330  -11.6465   20.5761 N   0  0  0  0  0  0
  -22.0509  -12.8263   22.0401 N   0  0  0  0  0  0
  -25.4335  -15.1885   20.4141 N   0  0  0  0  0  0
  -31.8410  -14.7066   20.1636 O   0  0  0  0  0  0
  -21.6644   -6.8870   21.4235 O   0  0  0  0  0  0
  -22.3584  -14.5555   20.6682 O   0  0  0  0  0  0
  -24.6158  -31.8624   23.2052 C   0  0  0  0  0  0
  -25.9042  -32.4793   23.8342 C   0  0  1  0  0  0
  -27.2488  -27.3817   20.1073 C   0  0  0  0  0  0
  -25.5884  -33.8594   24.2262 N   0  0  0  0  0  0
  -23.4078  -30.4826   21.5443 C   0  0  2  0  0  0
  -24.8619  -28.9450   20.1148 C   0  0  0  0  0  0
  -22.7428  -29.4619   22.4966 C   0  0  0  0  0  0
  -18.0264  -28.1384   22.8499 C   0  0  0  0  0  0
  -24.1472  -36.7284   23.2640 C   0  0  0  0  0  0
  -25.9420  -30.8156   21.3667 C   0  0  0  0  0  0
  -26.0239  -29.4442   20.7149 C   0  0  0  0  0  0
  -27.2145  -28.6695   20.7107 C   0  0  0  0  0  0
  -26.0639  -26.9273   19.4758 C   0  0  0  0  0  0
  -24.8788  -27.6892   19.4911 C   0  0  0  0  0  0
  -23.6214  -29.8100   20.1612 C   0  0  0  0  0  0
  -25.4103  -36.3075   24.0315 C   0  0  1  0  0  0
  -20.5864  -28.3665   23.1325 C   0  0  2  0  0  0
  -20.6743  -26.9400   22.5431 C   0  0  0  0  0  0
  -19.5721  -26.6386   21.5223 C   0  0  0  0  0  0
  -18.1904  -26.7929   22.1640 C   0  0  0  0  0  0
  -19.1518  -28.8840   23.2909 C   0  0  0  0  0  0
  -18.9454  -30.1449   23.8921 C   0  0  0  0  0  0
  -17.6457  -30.6604   24.0558 C   0  0  0  0  0  0
  -25.9041  -34.9449   23.5091 C   0  0  0  0  0  0
  -16.5347  -29.9103   23.6335 C   0  0  0  0  0  0
  -16.7256  -28.6505   23.0383 C   0  0  0  0  0  0
  -26.4466  -31.6603   25.0690 C   0  0  0  0  0  0
  -25.3710  -31.3754   26.1424 C   0  0  0  0  0  0
  -27.0292  -30.3026   24.6120 C   0  0  0  0  0  0
  -27.6026  -32.4330   25.7483 C   0  0  0  0  0  0
  -27.5566  -37.1794   24.8470 C   0  0  0  0  0  0
  -21.4151  -29.3014   22.3724 N   0  0  0  0  0  0
  -26.4278  -37.3774   23.9414 N   0  0  0  0  0  0
  -24.6731  -31.0676   22.0975 N   0  0  0  0  0  0
  -23.4192  -28.8186   23.3023 O   0  0  0  0  0  0
  -28.4114  -26.6087   20.1673 O   0  0  0  0  0  0
  -26.5633  -34.8916   22.4673 O   0  0  0  0  0  0
  -23.5329  -32.1403   23.7402 O   0  0  0  0  0  0
  -30.4616  -19.2387   20.8605 C   0  0  0  0  0  0
  -30.9913  -19.1055   22.1324 C   0  0  0  0  0  0
  -30.2948  -16.9409   21.1620 C   0  0  0  0  0  0
  -34.1286  -22.8078   18.8912 C   0  0  0  0  0  0
  -33.5365  -22.6903   16.4667 C   0  0  0  0  0  0
  -34.3556  -20.6411   17.6300 C   0  0  0  0  0  0
  -31.8497  -20.5841   19.3027 C   0  0  0  0  0  0
  -32.0258  -21.5987   18.1520 C   0  0  0  0  0  0
  -29.1656  -22.7222   20.0800 C   0  0  0  0  0  0
  -28.3651  -25.2108   19.7522 C   0  0  0  0  0  0
  -30.4556  -20.4996   19.9736 C   0  0  2  0  0  0
  -29.4090  -24.2406   20.4171 C   0  0  1  0  0  0
  -33.5042  -21.9178   17.7973 C   0  0  0  0  0  0
  -30.0527  -17.9815   20.3381 N   0  0  0  0  0  0
  -31.5551  -20.0766   22.9588 N   0  0  0  0  0  0
  -29.8906  -15.5984   20.8768 N   0  0  0  0  0  0
  -30.1516  -21.7775   20.7040 N   0  3  0  0  0  0
  -30.7053  -24.5602   19.9401 O   0  0  0  0  0  0
  -30.9810  -17.4446   22.6960 S   0  0  0  0  0  0
  -31.4782  -12.4691   19.1179 H   0  0  0  0  0  0
  -30.3614  -11.3490   19.8491 H   0  0  0  0  0  0
  -29.7512  -11.7531   17.4515 H   0  0  0  0  0  0
  -29.6610  -13.4723   17.7344 H   0  0  0  0  0  0
  -27.8448  -11.2999   18.8333 H   0  0  0  0  0  0
  -27.3707  -12.6120   17.7891 H   0  0  0  0  0  0
  -27.6889  -14.2507   19.5479 H   0  0  0  0  0  0
  -28.7074  -12.0006   21.3571 H   0  0  0  0  0  0
  -28.4745  -13.6498   21.8558 H   0  0  0  0  0  0
  -25.2752   -9.5702   22.4746 H   0  0  0  0  0  0
  -23.9992   -7.4656   22.7489 H   0  0  0  0  0  0
  -21.0817   -8.8776   19.8972 H   0  0  0  0  0  0
  -22.3670  -10.9673   19.6172 H   0  0  0  0  0  0
  -21.2012   -7.6141   23.9710 H   0  0  0  0  0  0
  -21.1486   -6.0519   25.9076 H   0  0  0  0  0  0
  -22.0595   -2.7596   23.2854 H   0  0  0  0  0  0
  -22.4082  -11.9914   22.4800 H   0  0  0  0  0  0
  -21.1128  -13.1316   22.2591 H   0  0  0  0  0  0
  -24.6682  -15.8409   20.5432 H   0  0  0  0  0  0
  -26.2725  -15.6301   20.0592 H   0  0  0  0  0  0
  -26.7118  -32.5489   23.1112 H   0  0  0  0  0  0
  -24.9962  -33.9766   25.0352 H   0  0  0  0  0  0
  -22.6945  -31.2971   21.3984 H   0  0  0  0  0  0
  -23.3730  -35.9625   23.3314 H   0  0  0  0  0  0
  -24.3557  -36.8896   22.2053 H   0  0  0  0  0  0
  -23.7242  -37.6491   23.6666 H   0  0  0  0  0  0
  -26.0546  -31.5817   20.5968 H   0  0  0  0  0  0
  -26.8276  -30.8725   21.9880 H   0  0  0  0  0  0
  -28.1061  -29.0483   21.1921 H   0  0  0  0  0  0
  -26.0206  -25.9794   18.9632 H   0  0  0  0  0  0
  -23.9859  -27.3037   19.0187 H   0  0  0  0  0  0
  -23.7280  -30.5772   19.3937 H   0  0  0  0  0  0
  -22.7477  -29.2227   19.8705 H   0  0  0  0  0  0
  -25.1290  -36.1908   25.0806 H   0  0  0  0  0  0
  -20.9946  -28.3212   24.1451 H   0  0  0  0  0  0
  -20.5620  -26.2267   23.3613 H   0  0  0  0  0  0
  -21.6612  -26.7419   22.1241 H   0  0  0  0  0  0
  -19.6879  -25.6294   21.1249 H   0  0  0  0  0  0
  -19.6671  -27.3195   20.6746 H   0  0  0  0  0  0
  -17.4172  -26.6675   21.4053 H   0  0  0  0  0  0
  -18.0319  -26.0079   22.9036 H   0  0  0  0  0  0
  -19.7933  -30.7250   24.2316 H   0  0  0  0  0  0
  -17.5022  -31.6298   24.5141 H   0  0  0  0  0  0
  -15.5353  -30.3025   23.7645 H   0  0  0  0  0  0
  -15.8646  -28.0821   22.7135 H   0  0  0  0  0  0
  -24.5903  -30.7088   25.7763 H   0  0  0  0  0  0
  -24.8883  -32.2923   26.4801 H   0  0  0  0  0  0
  -25.8024  -30.8976   27.0225 H   0  0  0  0  0  0
  -26.2853  -29.6826   24.1111 H   0  0  0  0  0  0
  -27.3962  -29.7248   25.4613 H   0  0  0  0  0  0
  -27.8727  -30.4315   23.9340 H   0  0  0  0  0  0
  -27.2644  -33.3641   26.2050 H   0  0  0  0  0  0
  -28.3865  -32.6881   25.0340 H   0  0  0  0  0  0
  -28.0666  -31.8459   26.5422 H   0  0  0  0  0  0
  -28.2586  -38.0085   24.7499 H   0  0  0  0  0  0
  -28.1052  -36.2618   24.6301 H   0  0  0  0  0  0
  -27.2289  -37.1440   25.8874 H   0  0  0  0  0  0
  -20.9317  -29.8721   21.6943 H   0  0  0  0  0  0
  -26.0139  -38.2833   24.1455 H   0  0  0  0  0  0
  -35.1292  -23.1391   18.6106 H   0  0  0  0  0  0
  -34.2236  -22.2904   19.8451 H   0  0  0  0  0  0
  -33.5296  -23.7032   19.0637 H   0  0  0  0  0  0
  -34.5564  -22.9537   16.1810 H   0  0  0  0  0  0
  -32.9664  -23.6179   16.5257 H   0  0  0  0  0  0
  -33.1165  -22.0975   15.6530 H   0  0  0  0  0  0
  -35.3725  -20.8889   17.3208 H   0  0  0  0  0  0
  -33.9399  -19.9724   16.8750 H   0  0  0  0  0  0
  -34.4423  -20.0758   18.5584 H   0  0  0  0  0  0
  -32.5959  -20.7505   20.0769 H   0  0  0  0  0  0
  -32.0853  -19.6001   18.8956 H   0  0  0  0  0  0
  -31.5299  -22.5386   18.3952 H   0  0  0  0  0  0
  -31.5032  -21.2195   17.2733 H   0  0  0  0  0  0
  -29.1778  -22.6041   18.9959 H   0  0  0  0  0  0
  -28.1659  -22.4236   20.3997 H   0  0  0  0  0  0
  -27.3993  -24.7849   20.0205 H   0  0  0  0  0  0
  -28.4432  -25.1645   18.6645 H   0  0  0  0  0  0
  -29.7002  -20.3639   19.1979 H   0  0  0  0  0  0
  -29.3821  -24.3870   21.4962 H   0  0  0  0  0  0
  -32.2881  -20.6552   22.5579 H   0  0  0  0  0  0
  -31.9122  -19.7014   23.8341 H   0  0  0  0  0  0
  -28.9273  -15.3780   21.0706 H   0  0  0  0  0  0
  -29.8614  -21.5525   21.6429 H   0  0  0  0  0  0
  -31.0201  -22.2805   20.7827 H   0  0  0  0  0  0
  -30.8093  -25.5037   20.0283 H   0  0  0  0  0  0
  1 25  1  0  0  0
  1 30  2  0  0  0
  1 86  1  0  0  0
  2  3  1  0  0  0
  2 25  1  0  0  0
  2 90  1  0  0  0
  2 91  1  0  0  0
  3  4  1  0  0  0
  3 92  1  0  0  0
  3 93  1  0  0  0
  4  5  1  0  0  0
  4 94  1  0  0  0
  4 95  1  0  0  0
  5  6  1  0  0  0
  5 26  1  0  0  0
  5 96  1  0  0  0
  6 25  1  0  0  0
  6 97  1  0  0  0
  6 98  1  0  0  0
  7  8  2  0  0  0
  7 26  1  0  0  0
  7 29  1  0  0  0
  8  9  1  0  0  0
  8 22  1  0  0  0
  9 10  1  0  0  0
  9 27  2  0  0  0
 10 11  2  0  0  0
 10 15  1  0  0  0
 11 12  1  0  0  0
 11 99  1  0  0  0
 12 13  2  0  0  0
 12100  1  0  0  0
 13 14  1  0  0  0
 13 31  1  0  0  0
 14 15  2  0  0  0
 14101  1  0  0  0
 15102  1  0  0  0
 16 17  2  0  0  0
 16 21  1  0  0  0
 16 31  1  0  0  0
 17 18  1  0  0  0
 17103  1  0  0  0
 18 19  2  0  0  0
 18104  1  0  0  0
 19 20  1  0  0  0
 19 24  1  0  0  0
 20 21  2  0  0  0
 20105  1  0  0  0
 21 23  1  0  0  0
 22 28  1  0  0  0
 22 32  2  0  0  0
 26 27  1  0  0  0
 28106  1  0  0  0
 28107  1  0  0  0
 29108  1  0  0  0
 29109  1  0  0  0
 33 34  1  0  0  0
 33 66  1  0  0  0
 33 70  2  0  0  0
 34 36  1  0  0  0
 34 59  1  0  0  0
 34110  1  0  0  0
 35 44  2  0  0  0
 35 45  1  0  0  0
 35 68  1  0  0  0
 36 56  1  0  0  0
 36111  1  0  0  0
 37 39  1  0  0  0
 37 47  1  0  0  0
 37 66  1  0  0  0
 37112  1  0  0  0
 38 43  2  0  0  0
 38 46  1  0  0  0
 38 47  1  0  0  0
 39 64  1  0  0  0
 39 67  2  0  0  0
 40 52  1  0  0  0
 40 53  2  0  0  0
 40 58  1  0  0  0
 41113  1  0  0  0
 41114  1  0  0  0
 41115  1  0  0  0
 41 48  1  0  0  0
 42 43  1  0  0  0
 42 66  1  0  0  0
 42116  1  0  0  0
 42117  1  0  0  0
 43 44  1  0  0  0
 44118  1  0  0  0
 45 46  2  0  0  0
 45119  1  0  0  0
 46120  1  0  0  0
 47121  1  0  0  0
 47122  1  0  0  0
 48 56  1  0  0  0
 48 65  1  0  0  0
 48123  1  0  0  0
 49 50  1  0  0  0
 49 53  1  0  0  0
 49 64  1  0  0  0
 49124  1  0  0  0
 50 51  1  0  0  0
 50125  1  0  0  0
 50126  1  0  0  0
 51 52  1  0  0  0
 51127  1  0  0  0
 51128  1  0  0  0
 52129  1  0  0  0
 52130  1  0  0  0
 53 54  1  0  0  0
 54 55  2  0  0  0
 54131  1  0  0  0
 55 57  1  0  0  0
 55132  1  0  0  0
 56 69  2  0  0  0
 57 58  2  0  0  0
 57133  1  0  0  0
 58134  1  0  0  0
 59 60  1  0  0  0
 59 61  1  0  0  0
 59 62  1  0  0  0
 60135  1  0  0  0
 60136  1  0  0  0
 60137  1  0  0  0
 61138  1  0  0  0
 61139  1  0  0  0
 61140  1  0  0  0
 62141  1  0  0  0
 62142  1  0  0  0
 62143  1  0  0  0
 63 65  1  0  0  0
 63144  1  0  0  0
 63145  1  0  0  0
 63146  1  0  0  0
 64147  1  0  0  0
 65148  1  0  0  0
 68 80  1  0  0  0
 71 72  2  0  0  0
 71 81  1  0  0  0
 71 84  1  0  0  0
 72 85  1  0  0  0
 72 89  1  0  0  0
 73 84  2  0  0  0
 73 86  1  0  0  0
 73 89  1  0  0  0
 74149  1  0  0  0
 74150  1  0  0  0
 74151  1  0  0  0
 74 83  1  0  0  0
 75 83  1  0  0  0
 75152  1  0  0  0
 75153  1  0  0  0
 75154  1  0  0  0
 76 83  1  0  0  0
 76155  1  0  0  0
 76156  1  0  0  0
 76157  1  0  0  0
 77 78  1  0  0  0
 77158  1  0  0  0
 77159  1  0  0  0
 77 81  1  0  0  0
 78 83  1  0  0  0
 78160  1  0  0  0
 78161  1  0  0  0
 79 82  1  0  0  0
 79 87  1  0  0  0
 79162  1  0  0  0
 79163  1  0  0  0
 80 82  1  0  0  0
 80164  1  0  0  0
 80165  1  0  0  0
 81 87  1  0  0  0
 81166  1  0  0  0
 82 88  1  0  0  0
 82167  1  0  0  0
 85168  1  0  0  0
 85169  1  0  0  0
 86170  1  0  0  0
 87171  1  0  0  0
 87172  1  0  0  0
 88173  1  0  0  0
M  CHG  1  87   1
M  ISO  4   1 100  68 101  80 101  86 100
M  END
> <chiral flag>
0

> <version>
0

> <s_m_source_file>
/data/baiqing/PycharmProjects/Reinvent-master-3.2/result/LINK_invent/BTK/process_docking_weight1_custom_product_contain_oxygen_bond_distance_aromatic_linkinvent_7_9_3/rearranged_h_0196.sdf

> <i_m_source_file_index>
24

> <r_mmod_Potential_Energy-OPLS-2005>
-255.288452148438

> <r_mmod_Stretch_Energy-OPLS-2005>
54.1375274658203

> <r_mmod_Bend_Energy-OPLS-2005>
120.388549804688

> <r_mmod_Torsional_Energy-OPLS-2005>
271.500549316406

> <r_mmod_Improper_Torsional_Energy-OPLS-2005>
12.0059728622437

> <r_mmod_Van_der_Waal_Energy-OPLS-2005>
124.170669555664

> <r_mmod_Electrostatic_Energy-OPLS-2005>
-415.527099609375

> <r_mmod_Solvation_Energy-OPLS-2005>
-447.565612792969

> <b_mmod_Minimization_Converged-OPLS-2005>
0

> <r_mmod_RMS_Derivative-OPLS-2005>
3.19855904579163

$$$$
24
                    3D
 Structure written by MMmdl.
152160  0  0  1  0            999 V2000
  -30.6182  -14.7428   20.4396 C   0  0  0  0  0  0
  -30.4302  -12.4447   19.4895 C   0  0  0  0  0  0
  -29.5158  -12.5051   18.2454 C   0  0  0  0  0  0
  -28.0395  -12.3353   18.6525 C   0  0  0  0  0  0
  -27.6436  -13.2350   19.8538 C   0  0  2  0  0  0
  -28.6854  -13.1720   20.9934 C   0  0  0  0  0  0
  -25.2513  -13.8204   20.5703 C   0  0  0  0  0  0
  -24.1803  -13.0445   20.9208 C   0  0  0  0  0  0
  -24.6396  -11.6922   20.8742 C   0  0  0  0  0  0
  -23.9073  -10.4297   21.0400 C   0  0  0  0  0  0
  -24.3623   -9.4213   21.9178 C   0  0  0  0  0  0
  -23.6299   -8.2248   22.0752 C   0  0  0  0  0  0
  -22.4282   -8.0283   21.3541 C   0  0  0  0  0  0
  -21.9915   -9.0257   20.4647 C   0  0  0  0  0  0
  -22.7243  -10.2136   20.3053 C   0  0  0  0  0  0
  -21.6857   -6.0737   22.5279 C   0  0  0  0  0  0
  -21.4018   -6.5641   23.8212 C   0  0  0  0  0  0
  -21.3659   -5.6793   24.9174 C   0  0  0  0  0  0
  -21.6043   -4.3054   24.7224 C   0  0  0  0  0  0
  -21.8818   -3.8147   23.4345 C   0  0  0  0  0  0
  -21.9193   -4.6964   22.3402 C   0  0  0  0  0  0
  -22.7822  -13.5224   21.1860 C   0  0  0  0  0  0
  -22.1660   -4.2150   21.0978 F   0  0  0  0  0  0
  -21.5627   -3.4537   25.7737 F   0  0  0  0  0  0
  -29.9918  -13.5144   20.4180 N   0  0  0  0  0  0
  -26.2945  -12.9421   20.3289 N   0  0  0  0  0  0
  -25.9332  -11.6560   20.5754 N   0  0  0  0  0  0
  -22.0461  -12.8224   22.0419 N   0  0  0  0  0  0
  -25.4196  -15.1929   20.4131 N   0  0  0  0  0  0
  -31.8087  -14.8107   20.1164 O   0  0  0  0  0  0
  -21.6642   -6.8879   21.4243 O   0  0  0  0  0  0
  -22.3505  -14.5526   20.6698 O   0  0  0  0  0  0
  -24.6320  -31.8558   23.1997 C   0  0  0  0  0  0
  -25.9147  -32.4757   23.8340 C   0  0  1  0  0  0
  -27.2113  -27.2543   20.1269 C   0  0  0  0  0  0
  -25.5942  -33.8559   24.2260 N   0  0  0  0  0  0
  -23.4278  -30.4813   21.5428 C   0  0  2  0  0  0
  -24.8737  -28.9329   20.1050 C   0  0  0  0  0  0
  -22.7500  -29.4616   22.4903 C   0  0  0  0  0  0
  -18.0293  -28.1387   22.8476 C   0  0  0  0  0  0
  -24.1489  -36.7286   23.2640 C   0  0  0  0  0  0
  -25.9751  -30.7652   21.3826 C   0  0  0  0  0  0
  -26.0456  -29.3888   20.7221 C   0  0  0  0  0  0
  -27.2157  -28.5608   20.7256 C   0  0  0  0  0  0
  -26.0220  -26.8847   19.4556 C   0  0  0  0  0  0
  -24.8685  -27.6895   19.4592 C   0  0  0  0  0  0
  -23.6453  -29.8203   20.1569 C   0  0  0  0  0  0
  -25.4114  -36.3071   24.0327 C   0  0  1  0  0  0
  -20.5895  -28.3706   23.1255 C   0  0  2  0  0  0
  -20.6780  -26.9423   22.5398 C   0  0  0  0  0  0
  -19.5757  -26.6382   21.5201 C   0  0  0  0  0  0
  -18.1939  -26.7926   22.1617 C   0  0  0  0  0  0
  -19.1545  -28.8862   23.2863 C   0  0  0  0  0  0
  -18.9469  -30.1458   23.8887 C   0  0  0  0  0  0
  -17.6470  -30.6589   24.0558 C   0  0  0  0  0  0
  -25.9057  -34.9442   23.5094 C   0  0  0  0  0  0
  -16.5360  -29.9085   23.6329 C   0  0  0  0  0  0
  -16.7281  -28.6500   23.0352 C   0  0  0  0  0  0
  -26.4506  -31.6583   25.0733 C   0  0  0  0  0  0
  -25.3724  -31.3733   26.1450 C   0  0  0  0  0  0
  -27.0360  -30.2998   24.6233 C   0  0  0  0  0  0
  -27.6057  -32.4323   25.7508 C   0  0  0  0  0  0
  -27.5577  -37.1802   24.8466 C   0  0  0  0  0  0
  -21.4208  -29.3055   22.3643 N   0  0  0  0  0  0
  -26.4289  -37.3771   23.9408 N   0  0  0  0  0  0
  -24.6974  -31.0521   22.0978 N   0  0  0  0  0  0
  -23.4199  -28.8151   23.3000 O   0  0  0  0  0  0
  -28.2876  -26.3339   20.2169 O   0  0  0  0  0  0
  -26.5628  -34.8916   22.4662 O   0  0  0  0  0  0
  -23.5470  -32.1389   23.7289 O   0  0  0  0  0  0
  -30.6910  -18.5814   18.1448 C   0  0  0  0  0  0
  -30.5818  -17.3497   18.8114 C   0  0  0  0  0  0
  -30.2142  -19.7528   18.7533 C   0  0  0  0  0  0
  -30.0044  -17.2609   20.0969 C   0  0  0  0  0  0
  -29.6334  -19.6924   20.0294 C   0  0  0  0  0  0
  -28.6974  -22.1633   19.9306 C   0  0  0  0  0  0
  -28.0212  -24.8676   19.9716 C   0  0  0  0  0  0
  -28.9042  -23.6406   20.5728 C   0  0  1  0  0  0
  -29.5355  -18.4550   20.6691 N   0  0  0  0  0  0
  -29.8644  -15.8925   20.6656 N   0  0  0  0  0  0
  -29.2126  -20.9266   20.6546 N   0  0  0  0  0  0
  -28.5480  -23.4989   21.9390 O   0  0  0  0  0  0
  -31.4750  -12.5517   19.1935 H   0  0  0  0  0  0
  -30.3599  -11.4693   19.9738 H   0  0  0  0  0  0
  -29.7989  -11.7308   17.5310 H   0  0  0  0  0  0
  -29.6506  -13.4593   17.7328 H   0  0  0  0  0  0
  -27.8910  -11.2869   18.9132 H   0  0  0  0  0  0
  -27.3868  -12.5306   17.8009 H   0  0  0  0  0  0
  -27.6386  -14.2567   19.4735 H   0  0  0  0  0  0
  -28.7144  -12.1768   21.4396 H   0  0  0  0  0  0
  -28.4206  -13.8598   21.7976 H   0  0  0  0  0  0
  -25.2764   -9.5694   22.4756 H   0  0  0  0  0  0
  -24.0006   -7.4641   22.7474 H   0  0  0  0  0  0
  -21.0842   -8.8775   19.8959 H   0  0  0  0  0  0
  -22.3691  -10.9674   19.6165 H   0  0  0  0  0  0
  -21.2014   -7.6149   23.9717 H   0  0  0  0  0  0
  -21.1482   -6.0521   25.9075 H   0  0  0  0  0  0
  -22.0597   -2.7610   23.2843 H   0  0  0  0  0  0
  -22.4079  -11.9898   22.4833 H   0  0  0  0  0  0
  -21.1075  -13.1249   22.2605 H   0  0  0  0  0  0
  -24.6505  -15.8443   20.5268 H   0  0  0  0  0  0
  -26.2651  -15.6355   20.0771 H   0  0  0  0  0  0
  -26.7212  -32.5401   23.1078 H   0  0  0  0  0  0
  -25.0080  -33.9688   25.0400 H   0  0  0  0  0  0
  -22.7250  -31.3047   21.3995 H   0  0  0  0  0  0
  -23.3749  -35.9621   23.3301 H   0  0  0  0  0  0
  -24.3581  -36.8911   22.2056 H   0  0  0  0  0  0
  -23.7243  -37.6488   23.6664 H   0  0  0  0  0  0
  -26.1166  -31.5271   20.6147 H   0  0  0  0  0  0
  -26.8520  -30.8117   22.0169 H   0  0  0  0  0  0
  -28.1069  -28.9001   21.2347 H   0  0  0  0  0  0
  -25.9449  -25.9466   18.9274 H   0  0  0  0  0  0
  -23.9761  -27.3406   18.9577 H   0  0  0  0  0  0
  -23.7693  -30.5994   19.4040 H   0  0  0  0  0  0
  -22.7625  -29.2563   19.8506 H   0  0  0  0  0  0
  -25.1295  -36.1919   25.0820 H   0  0  0  0  0  0
  -20.9990  -28.3289   24.1375 H   0  0  0  0  0  0
  -20.5666  -26.2325   23.3608 H   0  0  0  0  0  0
  -21.6652  -26.7439   22.1203 H   0  0  0  0  0  0
  -19.6922  -25.6287   21.1245 H   0  0  0  0  0  0
  -19.6690  -27.3178   20.6719 H   0  0  0  0  0  0
  -17.4205  -26.6661   21.4025 H   0  0  0  0  0  0
  -18.0354  -26.0070   22.9018 H   0  0  0  0  0  0
  -19.7948  -30.7270   24.2256 H   0  0  0  0  0  0
  -17.5029  -31.6268   24.5162 H   0  0  0  0  0  0
  -15.5361  -30.2987   23.7657 H   0  0  0  0  0  0
  -15.8680  -28.0816   22.7074 H   0  0  0  0  0  0
  -24.5906  -30.7073   25.7777 H   0  0  0  0  0  0
  -24.8907  -32.2901   26.4858 H   0  0  0  0  0  0
  -25.8040  -30.8923   27.0238 H   0  0  0  0  0  0
  -26.2955  -29.6737   24.1244 H   0  0  0  0  0  0
  -27.4020  -29.7269   25.4763 H   0  0  0  0  0  0
  -27.8840  -30.4266   23.9500 H   0  0  0  0  0  0
  -27.2668  -33.3629   26.2069 H   0  0  0  0  0  0
  -28.3880  -32.6872   25.0346 H   0  0  0  0  0  0
  -28.0715  -31.8460   26.5439 H   0  0  0  0  0  0
  -28.2597  -38.0097   24.7509 H   0  0  0  0  0  0
  -28.1069  -36.2627   24.6293 H   0  0  0  0  0  0
  -27.2297  -37.1457   25.8870 H   0  0  0  0  0  0
  -20.9392  -29.8793   21.6861 H   0  0  0  0  0  0
  -26.0167  -38.2847   24.1399 H   0  0  0  0  0  0
  -31.1439  -18.6283   17.1650 H   0  0  0  0  0  0
  -30.9462  -16.4702   18.2996 H   0  0  0  0  0  0
  -30.3404  -20.6860   18.2251 H   0  0  0  0  0  0
  -29.0816  -22.1948   18.9132 H   0  0  0  0  0  0
  -27.6243  -22.0070   19.8135 H   0  0  0  0  0  0
  -26.9978  -24.6399   20.2722 H   0  0  0  0  0  0
  -28.0365  -24.7552   18.8867 H   0  0  0  0  0  0
  -29.9614  -23.9027   20.5089 H   0  0  0  0  0  0
  -28.9922  -15.7299   21.1427 H   0  0  0  0  0  0
  -28.9044  -20.8688   21.6202 H   0  0  0  0  0  0
  -28.7222  -24.3361   22.3603 H   0  0  0  0  0  0
  1 25  1  0  0  0
  1 30  2  0  0  0
  1 80  1  0  0  0
  2  3  1  0  0  0
  2 25  1  0  0  0
  2 83  1  0  0  0
  2 84  1  0  0  0
  3  4  1  0  0  0
  3 85  1  0  0  0
  3 86  1  0  0  0
  4  5  1  0  0  0
  4 87  1  0  0  0
  4 88  1  0  0  0
  5  6  1  0  0  0
  5 26  1  0  0  0
  5 89  1  0  0  0
  6 25  1  0  0  0
  6 90  1  0  0  0
  6 91  1  0  0  0
  7  8  2  0  0  0
  7 26  1  0  0  0
  7 29  1  0  0  0
  8  9  1  0  0  0
  8 22  1  0  0  0
  9 10  1  0  0  0
  9 27  2  0  0  0
 10 11  2  0  0  0
 10 15  1  0  0  0
 11 12  1  0  0  0
 11 92  1  0  0  0
 12 13  2  0  0  0
 12 93  1  0  0  0
 13 14  1  0  0  0
 13 31  1  0  0  0
 14 15  2  0  0  0
 14 94  1  0  0  0
 15 95  1  0  0  0
 16 17  2  0  0  0
 16 21  1  0  0  0
 16 31  1  0  0  0
 17 18  1  0  0  0
 17 96  1  0  0  0
 18 19  2  0  0  0
 18 97  1  0  0  0
 19 20  1  0  0  0
 19 24  1  0  0  0
 20 21  2  0  0  0
 20 98  1  0  0  0
 21 23  1  0  0  0
 22 28  1  0  0  0
 22 32  2  0  0  0
 26 27  1  0  0  0
 28 99  1  0  0  0
 28100  1  0  0  0
 29101  1  0  0  0
 29102  1  0  0  0
 33 34  1  0  0  0
 33 66  1  0  0  0
 33 70  2  0  0  0
 34 36  1  0  0  0
 34 59  1  0  0  0
 34103  1  0  0  0
 35 44  2  0  0  0
 35 45  1  0  0  0
 35 68  1  0  0  0
 36 56  1  0  0  0
 36104  1  0  0  0
 37 39  1  0  0  0
 37 47  1  0  0  0
 37 66  1  0  0  0
 37105  1  0  0  0
 38 43  2  0  0  0
 38 46  1  0  0  0
 38 47  1  0  0  0
 39 64  1  0  0  0
 39 67  2  0  0  0
 40 52  1  0  0  0
 40 53  2  0  0  0
 40 58  1  0  0  0
 41106  1  0  0  0
 41107  1  0  0  0
 41108  1  0  0  0
 41 48  1  0  0  0
 42 43  1  0  0  0
 42 66  1  0  0  0
 42109  1  0  0  0
 42110  1  0  0  0
 43 44  1  0  0  0
 44111  1  0  0  0
 45 46  2  0  0  0
 45112  1  0  0  0
 46113  1  0  0  0
 47114  1  0  0  0
 47115  1  0  0  0
 48 56  1  0  0  0
 48 65  1  0  0  0
 48116  1  0  0  0
 49 50  1  0  0  0
 49 53  1  0  0  0
 49 64  1  0  0  0
 49117  1  0  0  0
 50 51  1  0  0  0
 50118  1  0  0  0
 50119  1  0  0  0
 51 52  1  0  0  0
 51120  1  0  0  0
 51121  1  0  0  0
 52122  1  0  0  0
 52123  1  0  0  0
 53 54  1  0  0  0
 54 55  2  0  0  0
 54124  1  0  0  0
 55 57  1  0  0  0
 55125  1  0  0  0
 56 69  2  0  0  0
 57 58  2  0  0  0
 57126  1  0  0  0
 58127  1  0  0  0
 59 60  1  0  0  0
 59 61  1  0  0  0
 59 62  1  0  0  0
 60128  1  0  0  0
 60129  1  0  0  0
 60130  1  0  0  0
 61131  1  0  0  0
 61132  1  0  0  0
 61133  1  0  0  0
 62134  1  0  0  0
 62135  1  0  0  0
 62136  1  0  0  0
 63 65  1  0  0  0
 63137  1  0  0  0
 63138  1  0  0  0
 63139  1  0  0  0
 64140  1  0  0  0
 65141  1  0  0  0
 68 77  1  0  0  0
 71 72  2  0  0  0
 71 73  1  0  0  0
 71142  1  0  0  0
 72 74  1  0  0  0
 72143  1  0  0  0
 73 75  2  0  0  0
 73144  1  0  0  0
 74 79  2  0  0  0
 74 80  1  0  0  0
 75 79  1  0  0  0
 75 81  1  0  0  0
 76 78  1  0  0  0
 76 81  1  0  0  0
 76145  1  0  0  0
 76146  1  0  0  0
 77 78  1  0  0  0
 77147  1  0  0  0
 77148  1  0  0  0
 78 82  1  0  0  0
 78149  1  0  0  0
 80150  1  0  0  0
 81151  1  0  0  0
 82152  1  0  0  0
M  ISO  4   1 100  68 101  77 101  80 100
M  END
> <chiral flag>
0

> <version>
0

> <s_m_source_file>
/data/baiqing/PycharmProjects/Reinvent-master-3.2/result/LINK_invent/BTK/process_docking_weight1_custom_product_contain_oxygen_bond_distance_aromatic_linkinvent_7_9_3/rearranged_h_0196.sdf

> <i_m_source_file_index>
25

> <r_mmod_Potential_Energy-OPLS-2005>
-57.6355590820312

> <r_mmod_Stretch_Energy-OPLS-2005>
127.072891235352

> <r_mmod_Bend_Energy-OPLS-2005>
170.277420043945

> <r_mmod_Torsional_Energy-OPLS-2005>
257.819976806641

> <r_mmod_Improper_Torsional_Energy-OPLS-2005>
5.76696586608887

> <r_mmod_Van_der_Waal_Energy-OPLS-2005>
150.22673034668

> <r_mmod_Electrostatic_Energy-OPLS-2005>
-610.679077148438

> <r_mmod_Solvation_Energy-OPLS-2005>
-247.938217163086

> <b_mmod_Minimization_Converged-OPLS-2005>
0

> <r_mmod_RMS_Derivative-OPLS-2005>
0.735555052757263

$$$$
25
                    3D
 Structure written by MMmdl.
151159  0  0  1  0            999 V2000
  -30.6862  -14.4659   20.6037 C   0  0  0  0  0  0
  -30.4329  -12.3101   19.4179 C   0  0  0  0  0  0
  -29.5004  -12.5207   18.2069 C   0  0  0  0  0  0
  -28.0198  -12.3754   18.6142 C   0  0  0  0  0  0
  -27.6689  -13.1991   19.8813 C   0  0  2  0  0  0
  -28.7073  -12.9503   20.9981 C   0  0  0  0  0  0
  -25.2627  -13.8135   20.5651 C   0  0  0  0  0  0
  -24.1863  -13.0420   20.9154 C   0  0  0  0  0  0
  -24.6409  -11.6894   20.8726 C   0  0  0  0  0  0
  -23.9055  -10.4292   21.0407 C   0  0  0  0  0  0
  -24.3613   -9.4210   21.9181 C   0  0  0  0  0  0
  -23.6291   -8.2249   22.0771 C   0  0  0  0  0  0
  -22.4275   -8.0293   21.3559 C   0  0  0  0  0  0
  -21.9906   -9.0258   20.4654 C   0  0  0  0  0  0
  -22.7232  -10.2133   20.3052 C   0  0  0  0  0  0
  -21.6853   -6.0744   22.5289 C   0  0  0  0  0  0
  -21.4008   -6.5651   23.8221 C   0  0  0  0  0  0
  -21.3660   -5.6808   24.9187 C   0  0  0  0  0  0
  -21.6039   -4.3069   24.7227 C   0  0  0  0  0  0
  -21.8825   -3.8154   23.4354 C   0  0  0  0  0  0
  -21.9190   -4.6969   22.3411 C   0  0  0  0  0  0
  -22.7888  -13.5239   21.1829 C   0  0  0  0  0  0
  -22.1664   -4.2158   21.0986 F   0  0  0  0  0  0
  -21.5625   -3.4555   25.7734 F   0  0  0  0  0  0
  -30.0421  -13.2734   20.4602 N   0  0  0  0  0  0
  -26.3068  -12.9291   20.3370 N   0  0  0  0  0  0
  -25.9334  -11.6460   20.5743 N   0  0  0  0  0  0
  -22.0530  -12.8223   22.0383 N   0  0  0  0  0  0
  -25.4352  -15.1850   20.4051 N   0  0  0  0  0  0
  -31.7757  -14.7083   20.0743 O   0  0  0  0  0  0
  -21.6645   -6.8888   21.4255 O   0  0  0  0  0  0
  -22.3581  -14.5553   20.6702 O   0  0  0  0  0  0
  -24.6121  -31.8662   23.2082 C   0  0  0  0  0  0
  -25.9006  -32.4813   23.8393 C   0  0  1  0  0  0
  -27.2395  -27.4122   20.0926 C   0  0  0  0  0  0
  -25.5864  -33.8621   24.2309 N   0  0  0  0  0  0
  -23.4034  -30.4860   21.5508 C   0  0  2  0  0  0
  -24.8480  -28.9473   20.1190 C   0  0  0  0  0  0
  -22.7419  -29.4619   22.5008 C   0  0  0  0  0  0
  -18.0272  -28.1353   22.8507 C   0  0  0  0  0  0
  -24.1488  -36.7333   23.2638 C   0  0  0  0  0  0
  -25.9336  -30.8226   21.3664 C   0  0  0  0  0  0
  -26.0089  -29.4553   20.7127 C   0  0  0  0  0  0
  -27.2017  -28.6941   20.6974 C   0  0  0  0  0  0
  -26.0475  -26.9163   19.5120 C   0  0  0  0  0  0
  -24.8629  -27.6777   19.5190 C   0  0  0  0  0  0
  -23.6104  -29.8152   20.1667 C   0  0  0  0  0  0
  -25.4114  -36.3115   24.0322 C   0  0  1  0  0  0
  -20.5860  -28.3634   23.1340 C   0  0  2  0  0  0
  -20.6747  -26.9374   22.5421 C   0  0  0  0  0  0
  -19.5724  -26.6364   21.5218 C   0  0  0  0  0  0
  -18.1907  -26.7900   22.1639 C   0  0  0  0  0  0
  -19.1519  -28.8819   23.2911 C   0  0  0  0  0  0
  -18.9440  -30.1433   23.8900 C   0  0  0  0  0  0
  -17.6436  -30.6559   24.0568 C   0  0  0  0  0  0
  -25.9040  -34.9474   23.5127 C   0  0  0  0  0  0
  -16.5331  -29.9058   23.6318 C   0  0  0  0  0  0
  -16.7260  -28.6474   23.0348 C   0  0  0  0  0  0
  -26.4417  -31.6613   25.0741 C   0  0  0  0  0  0
  -25.3683  -31.3725   26.1495 C   0  0  0  0  0  0
  -27.0235  -30.3041   24.6136 C   0  0  0  0  0  0
  -27.5998  -32.4332   25.7503 C   0  0  0  0  0  0
  -27.5583  -37.1817   24.8454 C   0  0  0  0  0  0
  -21.4142  -29.3000   22.3754 N   0  0  0  0  0  0
  -26.4302  -37.3795   23.9393 N   0  0  0  0  0  0
  -24.6683  -31.0736   22.0997 N   0  0  0  0  0  0
  -23.4191  -28.8161   23.3048 O   0  0  0  0  0  0
  -28.4406  -26.7179   20.1007 O   0  0  0  0  0  0
  -26.5625  -34.8927   22.4699 O   0  0  0  0  0  0
  -23.5307  -32.1448   23.7445 O   0  0  0  0  0  0
  -30.0593  -16.7853   21.1596 C   0  0  0  0  0  0
  -29.6443  -19.1329   20.7519 C   0  0  0  0  0  0
  -28.6067  -24.2513   20.5530 C   0  0  0  0  0  0
  -29.2275  -21.7318   20.9405 C   0  0  0  0  0  0
  -28.5762  -25.4061   19.5121 C   0  0  0  0  0  0
  -28.7805  -22.8300   19.9353 C   0  0  1  0  0  0
  -30.6831  -17.5739   22.0498 N   0  0  0  0  0  0
  -30.4497  -18.9309   21.8059 N   0  0  0  0  0  0
  -30.0251  -15.3772   21.3382 N   0  0  0  0  0  0
  -29.1994  -20.3934   20.3447 N   0  0  0  0  0  0
  -27.5479  -22.3993   19.3776 O   0  0  0  0  0  0
  -29.1328  -17.6529   19.9296 S   0  0  0  0  0  0
  -31.4779  -12.4212   19.1214 H   0  0  0  0  0  0
  -30.3398  -11.2914   19.7982 H   0  0  0  0  0  0
  -29.7424  -11.8107   17.4153 H   0  0  0  0  0  0
  -29.6661  -13.5134   17.7874 H   0  0  0  0  0  0
  -27.8242  -11.3180   18.7920 H   0  0  0  0  0  0
  -27.3731  -12.6673   17.7858 H   0  0  0  0  0  0
  -27.7211  -14.2512   19.6018 H   0  0  0  0  0  0
  -28.6843  -11.9046   21.3067 H   0  0  0  0  0  0
  -28.4565  -13.5108   21.8988 H   0  0  0  0  0  0
  -25.2765   -9.5678   22.4739 H   0  0  0  0  0  0
  -24.0003   -7.4643   22.7491 H   0  0  0  0  0  0
  -21.0852   -8.8784   19.8953 H   0  0  0  0  0  0
  -22.3716  -10.9676   19.6159 H   0  0  0  0  0  0
  -21.2014   -7.6164   23.9724 H   0  0  0  0  0  0
  -21.1467   -6.0543   25.9092 H   0  0  0  0  0  0
  -22.0595   -2.7617   23.2854 H   0  0  0  0  0  0
  -22.4147  -11.9861   22.4723 H   0  0  0  0  0  0
  -21.1157  -13.1254   22.2616 H   0  0  0  0  0  0
  -24.6621  -15.8333   20.5055 H   0  0  0  0  0  0
  -26.2772  -15.6243   20.0554 H   0  0  0  0  0  0
  -26.7085  -32.5492   23.1161 H   0  0  0  0  0  0
  -24.9947  -33.9809   25.0403 H   0  0  0  0  0  0
  -22.6915  -31.3015   21.4102 H   0  0  0  0  0  0
  -23.3738  -35.9677   23.3305 H   0  0  0  0  0  0
  -24.3584  -36.8956   22.2054 H   0  0  0  0  0  0
  -23.7260  -37.6542   23.6665 H   0  0  0  0  0  0
  -26.0552  -31.5882   20.5991 H   0  0  0  0  0  0
  -26.8175  -30.8700   21.9915 H   0  0  0  0  0  0
  -28.0989  -29.0879   21.1545 H   0  0  0  0  0  0
  -25.9903  -25.9415   19.0543 H   0  0  0  0  0  0
  -23.9668  -27.2762   19.0666 H   0  0  0  0  0  0
  -23.7173  -30.5862   19.4033 H   0  0  0  0  0  0
  -22.7339  -29.2338   19.8750 H   0  0  0  0  0  0
  -25.1288  -36.1984   25.0815 H   0  0  0  0  0  0
  -20.9966  -28.3178   24.1458 H   0  0  0  0  0  0
  -20.5648  -26.2243   23.3601 H   0  0  0  0  0  0
  -21.6614  -26.7387   22.1219 H   0  0  0  0  0  0
  -19.6881  -25.6283   21.1223 H   0  0  0  0  0  0
  -19.6652  -27.3193   20.6765 H   0  0  0  0  0  0
  -17.4173  -26.6655   21.4034 H   0  0  0  0  0  0
  -18.0299  -26.0027   22.9027 H   0  0  0  0  0  0
  -19.7911  -30.7254   24.2265 H   0  0  0  0  0  0
  -17.4979  -31.6243   24.5159 H   0  0  0  0  0  0
  -15.5325  -30.2953   23.7632 H   0  0  0  0  0  0
  -15.8665  -28.0793   22.7051 H   0  0  0  0  0  0
  -24.5830  -30.7102   25.7827 H   0  0  0  0  0  0
  -24.8903  -32.2887   26.4973 H   0  0  0  0  0  0
  -25.8031  -30.8862   27.0241 H   0  0  0  0  0  0
  -26.2792  -29.6854   24.1103 H   0  0  0  0  0  0
  -27.3889  -29.7218   25.4608 H   0  0  0  0  0  0
  -27.8684  -30.4338   23.9364 H   0  0  0  0  0  0
  -27.2604  -33.3613   26.2118 H   0  0  0  0  0  0
  -28.3781  -32.6932   25.0316 H   0  0  0  0  0  0
  -28.0695  -31.8443   26.5393 H   0  0  0  0  0  0
  -28.2584  -38.0125   24.7500 H   0  0  0  0  0  0
  -28.1090  -36.2654   24.6269 H   0  0  0  0  0  0
  -27.2306  -37.1459   25.8858 H   0  0  0  0  0  0
  -20.9306  -29.8774   21.7021 H   0  0  0  0  0  0
  -26.0187  -38.2873   24.1385 H   0  0  0  0  0  0
  -27.7152  -24.2854   21.1794 H   0  0  0  0  0  0
  -29.4435  -24.4390   21.2271 H   0  0  0  0  0  0
  -28.5827  -21.7360   21.8204 H   0  0  0  0  0  0
  -30.2368  -21.9456   21.2971 H   0  0  0  0  0  0
  -27.8620  -25.1996   18.7196 H   0  0  0  0  0  0
  -29.5373  -25.4103   18.9984 H   0  0  0  0  0  0
  -29.5192  -22.8846   19.1337 H   0  0  0  0  0  0
  -29.1841  -15.0248   21.7640 H   0  0  0  0  0  0
  -28.6167  -20.3735   19.5114 H   0  0  0  0  0  0
  -26.9598  -22.1976   20.0992 H   0  0  0  0  0  0
  1 25  1  0  0  0
  1 30  2  0  0  0
  1 79  1  0  0  0
  2  3  1  0  0  0
  2 25  1  0  0  0
  2 83  1  0  0  0
  2 84  1  0  0  0
  3  4  1  0  0  0
  3 85  1  0  0  0
  3 86  1  0  0  0
  4  5  1  0  0  0
  4 87  1  0  0  0
  4 88  1  0  0  0
  5  6  1  0  0  0
  5 26  1  0  0  0
  5 89  1  0  0  0
  6 25  1  0  0  0
  6 90  1  0  0  0
  6 91  1  0  0  0
  7  8  2  0  0  0
  7 26  1  0  0  0
  7 29  1  0  0  0
  8  9  1  0  0  0
  8 22  1  0  0  0
  9 10  1  0  0  0
  9 27  2  0  0  0
 10 11  2  0  0  0
 10 15  1  0  0  0
 11 12  1  0  0  0
 11 92  1  0  0  0
 12 13  2  0  0  0
 12 93  1  0  0  0
 13 14  1  0  0  0
 13 31  1  0  0  0
 14 15  2  0  0  0
 14 94  1  0  0  0
 15 95  1  0  0  0
 16 17  2  0  0  0
 16 21  1  0  0  0
 16 31  1  0  0  0
 17 18  1  0  0  0
 17 96  1  0  0  0
 18 19  2  0  0  0
 18 97  1  0  0  0
 19 20  1  0  0  0
 19 24  1  0  0  0
 20 21  2  0  0  0
 20 98  1  0  0  0
 21 23  1  0  0  0
 22 28  1  0  0  0
 22 32  2  0  0  0
 26 27  1  0  0  0
 28 99  1  0  0  0
 28100  1  0  0  0
 29101  1  0  0  0
 29102  1  0  0  0
 33 34  1  0  0  0
 33 66  1  0  0  0
 33 70  2  0  0  0
 34 36  1  0  0  0
 34 59  1  0  0  0
 34103  1  0  0  0
 35 44  2  0  0  0
 35 45  1  0  0  0
 35 68  1  0  0  0
 36 56  1  0  0  0
 36104  1  0  0  0
 37 39  1  0  0  0
 37 47  1  0  0  0
 37 66  1  0  0  0
 37105  1  0  0  0
 38 43  2  0  0  0
 38 46  1  0  0  0
 38 47  1  0  0  0
 39 64  1  0  0  0
 39 67  2  0  0  0
 40 52  1  0  0  0
 40 53  2  0  0  0
 40 58  1  0  0  0
 41106  1  0  0  0
 41107  1  0  0  0
 41108  1  0  0  0
 41 48  1  0  0  0
 42 43  1  0  0  0
 42 66  1  0  0  0
 42109  1  0  0  0
 42110  1  0  0  0
 43 44  1  0  0  0
 44111  1  0  0  0
 45 46  2  0  0  0
 45112  1  0  0  0
 46113  1  0  0  0
 47114  1  0  0  0
 47115  1  0  0  0
 48 56  1  0  0  0
 48 65  1  0  0  0
 48116  1  0  0  0
 49 50  1  0  0  0
 49 53  1  0  0  0
 49 64  1  0  0  0
 49117  1  0  0  0
 50 51  1  0  0  0
 50118  1  0  0  0
 50119  1  0  0  0
 51 52  1  0  0  0
 51120  1  0  0  0
 51121  1  0  0  0
 52122  1  0  0  0
 52123  1  0  0  0
 53 54  1  0  0  0
 54 55  2  0  0  0
 54124  1  0  0  0
 55 57  1  0  0  0
 55125  1  0  0  0
 56 69  2  0  0  0
 57 58  2  0  0  0
 57126  1  0  0  0
 58127  1  0  0  0
 59 60  1  0  0  0
 59 61  1  0  0  0
 59 62  1  0  0  0
 60128  1  0  0  0
 60129  1  0  0  0
 60130  1  0  0  0
 61131  1  0  0  0
 61132  1  0  0  0
 61133  1  0  0  0
 62134  1  0  0  0
 62135  1  0  0  0
 62136  1  0  0  0
 63 65  1  0  0  0
 63137  1  0  0  0
 63138  1  0  0  0
 63139  1  0  0  0
 64140  1  0  0  0
 65141  1  0  0  0
 68 75  1  0  0  0
 71 77  2  0  0  0
 71 79  1  0  0  0
 71 82  1  0  0  0
 72 78  2  0  0  0
 72 80  1  0  0  0
 72 82  1  0  0  0
 73 75  1  0  0  0
 73 76  1  0  0  0
 73142  1  0  0  0
 73143  1  0  0  0
 74 76  1  0  0  0
 74 80  1  0  0  0
 74144  1  0  0  0
 74145  1  0  0  0
 75146  1  0  0  0
 75147  1  0  0  0
 76 81  1  0  0  0
 76148  1  0  0  0
 77 78  1  0  0  0
 79149  1  0  0  0
 80150  1  0  0  0
 81151  1  0  0  0
M  ISO  4   1 100  68 101  75 101  79 100
M  END
> <chiral flag>
0

> <version>
0

> <s_m_source_file>
/data/baiqing/PycharmProjects/Reinvent-master-3.2/result/LINK_invent/BTK/process_docking_weight1_custom_product_contain_oxygen_bond_distance_aromatic_linkinvent_7_9_3/rearranged_h_0196.sdf

> <i_m_source_file_index>
26

> <r_mmod_Potential_Energy-OPLS-2005>
-218.747467041016

> <r_mmod_Stretch_Energy-OPLS-2005>
37.7205085754395

> <r_mmod_Bend_Energy-OPLS-2005>
106.759223937988

> <r_mmod_Torsional_Energy-OPLS-2005>
241.497711181641

> <r_mmod_Improper_Torsional_Energy-OPLS-2005>
4.87657165527344

> <r_mmod_Van_der_Waal_Energy-OPLS-2005>
127.205780029297

> <r_mmod_Electrostatic_Energy-OPLS-2005>
-495.472595214844

> <r_mmod_Solvation_Energy-OPLS-2005>
-253.879241943359

> <b_mmod_Minimization_Converged-OPLS-2005>
0

> <r_mmod_RMS_Derivative-OPLS-2005>
2.03624844551086

$$$$
26
                    3D
 Structure written by MMmdl.
154162  0  0  1  0            999 V2000
  -30.6001  -14.7934   20.4571 C   0  0  0  0  0  0
  -30.4386  -12.4913   19.4678 C   0  0  0  0  0  0
  -29.5088  -12.5034   18.2340 C   0  0  0  0  0  0
  -28.0381  -12.3171   18.6558 C   0  0  0  0  0  0
  -27.6377  -13.2305   19.8444 C   0  0  2  0  0  0
  -28.6876  -13.1922   20.9772 C   0  0  0  0  0  0
  -25.2507  -13.8189   20.5699 C   0  0  0  0  0  0
  -24.1804  -13.0433   20.9224 C   0  0  0  0  0  0
  -24.6392  -11.6911   20.8759 C   0  0  0  0  0  0
  -23.9067  -10.4289   21.0413 C   0  0  0  0  0  0
  -24.3617   -9.4204   21.9187 C   0  0  0  0  0  0
  -23.6293   -8.2240   22.0756 C   0  0  0  0  0  0
  -22.4277   -8.0277   21.3545 C   0  0  0  0  0  0
  -21.9913   -9.0252   20.4649 C   0  0  0  0  0  0
  -22.7242  -10.2133   20.3060 C   0  0  0  0  0  0
  -21.6853   -6.0733   22.5277 C   0  0  0  0  0  0
  -21.4015   -6.5639   23.8210 C   0  0  0  0  0  0
  -21.3656   -5.6792   24.9171 C   0  0  0  0  0  0
  -21.6043   -4.3055   24.7225 C   0  0  0  0  0  0
  -21.8821   -3.8147   23.4347 C   0  0  0  0  0  0
  -21.9196   -4.6962   22.3402 C   0  0  0  0  0  0
  -22.7826  -13.5218   21.1873 C   0  0  0  0  0  0
  -22.1663   -4.2145   21.0980 F   0  0  0  0  0  0
  -21.5628   -3.4539   25.7740 F   0  0  0  0  0  0
  -29.9781  -13.5622   20.3826 N   0  0  0  0  0  0
  -26.2922  -12.9387   20.3265 N   0  0  0  0  0  0
  -25.9322  -11.6533   20.5766 N   0  0  0  0  0  0
  -22.0473  -12.8203   22.0425 N   0  0  0  0  0  0
  -25.4179  -15.1913   20.4089 N   0  0  0  0  0  0
  -31.8055  -14.8659   20.1947 O   0  0  0  0  0  0
  -21.6644   -6.8874   21.4237 O   0  0  0  0  0  0
  -22.3509  -14.5521   20.6719 O   0  0  0  0  0  0
  -24.6345  -31.8532   23.1957 C   0  0  0  0  0  0
  -25.9155  -32.4745   23.8321 C   0  0  1  0  0  0
  -27.2210  -27.2304   20.1347 C   0  0  0  0  0  0
  -25.5922  -33.8547   24.2242 N   0  0  0  0  0  0
  -23.4338  -30.4742   21.5410 C   0  0  2  0  0  0
  -24.8815  -28.9187   20.1127 C   0  0  0  0  0  0
  -22.7526  -29.4576   22.4901 C   0  0  0  0  0  0
  -18.0298  -28.1380   22.8485 C   0  0  0  0  0  0
  -24.1490  -36.7280   23.2645 C   0  0  0  0  0  0
  -25.9825  -30.7582   21.3786 C   0  0  0  0  0  0
  -26.0564  -29.3775   20.7214 C   0  0  0  0  0  0
  -27.2295  -28.5486   20.7177 C   0  0  0  0  0  0
  -26.0179  -26.8493   19.4970 C   0  0  0  0  0  0
  -24.8687  -27.6632   19.4890 C   0  0  0  0  0  0
  -23.6534  -29.8088   20.1581 C   0  0  0  0  0  0
  -25.4116  -36.3062   24.0328 C   0  0  1  0  0  0
  -20.5900  -28.3698   23.1257 C   0  0  2  0  0  0
  -20.6786  -26.9410   22.5401 C   0  0  0  0  0  0
  -19.5757  -26.6377   21.5210 C   0  0  0  0  0  0
  -18.1938  -26.7921   22.1624 C   0  0  0  0  0  0
  -19.1547  -28.8860   23.2866 C   0  0  0  0  0  0
  -18.9471  -30.1463   23.8883 C   0  0  0  0  0  0
  -17.6469  -30.6588   24.0558 C   0  0  0  0  0  0
  -25.9056  -34.9433   23.5094 C   0  0  0  0  0  0
  -16.5362  -29.9081   23.6334 C   0  0  0  0  0  0
  -16.7282  -28.6497   23.0355 C   0  0  0  0  0  0
  -26.4506  -31.6575   25.0722 C   0  0  0  0  0  0
  -25.3711  -31.3732   26.1429 C   0  0  0  0  0  0
  -27.0373  -30.2996   24.6225 C   0  0  0  0  0  0
  -27.6049  -32.4331   25.7496 C   0  0  0  0  0  0
  -27.5581  -37.1788   24.8470 C   0  0  0  0  0  0
  -21.4229  -29.3038   22.3646 N   0  0  0  0  0  0
  -26.4294  -37.3756   23.9411 N   0  0  0  0  0  0
  -24.7034  -31.0470   22.0947 N   0  0  0  0  0  0
  -23.4218  -28.8105   23.3002 O   0  0  0  0  0  0
  -28.3074  -26.3112   20.1872 O   0  0  0  0  0  0
  -26.5649  -34.8915   22.4678 O   0  0  0  0  0  0
  -23.5489  -32.1363   23.7230 O   0  0  0  0  0  0
  -31.0948  -19.2304   21.4108 C   0  0  0  0  0  0
  -30.0352  -19.6726   20.6459 C   0  0  0  0  0  0
  -30.1283  -17.3764   20.7069 C   0  0  0  0  0  0
  -30.0789  -23.9854   21.5172 C   0  0  0  0  0  0
  -27.9916  -21.7133   21.7263 C   0  0  0  0  0  0
  -28.0217  -24.8169   20.1875 C   0  0  0  0  0  0
  -29.1522  -23.6401   20.3396 C   0  0  2  0  0  0
  -28.7179  -22.0473   20.4146 C   0  0  1  0  0  0
  -31.1424  -17.8272   21.4495 N   0  0  0  0  0  0
  -29.7995  -21.0179   20.1154 N   0  0  0  0  0  0
  -29.8021  -15.9347   20.5389 N   0  0  0  0  0  0
  -29.3932  -18.4740   20.2077 O   0  0  0  0  0  0
  -31.4747  -12.6318   19.1556 H   0  0  0  0  0  0
  -30.4079  -11.5230   19.9691 H   0  0  0  0  0  0
  -29.7989  -11.7174   17.5351 H   0  0  0  0  0  0
  -29.6206  -13.4464   17.6974 H   0  0  0  0  0  0
  -27.9079  -11.2704   18.9353 H   0  0  0  0  0  0
  -27.3759  -12.4883   17.8064 H   0  0  0  0  0  0
  -27.6201  -14.2441   19.4442 H   0  0  0  0  0  0
  -28.7419  -12.2000   21.4275 H   0  0  0  0  0  0
  -28.4169  -13.8800   21.7801 H   0  0  0  0  0  0
  -25.2761   -9.5682   22.4764 H   0  0  0  0  0  0
  -24.0003   -7.4633   22.7475 H   0  0  0  0  0  0
  -21.0846   -8.8772   19.8952 H   0  0  0  0  0  0
  -22.3698  -10.9673   19.6173 H   0  0  0  0  0  0
  -21.2004   -7.6147   23.9708 H   0  0  0  0  0  0
  -21.1476   -6.0525   25.9072 H   0  0  0  0  0  0
  -22.0604   -2.7610   23.2851 H   0  0  0  0  0  0
  -22.4107  -11.9866   22.4801 H   0  0  0  0  0  0
  -21.1090  -13.1219   22.2640 H   0  0  0  0  0  0
  -24.6417  -15.8361   20.5108 H   0  0  0  0  0  0
  -26.2425  -15.6307   20.0231 H   0  0  0  0  0  0
  -26.7230  -32.5399   23.1067 H   0  0  0  0  0  0
  -25.0018  -33.9674   25.0354 H   0  0  0  0  0  0
  -22.7317  -31.2967   21.3934 H   0  0  0  0  0  0
  -23.3746  -35.9623   23.3310 H   0  0  0  0  0  0
  -24.3567  -36.8915   22.2059 H   0  0  0  0  0  0
  -23.7246  -37.6478   23.6679 H   0  0  0  0  0  0
  -26.1223  -31.5168   20.6073 H   0  0  0  0  0  0
  -26.8585  -30.8092   22.0132 H   0  0  0  0  0  0
  -28.1283  -28.8957   21.2094 H   0  0  0  0  0  0
  -25.9258  -25.8954   19.0036 H   0  0  0  0  0  0
  -23.9697  -27.3062   19.0056 H   0  0  0  0  0  0
  -23.7787  -30.5845   19.4012 H   0  0  0  0  0  0
  -22.7719  -29.2429   19.8530 H   0  0  0  0  0  0
  -25.1290  -36.1914   25.0817 H   0  0  0  0  0  0
  -20.9996  -28.3283   24.1375 H   0  0  0  0  0  0
  -20.5684  -26.2307   23.3609 H   0  0  0  0  0  0
  -21.6654  -26.7429   22.1191 H   0  0  0  0  0  0
  -19.6921  -25.6286   21.1252 H   0  0  0  0  0  0
  -19.6695  -27.3187   20.6742 H   0  0  0  0  0  0
  -17.4201  -26.6674   21.4030 H   0  0  0  0  0  0
  -18.0331  -26.0065   22.9021 H   0  0  0  0  0  0
  -19.7951  -30.7273   24.2245 H   0  0  0  0  0  0
  -17.5028  -31.6266   24.5160 H   0  0  0  0  0  0
  -15.5361  -30.2977   23.7666 H   0  0  0  0  0  0
  -15.8683  -28.0817   22.7070 H   0  0  0  0  0  0
  -24.5891  -30.7078   25.7742 H   0  0  0  0  0  0
  -24.8885  -32.2905   26.4819 H   0  0  0  0  0  0
  -25.7999  -30.8923   27.0231 H   0  0  0  0  0  0
  -26.2974  -29.6714   24.1252 H   0  0  0  0  0  0
  -27.4052  -29.7279   25.4753 H   0  0  0  0  0  0
  -27.8849  -30.4270   23.9490 H   0  0  0  0  0  0
  -27.2654  -33.3656   26.2020 H   0  0  0  0  0  0
  -28.3876  -32.6855   25.0326 H   0  0  0  0  0  0
  -28.0698  -31.8489   26.5448 H   0  0  0  0  0  0
  -28.2583  -38.0099   24.7499 H   0  0  0  0  0  0
  -28.1081  -36.2612   24.6307 H   0  0  0  0  0  0
  -27.2289  -37.1456   25.8873 H   0  0  0  0  0  0
  -20.9422  -29.8763   21.6842 H   0  0  0  0  0  0
  -26.0174  -38.2832   24.1403 H   0  0  0  0  0  0
  -31.8735  -19.8138   21.8827 H   0  0  0  0  0  0
  -30.5338  -24.9662   21.3807 H   0  0  0  0  0  0
  -30.8867  -23.2604   21.6183 H   0  0  0  0  0  0
  -29.5327  -24.0101   22.4601 H   0  0  0  0  0  0
  -27.1845  -22.4209   21.9187 H   0  0  0  0  0  0
  -28.6659  -21.7418   22.5827 H   0  0  0  0  0  0
  -27.5423  -20.7204   21.6910 H   0  0  0  0  0  0
  -27.2759  -24.6520   20.9662 H   0  0  0  0  0  0
  -27.5262  -24.5820   19.2467 H   0  0  0  0  0  0
  -29.7605  -23.7326   19.4388 H   0  0  0  0  0  0
  -27.9858  -21.9108   19.6163 H   0  0  0  0  0  0
  -30.6984  -21.4883   20.0358 H   0  0  0  0  0  0
  -28.8156  -15.7479   20.4862 H   0  0  0  0  0  0
  1 25  1  0  0  0
  1 30  2  0  0  0
  1 81  1  0  0  0
  2  3  1  0  0  0
  2 25  1  0  0  0
  2 83  1  0  0  0
  2 84  1  0  0  0
  3  4  1  0  0  0
  3 85  1  0  0  0
  3 86  1  0  0  0
  4  5  1  0  0  0
  4 87  1  0  0  0
  4 88  1  0  0  0
  5  6  1  0  0  0
  5 26  1  0  0  0
  5 89  1  0  0  0
  6 25  1  0  0  0
  6 90  1  0  0  0
  6 91  1  0  0  0
  7  8  2  0  0  0
  7 26  1  0  0  0
  7 29  1  0  0  0
  8  9  1  0  0  0
  8 22  1  0  0  0
  9 10  1  0  0  0
  9 27  2  0  0  0
 10 11  2  0  0  0
 10 15  1  0  0  0
 11 12  1  0  0  0
 11 92  1  0  0  0
 12 13  2  0  0  0
 12 93  1  0  0  0
 13 14  1  0  0  0
 13 31  1  0  0  0
 14 15  2  0  0  0
 14 94  1  0  0  0
 15 95  1  0  0  0
 16 17  2  0  0  0
 16 21  1  0  0  0
 16 31  1  0  0  0
 17 18  1  0  0  0
 17 96  1  0  0  0
 18 19  2  0  0  0
 18 97  1  0  0  0
 19 20  1  0  0  0
 19 24  1  0  0  0
 20 21  2  0  0  0
 20 98  1  0  0  0
 21 23  1  0  0  0
 22 28  1  0  0  0
 22 32  2  0  0  0
 26 27  1  0  0  0
 28 99  1  0  0  0
 28100  1  0  0  0
 29101  1  0  0  0
 29102  1  0  0  0
 33 34  1  0  0  0
 33 66  1  0  0  0
 33 70  2  0  0  0
 34 36  1  0  0  0
 34 59  1  0  0  0
 34103  1  0  0  0
 35 44  2  0  0  0
 35 45  1  0  0  0
 35 68  1  0  0  0
 36 56  1  0  0  0
 36104  1  0  0  0
 37 39  1  0  0  0
 37 47  1  0  0  0
 37 66  1  0  0  0
 37105  1  0  0  0
 38 43  2  0  0  0
 38 46  1  0  0  0
 38 47  1  0  0  0
 39 64  1  0  0  0
 39 67  2  0  0  0
 40 52  1  0  0  0
 40 53  2  0  0  0
 40 58  1  0  0  0
 41106  1  0  0  0
 41107  1  0  0  0
 41108  1  0  0  0
 41 48  1  0  0  0
 42 43  1  0  0  0
 42 66  1  0  0  0
 42109  1  0  0  0
 42110  1  0  0  0
 43 44  1  0  0  0
 44111  1  0  0  0
 45 46  2  0  0  0
 45112  1  0  0  0
 46113  1  0  0  0
 47114  1  0  0  0
 47115  1  0  0  0
 48 56  1  0  0  0
 48 65  1  0  0  0
 48116  1  0  0  0
 49 50  1  0  0  0
 49 53  1  0  0  0
 49 64  1  0  0  0
 49117  1  0  0  0
 50 51  1  0  0  0
 50118  1  0  0  0
 50119  1  0  0  0
 51 52  1  0  0  0
 51120  1  0  0  0
 51121  1  0  0  0
 52122  1  0  0  0
 52123  1  0  0  0
 53 54  1  0  0  0
 54 55  2  0  0  0
 54124  1  0  0  0
 55 57  1  0  0  0
 55125  1  0  0  0
 56 69  2  0  0  0
 57 58  2  0  0  0
 57126  1  0  0  0
 58127  1  0  0  0
 59 60  1  0  0  0
 59 61  1  0  0  0
 59 62  1  0  0  0
 60128  1  0  0  0
 60129  1  0  0  0
 60130  1  0  0  0
 61131  1  0  0  0
 61132  1  0  0  0
 61133  1  0  0  0
 62134  1  0  0  0
 62135  1  0  0  0
 62136  1  0  0  0
 63 65  1  0  0  0
 63137  1  0  0  0
 63138  1  0  0  0
 63139  1  0  0  0
 64140  1  0  0  0
 65141  1  0  0  0
 68 76  1  0  0  0
 71 72  2  0  0  0
 71 79  1  0  0  0
 71142  1  0  0  0
 72 80  1  0  0  0
 72 82  1  0  0  0
 73 79  2  0  0  0
 73 81  1  0  0  0
 73 82  1  0  0  0
 74143  1  0  0  0
 74144  1  0  0  0
 74145  1  0  0  0
 74 77  1  0  0  0
 75146  1  0  0  0
 75147  1  0  0  0
 75148  1  0  0  0
 75 78  1  0  0  0
 76 77  1  0  0  0
 76149  1  0  0  0
 76150  1  0  0  0
 77 78  1  0  0  0
 77151  1  0  0  0
 78 80  1  0  0  0
 78152  1  0  0  0
 80153  1  0  0  0
 81154  1  0  0  0
M  ISO  4   1 100  68 101  76 101  81 100
M  END
> <chiral flag>
0

> <version>
0

> <s_m_source_file>
/data/baiqing/PycharmProjects/Reinvent-master-3.2/result/LINK_invent/BTK/process_docking_weight1_custom_product_contain_oxygen_bond_distance_aromatic_linkinvent_7_9_3/rearranged_h_0196.sdf

> <i_m_source_file_index>
27

> <r_mmod_Potential_Energy-OPLS-2005>
203.630233764648

> <r_mmod_Stretch_Energy-OPLS-2005>
145.616622924805

> <r_mmod_Bend_Energy-OPLS-2005>
198.229995727539

> <r_mmod_Torsional_Energy-OPLS-2005>
256.507354736328

> <r_mmod_Improper_Torsional_Energy-OPLS-2005>
12.6538324356079

> <r_mmod_Van_der_Waal_Energy-OPLS-2005>
115.799606323242

> <r_mmod_Electrostatic_Energy-OPLS-2005>
-394.493438720703

> <r_mmod_Solvation_Energy-OPLS-2005>
-237.983810424805

> <b_mmod_Minimization_Converged-OPLS-2005>
0

> <r_mmod_RMS_Derivative-OPLS-2005>
1.3039618730545

$$$$
27
                    3D
 Structure written by MMmdl.
147155  0  0  1  0            999 V2000
  -30.6419  -14.7118   20.4845 C   0  0  0  0  0  0
  -30.4302  -12.4437   19.4586 C   0  0  0  0  0  0
  -29.5038  -12.5024   18.2257 C   0  0  0  0  0  0
  -28.0310  -12.3302   18.6449 C   0  0  0  0  0  0
  -27.6417  -13.2302   19.8483 C   0  0  2  0  0  0
  -28.6897  -13.1591   20.9794 C   0  0  0  0  0  0
  -25.2515  -13.8197   20.5697 C   0  0  0  0  0  0
  -24.1805  -13.0443   20.9211 C   0  0  0  0  0  0
  -24.6395  -11.6920   20.8754 C   0  0  0  0  0  0
  -23.9072  -10.4295   21.0412 C   0  0  0  0  0  0
  -24.3623   -9.4208   21.9187 C   0  0  0  0  0  0
  -23.6297   -8.2243   22.0755 C   0  0  0  0  0  0
  -22.4278   -8.0282   21.3546 C   0  0  0  0  0  0
  -21.9916   -9.0257   20.4647 C   0  0  0  0  0  0
  -22.7246  -10.2135   20.3058 C   0  0  0  0  0  0
  -21.6853   -6.0738   22.5281 C   0  0  0  0  0  0
  -21.4014   -6.5642   23.8214 C   0  0  0  0  0  0
  -21.3658   -5.6794   24.9176 C   0  0  0  0  0  0
  -21.6044   -4.3056   24.7226 C   0  0  0  0  0  0
  -21.8819   -3.8148   23.4347 C   0  0  0  0  0  0
  -21.9193   -4.6965   22.3404 C   0  0  0  0  0  0
  -22.7826  -13.5223   21.1869 C   0  0  0  0  0  0
  -22.1662   -4.2151   21.0981 F   0  0  0  0  0  0
  -21.5627   -3.4539   25.7738 F   0  0  0  0  0  0
  -29.9894  -13.5049   20.3907 N   0  0  0  0  0  0
  -26.2940  -12.9402   20.3284 N   0  0  0  0  0  0
  -25.9325  -11.6545   20.5758 N   0  0  0  0  0  0
  -22.0472  -12.8211   22.0423 N   0  0  0  0  0  0
  -25.4202  -15.1922   20.4109 N   0  0  0  0  0  0
  -31.8351  -14.7915   20.1833 O   0  0  0  0  0  0
  -21.6641   -6.8881   21.4242 O   0  0  0  0  0  0
  -22.3510  -14.5527   20.6715 O   0  0  0  0  0  0
  -24.6326  -31.8570   23.2014 C   0  0  0  0  0  0
  -25.9154  -32.4764   23.8350 C   0  0  1  0  0  0
  -27.2100  -27.2627   20.1171 C   0  0  0  0  0  0
  -25.5951  -33.8566   24.2271 N   0  0  0  0  0  0
  -23.4277  -30.4843   21.5460 C   0  0  2  0  0  0
  -24.8716  -28.9401   20.1103 C   0  0  0  0  0  0
  -22.7508  -29.4621   22.4916 C   0  0  0  0  0  0
  -18.0295  -28.1387   22.8486 C   0  0  0  0  0  0
  -24.1490  -36.7283   23.2638 C   0  0  0  0  0  0
  -25.9770  -30.7702   21.3826 C   0  0  0  0  0  0
  -26.0479  -29.3958   20.7194 C   0  0  0  0  0  0
  -27.2212  -28.5710   20.7119 C   0  0  0  0  0  0
  -26.0048  -26.8864   19.4747 C   0  0  0  0  0  0
  -24.8558  -27.6929   19.4775 C   0  0  0  0  0  0
  -23.6447  -29.8274   20.1599 C   0  0  0  0  0  0
  -25.4117  -36.3074   24.0327 C   0  0  1  0  0  0
  -20.5901  -28.3702   23.1263 C   0  0  2  0  0  0
  -20.6784  -26.9419   22.5402 C   0  0  0  0  0  0
  -19.5756  -26.6384   21.5211 C   0  0  0  0  0  0
  -18.1938  -26.7930   22.1626 C   0  0  0  0  0  0
  -19.1549  -28.8861   23.2869 C   0  0  0  0  0  0
  -18.9468  -30.1462   23.8888 C   0  0  0  0  0  0
  -17.6467  -30.6587   24.0563 C   0  0  0  0  0  0
  -25.9059  -34.9445   23.5098 C   0  0  0  0  0  0
  -16.5358  -29.9085   23.6333 C   0  0  0  0  0  0
  -16.7281  -28.6502   23.0355 C   0  0  0  0  0  0
  -26.4512  -31.6585   25.0738 C   0  0  0  0  0  0
  -25.3728  -31.3737   26.1452 C   0  0  0  0  0  0
  -27.0361  -30.2999   24.6233 C   0  0  0  0  0  0
  -27.6061  -32.4327   25.7513 C   0  0  0  0  0  0
  -27.5579  -37.1799   24.8466 C   0  0  0  0  0  0
  -21.4215  -29.3053   22.3655 N   0  0  0  0  0  0
  -26.4290  -37.3773   23.9410 N   0  0  0  0  0  0
  -24.6985  -31.0543   22.0992 N   0  0  0  0  0  0
  -23.4210  -28.8147   23.3002 O   0  0  0  0  0  0
  -28.2862  -26.3394   20.1728 O   0  0  0  0  0  0
  -26.5624  -34.8916   22.4662 O   0  0  0  0  0  0
  -23.5476  -32.1391   23.7310 O   0  0  0  0  0  0
  -30.6115  -19.3986   19.6711 C   0  0  0  0  0  0
  -29.9715  -18.6165   20.6203 C   0  0  0  0  0  0
  -29.2326  -21.1088   20.4358 C   0  0  0  0  0  0
  -29.0150  -23.7274   20.2255 C   0  0  0  0  0  0
  -30.4458  -17.2165   21.1731 C   0  0  0  0  0  0
  -27.9187  -24.8800   20.0809 C   0  0  0  0  0  0
  -30.2078  -20.7630   19.5799 N   0  0  0  0  0  0
  -28.5857  -22.4347   20.4779 N   0  0  0  0  0  0
  -29.9102  -15.8564   20.7491 N   0  0  0  0  0  0
  -30.2099  -24.0129   20.1007 O   0  0  0  0  0  0
  -28.7351  -19.6556   21.3857 S   0  0  0  0  0  0
  -31.4700  -12.5662   19.1509 H   0  0  0  0  0  0
  -30.3740  -11.4663   19.9406 H   0  0  0  0  0  0
  -29.7808  -11.7295   17.5074 H   0  0  0  0  0  0
  -29.6311  -13.4572   17.7130 H   0  0  0  0  0  0
  -27.8864  -11.2816   18.9076 H   0  0  0  0  0  0
  -27.3710  -12.5240   17.7985 H   0  0  0  0  0  0
  -27.6377  -14.2526   19.4700 H   0  0  0  0  0  0
  -28.7230  -12.1604   21.4175 H   0  0  0  0  0  0
  -28.4304  -13.8405   21.7912 H   0  0  0  0  0  0
  -25.2766   -9.5683   22.4764 H   0  0  0  0  0  0
  -24.0006   -7.4632   22.7471 H   0  0  0  0  0  0
  -21.0848   -8.8776   19.8951 H   0  0  0  0  0  0
  -22.3706  -10.9675   19.6168 H   0  0  0  0  0  0
  -21.2005   -7.6150   23.9718 H   0  0  0  0  0  0
  -21.1480   -6.0524   25.9078 H   0  0  0  0  0  0
  -22.0598   -2.7610   23.2847 H   0  0  0  0  0  0
  -22.4092  -11.9873   22.4810 H   0  0  0  0  0  0
  -21.1088  -13.1231   22.2627 H   0  0  0  0  0  0
  -24.6510  -15.8444   20.5195 H   0  0  0  0  0  0
  -26.2642  -15.6325   20.0677 H   0  0  0  0  0  0
  -26.7221  -32.5411   23.1091 H   0  0  0  0  0  0
  -25.0106  -33.9705   25.0422 H   0  0  0  0  0  0
  -22.7242  -31.3074   21.4047 H   0  0  0  0  0  0
  -23.3755  -35.9613   23.3301 H   0  0  0  0  0  0
  -24.3580  -36.8902   22.2052 H   0  0  0  0  0  0
  -23.7240  -37.6484   23.6659 H   0  0  0  0  0  0
  -26.1198  -31.5339   20.6169 H   0  0  0  0  0  0
  -26.8533  -30.8135   22.0178 H   0  0  0  0  0  0
  -28.1191  -28.9144   21.2064 H   0  0  0  0  0  0
  -25.8947  -25.9440   18.9643 H   0  0  0  0  0  0
  -23.9569  -27.3396   18.9909 H   0  0  0  0  0  0
  -23.7713  -30.6078   19.4086 H   0  0  0  0  0  0
  -22.7617  -29.2648   19.8512 H   0  0  0  0  0  0
  -25.1297  -36.1922   25.0820 H   0  0  0  0  0  0
  -20.9994  -28.3279   24.1383 H   0  0  0  0  0  0
  -20.5688  -26.2313   23.3608 H   0  0  0  0  0  0
  -21.6651  -26.7445   22.1192 H   0  0  0  0  0  0
  -19.6917  -25.6293   21.1244 H   0  0  0  0  0  0
  -19.6689  -27.3192   20.6738 H   0  0  0  0  0  0
  -17.4205  -26.6675   21.4031 H   0  0  0  0  0  0
  -18.0340  -26.0072   22.9024 H   0  0  0  0  0  0
  -19.7944  -30.7282   24.2250 H   0  0  0  0  0  0
  -17.5022  -31.6266   24.5167 H   0  0  0  0  0  0
  -15.5358  -30.2984   23.7661 H   0  0  0  0  0  0
  -15.8681  -28.0818   22.7075 H   0  0  0  0  0  0
  -24.5914  -30.7074   25.7782 H   0  0  0  0  0  0
  -24.8908  -32.2906   26.4854 H   0  0  0  0  0  0
  -25.8041  -30.8934   27.0244 H   0  0  0  0  0  0
  -26.2952  -29.6746   24.1239 H   0  0  0  0  0  0
  -27.4016  -29.7265   25.4762 H   0  0  0  0  0  0
  -27.8843  -30.4268   23.9502 H   0  0  0  0  0  0
  -27.2666  -33.3634   26.2072 H   0  0  0  0  0  0
  -28.3883  -32.6875   25.0350 H   0  0  0  0  0  0
  -28.0717  -31.8464   26.5446 H   0  0  0  0  0  0
  -28.2593  -38.0100   24.7517 H   0  0  0  0  0  0
  -28.1077  -36.2631   24.6285 H   0  0  0  0  0  0
  -27.2297  -37.1440   25.8868 H   0  0  0  0  0  0
  -20.9398  -29.8789   21.6873 H   0  0  0  0  0  0
  -26.0167  -38.2846   24.1414 H   0  0  0  0  0  0
  -31.4504  -19.0853   19.0648 H   0  0  0  0  0  0
  -30.3105  -17.2420   22.2550 H   0  0  0  0  0  0
  -31.5303  -17.1860   21.0555 H   0  0  0  0  0  0
  -27.1233  -24.6728   20.7985 H   0  0  0  0  0  0
  -27.5158  -24.6894   19.0873 H   0  0  0  0  0  0
  -27.6085  -22.3880   20.7285 H   0  0  0  0  0  0
  -28.9195  -15.7163   20.8759 H   0  0  0  0  0  0
  1 25  1  0  0  0
  1 30  2  0  0  0
  1 79  1  0  0  0
  2  3  1  0  0  0
  2 25  1  0  0  0
  2 82  1  0  0  0
  2 83  1  0  0  0
  3  4  1  0  0  0
  3 84  1  0  0  0
  3 85  1  0  0  0
  4  5  1  0  0  0
  4 86  1  0  0  0
  4 87  1  0  0  0
  5  6  1  0  0  0
  5 26  1  0  0  0
  5 88  1  0  0  0
  6 25  1  0  0  0
  6 89  1  0  0  0
  6 90  1  0  0  0
  7  8  2  0  0  0
  7 26  1  0  0  0
  7 29  1  0  0  0
  8  9  1  0  0  0
  8 22  1  0  0  0
  9 10  1  0  0  0
  9 27  2  0  0  0
 10 11  2  0  0  0
 10 15  1  0  0  0
 11 12  1  0  0  0
 11 91  1  0  0  0
 12 13  2  0  0  0
 12 92  1  0  0  0
 13 14  1  0  0  0
 13 31  1  0  0  0
 14 15  2  0  0  0
 14 93  1  0  0  0
 15 94  1  0  0  0
 16 17  2  0  0  0
 16 21  1  0  0  0
 16 31  1  0  0  0
 17 18  1  0  0  0
 17 95  1  0  0  0
 18 19  2  0  0  0
 18 96  1  0  0  0
 19 20  1  0  0  0
 19 24  1  0  0  0
 20 21  2  0  0  0
 20 97  1  0  0  0
 21 23  1  0  0  0
 22 28  1  0  0  0
 22 32  2  0  0  0
 26 27  1  0  0  0
 28 98  1  0  0  0
 28 99  1  0  0  0
 29100  1  0  0  0
 29101  1  0  0  0
 33 34  1  0  0  0
 33 66  1  0  0  0
 33 70  2  0  0  0
 34 36  1  0  0  0
 34 59  1  0  0  0
 34102  1  0  0  0
 35 44  2  0  0  0
 35 45  1  0  0  0
 35 68  1  0  0  0
 36 56  1  0  0  0
 36103  1  0  0  0
 37 39  1  0  0  0
 37 47  1  0  0  0
 37 66  1  0  0  0
 37104  1  0  0  0
 38 43  2  0  0  0
 38 46  1  0  0  0
 38 47  1  0  0  0
 39 64  1  0  0  0
 39 67  2  0  0  0
 40 52  1  0  0  0
 40 53  2  0  0  0
 40 58  1  0  0  0
 41105  1  0  0  0
 41106  1  0  0  0
 41107  1  0  0  0
 41 48  1  0  0  0
 42 43  1  0  0  0
 42 66  1  0  0  0
 42108  1  0  0  0
 42109  1  0  0  0
 43 44  1  0  0  0
 44110  1  0  0  0
 45 46  2  0  0  0
 45111  1  0  0  0
 46112  1  0  0  0
 47113  1  0  0  0
 47114  1  0  0  0
 48 56  1  0  0  0
 48 65  1  0  0  0
 48115  1  0  0  0
 49 50  1  0  0  0
 49 53  1  0  0  0
 49 64  1  0  0  0
 49116  1  0  0  0
 50 51  1  0  0  0
 50117  1  0  0  0
 50118  1  0  0  0
 51 52  1  0  0  0
 51119  1  0  0  0
 51120  1  0  0  0
 52121  1  0  0  0
 52122  1  0  0  0
 53 54  1  0  0  0
 54 55  2  0  0  0
 54123  1  0  0  0
 55 57  1  0  0  0
 55124  1  0  0  0
 56 69  2  0  0  0
 57 58  2  0  0  0
 57125  1  0  0  0
 58126  1  0  0  0
 59 60  1  0  0  0
 59 61  1  0  0  0
 59 62  1  0  0  0
 60127  1  0  0  0
 60128  1  0  0  0
 60129  1  0  0  0
 61130  1  0  0  0
 61131  1  0  0  0
 61132  1  0  0  0
 62133  1  0  0  0
 62134  1  0  0  0
 62135  1  0  0  0
 63 65  1  0  0  0
 63136  1  0  0  0
 63137  1  0  0  0
 63138  1  0  0  0
 64139  1  0  0  0
 65140  1  0  0  0
 68 76  1  0  0  0
 71 72  2  0  0  0
 71 77  1  0  0  0
 71141  1  0  0  0
 72 75  1  0  0  0
 72 81  1  0  0  0
 73 77  2  0  0  0
 73 78  1  0  0  0
 73 81  1  0  0  0
 74 76  1  0  0  0
 74 78  1  0  0  0
 74 80  2  0  0  0
 75 79  1  0  0  0
 75142  1  0  0  0
 75143  1  0  0  0
 76144  1  0  0  0
 76145  1  0  0  0
 78146  1  0  0  0
 79147  1  0  0  0
M  ISO  4   1 100  68 101  76 101  79 100
M  END
> <chiral flag>
0

> <version>
0

> <s_m_source_file>
/data/baiqing/PycharmProjects/Reinvent-master-3.2/result/LINK_invent/BTK/process_docking_weight1_custom_product_contain_oxygen_bond_distance_aromatic_linkinvent_7_9_3/rearranged_h_0196.sdf

> <i_m_source_file_index>
28

> <r_mmod_Potential_Energy-OPLS-2005>
36.1170501708984

> <r_mmod_Stretch_Energy-OPLS-2005>
105.026649475098

> <r_mmod_Bend_Energy-OPLS-2005>
175.581573486328

> <r_mmod_Torsional_Energy-OPLS-2005>
222.084274291992

> <r_mmod_Improper_Torsional_Energy-OPLS-2005>
6.25258874893188

> <r_mmod_Van_der_Waal_Energy-OPLS-2005>
125.006011962891

> <r_mmod_Electrostatic_Energy-OPLS-2005>
-410.799499511719

> <r_mmod_Solvation_Energy-OPLS-2005>
-268.329437255859

> <b_mmod_Minimization_Converged-OPLS-2005>
0

> <r_mmod_RMS_Derivative-OPLS-2005>
0.22306090593338

$$$$
28
                    3D
 Structure written by MMmdl.
155163  0  0  1  0            999 V2000
  -30.5623  -14.6560   20.4736 C   0  0  0  0  0  0
  -30.4382  -12.3963   19.4459 C   0  0  0  0  0  0
  -29.5208  -12.5499   18.2132 C   0  0  0  0  0  0
  -28.0320  -12.4042   18.5990 C   0  0  0  0  0  0
  -27.6532  -13.2236   19.8645 C   0  0  2  0  0  0
  -28.6946  -13.0332   20.9876 C   0  0  0  0  0  0
  -25.2549  -13.8168   20.5655 C   0  0  0  0  0  0
  -24.1840  -13.0418   20.9188 C   0  0  0  0  0  0
  -24.6430  -11.6900   20.8723 C   0  0  0  0  0  0
  -23.9102  -10.4294   21.0389 C   0  0  0  0  0  0
  -24.3658   -9.4218   21.9181 C   0  0  0  0  0  0
  -23.6336   -8.2246   22.0752 C   0  0  0  0  0  0
  -22.4317   -8.0282   21.3531 C   0  0  0  0  0  0
  -21.9953   -9.0262   20.4625 C   0  0  0  0  0  0
  -22.7278  -10.2144   20.3038 C   0  0  0  0  0  0
  -21.6862   -6.0776   22.5309 C   0  0  0  0  0  0
  -21.4007   -6.5660   23.8244 C   0  0  0  0  0  0
  -21.3660   -5.6793   24.9187 C   0  0  0  0  0  0
  -21.6056   -4.3056   24.7208 C   0  0  0  0  0  0
  -21.8827   -3.8159   23.4324 C   0  0  0  0  0  0
  -21.9174   -4.6997   22.3399 C   0  0  0  0  0  0
  -22.7852  -13.5225   21.1848 C   0  0  0  0  0  0
  -22.1656   -4.2198   21.0969 F   0  0  0  0  0  0
  -21.5617   -3.4539   25.7710 F   0  0  0  0  0  0
  -30.0085  -13.4024   20.4381 N   0  0  0  0  0  0
  -26.2991  -12.9349   20.3260 N   0  0  0  0  0  0
  -25.9350  -11.6494   20.5678 N   0  0  0  0  0  0
  -22.0460  -12.8235   22.0383 N   0  0  0  0  0  0
  -25.4200  -15.1916   20.4089 N   0  0  0  0  0  0
  -31.7222  -14.8524   20.0889 O   0  0  0  0  0  0
  -21.6631   -6.8914   21.4266 O   0  0  0  0  0  0
  -22.3568  -14.5538   20.6663 O   0  0  0  0  0  0
  -24.6243  -31.8615   23.1995 C   0  0  0  0  0  0
  -25.9113  -32.4778   23.8308 C   0  0  1  0  0  0
  -27.2111  -27.3277   20.1055 C   0  0  0  0  0  0
  -25.5950  -33.8581   24.2227 N   0  0  0  0  0  0
  -23.4120  -30.4878   21.5451 C   0  0  2  0  0  0
  -24.8560  -28.9369   20.1110 C   0  0  0  0  0  0
  -22.7419  -29.4667   22.4936 C   0  0  0  0  0  0
  -18.0274  -28.1380   22.8475 C   0  0  0  0  0  0
  -24.1508  -36.7301   23.2640 C   0  0  0  0  0  0
  -25.9515  -30.7971   21.3627 C   0  0  0  0  0  0
  -26.0275  -29.4237   20.7070 C   0  0  0  0  0  0
  -27.2154  -28.6337   20.6875 C   0  0  0  0  0  0
  -26.0209  -26.8900   19.4909 C   0  0  0  0  0  0
  -24.8527  -27.6748   19.4979 C   0  0  0  0  0  0
  -23.6233  -29.8183   20.1601 C   0  0  0  0  0  0
  -25.4132  -36.3082   24.0314 C   0  0  1  0  0  0
  -20.5874  -28.3693   23.1285 C   0  0  2  0  0  0
  -20.6795  -26.9429   22.5406 C   0  0  0  0  0  0
  -19.5786  -26.6365   21.5211 C   0  0  0  0  0  0
  -18.1942  -26.7917   22.1594 C   0  0  0  0  0  0
  -19.1522  -28.8846   23.2883 C   0  0  0  0  0  0
  -18.9456  -30.1454   23.8892 C   0  0  0  0  0  0
  -17.6454  -30.6598   24.0546 C   0  0  0  0  0  0
  -25.9073  -34.9460   23.5061 C   0  0  0  0  0  0
  -16.5341  -29.9093   23.6334 C   0  0  0  0  0  0
  -16.7254  -28.6513   23.0341 C   0  0  0  0  0  0
  -26.4469  -31.6584   25.0678 C   0  0  0  0  0  0
  -25.3680  -31.3737   26.1389 C   0  0  0  0  0  0
  -27.0310  -30.3007   24.6123 C   0  0  0  0  0  0
  -27.5996  -32.4319   25.7488 C   0  0  0  0  0  0
  -27.5586  -37.1825   24.8444 C   0  0  0  0  0  0
  -21.4138  -29.3065   22.3670 N   0  0  0  0  0  0
  -26.4289  -37.3791   23.9401 N   0  0  0  0  0  0
  -24.6817  -31.0644   22.0941 N   0  0  0  0  0  0
  -23.4163  -28.8238   23.3020 O   0  0  0  0  0  0
  -28.3200  -26.4763   20.0972 O   0  0  0  0  0  0
  -26.5620  -34.8937   22.4612 O   0  0  0  0  0  0
  -23.5416  -32.1398   23.7361 O   0  0  0  0  0  0
  -29.7040  -17.5527   19.1811 C   0  0  0  0  0  0
  -29.4943  -18.9374   18.9079 C   0  0  0  0  0  0
  -29.6800  -17.0942   20.5287 C   0  0  0  0  0  0
  -29.2673  -19.8419   19.9853 C   0  0  0  0  0  0
  -29.8406  -22.5500   21.6881 C   0  0  0  0  0  0
  -28.6207  -23.8150   19.8073 C   0  0  0  0  0  0
  -28.1385  -25.1028   20.6275 C   0  0  0  0  0  0
  -28.7789  -22.4059   20.5799 C   0  0  1  0  0  0
  -29.4326  -18.0245   21.5028 N   0  0  0  0  0  0
  -29.2462  -19.3466   21.2529 N   0  0  0  0  0  0
  -29.5062  -19.4097   17.5876 N   0  0  0  0  0  0
  -29.7170  -15.6697   20.8419 N   0  0  0  0  0  0
  -29.0897  -21.2393   19.6902 N   0  0  0  0  0  0
  -31.4835  -12.5283   19.1639 H   0  0  0  0  0  0
  -30.3581  -11.3879   19.8544 H   0  0  0  0  0  0
  -29.7955  -11.8261   17.4441 H   0  0  0  0  0  0
  -29.6871  -13.5297   17.7647 H   0  0  0  0  0  0
  -27.8359  -11.3445   18.7628 H   0  0  0  0  0  0
  -27.4048  -12.7038   17.7597 H   0  0  0  0  0  0
  -27.6699  -14.2740   19.5683 H   0  0  0  0  0  0
  -28.7080  -11.9924   21.3138 H   0  0  0  0  0  0
  -28.4447  -13.6209   21.8694 H   0  0  0  0  0  0
  -25.2810   -9.5707   22.4739 H   0  0  0  0  0  0
  -24.0054   -7.4646   22.7483 H   0  0  0  0  0  0
  -21.0865   -8.8792   19.8977 H   0  0  0  0  0  0
  -22.3731  -10.9679   19.6140 H   0  0  0  0  0  0
  -21.2004   -7.6167   23.9774 H   0  0  0  0  0  0
  -21.1480   -6.0505   25.9107 H   0  0  0  0  0  0
  -22.0591   -2.7639   23.2802 H   0  0  0  0  0  0
  -22.4015  -11.9904   22.4841 H   0  0  0  0  0  0
  -21.1084  -13.1330   22.2499 H   0  0  0  0  0  0
  -24.6480  -15.8408   20.5188 H   0  0  0  0  0  0
  -26.2509  -15.6364   20.0420 H   0  0  0  0  0  0
  -26.7165  -32.5472   23.1057 H   0  0  0  0  0  0
  -25.0109  -33.9689   25.0374 H   0  0  0  0  0  0
  -22.7102  -31.3124   21.4010 H   0  0  0  0  0  0
  -23.3761  -35.9637   23.3262 H   0  0  0  0  0  0
  -24.3601  -36.8960   22.2060 H   0  0  0  0  0  0
  -23.7264  -37.6502   23.6668 H   0  0  0  0  0  0
  -26.0744  -31.5672   20.5982 H   0  0  0  0  0  0
  -26.8368  -30.8498   21.9856 H   0  0  0  0  0  0
  -28.1206  -29.0124   21.1403 H   0  0  0  0  0  0
  -25.9918  -25.9261   19.0023 H   0  0  0  0  0  0
  -23.9531  -27.2946   19.0339 H   0  0  0  0  0  0
  -23.7434  -30.5947   19.4029 H   0  0  0  0  0  0
  -22.7404  -29.2515   19.8598 H   0  0  0  0  0  0
  -25.1326  -36.1906   25.0806 H   0  0  0  0  0  0
  -20.9966  -28.3286   24.1410 H   0  0  0  0  0  0
  -20.5699  -26.2316   23.3607 H   0  0  0  0  0  0
  -21.6665  -26.7492   22.1209 H   0  0  0  0  0  0
  -19.6964  -25.6266   21.1276 H   0  0  0  0  0  0
  -19.6739  -27.3141   20.6714 H   0  0  0  0  0  0
  -17.4237  -26.6643   21.3987 H   0  0  0  0  0  0
  -18.0360  -26.0046   22.8984 H   0  0  0  0  0  0
  -19.7953  -30.7248   24.2260 H   0  0  0  0  0  0
  -17.5041  -31.6287   24.5138 H   0  0  0  0  0  0
  -15.5347  -30.2998   23.7684 H   0  0  0  0  0  0
  -15.8654  -28.0838   22.7042 H   0  0  0  0  0  0
  -24.5828  -30.7125   25.7699 H   0  0  0  0  0  0
  -24.8906  -32.2934   26.4803 H   0  0  0  0  0  0
  -25.7997  -30.8895   27.0159 H   0  0  0  0  0  0
  -26.2894  -29.6780   24.1107 H   0  0  0  0  0  0
  -27.3971  -29.7251   25.4636 H   0  0  0  0  0  0
  -27.8774  -30.4282   23.9361 H   0  0  0  0  0  0
  -27.2546  -33.3592   26.2069 H   0  0  0  0  0  0
  -28.3839  -32.6923   25.0369 H   0  0  0  0  0  0
  -28.0608  -31.8429   26.5426 H   0  0  0  0  0  0
  -28.2575  -38.0153   24.7541 H   0  0  0  0  0  0
  -28.1118  -36.2696   24.6209 H   0  0  0  0  0  0
  -27.2306  -37.1402   25.8844 H   0  0  0  0  0  0
  -20.9281  -29.8756   21.6871 H   0  0  0  0  0  0
  -26.0158  -38.2857   24.1400 H   0  0  0  0  0  0
  -29.8407  -16.8532   18.3692 H   0  0  0  0  0  0
  -29.4841  -23.1925   22.4929 H   0  0  0  0  0  0
  -30.7624  -22.9868   21.3026 H   0  0  0  0  0  0
  -30.1005  -21.6017   22.1572 H   0  0  0  0  0  0
  -29.5717  -24.0573   19.3341 H   0  0  0  0  0  0
  -27.9284  -23.6867   18.9736 H   0  0  0  0  0  0
  -28.6824  -25.1223   21.5705 H   0  0  0  0  0  0
  -27.1001  -24.9438   20.9232 H   0  0  0  0  0  0
  -27.8256  -22.1742   21.0590 H   0  0  0  0  0  0
  -29.9732  -18.8530   16.8824 H   0  0  0  0  0  0
  -29.6934  -20.3974   17.4637 H   0  0  0  0  0  0
  -28.8763  -15.3395   21.2893 H   0  0  0  0  0  0
  -28.9312  -21.3867   18.7005 H   0  0  0  0  0  0
  1 25  1  0  0  0
  1 30  2  0  0  0
  1 82  1  0  0  0
  2  3  1  0  0  0
  2 25  1  0  0  0
  2 84  1  0  0  0
  2 85  1  0  0  0
  3  4  1  0  0  0
  3 86  1  0  0  0
  3 87  1  0  0  0
  4  5  1  0  0  0
  4 88  1  0  0  0
  4 89  1  0  0  0
  5  6  1  0  0  0
  5 26  1  0  0  0
  5 90  1  0  0  0
  6 25  1  0  0  0
  6 91  1  0  0  0
  6 92  1  0  0  0
  7  8  2  0  0  0
  7 26  1  0  0  0
  7 29  1  0  0  0
  8  9  1  0  0  0
  8 22  1  0  0  0
  9 10  1  0  0  0
  9 27  2  0  0  0
 10 11  2  0  0  0
 10 15  1  0  0  0
 11 12  1  0  0  0
 11 93  1  0  0  0
 12 13  2  0  0  0
 12 94  1  0  0  0
 13 14  1  0  0  0
 13 31  1  0  0  0
 14 15  2  0  0  0
 14 95  1  0  0  0
 15 96  1  0  0  0
 16 17  2  0  0  0
 16 21  1  0  0  0
 16 31  1  0  0  0
 17 18  1  0  0  0
 17 97  1  0  0  0
 18 19  2  0  0  0
 18 98  1  0  0  0
 19 20  1  0  0  0
 19 24  1  0  0  0
 20 21  2  0  0  0
 20 99  1  0  0  0
 21 23  1  0  0  0
 22 28  1  0  0  0
 22 32  2  0  0  0
 26 27  1  0  0  0
 28100  1  0  0  0
 28101  1  0  0  0
 29102  1  0  0  0
 29103  1  0  0  0
 33 34  1  0  0  0
 33 66  1  0  0  0
 33 70  2  0  0  0
 34 36  1  0  0  0
 34 59  1  0  0  0
 34104  1  0  0  0
 35 44  2  0  0  0
 35 45  1  0  0  0
 35 68  1  0  0  0
 36 56  1  0  0  0
 36105  1  0  0  0
 37 39  1  0  0  0
 37 47  1  0  0  0
 37 66  1  0  0  0
 37106  1  0  0  0
 38 43  2  0  0  0
 38 46  1  0  0  0
 38 47  1  0  0  0
 39 64  1  0  0  0
 39 67  2  0  0  0
 40 52  1  0  0  0
 40 53  2  0  0  0
 40 58  1  0  0  0
 41107  1  0  0  0
 41108  1  0  0  0
 41109  1  0  0  0
 41 48  1  0  0  0
 42 43  1  0  0  0
 42 66  1  0  0  0
 42110  1  0  0  0
 42111  1  0  0  0
 43 44  1  0  0  0
 44112  1  0  0  0
 45 46  2  0  0  0
 45113  1  0  0  0
 46114  1  0  0  0
 47115  1  0  0  0
 47116  1  0  0  0
 48 56  1  0  0  0
 48 65  1  0  0  0
 48117  1  0  0  0
 49 50  1  0  0  0
 49 53  1  0  0  0
 49 64  1  0  0  0
 49118  1  0  0  0
 50 51  1  0  0  0
 50119  1  0  0  0
 50120  1  0  0  0
 51 52  1  0  0  0
 51121  1  0  0  0
 51122  1  0  0  0
 52123  1  0  0  0
 52124  1  0  0  0
 53 54  1  0  0  0
 54 55  2  0  0  0
 54125  1  0  0  0
 55 57  1  0  0  0
 55126  1  0  0  0
 56 69  2  0  0  0
 57 58  2  0  0  0
 57127  1  0  0  0
 58128  1  0  0  0
 59 60  1  0  0  0
 59 61  1  0  0  0
 59 62  1  0  0  0
 60129  1  0  0  0
 60130  1  0  0  0
 60131  1  0  0  0
 61132  1  0  0  0
 61133  1  0  0  0
 61134  1  0  0  0
 62135  1  0  0  0
 62136  1  0  0  0
 62137  1  0  0  0
 63 65  1  0  0  0
 63138  1  0  0  0
 63139  1  0  0  0
 63140  1  0  0  0
 64141  1  0  0  0
 65142  1  0  0  0
 68 77  1  0  0  0
 71 72  2  0  0  0
 71 73  1  0  0  0
 71143  1  0  0  0
 72 74  1  0  0  0
 72 81  1  0  0  0
 73 79  2  0  0  0
 73 82  1  0  0  0
 74 80  2  0  0  0
 74 83  1  0  0  0
 75144  1  0  0  0
 75145  1  0  0  0
 75146  1  0  0  0
 75 78  1  0  0  0
 76 77  1  0  0  0
 76 78  1  0  0  0
 76147  1  0  0  0
 76148  1  0  0  0
 77149  1  0  0  0
 77150  1  0  0  0
 78 83  1  0  0  0
 78151  1  0  0  0
 79 80  1  0  0  0
 81152  1  0  0  0
 81153  1  0  0  0
 82154  1  0  0  0
 83155  1  0  0  0
M  ISO  4   1 100  68 101  77 101  82 100
M  END
> <chiral flag>
0

> <version>
0

> <s_m_source_file>
/data/baiqing/PycharmProjects/Reinvent-master-3.2/result/LINK_invent/BTK/process_docking_weight1_custom_product_contain_oxygen_bond_distance_aromatic_linkinvent_7_9_3/rearranged_h_0196.sdf

> <i_m_source_file_index>
29

> <r_mmod_Potential_Energy-OPLS-2005>
18.5355758666992

> <r_mmod_Stretch_Energy-OPLS-2005>
83.858642578125

> <r_mmod_Bend_Energy-OPLS-2005>
166.720977783203

> <r_mmod_Torsional_Energy-OPLS-2005>
249.310638427734

> <r_mmod_Improper_Torsional_Energy-OPLS-2005>
9.21840286254883

> <r_mmod_Van_der_Waal_Energy-OPLS-2005>
144.247573852539

> <r_mmod_Electrostatic_Energy-OPLS-2005>
-442.310089111328

> <r_mmod_Solvation_Energy-OPLS-2005>
-242.879516601562

> <b_mmod_Minimization_Converged-OPLS-2005>
0

> <r_mmod_RMS_Derivative-OPLS-2005>
4.90795612335205

$$$$
29
                    3D
 Structure written by MMmdl.
159167  0  0  1  0            999 V2000
  -30.6963  -14.5394   20.5692 C   0  0  0  0  0  0
  -30.4271  -12.3566   19.4161 C   0  0  0  0  0  0
  -29.4928  -12.4992   18.1977 C   0  0  0  0  0  0
  -28.0142  -12.3596   18.6164 C   0  0  0  0  0  0
  -27.6534  -13.2148   19.8614 C   0  0  2  0  0  0
  -28.7028  -13.0433   20.9802 C   0  0  0  0  0  0
  -25.2578  -13.8169   20.5712 C   0  0  0  0  0  0
  -24.1835  -13.0446   20.9208 C   0  0  0  0  0  0
  -24.6396  -11.6912   20.8764 C   0  0  0  0  0  0
  -23.9056  -10.4299   21.0421 C   0  0  0  0  0  0
  -24.3608   -9.4222   21.9200 C   0  0  0  0  0  0
  -23.6286   -8.2260   22.0769 C   0  0  0  0  0  0
  -22.4276   -8.0292   21.3551 C   0  0  0  0  0  0
  -21.9903   -9.0264   20.4649 C   0  0  0  0  0  0
  -22.7230  -10.2143   20.3061 C   0  0  0  0  0  0
  -21.6850   -6.0752   22.5288 C   0  0  0  0  0  0
  -21.4011   -6.5646   23.8222 C   0  0  0  0  0  0
  -21.3654   -5.6795   24.9177 C   0  0  0  0  0  0
  -21.6031   -4.3059   24.7220 C   0  0  0  0  0  0
  -21.8813   -3.8158   23.4340 C   0  0  0  0  0  0
  -21.9190   -4.6981   22.3403 C   0  0  0  0  0  0
  -22.7851  -13.5257   21.1813 C   0  0  0  0  0  0
  -22.1666   -4.2166   21.0978 F   0  0  0  0  0  0
  -21.5617   -3.4541   25.7734 F   0  0  0  0  0  0
  -30.0141  -13.3681   20.4027 N   0  0  0  0  0  0
  -26.2996  -12.9349   20.3336 N   0  0  0  0  0  0
  -25.9325  -11.6507   20.5770 N   0  0  0  0  0  0
  -22.0456  -12.8279   22.0364 N   0  0  0  0  0  0
  -25.4265  -15.1895   20.4129 N   0  0  0  0  0  0
  -31.8567  -14.6781   20.1656 O   0  0  0  0  0  0
  -21.6635   -6.8897   21.4251 O   0  0  0  0  0  0
  -22.3568  -14.5576   20.6650 O   0  0  0  0  0  0
  -24.6230  -31.8647   23.2100 C   0  0  0  0  0  0
  -25.9107  -32.4799   23.8399 C   0  0  1  0  0  0
  -27.2057  -27.3525   20.0935 C   0  0  0  0  0  0
  -25.5961  -33.8606   24.2325 N   0  0  0  0  0  0
  -23.4124  -30.4959   21.5534 C   0  0  2  0  0  0
  -24.8540  -28.9681   20.1063 C   0  0  0  0  0  0
  -22.7429  -29.4686   22.4970 C   0  0  0  0  0  0
  -18.0282  -28.1387   22.8426 C   0  0  0  0  0  0
  -24.1491  -36.7311   23.2637 C   0  0  0  0  0  0
  -25.9536  -30.8045   21.3778 C   0  0  0  0  0  0
  -26.0235  -29.4378   20.7150 C   0  0  0  0  0  0
  -27.2041  -28.6395   20.7076 C   0  0  0  0  0  0
  -26.0135  -26.9484   19.4392 C   0  0  0  0  0  0
  -24.8499  -27.7280   19.4590 C   0  0  0  0  0  0
  -23.6211  -29.8426   20.1636 C   0  0  0  0  0  0
  -25.4116  -36.3098   24.0327 C   0  0  1  0  0  0
  -20.5867  -28.3705   23.1281 C   0  0  2  0  0  0
  -20.6795  -26.9442   22.5398 C   0  0  0  0  0  0
  -19.5811  -26.6444   21.5147 C   0  0  0  0  0  0
  -18.1953  -26.7960   22.1508 C   0  0  0  0  0  0
  -19.1519  -28.8841   23.2873 C   0  0  0  0  0  0
  -18.9421  -30.1424   23.8930 C   0  0  0  0  0  0
  -17.6422  -30.6550   24.0599 C   0  0  0  0  0  0
  -25.9056  -34.9462   23.5109 C   0  0  0  0  0  0
  -16.5312  -29.9064   23.6324 C   0  0  0  0  0  0
  -16.7266  -28.6507   23.0281 C   0  0  0  0  0  0
  -26.4500  -31.6587   25.0744 C   0  0  0  0  0  0
  -25.3736  -31.3715   26.1471 C   0  0  0  0  0  0
  -27.0337  -30.3020   24.6157 C   0  0  0  0  0  0
  -27.6057  -32.4322   25.7519 C   0  0  0  0  0  0
  -27.5579  -37.1817   24.8462 C   0  0  0  0  0  0
  -21.4143  -29.3098   22.3704 N   0  0  0  0  0  0
  -26.4292  -37.3794   23.9397 N   0  0  0  0  0  0
  -24.6826  -31.0687   22.1047 N   0  0  0  0  0  0
  -23.4158  -28.8197   23.3014 O   0  0  0  0  0  0
  -28.3068  -26.4860   20.1532 O   0  0  0  0  0  0
  -26.5593  -34.8918   22.4658 O   0  0  0  0  0  0
  -23.5410  -32.1432   23.7455 O   0  0  0  0  0  0
  -31.1754  -17.3002   23.8143 C   0  0  0  0  0  0
  -30.7377  -18.3846   23.0971 C   0  0  0  0  0  0
  -30.4119  -16.5733   21.9344 C   0  0  0  0  0  0
  -27.2214  -22.2741   21.4730 C   0  0  0  0  0  0
  -28.9516  -23.8926   20.3798 C   0  0  0  0  0  0
  -29.6852  -18.8102   20.8096 C   0  0  0  0  0  0
  -29.5305  -20.3382   21.2063 C   0  0  0  0  0  0
  -27.9957  -25.0633   19.9392 C   0  0  0  0  0  0
  -28.2442  -22.4711   20.3296 C   0  0  1  0  0  0
  -30.9640  -16.1495   23.0684 N   0  0  0  0  0  0
  -30.2326  -17.9314   21.8733 N   0  0  0  0  0  0
  -29.9745  -15.6165   20.9686 N   0  0  0  0  0  0
  -29.1134  -21.2553   20.0882 N   0  3  0  0  0  0
  -31.4671  -12.4704   19.1045 H   0  0  0  0  0  0
  -30.3546  -11.3574   19.8485 H   0  0  0  0  0  0
  -29.7422  -11.7516   17.4424 H   0  0  0  0  0  0
  -29.6489  -13.4721   17.7262 H   0  0  0  0  0  0
  -27.8250  -11.3046   18.8241 H   0  0  0  0  0  0
  -27.3664  -12.6252   17.7799 H   0  0  0  0  0  0
  -27.6789  -14.2560   19.5412 H   0  0  0  0  0  0
  -28.7028  -12.0154   21.3472 H   0  0  0  0  0  0
  -28.4639  -13.6684   21.8423 H   0  0  0  0  0  0
  -25.2748   -9.5703   22.4785 H   0  0  0  0  0  0
  -23.9987   -7.4652   22.7491 H   0  0  0  0  0  0
  -21.0841   -8.8779   19.8955 H   0  0  0  0  0  0
  -22.3692  -10.9683   19.6175 H   0  0  0  0  0  0
  -21.2015   -7.6157   23.9732 H   0  0  0  0  0  0
  -21.1475   -6.0522   25.9078 H   0  0  0  0  0  0
  -22.0597   -2.7623   23.2834 H   0  0  0  0  0  0
  -22.4031  -11.9955   22.4806 H   0  0  0  0  0  0
  -21.1068  -13.1335   22.2501 H   0  0  0  0  0  0
  -24.6512  -15.8355   20.5142 H   0  0  0  0  0  0
  -26.2602  -15.6318   20.0492 H   0  0  0  0  0  0
  -26.7159  -32.5465   23.1143 H   0  0  0  0  0  0
  -25.0134  -33.9773   25.0483 H   0  0  0  0  0  0
  -22.7063  -31.3184   21.4199 H   0  0  0  0  0  0
  -23.3741  -35.9660   23.3307 H   0  0  0  0  0  0
  -24.3575  -36.8920   22.2050 H   0  0  0  0  0  0
  -23.7263  -37.6522   23.6649 H   0  0  0  0  0  0
  -26.0796  -31.5712   20.6118 H   0  0  0  0  0  0
  -26.8372  -30.8497   22.0030 H   0  0  0  0  0  0
  -28.0976  -28.9924   21.2043 H   0  0  0  0  0  0
  -25.9346  -26.0129   18.9069 H   0  0  0  0  0  0
  -23.9581  -27.3721   18.9636 H   0  0  0  0  0  0
  -23.7374  -30.6266   19.4156 H   0  0  0  0  0  0
  -22.7392  -29.2751   19.8596 H   0  0  0  0  0  0
  -25.1298  -36.1954   25.0821 H   0  0  0  0  0  0
  -20.9953  -28.3288   24.1400 H   0  0  0  0  0  0
  -20.5701  -26.2310   23.3591 H   0  0  0  0  0  0
  -21.6672  -26.7502   22.1196 H   0  0  0  0  0  0
  -19.7031  -25.6387   21.1122 H   0  0  0  0  0  0
  -19.6798  -27.3314   20.6732 H   0  0  0  0  0  0
  -17.4259  -26.6751   21.3860 H   0  0  0  0  0  0
  -18.0314  -26.0059   22.8849 H   0  0  0  0  0  0
  -19.7884  -30.7217   24.2353 H   0  0  0  0  0  0
  -17.4977  -31.6203   24.5267 H   0  0  0  0  0  0
  -15.5313  -30.2955   23.7674 H   0  0  0  0  0  0
  -15.8704  -28.0837   22.6883 H   0  0  0  0  0  0
  -24.5923  -30.7052   25.7799 H   0  0  0  0  0  0
  -24.8913  -32.2874   26.4895 H   0  0  0  0  0  0
  -25.8074  -30.8898   27.0239 H   0  0  0  0  0  0
  -26.2902  -29.6786   24.1182 H   0  0  0  0  0  0
  -27.4047  -29.7270   25.4644 H   0  0  0  0  0  0
  -27.8767  -30.4322   23.9372 H   0  0  0  0  0  0
  -27.2666  -33.3624   26.2102 H   0  0  0  0  0  0
  -28.3884  -32.6876   25.0363 H   0  0  0  0  0  0
  -28.0704  -31.8434   26.5441 H   0  0  0  0  0  0
  -28.2599  -38.0110   24.7495 H   0  0  0  0  0  0
  -28.1072  -36.2636   24.6311 H   0  0  0  0  0  0
  -27.2287  -37.1506   25.8863 H   0  0  0  0  0  0
  -20.9317  -29.8835   21.6940 H   0  0  0  0  0  0
  -26.0170  -38.2869   24.1382 H   0  0  0  0  0  0
  -31.6161  -17.2610   24.8007 H   0  0  0  0  0  0
  -30.7571  -19.4244   23.3920 H   0  0  0  0  0  0
  -26.7491  -21.2913   21.4350 H   0  0  0  0  0  0
  -26.4088  -22.9977   21.4135 H   0  0  0  0  0  0
  -27.6859  -22.3936   22.4526 H   0  0  0  0  0  0
  -29.3276  -24.0740   21.3863 H   0  0  0  0  0  0
  -29.8212  -23.9016   19.7229 H   0  0  0  0  0  0
  -30.3393  -18.7132   19.9429 H   0  0  0  0  0  0
  -28.7158  -18.4060   20.5136 H   0  0  0  0  0  0
  -30.4785  -20.7257   21.5790 H   0  0  0  0  0  0
  -28.8360  -20.3886   22.0427 H   0  0  0  0  0  0
  -27.0561  -24.8609   20.4477 H   0  0  0  0  0  0
  -27.8126  -24.9296   18.8705 H   0  0  0  0  0  0
  -27.6524  -22.4881   19.4128 H   0  0  0  0  0  0
  -28.9751  -15.5138   20.9122 H   0  0  0  0  0  0
  -28.5724  -20.6791   19.4616 H   0  0  0  0  0  0
  -29.9279  -21.5325   19.5636 H   0  0  0  0  0  0
  1 25  1  0  0  0
  1 30  2  0  0  0
  1 82  1  0  0  0
  2  3  1  0  0  0
  2 25  1  0  0  0
  2 84  1  0  0  0
  2 85  1  0  0  0
  3  4  1  0  0  0
  3 86  1  0  0  0
  3 87  1  0  0  0
  4  5  1  0  0  0
  4 88  1  0  0  0
  4 89  1  0  0  0
  5  6  1  0  0  0
  5 26  1  0  0  0
  5 90  1  0  0  0
  6 25  1  0  0  0
  6 91  1  0  0  0
  6 92  1  0  0  0
  7  8  2  0  0  0
  7 26  1  0  0  0
  7 29  1  0  0  0
  8  9  1  0  0  0
  8 22  1  0  0  0
  9 10  1  0  0  0
  9 27  2  0  0  0
 10 11  2  0  0  0
 10 15  1  0  0  0
 11 12  1  0  0  0
 11 93  1  0  0  0
 12 13  2  0  0  0
 12 94  1  0  0  0
 13 14  1  0  0  0
 13 31  1  0  0  0
 14 15  2  0  0  0
 14 95  1  0  0  0
 15 96  1  0  0  0
 16 17  2  0  0  0
 16 21  1  0  0  0
 16 31  1  0  0  0
 17 18  1  0  0  0
 17 97  1  0  0  0
 18 19  2  0  0  0
 18 98  1  0  0  0
 19 20  1  0  0  0
 19 24  1  0  0  0
 20 21  2  0  0  0
 20 99  1  0  0  0
 21 23  1  0  0  0
 22 28  1  0  0  0
 22 32  2  0  0  0
 26 27  1  0  0  0
 28100  1  0  0  0
 28101  1  0  0  0
 29102  1  0  0  0
 29103  1  0  0  0
 33 34  1  0  0  0
 33 66  1  0  0  0
 33 70  2  0  0  0
 34 36  1  0  0  0
 34 59  1  0  0  0
 34104  1  0  0  0
 35 44  2  0  0  0
 35 45  1  0  0  0
 35 68  1  0  0  0
 36 56  1  0  0  0
 36105  1  0  0  0
 37 39  1  0  0  0
 37 47  1  0  0  0
 37 66  1  0  0  0
 37106  1  0  0  0
 38 43  2  0  0  0
 38 46  1  0  0  0
 38 47  1  0  0  0
 39 64  1  0  0  0
 39 67  2  0  0  0
 40 52  1  0  0  0
 40 53  2  0  0  0
 40 58  1  0  0  0
 41107  1  0  0  0
 41108  1  0  0  0
 41109  1  0  0  0
 41 48  1  0  0  0
 42 43  1  0  0  0
 42 66  1  0  0  0
 42110  1  0  0  0
 42111  1  0  0  0
 43 44  1  0  0  0
 44112  1  0  0  0
 45 46  2  0  0  0
 45113  1  0  0  0
 46114  1  0  0  0
 47115  1  0  0  0
 47116  1  0  0  0
 48 56  1  0  0  0
 48 65  1  0  0  0
 48117  1  0  0  0
 49 50  1  0  0  0
 49 53  1  0  0  0
 49 64  1  0  0  0
 49118  1  0  0  0
 50 51  1  0  0  0
 50119  1  0  0  0
 50120  1  0  0  0
 51 52  1  0  0  0
 51121  1  0  0  0
 51122  1  0  0  0
 52123  1  0  0  0
 52124  1  0  0  0
 53 54  1  0  0  0
 54 55  2  0  0  0
 54125  1  0  0  0
 55 57  1  0  0  0
 55126  1  0  0  0
 56 69  2  0  0  0
 57 58  2  0  0  0
 57127  1  0  0  0
 58128  1  0  0  0
 59 60  1  0  0  0
 59 61  1  0  0  0
 59 62  1  0  0  0
 60129  1  0  0  0
 60130  1  0  0  0
 60131  1  0  0  0
 61132  1  0  0  0
 61133  1  0  0  0
 61134  1  0  0  0
 62135  1  0  0  0
 62136  1  0  0  0
 62137  1  0  0  0
 63 65  1  0  0  0
 63138  1  0  0  0
 63139  1  0  0  0
 63140  1  0  0  0
 64141  1  0  0  0
 65142  1  0  0  0
 68 78  1  0  0  0
 71 72  2  0  0  0
 71 80  1  0  0  0
 71143  1  0  0  0
 72 81  1  0  0  0
 72144  1  0  0  0
 73 80  2  0  0  0
 73 81  1  0  0  0
 73 82  1  0  0  0
 74145  1  0  0  0
 74146  1  0  0  0
 74147  1  0  0  0
 74 79  1  0  0  0
 75 78  1  0  0  0
 75 79  1  0  0  0
 75148  1  0  0  0
 75149  1  0  0  0
 76 77  1  0  0  0
 76 81  1  0  0  0
 76150  1  0  0  0
 76151  1  0  0  0
 77 83  1  0  0  0
 77152  1  0  0  0
 77153  1  0  0  0
 78154  1  0  0  0
 78155  1  0  0  0
 79 83  1  0  0  0
 79156  1  0  0  0
 82157  1  0  0  0
 83158  1  0  0  0
 83159  1  0  0  0
M  CHG  1  83   1
M  ISO  4   1 100  68 101  78 101  82 100
M  END
> <chiral flag>
0

> <version>
0

> <s_m_source_file>
/data/baiqing/PycharmProjects/Reinvent-master-3.2/result/LINK_invent/BTK/process_docking_weight1_custom_product_contain_oxygen_bond_distance_aromatic_linkinvent_7_9_3/rearranged_h_0196.sdf

> <i_m_source_file_index>
30

> <r_mmod_Potential_Energy-OPLS-2005>
-163.442947387695

> <r_mmod_Stretch_Energy-OPLS-2005>
61.4626770019531

> <r_mmod_Bend_Energy-OPLS-2005>
146.983825683594

> <r_mmod_Torsional_Energy-OPLS-2005>
263.788055419922

> <r_mmod_Improper_Torsional_Energy-OPLS-2005>
7.5661039352417

> <r_mmod_Van_der_Waal_Energy-OPLS-2005>
140.544555664062

> <r_mmod_Electrostatic_Energy-OPLS-2005>
-289.2353515625

> <r_mmod_Solvation_Energy-OPLS-2005>
-528.751098632812

> <b_mmod_Minimization_Converged-OPLS-2005>
0

> <r_mmod_RMS_Derivative-OPLS-2005>
2.91245007514954

$$$$
30
                    3D
 Structure written by MMmdl.
155163  0  0  1  0            999 V2000
  -30.6810  -14.4725   20.5852 C   0  0  0  0  0  0
  -30.4324  -12.3120   19.4107 C   0  0  0  0  0  0
  -29.4936  -12.5100   18.2013 C   0  0  0  0  0  0
  -28.0153  -12.3688   18.6152 C   0  0  0  0  0  0
  -27.6657  -13.1985   19.8787 C   0  0  2  0  0  0
  -28.7077  -12.9519   20.9930 C   0  0  0  0  0  0
  -25.2621  -13.8146   20.5685 C   0  0  0  0  0  0
  -24.1856  -13.0436   20.9170 C   0  0  0  0  0  0
  -24.6397  -11.6897   20.8739 C   0  0  0  0  0  0
  -23.9055  -10.4292   21.0410 C   0  0  0  0  0  0
  -24.3609   -9.4207   21.9185 C   0  0  0  0  0  0
  -23.6286   -8.2241   22.0755 C   0  0  0  0  0  0
  -22.4269   -8.0280   21.3545 C   0  0  0  0  0  0
  -21.9902   -9.0252   20.4650 C   0  0  0  0  0  0
  -22.7229  -10.2134   20.3059 C   0  0  0  0  0  0
  -21.6853   -6.0734   22.5280 C   0  0  0  0  0  0
  -21.4010   -6.5641   23.8213 C   0  0  0  0  0  0
  -21.3654   -5.6791   24.9175 C   0  0  0  0  0  0
  -21.6047   -4.3055   24.7226 C   0  0  0  0  0  0
  -21.8819   -3.8150   23.4347 C   0  0  0  0  0  0
  -21.9191   -4.6963   22.3406 C   0  0  0  0  0  0
  -22.7885  -13.5251   21.1834 C   0  0  0  0  0  0
  -22.1663   -4.2156   21.0982 F   0  0  0  0  0  0
  -21.5626   -3.4540   25.7737 F   0  0  0  0  0  0
  -30.0390  -13.2791   20.4474 N   0  0  0  0  0  0
  -26.3047  -12.9296   20.3378 N   0  0  0  0  0  0
  -25.9322  -11.6469   20.5768 N   0  0  0  0  0  0
  -22.0517  -12.8247   22.0386 N   0  0  0  0  0  0
  -25.4399  -15.1856   20.4099 N   0  0  0  0  0  0
  -31.8019  -14.6815   20.1052 O   0  0  0  0  0  0
  -21.6634   -6.8878   21.4242 O   0  0  0  0  0  0
  -22.3581  -14.5562   20.6690 O   0  0  0  0  0  0
  -24.6155  -31.8673   23.2085 C   0  0  0  0  0  0
  -25.9038  -32.4825   23.8387 C   0  0  1  0  0  0
  -27.2375  -27.4414   20.0880 C   0  0  0  0  0  0
  -25.5890  -33.8620   24.2317 N   0  0  0  0  0  0
  -23.4047  -30.4911   21.5479 C   0  0  2  0  0  0
  -24.8549  -28.9616   20.1100 C   0  0  0  0  0  0
  -22.7427  -29.4645   22.4957 C   0  0  0  0  0  0
  -18.0271  -28.1387   22.8490 C   0  0  0  0  0  0
  -24.1485  -36.7313   23.2642 C   0  0  0  0  0  0
  -25.9345  -30.8367   21.3600 C   0  0  0  0  0  0
  -26.0159  -29.4724   20.7052 C   0  0  0  0  0  0
  -27.2143  -28.7208   20.6897 C   0  0  0  0  0  0
  -26.0648  -26.9481   19.4802 C   0  0  0  0  0  0
  -24.8749  -27.6990   19.4912 C   0  0  0  0  0  0
  -23.6153  -29.8258   20.1617 C   0  0  0  0  0  0
  -25.4104  -36.3114   24.0342 C   0  0  1  0  0  0
  -20.5870  -28.3669   23.1316 C   0  0  2  0  0  0
  -20.6759  -26.9395   22.5420 C   0  0  0  0  0  0
  -19.5741  -26.6388   21.5212 C   0  0  0  0  0  0
  -18.1920  -26.7929   22.1628 C   0  0  0  0  0  0
  -19.1527  -28.8838   23.2907 C   0  0  0  0  0  0
  -18.9450  -30.1444   23.8913 C   0  0  0  0  0  0
  -17.6459  -30.6581   24.0573 C   0  0  0  0  0  0
  -25.9037  -34.9481   23.5131 C   0  0  0  0  0  0
  -16.5344  -29.9100   23.6322 C   0  0  0  0  0  0
  -16.7261  -28.6515   23.0343 C   0  0  0  0  0  0
  -26.4465  -31.6604   25.0717 C   0  0  0  0  0  0
  -25.3738  -31.3698   26.1475 C   0  0  0  0  0  0
  -27.0284  -30.3053   24.6065 C   0  0  0  0  0  0
  -27.6039  -32.4315   25.7481 C   0  0  0  0  0  0
  -27.5580  -37.1810   24.8465 C   0  0  0  0  0  0
  -21.4151  -29.3030   22.3718 N   0  0  0  0  0  0
  -26.4291  -37.3802   23.9407 N   0  0  0  0  0  0
  -24.6696  -31.0789   22.0975 N   0  0  0  0  0  0
  -23.4205  -28.8182   23.2988 O   0  0  0  0  0  0
  -28.3669  -26.6528   20.0975 O   0  0  0  0  0  0
  -26.5605  -34.8931   22.4696 O   0  0  0  0  0  0
  -23.5342  -32.1400   23.7485 O   0  0  0  0  0  0
  -30.9574  -18.9251   20.9424 C   0  0  0  0  0  0
  -29.7683  -19.2893   21.5348 C   0  0  0  0  0  0
  -30.0616  -16.8408   21.2071 C   0  0  0  0  0  0
  -29.4457  -23.5169   23.0633 C   0  0  0  0  0  0
  -29.3060  -20.6422   22.0386 C   0  0  0  0  0  0
  -29.1143  -24.2982   20.6449 C   0  0  0  0  0  0
  -28.2563  -25.5439   21.0062 C   0  0  0  0  0  0
  -28.9491  -23.1120   21.6548 C   0  0  1  0  0  0
  -31.1102  -17.5393   20.7515 N   0  0  0  0  0  0
  -29.9443  -15.4201   21.1975 N   0  0  0  0  0  0
  -29.5876  -21.8352   21.1874 N   0  3  0  0  0  0
  -28.7899  -17.8703   21.8584 S   0  0  0  0  0  0
  -31.4734  -12.4307   19.1027 H   0  0  0  0  0  0
  -30.3529  -11.2953   19.7971 H   0  0  0  0  0  0
  -29.7316  -11.7889   17.4186 H   0  0  0  0  0  0
  -29.6572  -13.4978   17.7664 H   0  0  0  0  0  0
  -27.8224  -11.3119   18.8032 H   0  0  0  0  0  0
  -27.3635  -12.6525   17.7891 H   0  0  0  0  0  0
  -27.7173  -14.2500   19.5942 H   0  0  0  0  0  0
  -28.6893  -11.9051   21.2986 H   0  0  0  0  0  0
  -28.4635  -13.5144   21.8948 H   0  0  0  0  0  0
  -25.2759   -9.5680   22.4754 H   0  0  0  0  0  0
  -24.0001   -7.4631   22.7474 H   0  0  0  0  0  0
  -21.0832   -8.8771   19.8954 H   0  0  0  0  0  0
  -22.3691  -10.9672   19.6166 H   0  0  0  0  0  0
  -21.2002   -7.6153   23.9719 H   0  0  0  0  0  0
  -21.1474   -6.0525   25.9079 H   0  0  0  0  0  0
  -22.0603   -2.7616   23.2847 H   0  0  0  0  0  0
  -22.4119  -11.9892   22.4761 H   0  0  0  0  0  0
  -21.1142  -13.1288   22.2605 H   0  0  0  0  0  0
  -24.6785  -15.8460   20.5215 H   0  0  0  0  0  0
  -26.2895  -15.6166   20.0685 H   0  0  0  0  0  0
  -26.7117  -32.5542   23.1159 H   0  0  0  0  0  0
  -25.0032  -33.9779   25.0461 H   0  0  0  0  0  0
  -22.6921  -31.3061   21.4069 H   0  0  0  0  0  0
  -23.3748  -35.9650   23.3331 H   0  0  0  0  0  0
  -24.3573  -36.8903   22.2049 H   0  0  0  0  0  0
  -23.7244  -37.6530   23.6633 H   0  0  0  0  0  0
  -26.0462  -31.6045   20.5932 H   0  0  0  0  0  0
  -26.8224  -30.8903   21.9774 H   0  0  0  0  0  0
  -28.1118  -29.1098   21.1500 H   0  0  0  0  0  0
  -26.0744  -25.9769   19.0062 H   0  0  0  0  0  0
  -23.9861  -27.3019   19.0206 H   0  0  0  0  0  0
  -23.7200  -30.6011   19.4018 H   0  0  0  0  0  0
  -22.7406  -29.2444   19.8650 H   0  0  0  0  0  0
  -25.1284  -36.1985   25.0834 H   0  0  0  0  0  0
  -20.9957  -28.3231   24.1440 H   0  0  0  0  0  0
  -20.5663  -26.2258   23.3612 H   0  0  0  0  0  0
  -21.6630  -26.7435   22.1214 H   0  0  0  0  0  0
  -19.6899  -25.6311   21.1235 H   0  0  0  0  0  0
  -19.6692  -27.3212   20.6762 H   0  0  0  0  0  0
  -17.4188  -26.6674   21.4035 H   0  0  0  0  0  0
  -18.0317  -26.0070   22.9027 H   0  0  0  0  0  0
  -19.7921  -30.7248   24.2305 H   0  0  0  0  0  0
  -17.5008  -31.6270   24.5165 H   0  0  0  0  0  0
  -15.5343  -30.3011   23.7629 H   0  0  0  0  0  0
  -15.8659  -28.0850   22.7035 H   0  0  0  0  0  0
  -24.5912  -30.7042   25.7819 H   0  0  0  0  0  0
  -24.8928  -32.2849   26.4937 H   0  0  0  0  0  0
  -25.8113  -30.8866   27.0221 H   0  0  0  0  0  0
  -26.2816  -29.6834   24.1122 H   0  0  0  0  0  0
  -27.4076  -29.7268   25.4494 H   0  0  0  0  0  0
  -27.8640  -30.4386   23.9190 H   0  0  0  0  0  0
  -27.2659  -33.3593   26.2099 H   0  0  0  0  0  0
  -28.3835  -32.6913   25.0307 H   0  0  0  0  0  0
  -28.0724  -31.8417   26.5369 H   0  0  0  0  0  0
  -28.2606  -38.0106   24.7524 H   0  0  0  0  0  0
  -28.1074  -36.2644   24.6280 H   0  0  0  0  0  0
  -27.2299  -37.1442   25.8870 H   0  0  0  0  0  0
  -20.9299  -29.8777   21.6977 H   0  0  0  0  0  0
  -26.0192  -38.2881   24.1427 H   0  0  0  0  0  0
  -31.7692  -19.5812   20.6587 H   0  0  0  0  0  0
  -28.9363  -24.4027   23.4370 H   0  0  0  0  0  0
  -30.5149  -23.7300   23.0623 H   0  0  0  0  0  0
  -29.2521  -22.7513   23.8130 H   0  0  0  0  0  0
  -29.7582  -20.7881   23.0190 H   0  0  0  0  0  0
  -28.2295  -20.5998   22.2127 H   0  0  0  0  0  0
  -28.8267  -23.9646   19.6468 H   0  0  0  0  0  0
  -30.1629  -24.5876   20.5740 H   0  0  0  0  0  0
  -28.5469  -25.9383   21.9785 H   0  0  0  0  0  0
  -27.2196  -25.2178   21.1125 H   0  0  0  0  0  0
  -27.8788  -22.9086   21.7286 H   0  0  0  0  0  0
  -29.0827  -15.0700   21.5850 H   0  0  0  0  0  0
  -29.2486  -21.6330   20.2612 H   0  0  0  0  0  0
  -30.5842  -21.9638   21.1245 H   0  0  0  0  0  0
  1 25  1  0  0  0
  1 30  2  0  0  0
  1 80  1  0  0  0
  2  3  1  0  0  0
  2 25  1  0  0  0
  2 83  1  0  0  0
  2 84  1  0  0  0
  3  4  1  0  0  0
  3 85  1  0  0  0
  3 86  1  0  0  0
  4  5  1  0  0  0
  4 87  1  0  0  0
  4 88  1  0  0  0
  5  6  1  0  0  0
  5 26  1  0  0  0
  5 89  1  0  0  0
  6 25  1  0  0  0
  6 90  1  0  0  0
  6 91  1  0  0  0
  7  8  2  0  0  0
  7 26  1  0  0  0
  7 29  1  0  0  0
  8  9  1  0  0  0
  8 22  1  0  0  0
  9 10  1  0  0  0
  9 27  2  0  0  0
 10 11  2  0  0  0
 10 15  1  0  0  0
 11 12  1  0  0  0
 11 92  1  0  0  0
 12 13  2  0  0  0
 12 93  1  0  0  0
 13 14  1  0  0  0
 13 31  1  0  0  0
 14 15  2  0  0  0
 14 94  1  0  0  0
 15 95  1  0  0  0
 16 17  2  0  0  0
 16 21  1  0  0  0
 16 31  1  0  0  0
 17 18  1  0  0  0
 17 96  1  0  0  0
 18 19  2  0  0  0
 18 97  1  0  0  0
 19 20  1  0  0  0
 19 24  1  0  0  0
 20 21  2  0  0  0
 20 98  1  0  0  0
 21 23  1  0  0  0
 22 28  1  0  0  0
 22 32  2  0  0  0
 26 27  1  0  0  0
 28 99  1  0  0  0
 28100  1  0  0  0
 29101  1  0  0  0
 29102  1  0  0  0
 33 34  1  0  0  0
 33 66  1  0  0  0
 33 70  2  0  0  0
 34 36  1  0  0  0
 34 59  1  0  0  0
 34103  1  0  0  0
 35 44  2  0  0  0
 35 45  1  0  0  0
 35 68  1  0  0  0
 36 56  1  0  0  0
 36104  1  0  0  0
 37 39  1  0  0  0
 37 47  1  0  0  0
 37 66  1  0  0  0
 37105  1  0  0  0
 38 43  2  0  0  0
 38 46  1  0  0  0
 38 47  1  0  0  0
 39 64  1  0  0  0
 39 67  2  0  0  0
 40 52  1  0  0  0
 40 53  2  0  0  0
 40 58  1  0  0  0
 41106  1  0  0  0
 41107  1  0  0  0
 41108  1  0  0  0
 41 48  1  0  0  0
 42 43  1  0  0  0
 42 66  1  0  0  0
 42109  1  0  0  0
 42110  1  0  0  0
 43 44  1  0  0  0
 44111  1  0  0  0
 45 46  2  0  0  0
 45112  1  0  0  0
 46113  1  0  0  0
 47114  1  0  0  0
 47115  1  0  0  0
 48 56  1  0  0  0
 48 65  1  0  0  0
 48116  1  0  0  0
 49 50  1  0  0  0
 49 53  1  0  0  0
 49 64  1  0  0  0
 49117  1  0  0  0
 50 51  1  0  0  0
 50118  1  0  0  0
 50119  1  0  0  0
 51 52  1  0  0  0
 51120  1  0  0  0
 51121  1  0  0  0
 52122  1  0  0  0
 52123  1  0  0  0
 53 54  1  0  0  0
 54 55  2  0  0  0
 54124  1  0  0  0
 55 57  1  0  0  0
 55125  1  0  0  0
 56 69  2  0  0  0
 57 58  2  0  0  0
 57126  1  0  0  0
 58127  1  0  0  0
 59 60  1  0  0  0
 59 61  1  0  0  0
 59 62  1  0  0  0
 60128  1  0  0  0
 60129  1  0  0  0
 60130  1  0  0  0
 61131  1  0  0  0
 61132  1  0  0  0
 61133  1  0  0  0
 62134  1  0  0  0
 62135  1  0  0  0
 62136  1  0  0  0
 63 65  1  0  0  0
 63137  1  0  0  0
 63138  1  0  0  0
 63139  1  0  0  0
 64140  1  0  0  0
 65141  1  0  0  0
 68 77  1  0  0  0
 71 72  2  0  0  0
 71 79  1  0  0  0
 71142  1  0  0  0
 72 75  1  0  0  0
 72 82  1  0  0  0
 73 79  2  0  0  0
 73 80  1  0  0  0
 73 82  1  0  0  0
 74143  1  0  0  0
 74144  1  0  0  0
 74145  1  0  0  0
 74 78  1  0  0  0
 75 81  1  0  0  0
 75146  1  0  0  0
 75147  1  0  0  0
 76 77  1  0  0  0
 76 78  1  0  0  0
 76148  1  0  0  0
 76149  1  0  0  0
 77150  1  0  0  0
 77151  1  0  0  0
 78 81  1  0  0  0
 78152  1  0  0  0
 80153  1  0  0  0
 81154  1  0  0  0
 81155  1  0  0  0
M  CHG  1  81   1
M  ISO  4   1 100  68 101  77 101  80 100
M  END
> <chiral flag>
0

> <version>
0

> <s_m_source_file>
/data/baiqing/PycharmProjects/Reinvent-master-3.2/result/LINK_invent/BTK/process_docking_weight1_custom_product_contain_oxygen_bond_distance_aromatic_linkinvent_7_9_3/rearranged_h_0196.sdf

> <i_m_source_file_index>
31

> <r_mmod_Potential_Energy-OPLS-2005>
-274.326812744141

> <r_mmod_Stretch_Energy-OPLS-2005>
38.4796981811523

> <r_mmod_Bend_Energy-OPLS-2005>
105.103675842285

> <r_mmod_Torsional_Energy-OPLS-2005>
225.146240234375

> <r_mmod_Improper_Torsional_Energy-OPLS-2005>
3.38334059715271

> <r_mmod_Van_der_Waal_Energy-OPLS-2005>
132.297653198242

> <r_mmod_Electrostatic_Energy-OPLS-2005>
-290.506988525391

> <r_mmod_Solvation_Energy-OPLS-2005>
-500.788757324219

> <b_mmod_Minimization_Converged-OPLS-2005>
0

> <r_mmod_RMS_Derivative-OPLS-2005>
1.89930427074432

$$$$
31
                    3D
 Structure written by MMmdl.
154162  0  0  1  0            999 V2000
  -30.6180  -14.7860   20.4368 C   0  0  0  0  0  0
  -30.4232  -12.4740   19.4964 C   0  0  0  0  0  0
  -29.5093  -12.5056   18.2521 C   0  0  0  0  0  0
  -28.0440  -12.2964   18.6715 C   0  0  0  0  0  0
  -27.6351  -13.2317   19.8391 C   0  0  2  0  0  0
  -28.6735  -13.2258   20.9818 C   0  0  0  0  0  0
  -25.2558  -13.8210   20.5734 C   0  0  0  0  0  0
  -24.1838  -13.0484   20.9194 C   0  0  0  0  0  0
  -24.6399  -11.6949   20.8781 C   0  0  0  0  0  0
  -23.9064  -10.4315   21.0426 C   0  0  0  0  0  0
  -24.3598   -9.4216   21.9198 C   0  0  0  0  0  0
  -23.6271   -8.2262   22.0741 C   0  0  0  0  0  0
  -22.4244   -8.0292   21.3557 C   0  0  0  0  0  0
  -21.9904   -9.0268   20.4656 C   0  0  0  0  0  0
  -22.7238  -10.2146   20.3076 C   0  0  0  0  0  0
  -21.6840   -6.0752   22.5312 C   0  0  0  0  0  0
  -21.4029   -6.5668   23.8244 C   0  0  0  0  0  0
  -21.3666   -5.6822   24.9199 C   0  0  0  0  0  0
  -21.6012   -4.3085   24.7258 C   0  0  0  0  0  0
  -21.8819   -3.8170   23.4393 C   0  0  0  0  0  0
  -21.9198   -4.6983   22.3436 C   0  0  0  0  0  0
  -22.7865  -13.5272   21.1863 C   0  0  0  0  0  0
  -22.1660   -4.2184   21.1010 F   0  0  0  0  0  0
  -21.5574   -3.4549   25.7762 F   0  0  0  0  0  0
  -29.9800  -13.5612   20.4008 N   0  0  0  0  0  0
  -26.2938  -12.9418   20.3265 N   0  0  0  0  0  0
  -25.9325  -11.6561   20.5767 N   0  0  0  0  0  0
  -22.0492  -12.8265   22.0404 N   0  0  0  0  0  0
  -25.4382  -15.1913   20.4191 N   0  0  0  0  0  0
  -31.8076  -14.8578   20.1237 O   0  0  0  0  0  0
  -21.6614   -6.8886   21.4256 O   0  0  0  0  0  0
  -22.3577  -14.5582   20.6691 O   0  0  0  0  0  0
  -24.6361  -31.8511   23.1937 C   0  0  0  0  0  0
  -25.9177  -32.4725   23.8262 C   0  0  1  0  0  0
  -27.1920  -27.2128   20.1111 C   0  0  0  0  0  0
  -25.5959  -33.8509   24.2186 N   0  0  0  0  0  0
  -23.4329  -30.4739   21.5397 C   0  0  2  0  0  0
  -24.8702  -28.9084   20.1106 C   0  0  0  0  0  0
  -22.7479  -29.4589   22.4884 C   0  0  0  0  0  0
  -18.0257  -28.1423   22.8459 C   0  0  0  0  0  0
  -24.1498  -36.7278   23.2637 C   0  0  0  0  0  0
  -25.9845  -30.7425   21.3841 C   0  0  0  0  0  0
  -26.0480  -29.3615   20.7209 C   0  0  0  0  0  0
  -27.2168  -28.5257   20.7028 C   0  0  0  0  0  0
  -25.9912  -26.8289   19.4873 C   0  0  0  0  0  0
  -24.8466  -27.6515   19.4856 C   0  0  0  0  0  0
  -23.6516  -29.8120   20.1545 C   0  0  0  0  0  0
  -25.4134  -36.3042   24.0301 C   0  0  1  0  0  0
  -20.5852  -28.3744   23.1249 C   0  0  2  0  0  0
  -20.6759  -26.9474   22.5397 C   0  0  0  0  0  0
  -19.5764  -26.6433   21.5197 C   0  0  0  0  0  0
  -18.1938  -26.7958   22.1599 C   0  0  0  0  0  0
  -19.1518  -28.8884   23.2853 C   0  0  0  0  0  0
  -18.9457  -30.1482   23.8896 C   0  0  0  0  0  0
  -17.6453  -30.6617   24.0579 C   0  0  0  0  0  0
  -25.9088  -34.9410   23.5052 C   0  0  0  0  0  0
  -16.5350  -29.9129   23.6307 C   0  0  0  0  0  0
  -16.7240  -28.6518   23.0370 C   0  0  0  0  0  0
  -26.4530  -31.6559   25.0660 C   0  0  0  0  0  0
  -25.3731  -31.3721   26.1367 C   0  0  0  0  0  0
  -27.0389  -30.2952   24.6188 C   0  0  0  0  0  0
  -27.6074  -32.4323   25.7456 C   0  0  0  0  0  0
  -27.5576  -37.1798   24.8458 C   0  0  0  0  0  0
  -21.4168  -29.3096   22.3642 N   0  0  0  0  0  0
  -26.4290  -37.3769   23.9394 N   0  0  0  0  0  0
  -24.7041  -31.0413   22.0953 N   0  0  0  0  0  0
  -23.4140  -28.8123   23.3002 O   0  0  0  0  0  0
  -28.2797  -26.3049   20.0675 O   0  0  0  0  0  0
  -26.5684  -34.8925   22.4626 O   0  0  0  0  0  0
  -23.5501  -32.1357   23.7219 O   0  0  0  0  0  0
  -29.2653  -18.6130   20.5221 C   0  0  0  0  0  0
  -27.2116  -19.2724   21.0309 C   0  0  0  0  0  0
  -28.6405  -20.8493   20.3816 C   0  0  0  0  0  0
  -28.4772  -23.7260   18.2162 C   0  0  0  0  0  0
  -30.3017  -17.4054   20.3869 C   0  0  0  0  0  0
  -28.1573  -24.8716   20.5680 C   0  0  0  0  0  0
  -28.1380  -23.4624   19.7016 C   0  0  2  0  0  0
  -28.0541  -18.2570   20.9328 N   0  0  0  0  0  0
  -29.6219  -19.9113   20.2448 N   0  0  0  0  0  0
  -27.4046  -20.5642   20.7738 N   0  0  0  0  0  0
  -25.9590  -18.9100   21.4261 N   0  0  0  0  0  0
  -28.9561  -22.2497   20.1850 N   0  0  0  0  0  0
  -29.8747  -15.9479   20.6122 N   0  0  0  0  0  0
  -31.4665  -12.5833   19.1974 H   0  0  0  0  0  0
  -30.3544  -11.5081   20.0026 H   0  0  0  0  0  0
  -29.8102  -11.7396   17.5347 H   0  0  0  0  0  0
  -29.6087  -13.4642   17.7409 H   0  0  0  0  0  0
  -27.9334  -11.2542   18.9752 H   0  0  0  0  0  0
  -27.3795  -12.4311   17.8154 H   0  0  0  0  0  0
  -27.6171  -14.2392   19.4200 H   0  0  0  0  0  0
  -28.7035  -12.2577   21.4876 H   0  0  0  0  0  0
  -28.3892  -13.9581   21.7391 H   0  0  0  0  0  0
  -25.2734   -9.5699   22.4788 H   0  0  0  0  0  0
  -24.0008   -7.4652   22.7462 H   0  0  0  0  0  0
  -21.0838   -8.8797   19.8953 H   0  0  0  0  0  0
  -22.3696  -10.9684   19.6201 H   0  0  0  0  0  0
  -21.2027   -7.6181   23.9774 H   0  0  0  0  0  0
  -21.1463   -6.0537   25.9108 H   0  0  0  0  0  0
  -22.0574   -2.7639   23.2892 H   0  0  0  0  0  0
  -22.4088  -11.9877   22.4747 H   0  0  0  0  0  0
  -21.1154  -13.1362   22.2641 H   0  0  0  0  0  0
  -24.6807  -15.8601   20.4878 H   0  0  0  0  0  0
  -26.3117  -15.6144   20.1286 H   0  0  0  0  0  0
  -26.7216  -32.5321   23.0973 H   0  0  0  0  0  0
  -25.0091  -33.9636   25.0315 H   0  0  0  0  0  0
  -22.7335  -31.2995   21.3903 H   0  0  0  0  0  0
  -23.3765  -35.9612   23.3312 H   0  0  0  0  0  0
  -24.3582  -36.8901   22.2052 H   0  0  0  0  0  0
  -23.7272  -37.6467   23.6685 H   0  0  0  0  0  0
  -26.1378  -31.5056   20.6216 H   0  0  0  0  0  0
  -26.8624  -30.7824   22.0186 H   0  0  0  0  0  0
  -28.1284  -28.8627   21.1765 H   0  0  0  0  0  0
  -25.9342  -25.8709   18.9871 H   0  0  0  0  0  0
  -23.9434  -27.3051   19.0015 H   0  0  0  0  0  0
  -23.7961  -30.5947   19.4098 H   0  0  0  0  0  0
  -22.7655  -29.2593   19.8359 H   0  0  0  0  0  0
  -25.1325  -36.1866   25.0796 H   0  0  0  0  0  0
  -20.9911  -28.3378   24.1395 H   0  0  0  0  0  0
  -20.5683  -26.2359   23.3585 H   0  0  0  0  0  0
  -21.6616  -26.7536   22.1159 H   0  0  0  0  0  0
  -19.6967  -25.6342   21.1252 H   0  0  0  0  0  0
  -19.6742  -27.3225   20.6726 H   0  0  0  0  0  0
  -17.4205  -26.6663   21.4023 H   0  0  0  0  0  0
  -18.0403  -26.0102   22.9010 H   0  0  0  0  0  0
  -19.7934  -30.7234   24.2298 H   0  0  0  0  0  0
  -17.5029  -31.6300   24.5175 H   0  0  0  0  0  0
  -15.5364  -30.3036   23.7623 H   0  0  0  0  0  0
  -15.8636  -28.0812   22.7107 H   0  0  0  0  0  0
  -24.5926  -30.7068   25.7660 H   0  0  0  0  0  0
  -24.8917  -32.2897   26.4742 H   0  0  0  0  0  0
  -25.8026  -30.8898   27.0153 H   0  0  0  0  0  0
  -26.2950  -29.6684   24.1257 H   0  0  0  0  0  0
  -27.4078  -29.7231   25.4701 H   0  0  0  0  0  0
  -27.8837  -30.4178   23.9425 H   0  0  0  0  0  0
  -27.2655  -33.3631   26.2009 H   0  0  0  0  0  0
  -28.3920  -32.6890   25.0319 H   0  0  0  0  0  0
  -28.0733  -31.8468   26.5395 H   0  0  0  0  0  0
  -28.2599  -38.0099   24.7512 H   0  0  0  0  0  0
  -28.1079  -36.2612   24.6290 H   0  0  0  0  0  0
  -27.2289  -37.1456   25.8868 H   0  0  0  0  0  0
  -20.9330  -29.8810   21.6852 H   0  0  0  0  0  0
  -26.0153  -38.2826   24.1423 H   0  0  0  0  0  0
  -28.3549  -22.8198   17.6209 H   0  0  0  0  0  0
  -29.5092  -24.0638   18.0866 H   0  0  0  0  0  0
  -27.8287  -24.4841   17.7662 H   0  0  0  0  0  0
  -30.7226  -17.4650   19.3806 H   0  0  0  0  0  0
  -31.1323  -17.6270   21.0626 H   0  0  0  0  0  0
  -29.0130  -24.7809   21.2329 H   0  0  0  0  0  0
  -27.3060  -24.8436   21.2489 H   0  0  0  0  0  0
  -27.0979  -23.1267   19.7078 H   0  0  0  0  0  0
  -25.3551  -19.6380   21.7856 H   0  0  0  0  0  0
  -25.8635  -18.0121   21.8822 H   0  0  0  0  0  0
  -29.9381  -22.3544   19.9683 H   0  0  0  0  0  0
  -28.8987  -15.8543   20.8492 H   0  0  0  0  0  0
  1 25  1  0  0  0
  1 30  2  0  0  0
  1 83  1  0  0  0
  2  3  1  0  0  0
  2 25  1  0  0  0
  2 84  1  0  0  0
  2 85  1  0  0  0
  3  4  1  0  0  0
  3 86  1  0  0  0
  3 87  1  0  0  0
  4  5  1  0  0  0
  4 88  1  0  0  0
  4 89  1  0  0  0
  5  6  1  0  0  0
  5 26  1  0  0  0
  5 90  1  0  0  0
  6 25  1  0  0  0
  6 91  1  0  0  0
  6 92  1  0  0  0
  7  8  2  0  0  0
  7 26  1  0  0  0
  7 29  1  0  0  0
  8  9  1  0  0  0
  8 22  1  0  0  0
  9 10  1  0  0  0
  9 27  2  0  0  0
 10 11  2  0  0  0
 10 15  1  0  0  0
 11 12  1  0  0  0
 11 93  1  0  0  0
 12 13  2  0  0  0
 12 94  1  0  0  0
 13 14  1  0  0  0
 13 31  1  0  0  0
 14 15  2  0  0  0
 14 95  1  0  0  0
 15 96  1  0  0  0
 16 17  2  0  0  0
 16 21  1  0  0  0
 16 31  1  0  0  0
 17 18  1  0  0  0
 17 97  1  0  0  0
 18 19  2  0  0  0
 18 98  1  0  0  0
 19 20  1  0  0  0
 19 24  1  0  0  0
 20 21  2  0  0  0
 20 99  1  0  0  0
 21 23  1  0  0  0
 22 28  1  0  0  0
 22 32  2  0  0  0
 26 27  1  0  0  0
 28100  1  0  0  0
 28101  1  0  0  0
 29102  1  0  0  0
 29103  1  0  0  0
 33 34  1  0  0  0
 33 66  1  0  0  0
 33 70  2  0  0  0
 34 36  1  0  0  0
 34 59  1  0  0  0
 34104  1  0  0  0
 35 44  2  0  0  0
 35 45  1  0  0  0
 35 68  1  0  0  0
 36 56  1  0  0  0
 36105  1  0  0  0
 37 39  1  0  0  0
 37 47  1  0  0  0
 37 66  1  0  0  0
 37106  1  0  0  0
 38 43  2  0  0  0
 38 46  1  0  0  0
 38 47  1  0  0  0
 39 64  1  0  0  0
 39 67  2  0  0  0
 40 52  1  0  0  0
 40 53  2  0  0  0
 40 58  1  0  0  0
 41107  1  0  0  0
 41108  1  0  0  0
 41109  1  0  0  0
 41 48  1  0  0  0
 42 43  1  0  0  0
 42 66  1  0  0  0
 42110  1  0  0  0
 42111  1  0  0  0
 43 44  1  0  0  0
 44112  1  0  0  0
 45 46  2  0  0  0
 45113  1  0  0  0
 46114  1  0  0  0
 47115  1  0  0  0
 47116  1  0  0  0
 48 56  1  0  0  0
 48 65  1  0  0  0
 48117  1  0  0  0
 49 50  1  0  0  0
 49 53  1  0  0  0
 49 64  1  0  0  0
 49118  1  0  0  0
 50 51  1  0  0  0
 50119  1  0  0  0
 50120  1  0  0  0
 51 52  1  0  0  0
 51121  1  0  0  0
 51122  1  0  0  0
 52123  1  0  0  0
 52124  1  0  0  0
 53 54  1  0  0  0
 54 55  2  0  0  0
 54125  1  0  0  0
 55 57  1  0  0  0
 55126  1  0  0  0
 56 69  2  0  0  0
 57 58  2  0  0  0
 57127  1  0  0  0
 58128  1  0  0  0
 59 60  1  0  0  0
 59 61  1  0  0  0
 59 62  1  0  0  0
 60129  1  0  0  0
 60130  1  0  0  0
 60131  1  0  0  0
 61132  1  0  0  0
 61133  1  0  0  0
 61134  1  0  0  0
 62135  1  0  0  0
 62136  1  0  0  0
 62137  1  0  0  0
 63 65  1  0  0  0
 63138  1  0  0  0
 63139  1  0  0  0
 63140  1  0  0  0
 64141  1  0  0  0
 65142  1  0  0  0
 68 76  1  0  0  0
 71 75  1  0  0  0
 71 78  1  0  0  0
 71 79  2  0  0  0
 72 78  2  0  0  0
 72 80  1  0  0  0
 72 81  1  0  0  0
 73 79  1  0  0  0
 73 80  2  0  0  0
 73 82  1  0  0  0
 74143  1  0  0  0
 74144  1  0  0  0
 74145  1  0  0  0
 74 77  1  0  0  0
 75 83  1  0  0  0
 75146  1  0  0  0
 75147  1  0  0  0
 76 77  1  0  0  0
 76148  1  0  0  0
 76149  1  0  0  0
 77 82  1  0  0  0
 77150  1  0  0  0
 81151  1  0  0  0
 81152  1  0  0  0
 82153  1  0  0  0
 83154  1  0  0  0
M  ISO  4   1 100  68 101  76 101  83 100
M  END
> <chiral flag>
0

> <version>
0

> <s_m_source_file>
/data/baiqing/PycharmProjects/Reinvent-master-3.2/result/LINK_invent/BTK/process_docking_weight1_custom_product_contain_oxygen_bond_distance_aromatic_linkinvent_7_9_3/rearranged_h_0196.sdf

> <i_m_source_file_index>
32

> <r_mmod_Potential_Energy-OPLS-2005>
-887.424560546875

> <r_mmod_Stretch_Energy-OPLS-2005>
139.992568969727

> <r_mmod_Bend_Energy-OPLS-2005>
198.147796630859

> <r_mmod_Torsional_Energy-OPLS-2005>
234.474914550781

> <r_mmod_Improper_Torsional_Energy-OPLS-2005>
9.71615505218506

> <r_mmod_Van_der_Waal_Energy-OPLS-2005>
143.857513427734

> <r_mmod_Electrostatic_Energy-OPLS-2005>
-1484.69543457031

> <r_mmod_Solvation_Energy-OPLS-2005>
-239.072204589844

> <b_mmod_Minimization_Converged-OPLS-2005>
0

> <r_mmod_RMS_Derivative-OPLS-2005>
6.60506629943848

$$$$
32
                    3D
 Structure written by MMmdl.
155163  0  0  1  0            999 V2000
  -30.6052  -14.8060   20.4011 C   0  0  0  0  0  0
  -30.4275  -12.4861   19.4897 C   0  0  0  0  0  0
  -29.5227  -12.5085   18.2397 C   0  0  0  0  0  0
  -28.0390  -12.3479   18.6323 C   0  0  0  0  0  0
  -27.6354  -13.2414   19.8389 C   0  0  2  0  0  0
  -28.6788  -13.2084   20.9747 C   0  0  0  0  0  0
  -25.2490  -13.8195   20.5645 C   0  0  0  0  0  0
  -24.1787  -13.0463   20.9217 C   0  0  0  0  0  0
  -24.6403  -11.6948   20.8715 C   0  0  0  0  0  0
  -23.9074  -10.4333   21.0391 C   0  0  0  0  0  0
  -24.3623   -9.4256   21.9173 C   0  0  0  0  0  0
  -23.6301   -8.2261   22.0751 C   0  0  0  0  0  0
  -22.4287   -8.0265   21.3489 C   0  0  0  0  0  0
  -21.9916   -9.0264   20.4609 C   0  0  0  0  0  0
  -22.7248  -10.2154   20.3033 C   0  0  0  0  0  0
  -21.6909   -6.0728   22.5269 C   0  0  0  0  0  0
  -21.4025   -6.5625   23.8196 C   0  0  0  0  0  0
  -21.3628   -5.6774   24.9147 C   0  0  0  0  0  0
  -21.6087   -4.3054   24.7190 C   0  0  0  0  0  0
  -21.8819   -3.8134   23.4303 C   0  0  0  0  0  0
  -21.9185   -4.6951   22.3365 C   0  0  0  0  0  0
  -22.7815  -13.5258   21.1848 C   0  0  0  0  0  0
  -22.1672   -4.2158   21.0953 F   0  0  0  0  0  0
  -21.5627   -3.4533   25.7690 F   0  0  0  0  0  0
  -29.9665  -13.5768   20.3833 N   0  0  0  0  0  0
  -26.2923  -12.9413   20.3250 N   0  0  0  0  0  0
  -25.9325  -11.6543   20.5676 N   0  0  0  0  0  0
  -22.0413  -12.8262   22.0372 N   0  0  0  0  0  0
  -25.4319  -15.1898   20.4069 N   0  0  0  0  0  0
  -31.8204  -14.8090   20.1840 O   0  0  0  0  0  0
  -21.6659   -6.8863   21.4229 O   0  0  0  0  0  0
  -22.3515  -14.5545   20.6626 O   0  0  0  0  0  0
  -24.6300  -31.8589   23.1980 C   0  0  0  0  0  0
  -25.9161  -32.4740   23.8347 C   0  0  1  0  0  0
  -27.2309  -27.2729   20.1215 C   0  0  0  0  0  0
  -25.6014  -33.8558   24.2264 N   0  0  0  0  0  0
  -23.4273  -30.4788   21.5388 C   0  0  2  0  0  0
  -24.8826  -28.9305   20.0989 C   0  0  0  0  0  0
  -22.7506  -29.4563   22.4841 C   0  0  0  0  0  0
  -18.0302  -28.1383   22.8489 C   0  0  0  0  0  0
  -24.1520  -36.7297   23.2628 C   0  0  0  0  0  0
  -25.9722  -30.7735   21.3773 C   0  0  0  0  0  0
  -26.0470  -29.3901   20.7289 C   0  0  0  0  0  0
  -27.2242  -28.5737   20.7290 C   0  0  0  0  0  0
  -26.0492  -26.8814   19.4613 C   0  0  0  0  0  0
  -24.8880  -27.6827   19.4532 C   0  0  0  0  0  0
  -23.6537  -29.8195   20.1499 C   0  0  0  0  0  0
  -25.4153  -36.3075   24.0305 C   0  0  1  0  0  0
  -20.5902  -28.3729   23.1294 C   0  0  2  0  0  0
  -20.6816  -26.9456   22.5441 C   0  0  0  0  0  0
  -19.5787  -26.6384   21.5258 C   0  0  0  0  0  0
  -18.1944  -26.7927   22.1626 C   0  0  0  0  0  0
  -19.1559  -28.8858   23.2888 C   0  0  0  0  0  0
  -18.9459  -30.1464   23.8885 C   0  0  0  0  0  0
  -17.6451  -30.6579   24.0582 C   0  0  0  0  0  0
  -25.9074  -34.9441   23.5056 C   0  0  0  0  0  0
  -16.5338  -29.9086   23.6319 C   0  0  0  0  0  0
  -16.7276  -28.6510   23.0309 C   0  0  0  0  0  0
  -26.4547  -31.6522   25.0700 C   0  0  0  0  0  0
  -25.3792  -31.3667   26.1415 C   0  0  0  0  0  0
  -27.0332  -30.2939   24.6078 C   0  0  0  0  0  0
  -27.6062  -32.4285   25.7506 C   0  0  0  0  0  0
  -27.5588  -37.1822   24.8443 C   0  0  0  0  0  0
  -21.4185  -29.3083   22.3676 N   0  0  0  0  0  0
  -26.4309  -37.3793   23.9373 N   0  0  0  0  0  0
  -24.6940  -31.0565   22.0952 N   0  0  0  0  0  0
  -23.4237  -28.8136   23.2953 O   0  0  0  0  0  0
  -28.3364  -26.3933   20.1053 O   0  0  0  0  0  0
  -26.5623  -34.8906   22.4607 O   0  0  0  0  0  0
  -23.5457  -32.1407   23.7293 O   0  0  0  0  0  0
  -31.5537  -18.7046   18.7659 C   0  0  0  0  0  0
  -30.7740  -19.8545   18.9829 C   0  0  0  0  0  0
  -29.6367  -19.7242   19.7982 C   0  0  0  0  0  0
  -30.1466  -17.3618   20.0234 C   0  0  0  0  0  0
  -30.2279  -22.3493   21.4287 C   0  0  0  0  0  0
  -28.6559  -23.6378   19.7882 C   0  0  0  0  0  0
  -28.1739  -24.9776   20.5942 C   0  0  0  0  0  0
  -28.9335  -22.2368   20.5924 C   0  0  1  0  0  0
  -31.2341  -17.5029   19.2728 N   0  0  0  0  0  0
  -29.3215  -18.4512   20.2757 N   0  0  0  0  0  0
  -31.0675  -21.0609   18.3338 N   0  0  0  0  0  0
  -28.7618  -20.8855   19.8975 N   0  0  0  0  0  0
  -29.8593  -16.0021   20.4633 N   0  0  0  0  0  0
  -31.4702  -12.6010   19.1951 H   0  0  0  0  0  0
  -30.3645  -11.5229   19.9927 H   0  0  0  0  0  0
  -29.8250  -11.7212   17.5486 H   0  0  0  0  0  0
  -29.6620  -13.4489   17.7050 H   0  0  0  0  0  0
  -27.8694  -11.2994   18.8746 H   0  0  0  0  0  0
  -27.3992  -12.5673   17.7749 H   0  0  0  0  0  0
  -27.6197  -14.2604   19.4531 H   0  0  0  0  0  0
  -28.7237  -12.2165   21.4262 H   0  0  0  0  0  0
  -28.4013  -13.9011   21.7717 H   0  0  0  0  0  0
  -25.2751   -9.5782   22.4772 H   0  0  0  0  0  0
  -24.0060   -7.4657   22.7467 H   0  0  0  0  0  0
  -21.0833   -8.8735   19.8946 H   0  0  0  0  0  0
  -22.3644  -10.9662   19.6145 H   0  0  0  0  0  0
  -21.2048   -7.6160   23.9696 H   0  0  0  0  0  0
  -21.1467   -6.0504   25.9053 H   0  0  0  0  0  0
  -22.0631   -2.7607   23.2786 H   0  0  0  0  0  0
  -22.3996  -11.9959   22.4874 H   0  0  0  0  0  0
  -21.1002  -13.1290   22.2486 H   0  0  0  0  0  0
  -24.6838  -15.8618   20.5223 H   0  0  0  0  0  0
  -26.2763  -15.5967   20.0239 H   0  0  0  0  0  0
  -26.7212  -32.5431   23.1093 H   0  0  0  0  0  0
  -25.0324  -33.9747   25.0509 H   0  0  0  0  0  0
  -22.7231  -31.3014   21.3926 H   0  0  0  0  0  0
  -23.3765  -35.9631   23.3253 H   0  0  0  0  0  0
  -24.3617  -36.8976   22.2045 H   0  0  0  0  0  0
  -23.7281  -37.6488   23.6696 H   0  0  0  0  0  0
  -26.0981  -31.5347   20.6044 H   0  0  0  0  0  0
  -26.8549  -30.8343   22.0005 H   0  0  0  0  0  0
  -28.1146  -28.9273   21.2267 H   0  0  0  0  0  0
  -26.0301  -25.9401   18.9331 H   0  0  0  0  0  0
  -24.0090  -27.3426   18.9210 H   0  0  0  0  0  0
  -23.7915  -30.6032   19.4045 H   0  0  0  0  0  0
  -22.7689  -29.2659   19.8285 H   0  0  0  0  0  0
  -25.1320  -36.1898   25.0792 H   0  0  0  0  0  0
  -21.0002  -28.3326   24.1406 H   0  0  0  0  0  0
  -20.5782  -26.2342   23.3639 H   0  0  0  0  0  0
  -21.6663  -26.7520   22.1193 H   0  0  0  0  0  0
  -19.6964  -25.6299   21.1272 H   0  0  0  0  0  0
  -19.6687  -27.3200   20.6790 H   0  0  0  0  0  0
  -17.4248  -26.6723   21.3975 H   0  0  0  0  0  0
  -18.0268  -26.0037   22.8976 H   0  0  0  0  0  0
  -19.7913  -30.7302   24.2223 H   0  0  0  0  0  0
  -17.4979  -31.6215   24.5225 H   0  0  0  0  0  0
  -15.5333  -30.2975   23.7589 H   0  0  0  0  0  0
  -15.8683  -28.0835   22.6956 H   0  0  0  0  0  0
  -24.5988  -30.6967   25.7811 H   0  0  0  0  0  0
  -24.8953  -32.2806   26.4833 H   0  0  0  0  0  0
  -25.8153  -30.8903   27.0181 H   0  0  0  0  0  0
  -26.2836  -29.6718   24.1155 H   0  0  0  0  0  0
  -27.4097  -29.7153   25.4512 H   0  0  0  0  0  0
  -27.8698  -30.4198   23.9207 H   0  0  0  0  0  0
  -27.2604  -33.3579   26.2035 H   0  0  0  0  0  0
  -28.3916  -32.6840   25.0393 H   0  0  0  0  0  0
  -28.0645  -31.8432   26.5475 H   0  0  0  0  0  0
  -28.2559  -38.0174   24.7518 H   0  0  0  0  0  0
  -28.1127  -36.2674   24.6208 H   0  0  0  0  0  0
  -27.2296  -37.1410   25.8856 H   0  0  0  0  0  0
  -20.9361  -29.8895   21.6953 H   0  0  0  0  0  0
  -26.0136  -38.2839   24.1413 H   0  0  0  0  0  0
  -32.4111  -18.7310   18.1082 H   0  0  0  0  0  0
  -30.1621  -23.1880   22.1204 H   0  0  0  0  0  0
  -31.1177  -22.5273   20.8264 H   0  0  0  0  0  0
  -30.4188  -21.4743   22.0448 H   0  0  0  0  0  0
  -29.5564  -23.8865   19.2204 H   0  0  0  0  0  0
  -27.9007  -23.4465   19.0244 H   0  0  0  0  0  0
  -28.7047  -24.9722   21.5455 H   0  0  0  0  0  0
  -27.1310  -24.8212   20.8779 H   0  0  0  0  0  0
  -28.1334  -22.2094   21.3340 H   0  0  0  0  0  0
  -32.0233  -21.3089   18.1079 H   0  0  0  0  0  0
  -30.4735  -21.8447   18.5855 H   0  0  0  0  0  0
  -27.7801  -20.6332   19.7777 H   0  0  0  0  0  0
  -28.9147  -15.8803   20.7867 H   0  0  0  0  0  0
  1 25  1  0  0  0
  1 30  2  0  0  0
  1 83  1  0  0  0
  2  3  1  0  0  0
  2 25  1  0  0  0
  2 84  1  0  0  0
  2 85  1  0  0  0
  3  4  1  0  0  0
  3 86  1  0  0  0
  3 87  1  0  0  0
  4  5  1  0  0  0
  4 88  1  0  0  0
  4 89  1  0  0  0
  5  6  1  0  0  0
  5 26  1  0  0  0
  5 90  1  0  0  0
  6 25  1  0  0  0
  6 91  1  0  0  0
  6 92  1  0  0  0
  7  8  2  0  0  0
  7 26  1  0  0  0
  7 29  1  0  0  0
  8  9  1  0  0  0
  8 22  1  0  0  0
  9 10  1  0  0  0
  9 27  2  0  0  0
 10 11  2  0  0  0
 10 15  1  0  0  0
 11 12  1  0  0  0
 11 93  1  0  0  0
 12 13  2  0  0  0
 12 94  1  0  0  0
 13 14  1  0  0  0
 13 31  1  0  0  0
 14 15  2  0  0  0
 14 95  1  0  0  0
 15 96  1  0  0  0
 16 17  2  0  0  0
 16 21  1  0  0  0
 16 31  1  0  0  0
 17 18  1  0  0  0
 17 97  1  0  0  0
 18 19  2  0  0  0
 18 98  1  0  0  0
 19 20  1  0  0  0
 19 24  1  0  0  0
 20 21  2  0  0  0
 20 99  1  0  0  0
 21 23  1  0  0  0
 22 28  1  0  0  0
 22 32  2  0  0  0
 26 27  1  0  0  0
 28100  1  0  0  0
 28101  1  0  0  0
 29102  1  0  0  0
 29103  1  0  0  0
 33 34  1  0  0  0
 33 66  1  0  0  0
 33 70  2  0  0  0
 34 36  1  0  0  0
 34 59  1  0  0  0
 34104  1  0  0  0
 35 44  2  0  0  0
 35 45  1  0  0  0
 35 68  1  0  0  0
 36 56  1  0  0  0
 36105  1  0  0  0
 37 39  1  0  0  0
 37 47  1  0  0  0
 37 66  1  0  0  0
 37106  1  0  0  0
 38 43  2  0  0  0
 38 46  1  0  0  0
 38 47  1  0  0  0
 39 64  1  0  0  0
 39 67  2  0  0  0
 40 52  1  0  0  0
 40 53  2  0  0  0
 40 58  1  0  0  0
 41107  1  0  0  0
 41108  1  0  0  0
 41109  1  0  0  0
 41 48  1  0  0  0
 42 43  1  0  0  0
 42 66  1  0  0  0
 42110  1  0  0  0
 42111  1  0  0  0
 43 44  1  0  0  0
 44112  1  0  0  0
 45 46  2  0  0  0
 45113  1  0  0  0
 46114  1  0  0  0
 47115  1  0  0  0
 47116  1  0  0  0
 48 56  1  0  0  0
 48 65  1  0  0  0
 48117  1  0  0  0
 49 50  1  0  0  0
 49 53  1  0  0  0
 49 64  1  0  0  0
 49118  1  0  0  0
 50 51  1  0  0  0
 50119  1  0  0  0
 50120  1  0  0  0
 51 52  1  0  0  0
 51121  1  0  0  0
 51122  1  0  0  0
 52123  1  0  0  0
 52124  1  0  0  0
 53 54  1  0  0  0
 54 55  2  0  0  0
 54125  1  0  0  0
 55 57  1  0  0  0
 55126  1  0  0  0
 56 69  2  0  0  0
 57 58  2  0  0  0
 57127  1  0  0  0
 58128  1  0  0  0
 59 60  1  0  0  0
 59 61  1  0  0  0
 59 62  1  0  0  0
 60129  1  0  0  0
 60130  1  0  0  0
 60131  1  0  0  0
 61132  1  0  0  0
 61133  1  0  0  0
 61134  1  0  0  0
 62135  1  0  0  0
 62136  1  0  0  0
 62137  1  0  0  0
 63 65  1  0  0  0
 63138  1  0  0  0
 63139  1  0  0  0
 63140  1  0  0  0
 64141  1  0  0  0
 65142  1  0  0  0
 68 77  1  0  0  0
 71 72  2  0  0  0
 71 79  1  0  0  0
 71143  1  0  0  0
 72 73  1  0  0  0
 72 81  1  0  0  0
 73 80  2  0  0  0
 73 82  1  0  0  0
 74 79  2  0  0  0
 74 80  1  0  0  0
 74 83  1  0  0  0
 75144  1  0  0  0
 75145  1  0  0  0
 75146  1  0  0  0
 75 78  1  0  0  0
 76 77  1  0  0  0
 76 78  1  0  0  0
 76147  1  0  0  0
 76148  1  0  0  0
 77149  1  0  0  0
 77150  1  0  0  0
 78 82  1  0  0  0
 78151  1  0  0  0
 81152  1  0  0  0
 81153  1  0  0  0
 82154  1  0  0  0
 83155  1  0  0  0
M  ISO  4   1 100  68 101  77 101  83 100
M  END
> <chiral flag>
0

> <version>
0

> <s_m_source_file>
/data/baiqing/PycharmProjects/Reinvent-master-3.2/result/LINK_invent/BTK/process_docking_weight1_custom_product_contain_oxygen_bond_distance_aromatic_linkinvent_7_9_3/rearranged_h_0196.sdf

> <i_m_source_file_index>
33

> <r_mmod_Potential_Energy-OPLS-2005>
-123.929679870605

> <r_mmod_Stretch_Energy-OPLS-2005>
146.135620117188

> <r_mmod_Bend_Energy-OPLS-2005>
216.142700195312

> <r_mmod_Torsional_Energy-OPLS-2005>
266.657989501953

> <r_mmod_Improper_Torsional_Energy-OPLS-2005>
10.1230230331421

> <r_mmod_Van_der_Waal_Energy-OPLS-2005>
145.678909301758

> <r_mmod_Electrostatic_Energy-OPLS-2005>
-754.478210449219

> <r_mmod_Solvation_Energy-OPLS-2005>
-250.84748840332

> <b_mmod_Minimization_Converged-OPLS-2005>
0

> <r_mmod_RMS_Derivative-OPLS-2005>
9.07322406768799

$$$$
33
                    3D
 Structure written by MMmdl.
155163  0  0  1  0            999 V2000
  -30.6916  -14.4581   20.5819 C   0  0  0  0  0  0
  -30.4279  -12.2961   19.4196 C   0  0  0  0  0  0
  -29.4970  -12.4950   18.2040 C   0  0  0  0  0  0
  -28.0177  -12.3567   18.6173 C   0  0  0  0  0  0
  -27.6621  -13.1975   19.8712 C   0  0  2  0  0  0
  -28.7006  -12.9668   20.9930 C   0  0  0  0  0  0
  -25.2593  -13.8152   20.5664 C   0  0  0  0  0  0
  -24.1829  -13.0441   20.9150 C   0  0  0  0  0  0
  -24.6361  -11.6905   20.8722 C   0  0  0  0  0  0
  -23.9032  -10.4293   21.0411 C   0  0  0  0  0  0
  -24.3590   -9.4217   21.9189 C   0  0  0  0  0  0
  -23.6273   -8.2255   22.0770 C   0  0  0  0  0  0
  -22.4253   -8.0290   21.3567 C   0  0  0  0  0  0
  -21.9870   -9.0257   20.4668 C   0  0  0  0  0  0
  -22.7199  -10.2136   20.3071 C   0  0  0  0  0  0
  -21.6846   -6.0735   22.5278 C   0  0  0  0  0  0
  -21.4007   -6.5640   23.8209 C   0  0  0  0  0  0
  -21.3663   -5.6792   24.9170 C   0  0  0  0  0  0
  -21.6046   -4.3057   24.7221 C   0  0  0  0  0  0
  -21.8814   -3.8153   23.4342 C   0  0  0  0  0  0
  -21.9186   -4.6965   22.3402 C   0  0  0  0  0  0
  -22.7855  -13.5265   21.1811 C   0  0  0  0  0  0
  -22.1666   -4.2158   21.0982 F   0  0  0  0  0  0
  -21.5621   -3.4543   25.7734 F   0  0  0  0  0  0
  -30.0389  -13.2715   20.4495 N   0  0  0  0  0  0
  -26.3008  -12.9297   20.3311 N   0  0  0  0  0  0
  -25.9277  -11.6466   20.5725 N   0  0  0  0  0  0
  -22.0479  -12.8300   22.0383 N   0  0  0  0  0  0
  -25.4354  -15.1867   20.4124 N   0  0  0  0  0  0
  -31.8152  -14.6548   20.0989 O   0  0  0  0  0  0
  -21.6636   -6.8886   21.4244 O   0  0  0  0  0  0
  -22.3556  -14.5573   20.6652 O   0  0  0  0  0  0
  -24.6155  -31.8654   23.2075 C   0  0  0  0  0  0
  -25.9043  -32.4808   23.8389 C   0  0  1  0  0  0
  -27.2364  -27.4384   20.0967 C   0  0  0  0  0  0
  -25.5893  -33.8606   24.2328 N   0  0  0  0  0  0
  -23.4049  -30.4864   21.5475 C   0  0  2  0  0  0
  -24.8502  -28.9430   20.1219 C   0  0  0  0  0  0
  -22.7406  -29.4654   22.4981 C   0  0  0  0  0  0
  -18.0281  -28.1395   22.8494 C   0  0  0  0  0  0
  -24.1482  -36.7329   23.2637 C   0  0  0  0  0  0
  -25.9296  -30.8331   21.3558 C   0  0  0  0  0  0
  -26.0088  -29.4628   20.7141 C   0  0  0  0  0  0
  -27.2069  -28.7154   20.6996 C   0  0  0  0  0  0
  -26.0640  -26.9219   19.5108 C   0  0  0  0  0  0
  -24.8710  -27.6700   19.5220 C   0  0  0  0  0  0
  -23.6136  -29.8107   20.1655 C   0  0  0  0  0  0
  -25.4096  -36.3109   24.0341 C   0  0  1  0  0  0
  -20.5865  -28.3687   23.1312 C   0  0  2  0  0  0
  -20.6775  -26.9422   22.5428 C   0  0  0  0  0  0
  -19.5757  -26.6398   21.5225 C   0  0  0  0  0  0
  -18.1930  -26.7947   22.1621 C   0  0  0  0  0  0
  -19.1528  -28.8859   23.2903 C   0  0  0  0  0  0
  -18.9455  -30.1461   23.8920 C   0  0  0  0  0  0
  -17.6456  -30.6590   24.0586 C   0  0  0  0  0  0
  -25.9020  -34.9468   23.5130 C   0  0  0  0  0  0
  -16.5351  -29.9099   23.6322 C   0  0  0  0  0  0
  -16.7270  -28.6520   23.0338 C   0  0  0  0  0  0
  -26.4493  -31.6587   25.0711 C   0  0  0  0  0  0
  -25.3793  -31.3695   26.1494 C   0  0  0  0  0  0
  -27.0313  -30.3030   24.6061 C   0  0  0  0  0  0
  -27.6074  -32.4318   25.7452 C   0  0  0  0  0  0
  -27.5575  -37.1811   24.8457 C   0  0  0  0  0  0
  -21.4134  -29.3041   22.3705 N   0  0  0  0  0  0
  -26.4284  -37.3792   23.9406 N   0  0  0  0  0  0
  -24.6691  -31.0760   22.0967 N   0  0  0  0  0  0
  -23.4162  -28.8202   23.3041 O   0  0  0  0  0  0
  -28.4105  -26.7304   20.0265 O   0  0  0  0  0  0
  -26.5580  -34.8918   22.4689 O   0  0  0  0  0  0
  -23.5343  -32.1410   23.7460 O   0  0  0  0  0  0
  -31.1330  -18.7492   21.1669 C   0  0  0  0  0  0
  -29.9554  -19.4120   20.7507 C   0  0  0  0  0  0
  -30.0253  -16.7673   21.0184 C   0  0  0  0  0  0
  -28.3338  -21.5109   18.8371 C   0  0  0  0  0  0
  -28.2432  -24.2322   20.1259 C   0  0  0  0  0  0
  -29.1272  -23.0942   20.6926 C   0  0  0  0  0  0
  -28.5031  -25.5714   20.8575 C   0  0  0  0  0  0
  -28.7873  -21.6330   20.3029 C   0  0  2  0  0  0
  -31.1666  -17.4045   21.3063 N   0  0  0  0  0  0
  -28.8315  -18.6908   20.5115 N   0  0  0  0  0  0
  -28.8662  -17.3548   20.6647 N   0  0  0  0  0  0
  -29.9631  -20.8045   20.5779 N   0  0  0  0  0  0
  -29.9625  -15.4156   21.1770 N   0  0  0  0  0  0
  -31.4744  -12.3914   19.1221 H   0  0  0  0  0  0
  -30.3285  -11.2854   19.8181 H   0  0  0  0  0  0
  -29.7327  -11.7681   17.4244 H   0  0  0  0  0  0
  -29.6657  -13.4765   17.7576 H   0  0  0  0  0  0
  -27.8299  -11.3007   18.8179 H   0  0  0  0  0  0
  -27.3679  -12.6301   17.7853 H   0  0  0  0  0  0
  -27.7123  -14.2450   19.5715 H   0  0  0  0  0  0
  -28.6714  -11.9291   21.3293 H   0  0  0  0  0  0
  -28.4518  -13.5544   21.8772 H   0  0  0  0  0  0
  -25.2742   -9.5685   22.4750 H   0  0  0  0  0  0
  -23.9999   -7.4628   22.7464 H   0  0  0  0  0  0
  -21.0809   -8.8754   19.8961 H   0  0  0  0  0  0
  -22.3663  -10.9663   19.6177 H   0  0  0  0  0  0
  -21.2017   -7.6147   23.9714 H   0  0  0  0  0  0
  -21.1486   -6.0528   25.9072 H   0  0  0  0  0  0
  -22.0592   -2.7614   23.2831 H   0  0  0  0  0  0
  -22.4087  -11.9997   22.4824 H   0  0  0  0  0  0
  -21.1092  -13.1354   22.2560 H   0  0  0  0  0  0
  -24.6668  -15.8396   20.5251 H   0  0  0  0  0  0
  -26.2943  -15.6362   20.1167 H   0  0  0  0  0  0
  -26.7111  -32.5525   23.1152 H   0  0  0  0  0  0
  -25.0088  -33.9769   25.0505 H   0  0  0  0  0  0
  -22.6957  -31.3033   21.4017 H   0  0  0  0  0  0
  -23.3724  -35.9682   23.3309 H   0  0  0  0  0  0
  -24.3579  -36.8936   22.2049 H   0  0  0  0  0  0
  -23.7268  -37.6549   23.6650 H   0  0  0  0  0  0
  -26.0279  -31.5898   20.5761 H   0  0  0  0  0  0
  -26.8229  -30.9004   21.9653 H   0  0  0  0  0  0
  -28.1055  -29.1141   21.1483 H   0  0  0  0  0  0
  -26.0762  -25.9501   19.0361 H   0  0  0  0  0  0
  -23.9796  -27.2610   19.0658 H   0  0  0  0  0  0
  -23.7219  -30.5781   19.3984 H   0  0  0  0  0  0
  -22.7399  -29.2252   19.8747 H   0  0  0  0  0  0
  -25.1268  -36.1979   25.0838 H   0  0  0  0  0  0
  -20.9964  -28.3277   24.1427 H   0  0  0  0  0  0
  -20.5692  -26.2301   23.3624 H   0  0  0  0  0  0
  -21.6649  -26.7483   22.1215 H   0  0  0  0  0  0
  -19.6921  -25.6314   21.1251 H   0  0  0  0  0  0
  -19.6690  -27.3214   20.6760 H   0  0  0  0  0  0
  -17.4206  -26.6711   21.4012 H   0  0  0  0  0  0
  -18.0310  -26.0092   22.9015 H   0  0  0  0  0  0
  -19.7927  -30.7285   24.2290 H   0  0  0  0  0  0
  -17.5006  -31.6263   24.5200 H   0  0  0  0  0  0
  -15.5351  -30.3004   23.7642 H   0  0  0  0  0  0
  -15.8669  -28.0853   22.7020 H   0  0  0  0  0  0
  -24.5918  -30.7089   25.7851 H   0  0  0  0  0  0
  -24.9054  -32.2858   26.5015 H   0  0  0  0  0  0
  -25.8176  -30.8811   27.0208 H   0  0  0  0  0  0
  -26.2824  -29.6762   24.1203 H   0  0  0  0  0  0
  -27.4191  -29.7288   25.4487 H   0  0  0  0  0  0
  -27.8611  -30.4343   23.9113 H   0  0  0  0  0  0
  -27.2691  -33.3604   26.2056 H   0  0  0  0  0  0
  -28.3849  -32.6910   25.0255 H   0  0  0  0  0  0
  -28.0789  -31.8451   26.5343 H   0  0  0  0  0  0
  -28.2605  -38.0095   24.7487 H   0  0  0  0  0  0
  -28.1060  -36.2631   24.6291 H   0  0  0  0  0  0
  -27.2302  -37.1476   25.8863 H   0  0  0  0  0  0
  -20.9310  -29.8726   21.6882 H   0  0  0  0  0  0
  -26.0175  -38.2869   24.1412 H   0  0  0  0  0  0
  -32.0406  -19.2935   21.3829 H   0  0  0  0  0  0
  -27.3545  -21.9736   18.7046 H   0  0  0  0  0  0
  -28.2343  -20.4741   18.5166 H   0  0  0  0  0  0
  -29.0242  -22.0065   18.1554 H   0  0  0  0  0  0
  -27.1841  -23.9762   20.1786 H   0  0  0  0  0  0
  -28.4795  -24.3456   19.0670 H   0  0  0  0  0  0
  -29.1358  -23.1583   21.7830 H   0  0  0  0  0  0
  -30.1475  -23.3155   20.3731 H   0  0  0  0  0  0
  -29.5261  -25.5776   21.2357 H   0  0  0  0  0  0
  -27.8597  -25.6513   21.7361 H   0  0  0  0  0  0
  -27.9694  -21.2861   20.9393 H   0  0  0  0  0  0
  -30.8147  -21.2794   20.8629 H   0  0  0  0  0  0
  -29.0592  -15.0897   21.4727 H   0  0  0  0  0  0
  1 25  1  0  0  0
  1 30  2  0  0  0
  1 83  1  0  0  0
  2  3  1  0  0  0
  2 25  1  0  0  0
  2 84  1  0  0  0
  2 85  1  0  0  0
  3  4  1  0  0  0
  3 86  1  0  0  0
  3 87  1  0  0  0
  4  5  1  0  0  0
  4 88  1  0  0  0
  4 89  1  0  0  0
  5  6  1  0  0  0
  5 26  1  0  0  0
  5 90  1  0  0  0
  6 25  1  0  0  0
  6 91  1  0  0  0
  6 92  1  0  0  0
  7  8  2  0  0  0
  7 26  1  0  0  0
  7 29  1  0  0  0
  8  9  1  0  0  0
  8 22  1  0  0  0
  9 10  1  0  0  0
  9 27  2  0  0  0
 10 11  2  0  0  0
 10 15  1  0  0  0
 11 12  1  0  0  0
 11 93  1  0  0  0
 12 13  2  0  0  0
 12 94  1  0  0  0
 13 14  1  0  0  0
 13 31  1  0  0  0
 14 15  2  0  0  0
 14 95  1  0  0  0
 15 96  1  0  0  0
 16 17  2  0  0  0
 16 21  1  0  0  0
 16 31  1  0  0  0
 17 18  1  0  0  0
 17 97  1  0  0  0
 18 19  2  0  0  0
 18 98  1  0  0  0
 19 20  1  0  0  0
 19 24  1  0  0  0
 20 21  2  0  0  0
 20 99  1  0  0  0
 21 23  1  0  0  0
 22 28  1  0  0  0
 22 32  2  0  0  0
 26 27  1  0  0  0
 28100  1  0  0  0
 28101  1  0  0  0
 29102  1  0  0  0
 29103  1  0  0  0
 33 34  1  0  0  0
 33 66  1  0  0  0
 33 70  2  0  0  0
 34 36  1  0  0  0
 34 59  1  0  0  0
 34104  1  0  0  0
 35 44  2  0  0  0
 35 45  1  0  0  0
 35 68  1  0  0  0
 36 56  1  0  0  0
 36105  1  0  0  0
 37 39  1  0  0  0
 37 47  1  0  0  0
 37 66  1  0  0  0
 37106  1  0  0  0
 38 43  2  0  0  0
 38 46  1  0  0  0
 38 47  1  0  0  0
 39 64  1  0  0  0
 39 67  2  0  0  0
 40 52  1  0  0  0
 40 53  2  0  0  0
 40 58  1  0  0  0
 41107  1  0  0  0
 41108  1  0  0  0
 41109  1  0  0  0
 41 48  1  0  0  0
 42 43  1  0  0  0
 42 66  1  0  0  0
 42110  1  0  0  0
 42111  1  0  0  0
 43 44  1  0  0  0
 44112  1  0  0  0
 45 46  2  0  0  0
 45113  1  0  0  0
 46114  1  0  0  0
 47115  1  0  0  0
 47116  1  0  0  0
 48 56  1  0  0  0
 48 65  1  0  0  0
 48117  1  0  0  0
 49 50  1  0  0  0
 49 53  1  0  0  0
 49 64  1  0  0  0
 49118  1  0  0  0
 50 51  1  0  0  0
 50119  1  0  0  0
 50120  1  0  0  0
 51 52  1  0  0  0
 51121  1  0  0  0
 51122  1  0  0  0
 52123  1  0  0  0
 52124  1  0  0  0
 53 54  1  0  0  0
 54 55  2  0  0  0
 54125  1  0  0  0
 55 57  1  0  0  0
 55126  1  0  0  0
 56 69  2  0  0  0
 57 58  2  0  0  0
 57127  1  0  0  0
 58128  1  0  0  0
 59 60  1  0  0  0
 59 61  1  0  0  0
 59 62  1  0  0  0
 60129  1  0  0  0
 60130  1  0  0  0
 60131  1  0  0  0
 61132  1  0  0  0
 61133  1  0  0  0
 61134  1  0  0  0
 62135  1  0  0  0
 62136  1  0  0  0
 62137  1  0  0  0
 63 65  1  0  0  0
 63138  1  0  0  0
 63139  1  0  0  0
 63140  1  0  0  0
 64141  1  0  0  0
 65142  1  0  0  0
 68 77  1  0  0  0
 71 72  2  0  0  0
 71 79  1  0  0  0
 71143  1  0  0  0
 72 80  1  0  0  0
 72 82  1  0  0  0
 73 79  2  0  0  0
 73 81  1  0  0  0
 73 83  1  0  0  0
 74144  1  0  0  0
 74145  1  0  0  0
 74146  1  0  0  0
 74 78  1  0  0  0
 75 76  1  0  0  0
 75 77  1  0  0  0
 75147  1  0  0  0
 75148  1  0  0  0
 76 78  1  0  0  0
 76149  1  0  0  0
 76150  1  0  0  0
 77151  1  0  0  0
 77152  1  0  0  0
 78 82  1  0  0  0
 78153  1  0  0  0
 80 81  2  0  0  0
 82154  1  0  0  0
 83155  1  0  0  0
M  ISO  4   1 100  68 101  77 101  83 100
M  END
> <chiral flag>
0

> <version>
0

> <s_m_source_file>
/data/baiqing/PycharmProjects/Reinvent-master-3.2/result/LINK_invent/BTK/process_docking_weight1_custom_product_contain_oxygen_bond_distance_aromatic_linkinvent_7_9_3/rearranged_h_0196.sdf

> <i_m_source_file_index>
34

> <r_mmod_Potential_Energy-OPLS-2005>
-170.661376953125

> <r_mmod_Stretch_Energy-OPLS-2005>
36.4844970703125

> <r_mmod_Bend_Energy-OPLS-2005>
119.008514404297

> <r_mmod_Torsional_Energy-OPLS-2005>
240.687606811523

> <r_mmod_Improper_Torsional_Energy-OPLS-2005>
5.14810085296631

> <r_mmod_Van_der_Waal_Energy-OPLS-2005>
160.029251098633

> <r_mmod_Electrostatic_Energy-OPLS-2005>
-509.422729492188

> <r_mmod_Solvation_Energy-OPLS-2005>
-233.304489135742

> <b_mmod_Minimization_Converged-OPLS-2005>
0

> <r_mmod_RMS_Derivative-OPLS-2005>
2.74421119689941

$$$$
34
                    3D
 Structure written by MMmdl.
152160  0  0  1  0            999 V2000
  -30.5901  -14.7749   20.4668 C   0  0  0  0  0  0
  -30.4383  -12.4796   19.4619 C   0  0  0  0  0  0
  -29.5066  -12.5005   18.2283 C   0  0  0  0  0  0
  -28.0354  -12.3145   18.6514 C   0  0  0  0  0  0
  -27.6385  -13.2260   19.8434 C   0  0  2  0  0  0
  -28.6860  -13.1704   20.9748 C   0  0  0  0  0  0
  -25.2519  -13.8181   20.5706 C   0  0  0  0  0  0
  -24.1805  -13.0433   20.9218 C   0  0  0  0  0  0
  -24.6386  -11.6908   20.8752 C   0  0  0  0  0  0
  -23.9065  -10.4292   21.0414 C   0  0  0  0  0  0
  -24.3619   -9.4212   21.9187 C   0  0  0  0  0  0
  -23.6295   -8.2245   22.0752 C   0  0  0  0  0  0
  -22.4282   -8.0280   21.3543 C   0  0  0  0  0  0
  -21.9919   -9.0259   20.4650 C   0  0  0  0  0  0
  -22.7242  -10.2139   20.3067 C   0  0  0  0  0  0
  -21.6850   -6.0742   22.5277 C   0  0  0  0  0  0
  -21.4007   -6.5643   23.8209 C   0  0  0  0  0  0
  -21.3659   -5.6799   24.9173 C   0  0  0  0  0  0
  -21.6045   -4.3065   24.7224 C   0  0  0  0  0  0
  -21.8820   -3.8154   23.4347 C   0  0  0  0  0  0
  -21.9189   -4.6970   22.3401 C   0  0  0  0  0  0
  -22.7831  -13.5226   21.1868 C   0  0  0  0  0  0
  -22.1664   -4.2157   21.0976 F   0  0  0  0  0  0
  -21.5633   -3.4551   25.7732 F   0  0  0  0  0  0
  -29.9771  -13.5429   20.3841 N   0  0  0  0  0  0
  -26.2924  -12.9367   20.3261 N   0  0  0  0  0  0
  -25.9310  -11.6515   20.5744 N   0  0  0  0  0  0
  -22.0481  -12.8212   22.0424 N   0  0  0  0  0  0
  -25.4219  -15.1903   20.4137 N   0  0  0  0  0  0
  -31.7887  -14.8795   20.1946 O   0  0  0  0  0  0
  -21.6641   -6.8884   21.4239 O   0  0  0  0  0  0
  -22.3519  -14.5529   20.6716 O   0  0  0  0  0  0
  -24.6354  -31.8503   23.1941 C   0  0  0  0  0  0
  -25.9167  -32.4723   23.8309 C   0  0  1  0  0  0
  -27.2262  -27.2389   20.1424 C   0  0  0  0  0  0
  -25.5936  -33.8529   24.2219 N   0  0  0  0  0  0
  -23.4341  -30.4720   21.5369 C   0  0  2  0  0  0
  -24.8826  -28.9085   20.1144 C   0  0  0  0  0  0
  -22.7527  -29.4586   22.4879 C   0  0  0  0  0  0
  -18.0293  -28.1380   22.8488 C   0  0  0  0  0  0
  -24.1489  -36.7287   23.2637 C   0  0  0  0  0  0
  -25.9824  -30.7579   21.3758 C   0  0  0  0  0  0
  -26.0553  -29.3764   20.7218 C   0  0  0  0  0  0
  -27.2340  -28.5586   20.7148 C   0  0  0  0  0  0
  -26.0320  -26.8376   19.5107 C   0  0  0  0  0  0
  -24.8774  -27.6475   19.4957 C   0  0  0  0  0  0
  -23.6545  -29.7995   20.1563 C   0  0  0  0  0  0
  -25.4118  -36.3056   24.0308 C   0  0  1  0  0  0
  -20.5904  -28.3703   23.1256 C   0  0  2  0  0  0
  -20.6775  -26.9408   22.5419 C   0  0  0  0  0  0
  -19.5750  -26.6377   21.5220 C   0  0  0  0  0  0
  -18.1929  -26.7922   22.1618 C   0  0  0  0  0  0
  -19.1555  -28.8861   23.2866 C   0  0  0  0  0  0
  -18.9475  -30.1460   23.8887 C   0  0  0  0  0  0
  -17.6475  -30.6583   24.0560 C   0  0  0  0  0  0
  -25.9062  -34.9424   23.5078 C   0  0  0  0  0  0
  -16.5368  -29.9080   23.6334 C   0  0  0  0  0  0
  -16.7282  -28.6498   23.0353 C   0  0  0  0  0  0
  -26.4507  -31.6572   25.0729 C   0  0  0  0  0  0
  -25.3694  -31.3781   26.1438 C   0  0  0  0  0  0
  -27.0340  -30.2966   24.6273 C   0  0  0  0  0  0
  -27.6078  -32.4321   25.7478 C   0  0  0  0  0  0
  -27.5570  -37.1784   24.8452 C   0  0  0  0  0  0
  -21.4226  -29.3045   22.3637 N   0  0  0  0  0  0
  -26.4286  -37.3764   23.9408 N   0  0  0  0  0  0
  -24.7032  -31.0461   22.0908 N   0  0  0  0  0  0
  -23.4210  -28.8119   23.2990 O   0  0  0  0  0  0
  -28.3208  -26.3391   20.1499 O   0  0  0  0  0  0
  -26.5649  -34.8894   22.4657 O   0  0  0  0  0  0
  -23.5499  -32.1343   23.7222 O   0  0  0  0  0  0
  -28.8166  -20.7254   18.6626 C   0  0  0  0  0  0
  -28.9784  -19.4262   18.1610 C   0  0  0  0  0  0
  -29.0487  -20.9418   20.0272 C   0  0  0  0  0  0
  -29.5862  -18.6011   20.1994 C   0  0  0  0  0  0
  -30.1956  -17.3500   20.9793 C   0  0  0  0  0  0
  -28.7795  -23.6042   19.8842 C   0  0  0  0  0  0
  -28.1319  -24.9114   20.6244 C   0  0  0  0  0  0
  -29.3421  -18.3804   18.9120 N   0  0  0  0  0  0
  -29.4430  -19.8451   20.7791 N   0  0  0  0  0  0
  -28.7675  -19.1446   16.8218 N   0  0  0  0  0  0
  -28.8591  -22.2587   20.6140 N   0  0  0  0  0  0
  -29.8046  -15.8968   20.6831 N   0  0  0  0  0  0
  -31.4745  -12.6241   19.1517 H   0  0  0  0  0  0
  -30.4039  -11.5064   19.9546 H   0  0  0  0  0  0
  -29.7930  -11.7169   17.5254 H   0  0  0  0  0  0
  -29.6191  -13.4458   17.6947 H   0  0  0  0  0  0
  -27.9087  -11.2679   18.9321 H   0  0  0  0  0  0
  -27.3703  -12.4839   17.8037 H   0  0  0  0  0  0
  -27.6285  -14.2434   19.4504 H   0  0  0  0  0  0
  -28.7377  -12.1713   21.4093 H   0  0  0  0  0  0
  -28.4167  -13.8432   21.7898 H   0  0  0  0  0  0
  -25.2764   -9.5682   22.4765 H   0  0  0  0  0  0
  -24.0004   -7.4636   22.7467 H   0  0  0  0  0  0
  -21.0847   -8.8776   19.8954 H   0  0  0  0  0  0
  -22.3696  -10.9681   19.6185 H   0  0  0  0  0  0
  -21.1994   -7.6152   23.9710 H   0  0  0  0  0  0
  -21.1482   -6.0533   25.9072 H   0  0  0  0  0  0
  -22.0598   -2.7618   23.2839 H   0  0  0  0  0  0
  -22.4099  -11.9880   22.4821 H   0  0  0  0  0  0
  -21.1092  -13.1222   22.2627 H   0  0  0  0  0  0
  -24.6527  -15.8414   20.5284 H   0  0  0  0  0  0
  -26.2593  -15.6312   20.0565 H   0  0  0  0  0  0
  -26.7244  -32.5347   23.1050 H   0  0  0  0  0  0
  -25.0036  -33.9661   25.0330 H   0  0  0  0  0  0
  -22.7334  -31.2959   21.3843 H   0  0  0  0  0  0
  -23.3729  -35.9637   23.3311 H   0  0  0  0  0  0
  -24.3585  -36.8913   22.2055 H   0  0  0  0  0  0
  -23.7271  -37.6492   23.6674 H   0  0  0  0  0  0
  -26.1256  -31.5140   20.6023 H   0  0  0  0  0  0
  -26.8589  -30.8091   22.0116 H   0  0  0  0  0  0
  -28.1365  -28.9204   21.1878 H   0  0  0  0  0  0
  -25.9837  -25.8706   19.0307 H   0  0  0  0  0  0
  -23.9813  -27.2842   19.0130 H   0  0  0  0  0  0
  -23.7821  -30.5727   19.3984 H   0  0  0  0  0  0
  -22.7727  -29.2336   19.8515 H   0  0  0  0  0  0
  -25.1296  -36.1895   25.0797 H   0  0  0  0  0  0
  -21.0011  -28.3291   24.1372 H   0  0  0  0  0  0
  -20.5661  -26.2311   23.3635 H   0  0  0  0  0  0
  -21.6640  -26.7398   22.1213 H   0  0  0  0  0  0
  -19.6904  -25.6292   21.1240 H   0  0  0  0  0  0
  -19.6682  -27.3189   20.6754 H   0  0  0  0  0  0
  -17.4201  -26.6701   21.4014 H   0  0  0  0  0  0
  -18.0301  -26.0049   22.9002 H   0  0  0  0  0  0
  -19.7954  -30.7277   24.2247 H   0  0  0  0  0  0
  -17.5023  -31.6255   24.5177 H   0  0  0  0  0  0
  -15.5365  -30.2972   23.7656 H   0  0  0  0  0  0
  -15.8685  -28.0813   22.7058 H   0  0  0  0  0  0
  -24.5953  -30.6997   25.7829 H   0  0  0  0  0  0
  -24.8752  -32.2937   26.4693 H   0  0  0  0  0  0
  -25.7996  -30.9148   27.0328 H   0  0  0  0  0  0
  -26.2936  -29.6705   24.1271 H   0  0  0  0  0  0
  -27.3941  -29.7262   25.4848 H   0  0  0  0  0  0
  -27.8849  -30.4194   23.9573 H   0  0  0  0  0  0
  -27.2730  -33.3665   26.2003 H   0  0  0  0  0  0
  -28.3907  -32.6812   25.0299 H   0  0  0  0  0  0
  -28.0712  -31.8456   26.5422 H   0  0  0  0  0  0
  -28.2597  -38.0062   24.7487 H   0  0  0  0  0  0
  -28.1051  -36.2603   24.6295 H   0  0  0  0  0  0
  -27.2292  -37.1470   25.8850 H   0  0  0  0  0  0
  -20.9421  -29.8792   21.6851 H   0  0  0  0  0  0
  -26.0149  -38.2828   24.1414 H   0  0  0  0  0  0
  -28.5023  -21.5261   18.0122 H   0  0  0  0  0  0
  -29.9850  -17.5116   22.0365 H   0  0  0  0  0  0
  -31.2786  -17.4329   20.8926 H   0  0  0  0  0  0
  -29.8030  -23.8564   19.6057 H   0  0  0  0  0  0
  -28.2506  -23.4630   18.9432 H   0  0  0  0  0  0
  -28.5331  -24.9165   21.6384 H   0  0  0  0  0  0
  -27.0690  -24.7146   20.7632 H   0  0  0  0  0  0
  -28.8112  -19.9099   16.1607 H   0  0  0  0  0  0
  -29.1500  -18.2780   16.4631 H   0  0  0  0  0  0
  -29.0200  -22.3133   21.6147 H   0  0  0  0  0  0
  -28.8140  -15.7252   20.7463 H   0  0  0  0  0  0
  1 25  1  0  0  0
  1 30  2  0  0  0
  1 82  1  0  0  0
  2  3  1  0  0  0
  2 25  1  0  0  0
  2 83  1  0  0  0
  2 84  1  0  0  0
  3  4  1  0  0  0
  3 85  1  0  0  0
  3 86  1  0  0  0
  4  5  1  0  0  0
  4 87  1  0  0  0
  4 88  1  0  0  0
  5  6  1  0  0  0
  5 26  1  0  0  0
  5 89  1  0  0  0
  6 25  1  0  0  0
  6 90  1  0  0  0
  6 91  1  0  0  0
  7  8  2  0  0  0
  7 26  1  0  0  0
  7 29  1  0  0  0
  8  9  1  0  0  0
  8 22  1  0  0  0
  9 10  1  0  0  0
  9 27  2  0  0  0
 10 11  2  0  0  0
 10 15  1  0  0  0
 11 12  1  0  0  0
 11 92  1  0  0  0
 12 13  2  0  0  0
 12 93  1  0  0  0
 13 14  1  0  0  0
 13 31  1  0  0  0
 14 15  2  0  0  0
 14 94  1  0  0  0
 15 95  1  0  0  0
 16 17  2  0  0  0
 16 21  1  0  0  0
 16 31  1  0  0  0
 17 18  1  0  0  0
 17 96  1  0  0  0
 18 19  2  0  0  0
 18 97  1  0  0  0
 19 20  1  0  0  0
 19 24  1  0  0  0
 20 21  2  0  0  0
 20 98  1  0  0  0
 21 23  1  0  0  0
 22 28  1  0  0  0
 22 32  2  0  0  0
 26 27  1  0  0  0
 28 99  1  0  0  0
 28100  1  0  0  0
 29101  1  0  0  0
 29102  1  0  0  0
 33 34  1  0  0  0
 33 66  1  0  0  0
 33 70  2  0  0  0
 34 36  1  0  0  0
 34 59  1  0  0  0
 34103  1  0  0  0
 35 44  2  0  0  0
 35 45  1  0  0  0
 35 68  1  0  0  0
 36 56  1  0  0  0
 36104  1  0  0  0
 37 39  1  0  0  0
 37 47  1  0  0  0
 37 66  1  0  0  0
 37105  1  0  0  0
 38 43  2  0  0  0
 38 46  1  0  0  0
 38 47  1  0  0  0
 39 64  1  0  0  0
 39 67  2  0  0  0
 40 52  1  0  0  0
 40 53  2  0  0  0
 40 58  1  0  0  0
 41106  1  0  0  0
 41107  1  0  0  0
 41108  1  0  0  0
 41 48  1  0  0  0
 42 43  1  0  0  0
 42 66  1  0  0  0
 42109  1  0  0  0
 42110  1  0  0  0
 43 44  1  0  0  0
 44111  1  0  0  0
 45 46  2  0  0  0
 45112  1  0  0  0
 46113  1  0  0  0
 47114  1  0  0  0
 47115  1  0  0  0
 48 56  1  0  0  0
 48 65  1  0  0  0
 48116  1  0  0  0
 49 50  1  0  0  0
 49 53  1  0  0  0
 49 64  1  0  0  0
 49117  1  0  0  0
 50 51  1  0  0  0
 50118  1  0  0  0
 50119  1  0  0  0
 51 52  1  0  0  0
 51120  1  0  0  0
 51121  1  0  0  0
 52122  1  0  0  0
 52123  1  0  0  0
 53 54  1  0  0  0
 54 55  2  0  0  0
 54124  1  0  0  0
 55 57  1  0  0  0
 55125  1  0  0  0
 56 69  2  0  0  0
 57 58  2  0  0  0
 57126  1  0  0  0
 58127  1  0  0  0
 59 60  1  0  0  0
 59 61  1  0  0  0
 59 62  1  0  0  0
 60128  1  0  0  0
 60129  1  0  0  0
 60130  1  0  0  0
 61131  1  0  0  0
 61132  1  0  0  0
 61133  1  0  0  0
 62134  1  0  0  0
 62135  1  0  0  0
 62136  1  0  0  0
 63 65  1  0  0  0
 63137  1  0  0  0
 63138  1  0  0  0
 63139  1  0  0  0
 64140  1  0  0  0
 65141  1  0  0  0
 68 77  1  0  0  0
 71 72  2  0  0  0
 71 73  1  0  0  0
 71142  1  0  0  0
 72 78  1  0  0  0
 72 80  1  0  0  0
 73 79  2  0  0  0
 73 81  1  0  0  0
 74 75  1  0  0  0
 74 78  2  0  0  0
 74 79  1  0  0  0
 75 82  1  0  0  0
 75143  1  0  0  0
 75144  1  0  0  0
 76 77  1  0  0  0
 76 81  1  0  0  0
 76145  1  0  0  0
 76146  1  0  0  0
 77147  1  0  0  0
 77148  1  0  0  0
 80149  1  0  0  0
 80150  1  0  0  0
 81151  1  0  0  0
 82152  1  0  0  0
M  ISO  4   1 100  68 101  77 101  82 100
M  END
> <chiral flag>
0

> <version>
0

> <s_m_source_file>
/data/baiqing/PycharmProjects/Reinvent-master-3.2/result/LINK_invent/BTK/process_docking_weight1_custom_product_contain_oxygen_bond_distance_aromatic_linkinvent_7_9_3/rearranged_h_0196.sdf

> <i_m_source_file_index>
35

> <r_mmod_Potential_Energy-OPLS-2005>
-623.746032714844

> <r_mmod_Stretch_Energy-OPLS-2005>
128.052597045898

> <r_mmod_Bend_Energy-OPLS-2005>
184.238174438477

> <r_mmod_Torsional_Energy-OPLS-2005>
215.179214477539

> <r_mmod_Improper_Torsional_Energy-OPLS-2005>
7.96791744232178

> <r_mmod_Van_der_Waal_Energy-OPLS-2005>
141.368804931641

> <r_mmod_Electrostatic_Energy-OPLS-2005>
-1146.18395996094

> <r_mmod_Solvation_Energy-OPLS-2005>
-253.434677124023

> <b_mmod_Minimization_Converged-OPLS-2005>
0

> <r_mmod_RMS_Derivative-OPLS-2005>
1.99771881103516

$$$$
35
                    3D
 Structure written by MMmdl.
154163  0  0  1  0            999 V2000
  -30.6521  -14.5767   20.5381 C   0  0  0  0  0  0
  -30.4303  -12.3531   19.4601 C   0  0  0  0  0  0
  -29.5091  -12.5031   18.2293 C   0  0  0  0  0  0
  -28.0287  -12.3543   18.6344 C   0  0  0  0  0  0
  -27.6570  -13.2135   19.8734 C   0  0  2  0  0  0
  -28.6954  -13.0384   21.0041 C   0  0  0  0  0  0
  -25.2554  -13.8169   20.5684 C   0  0  0  0  0  0
  -24.1814  -13.0437   20.9183 C   0  0  0  0  0  0
  -24.6372  -11.6906   20.8717 C   0  0  0  0  0  0
  -23.9038  -10.4294   21.0396 C   0  0  0  0  0  0
  -24.3594   -9.4215   21.9179 C   0  0  0  0  0  0
  -23.6281   -8.2245   22.0749 C   0  0  0  0  0  0
  -22.4265   -8.0272   21.3544 C   0  0  0  0  0  0
  -21.9895   -9.0239   20.4641 C   0  0  0  0  0  0
  -22.7208  -10.2124   20.3051 C   0  0  0  0  0  0
  -21.6852   -6.0727   22.5274 C   0  0  0  0  0  0
  -21.4011   -6.5634   23.8207 C   0  0  0  0  0  0
  -21.3666   -5.6789   24.9172 C   0  0  0  0  0  0
  -21.6048   -4.3053   24.7225 C   0  0  0  0  0  0
  -21.8817   -3.8137   23.4346 C   0  0  0  0  0  0
  -21.9191   -4.6953   22.3399 C   0  0  0  0  0  0
  -22.7837  -13.5232   21.1864 C   0  0  0  0  0  0
  -22.1658   -4.2139   21.0978 F   0  0  0  0  0  0
  -21.5640   -3.4533   25.7739 F   0  0  0  0  0  0
  -30.0230  -13.3642   20.4544 N   0  0  0  0  0  0
  -26.2990  -12.9343   20.3338 N   0  0  0  0  0  0
  -25.9305  -11.6501   20.5748 N   0  0  0  0  0  0
  -22.0481  -12.8215   22.0415 N   0  0  0  0  0  0
  -25.4286  -15.1888   20.4107 N   0  0  0  0  0  0
  -31.7917  -14.7399   20.0887 O   0  0  0  0  0  0
  -21.6636   -6.8861   21.4234 O   0  0  0  0  0  0
  -22.3523  -14.5549   20.6733 O   0  0  0  0  0  0
  -24.6209  -31.8616   23.2061 C   0  0  0  0  0  0
  -25.9070  -32.4793   23.8363 C   0  0  1  0  0  0
  -27.2287  -27.3755   20.0973 C   0  0  0  0  0  0
  -25.5895  -33.8597   24.2301 N   0  0  0  0  0  0
  -23.4130  -30.4853   21.5482 C   0  0  2  0  0  0
  -24.8613  -28.9455   20.1106 C   0  0  0  0  0  0
  -22.7446  -29.4636   22.4965 C   0  0  0  0  0  0
  -18.0286  -28.1386   22.8501 C   0  0  0  0  0  0
  -24.1488  -36.7299   23.2643 C   0  0  0  0  0  0
  -25.9485  -30.8081   21.3681 C   0  0  0  0  0  0
  -26.0279  -29.4397   20.7104 C   0  0  0  0  0  0
  -27.2190  -28.6633   20.6986 C   0  0  0  0  0  0
  -26.0478  -26.9127   19.4837 C   0  0  0  0  0  0
  -24.8687  -27.6831   19.4922 C   0  0  0  0  0  0
  -23.6250  -29.8175   20.1636 C   0  0  0  0  0  0
  -25.4107  -36.3096   24.0342 C   0  0  1  0  0  0
  -20.5882  -28.3675   23.1310 C   0  0  2  0  0  0
  -20.6787  -26.9402   22.5427 C   0  0  0  0  0  0
  -19.5756  -26.6387   21.5229 C   0  0  0  0  0  0
  -18.1932  -26.7940   22.1628 C   0  0  0  0  0  0
  -19.1543  -28.8850   23.2904 C   0  0  0  0  0  0
  -18.9461  -30.1461   23.8903 C   0  0  0  0  0  0
  -17.6463  -30.6597   24.0575 C   0  0  0  0  0  0
  -25.9034  -34.9462   23.5117 C   0  0  0  0  0  0
  -16.5345  -29.9097   23.6333 C   0  0  0  0  0  0
  -16.7277  -28.6520   23.0344 C   0  0  0  0  0  0
  -26.4464  -31.6589   25.0716 C   0  0  0  0  0  0
  -25.3712  -31.3742   26.1461 C   0  0  0  0  0  0
  -27.0285  -30.3017   24.6123 C   0  0  0  0  0  0
  -27.6038  -32.4309   25.7478 C   0  0  0  0  0  0
  -27.5581  -37.1804   24.8468 C   0  0  0  0  0  0
  -21.4166  -29.3033   22.3711 N   0  0  0  0  0  0
  -26.4292  -37.3781   23.9418 N   0  0  0  0  0  0
  -24.6800  -31.0659   22.0993 N   0  0  0  0  0  0
  -23.4192  -28.8166   23.3021 O   0  0  0  0  0  0
  -28.3291  -26.5275   20.1138 O   0  0  0  0  0  0
  -26.5596  -34.8928   22.4687 O   0  0  0  0  0  0
  -23.5380  -32.1394   23.7416 O   0  0  0  0  0  0
  -29.6123  -19.4690   20.6111 C   0  0  0  0  0  0
  -29.9715  -17.0219   20.8113 C   0  0  0  0  0  0
  -30.2319  -21.9118   21.2851 C   0  0  0  0  0  0
  -28.7201  -23.4757   19.3014 C   0  0  0  0  0  0
  -29.1829  -20.9492   20.6927 C   0  0  1  0  0  0
  -28.5428  -23.9156   20.7711 C   0  0  1  0  0  0
  -29.6906  -23.3300   21.6621 C   0  0  1  0  0  0
  -28.2124  -25.4439   21.0833 C   0  0  0  0  0  0
  -30.5637  -18.9908   19.7831 N   0  0  0  0  0  0
  -30.7717  -17.6014   19.8982 N   0  0  0  0  0  0
  -29.9140  -15.5957   21.0556 N   0  0  0  0  0  0
  -29.2440  -23.2664   23.0081 O   0  0  0  0  0  0
  -28.9127  -18.1885   21.6354 S   0  0  0  0  0  0
  -28.6205  -21.6340   19.0782 S   0  0  0  0  0  0
  -31.4775  -12.4540   19.1694 H   0  0  0  0  0  0
  -30.3368  -11.3530   19.8860 H   0  0  0  0  0  0
  -29.7654  -11.7566   17.4766 H   0  0  0  0  0  0
  -29.6699  -13.4768   17.7639 H   0  0  0  0  0  0
  -27.8528  -11.2996   18.8514 H   0  0  0  0  0  0
  -27.3799  -12.6017   17.7933 H   0  0  0  0  0  0
  -27.6867  -14.2547   19.5514 H   0  0  0  0  0  0
  -28.6887  -12.0103   21.3698 H   0  0  0  0  0  0
  -28.4401  -13.6545   21.8664 H   0  0  0  0  0  0
  -25.2743   -9.5701   22.4750 H   0  0  0  0  0  0
  -23.9998   -7.4637   22.7469 H   0  0  0  0  0  0
  -21.0831   -8.8741   19.8943 H   0  0  0  0  0  0
  -22.3657  -10.9658   19.6155 H   0  0  0  0  0  0
  -21.1993   -7.6139   23.9705 H   0  0  0  0  0  0
  -21.1501   -6.0522   25.9077 H   0  0  0  0  0  0
  -22.0591   -2.7597   23.2843 H   0  0  0  0  0  0
  -22.4083  -11.9861   22.4784 H   0  0  0  0  0  0
  -21.1106  -13.1243   22.2643 H   0  0  0  0  0  0
  -24.6597  -15.8432   20.5112 H   0  0  0  0  0  0
  -26.2770  -15.6263   20.0757 H   0  0  0  0  0  0
  -26.7132  -32.5469   23.1111 H   0  0  0  0  0  0
  -25.0064  -33.9745   25.0452 H   0  0  0  0  0  0
  -22.7055  -31.3054   21.4064 H   0  0  0  0  0  0
  -23.3756  -35.9622   23.3306 H   0  0  0  0  0  0
  -24.3587  -36.8907   22.2056 H   0  0  0  0  0  0
  -23.7232  -37.6505   23.6649 H   0  0  0  0  0  0
  -26.0683  -31.5743   20.6010 H   0  0  0  0  0  0
  -26.8346  -30.8584   21.9912 H   0  0  0  0  0  0
  -28.1171  -29.0364   21.1711 H   0  0  0  0  0  0
  -26.0384  -25.9375   19.0165 H   0  0  0  0  0  0
  -23.9722  -27.2963   19.0264 H   0  0  0  0  0  0
  -23.7395  -30.5949   19.4065 H   0  0  0  0  0  0
  -22.7462  -29.2421   19.8649 H   0  0  0  0  0  0
  -25.1290  -36.1948   25.0832 H   0  0  0  0  0  0
  -20.9959  -28.3224   24.1433 H   0  0  0  0  0  0
  -20.5699  -26.2262   23.3607 H   0  0  0  0  0  0
  -21.6650  -26.7448   22.1196 H   0  0  0  0  0  0
  -19.6917  -25.6297   21.1249 H   0  0  0  0  0  0
  -19.6715  -27.3216   20.6778 H   0  0  0  0  0  0
  -17.4211  -26.6701   21.4024 H   0  0  0  0  0  0
  -18.0313  -26.0092   22.9020 H   0  0  0  0  0  0
  -19.7936  -30.7293   24.2251 H   0  0  0  0  0  0
  -17.5018  -31.6282   24.5170 H   0  0  0  0  0  0
  -15.5351  -30.2997   23.7686 H   0  0  0  0  0  0
  -15.8670  -28.0864   22.7017 H   0  0  0  0  0  0
  -24.5874  -30.7096   25.7813 H   0  0  0  0  0  0
  -24.8917  -32.2921   26.4868 H   0  0  0  0  0  0
  -25.8043  -30.8938   27.0239 H   0  0  0  0  0  0
  -26.2844  -29.6797   24.1139 H   0  0  0  0  0  0
  -27.4005  -29.7239   25.4587 H   0  0  0  0  0  0
  -27.8696  -30.4340   23.9320 H   0  0  0  0  0  0
  -27.2664  -33.3622   26.2045 H   0  0  0  0  0  0
  -28.3848  -32.6838   25.0295 H   0  0  0  0  0  0
  -28.0692  -31.8430   26.5400 H   0  0  0  0  0  0
  -28.2592  -38.0103   24.7500 H   0  0  0  0  0  0
  -28.1074  -36.2630   24.6294 H   0  0  0  0  0  0
  -27.2303  -37.1454   25.8873 H   0  0  0  0  0  0
  -20.9330  -29.8740   21.6929 H   0  0  0  0  0  0
  -26.0177  -38.2858   24.1417 H   0  0  0  0  0  0
  -31.0369  -22.0216   20.5571 H   0  0  0  0  0  0
  -30.7037  -21.4530   22.1559 H   0  0  0  0  0  0
  -29.6799  -23.8293   18.9235 H   0  0  0  0  0  0
  -27.9551  -23.9314   18.6721 H   0  0  0  0  0  0
  -28.3172  -20.9742   21.3554 H   0  0  0  0  0  0
  -27.6347  -23.3904   21.0739 H   0  0  0  0  0  0
  -30.5396  -24.0160   21.6294 H   0  0  0  0  0  0
  -28.8366  -25.7603   21.9198 H   0  0  0  0  0  0
  -27.2079  -25.4513   21.5132 H   0  0  0  0  0  0
  -29.0916  -15.2925   21.5516 H   0  0  0  0  0  0
  -29.1188  -24.1562   23.3243 H   0  0  0  0  0  0
  1 25  1  0  0  0
  1 30  2  0  0  0
  1 81  1  0  0  0
  2  3  1  0  0  0
  2 25  1  0  0  0
  2 85  1  0  0  0
  2 86  1  0  0  0
  3  4  1  0  0  0
  3 87  1  0  0  0
  3 88  1  0  0  0
  4  5  1  0  0  0
  4 89  1  0  0  0
  4 90  1  0  0  0
  5  6  1  0  0  0
  5 26  1  0  0  0
  5 91  1  0  0  0
  6 25  1  0  0  0
  6 92  1  0  0  0
  6 93  1  0  0  0
  7  8  2  0  0  0
  7 26  1  0  0  0
  7 29  1  0  0  0
  8  9  1  0  0  0
  8 22  1  0  0  0
  9 10  1  0  0  0
  9 27  2  0  0  0
 10 11  2  0  0  0
 10 15  1  0  0  0
 11 12  1  0  0  0
 11 94  1  0  0  0
 12 13  2  0  0  0
 12 95  1  0  0  0
 13 14  1  0  0  0
 13 31  1  0  0  0
 14 15  2  0  0  0
 14 96  1  0  0  0
 15 97  1  0  0  0
 16 17  2  0  0  0
 16 21  1  0  0  0
 16 31  1  0  0  0
 17 18  1  0  0  0
 17 98  1  0  0  0
 18 19  2  0  0  0
 18 99  1  0  0  0
 19 20  1  0  0  0
 19 24  1  0  0  0
 20 21  2  0  0  0
 20100  1  0  0  0
 21 23  1  0  0  0
 22 28  1  0  0  0
 22 32  2  0  0  0
 26 27  1  0  0  0
 28101  1  0  0  0
 28102  1  0  0  0
 29103  1  0  0  0
 29104  1  0  0  0
 33 34  1  0  0  0
 33 66  1  0  0  0
 33 70  2  0  0  0
 34 36  1  0  0  0
 34 59  1  0  0  0
 34105  1  0  0  0
 35 44  2  0  0  0
 35 45  1  0  0  0
 35 68  1  0  0  0
 36 56  1  0  0  0
 36106  1  0  0  0
 37 39  1  0  0  0
 37 47  1  0  0  0
 37 66  1  0  0  0
 37107  1  0  0  0
 38 43  2  0  0  0
 38 46  1  0  0  0
 38 47  1  0  0  0
 39 64  1  0  0  0
 39 67  2  0  0  0
 40 52  1  0  0  0
 40 53  2  0  0  0
 40 58  1  0  0  0
 41108  1  0  0  0
 41109  1  0  0  0
 41110  1  0  0  0
 41 48  1  0  0  0
 42 43  1  0  0  0
 42 66  1  0  0  0
 42111  1  0  0  0
 42112  1  0  0  0
 43 44  1  0  0  0
 44113  1  0  0  0
 45 46  2  0  0  0
 45114  1  0  0  0
 46115  1  0  0  0
 47116  1  0  0  0
 47117  1  0  0  0
 48 56  1  0  0  0
 48 65  1  0  0  0
 48118  1  0  0  0
 49 50  1  0  0  0
 49 53  1  0  0  0
 49 64  1  0  0  0
 49119  1  0  0  0
 50 51  1  0  0  0
 50120  1  0  0  0
 50121  1  0  0  0
 51 52  1  0  0  0
 51122  1  0  0  0
 51123  1  0  0  0
 52124  1  0  0  0
 52125  1  0  0  0
 53 54  1  0  0  0
 54 55  2  0  0  0
 54126  1  0  0  0
 55 57  1  0  0  0
 55127  1  0  0  0
 56 69  2  0  0  0
 57 58  2  0  0  0
 57128  1  0  0  0
 58129  1  0  0  0
 59 60  1  0  0  0
 59 61  1  0  0  0
 59 62  1  0  0  0
 60130  1  0  0  0
 60131  1  0  0  0
 60132  1  0  0  0
 61133  1  0  0  0
 61134  1  0  0  0
 61135  1  0  0  0
 62136  1  0  0  0
 62137  1  0  0  0
 62138  1  0  0  0
 63 65  1  0  0  0
 63139  1  0  0  0
 63140  1  0  0  0
 63141  1  0  0  0
 64142  1  0  0  0
 65143  1  0  0  0
 68 78  1  0  0  0
 71 79  2  0  0  0
 71 83  1  0  0  0
 71 75  1  0  0  0
 72 80  2  0  0  0
 72 81  1  0  0  0
 72 83  1  0  0  0
 73 75  1  0  0  0
 73 77  1  0  0  0
 73144  1  0  0  0
 73145  1  0  0  0
 74 76  1  0  0  0
 74 84  1  0  0  0
 74146  1  0  0  0
 74147  1  0  0  0
 75 84  1  0  0  0
 75148  1  0  0  0
 76 77  1  0  0  0
 76 78  1  0  0  0
 76149  1  0  0  0
 77 82  1  0  0  0
 77150  1  0  0  0
 78151  1  0  0  0
 78152  1  0  0  0
 79 80  1  0  0  0
 81153  1  0  0  0
 82154  1  0  0  0
M  ISO  4   1 100  68 101  78 101  81 100
M  END
> <chiral flag>
0

> <version>
0

> <s_m_source_file>
/data/baiqing/PycharmProjects/Reinvent-master-3.2/result/LINK_invent/BTK/process_docking_weight1_custom_product_contain_oxygen_bond_distance_aromatic_linkinvent_7_9_3/rearranged_h_0196.sdf

> <i_m_source_file_index>
36

> <r_mmod_Potential_Energy-OPLS-2005>
-19.6727771759033

> <r_mmod_Stretch_Energy-OPLS-2005>
58.3792762756348

> <r_mmod_Bend_Energy-OPLS-2005>
138.677291870117

> <r_mmod_Torsional_Energy-OPLS-2005>
261.833343505859

> <r_mmod_Improper_Torsional_Energy-OPLS-2005>
3.19042372703552

> <r_mmod_Van_der_Waal_Energy-OPLS-2005>
123.076484680176

> <r_mmod_Electrostatic_Energy-OPLS-2005>
-375.008178710938

> <r_mmod_Solvation_Energy-OPLS-2005>
-260.098693847656

> <b_mmod_Minimization_Converged-OPLS-2005>
0

> <r_mmod_RMS_Derivative-OPLS-2005>
2.12806797027588

$$$$
36
                    3D
 Structure written by MMmdl.
171179  0  0  1  0            999 V2000
  -30.6022  -14.6643   20.5583 C   0  0  0  0  0  0
  -30.4434  -12.4177   19.4713 C   0  0  0  0  0  0
  -29.5111  -12.5021   18.2414 C   0  0  0  0  0  0
  -28.0356  -12.3273   18.6524 C   0  0  0  0  0  0
  -27.6499  -13.2081   19.8684 C   0  0  2  0  0  0
  -28.6846  -13.0619   21.0063 C   0  0  0  0  0  0
  -25.2540  -13.8142   20.5672 C   0  0  0  0  0  0
  -24.1802  -13.0422   20.9218 C   0  0  0  0  0  0
  -24.6364  -11.6890   20.8755 C   0  0  0  0  0  0
  -23.9044  -10.4281   21.0414 C   0  0  0  0  0  0
  -24.3611   -9.4211   21.9201 C   0  0  0  0  0  0
  -23.6284   -8.2238   22.0761 C   0  0  0  0  0  0
  -22.4269   -8.0268   21.3545 C   0  0  0  0  0  0
  -21.9893   -9.0244   20.4654 C   0  0  0  0  0  0
  -22.7210  -10.2136   20.3064 C   0  0  0  0  0  0
  -21.6842   -6.0732   22.5282 C   0  0  0  0  0  0
  -21.4002   -6.5645   23.8217 C   0  0  0  0  0  0
  -21.3660   -5.6796   24.9181 C   0  0  0  0  0  0
  -21.6045   -4.3058   24.7222 C   0  0  0  0  0  0
  -21.8823   -3.8144   23.4342 C   0  0  0  0  0  0
  -21.9192   -4.6962   22.3396 C   0  0  0  0  0  0
  -22.7836  -13.5241   21.1866 C   0  0  0  0  0  0
  -22.1662   -4.2144   21.0976 F   0  0  0  0  0  0
  -21.5634   -3.4545   25.7736 F   0  0  0  0  0  0
  -30.0059  -13.4258   20.4634 N   0  0  0  0  0  0
  -26.2952  -12.9311   20.3303 N   0  0  0  0  0  0
  -25.9286  -11.6499   20.5771 N   0  0  0  0  0  0
  -22.0477  -12.8227   22.0425 N   0  0  0  0  0  0
  -25.4299  -15.1850   20.4049 N   0  0  0  0  0  0
  -31.7353  -14.8493   20.0826 O   0  0  0  0  0  0
  -21.6630   -6.8858   21.4242 O   0  0  0  0  0  0
  -22.3530  -14.5569   20.6734 O   0  0  0  0  0  0
  -24.6237  -31.8605   23.2009 C   0  0  0  0  0  0
  -25.9087  -32.4781   23.8340 C   0  0  1  0  0  0
  -27.2402  -27.3483   20.1256 C   0  0  0  0  0  0
  -25.5904  -33.8580   24.2274 N   0  0  0  0  0  0
  -23.4170  -30.4811   21.5444 C   0  0  2  0  0  0
  -24.8655  -28.9264   20.1189 C   0  0  0  0  0  0
  -22.7459  -29.4627   22.4974 C   0  0  0  0  0  0
  -18.0280  -28.1393   22.8497 C   0  0  0  0  0  0
  -24.1491  -36.7282   23.2647 C   0  0  0  0  0  0
  -25.9525  -30.7994   21.3655 C   0  0  0  0  0  0
  -26.0302  -29.4262   20.7173 C   0  0  0  0  0  0
  -27.2197  -28.6468   20.7116 C   0  0  0  0  0  0
  -26.0549  -26.8808   19.5186 C   0  0  0  0  0  0
  -24.8778  -27.6573   19.5132 C   0  0  0  0  0  0
  -23.6311  -29.8040   20.1636 C   0  0  0  0  0  0
  -25.4109  -36.3076   24.0346 C   0  0  1  0  0  0
  -20.5873  -28.3679   23.1286 C   0  0  2  0  0  0
  -20.6776  -26.9404   22.5405 C   0  0  0  0  0  0
  -19.5754  -26.6389   21.5207 C   0  0  0  0  0  0
  -18.1935  -26.7938   22.1623 C   0  0  0  0  0  0
  -19.1535  -28.8847   23.2893 C   0  0  0  0  0  0
  -18.9484  -30.1455   23.8899 C   0  0  0  0  0  0
  -17.6475  -30.6580   24.0567 C   0  0  0  0  0  0
  -25.9014  -34.9444   23.5116 C   0  0  0  0  0  0
  -16.5354  -29.9093   23.6339 C   0  0  0  0  0  0
  -16.7256  -28.6517   23.0346 C   0  0  0  0  0  0
  -26.4483  -31.6583   25.0693 C   0  0  0  0  0  0
  -25.3744  -31.3755   26.1450 C   0  0  0  0  0  0
  -27.0290  -30.3006   24.6112 C   0  0  0  0  0  0
  -27.6061  -32.4309   25.7456 C   0  0  0  0  0  0
  -27.5570  -37.1791   24.8466 C   0  0  0  0  0  0
  -21.4169  -29.3044   22.3717 N   0  0  0  0  0  0
  -26.4279  -37.3763   23.9419 N   0  0  0  0  0  0
  -24.6837  -31.0616   22.0960 N   0  0  0  0  0  0
  -23.4195  -28.8152   23.3043 O   0  0  0  0  0  0
  -28.3827  -26.5479   20.1044 O   0  0  0  0  0  0
  -26.5602  -34.8937   22.4679 O   0  0  0  0  0  0
  -23.5401  -32.1368   23.7331 O   0  0  0  0  0  0
  -28.9855  -17.9629   21.7800 C   0  0  0  0  0  0
  -30.3077  -19.1693   19.6975 C   0  0  0  0  0  0
  -28.8798  -19.3885   21.6200 C   0  0  0  0  0  0
  -29.5340  -20.0347   20.5219 C   0  0  0  0  0  0
  -29.7882  -17.1395   20.9287 C   0  0  0  0  0  0
  -29.0731  -22.6209   20.7455 C   0  0  0  0  0  0
  -25.0353  -23.0981   23.7884 C   0  0  0  0  0  0
  -24.6078  -20.9971   22.4587 C   0  0  0  0  0  0
  -28.1663  -19.2740   24.7830 C   0  0  0  0  0  0
  -28.9224  -23.9705   19.9341 C   0  0  0  0  0  0
  -26.5327  -21.0637   24.1513 C   0  0  0  0  0  0
  -28.3053  -25.2109   20.7125 C   0  0  0  0  0  0
  -25.6796  -21.8622   23.1322 C   0  0  0  0  0  0
  -27.3089  -19.8205   23.6297 C   0  0  1  0  0  0
  -30.4144  -17.8193   19.9229 N   0  3  0  0  0  0
  -29.4072  -21.4497   20.1065 N   0  0  0  0  0  0
  -28.1412  -20.1991   22.4989 N   0  0  0  0  0  0
  -29.8459  -15.6732   21.1188 N   0  0  0  0  0  0
  -28.9276  -22.6747   21.9651 O   0  0  0  0  0  0
  -31.4785  -12.5647   19.1664 H   0  0  0  0  0  0
  -30.4117  -11.4230   19.9134 H   0  0  0  0  0  0
  -29.7832  -11.7360   17.5148 H   0  0  0  0  0  0
  -29.6408  -13.4620   17.7384 H   0  0  0  0  0  0
  -27.8887  -11.2749   18.9014 H   0  0  0  0  0  0
  -27.3759  -12.5330   17.8079 H   0  0  0  0  0  0
  -27.6694  -14.2404   19.5218 H   0  0  0  0  0  0
  -28.7036  -12.0345   21.3741 H   0  0  0  0  0  0
  -28.4018  -13.6681   21.8682 H   0  0  0  0  0  0
  -25.2755   -9.5683   22.4782 H   0  0  0  0  0  0
  -23.9999   -7.4617   22.7468 H   0  0  0  0  0  0
  -21.0829   -8.8756   19.8938 H   0  0  0  0  0  0
  -22.3667  -10.9684   19.6174 H   0  0  0  0  0  0
  -21.1990   -7.6145   23.9712 H   0  0  0  0  0  0
  -21.1477   -6.0526   25.9082 H   0  0  0  0  0  0
  -22.0603   -2.7600   23.2846 H   0  0  0  0  0  0
  -22.4082  -11.9864   22.4775 H   0  0  0  0  0  0
  -21.1108  -13.1274   22.2662 H   0  0  0  0  0  0
  -24.6538  -15.8327   20.4872 H   0  0  0  0  0  0
  -26.2419  -15.6065   19.9729 H   0  0  0  0  0  0
  -26.7144  -32.5444   23.1069 H   0  0  0  0  0  0
  -25.0074  -33.9747   25.0448 H   0  0  0  0  0  0
  -22.7107  -31.3001   21.3909 H   0  0  0  0  0  0
  -23.3744  -35.9607   23.3294 H   0  0  0  0  0  0
  -24.3585  -36.8892   22.2050 H   0  0  0  0  0  0
  -23.7251  -37.6500   23.6651 H   0  0  0  0  0  0
  -26.0730  -31.5589   20.5923 H   0  0  0  0  0  0
  -26.8388  -30.8552   21.9864 H   0  0  0  0  0  0
  -28.1185  -29.0312   21.1730 H   0  0  0  0  0  0
  -26.0416  -25.9068   19.0491 H   0  0  0  0  0  0
  -23.9841  -27.2658   19.0461 H   0  0  0  0  0  0
  -23.7507  -30.5716   19.3993 H   0  0  0  0  0  0
  -22.7544  -29.2267   19.8646 H   0  0  0  0  0  0
  -25.1288  -36.1910   25.0834 H   0  0  0  0  0  0
  -20.9966  -28.3224   24.1394 H   0  0  0  0  0  0
  -20.5683  -26.2274   23.3612 H   0  0  0  0  0  0
  -21.6650  -26.7446   22.1200 H   0  0  0  0  0  0
  -19.6948  -25.6302   21.1237 H   0  0  0  0  0  0
  -19.6701  -27.3214   20.6749 H   0  0  0  0  0  0
  -17.4220  -26.6664   21.4023 H   0  0  0  0  0  0
  -18.0315  -26.0073   22.9010 H   0  0  0  0  0  0
  -19.7971  -30.7277   24.2258 H   0  0  0  0  0  0
  -17.5044  -31.6279   24.5152 H   0  0  0  0  0  0
  -15.5364  -30.3002   23.7697 H   0  0  0  0  0  0
  -15.8648  -28.0850   22.7049 H   0  0  0  0  0  0
  -24.5846  -30.7188   25.7784 H   0  0  0  0  0  0
  -24.9045  -32.2954   26.4940 H   0  0  0  0  0  0
  -25.8077  -30.8862   27.0186 H   0  0  0  0  0  0
  -26.2823  -29.6782   24.1164 H   0  0  0  0  0  0
  -27.4020  -29.7229   25.4580 H   0  0  0  0  0  0
  -27.8676  -30.4282   23.9267 H   0  0  0  0  0  0
  -27.2679  -33.3617   26.2028 H   0  0  0  0  0  0
  -28.3869  -32.6870   25.0278 H   0  0  0  0  0  0
  -28.0720  -31.8439   26.5384 H   0  0  0  0  0  0
  -28.2583  -38.0098   24.7512 H   0  0  0  0  0  0
  -28.1092  -36.2632   24.6275 H   0  0  0  0  0  0
  -27.2315  -37.1400   25.8883 H   0  0  0  0  0  0
  -20.9336  -29.8718   21.6888 H   0  0  0  0  0  0
  -26.0160  -38.2835   24.1438 H   0  0  0  0  0  0
  -28.4341  -17.4808   22.5720 H   0  0  0  0  0  0
  -30.8428  -19.5324   18.8288 H   0  0  0  0  0  0
  -24.4938  -23.6981   23.0559 H   0  0  0  0  0  0
  -25.7839  -23.7474   24.2438 H   0  0  0  0  0  0
  -24.3262  -22.8145   24.5674 H   0  0  0  0  0  0
  -23.9866  -21.5892   21.7872 H   0  0  0  0  0  0
  -23.9518  -20.5351   23.1955 H   0  0  0  0  0  0
  -25.0584  -20.2031   21.8653 H   0  0  0  0  0  0
  -27.5378  -18.9226   25.6031 H   0  0  0  0  0  0
  -28.8193  -20.0538   25.1779 H   0  0  0  0  0  0
  -28.8072  -18.4467   24.4882 H   0  0  0  0  0  0
  -28.3322  -23.7849   19.0367 H   0  0  0  0  0  0
  -29.9157  -24.2487   19.5810 H   0  0  0  0  0  0
  -25.8860  -20.7543   24.9748 H   0  0  0  0  0  0
  -27.2510  -21.7574   24.5945 H   0  0  0  0  0  0
  -28.8489  -25.3071   21.6512 H   0  0  0  0  0  0
  -27.2825  -24.9710   21.0054 H   0  0  0  0  0  0
  -26.3370  -22.2381   22.3465 H   0  0  0  0  0  0
  -26.5949  -19.0593   23.3108 H   0  0  0  0  0  0
  -30.9890  -17.2847   19.2590 H   0  0  0  0  0  0
  -29.6403  -21.5977   19.1359 H   0  0  0  0  0  0
  -28.3484  -21.2007   22.4000 H   0  0  0  0  0  0
  -29.0905  -15.2977   21.6653 H   0  0  0  0  0  0
  1 25  1  0  0  0
  1 30  2  0  0  0
  1 88  1  0  0  0
  2  3  1  0  0  0
  2 25  1  0  0  0
  2 90  1  0  0  0
  2 91  1  0  0  0
  3  4  1  0  0  0
  3 92  1  0  0  0
  3 93  1  0  0  0
  4  5  1  0  0  0
  4 94  1  0  0  0
  4 95  1  0  0  0
  5  6  1  0  0  0
  5 26  1  0  0  0
  5 96  1  0  0  0
  6 25  1  0  0  0
  6 97  1  0  0  0
  6 98  1  0  0  0
  7  8  2  0  0  0
  7 26  1  0  0  0
  7 29  1  0  0  0
  8  9  1  0  0  0
  8 22  1  0  0  0
  9 10  1  0  0  0
  9 27  2  0  0  0
 10 11  2  0  0  0
 10 15  1  0  0  0
 11 12  1  0  0  0
 11 99  1  0  0  0
 12 13  2  0  0  0
 12100  1  0  0  0
 13 14  1  0  0  0
 13 31  1  0  0  0
 14 15  2  0  0  0
 14101  1  0  0  0
 15102  1  0  0  0
 16 17  2  0  0  0
 16 21  1  0  0  0
 16 31  1  0  0  0
 17 18  1  0  0  0
 17103  1  0  0  0
 18 19  2  0  0  0
 18104  1  0  0  0
 19 20  1  0  0  0
 19 24  1  0  0  0
 20 21  2  0  0  0
 20105  1  0  0  0
 21 23  1  0  0  0
 22 28  1  0  0  0
 22 32  2  0  0  0
 26 27  1  0  0  0
 28106  1  0  0  0
 28107  1  0  0  0
 29108  1  0  0  0
 29109  1  0  0  0
 33 34  1  0  0  0
 33 66  1  0  0  0
 33 70  2  0  0  0
 34 36  1  0  0  0
 34 59  1  0  0  0
 34110  1  0  0  0
 35 44  2  0  0  0
 35 45  1  0  0  0
 35 68  1  0  0  0
 36 56  1  0  0  0
 36111  1  0  0  0
 37 39  1  0  0  0
 37 47  1  0  0  0
 37 66  1  0  0  0
 37112  1  0  0  0
 38 43  2  0  0  0
 38 46  1  0  0  0
 38 47  1  0  0  0
 39 64  1  0  0  0
 39 67  2  0  0  0
 40 52  1  0  0  0
 40 53  2  0  0  0
 40 58  1  0  0  0
 41113  1  0  0  0
 41114  1  0  0  0
 41115  1  0  0  0
 41 48  1  0  0  0
 42 43  1  0  0  0
 42 66  1  0  0  0
 42116  1  0  0  0
 42117  1  0  0  0
 43 44  1  0  0  0
 44118  1  0  0  0
 45 46  2  0  0  0
 45119  1  0  0  0
 46120  1  0  0  0
 47121  1  0  0  0
 47122  1  0  0  0
 48 56  1  0  0  0
 48 65  1  0  0  0
 48123  1  0  0  0
 49 50  1  0  0  0
 49 53  1  0  0  0
 49 64  1  0  0  0
 49124  1  0  0  0
 50 51  1  0  0  0
 50125  1  0  0  0
 50126  1  0  0  0
 51 52  1  0  0  0
 51127  1  0  0  0
 51128  1  0  0  0
 52129  1  0  0  0
 52130  1  0  0  0
 53 54  1  0  0  0
 54 55  2  0  0  0
 54131  1  0  0  0
 55 57  1  0  0  0
 55132  1  0  0  0
 56 69  2  0  0  0
 57 58  2  0  0  0
 57133  1  0  0  0
 58134  1  0  0  0
 59 60  1  0  0  0
 59 61  1  0  0  0
 59 62  1  0  0  0
 60135  1  0  0  0
 60136  1  0  0  0
 60137  1  0  0  0
 61138  1  0  0  0
 61139  1  0  0  0
 61140  1  0  0  0
 62141  1  0  0  0
 62142  1  0  0  0
 62143  1  0  0  0
 63 65  1  0  0  0
 63144  1  0  0  0
 63145  1  0  0  0
 63146  1  0  0  0
 64147  1  0  0  0
 65148  1  0  0  0
 68 82  1  0  0  0
 71 73  2  0  0  0
 71 75  1  0  0  0
 71149  1  0  0  0
 72 74  2  0  0  0
 72 85  1  0  0  0
 72150  1  0  0  0
 73 74  1  0  0  0
 73 87  1  0  0  0
 74 86  1  0  0  0
 75 85  2  0  0  0
 75 88  1  0  0  0
 76 80  1  0  0  0
 76 86  1  0  0  0
 76 89  2  0  0  0
 77151  1  0  0  0
 77152  1  0  0  0
 77153  1  0  0  0
 77 83  1  0  0  0
 78 83  1  0  0  0
 78154  1  0  0  0
 78155  1  0  0  0
 78156  1  0  0  0
 79157  1  0  0  0
 79158  1  0  0  0
 79159  1  0  0  0
 79 84  1  0  0  0
 80 82  1  0  0  0
 80160  1  0  0  0
 80161  1  0  0  0
 81 83  1  0  0  0
 81 84  1  0  0  0
 81162  1  0  0  0
 81163  1  0  0  0
 82164  1  0  0  0
 82165  1  0  0  0
 83166  1  0  0  0
 84 87  1  0  0  0
 84167  1  0  0  0
 85168  1  0  0  0
 86169  1  0  0  0
 87170  1  0  0  0
 88171  1  0  0  0
M  CHG  1  85   1
M  ISO  4   1 100  68 101  82 101  88 100
M  END
> <chiral flag>
0

> <version>
0

> <s_m_source_file>
/data/baiqing/PycharmProjects/Reinvent-master-3.2/result/LINK_invent/BTK/process_docking_weight1_custom_product_contain_oxygen_bond_distance_aromatic_linkinvent_7_9_3/rearranged_h_0196.sdf

> <i_m_source_file_index>
37

> <r_mmod_Potential_Energy-OPLS-2005>
-22.7079467773438

> <r_mmod_Stretch_Energy-OPLS-2005>
88.9451904296875

> <r_mmod_Bend_Energy-OPLS-2005>
185.455825805664

> <r_mmod_Torsional_Energy-OPLS-2005>
241.571685791016

> <r_mmod_Improper_Torsional_Energy-OPLS-2005>
4.26771926879883

> <r_mmod_Van_der_Waal_Energy-OPLS-2005>
147.217819213867

> <r_mmod_Electrostatic_Energy-OPLS-2005>
-293.155517578125

> <r_mmod_Solvation_Energy-OPLS-2005>
-441.644439697266

> <b_mmod_Minimization_Converged-OPLS-2005>
0

> <r_mmod_RMS_Derivative-OPLS-2005>
4.7418384552002

$$$$
37
                    3D
 Structure written by MMmdl.
147155  0  0  1  0            999 V2000
  -30.6419  -14.7118   20.4845 C   0  0  0  0  0  0
  -30.4302  -12.4437   19.4586 C   0  0  0  0  0  0
  -29.5038  -12.5024   18.2257 C   0  0  0  0  0  0
  -28.0310  -12.3302   18.6449 C   0  0  0  0  0  0
  -27.6417  -13.2302   19.8483 C   0  0  2  0  0  0
  -28.6897  -13.1591   20.9794 C   0  0  0  0  0  0
  -25.2515  -13.8197   20.5697 C   0  0  0  0  0  0
  -24.1805  -13.0443   20.9211 C   0  0  0  0  0  0
  -24.6395  -11.6920   20.8754 C   0  0  0  0  0  0
  -23.9072  -10.4295   21.0412 C   0  0  0  0  0  0
  -24.3623   -9.4208   21.9187 C   0  0  0  0  0  0
  -23.6297   -8.2243   22.0755 C   0  0  0  0  0  0
  -22.4278   -8.0282   21.3546 C   0  0  0  0  0  0
  -21.9916   -9.0257   20.4647 C   0  0  0  0  0  0
  -22.7246  -10.2135   20.3058 C   0  0  0  0  0  0
  -21.6853   -6.0738   22.5281 C   0  0  0  0  0  0
  -21.4014   -6.5642   23.8214 C   0  0  0  0  0  0
  -21.3658   -5.6794   24.9176 C   0  0  0  0  0  0
  -21.6044   -4.3056   24.7226 C   0  0  0  0  0  0
  -21.8819   -3.8148   23.4347 C   0  0  0  0  0  0
  -21.9193   -4.6965   22.3404 C   0  0  0  0  0  0
  -22.7826  -13.5223   21.1869 C   0  0  0  0  0  0
  -22.1662   -4.2151   21.0981 F   0  0  0  0  0  0
  -21.5627   -3.4539   25.7738 F   0  0  0  0  0  0
  -29.9894  -13.5049   20.3907 N   0  0  0  0  0  0
  -26.2940  -12.9402   20.3284 N   0  0  0  0  0  0
  -25.9325  -11.6545   20.5758 N   0  0  0  0  0  0
  -22.0472  -12.8211   22.0423 N   0  0  0  0  0  0
  -25.4202  -15.1922   20.4109 N   0  0  0  0  0  0
  -31.8351  -14.7915   20.1833 O   0  0  0  0  0  0
  -21.6641   -6.8881   21.4242 O   0  0  0  0  0  0
  -22.3510  -14.5527   20.6715 O   0  0  0  0  0  0
  -24.6326  -31.8570   23.2014 C   0  0  0  0  0  0
  -25.9154  -32.4764   23.8350 C   0  0  1  0  0  0
  -27.2100  -27.2627   20.1171 C   0  0  0  0  0  0
  -25.5951  -33.8566   24.2271 N   0  0  0  0  0  0
  -23.4277  -30.4843   21.5460 C   0  0  2  0  0  0
  -24.8716  -28.9401   20.1103 C   0  0  0  0  0  0
  -22.7508  -29.4621   22.4916 C   0  0  0  0  0  0
  -18.0295  -28.1387   22.8486 C   0  0  0  0  0  0
  -24.1490  -36.7283   23.2638 C   0  0  0  0  0  0
  -25.9770  -30.7702   21.3826 C   0  0  0  0  0  0
  -26.0479  -29.3958   20.7194 C   0  0  0  0  0  0
  -27.2212  -28.5710   20.7119 C   0  0  0  0  0  0
  -26.0048  -26.8864   19.4747 C   0  0  0  0  0  0
  -24.8558  -27.6929   19.4775 C   0  0  0  0  0  0
  -23.6447  -29.8274   20.1599 C   0  0  0  0  0  0
  -25.4117  -36.3074   24.0327 C   0  0  1  0  0  0
  -20.5901  -28.3702   23.1263 C   0  0  2  0  0  0
  -20.6784  -26.9419   22.5402 C   0  0  0  0  0  0
  -19.5756  -26.6384   21.5211 C   0  0  0  0  0  0
  -18.1938  -26.7930   22.1626 C   0  0  0  0  0  0
  -19.1549  -28.8861   23.2869 C   0  0  0  0  0  0
  -18.9468  -30.1462   23.8888 C   0  0  0  0  0  0
  -17.6467  -30.6587   24.0563 C   0  0  0  0  0  0
  -25.9059  -34.9445   23.5098 C   0  0  0  0  0  0
  -16.5358  -29.9085   23.6333 C   0  0  0  0  0  0
  -16.7281  -28.6502   23.0355 C   0  0  0  0  0  0
  -26.4512  -31.6585   25.0738 C   0  0  0  0  0  0
  -25.3728  -31.3737   26.1452 C   0  0  0  0  0  0
  -27.0361  -30.2999   24.6233 C   0  0  0  0  0  0
  -27.6061  -32.4327   25.7513 C   0  0  0  0  0  0
  -27.5579  -37.1799   24.8466 C   0  0  0  0  0  0
  -21.4215  -29.3053   22.3655 N   0  0  0  0  0  0
  -26.4290  -37.3773   23.9410 N   0  0  0  0  0  0
  -24.6985  -31.0543   22.0992 N   0  0  0  0  0  0
  -23.4210  -28.8147   23.3002 O   0  0  0  0  0  0
  -28.2862  -26.3394   20.1728 O   0  0  0  0  0  0
  -26.5624  -34.8916   22.4662 O   0  0  0  0  0  0
  -23.5476  -32.1391   23.7310 O   0  0  0  0  0  0
  -30.6115  -19.3986   19.6711 C   0  0  0  0  0  0
  -29.9715  -18.6165   20.6203 C   0  0  0  0  0  0
  -29.2326  -21.1088   20.4358 C   0  0  0  0  0  0
  -29.0150  -23.7274   20.2255 C   0  0  0  0  0  0
  -30.4458  -17.2165   21.1731 C   0  0  0  0  0  0
  -27.9187  -24.8800   20.0809 C   0  0  0  0  0  0
  -30.2078  -20.7630   19.5799 N   0  0  0  0  0  0
  -28.5857  -22.4347   20.4779 N   0  0  0  0  0  0
  -29.9102  -15.8564   20.7491 N   0  0  0  0  0  0
  -30.2099  -24.0129   20.1007 O   0  0  0  0  0  0
  -28.7351  -19.6556   21.3857 S   0  0  0  0  0  0
  -31.4700  -12.5662   19.1509 H   0  0  0  0  0  0
  -30.3740  -11.4663   19.9406 H   0  0  0  0  0  0
  -29.7808  -11.7295   17.5074 H   0  0  0  0  0  0
  -29.6311  -13.4572   17.7130 H   0  0  0  0  0  0
  -27.8864  -11.2816   18.9076 H   0  0  0  0  0  0
  -27.3710  -12.5240   17.7985 H   0  0  0  0  0  0
  -27.6377  -14.2526   19.4700 H   0  0  0  0  0  0
  -28.7230  -12.1604   21.4175 H   0  0  0  0  0  0
  -28.4304  -13.8405   21.7912 H   0  0  0  0  0  0
  -25.2766   -9.5683   22.4764 H   0  0  0  0  0  0
  -24.0006   -7.4632   22.7471 H   0  0  0  0  0  0
  -21.0848   -8.8776   19.8951 H   0  0  0  0  0  0
  -22.3706  -10.9675   19.6168 H   0  0  0  0  0  0
  -21.2005   -7.6150   23.9718 H   0  0  0  0  0  0
  -21.1480   -6.0524   25.9078 H   0  0  0  0  0  0
  -22.0598   -2.7610   23.2847 H   0  0  0  0  0  0
  -22.4092  -11.9873   22.4810 H   0  0  0  0  0  0
  -21.1088  -13.1231   22.2627 H   0  0  0  0  0  0
  -24.6510  -15.8444   20.5195 H   0  0  0  0  0  0
  -26.2642  -15.6325   20.0677 H   0  0  0  0  0  0
  -26.7221  -32.5411   23.1091 H   0  0  0  0  0  0
  -25.0106  -33.9705   25.0422 H   0  0  0  0  0  0
  -22.7242  -31.3074   21.4047 H   0  0  0  0  0  0
  -23.3755  -35.9613   23.3301 H   0  0  0  0  0  0
  -24.3580  -36.8902   22.2052 H   0  0  0  0  0  0
  -23.7240  -37.6484   23.6659 H   0  0  0  0  0  0
  -26.1198  -31.5339   20.6169 H   0  0  0  0  0  0
  -26.8533  -30.8135   22.0178 H   0  0  0  0  0  0
  -28.1191  -28.9144   21.2064 H   0  0  0  0  0  0
  -25.8947  -25.9440   18.9643 H   0  0  0  0  0  0
  -23.9569  -27.3396   18.9909 H   0  0  0  0  0  0
  -23.7713  -30.6078   19.4086 H   0  0  0  0  0  0
  -22.7617  -29.2648   19.8512 H   0  0  0  0  0  0
  -25.1297  -36.1922   25.0820 H   0  0  0  0  0  0
  -20.9994  -28.3279   24.1383 H   0  0  0  0  0  0
  -20.5688  -26.2313   23.3608 H   0  0  0  0  0  0
  -21.6651  -26.7445   22.1192 H   0  0  0  0  0  0
  -19.6917  -25.6293   21.1244 H   0  0  0  0  0  0
  -19.6689  -27.3192   20.6738 H   0  0  0  0  0  0
  -17.4205  -26.6675   21.4031 H   0  0  0  0  0  0
  -18.0340  -26.0072   22.9024 H   0  0  0  0  0  0
  -19.7944  -30.7282   24.2250 H   0  0  0  0  0  0
  -17.5022  -31.6266   24.5167 H   0  0  0  0  0  0
  -15.5358  -30.2984   23.7661 H   0  0  0  0  0  0
  -15.8681  -28.0818   22.7075 H   0  0  0  0  0  0
  -24.5914  -30.7074   25.7782 H   0  0  0  0  0  0
  -24.8908  -32.2906   26.4854 H   0  0  0  0  0  0
  -25.8041  -30.8934   27.0244 H   0  0  0  0  0  0
  -26.2952  -29.6746   24.1239 H   0  0  0  0  0  0
  -27.4016  -29.7265   25.4762 H   0  0  0  0  0  0
  -27.8843  -30.4268   23.9502 H   0  0  0  0  0  0
  -27.2666  -33.3634   26.2072 H   0  0  0  0  0  0
  -28.3883  -32.6875   25.0350 H   0  0  0  0  0  0
  -28.0717  -31.8464   26.5446 H   0  0  0  0  0  0
  -28.2593  -38.0100   24.7517 H   0  0  0  0  0  0
  -28.1077  -36.2631   24.6285 H   0  0  0  0  0  0
  -27.2297  -37.1440   25.8868 H   0  0  0  0  0  0
  -20.9398  -29.8789   21.6873 H   0  0  0  0  0  0
  -26.0167  -38.2846   24.1414 H   0  0  0  0  0  0
  -31.4504  -19.0853   19.0648 H   0  0  0  0  0  0
  -30.3105  -17.2420   22.2550 H   0  0  0  0  0  0
  -31.5303  -17.1860   21.0555 H   0  0  0  0  0  0
  -27.1233  -24.6728   20.7985 H   0  0  0  0  0  0
  -27.5158  -24.6894   19.0873 H   0  0  0  0  0  0
  -27.6085  -22.3880   20.7285 H   0  0  0  0  0  0
  -28.9195  -15.7163   20.8759 H   0  0  0  0  0  0
  1 25  1  0  0  0
  1 30  2  0  0  0
  1 79  1  0  0  0
  2  3  1  0  0  0
  2 25  1  0  0  0
  2 82  1  0  0  0
  2 83  1  0  0  0
  3  4  1  0  0  0
  3 84  1  0  0  0
  3 85  1  0  0  0
  4  5  1  0  0  0
  4 86  1  0  0  0
  4 87  1  0  0  0
  5  6  1  0  0  0
  5 26  1  0  0  0
  5 88  1  0  0  0
  6 25  1  0  0  0
  6 89  1  0  0  0
  6 90  1  0  0  0
  7  8  2  0  0  0
  7 26  1  0  0  0
  7 29  1  0  0  0
  8  9  1  0  0  0
  8 22  1  0  0  0
  9 10  1  0  0  0
  9 27  2  0  0  0
 10 11  2  0  0  0
 10 15  1  0  0  0
 11 12  1  0  0  0
 11 91  1  0  0  0
 12 13  2  0  0  0
 12 92  1  0  0  0
 13 14  1  0  0  0
 13 31  1  0  0  0
 14 15  2  0  0  0
 14 93  1  0  0  0
 15 94  1  0  0  0
 16 17  2  0  0  0
 16 21  1  0  0  0
 16 31  1  0  0  0
 17 18  1  0  0  0
 17 95  1  0  0  0
 18 19  2  0  0  0
 18 96  1  0  0  0
 19 20  1  0  0  0
 19 24  1  0  0  0
 20 21  2  0  0  0
 20 97  1  0  0  0
 21 23  1  0  0  0
 22 28  1  0  0  0
 22 32  2  0  0  0
 26 27  1  0  0  0
 28 98  1  0  0  0
 28 99  1  0  0  0
 29100  1  0  0  0
 29101  1  0  0  0
 33 34  1  0  0  0
 33 66  1  0  0  0
 33 70  2  0  0  0
 34 36  1  0  0  0
 34 59  1  0  0  0
 34102  1  0  0  0
 35 44  2  0  0  0
 35 45  1  0  0  0
 35 68  1  0  0  0
 36 56  1  0  0  0
 36103  1  0  0  0
 37 39  1  0  0  0
 37 47  1  0  0  0
 37 66  1  0  0  0
 37104  1  0  0  0
 38 43  2  0  0  0
 38 46  1  0  0  0
 38 47  1  0  0  0
 39 64  1  0  0  0
 39 67  2  0  0  0
 40 52  1  0  0  0
 40 53  2  0  0  0
 40 58  1  0  0  0
 41105  1  0  0  0
 41106  1  0  0  0
 41107  1  0  0  0
 41 48  1  0  0  0
 42 43  1  0  0  0
 42 66  1  0  0  0
 42108  1  0  0  0
 42109  1  0  0  0
 43 44  1  0  0  0
 44110  1  0  0  0
 45 46  2  0  0  0
 45111  1  0  0  0
 46112  1  0  0  0
 47113  1  0  0  0
 47114  1  0  0  0
 48 56  1  0  0  0
 48 65  1  0  0  0
 48115  1  0  0  0
 49 50  1  0  0  0
 49 53  1  0  0  0
 49 64  1  0  0  0
 49116  1  0  0  0
 50 51  1  0  0  0
 50117  1  0  0  0
 50118  1  0  0  0
 51 52  1  0  0  0
 51119  1  0  0  0
 51120  1  0  0  0
 52121  1  0  0  0
 52122  1  0  0  0
 53 54  1  0  0  0
 54 55  2  0  0  0
 54123  1  0  0  0
 55 57  1  0  0  0
 55124  1  0  0  0
 56 69  2  0  0  0
 57 58  2  0  0  0
 57125  1  0  0  0
 58126  1  0  0  0
 59 60  1  0  0  0
 59 61  1  0  0  0
 59 62  1  0  0  0
 60127  1  0  0  0
 60128  1  0  0  0
 60129  1  0  0  0
 61130  1  0  0  0
 61131  1  0  0  0
 61132  1  0  0  0
 62133  1  0  0  0
 62134  1  0  0  0
 62135  1  0  0  0
 63 65  1  0  0  0
 63136  1  0  0  0
 63137  1  0  0  0
 63138  1  0  0  0
 64139  1  0  0  0
 65140  1  0  0  0
 68 76  1  0  0  0
 71 72  2  0  0  0
 71 77  1  0  0  0
 71141  1  0  0  0
 72 75  1  0  0  0
 72 81  1  0  0  0
 73 77  2  0  0  0
 73 78  1  0  0  0
 73 81  1  0  0  0
 74 76  1  0  0  0
 74 78  1  0  0  0
 74 80  2  0  0  0
 75 79  1  0  0  0
 75142  1  0  0  0
 75143  1  0  0  0
 76144  1  0  0  0
 76145  1  0  0  0
 78146  1  0  0  0
 79147  1  0  0  0
M  ISO  4   1 100  68 101  76 101  79 100
M  END
> <chiral flag>
0

> <version>
0

> <s_m_source_file>
/data/baiqing/PycharmProjects/Reinvent-master-3.2/result/LINK_invent/BTK/process_docking_weight1_custom_product_contain_oxygen_bond_distance_aromatic_linkinvent_7_9_3/rearranged_h_0196.sdf

> <i_m_source_file_index>
38

> <r_mmod_Potential_Energy-OPLS-2005>
36.1170501708984

> <r_mmod_Stretch_Energy-OPLS-2005>
105.026649475098

> <r_mmod_Bend_Energy-OPLS-2005>
175.581573486328

> <r_mmod_Torsional_Energy-OPLS-2005>
222.084274291992

> <r_mmod_Improper_Torsional_Energy-OPLS-2005>
6.25258874893188

> <r_mmod_Van_der_Waal_Energy-OPLS-2005>
125.006011962891

> <r_mmod_Electrostatic_Energy-OPLS-2005>
-410.799499511719

> <r_mmod_Solvation_Energy-OPLS-2005>
-268.329437255859

> <b_mmod_Minimization_Converged-OPLS-2005>
0

> <r_mmod_RMS_Derivative-OPLS-2005>
0.22306090593338

$$$$
38
                    3D
 Structure written by MMmdl.
155163  0  0  1  0            999 V2000
  -30.6340  -14.5438   20.5915 C   0  0  0  0  0  0
  -30.4470  -12.3612   19.4125 C   0  0  0  0  0  0
  -29.4996  -12.5330   18.2033 C   0  0  0  0  0  0
  -28.0213  -12.3732   18.6151 C   0  0  0  0  0  0
  -27.6640  -13.2033   19.8756 C   0  0  2  0  0  0
  -28.7082  -12.9585   20.9889 C   0  0  0  0  0  0
  -25.2592  -13.8135   20.5653 C   0  0  0  0  0  0
  -24.1846  -13.0432   20.9193 C   0  0  0  0  0  0
  -24.6390  -11.6897   20.8735 C   0  0  0  0  0  0
  -23.9042  -10.4296   21.0412 C   0  0  0  0  0  0
  -24.3600   -9.4213   21.9191 C   0  0  0  0  0  0
  -23.6288   -8.2239   22.0754 C   0  0  0  0  0  0
  -22.4268   -8.0279   21.3544 C   0  0  0  0  0  0
  -21.9893   -9.0255   20.4651 C   0  0  0  0  0  0
  -22.7212  -10.2141   20.3067 C   0  0  0  0  0  0
  -21.6849   -6.0732   22.5283 C   0  0  0  0  0  0
  -21.4011   -6.5636   23.8219 C   0  0  0  0  0  0
  -21.3658   -5.6786   24.9180 C   0  0  0  0  0  0
  -21.6048   -4.3051   24.7225 C   0  0  0  0  0  0
  -21.8821   -3.8141   23.4346 C   0  0  0  0  0  0
  -21.9191   -4.6958   22.3406 C   0  0  0  0  0  0
  -22.7872  -13.5249   21.1848 C   0  0  0  0  0  0
  -22.1659   -4.2145   21.0980 F   0  0  0  0  0  0
  -21.5636   -3.4534   25.7739 F   0  0  0  0  0  0
  -30.0372  -13.3207   20.4541 N   0  0  0  0  0  0
  -26.3030  -12.9302   20.3336 N   0  0  0  0  0  0
  -25.9311  -11.6465   20.5733 N   0  0  0  0  0  0
  -22.0483  -12.8273   22.0407 N   0  0  0  0  0  0
  -25.4298  -15.1843   20.3999 N   0  0  0  0  0  0
  -31.7264  -14.8108   20.0758 O   0  0  0  0  0  0
  -21.6637   -6.8872   21.4243 O   0  0  0  0  0  0
  -22.3576  -14.5553   20.6679 O   0  0  0  0  0  0
  -24.6190  -31.8635   23.2061 C   0  0  0  0  0  0
  -25.9061  -32.4800   23.8377 C   0  0  1  0  0  0
  -27.2372  -27.3809   20.1222 C   0  0  0  0  0  0
  -25.5903  -33.8599   24.2318 N   0  0  0  0  0  0
  -23.4110  -30.4834   21.5471 C   0  0  2  0  0  0
  -24.8610  -28.9360   20.1206 C   0  0  0  0  0  0
  -22.7433  -29.4637   22.4982 C   0  0  0  0  0  0
  -18.0273  -28.1376   22.8489 C   0  0  0  0  0  0
  -24.1480  -36.7305   23.2640 C   0  0  0  0  0  0
  -25.9437  -30.8129   21.3668 C   0  0  0  0  0  0
  -26.0228  -29.4406   20.7194 C   0  0  0  0  0  0
  -27.2164  -28.6731   20.7105 C   0  0  0  0  0  0
  -26.0590  -26.8983   19.5186 C   0  0  0  0  0  0
  -24.8770  -27.6670   19.5132 C   0  0  0  0  0  0
  -23.6248  -29.8098   20.1647 C   0  0  0  0  0  0
  -25.4100  -36.3103   24.0345 C   0  0  1  0  0  0
  -20.5865  -28.3672   23.1317 C   0  0  2  0  0  0
  -20.6765  -26.9406   22.5428 C   0  0  0  0  0  0
  -19.5754  -26.6385   21.5216 C   0  0  0  0  0  0
  -18.1924  -26.7925   22.1613 C   0  0  0  0  0  0
  -19.1521  -28.8840   23.2898 C   0  0  0  0  0  0
  -18.9445  -30.1441   23.8913 C   0  0  0  0  0  0
  -17.6449  -30.6583   24.0564 C   0  0  0  0  0  0
  -25.9033  -34.9468   23.5132 C   0  0  0  0  0  0
  -16.5341  -29.9085   23.6326 C   0  0  0  0  0  0
  -16.7260  -28.6500   23.0349 C   0  0  0  0  0  0
  -26.4488  -31.6584   25.0714 C   0  0  0  0  0  0
  -25.3754  -31.3696   26.1465 C   0  0  0  0  0  0
  -27.0325  -30.3023   24.6109 C   0  0  0  0  0  0
  -27.6073  -32.4302   25.7460 C   0  0  0  0  0  0
  -27.5585  -37.1796   24.8459 C   0  0  0  0  0  0
  -21.4153  -29.3033   22.3721 N   0  0  0  0  0  0
  -26.4284  -37.3792   23.9422 N   0  0  0  0  0  0
  -24.6762  -31.0691   22.0982 N   0  0  0  0  0  0
  -23.4179  -28.8186   23.3050 O   0  0  0  0  0  0
  -28.3894  -26.6112   20.0788 O   0  0  0  0  0  0
  -26.5596  -34.8928   22.4694 O   0  0  0  0  0  0
  -23.5370  -32.1408   23.7427 O   0  0  0  0  0  0
  -28.2415  -17.1426   21.4178 C   0  0  0  0  0  0
  -29.5366  -16.7935   21.1310 C   0  0  0  0  0  0
  -29.6560  -19.0993   20.8531 C   0  0  0  0  0  0
  -30.9539  -23.3703   20.3074 C   0  0  0  0  0  0
  -30.2866  -20.4914   20.7309 C   0  0  0  0  0  0
  -28.4895  -24.0095   20.1422 C   0  0  0  0  0  0
  -28.4261  -25.4005   20.8852 C   0  0  0  0  0  0
  -29.5226  -22.9548   20.7177 C   0  0  1  0  0  0
  -30.3344  -17.9180   20.7995 N   0  0  0  0  0  0
  -29.9118  -15.4199   21.3315 N   0  0  0  0  0  0
  -29.2362  -21.5085   20.3675 N   0  3  0  0  0  0
  -27.9569  -18.8556   21.2638 S   0  0  0  0  0  0
  -31.4829  -12.5101   19.1015 H   0  0  0  0  0  0
  -30.3963  -11.3421   19.7983 H   0  0  0  0  0  0
  -29.7488  -11.8125   17.4228 H   0  0  0  0  0  0
  -29.6464  -13.5207   17.7634 H   0  0  0  0  0  0
  -27.8392  -11.3149   18.8045 H   0  0  0  0  0  0
  -27.3673  -12.6491   17.7866 H   0  0  0  0  0  0
  -27.7118  -14.2547   19.5907 H   0  0  0  0  0  0
  -28.7075  -11.9058   21.2758 H   0  0  0  0  0  0
  -28.4424  -13.4952   21.8999 H   0  0  0  0  0  0
  -25.2743   -9.5696   22.4763 H   0  0  0  0  0  0
  -24.0006   -7.4627   22.7464 H   0  0  0  0  0  0
  -21.0823   -8.8770   19.8961 H   0  0  0  0  0  0
  -22.3664  -10.9682   19.6181 H   0  0  0  0  0  0
  -21.2001   -7.6146   23.9723 H   0  0  0  0  0  0
  -21.1478   -6.0514   25.9084 H   0  0  0  0  0  0
  -22.0599   -2.7601   23.2844 H   0  0  0  0  0  0
  -22.4064  -11.9940   22.4827 H   0  0  0  0  0  0
  -21.1102  -13.1336   22.2581 H   0  0  0  0  0  0
  -24.6471  -15.8247   20.4773 H   0  0  0  0  0  0
  -26.2390  -15.6003   19.9571 H   0  0  0  0  0  0
  -26.7125  -32.5508   23.1134 H   0  0  0  0  0  0
  -25.0072  -33.9752   25.0478 H   0  0  0  0  0  0
  -22.7020  -31.3012   21.4025 H   0  0  0  0  0  0
  -23.3751  -35.9627   23.3289 H   0  0  0  0  0  0
  -24.3584  -36.8930   22.2058 H   0  0  0  0  0  0
  -23.7215  -37.6501   23.6657 H   0  0  0  0  0  0
  -26.0598  -31.5738   20.5941 H   0  0  0  0  0  0
  -26.8298  -30.8710   21.9872 H   0  0  0  0  0  0
  -28.1161  -29.0616   21.1669 H   0  0  0  0  0  0
  -26.0595  -25.9257   19.0465 H   0  0  0  0  0  0
  -23.9865  -27.2743   19.0416 H   0  0  0  0  0  0
  -23.7387  -30.5823   19.4033 H   0  0  0  0  0  0
  -22.7478  -29.2317   19.8677 H   0  0  0  0  0  0
  -25.1272  -36.1970   25.0837 H   0  0  0  0  0  0
  -20.9946  -28.3241   24.1443 H   0  0  0  0  0  0
  -20.5665  -26.2282   23.3616 H   0  0  0  0  0  0
  -21.6639  -26.7451   22.1229 H   0  0  0  0  0  0
  -19.6925  -25.6298   21.1242 H   0  0  0  0  0  0
  -19.6704  -27.3200   20.6751 H   0  0  0  0  0  0
  -17.4207  -26.6686   21.3998 H   0  0  0  0  0  0
  -18.0311  -26.0055   22.8994 H   0  0  0  0  0  0
  -19.7920  -30.7246   24.2300 H   0  0  0  0  0  0
  -17.5005  -31.6265   24.5160 H   0  0  0  0  0  0
  -15.5343  -30.2993   23.7639 H   0  0  0  0  0  0
  -15.8658  -28.0823   22.7062 H   0  0  0  0  0  0
  -24.5924  -30.7043   25.7806 H   0  0  0  0  0  0
  -24.8945  -32.2849   26.4922 H   0  0  0  0  0  0
  -25.8111  -30.8861   27.0218 H   0  0  0  0  0  0
  -26.2871  -29.6761   24.1188 H   0  0  0  0  0  0
  -27.4119  -29.7282   25.4574 H   0  0  0  0  0  0
  -27.8698  -30.4337   23.9250 H   0  0  0  0  0  0
  -27.2703  -33.3582   26.2089 H   0  0  0  0  0  0
  -28.3843  -32.6891   25.0255 H   0  0  0  0  0  0
  -28.0789  -31.8394   26.5324 H   0  0  0  0  0  0
  -28.2594  -38.0104   24.7533 H   0  0  0  0  0  0
  -28.1088  -36.2641   24.6235 H   0  0  0  0  0  0
  -27.2320  -37.1393   25.8864 H   0  0  0  0  0  0
  -20.9322  -29.8752   21.6936 H   0  0  0  0  0  0
  -26.0178  -38.2871   24.1431 H   0  0  0  0  0  0
  -27.4254  -16.5061   21.7362 H   0  0  0  0  0  0
  -31.1431  -24.4195   20.5345 H   0  0  0  0  0  0
  -31.1165  -23.2377   19.2372 H   0  0  0  0  0  0
  -31.7180  -22.8021   20.8373 H   0  0  0  0  0  0
  -31.0814  -20.4756   19.9845 H   0  0  0  0  0  0
  -30.7356  -20.7381   21.6929 H   0  0  0  0  0  0
  -28.7042  -24.1768   19.0865 H   0  0  0  0  0  0
  -27.4862  -23.5827   20.1650 H   0  0  0  0  0  0
  -29.3131  -25.5028   21.5100 H   0  0  0  0  0  0
  -27.5972  -25.3878   21.5955 H   0  0  0  0  0  0
  -29.4653  -23.0085   21.8065 H   0  0  0  0  0  0
  -29.1996  -14.9064   21.8256 H   0  0  0  0  0  0
  -28.3932  -21.2287   20.8428 H   0  0  0  0  0  0
  -29.0623  -21.4209   19.3795 H   0  0  0  0  0  0
  1 25  1  0  0  0
  1 30  2  0  0  0
  1 80  1  0  0  0
  2  3  1  0  0  0
  2 25  1  0  0  0
  2 83  1  0  0  0
  2 84  1  0  0  0
  3  4  1  0  0  0
  3 85  1  0  0  0
  3 86  1  0  0  0
  4  5  1  0  0  0
  4 87  1  0  0  0
  4 88  1  0  0  0
  5  6  1  0  0  0
  5 26  1  0  0  0
  5 89  1  0  0  0
  6 25  1  0  0  0
  6 90  1  0  0  0
  6 91  1  0  0  0
  7  8  2  0  0  0
  7 26  1  0  0  0
  7 29  1  0  0  0
  8  9  1  0  0  0
  8 22  1  0  0  0
  9 10  1  0  0  0
  9 27  2  0  0  0
 10 11  2  0  0  0
 10 15  1  0  0  0
 11 12  1  0  0  0
 11 92  1  0  0  0
 12 13  2  0  0  0
 12 93  1  0  0  0
 13 14  1  0  0  0
 13 31  1  0  0  0
 14 15  2  0  0  0
 14 94  1  0  0  0
 15 95  1  0  0  0
 16 17  2  0  0  0
 16 21  1  0  0  0
 16 31  1  0  0  0
 17 18  1  0  0  0
 17 96  1  0  0  0
 18 19  2  0  0  0
 18 97  1  0  0  0
 19 20  1  0  0  0
 19 24  1  0  0  0
 20 21  2  0  0  0
 20 98  1  0  0  0
 21 23  1  0  0  0
 22 28  1  0  0  0
 22 32  2  0  0  0
 26 27  1  0  0  0
 28 99  1  0  0  0
 28100  1  0  0  0
 29101  1  0  0  0
 29102  1  0  0  0
 33 34  1  0  0  0
 33 66  1  0  0  0
 33 70  2  0  0  0
 34 36  1  0  0  0
 34 59  1  0  0  0
 34103  1  0  0  0
 35 44  2  0  0  0
 35 45  1  0  0  0
 35 68  1  0  0  0
 36 56  1  0  0  0
 36104  1  0  0  0
 37 39  1  0  0  0
 37 47  1  0  0  0
 37 66  1  0  0  0
 37105  1  0  0  0
 38 43  2  0  0  0
 38 46  1  0  0  0
 38 47  1  0  0  0
 39 64  1  0  0  0
 39 67  2  0  0  0
 40 52  1  0  0  0
 40 53  2  0  0  0
 40 58  1  0  0  0
 41106  1  0  0  0
 41107  1  0  0  0
 41108  1  0  0  0
 41 48  1  0  0  0
 42 43  1  0  0  0
 42 66  1  0  0  0
 42109  1  0  0  0
 42110  1  0  0  0
 43 44  1  0  0  0
 44111  1  0  0  0
 45 46  2  0  0  0
 45112  1  0  0  0
 46113  1  0  0  0
 47114  1  0  0  0
 47115  1  0  0  0
 48 56  1  0  0  0
 48 65  1  0  0  0
 48116  1  0  0  0
 49 50  1  0  0  0
 49 53  1  0  0  0
 49 64  1  0  0  0
 49117  1  0  0  0
 50 51  1  0  0  0
 50118  1  0  0  0
 50119  1  0  0  0
 51 52  1  0  0  0
 51120  1  0  0  0
 51121  1  0  0  0
 52122  1  0  0  0
 52123  1  0  0  0
 53 54  1  0  0  0
 54 55  2  0  0  0
 54124  1  0  0  0
 55 57  1  0  0  0
 55125  1  0  0  0
 56 69  2  0  0  0
 57 58  2  0  0  0
 57126  1  0  0  0
 58127  1  0  0  0
 59 60  1  0  0  0
 59 61  1  0  0  0
 59 62  1  0  0  0
 60128  1  0  0  0
 60129  1  0  0  0
 60130  1  0  0  0
 61131  1  0  0  0
 61132  1  0  0  0
 61133  1  0  0  0
 62134  1  0  0  0
 62135  1  0  0  0
 62136  1  0  0  0
 63 65  1  0  0  0
 63137  1  0  0  0
 63138  1  0  0  0
 63139  1  0  0  0
 64140  1  0  0  0
 65141  1  0  0  0
 68 77  1  0  0  0
 71 72  2  0  0  0
 71 82  1  0  0  0
 71142  1  0  0  0
 72 79  1  0  0  0
 72 80  1  0  0  0
 73 75  1  0  0  0
 73 79  2  0  0  0
 73 82  1  0  0  0
 74143  1  0  0  0
 74144  1  0  0  0
 74145  1  0  0  0
 74 78  1  0  0  0
 75 81  1  0  0  0
 75146  1  0  0  0
 75147  1  0  0  0
 76 77  1  0  0  0
 76 78  1  0  0  0
 76148  1  0  0  0
 76149  1  0  0  0
 77150  1  0  0  0
 77151  1  0  0  0
 78 81  1  0  0  0
 78152  1  0  0  0
 80153  1  0  0  0
 81154  1  0  0  0
 81155  1  0  0  0
M  CHG  1  81   1
M  ISO  4   1 100  68 101  77 101  80 100
M  END
> <chiral flag>
0

> <version>
0

> <s_m_source_file>
/data/baiqing/PycharmProjects/Reinvent-master-3.2/result/LINK_invent/BTK/process_docking_weight1_custom_product_contain_oxygen_bond_distance_aromatic_linkinvent_7_9_3/rearranged_h_0196.sdf

> <i_m_source_file_index>
39

> <r_mmod_Potential_Energy-OPLS-2005>
-230.238632202148

> <r_mmod_Stretch_Energy-OPLS-2005>
55.120059967041

> <r_mmod_Bend_Energy-OPLS-2005>
133.930892944336

> <r_mmod_Torsional_Energy-OPLS-2005>
261.697143554688

> <r_mmod_Improper_Torsional_Energy-OPLS-2005>
6.24018716812134

> <r_mmod_Van_der_Waal_Energy-OPLS-2005>
118.623321533203

> <r_mmod_Electrostatic_Energy-OPLS-2005>
-330.277496337891

> <r_mmod_Solvation_Energy-OPLS-2005>
-498.301147460938

> <b_mmod_Minimization_Converged-OPLS-2005>
0

> <r_mmod_RMS_Derivative-OPLS-2005>
1.02816140651703

$$$$
39
                    3D
 Structure written by MMmdl.
167175  0  0  1  0            999 V2000
  -30.7375  -14.4451   20.6158 C   0  0  0  0  0  0
  -30.4167  -12.3088   19.4136 C   0  0  0  0  0  0
  -29.4880  -12.5094   18.2006 C   0  0  0  0  0  0
  -28.0128  -12.3638   18.6181 C   0  0  0  0  0  0
  -27.6603  -13.2073   19.8729 C   0  0  2  0  0  0
  -28.7021  -12.9899   20.9927 C   0  0  0  0  0  0
  -25.2587  -13.8170   20.5679 C   0  0  0  0  0  0
  -24.1834  -13.0444   20.9167 C   0  0  0  0  0  0
  -24.6385  -11.6911   20.8728 C   0  0  0  0  0  0
  -23.9053  -10.4296   21.0399 C   0  0  0  0  0  0
  -24.3609   -9.4210   21.9175 C   0  0  0  0  0  0
  -23.6284   -8.2249   22.0754 C   0  0  0  0  0  0
  -22.4264   -8.0288   21.3548 C   0  0  0  0  0  0
  -21.9895   -9.0258   20.4651 C   0  0  0  0  0  0
  -22.7225  -10.2134   20.3053 C   0  0  0  0  0  0
  -21.6851   -6.0735   22.5278 C   0  0  0  0  0  0
  -21.4019   -6.5636   23.8213 C   0  0  0  0  0  0
  -21.3658   -5.6791   24.9176 C   0  0  0  0  0  0
  -21.6047   -4.3051   24.7220 C   0  0  0  0  0  0
  -21.8820   -3.8144   23.4343 C   0  0  0  0  0  0
  -21.9193   -4.6962   22.3400 C   0  0  0  0  0  0
  -22.7858  -13.5245   21.1833 C   0  0  0  0  0  0
  -22.1661   -4.2150   21.0978 F   0  0  0  0  0  0
  -21.5621   -3.4536   25.7731 F   0  0  0  0  0  0
  -30.0342  -13.2921   20.4398 N   0  0  0  0  0  0
  -26.3016  -12.9336   20.3354 N   0  0  0  0  0  0
  -25.9315  -11.6494   20.5762 N   0  0  0  0  0  0
  -22.0499  -12.8250   22.0396 N   0  0  0  0  0  0
  -25.4324  -15.1892   20.4102 N   0  0  0  0  0  0
  -31.8345  -14.6309   20.0751 O   0  0  0  0  0  0
  -21.6642   -6.8879   21.4239 O   0  0  0  0  0  0
  -22.3546  -14.5551   20.6682 O   0  0  0  0  0  0
  -24.6142  -31.8680   23.2109 C   0  0  0  0  0  0
  -25.9040  -32.4820   23.8398 C   0  0  1  0  0  0
  -27.2339  -27.4316   20.0830 C   0  0  0  0  0  0
  -25.5896  -33.8618   24.2329 N   0  0  0  0  0  0
  -23.4017  -30.4930   21.5512 C   0  0  2  0  0  0
  -24.8459  -28.9596   20.1147 C   0  0  0  0  0  0
  -22.7404  -29.4661   22.4983 C   0  0  0  0  0  0
  -18.0271  -28.1380   22.8493 C   0  0  0  0  0  0
  -24.1489  -36.7314   23.2637 C   0  0  0  0  0  0
  -25.9316  -30.8306   21.3661 C   0  0  0  0  0  0
  -26.0063  -29.4649   20.7124 C   0  0  0  0  0  0
  -27.1990  -28.7055   20.6992 C   0  0  0  0  0  0
  -26.0498  -26.9428   19.4803 C   0  0  0  0  0  0
  -24.8622  -27.6964   19.4999 C   0  0  0  0  0  0
  -23.6095  -29.8276   20.1648 C   0  0  0  0  0  0
  -25.4108  -36.3108   24.0337 C   0  0  1  0  0  0
  -20.5861  -28.3668   23.1314 C   0  0  2  0  0  0
  -20.6762  -26.9404   22.5414 C   0  0  0  0  0  0
  -19.5739  -26.6387   21.5210 C   0  0  0  0  0  0
  -18.1920  -26.7926   22.1627 C   0  0  0  0  0  0
  -19.1522  -28.8839   23.2902 C   0  0  0  0  0  0
  -18.9451  -30.1444   23.8919 C   0  0  0  0  0  0
  -17.6453  -30.6586   24.0568 C   0  0  0  0  0  0
  -25.9033  -34.9474   23.5131 C   0  0  0  0  0  0
  -16.5345  -29.9091   23.6321 C   0  0  0  0  0  0
  -16.7262  -28.6505   23.0348 C   0  0  0  0  0  0
  -26.4471  -31.6600   25.0725 C   0  0  0  0  0  0
  -25.3743  -31.3720   26.1481 C   0  0  0  0  0  0
  -27.0286  -30.3035   24.6105 C   0  0  0  0  0  0
  -27.6063  -32.4310   25.7472 C   0  0  0  0  0  0
  -27.5582  -37.1807   24.8463 C   0  0  0  0  0  0
  -21.4133  -29.3038   22.3722 N   0  0  0  0  0  0
  -26.4295  -37.3791   23.9409 N   0  0  0  0  0  0
  -24.6674  -31.0782   22.1013 N   0  0  0  0  0  0
  -23.4175  -28.8197   23.3022 O   0  0  0  0  0  0
  -28.4175  -26.7161   20.1020 O   0  0  0  0  0  0
  -26.5597  -34.8924   22.4693 O   0  0  0  0  0  0
  -23.5336  -32.1438   23.7507 O   0  0  0  0  0  0
  -28.8779  -19.4418   20.0718 C   0  0  0  0  0  0
  -29.9909  -20.2394   20.2313 C   0  0  0  0  0  0
  -30.2433  -17.8992   21.0726 C   0  0  0  0  0  0
  -30.6899  -16.6222   21.6976 C   0  0  0  0  0  0
  -28.3454  -22.9229   15.8679 C   0  0  0  0  0  0
  -31.8612  -23.6933   18.6989 C   0  0  0  0  0  0
  -29.7356  -22.2923   16.0800 C   0  0  0  0  0  0
  -29.8167  -24.7394   19.7867 C   0  0  0  0  0  0
  -28.4647  -25.4234   19.4793 C   0  0  0  0  0  0
  -30.3158  -23.7379   18.7075 C   0  0  2  0  0  0
  -29.6792  -22.3015   18.7477 C   0  0  1  0  0  0
  -29.9126  -21.5122   17.4060 C   0  0  1  0  0  0
  -29.0404  -18.1215   20.5267 N   0  0  0  0  0  0
  -31.6163  -16.7107   22.5931 N   0  0  0  0  0  0
  -30.2384  -21.5866   19.9087 N   0  0  0  0  0  0
  -30.1304  -15.3910   21.3576 N   0  0  0  0  0  0
  -28.9927  -20.4442   17.2985 O   0  0  0  0  0  0
  -31.2646  -19.3460   21.0249 S   0  0  0  0  0  0
  -31.4611  -12.3982   19.1092 H   0  0  0  0  0  0
  -30.3142  -11.2980   19.8117 H   0  0  0  0  0  0
  -29.7274  -11.7877   17.4184 H   0  0  0  0  0  0
  -29.6538  -13.4975   17.7675 H   0  0  0  0  0  0
  -27.8294  -11.3071   18.8185 H   0  0  0  0  0  0
  -27.3594  -12.6323   17.7877 H   0  0  0  0  0  0
  -27.7061  -14.2550   19.5738 H   0  0  0  0  0  0
  -28.6769  -11.9548   21.3361 H   0  0  0  0  0  0
  -28.4553  -13.5887   21.8701 H   0  0  0  0  0  0
  -25.2757   -9.5683   22.4747 H   0  0  0  0  0  0
  -23.9996   -7.4637   22.7465 H   0  0  0  0  0  0
  -21.0828   -8.8776   19.8955 H   0  0  0  0  0  0
  -22.3688  -10.9672   19.6159 H   0  0  0  0  0  0
  -21.2025   -7.6147   23.9716 H   0  0  0  0  0  0
  -21.1473   -6.0520   25.9077 H   0  0  0  0  0  0
  -22.0601   -2.7604   23.2845 H   0  0  0  0  0  0
  -22.4108  -11.9913   22.4799 H   0  0  0  0  0  0
  -21.1120  -13.1286   22.2602 H   0  0  0  0  0  0
  -24.6675  -15.8462   20.5223 H   0  0  0  0  0  0
  -26.2895  -15.6300   20.0995 H   0  0  0  0  0  0
  -26.7110  -32.5529   23.1159 H   0  0  0  0  0  0
  -25.0045  -33.9784   25.0473 H   0  0  0  0  0  0
  -22.6904  -31.3100   21.4134 H   0  0  0  0  0  0
  -23.3743  -35.9655   23.3307 H   0  0  0  0  0  0
  -24.3583  -36.8919   22.2049 H   0  0  0  0  0  0
  -23.7252  -37.6527   23.6644 H   0  0  0  0  0  0
  -26.0461  -31.5978   20.5989 H   0  0  0  0  0  0
  -26.8189  -30.8822   21.9855 H   0  0  0  0  0  0
  -28.0950  -29.0927   21.1646 H   0  0  0  0  0  0
  -26.0155  -25.9823   18.9880 H   0  0  0  0  0  0
  -23.9691  -27.3014   19.0357 H   0  0  0  0  0  0
  -23.7194  -30.6036   19.4061 H   0  0  0  0  0  0
  -22.7325  -29.2494   19.8679 H   0  0  0  0  0  0
  -25.1284  -36.1977   25.0830 H   0  0  0  0  0  0
  -20.9956  -28.3239   24.1432 H   0  0  0  0  0  0
  -20.5660  -26.2279   23.3602 H   0  0  0  0  0  0
  -21.6635  -26.7446   22.1210 H   0  0  0  0  0  0
  -19.6902  -25.6301   21.1229 H   0  0  0  0  0  0
  -19.6675  -27.3206   20.6747 H   0  0  0  0  0  0
  -17.4185  -26.6667   21.4034 H   0  0  0  0  0  0
  -18.0329  -26.0066   22.9023 H   0  0  0  0  0  0
  -19.7927  -30.7249   24.2301 H   0  0  0  0  0  0
  -17.5012  -31.6268   24.5166 H   0  0  0  0  0  0
  -15.5349  -30.3005   23.7628 H   0  0  0  0  0  0
  -15.8660  -28.0831   22.7057 H   0  0  0  0  0  0
  -24.5892  -30.7094   25.7823 H   0  0  0  0  0  0
  -24.8967  -32.2883   26.4958 H   0  0  0  0  0  0
  -25.8093  -30.8858   27.0222 H   0  0  0  0  0  0
  -26.2820  -29.6803   24.1168 H   0  0  0  0  0  0
  -27.4057  -29.7270   25.4564 H   0  0  0  0  0  0
  -27.8663  -30.4342   23.9250 H   0  0  0  0  0  0
  -27.2704  -33.3611   26.2071 H   0  0  0  0  0  0
  -28.3856  -32.6863   25.0279 H   0  0  0  0  0  0
  -28.0746  -31.8415   26.5366 H   0  0  0  0  0  0
  -28.2608  -38.0098   24.7504 H   0  0  0  0  0  0
  -28.1069  -36.2629   24.6290 H   0  0  0  0  0  0
  -27.2297  -37.1466   25.8867 H   0  0  0  0  0  0
  -20.9288  -29.8771   21.6959 H   0  0  0  0  0  0
  -26.0184  -38.2869   24.1409 H   0  0  0  0  0  0
  -27.9307  -19.7258   19.6357 H   0  0  0  0  0  0
  -28.3251  -23.4946   14.9394 H   0  0  0  0  0  0
  -28.0750  -23.6041   16.6743 H   0  0  0  0  0  0
  -27.5644  -22.1659   15.7951 H   0  0  0  0  0  0
  -32.2780  -24.6799   18.4931 H   0  0  0  0  0  0
  -32.2444  -23.0253   17.9281 H   0  0  0  0  0  0
  -32.2689  -23.3676   19.6557 H   0  0  0  0  0  0
  -30.5040  -23.0602   15.9925 H   0  0  0  0  0  0
  -29.9397  -21.6209   15.2443 H   0  0  0  0  0  0
  -29.7902  -24.2711   20.7710 H   0  0  0  0  0  0
  -30.5561  -25.5368   19.8678 H   0  0  0  0  0  0
  -27.6598  -24.7757   19.8298 H   0  0  0  0  0  0
  -28.3387  -25.5618   18.4045 H   0  0  0  0  0  0
  -30.0417  -24.2131   17.7688 H   0  0  0  0  0  0
  -28.6050  -22.4237   18.8985 H   0  0  0  0  0  0
  -30.9209  -21.0934   17.4086 H   0  0  0  0  0  0
  -31.8785  -17.6903   22.6974 H   0  0  0  0  0  0
  -31.1338  -21.9583   20.2067 H   0  0  0  0  0  0
  -29.1671  -15.2252   21.5997 H   0  0  0  0  0  0
  -28.1276  -20.8289   17.2170 H   0  0  0  0  0  0
  1 25  1  0  0  0
  1 30  2  0  0  0
  1 86  1  0  0  0
  2  3  1  0  0  0
  2 25  1  0  0  0
  2 89  1  0  0  0
  2 90  1  0  0  0
  3  4  1  0  0  0
  3 91  1  0  0  0
  3 92  1  0  0  0
  4  5  1  0  0  0
  4 93  1  0  0  0
  4 94  1  0  0  0
  5  6  1  0  0  0
  5 26  1  0  0  0
  5 95  1  0  0  0
  6 25  1  0  0  0
  6 96  1  0  0  0
  6 97  1  0  0  0
  7  8  2  0  0  0
  7 26  1  0  0  0
  7 29  1  0  0  0
  8  9  1  0  0  0
  8 22  1  0  0  0
  9 10  1  0  0  0
  9 27  2  0  0  0
 10 11  2  0  0  0
 10 15  1  0  0  0
 11 12  1  0  0  0
 11 98  1  0  0  0
 12 13  2  0  0  0
 12 99  1  0  0  0
 13 14  1  0  0  0
 13 31  1  0  0  0
 14 15  2  0  0  0
 14100  1  0  0  0
 15101  1  0  0  0
 16 17  2  0  0  0
 16 21  1  0  0  0
 16 31  1  0  0  0
 17 18  1  0  0  0
 17102  1  0  0  0
 18 19  2  0  0  0
 18103  1  0  0  0
 19 20  1  0  0  0
 19 24  1  0  0  0
 20 21  2  0  0  0
 20104  1  0  0  0
 21 23  1  0  0  0
 22 28  1  0  0  0
 22 32  2  0  0  0
 26 27  1  0  0  0
 28105  1  0  0  0
 28106  1  0  0  0
 29107  1  0  0  0
 29108  1  0  0  0
 33 34  1  0  0  0
 33 66  1  0  0  0
 33 70  2  0  0  0
 34 36  1  0  0  0
 34 59  1  0  0  0
 34109  1  0  0  0
 35 44  2  0  0  0
 35 45  1  0  0  0
 35 68  1  0  0  0
 36 56  1  0  0  0
 36110  1  0  0  0
 37 39  1  0  0  0
 37 47  1  0  0  0
 37 66  1  0  0  0
 37111  1  0  0  0
 38 43  2  0  0  0
 38 46  1  0  0  0
 38 47  1  0  0  0
 39 64  1  0  0  0
 39 67  2  0  0  0
 40 52  1  0  0  0
 40 53  2  0  0  0
 40 58  1  0  0  0
 41112  1  0  0  0
 41113  1  0  0  0
 41114  1  0  0  0
 41 48  1  0  0  0
 42 43  1  0  0  0
 42 66  1  0  0  0
 42115  1  0  0  0
 42116  1  0  0  0
 43 44  1  0  0  0
 44117  1  0  0  0
 45 46  2  0  0  0
 45118  1  0  0  0
 46119  1  0  0  0
 47120  1  0  0  0
 47121  1  0  0  0
 48 56  1  0  0  0
 48 65  1  0  0  0
 48122  1  0  0  0
 49 50  1  0  0  0
 49 53  1  0  0  0
 49 64  1  0  0  0
 49123  1  0  0  0
 50 51  1  0  0  0
 50124  1  0  0  0
 50125  1  0  0  0
 51 52  1  0  0  0
 51126  1  0  0  0
 51127  1  0  0  0
 52128  1  0  0  0
 52129  1  0  0  0
 53 54  1  0  0  0
 54 55  2  0  0  0
 54130  1  0  0  0
 55 57  1  0  0  0
 55131  1  0  0  0
 56 69  2  0  0  0
 57 58  2  0  0  0
 57132  1  0  0  0
 58133  1  0  0  0
 59 60  1  0  0  0
 59 61  1  0  0  0
 59 62  1  0  0  0
 60134  1  0  0  0
 60135  1  0  0  0
 60136  1  0  0  0
 61137  1  0  0  0
 61138  1  0  0  0
 61139  1  0  0  0
 62140  1  0  0  0
 62141  1  0  0  0
 62142  1  0  0  0
 63 65  1  0  0  0
 63143  1  0  0  0
 63144  1  0  0  0
 63145  1  0  0  0
 64146  1  0  0  0
 65147  1  0  0  0
 68 79  1  0  0  0
 71 72  2  0  0  0
 71 83  1  0  0  0
 71148  1  0  0  0
 72 85  1  0  0  0
 72 88  1  0  0  0
 73 74  1  0  0  0
 73 83  2  0  0  0
 73 88  1  0  0  0
 74 84  2  0  0  0
 74 86  1  0  0  0
 75 77  1  0  0  0
 75149  1  0  0  0
 75150  1  0  0  0
 75151  1  0  0  0
 76152  1  0  0  0
 76153  1  0  0  0
 76154  1  0  0  0
 76 80  1  0  0  0
 77 82  1  0  0  0
 77155  1  0  0  0
 77156  1  0  0  0
 78 79  1  0  0  0
 78 80  1  0  0  0
 78157  1  0  0  0
 78158  1  0  0  0
 79159  1  0  0  0
 79160  1  0  0  0
 80 81  1  0  0  0
 80161  1  0  0  0
 81 82  1  0  0  0
 81 85  1  0  0  0
 81162  1  0  0  0
 82 87  1  0  0  0
 82163  1  0  0  0
 84164  1  0  0  0
 85165  1  0  0  0
 86166  1  0  0  0
 87167  1  0  0  0
M  ISO  4   1 100  68 101  79 101  86 100
M  END
> <chiral flag>
0

> <version>
0

> <s_m_source_file>
/data/baiqing/PycharmProjects/Reinvent-master-3.2/result/LINK_invent/BTK/process_docking_weight1_custom_product_contain_oxygen_bond_distance_aromatic_linkinvent_7_9_3/rearranged_h_0196.sdf

> <i_m_source_file_index>
40

> <r_mmod_Potential_Energy-OPLS-2005>
-96.1623458862305

> <r_mmod_Stretch_Energy-OPLS-2005>
41.7295837402344

> <r_mmod_Bend_Energy-OPLS-2005>
123.543746948242

> <r_mmod_Torsional_Energy-OPLS-2005>
275.842010498047

> <r_mmod_Improper_Torsional_Energy-OPLS-2005>
4.0420937538147

> <r_mmod_Van_der_Waal_Energy-OPLS-2005>
145.046661376953

> <r_mmod_Electrostatic_Energy-OPLS-2005>
-450.359527587891

> <r_mmod_Solvation_Energy-OPLS-2005>
-247.357055664062

> <b_mmod_Minimization_Converged-OPLS-2005>
0

> <r_mmod_RMS_Derivative-OPLS-2005>
1.06442844867706

$$$$
40
                    3D
 Structure written by MMmdl.
147155  0  0  1  0            999 V2000
  -30.5096  -15.0924   20.3868 C   0  0  0  0  0  0
  -30.4427  -12.6878   19.5044 C   0  0  0  0  0  0
  -29.5293  -12.5371   18.2659 C   0  0  0  0  0  0
  -28.0686  -12.2984   18.6895 C   0  0  0  0  0  0
  -27.6205  -13.2575   19.8221 C   0  0  2  0  0  0
  -28.6618  -13.3689   20.9552 C   0  0  0  0  0  0
  -25.2447  -13.8234   20.5722 C   0  0  0  0  0  0
  -24.1778  -13.0453   20.9248 C   0  0  0  0  0  0
  -24.6407  -11.6938   20.8765 C   0  0  0  0  0  0
  -23.9087  -10.4307   21.0421 C   0  0  0  0  0  0
  -24.3636   -9.4215   21.9188 C   0  0  0  0  0  0
  -23.6312   -8.2252   22.0752 C   0  0  0  0  0  0
  -22.4287   -8.0291   21.3548 C   0  0  0  0  0  0
  -21.9929   -9.0267   20.4644 C   0  0  0  0  0  0
  -22.7263  -10.2144   20.3057 C   0  0  0  0  0  0
  -21.6862   -6.0747   22.5276 C   0  0  0  0  0  0
  -21.4025   -6.5644   23.8216 C   0  0  0  0  0  0
  -21.3657   -5.6787   24.9175 C   0  0  0  0  0  0
  -21.6047   -4.3051   24.7221 C   0  0  0  0  0  0
  -21.8821   -3.8153   23.4340 C   0  0  0  0  0  0
  -21.9202   -4.6974   22.3402 C   0  0  0  0  0  0
  -22.7800  -13.5222   21.1884 C   0  0  0  0  0  0
  -22.1660   -4.2160   21.0981 F   0  0  0  0  0  0
  -21.5623   -3.4538   25.7734 F   0  0  0  0  0  0
  -29.9182  -13.8169   20.3362 N   0  0  0  0  0  0
  -26.2861  -12.9467   20.3211 N   0  0  0  0  0  0
  -25.9333  -11.6596   20.5720 N   0  0  0  0  0  0
  -22.0432  -12.8228   22.0436 N   0  0  0  0  0  0
  -25.4109  -15.1956   20.4156 N   0  0  0  0  0  0
  -31.7296  -15.1157   20.1841 O   0  0  0  0  0  0
  -21.6645   -6.8887   21.4238 O   0  0  0  0  0  0
  -22.3488  -14.5524   20.6704 O   0  0  0  0  0  0
  -24.6586  -31.8303   23.1769 C   0  0  0  0  0  0
  -25.9305  -32.4614   23.8213 C   0  0  1  0  0  0
  -27.2334  -27.0215   20.1583 C   0  0  0  0  0  0
  -25.6000  -33.8431   24.2106 N   0  0  0  0  0  0
  -23.4712  -30.4449   21.5243 C   0  0  2  0  0  0
  -24.9210  -28.8462   20.1175 C   0  0  0  0  0  0
  -22.7668  -29.4478   22.4807 C   0  0  0  0  0  0
  -18.0332  -28.1412   22.8477 C   0  0  0  0  0  0
  -24.1498  -36.7221   23.2647 C   0  0  0  0  0  0
  -26.0362  -30.6676   21.3944 C   0  0  0  0  0  0
  -26.1060  -29.2690   20.7315 C   0  0  0  0  0  0
  -27.2585  -28.3770   20.7254 C   0  0  0  0  0  0
  -25.9998  -26.7135   19.5420 C   0  0  0  0  0  0
  -24.8846  -27.5824   19.5102 C   0  0  0  0  0  0
  -23.7077  -29.7661   20.1488 C   0  0  0  0  0  0
  -25.4140  -36.2992   24.0296 C   0  0  1  0  0  0
  -20.5955  -28.3754   23.1198 C   0  0  2  0  0  0
  -20.6808  -26.9444   22.5407 C   0  0  0  0  0  0
  -19.5783  -26.6384   21.5225 C   0  0  0  0  0  0
  -18.1962  -26.7953   22.1623 C   0  0  0  0  0  0
  -19.1587  -28.8904   23.2825 C   0  0  0  0  0  0
  -18.9505  -30.1501   23.8863 C   0  0  0  0  0  0
  -17.6496  -30.6600   24.0563 C   0  0  0  0  0  0
  -25.9111  -34.9365   23.5015 C   0  0  0  0  0  0
  -16.5386  -29.9090   23.6341 C   0  0  0  0  0  0
  -16.7315  -28.6501   23.0366 C   0  0  0  0  0  0
  -26.4559  -31.6562   25.0739 C   0  0  0  0  0  0
  -25.3674  -31.3845   26.1394 C   0  0  0  0  0  0
  -27.0449  -30.2923   24.6476 C   0  0  0  0  0  0
  -27.6057  -32.4374   25.7547 C   0  0  0  0  0  0
  -27.5574  -37.1783   24.8470 C   0  0  0  0  0  0
  -21.4343  -29.3049   22.3553 N   0  0  0  0  0  0
  -26.4295  -37.3714   23.9394 N   0  0  0  0  0  0
  -24.7424  -31.0065   22.0847 N   0  0  0  0  0  0
  -23.4239  -28.8037   23.3029 O   0  0  0  0  0  0
  -28.2774  -25.9858   20.2470 O   0  0  0  0  0  0
  -26.5712  -34.8892   22.4607 O   0  0  0  0  0  0
  -23.5679  -32.1217   23.6915 O   0  0  0  0  0  0
  -27.9609  -24.0631   18.6118 C   0  0  0  0  0  0
  -28.2527  -24.5503   19.8791 C   0  0  0  0  0  0
  -28.7713  -22.0424   20.0219 C   0  0  0  0  0  0
  -29.1953  -19.2672   20.0629 C   0  0  0  0  0  0
  -27.6207  -24.8519   17.3885 C   0  0  0  0  0  0
  -30.0957  -17.9054   20.5433 C   0  0  0  0  0  0
  -28.7879  -23.3424   20.6185 N   0  0  0  0  0  0
  -29.3296  -20.6485   20.4975 N   0  0  0  0  0  0
  -29.7473  -16.3206   20.4669 N   0  0  0  0  0  0
  -28.3279  -19.0142   19.2258 O   0  0  0  0  0  0
  -28.0812  -22.2860   18.4199 S   0  0  0  0  0  0
  -31.4672  -12.8707   19.1769 H   0  0  0  0  0  0
  -30.4771  -11.7635   20.0835 H   0  0  0  0  0  0
  -29.8759  -11.7141   17.6402 H   0  0  0  0  0  0
  -29.5913  -13.4386   17.6542 H   0  0  0  0  0  0
  -27.9940  -11.2668   19.0339 H   0  0  0  0  0  0
  -27.4038  -12.3795   17.8285 H   0  0  0  0  0  0
  -27.5571  -14.2401   19.3539 H   0  0  0  0  0  0
  -28.7876  -12.4196   21.4794 H   0  0  0  0  0  0
  -28.3327  -14.0966   21.6989 H   0  0  0  0  0  0
  -25.2773   -9.5698   22.4782 H   0  0  0  0  0  0
  -24.0019   -7.4642   22.7478 H   0  0  0  0  0  0
  -21.0854   -8.8795   19.8952 H   0  0  0  0  0  0
  -22.3715  -10.9695   19.6178 H   0  0  0  0  0  0
  -21.2008   -7.6153   23.9724 H   0  0  0  0  0  0
  -21.1475   -6.0516   25.9078 H   0  0  0  0  0  0
  -22.0600   -2.7617   23.2841 H   0  0  0  0  0  0
  -22.4035  -11.9905   22.4866 H   0  0  0  0  0  0
  -21.1045  -13.1266   22.2596 H   0  0  0  0  0  0
  -24.6419  -15.8476   20.5290 H   0  0  0  0  0  0
  -26.2500  -15.6357   20.0616 H   0  0  0  0  0  0
  -26.7394  -32.5149   23.0956 H   0  0  0  0  0  0
  -25.0097  -33.9508   25.0225 H   0  0  0  0  0  0
  -22.7809  -31.2736   21.3575 H   0  0  0  0  0  0
  -23.3754  -35.9564   23.3332 H   0  0  0  0  0  0
  -24.3563  -36.8835   22.2057 H   0  0  0  0  0  0
  -23.7281  -37.6430   23.6676 H   0  0  0  0  0  0
  -26.2216  -31.4186   20.6253 H   0  0  0  0  0  0
  -26.8948  -30.7073   22.0538 H   0  0  0  0  0  0
  -28.1641  -28.7040   21.2187 H   0  0  0  0  0  0
  -25.8499  -25.7305   19.1270 H   0  0  0  0  0  0
  -23.9717  -27.2357   19.0472 H   0  0  0  0  0  0
  -23.8712  -30.5358   19.3940 H   0  0  0  0  0  0
  -22.8184  -29.2225   19.8248 H   0  0  0  0  0  0
  -25.1347  -36.1792   25.0789 H   0  0  0  0  0  0
  -21.0048  -28.3365   24.1317 H   0  0  0  0  0  0
  -20.5704  -26.2385   23.3647 H   0  0  0  0  0  0
  -21.6668  -26.7426   22.1209 H   0  0  0  0  0  0
  -19.6941  -25.6283   21.1286 H   0  0  0  0  0  0
  -19.6719  -27.3162   20.6728 H   0  0  0  0  0  0
  -17.4244  -26.6731   21.4008 H   0  0  0  0  0  0
  -18.0336  -26.0088   22.9006 H   0  0  0  0  0  0
  -19.7981  -30.7335   24.2211 H   0  0  0  0  0  0
  -17.5042  -31.6276   24.5181 H   0  0  0  0  0  0
  -15.5381  -30.2977   23.7684 H   0  0  0  0  0  0
  -15.8723  -28.0807   22.7103 H   0  0  0  0  0  0
  -24.5848  -30.7207   25.7709 H   0  0  0  0  0  0
  -24.8874  -32.3063   26.4683 H   0  0  0  0  0  0
  -25.7865  -30.9098   27.0271 H   0  0  0  0  0  0
  -26.3115  -29.6613   24.1440 H   0  0  0  0  0  0
  -27.3932  -29.7289   25.5150 H   0  0  0  0  0  0
  -27.9078  -30.4109   23.9917 H   0  0  0  0  0  0
  -27.2609  -33.3695   26.2042 H   0  0  0  0  0  0
  -28.3906  -32.6910   25.0408 H   0  0  0  0  0  0
  -28.0691  -31.8572   26.5541 H   0  0  0  0  0  0
  -28.2610  -38.0061   24.7470 H   0  0  0  0  0  0
  -28.1047  -36.2586   24.6347 H   0  0  0  0  0  0
  -27.2285  -37.1494   25.8874 H   0  0  0  0  0  0
  -20.9613  -29.8717   21.6657 H   0  0  0  0  0  0
  -26.0147  -38.2784   24.1355 H   0  0  0  0  0  0
  -27.8081  -25.9159   17.5276 H   0  0  0  0  0  0
  -26.5756  -24.7154   17.1154 H   0  0  0  0  0  0
  -28.2299  -24.5250   16.5448 H   0  0  0  0  0  0
  -30.3918  -18.0926   21.5756 H   0  0  0  0  0  0
  -31.0247  -18.0003   19.9796 H   0  0  0  0  0  0
  -29.9799  -20.7355   21.2644 H   0  0  0  0  0  0
  -28.7549  -16.1500   20.5205 H   0  0  0  0  0  0
  1 25  1  0  0  0
  1 30  2  0  0  0
  1 79  1  0  0  0
  2  3  1  0  0  0
  2 25  1  0  0  0
  2 82  1  0  0  0
  2 83  1  0  0  0
  3  4  1  0  0  0
  3 84  1  0  0  0
  3 85  1  0  0  0
  4  5  1  0  0  0
  4 86  1  0  0  0
  4 87  1  0  0  0
  5  6  1  0  0  0
  5 26  1  0  0  0
  5 88  1  0  0  0
  6 25  1  0  0  0
  6 89  1  0  0  0
  6 90  1  0  0  0
  7  8  2  0  0  0
  7 26  1  0  0  0
  7 29  1  0  0  0
  8  9  1  0  0  0
  8 22  1  0  0  0
  9 10  1  0  0  0
  9 27  2  0  0  0
 10 11  2  0  0  0
 10 15  1  0  0  0
 11 12  1  0  0  0
 11 91  1  0  0  0
 12 13  2  0  0  0
 12 92  1  0  0  0
 13 14  1  0  0  0
 13 31  1  0  0  0
 14 15  2  0  0  0
 14 93  1  0  0  0
 15 94  1  0  0  0
 16 17  2  0  0  0
 16 21  1  0  0  0
 16 31  1  0  0  0
 17 18  1  0  0  0
 17 95  1  0  0  0
 18 19  2  0  0  0
 18 96  1  0  0  0
 19 20  1  0  0  0
 19 24  1  0  0  0
 20 21  2  0  0  0
 20 97  1  0  0  0
 21 23  1  0  0  0
 22 28  1  0  0  0
 22 32  2  0  0  0
 26 27  1  0  0  0
 28 98  1  0  0  0
 28 99  1  0  0  0
 29100  1  0  0  0
 29101  1  0  0  0
 33 34  1  0  0  0
 33 66  1  0  0  0
 33 70  2  0  0  0
 34 36  1  0  0  0
 34 59  1  0  0  0
 34102  1  0  0  0
 35 44  2  0  0  0
 35 45  1  0  0  0
 35 68  1  0  0  0
 36 56  1  0  0  0
 36103  1  0  0  0
 37 39  1  0  0  0
 37 47  1  0  0  0
 37 66  1  0  0  0
 37104  1  0  0  0
 38 43  2  0  0  0
 38 46  1  0  0  0
 38 47  1  0  0  0
 39 64  1  0  0  0
 39 67  2  0  0  0
 40 52  1  0  0  0
 40 53  2  0  0  0
 40 58  1  0  0  0
 41105  1  0  0  0
 41106  1  0  0  0
 41107  1  0  0  0
 41 48  1  0  0  0
 42 43  1  0  0  0
 42 66  1  0  0  0
 42108  1  0  0  0
 42109  1  0  0  0
 43 44  1  0  0  0
 44110  1  0  0  0
 45 46  2  0  0  0
 45111  1  0  0  0
 46112  1  0  0  0
 47113  1  0  0  0
 47114  1  0  0  0
 48 56  1  0  0  0
 48 65  1  0  0  0
 48115  1  0  0  0
 49 50  1  0  0  0
 49 53  1  0  0  0
 49 64  1  0  0  0
 49116  1  0  0  0
 50 51  1  0  0  0
 50117  1  0  0  0
 50118  1  0  0  0
 51 52  1  0  0  0
 51119  1  0  0  0
 51120  1  0  0  0
 52121  1  0  0  0
 52122  1  0  0  0
 53 54  1  0  0  0
 54 55  2  0  0  0
 54123  1  0  0  0
 55 57  1  0  0  0
 55124  1  0  0  0
 56 69  2  0  0  0
 57 58  2  0  0  0
 57125  1  0  0  0
 58126  1  0  0  0
 59 60  1  0  0  0
 59 61  1  0  0  0
 59 62  1  0  0  0
 60127  1  0  0  0
 60128  1  0  0  0
 60129  1  0  0  0
 61130  1  0  0  0
 61131  1  0  0  0
 61132  1  0  0  0
 62133  1  0  0  0
 62134  1  0  0  0
 62135  1  0  0  0
 63 65  1  0  0  0
 63136  1  0  0  0
 63137  1  0  0  0
 63138  1  0  0  0
 64139  1  0  0  0
 65140  1  0  0  0
 68 72  1  0  0  0
 71 72  2  0  0  0
 71 75  1  0  0  0
 71 81  1  0  0  0
 72 77  1  0  0  0
 73 77  2  0  0  0
 73 78  1  0  0  0
 73 81  1  0  0  0
 74 76  1  0  0  0
 74 78  1  0  0  0
 74 80  2  0  0  0
 75141  1  0  0  0
 75142  1  0  0  0
 75143  1  0  0  0
 76 79  1  0  0  0
 76144  1  0  0  0
 76145  1  0  0  0
 78146  1  0  0  0
 79147  1  0  0  0
M  ISO  4   1 100  68 101  72 101  79 100
M  END
> <chiral flag>
0

> <version>
0

> <s_m_source_file>
/data/baiqing/PycharmProjects/Reinvent-master-3.2/result/LINK_invent/BTK/process_docking_weight1_custom_product_contain_oxygen_bond_distance_aromatic_linkinvent_7_9_3/rearranged_h_0196.sdf

> <i_m_source_file_index>
41

> <r_mmod_Potential_Energy-OPLS-2005>
556.648620605469

> <r_mmod_Stretch_Energy-OPLS-2005>
355.724212646484

> <r_mmod_Bend_Energy-OPLS-2005>
305.939666748047

> <r_mmod_Torsional_Energy-OPLS-2005>
213.969009399414

> <r_mmod_Improper_Torsional_Energy-OPLS-2005>
5.97829627990723

> <r_mmod_Van_der_Waal_Energy-OPLS-2005>
106.802337646484

> <r_mmod_Electrostatic_Energy-OPLS-2005>
-502.350189208984

> <r_mmod_Solvation_Energy-OPLS-2005>
-239.576766967773

> <b_mmod_Minimization_Converged-OPLS-2005>
0

> <r_mmod_RMS_Derivative-OPLS-2005>
2.5106680393219

$$$$
41
                    3D
 Structure written by MMmdl.
149157  0  0  1  0            999 V2000
  -30.6085  -14.7487   20.4479 C   0  0  0  0  0  0
  -30.4297  -12.4497   19.4907 C   0  0  0  0  0  0
  -29.5176  -12.5156   18.2449 C   0  0  0  0  0  0
  -28.0408  -12.3405   18.6483 C   0  0  0  0  0  0
  -27.6436  -13.2349   19.8535 C   0  0  2  0  0  0
  -28.6833  -13.1656   20.9945 C   0  0  0  0  0  0
  -25.2514  -13.8200   20.5681 C   0  0  0  0  0  0
  -24.1803  -13.0442   20.9187 C   0  0  0  0  0  0
  -24.6393  -11.6922   20.8728 C   0  0  0  0  0  0
  -23.9067  -10.4294   21.0395 C   0  0  0  0  0  0
  -24.3621   -9.4212   21.9175 C   0  0  0  0  0  0
  -23.6295   -8.2248   22.0749 C   0  0  0  0  0  0
  -22.4278   -8.0277   21.3542 C   0  0  0  0  0  0
  -21.9915   -9.0250   20.4643 C   0  0  0  0  0  0
  -22.7240  -10.2129   20.3047 C   0  0  0  0  0  0
  -21.6857   -6.0732   22.5280 C   0  0  0  0  0  0
  -21.4018   -6.5639   23.8212 C   0  0  0  0  0  0
  -21.3663   -5.6792   24.9177 C   0  0  0  0  0  0
  -21.6045   -4.3053   24.7225 C   0  0  0  0  0  0
  -21.8821   -3.8143   23.4349 C   0  0  0  0  0  0
  -21.9193   -4.6960   22.3405 C   0  0  0  0  0  0
  -22.7822  -13.5221   21.1854 C   0  0  0  0  0  0
  -22.1657   -4.2146   21.0984 F   0  0  0  0  0  0
  -21.5630   -3.4537   25.7737 F   0  0  0  0  0  0
  -29.9910  -13.5147   20.4257 N   0  0  0  0  0  0
  -26.2944  -12.9409   20.3270 N   0  0  0  0  0  0
  -25.9325  -11.6551   20.5732 N   0  0  0  0  0  0
  -22.0464  -12.8216   22.0410 N   0  0  0  0  0  0
  -25.4197  -15.1929   20.4107 N   0  0  0  0  0  0
  -31.7875  -14.8344   20.0874 O   0  0  0  0  0  0
  -21.6646   -6.8874   21.4239 O   0  0  0  0  0  0
  -22.3515  -14.5522   20.6690 O   0  0  0  0  0  0
  -24.6327  -31.8544   23.1983 C   0  0  0  0  0  0
  -25.9153  -32.4744   23.8329 C   0  0  1  0  0  0
  -27.2122  -27.2412   20.1304 C   0  0  0  0  0  0
  -25.5945  -33.8548   24.2247 N   0  0  0  0  0  0
  -23.4300  -30.4782   21.5420 C   0  0  2  0  0  0
  -24.8763  -28.9273   20.1059 C   0  0  0  0  0  0
  -22.7510  -29.4598   22.4903 C   0  0  0  0  0  0
  -18.0296  -28.1387   22.8481 C   0  0  0  0  0  0
  -24.1494  -36.7285   23.2638 C   0  0  0  0  0  0
  -25.9776  -30.7588   21.3840 C   0  0  0  0  0  0
  -26.0480  -29.3808   20.7249 C   0  0  0  0  0  0
  -27.2162  -28.5485   20.7319 C   0  0  0  0  0  0
  -26.0240  -26.8776   19.4542 C   0  0  0  0  0  0
  -24.8715  -27.6848   19.4582 C   0  0  0  0  0  0
  -23.6484  -29.8162   20.1569 C   0  0  0  0  0  0
  -25.4121  -36.3065   24.0321 C   0  0  1  0  0  0
  -20.5899  -28.3700   23.1262 C   0  0  2  0  0  0
  -20.6785  -26.9416   22.5403 C   0  0  0  0  0  0
  -19.5761  -26.6383   21.5209 C   0  0  0  0  0  0
  -18.1940  -26.7929   22.1620 C   0  0  0  0  0  0
  -19.1549  -28.8863   23.2864 C   0  0  0  0  0  0
  -18.9468  -30.1463   23.8883 C   0  0  0  0  0  0
  -17.6465  -30.6587   24.0561 C   0  0  0  0  0  0
  -25.9063  -34.9433   23.5086 C   0  0  0  0  0  0
  -16.5356  -29.9081   23.6331 C   0  0  0  0  0  0
  -16.7280  -28.6499   23.0351 C   0  0  0  0  0  0
  -26.4509  -31.6575   25.0726 C   0  0  0  0  0  0
  -25.3721  -31.3731   26.1441 C   0  0  0  0  0  0
  -27.0362  -30.2987   24.6230 C   0  0  0  0  0  0
  -27.6056  -32.4316   25.7508 C   0  0  0  0  0  0
  -27.5578  -37.1801   24.8462 C   0  0  0  0  0  0
  -21.4215  -29.3047   22.3650 N   0  0  0  0  0  0
  -26.4294  -37.3765   23.9401 N   0  0  0  0  0  0
  -24.6992  -31.0490   22.0973 N   0  0  0  0  0  0
  -23.4202  -28.8134   23.3007 O   0  0  0  0  0  0
  -28.2861  -26.3151   20.2218 O   0  0  0  0  0  0
  -26.5632  -34.8912   22.4653 O   0  0  0  0  0  0
  -23.5473  -32.1381   23.7261 O   0  0  0  0  0  0
  -29.9569  -17.2519   20.1783 C   0  0  0  0  0  0
  -29.5627  -19.6132   20.1043 C   0  0  0  0  0  0
  -28.7776  -22.1316   19.8987 C   0  0  0  0  0  0
  -28.0351  -24.8460   19.9484 C   0  0  0  0  0  0
  -28.8938  -23.6083   20.5770 C   0  0  1  0  0  0
  -29.4959  -18.4141   20.8068 N   0  0  0  0  0  0
  -30.4498  -17.3527   18.9184 N   0  0  0  0  0  0
  -30.0307  -19.6580   18.8424 N   0  0  0  0  0  0
  -30.4696  -18.5286   18.2775 N   0  0  0  0  0  0
  -29.8661  -15.8844   20.7532 N   0  0  0  0  0  0
  -29.1904  -20.8896   20.6812 N   0  0  0  0  0  0
  -28.4451  -23.4163   21.9092 O   0  0  0  0  0  0
  -31.4759  -12.5563   19.1985 H   0  0  0  0  0  0
  -30.3553  -11.4710   19.9671 H   0  0  0  0  0  0
  -29.8050  -11.7498   17.5227 H   0  0  0  0  0  0
  -29.6507  -13.4748   17.7429 H   0  0  0  0  0  0
  -27.8923  -11.2908   18.9019 H   0  0  0  0  0  0
  -27.3896  -12.5412   17.7964 H   0  0  0  0  0  0
  -27.6390  -14.2584   19.4777 H   0  0  0  0  0  0
  -28.7115  -12.1662   21.4309 H   0  0  0  0  0  0
  -28.4137  -13.8429   21.8056 H   0  0  0  0  0  0
  -25.2762   -9.5697   22.4756 H   0  0  0  0  0  0
  -24.0003   -7.4648   22.7480 H   0  0  0  0  0  0
  -21.0841   -8.8773   19.8957 H   0  0  0  0  0  0
  -22.3694  -10.9666   19.6163 H   0  0  0  0  0  0
  -21.2014   -7.6147   23.9717 H   0  0  0  0  0  0
  -21.1481   -6.0521   25.9081 H   0  0  0  0  0  0
  -22.0594   -2.7604   23.2853 H   0  0  0  0  0  0
  -22.4064  -11.9883   22.4823 H   0  0  0  0  0  0
  -21.1079  -13.1247   22.2590 H   0  0  0  0  0  0
  -24.6491  -15.8431   20.5189 H   0  0  0  0  0  0
  -26.2638  -15.6341   20.0708 H   0  0  0  0  0  0
  -26.7214  -32.5381   23.1061 H   0  0  0  0  0  0
  -25.0089  -33.9682   25.0388 H   0  0  0  0  0  0
  -22.7270  -31.3012   21.3979 H   0  0  0  0  0  0
  -23.3755  -35.9621   23.3295 H   0  0  0  0  0  0
  -24.3585  -36.8916   22.2056 H   0  0  0  0  0  0
  -23.7253  -37.6485   23.6669 H   0  0  0  0  0  0
  -26.1217  -31.5181   20.6142 H   0  0  0  0  0  0
  -26.8538  -30.8060   22.0191 H   0  0  0  0  0  0
  -28.1055  -28.8848   21.2466 H   0  0  0  0  0  0
  -25.9465  -25.9424   18.9212 H   0  0  0  0  0  0
  -23.9805  -27.3393   18.9527 H   0  0  0  0  0  0
  -23.7726  -30.5947   19.4035 H   0  0  0  0  0  0
  -22.7659  -29.2521   19.8504 H   0  0  0  0  0  0
  -25.1304  -36.1911   25.0815 H   0  0  0  0  0  0
  -20.9989  -28.3280   24.1385 H   0  0  0  0  0  0
  -20.5692  -26.2307   23.3609 H   0  0  0  0  0  0
  -21.6651  -26.7444   22.1194 H   0  0  0  0  0  0
  -19.6925  -25.6292   21.1244 H   0  0  0  0  0  0
  -19.6702  -27.3187   20.6738 H   0  0  0  0  0  0
  -17.4209  -26.6671   21.4022 H   0  0  0  0  0  0
  -18.0342  -26.0071   22.9019 H   0  0  0  0  0  0
  -19.7945  -30.7284   24.2237 H   0  0  0  0  0  0
  -17.5022  -31.6267   24.5166 H   0  0  0  0  0  0
  -15.5356  -30.2980   23.7671 H   0  0  0  0  0  0
  -15.8678  -28.0820   22.7069 H   0  0  0  0  0  0
  -24.5901  -30.7076   25.7766 H   0  0  0  0  0  0
  -24.8912  -32.2906   26.4843 H   0  0  0  0  0  0
  -25.8035  -30.8923   27.0230 H   0  0  0  0  0  0
  -26.2957  -29.6724   24.1242 H   0  0  0  0  0  0
  -27.4024  -29.7258   25.4759 H   0  0  0  0  0  0
  -27.8844  -30.4252   23.9497 H   0  0  0  0  0  0
  -27.2659  -33.3621   26.2067 H   0  0  0  0  0  0
  -28.3884  -32.6866   25.0351 H   0  0  0  0  0  0
  -28.0704  -31.8452   26.5441 H   0  0  0  0  0  0
  -28.2589  -38.0102   24.7505 H   0  0  0  0  0  0
  -28.1081  -36.2632   24.6294 H   0  0  0  0  0  0
  -27.2293  -37.1452   25.8863 H   0  0  0  0  0  0
  -20.9400  -29.8772   21.6858 H   0  0  0  0  0  0
  -26.0170  -38.2840   24.1396 H   0  0  0  0  0  0
  -29.3183  -22.1559   18.9516 H   0  0  0  0  0  0
  -27.7346  -21.9762   19.6209 H   0  0  0  0  0  0
  -27.0013  -24.6090   20.1994 H   0  0  0  0  0  0
  -28.0950  -24.7494   18.8638 H   0  0  0  0  0  0
  -29.9467  -23.8927   20.6004 H   0  0  0  0  0  0
  -29.0209  -15.7106   21.2723 H   0  0  0  0  0  0
  -28.8712  -20.8799   21.6450 H   0  0  0  0  0  0
  -28.5554  -24.2470   22.3629 H   0  0  0  0  0  0
  1 25  1  0  0  0
  1 30  2  0  0  0
  1 80  1  0  0  0
  2  3  1  0  0  0
  2 25  1  0  0  0
  2 83  1  0  0  0
  2 84  1  0  0  0
  3  4  1  0  0  0
  3 85  1  0  0  0
  3 86  1  0  0  0
  4  5  1  0  0  0
  4 87  1  0  0  0
  4 88  1  0  0  0
  5  6  1  0  0  0
  5 26  1  0  0  0
  5 89  1  0  0  0
  6 25  1  0  0  0
  6 90  1  0  0  0
  6 91  1  0  0  0
  7  8  2  0  0  0
  7 26  1  0  0  0
  7 29  1  0  0  0
  8  9  1  0  0  0
  8 22  1  0  0  0
  9 10  1  0  0  0
  9 27  2  0  0  0
 10 11  2  0  0  0
 10 15  1  0  0  0
 11 12  1  0  0  0
 11 92  1  0  0  0
 12 13  2  0  0  0
 12 93  1  0  0  0
 13 14  1  0  0  0
 13 31  1  0  0  0
 14 15  2  0  0  0
 14 94  1  0  0  0
 15 95  1  0  0  0
 16 17  2  0  0  0
 16 21  1  0  0  0
 16 31  1  0  0  0
 17 18  1  0  0  0
 17 96  1  0  0  0
 18 19  2  0  0  0
 18 97  1  0  0  0
 19 20  1  0  0  0
 19 24  1  0  0  0
 20 21  2  0  0  0
 20 98  1  0  0  0
 21 23  1  0  0  0
 22 28  1  0  0  0
 22 32  2  0  0  0
 26 27  1  0  0  0
 28 99  1  0  0  0
 28100  1  0  0  0
 29101  1  0  0  0
 29102  1  0  0  0
 33 34  1  0  0  0
 33 66  1  0  0  0
 33 70  2  0  0  0
 34 36  1  0  0  0
 34 59  1  0  0  0
 34103  1  0  0  0
 35 44  2  0  0  0
 35 45  1  0  0  0
 35 68  1  0  0  0
 36 56  1  0  0  0
 36104  1  0  0  0
 37 39  1  0  0  0
 37 47  1  0  0  0
 37 66  1  0  0  0
 37105  1  0  0  0
 38 43  2  0  0  0
 38 46  1  0  0  0
 38 47  1  0  0  0
 39 64  1  0  0  0
 39 67  2  0  0  0
 40 52  1  0  0  0
 40 53  2  0  0  0
 40 58  1  0  0  0
 41106  1  0  0  0
 41107  1  0  0  0
 41108  1  0  0  0
 41 48  1  0  0  0
 42 43  1  0  0  0
 42 66  1  0  0  0
 42109  1  0  0  0
 42110  1  0  0  0
 43 44  1  0  0  0
 44111  1  0  0  0
 45 46  2  0  0  0
 45112  1  0  0  0
 46113  1  0  0  0
 47114  1  0  0  0
 47115  1  0  0  0
 48 56  1  0  0  0
 48 65  1  0  0  0
 48116  1  0  0  0
 49 50  1  0  0  0
 49 53  1  0  0  0
 49 64  1  0  0  0
 49117  1  0  0  0
 50 51  1  0  0  0
 50118  1  0  0  0
 50119  1  0  0  0
 51 52  1  0  0  0
 51120  1  0  0  0
 51121  1  0  0  0
 52122  1  0  0  0
 52123  1  0  0  0
 53 54  1  0  0  0
 54 55  2  0  0  0
 54124  1  0  0  0
 55 57  1  0  0  0
 55125  1  0  0  0
 56 69  2  0  0  0
 57 58  2  0  0  0
 57126  1  0  0  0
 58127  1  0  0  0
 59 60  1  0  0  0
 59 61  1  0  0  0
 59 62  1  0  0  0
 60128  1  0  0  0
 60129  1  0  0  0
 60130  1  0  0  0
 61131  1  0  0  0
 61132  1  0  0  0
 61133  1  0  0  0
 62134  1  0  0  0
 62135  1  0  0  0
 62136  1  0  0  0
 63 65  1  0  0  0
 63137  1  0  0  0
 63138  1  0  0  0
 63139  1  0  0  0
 64140  1  0  0  0
 65141  1  0  0  0
 68 74  1  0  0  0
 71 76  2  0  0  0
 71 77  1  0  0  0
 71 80  1  0  0  0
 72 76  1  0  0  0
 72 78  2  0  0  0
 72 81  1  0  0  0
 73 75  1  0  0  0
 73 81  1  0  0  0
 73142  1  0  0  0
 73143  1  0  0  0
 74 75  1  0  0  0
 74144  1  0  0  0
 74145  1  0  0  0
 75 82  1  0  0  0
 75146  1  0  0  0
 77 79  2  0  0  0
 78 79  1  0  0  0
 80147  1  0  0  0
 81148  1  0  0  0
 82149  1  0  0  0
M  ISO  4   1 100  68 101  74 101  80 100
M  END
> <chiral flag>
0

> <version>
0

> <s_m_source_file>
/data/baiqing/PycharmProjects/Reinvent-master-3.2/result/LINK_invent/BTK/process_docking_weight1_custom_product_contain_oxygen_bond_distance_aromatic_linkinvent_7_9_3/rearranged_h_0196.sdf

> <i_m_source_file_index>
42

> <r_mmod_Potential_Energy-OPLS-2005>
27.7590141296387

> <r_mmod_Stretch_Energy-OPLS-2005>
131.349044799805

> <r_mmod_Bend_Energy-OPLS-2005>
182.600463867188

> <r_mmod_Torsional_Energy-OPLS-2005>
247.445098876953

> <r_mmod_Improper_Torsional_Energy-OPLS-2005>
5.02815961837769

> <r_mmod_Van_der_Waal_Energy-OPLS-2005>
153.118728637695

> <r_mmod_Electrostatic_Energy-OPLS-2005>
-540.002685546875

> <r_mmod_Solvation_Energy-OPLS-2005>
-245.851196289062

> <b_mmod_Minimization_Converged-OPLS-2005>
0

> <r_mmod_RMS_Derivative-OPLS-2005>
1.15752410888672

$$$$
42
                    3D
 Structure written by MMmdl.
155163  0  0  1  0            999 V2000
  -30.7069  -14.4644   20.5795 C   0  0  0  0  0  0
  -30.4254  -12.3048   19.4216 C   0  0  0  0  0  0
  -29.4973  -12.5114   18.2062 C   0  0  0  0  0  0
  -28.0177  -12.3676   18.6153 C   0  0  0  0  0  0
  -27.6631  -13.2021   19.8747 C   0  0  2  0  0  0
  -28.7048  -12.9791   20.9962 C   0  0  0  0  0  0
  -25.2595  -13.8145   20.5662 C   0  0  0  0  0  0
  -24.1848  -13.0428   20.9178 C   0  0  0  0  0  0
  -24.6394  -11.6895   20.8723 C   0  0  0  0  0  0
  -23.9054  -10.4288   21.0398 C   0  0  0  0  0  0
  -24.3615   -9.4211   21.9180 C   0  0  0  0  0  0
  -23.6295   -8.2243   22.0753 C   0  0  0  0  0  0
  -22.4277   -8.0275   21.3541 C   0  0  0  0  0  0
  -21.9904   -9.0247   20.4644 C   0  0  0  0  0  0
  -22.7224  -10.2130   20.3049 C   0  0  0  0  0  0
  -21.6853   -6.0730   22.5275 C   0  0  0  0  0  0
  -21.4016   -6.5638   23.8207 C   0  0  0  0  0  0
  -21.3662   -5.6792   24.9171 C   0  0  0  0  0  0
  -21.6045   -4.3054   24.7223 C   0  0  0  0  0  0
  -21.8824   -3.8143   23.4346 C   0  0  0  0  0  0
  -21.9196   -4.6958   22.3402 C   0  0  0  0  0  0
  -22.7870  -13.5232   21.1840 C   0  0  0  0  0  0
  -22.1662   -4.2147   21.0975 F   0  0  0  0  0  0
  -21.5631   -3.4537   25.7734 F   0  0  0  0  0  0
  -30.0408  -13.2830   20.4510 N   0  0  0  0  0  0
  -26.3029  -12.9309   20.3343 N   0  0  0  0  0  0
  -25.9321  -11.6477   20.5753 N   0  0  0  0  0  0
  -22.0506  -12.8233   22.0397 N   0  0  0  0  0  0
  -25.4307  -15.1865   20.4054 N   0  0  0  0  0  0
  -31.8227  -14.6617   20.0888 O   0  0  0  0  0  0
  -21.6641   -6.8873   21.4237 O   0  0  0  0  0  0
  -22.3563  -14.5538   20.6683 O   0  0  0  0  0  0
  -24.6156  -31.8689   23.2127 C   0  0  0  0  0  0
  -25.9053  -32.4832   23.8413 C   0  0  1  0  0  0
  -27.2304  -27.4214   20.0804 C   0  0  0  0  0  0
  -25.5907  -33.8630   24.2336 N   0  0  0  0  0  0
  -23.4026  -30.4958   21.5542 C   0  0  2  0  0  0
  -24.8463  -28.9678   20.1135 C   0  0  0  0  0  0
  -22.7411  -29.4670   22.4994 C   0  0  0  0  0  0
  -18.0273  -28.1375   22.8490 C   0  0  0  0  0  0
  -24.1486  -36.7319   23.2637 C   0  0  0  0  0  0
  -25.9360  -30.8261   21.3736 C   0  0  0  0  0  0
  -26.0084  -29.4617   20.7171 C   0  0  0  0  0  0
  -27.1972  -28.6925   20.7070 C   0  0  0  0  0  0
  -26.0428  -26.9607   19.4559 C   0  0  0  0  0  0
  -24.8594  -27.7162   19.4838 C   0  0  0  0  0  0
  -23.6100  -29.8351   20.1668 C   0  0  0  0  0  0
  -25.4108  -36.3118   24.0337 C   0  0  1  0  0  0
  -20.5862  -28.3662   23.1314 C   0  0  2  0  0  0
  -20.6763  -26.9401   22.5411 C   0  0  0  0  0  0
  -19.5742  -26.6383   21.5206 C   0  0  0  0  0  0
  -18.1922  -26.7921   22.1619 C   0  0  0  0  0  0
  -19.1520  -28.8835   23.2900 C   0  0  0  0  0  0
  -18.9449  -30.1440   23.8912 C   0  0  0  0  0  0
  -17.6451  -30.6583   24.0562 C   0  0  0  0  0  0
  -25.9036  -34.9482   23.5129 C   0  0  0  0  0  0
  -16.5343  -29.9083   23.6330 C   0  0  0  0  0  0
  -16.7261  -28.6498   23.0356 C   0  0  0  0  0  0
  -26.4470  -31.6618   25.0750 C   0  0  0  0  0  0
  -25.3727  -31.3733   26.1492 C   0  0  0  0  0  0
  -27.0314  -30.3060   24.6154 C   0  0  0  0  0  0
  -27.6045  -32.4345   25.7504 C   0  0  0  0  0  0
  -27.5584  -37.1815   24.8464 C   0  0  0  0  0  0
  -21.4137  -29.3034   22.3725 N   0  0  0  0  0  0
  -26.4300  -37.3800   23.9403 N   0  0  0  0  0  0
  -24.6697  -31.0778   22.1042 N   0  0  0  0  0  0
  -23.4184  -28.8201   23.3032 O   0  0  0  0  0  0
  -28.4047  -26.6806   20.1204 O   0  0  0  0  0  0
  -26.5591  -34.8926   22.4689 O   0  0  0  0  0  0
  -23.5349  -32.1454   23.7511 O   0  0  0  0  0  0
  -30.8837  -18.9653   20.6250 C   0  0  0  0  0  0
  -28.9657  -17.2034   19.9120 C   0  0  0  0  0  0
  -29.8312  -19.3360   19.7517 C   0  0  0  0  0  0
  -30.0328  -16.7975   20.7526 C   0  0  0  0  0  0
  -29.6979  -20.6471   19.0769 C   0  0  0  0  0  0
  -29.4758  -23.1351   19.0404 C   0  0  0  0  0  0
  -28.4677  -25.4303   19.4071 C   0  0  0  0  0  0
  -29.5100  -24.4085   19.9356 C   0  0  2  0  0  0
  -28.8603  -18.4535   19.4046 N   0  0  0  0  0  0
  -30.9866  -17.6983   21.1231 N   0  0  0  0  0  0
  -29.4443  -20.6091   17.7575 N   0  0  0  0  0  0
  -30.0183  -15.4455   21.1864 N   0  0  0  0  0  0
  -29.7808  -21.8461   19.7049 N   0  3  0  0  0  0
  -30.8035  -24.9861   19.8262 O   0  0  0  0  0  0
  -31.4699  -12.4023   19.1208 H   0  0  0  0  0  0
  -30.3221  -11.2911   19.8127 H   0  0  0  0  0  0
  -29.7396  -11.7919   17.4229 H   0  0  0  0  0  0
  -29.6667  -13.4993   17.7751 H   0  0  0  0  0  0
  -27.8282  -11.3104   18.8065 H   0  0  0  0  0  0
  -27.3687  -12.6452   17.7835 H   0  0  0  0  0  0
  -27.7071  -14.2485   19.5784 H   0  0  0  0  0  0
  -28.6788  -11.9407   21.3306 H   0  0  0  0  0  0
  -28.4607  -13.5713   21.8791 H   0  0  0  0  0  0
  -25.2766   -9.5695   22.4748 H   0  0  0  0  0  0
  -24.0006   -7.4644   22.7477 H   0  0  0  0  0  0
  -21.0829   -8.8757   19.8963 H   0  0  0  0  0  0
  -22.3672  -10.9665   19.6156 H   0  0  0  0  0  0
  -21.2006   -7.6147   23.9708 H   0  0  0  0  0  0
  -21.1481   -6.0522   25.9073 H   0  0  0  0  0  0
  -22.0603   -2.7606   23.2841 H   0  0  0  0  0  0
  -22.4101  -11.9886   22.4788 H   0  0  0  0  0  0
  -21.1128  -13.1269   22.2598 H   0  0  0  0  0  0
  -24.6565  -15.8348   20.5016 H   0  0  0  0  0  0
  -26.2641  -15.6229   20.0359 H   0  0  0  0  0  0
  -26.7119  -32.5535   23.1170 H   0  0  0  0  0  0
  -25.0060  -33.9797   25.0481 H   0  0  0  0  0  0
  -22.6923  -31.3141   21.4187 H   0  0  0  0  0  0
  -23.3747  -35.9656   23.3312 H   0  0  0  0  0  0
  -24.3579  -36.8924   22.2051 H   0  0  0  0  0  0
  -23.7244  -37.6529   23.6642 H   0  0  0  0  0  0
  -26.0580  -31.5938   20.6080 H   0  0  0  0  0  0
  -26.8210  -30.8728   21.9968 H   0  0  0  0  0  0
  -28.0902  -29.0688   21.1861 H   0  0  0  0  0  0
  -25.9764  -26.0229   18.9294 H   0  0  0  0  0  0
  -23.9689  -27.3328   19.0049 H   0  0  0  0  0  0
  -23.7191  -30.6124   19.4097 H   0  0  0  0  0  0
  -22.7335  -29.2567   19.8688 H   0  0  0  0  0  0
  -25.1287  -36.1986   25.0833 H   0  0  0  0  0  0
  -20.9958  -28.3223   24.1432 H   0  0  0  0  0  0
  -20.5668  -26.2271   23.3594 H   0  0  0  0  0  0
  -21.6635  -26.7451   22.1200 H   0  0  0  0  0  0
  -19.6905  -25.6296   21.1231 H   0  0  0  0  0  0
  -19.6684  -27.3195   20.6736 H   0  0  0  0  0  0
  -17.4194  -26.6670   21.4021 H   0  0  0  0  0  0
  -18.0330  -26.0057   22.9009 H   0  0  0  0  0  0
  -19.7924  -30.7247   24.2298 H   0  0  0  0  0  0
  -17.5009  -31.6271   24.5148 H   0  0  0  0  0  0
  -15.5344  -30.2992   23.7648 H   0  0  0  0  0  0
  -15.8657  -28.0818   22.7080 H   0  0  0  0  0  0
  -24.5876  -30.7114   25.7814 H   0  0  0  0  0  0
  -24.8944  -32.2897   26.4963 H   0  0  0  0  0  0
  -25.8066  -30.8868   27.0236 H   0  0  0  0  0  0
  -26.2878  -29.6816   24.1188 H   0  0  0  0  0  0
  -27.4050  -29.7312   25.4637 H   0  0  0  0  0  0
  -27.8726  -30.4377   23.9345 H   0  0  0  0  0  0
  -27.2660  -33.3625   26.2122 H   0  0  0  0  0  0
  -28.3825  -32.6942   25.0312 H   0  0  0  0  0  0
  -28.0745  -31.8449   26.5384 H   0  0  0  0  0  0
  -28.2608  -38.0104   24.7510 H   0  0  0  0  0  0
  -28.1073  -36.2639   24.6294 H   0  0  0  0  0  0
  -27.2300  -37.1473   25.8867 H   0  0  0  0  0  0
  -20.9296  -29.8773   21.6958 H   0  0  0  0  0  0
  -26.0191  -38.2882   24.1394 H   0  0  0  0  0  0
  -31.6598  -19.6682   20.8892 H   0  0  0  0  0  0
  -28.1933  -16.5092   19.6184 H   0  0  0  0  0  0
  -30.1139  -23.2631   18.1652 H   0  0  0  0  0  0
  -28.4653  -23.0167   18.6480 H   0  0  0  0  0  0
  -27.5301  -24.8889   19.5058 H   0  0  0  0  0  0
  -28.6161  -25.6326   18.3453 H   0  0  0  0  0  0
  -29.3011  -24.1620   20.9775 H   0  0  0  0  0  0
  -29.2979  -19.6978   17.3470 H   0  0  0  0  0  0
  -29.3539  -21.4165   17.1668 H   0  0  0  0  0  0
  -29.1353  -15.1255   21.5525 H   0  0  0  0  0  0
  -30.0006  -21.8732   20.6908 H   0  0  0  0  0  0
  -30.8707  -25.3858   18.9639 H   0  0  0  0  0  0
  1 25  1  0  0  0
  1 30  2  0  0  0
  1 82  1  0  0  0
  2  3  1  0  0  0
  2 25  1  0  0  0
  2 85  1  0  0  0
  2 86  1  0  0  0
  3  4  1  0  0  0
  3 87  1  0  0  0
  3 88  1  0  0  0
  4  5  1  0  0  0
  4 89  1  0  0  0
  4 90  1  0  0  0
  5  6  1  0  0  0
  5 26  1  0  0  0
  5 91  1  0  0  0
  6 25  1  0  0  0
  6 92  1  0  0  0
  6 93  1  0  0  0
  7  8  2  0  0  0
  7 26  1  0  0  0
  7 29  1  0  0  0
  8  9  1  0  0  0
  8 22  1  0  0  0
  9 10  1  0  0  0
  9 27  2  0  0  0
 10 11  2  0  0  0
 10 15  1  0  0  0
 11 12  1  0  0  0
 11 94  1  0  0  0
 12 13  2  0  0  0
 12 95  1  0  0  0
 13 14  1  0  0  0
 13 31  1  0  0  0
 14 15  2  0  0  0
 14 96  1  0  0  0
 15 97  1  0  0  0
 16 17  2  0  0  0
 16 21  1  0  0  0
 16 31  1  0  0  0
 17 18  1  0  0  0
 17 98  1  0  0  0
 18 19  2  0  0  0
 18 99  1  0  0  0
 19 20  1  0  0  0
 19 24  1  0  0  0
 20 21  2  0  0  0
 20100  1  0  0  0
 21 23  1  0  0  0
 22 28  1  0  0  0
 22 32  2  0  0  0
 26 27  1  0  0  0
 28101  1  0  0  0
 28102  1  0  0  0
 29103  1  0  0  0
 29104  1  0  0  0
 33 34  1  0  0  0
 33 66  1  0  0  0
 33 70  2  0  0  0
 34 36  1  0  0  0
 34 59  1  0  0  0
 34105  1  0  0  0
 35 44  2  0  0  0
 35 45  1  0  0  0
 35 68  1  0  0  0
 36 56  1  0  0  0
 36106  1  0  0  0
 37 39  1  0  0  0
 37 47  1  0  0  0
 37 66  1  0  0  0
 37107  1  0  0  0
 38 43  2  0  0  0
 38 46  1  0  0  0
 38 47  1  0  0  0
 39 64  1  0  0  0
 39 67  2  0  0  0
 40 52  1  0  0  0
 40 53  2  0  0  0
 40 58  1  0  0  0
 41108  1  0  0  0
 41109  1  0  0  0
 41110  1  0  0  0
 41 48  1  0  0  0
 42 43  1  0  0  0
 42 66  1  0  0  0
 42111  1  0  0  0
 42112  1  0  0  0
 43 44  1  0  0  0
 44113  1  0  0  0
 45 46  2  0  0  0
 45114  1  0  0  0
 46115  1  0  0  0
 47116  1  0  0  0
 47117  1  0  0  0
 48 56  1  0  0  0
 48 65  1  0  0  0
 48118  1  0  0  0
 49 50  1  0  0  0
 49 53  1  0  0  0
 49 64  1  0  0  0
 49119  1  0  0  0
 50 51  1  0  0  0
 50120  1  0  0  0
 50121  1  0  0  0
 51 52  1  0  0  0
 51122  1  0  0  0
 51123  1  0  0  0
 52124  1  0  0  0
 52125  1  0  0  0
 53 54  1  0  0  0
 54 55  2  0  0  0
 54126  1  0  0  0
 55 57  1  0  0  0
 55127  1  0  0  0
 56 69  2  0  0  0
 57 58  2  0  0  0
 57128  1  0  0  0
 58129  1  0  0  0
 59 60  1  0  0  0
 59 61  1  0  0  0
 59 62  1  0  0  0
 60130  1  0  0  0
 60131  1  0  0  0
 60132  1  0  0  0
 61133  1  0  0  0
 61134  1  0  0  0
 61135  1  0  0  0
 62136  1  0  0  0
 62137  1  0  0  0
 62138  1  0  0  0
 63 65  1  0  0  0
 63139  1  0  0  0
 63140  1  0  0  0
 63141  1  0  0  0
 64142  1  0  0  0
 65143  1  0  0  0
 68 77  1  0  0  0
 71 73  2  0  0  0
 71 80  1  0  0  0
 71144  1  0  0  0
 72 74  1  0  0  0
 72 79  2  0  0  0
 72145  1  0  0  0
 73 75  1  0  0  0
 73 79  1  0  0  0
 74 80  2  0  0  0
 74 82  1  0  0  0
 75 81  1  0  0  0
 75 83  2  0  0  0
 76 78  1  0  0  0
 76 83  1  0  0  0
 76146  1  0  0  0
 76147  1  0  0  0
 77 78  1  0  0  0
 77148  1  0  0  0
 77149  1  0  0  0
 78 84  1  0  0  0
 78150  1  0  0  0
 81151  1  0  0  0
 81152  1  0  0  0
 82153  1  0  0  0
 83154  1  0  0  0
 84155  1  0  0  0
M  CHG  1  83   1
M  ISO  4   1 100  68 101  77 101  82 100
M  END
> <chiral flag>
0

> <version>
0

> <s_m_source_file>
/data/baiqing/PycharmProjects/Reinvent-master-3.2/result/LINK_invent/BTK/process_docking_weight1_custom_product_contain_oxygen_bond_distance_aromatic_linkinvent_7_9_3/rearranged_h_0196.sdf

> <i_m_source_file_index>
43

> <r_mmod_Potential_Energy-OPLS-2005>
-153.543960571289

> <r_mmod_Stretch_Energy-OPLS-2005>
41.8822631835938

> <r_mmod_Bend_Energy-OPLS-2005>
111.020973205566

> <r_mmod_Torsional_Energy-OPLS-2005>
264.479034423828

> <r_mmod_Improper_Torsional_Energy-OPLS-2005>
5.90534973144531

> <r_mmod_Van_der_Waal_Energy-OPLS-2005>
167.917282104492

> <r_mmod_Electrostatic_Energy-OPLS-2005>
-240.952514648438

> <r_mmod_Solvation_Energy-OPLS-2005>
-517.372924804688

> <b_mmod_Minimization_Converged-OPLS-2005>
0

> <r_mmod_RMS_Derivative-OPLS-2005>
1.00657868385315

$$$$
43
                    3D
 Structure written by MMmdl.
159167  0  0  1  0            999 V2000
  -30.6190  -14.6711   20.4934 C   0  0  0  0  0  0
  -30.4427  -12.4133   19.4559 C   0  0  0  0  0  0
  -29.5163  -12.5283   18.2268 C   0  0  0  0  0  0
  -28.0398  -12.3581   18.6371 C   0  0  0  0  0  0
  -27.6538  -13.2254   19.8662 C   0  0  2  0  0  0
  -28.6977  -13.0946   20.9963 C   0  0  0  0  0  0
  -25.2564  -13.8176   20.5702 C   0  0  0  0  0  0
  -24.1843  -13.0378   20.9197 C   0  0  0  0  0  0
  -24.6448  -11.6896   20.8724 C   0  0  0  0  0  0
  -23.9130  -10.4259   21.0394 C   0  0  0  0  0  0
  -24.3672   -9.4184   21.9191 C   0  0  0  0  0  0
  -23.6318   -8.2226   22.0783 C   0  0  0  0  0  0
  -22.4292   -8.0273   21.3569 C   0  0  0  0  0  0
  -21.9949   -9.0241   20.4656 C   0  0  0  0  0  0
  -22.7307  -10.2108   20.3059 C   0  0  0  0  0  0
  -21.6854   -6.0742   22.5282 C   0  0  0  0  0  0
  -21.3992   -6.5653   23.8208 C   0  0  0  0  0  0
  -21.3665   -5.6820   24.9184 C   0  0  0  0  0  0
  -21.6060   -4.3074   24.7227 C   0  0  0  0  0  0
  -21.8828   -3.8157   23.4345 C   0  0  0  0  0  0
  -21.9178   -4.6969   22.3400 C   0  0  0  0  0  0
  -22.7865  -13.5150   21.1843 C   0  0  0  0  0  0
  -22.1665   -4.2165   21.0974 F   0  0  0  0  0  0
  -21.5620   -3.4554   25.7729 F   0  0  0  0  0  0
  -30.0098  -13.4408   20.4286 N   0  0  0  0  0  0
  -26.3005  -12.9383   20.3346 N   0  0  0  0  0  0
  -25.9396  -11.6528   20.5782 N   0  0  0  0  0  0
  -22.0535  -12.8108   22.0417 N   0  0  0  0  0  0
  -25.4133  -15.1896   20.4090 N   0  0  0  0  0  0
  -31.7974  -14.8032   20.1444 O   0  0  0  0  0  0
  -21.6631   -6.8893   21.4257 O   0  0  0  0  0  0
  -22.3528  -14.5450   20.6711 O   0  0  0  0  0  0
  -24.6262  -31.8561   23.1998 C   0  0  0  0  0  0
  -25.9103  -32.4757   23.8279 C   0  0  1  0  0  0
  -27.2315  -27.3038   20.1094 C   0  0  0  0  0  0
  -25.5884  -33.8546   24.2212 N   0  0  0  0  0  0
  -23.4199  -30.4785   21.5449 C   0  0  2  0  0  0
  -24.8684  -28.9313   20.1079 C   0  0  0  0  0  0
  -22.7487  -29.4576   22.4933 C   0  0  0  0  0  0
  -18.0247  -28.1426   22.8474 C   0  0  0  0  0  0
  -24.1477  -36.7321   23.2652 C   0  0  0  0  0  0
  -25.9598  -30.7858   21.3656 C   0  0  0  0  0  0
  -26.0351  -29.4067   20.7193 C   0  0  0  0  0  0
  -27.2157  -28.6025   20.7147 C   0  0  0  0  0  0
  -26.0527  -26.9072   19.4370 C   0  0  0  0  0  0
  -24.8814  -27.6920   19.4525 C   0  0  0  0  0  0
  -23.6347  -29.8121   20.1592 C   0  0  0  0  0  0
  -25.4099  -36.3063   24.0324 C   0  0  1  0  0  0
  -20.5864  -28.3714   23.1293 C   0  0  2  0  0  0
  -20.6726  -26.9414   22.5470 C   0  0  0  0  0  0
  -19.5676  -26.6371   21.5284 C   0  0  0  0  0  0
  -18.1857  -26.7948   22.1672 C   0  0  0  0  0  0
  -19.1512  -28.8881   23.2872 C   0  0  0  0  0  0
  -18.9459  -30.1507   23.8846 C   0  0  0  0  0  0
  -17.6466  -30.6620   24.0571 C   0  0  0  0  0  0
  -25.9063  -34.9440   23.5082 C   0  0  0  0  0  0
  -16.5343  -29.9130   23.6348 C   0  0  0  0  0  0
  -16.7248  -28.6588   23.0286 C   0  0  0  0  0  0
  -26.4479  -31.6533   25.0631 C   0  0  0  0  0  0
  -25.3766  -31.3597   26.1377 C   0  0  0  0  0  0
  -27.0341  -30.2973   24.6047 C   0  0  0  0  0  0
  -27.5971  -32.4305   25.7457 C   0  0  0  0  0  0
  -27.5553  -37.1808   24.8466 C   0  0  0  0  0  0
  -21.4203  -29.3035   22.3684 N   0  0  0  0  0  0
  -26.4250  -37.3795   23.9442 N   0  0  0  0  0  0
  -24.6884  -31.0576   22.0943 N   0  0  0  0  0  0
  -23.4210  -28.8100   23.2986 O   0  0  0  0  0  0
  -28.3506  -26.4492   20.1873 O   0  0  0  0  0  0
  -26.5703  -34.8923   22.4688 O   0  0  0  0  0  0
  -23.5449  -32.1283   23.7413 O   0  0  0  0  0  0
  -28.8319  -18.0084   20.3851 C   0  0  0  0  0  0
  -30.0251  -20.0378   20.3853 C   0  0  0  0  0  0
  -29.9893  -17.1980   20.6100 C   0  0  0  0  0  0
  -31.1959  -19.2312   20.6202 C   0  0  0  0  0  0
  -30.2203  -21.8701   18.6176 C   0  0  0  0  0  0
  -28.5854  -24.2217   22.3518 C   0  0  0  0  0  0
  -28.2224  -24.9786   19.9373 C   0  0  0  0  0  0
  -30.0536  -21.6134   20.1244 C   0  0  1  0  0  0
  -29.0421  -23.9665   20.8875 C   0  0  2  0  0  0
  -28.8389  -19.3783   20.2674 N   0  0  0  0  0  0
  -31.1736  -17.8650   20.7261 N   0  0  0  0  0  0
  -32.4775  -19.7558   20.7446 N   0  0  0  0  0  0
  -29.8023  -15.7466   20.7472 N   0  0  0  0  0  0
  -28.8864  -22.4580   20.6149 N   0  3  0  0  0  0
  -31.4844  -12.5334   19.1522 H   0  0  0  0  0  0
  -30.3698  -11.4176   19.8968 H   0  0  0  0  0  0
  -29.7817  -11.7859   17.4735 H   0  0  0  0  0  0
  -29.6541  -13.5062   17.7597 H   0  0  0  0  0  0
  -27.8729  -11.3016   18.8564 H   0  0  0  0  0  0
  -27.3901  -12.5908   17.7905 H   0  0  0  0  0  0
  -27.6635  -14.2618   19.5273 H   0  0  0  0  0  0
  -28.7143  -12.0770   21.3854 H   0  0  0  0  0  0
  -28.4439  -13.7263   21.8461 H   0  0  0  0  0  0
  -25.2858   -9.5588   22.4722 H   0  0  0  0  0  0
  -24.0006   -7.4605   22.7511 H   0  0  0  0  0  0
  -21.0892   -8.8781   19.8933 H   0  0  0  0  0  0
  -22.3846  -10.9625   19.6109 H   0  0  0  0  0  0
  -21.2000   -7.6168   23.9716 H   0  0  0  0  0  0
  -21.1486   -6.0552   25.9095 H   0  0  0  0  0  0
  -22.0605   -2.7610   23.2842 H   0  0  0  0  0  0
  -22.4219  -11.9794   22.4774 H   0  0  0  0  0  0
  -21.1129  -13.1073   22.2619 H   0  0  0  0  0  0
  -24.6214  -15.8178   20.4982 H   0  0  0  0  0  0
  -26.2381  -15.6438   20.0392 H   0  0  0  0  0  0
  -26.7161  -32.5442   23.1010 H   0  0  0  0  0  0
  -24.9822  -33.9616   25.0209 H   0  0  0  0  0  0
  -22.7120  -31.2992   21.4093 H   0  0  0  0  0  0
  -23.3720  -35.9671   23.3290 H   0  0  0  0  0  0
  -24.3556  -36.8995   22.2069 H   0  0  0  0  0  0
  -23.7239  -37.6506   23.6734 H   0  0  0  0  0  0
  -26.0732  -31.5335   20.5795 H   0  0  0  0  0  0
  -26.8472  -30.8568   21.9815 H   0  0  0  0  0  0
  -28.1086  -28.9657   21.2072 H   0  0  0  0  0  0
  -26.0150  -25.9848   18.8795 H   0  0  0  0  0  0
  -23.9947  -27.3447   18.9396 H   0  0  0  0  0  0
  -23.7527  -30.5896   19.4033 H   0  0  0  0  0  0
  -22.7535  -29.2421   19.8598 H   0  0  0  0  0  0
  -25.1285  -36.1872   25.0817 H   0  0  0  0  0  0
  -20.9949  -28.3325   24.1416 H   0  0  0  0  0  0
  -20.5659  -26.2334   23.3698 H   0  0  0  0  0  0
  -21.6584  -26.7421   22.1242 H   0  0  0  0  0  0
  -19.6830  -25.6296   21.1270 H   0  0  0  0  0  0
  -19.6588  -27.3216   20.6842 H   0  0  0  0  0  0
  -17.4141  -26.6691   21.4067 H   0  0  0  0  0  0
  -18.0230  -26.0119   22.9087 H   0  0  0  0  0  0
  -19.7929  -30.7363   24.2150 H   0  0  0  0  0  0
  -17.5012  -31.6287   24.5214 H   0  0  0  0  0  0
  -15.5346  -30.3028   23.7747 H   0  0  0  0  0  0
  -15.8630  -28.0995   22.6897 H   0  0  0  0  0  0
  -24.6008  -30.6848   25.7733 H   0  0  0  0  0  0
  -24.8867  -32.2723   26.4776 H   0  0  0  0  0  0
  -25.8132  -30.8819   27.0152 H   0  0  0  0  0  0
  -26.2880  -29.6696   24.1153 H   0  0  0  0  0  0
  -27.4161  -29.7202   25.4471 H   0  0  0  0  0  0
  -27.8674  -30.4248   23.9137 H   0  0  0  0  0  0
  -27.2484  -33.3619   26.1914 H   0  0  0  0  0  0
  -28.3836  -32.6836   25.0353 H   0  0  0  0  0  0
  -28.0559  -31.8516   26.5473 H   0  0  0  0  0  0
  -28.2554  -38.0126   24.7569 H   0  0  0  0  0  0
  -28.1054  -36.2658   24.6226 H   0  0  0  0  0  0
  -27.2287  -37.1396   25.8869 H   0  0  0  0  0  0
  -20.9448  -29.8785   21.6880 H   0  0  0  0  0  0
  -26.0104  -38.2849   24.1489 H   0  0  0  0  0  0
  -27.8585  -17.5463   20.3029 H   0  0  0  0  0  0
  -31.1270  -21.4042   18.2336 H   0  0  0  0  0  0
  -30.2796  -22.9362   18.3944 H   0  0  0  0  0  0
  -29.3809  -21.4563   18.0574 H   0  0  0  0  0  0
  -28.7442  -25.2597   22.6499 H   0  0  0  0  0  0
  -29.1137  -23.6069   23.0837 H   0  0  0  0  0  0
  -27.5151  -24.0211   22.4719 H   0  0  0  0  0  0
  -27.1827  -24.6641   20.0286 H   0  0  0  0  0  0
  -28.4793  -24.8078   18.8869 H   0  0  0  0  0  0
  -30.9439  -21.9875   20.6338 H   0  0  0  0  0  0
  -30.1053  -24.2208   20.8112 H   0  0  0  0  0  0
  -32.6062  -20.7416   20.9376 H   0  0  0  0  0  0
  -33.1630  -19.1733   21.2126 H   0  0  0  0  0  0
  -28.8544  -15.4755   20.9525 H   0  0  0  0  0  0
  -28.6210  -22.0356   21.4909 H   0  0  0  0  0  0
  -28.1153  -22.2984   19.9874 H   0  0  0  0  0  0
  1 25  1  0  0  0
  1 30  2  0  0  0
  1 83  1  0  0  0
  2  3  1  0  0  0
  2 25  1  0  0  0
  2 85  1  0  0  0
  2 86  1  0  0  0
  3  4  1  0  0  0
  3 87  1  0  0  0
  3 88  1  0  0  0
  4  5  1  0  0  0
  4 89  1  0  0  0
  4 90  1  0  0  0
  5  6  1  0  0  0
  5 26  1  0  0  0
  5 91  1  0  0  0
  6 25  1  0  0  0
  6 92  1  0  0  0
  6 93  1  0  0  0
  7  8  2  0  0  0
  7 26  1  0  0  0
  7 29  1  0  0  0
  8  9  1  0  0  0
  8 22  1  0  0  0
  9 10  1  0  0  0
  9 27  2  0  0  0
 10 11  2  0  0  0
 10 15  1  0  0  0
 11 12  1  0  0  0
 11 94  1  0  0  0
 12 13  2  0  0  0
 12 95  1  0  0  0
 13 14  1  0  0  0
 13 31  1  0  0  0
 14 15  2  0  0  0
 14 96  1  0  0  0
 15 97  1  0  0  0
 16 17  2  0  0  0
 16 21  1  0  0  0
 16 31  1  0  0  0
 17 18  1  0  0  0
 17 98  1  0  0  0
 18 19  2  0  0  0
 18 99  1  0  0  0
 19 20  1  0  0  0
 19 24  1  0  0  0
 20 21  2  0  0  0
 20100  1  0  0  0
 21 23  1  0  0  0
 22 28  1  0  0  0
 22 32  2  0  0  0
 26 27  1  0  0  0
 28101  1  0  0  0
 28102  1  0  0  0
 29103  1  0  0  0
 29104  1  0  0  0
 33 34  1  0  0  0
 33 66  1  0  0  0
 33 70  2  0  0  0
 34 36  1  0  0  0
 34 59  1  0  0  0
 34105  1  0  0  0
 35 44  2  0  0  0
 35 45  1  0  0  0
 35 68  1  0  0  0
 36 56  1  0  0  0
 36106  1  0  0  0
 37 39  1  0  0  0
 37 47  1  0  0  0
 37 66  1  0  0  0
 37107  1  0  0  0
 38 43  2  0  0  0
 38 46  1  0  0  0
 38 47  1  0  0  0
 39 64  1  0  0  0
 39 67  2  0  0  0
 40 52  1  0  0  0
 40 53  2  0  0  0
 40 58  1  0  0  0
 41108  1  0  0  0
 41109  1  0  0  0
 41110  1  0  0  0
 41 48  1  0  0  0
 42 43  1  0  0  0
 42 66  1  0  0  0
 42111  1  0  0  0
 42112  1  0  0  0
 43 44  1  0  0  0
 44113  1  0  0  0
 45 46  2  0  0  0
 45114  1  0  0  0
 46115  1  0  0  0
 47116  1  0  0  0
 47117  1  0  0  0
 48 56  1  0  0  0
 48 65  1  0  0  0
 48118  1  0  0  0
 49 50  1  0  0  0
 49 53  1  0  0  0
 49 64  1  0  0  0
 49119  1  0  0  0
 50 51  1  0  0  0
 50120  1  0  0  0
 50121  1  0  0  0
 51 52  1  0  0  0
 51122  1  0  0  0
 51123  1  0  0  0
 52124  1  0  0  0
 52125  1  0  0  0
 53 54  1  0  0  0
 54 55  2  0  0  0
 54126  1  0  0  0
 55 57  1  0  0  0
 55127  1  0  0  0
 56 69  2  0  0  0
 57 58  2  0  0  0
 57128  1  0  0  0
 58129  1  0  0  0
 59 60  1  0  0  0
 59 61  1  0  0  0
 59 62  1  0  0  0
 60130  1  0  0  0
 60131  1  0  0  0
 60132  1  0  0  0
 61133  1  0  0  0
 61134  1  0  0  0
 61135  1  0  0  0
 62136  1  0  0  0
 62137  1  0  0  0
 62138  1  0  0  0
 63 65  1  0  0  0
 63139  1  0  0  0
 63140  1  0  0  0
 63141  1  0  0  0
 64142  1  0  0  0
 65143  1  0  0  0
 68 77  1  0  0  0
 71 73  2  0  0  0
 71 80  1  0  0  0
 71144  1  0  0  0
 72 74  1  0  0  0
 72 78  1  0  0  0
 72 80  2  0  0  0
 73 81  1  0  0  0
 73 83  1  0  0  0
 74 81  2  0  0  0
 74 82  1  0  0  0
 75145  1  0  0  0
 75146  1  0  0  0
 75147  1  0  0  0
 75 78  1  0  0  0
 76148  1  0  0  0
 76149  1  0  0  0
 76150  1  0  0  0
 76 79  1  0  0  0
 77 79  1  0  0  0
 77151  1  0  0  0
 77152  1  0  0  0
 78 84  1  0  0  0
 78153  1  0  0  0
 79 84  1  0  0  0
 79154  1  0  0  0
 82155  1  0  0  0
 82156  1  0  0  0
 83157  1  0  0  0
 84158  1  0  0  0
 84159  1  0  0  0
M  CHG  1  84   1
M  ISO  4   1 100  68 101  77 101  83 100
M  END
> <chiral flag>
0

> <version>
0

> <s_m_source_file>
/data/baiqing/PycharmProjects/Reinvent-master-3.2/result/LINK_invent/BTK/process_docking_weight1_custom_product_contain_oxygen_bond_distance_aromatic_linkinvent_7_9_3/rearranged_h_0196.sdf

> <i_m_source_file_index>
44

> <r_mmod_Potential_Energy-OPLS-2005>
-50.0546798706055

> <r_mmod_Stretch_Energy-OPLS-2005>
102.377372741699

> <r_mmod_Bend_Energy-OPLS-2005>
159.647964477539

> <r_mmod_Torsional_Energy-OPLS-2005>
220.316711425781

> <r_mmod_Improper_Torsional_Energy-OPLS-2005>
8.92262649536133

> <r_mmod_Van_der_Waal_Energy-OPLS-2005>
140.387542724609

> <r_mmod_Electrostatic_Energy-OPLS-2005>
-257.133728027344

> <r_mmod_Solvation_Energy-OPLS-2005>
-481.612091064453

> <b_mmod_Minimization_Converged-OPLS-2005>
0

> <r_mmod_RMS_Derivative-OPLS-2005>
6.50517511367798

$$$$
44
                    3D
 Structure written by MMmdl.
160168  0  0  1  0            999 V2000
  -30.6787  -14.5110   20.5538 C   0  0  0  0  0  0
  -30.4278  -12.3241   19.4267 C   0  0  0  0  0  0
  -29.5000  -12.5089   18.2077 C   0  0  0  0  0  0
  -28.0200  -12.3648   18.6161 C   0  0  0  0  0  0
  -27.6593  -13.2067   19.8692 C   0  0  2  0  0  0
  -28.7017  -13.0028   20.9925 C   0  0  0  0  0  0
  -25.2584  -13.8155   20.5650 C   0  0  0  0  0  0
  -24.1849  -13.0434   20.9177 C   0  0  0  0  0  0
  -24.6399  -11.6902   20.8736 C   0  0  0  0  0  0
  -23.9067  -10.4289   21.0407 C   0  0  0  0  0  0
  -24.3615   -9.4205   21.9186 C   0  0  0  0  0  0
  -23.6288   -8.2243   22.0755 C   0  0  0  0  0  0
  -22.4272   -8.0278   21.3542 C   0  0  0  0  0  0
  -21.9906   -9.0254   20.4649 C   0  0  0  0  0  0
  -22.7236  -10.2132   20.3059 C   0  0  0  0  0  0
  -21.6862   -6.0732   22.5273 C   0  0  0  0  0  0
  -21.4016   -6.5637   23.8209 C   0  0  0  0  0  0
  -21.3659   -5.6790   24.9173 C   0  0  0  0  0  0
  -21.6045   -4.3054   24.7228 C   0  0  0  0  0  0
  -21.8823   -3.8145   23.4352 C   0  0  0  0  0  0
  -21.9195   -4.6958   22.3402 C   0  0  0  0  0  0
  -22.7868  -13.5229   21.1834 C   0  0  0  0  0  0
  -22.1666   -4.2148   21.0978 F   0  0  0  0  0  0
  -21.5623   -3.4531   25.7736 F   0  0  0  0  0  0
  -30.0283  -13.3182   20.4365 N   0  0  0  0  0  0
  -26.3016  -12.9320   20.3328 N   0  0  0  0  0  0
  -25.9327  -11.6484   20.5756 N   0  0  0  0  0  0
  -22.0516  -12.8222   22.0393 N   0  0  0  0  0  0
  -25.4276  -15.1873   20.4021 N   0  0  0  0  0  0
  -31.8276  -14.6760   20.1303 O   0  0  0  0  0  0
  -21.6637   -6.8872   21.4234 O   0  0  0  0  0  0
  -22.3556  -14.5533   20.6683 O   0  0  0  0  0  0
  -24.6159  -31.8695   23.2101 C   0  0  0  0  0  0
  -25.9049  -32.4837   23.8407 C   0  0  1  0  0  0
  -27.2297  -27.4139   20.0867 C   0  0  0  0  0  0
  -25.5900  -33.8637   24.2325 N   0  0  0  0  0  0
  -23.4056  -30.4950   21.5525 C   0  0  2  0  0  0
  -24.8488  -28.9632   20.1153 C   0  0  0  0  0  0
  -22.7416  -29.4677   22.4980 C   0  0  0  0  0  0
  -18.0275  -28.1375   22.8515 C   0  0  0  0  0  0
  -24.1481  -36.7322   23.2643 C   0  0  0  0  0  0
  -25.9397  -30.8245   21.3725 C   0  0  0  0  0  0
  -26.0126  -29.4610   20.7127 C   0  0  0  0  0  0
  -27.2039  -28.6928   20.6966 C   0  0  0  0  0  0
  -26.0379  -26.9390   19.4875 C   0  0  0  0  0  0
  -24.8569  -27.7005   19.5030 C   0  0  0  0  0  0
  -23.6134  -29.8333   20.1667 C   0  0  0  0  0  0
  -25.4111  -36.3124   24.0334 C   0  0  1  0  0  0
  -20.5875  -28.3674   23.1313 C   0  0  2  0  0  0
  -20.6771  -26.9405   22.5424 C   0  0  0  0  0  0
  -19.5739  -26.6381   21.5230 C   0  0  0  0  0  0
  -18.1915  -26.7924   22.1636 C   0  0  0  0  0  0
  -19.1525  -28.8835   23.2916 C   0  0  0  0  0  0
  -18.9448  -30.1442   23.8925 C   0  0  0  0  0  0
  -17.6448  -30.6583   24.0572 C   0  0  0  0  0  0
  -25.9042  -34.9490   23.5125 C   0  0  0  0  0  0
  -16.5341  -29.9087   23.6338 C   0  0  0  0  0  0
  -16.7266  -28.6499   23.0376 C   0  0  0  0  0  0
  -26.4469  -31.6643   25.0764 C   0  0  0  0  0  0
  -25.3717  -31.3772   26.1499 C   0  0  0  0  0  0
  -27.0327  -30.3076   24.6206 C   0  0  0  0  0  0
  -27.6026  -32.4401   25.7520 C   0  0  0  0  0  0
  -27.5582  -37.1813   24.8459 C   0  0  0  0  0  0
  -21.4140  -29.3045   22.3709 N   0  0  0  0  0  0
  -26.4299  -37.3805   23.9397 N   0  0  0  0  0  0
  -24.6721  -31.0763   22.1033 N   0  0  0  0  0  0
  -23.4174  -28.8216   23.3033 O   0  0  0  0  0  0
  -28.4015  -26.6682   20.0997 O   0  0  0  0  0  0
  -26.5604  -34.8937   22.4688 O   0  0  0  0  0  0
  -23.5339  -32.1482   23.7461 O   0  0  0  0  0  0
  -29.1554  -17.8071   20.5027 C   0  0  0  0  0  0
  -31.5391  -18.8199   21.2339 C   0  0  0  0  0  0
  -30.5077  -19.6750   20.7546 C   0  0  0  0  0  0
  -30.1939  -16.9372   20.9385 C   0  0  0  0  0  0
  -32.8946  -19.3507   21.6615 C   0  0  0  0  0  0
  -28.9415  -22.9280   17.8936 C   0  0  0  0  0  0
  -30.7395  -21.1871   20.5539 C   0  0  0  0  0  0
  -29.6644  -24.5242   19.8278 C   0  0  0  0  0  0
  -28.3370  -25.3044   19.6320 C   0  0  0  0  0  0
  -29.7752  -23.0968   19.1786 C   0  0  1  0  0  0
  -29.3043  -19.1578   20.3951 N   0  0  0  0  0  0
  -31.3824  -17.4719   21.3223 N   0  0  0  0  0  0
  -29.9103  -15.5367   20.9821 N   0  0  0  0  0  0
  -29.5379  -21.9463   20.1091 N   0  3  0  0  0  0
  -31.4724  -12.4280   19.1265 H   0  0  0  0  0  0
  -30.3311  -11.3161   19.8347 H   0  0  0  0  0  0
  -29.7473  -11.7830   17.4325 H   0  0  0  0  0  0
  -29.6640  -13.4938   17.7678 H   0  0  0  0  0  0
  -27.8342  -11.3083   18.8128 H   0  0  0  0  0  0
  -27.3725  -12.6362   17.7814 H   0  0  0  0  0  0
  -27.6952  -14.2522   19.5625 H   0  0  0  0  0  0
  -28.6883  -11.9678   21.3378 H   0  0  0  0  0  0
  -28.4622  -13.6066   21.8702 H   0  0  0  0  0  0
  -25.2777   -9.5669   22.4739 H   0  0  0  0  0  0
  -24.0003   -7.4637   22.7479 H   0  0  0  0  0  0
  -21.0832   -8.8772   19.8957 H   0  0  0  0  0  0
  -22.3709  -10.9660   19.6148 H   0  0  0  0  0  0
  -21.2010   -7.6149   23.9703 H   0  0  0  0  0  0
  -21.1475   -6.0529   25.9070 H   0  0  0  0  0  0
  -22.0605   -2.7608   23.2852 H   0  0  0  0  0  0
  -22.4145  -11.9881   22.4766 H   0  0  0  0  0  0
  -21.1132  -13.1232   22.2600 H   0  0  0  0  0  0
  -24.6453  -15.8287   20.4769 H   0  0  0  0  0  0
  -26.2545  -15.6191   20.0118 H   0  0  0  0  0  0
  -26.7121  -32.5517   23.1167 H   0  0  0  0  0  0
  -25.0043  -33.9831   25.0460 H   0  0  0  0  0  0
  -22.6960  -31.3125   21.4150 H   0  0  0  0  0  0
  -23.3757  -35.9643   23.3326 H   0  0  0  0  0  0
  -24.3571  -36.8932   22.2054 H   0  0  0  0  0  0
  -23.7223  -37.6524   23.6658 H   0  0  0  0  0  0
  -26.0647  -31.5943   20.6097 H   0  0  0  0  0  0
  -26.8218  -30.8666   22.0006 H   0  0  0  0  0  0
  -28.1032  -29.0762   21.1583 H   0  0  0  0  0  0
  -25.9838  -25.9789   18.9979 H   0  0  0  0  0  0
  -23.9600  -27.3102   19.0408 H   0  0  0  0  0  0
  -23.7209  -30.6119   19.4105 H   0  0  0  0  0  0
  -22.7354  -29.2577   19.8698 H   0  0  0  0  0  0
  -25.1286  -36.2000   25.0831 H   0  0  0  0  0  0
  -20.9986  -28.3237   24.1426 H   0  0  0  0  0  0
  -20.5703  -26.2276   23.3612 H   0  0  0  0  0  0
  -21.6632  -26.7448   22.1186 H   0  0  0  0  0  0
  -19.6912  -25.6297   21.1246 H   0  0  0  0  0  0
  -19.6676  -27.3202   20.6763 H   0  0  0  0  0  0
  -17.4195  -26.6704   21.4025 H   0  0  0  0  0  0
  -18.0290  -26.0038   22.8998 H   0  0  0  0  0  0
  -19.7919  -30.7260   24.2299 H   0  0  0  0  0  0
  -17.5001  -31.6272   24.5157 H   0  0  0  0  0  0
  -15.5347  -30.3001   23.7640 H   0  0  0  0  0  0
  -15.8660  -28.0820   22.7103 H   0  0  0  0  0  0
  -24.5824  -30.7222   25.7799 H   0  0  0  0  0  0
  -24.8998  -32.2953   26.5009 H   0  0  0  0  0  0
  -25.8032  -30.8845   27.0222 H   0  0  0  0  0  0
  -26.2914  -29.6816   24.1230 H   0  0  0  0  0  0
  -27.4040  -29.7343   25.4712 H   0  0  0  0  0  0
  -27.8767  -30.4390   23.9433 H   0  0  0  0  0  0
  -27.2615  -33.3668   26.2154 H   0  0  0  0  0  0
  -28.3786  -32.7047   25.0325 H   0  0  0  0  0  0
  -28.0768  -31.8525   26.5393 H   0  0  0  0  0  0
  -28.2597  -38.0112   24.7511 H   0  0  0  0  0  0
  -28.1085  -36.2643   24.6283 H   0  0  0  0  0  0
  -27.2301  -37.1457   25.8864 H   0  0  0  0  0  0
  -20.9294  -29.8769   21.6935 H   0  0  0  0  0  0
  -26.0199  -38.2892   24.1395 H   0  0  0  0  0  0
  -28.1928  -17.4138   20.2078 H   0  0  0  0  0  0
  -33.3792  -19.8783   20.8399 H   0  0  0  0  0  0
  -33.5583  -18.5443   21.9759 H   0  0  0  0  0  0
  -32.7894  -20.0368   22.5030 H   0  0  0  0  0  0
  -27.8714  -22.9335   18.1003 H   0  0  0  0  0  0
  -29.1741  -21.9871   17.3920 H   0  0  0  0  0  0
  -29.1473  -23.7271   17.1791 H   0  0  0  0  0  0
  -31.5341  -21.2642   19.8117 H   0  0  0  0  0  0
  -31.1257  -21.6368   21.4689 H   0  0  0  0  0  0
  -29.9192  -24.4837   20.8868 H   0  0  0  0  0  0
  -30.4445  -25.1394   19.3783 H   0  0  0  0  0  0
  -27.5414  -24.7653   20.1484 H   0  0  0  0  0  0
  -28.0901  -25.3375   18.5695 H   0  0  0  0  0  0
  -30.8091  -23.0278   18.8399 H   0  0  0  0  0  0
  -28.9539  -15.2900   21.1793 H   0  0  0  0  0  0
  -29.0056  -22.2272   20.9161 H   0  0  0  0  0  0
  -28.9869  -21.2481   19.6318 H   0  0  0  0  0  0
  1 25  1  0  0  0
  1 30  2  0  0  0
  1 83  1  0  0  0
  2  3  1  0  0  0
  2 25  1  0  0  0
  2 85  1  0  0  0
  2 86  1  0  0  0
  3  4  1  0  0  0
  3 87  1  0  0  0
  3 88  1  0  0  0
  4  5  1  0  0  0
  4 89  1  0  0  0
  4 90  1  0  0  0
  5  6  1  0  0  0
  5 26  1  0  0  0
  5 91  1  0  0  0
  6 25  1  0  0  0
  6 92  1  0  0  0
  6 93  1  0  0  0
  7  8  2  0  0  0
  7 26  1  0  0  0
  7 29  1  0  0  0
  8  9  1  0  0  0
  8 22  1  0  0  0
  9 10  1  0  0  0
  9 27  2  0  0  0
 10 11  2  0  0  0
 10 15  1  0  0  0
 11 12  1  0  0  0
 11 94  1  0  0  0
 12 13  2  0  0  0
 12 95  1  0  0  0
 13 14  1  0  0  0
 13 31  1  0  0  0
 14 15  2  0  0  0
 14 96  1  0  0  0
 15 97  1  0  0  0
 16 17  2  0  0  0
 16 21  1  0  0  0
 16 31  1  0  0  0
 17 18  1  0  0  0
 17 98  1  0  0  0
 18 19  2  0  0  0
 18 99  1  0  0  0
 19 20  1  0  0  0
 19 24  1  0  0  0
 20 21  2  0  0  0
 20100  1  0  0  0
 21 23  1  0  0  0
 22 28  1  0  0  0
 22 32  2  0  0  0
 26 27  1  0  0  0
 28101  1  0  0  0
 28102  1  0  0  0
 29103  1  0  0  0
 29104  1  0  0  0
 33 34  1  0  0  0
 33 66  1  0  0  0
 33 70  2  0  0  0
 34 36  1  0  0  0
 34 59  1  0  0  0
 34105  1  0  0  0
 35 44  2  0  0  0
 35 45  1  0  0  0
 35 68  1  0  0  0
 36 56  1  0  0  0
 36106  1  0  0  0
 37 39  1  0  0  0
 37 47  1  0  0  0
 37 66  1  0  0  0
 37107  1  0  0  0
 38 43  2  0  0  0
 38 46  1  0  0  0
 38 47  1  0  0  0
 39 64  1  0  0  0
 39 67  2  0  0  0
 40 52  1  0  0  0
 40 53  2  0  0  0
 40 58  1  0  0  0
 41108  1  0  0  0
 41109  1  0  0  0
 41110  1  0  0  0
 41 48  1  0  0  0
 42 43  1  0  0  0
 42 66  1  0  0  0
 42111  1  0  0  0
 42112  1  0  0  0
 43 44  1  0  0  0
 44113  1  0  0  0
 45 46  2  0  0  0
 45114  1  0  0  0
 46115  1  0  0  0
 47116  1  0  0  0
 47117  1  0  0  0
 48 56  1  0  0  0
 48 65  1  0  0  0
 48118  1  0  0  0
 49 50  1  0  0  0
 49 53  1  0  0  0
 49 64  1  0  0  0
 49119  1  0  0  0
 50 51  1  0  0  0
 50120  1  0  0  0
 50121  1  0  0  0
 51 52  1  0  0  0
 51122  1  0  0  0
 51123  1  0  0  0
 52124  1  0  0  0
 52125  1  0  0  0
 53 54  1  0  0  0
 54 55  2  0  0  0
 54126  1  0  0  0
 55 57  1  0  0  0
 55127  1  0  0  0
 56 69  2  0  0  0
 57 58  2  0  0  0
 57128  1  0  0  0
 58129  1  0  0  0
 59 60  1  0  0  0
 59 61  1  0  0  0
 59 62  1  0  0  0
 60130  1  0  0  0
 60131  1  0  0  0
 60132  1  0  0  0
 61133  1  0  0  0
 61134  1  0  0  0
 61135  1  0  0  0
 62136  1  0  0  0
 62137  1  0  0  0
 62138  1  0  0  0
 63 65  1  0  0  0
 63139  1  0  0  0
 63140  1  0  0  0
 63141  1  0  0  0
 64142  1  0  0  0
 65143  1  0  0  0
 68 79  1  0  0  0
 71 74  2  0  0  0
 71 81  1  0  0  0
 71144  1  0  0  0
 72 73  1  0  0  0
 72 75  1  0  0  0
 72 82  2  0  0  0
 73 77  1  0  0  0
 73 81  2  0  0  0
 74 82  1  0  0  0
 74 83  1  0  0  0
 75145  1  0  0  0
 75146  1  0  0  0
 75147  1  0  0  0
 76148  1  0  0  0
 76149  1  0  0  0
 76150  1  0  0  0
 76 80  1  0  0  0
 77 84  1  0  0  0
 77151  1  0  0  0
 77152  1  0  0  0
 78 79  1  0  0  0
 78 80  1  0  0  0
 78153  1  0  0  0
 78154  1  0  0  0
 79155  1  0  0  0
 79156  1  0  0  0
 80 84  1  0  0  0
 80157  1  0  0  0
 83158  1  0  0  0
 84159  1  0  0  0
 84160  1  0  0  0
M  CHG  1  84   1
M  ISO  4   1 100  68 101  79 101  83 100
M  END
> <chiral flag>
0

> <version>
0

> <s_m_source_file>
/data/baiqing/PycharmProjects/Reinvent-master-3.2/result/LINK_invent/BTK/process_docking_weight1_custom_product_contain_oxygen_bond_distance_aromatic_linkinvent_7_9_3/rearranged_h_0196.sdf

> <i_m_source_file_index>
45

> <r_mmod_Potential_Energy-OPLS-2005>
-222.991592407227

> <r_mmod_Stretch_Energy-OPLS-2005>
46.1031036376953

> <r_mmod_Bend_Energy-OPLS-2005>
108.727210998535

> <r_mmod_Torsional_Energy-OPLS-2005>
234.497772216797

> <r_mmod_Improper_Torsional_Energy-OPLS-2005>
5.2198920249939

> <r_mmod_Van_der_Waal_Energy-OPLS-2005>
164.562774658203

> <r_mmod_Electrostatic_Energy-OPLS-2005>
-314.214782714844

> <r_mmod_Solvation_Energy-OPLS-2005>
-485.160400390625

> <b_mmod_Minimization_Converged-OPLS-2005>
0

> <r_mmod_RMS_Derivative-OPLS-2005>
2.00986552238464

$$$$
45
                    3D
 Structure written by MMmdl.
152160  0  0  1  0            999 V2000
  -30.5969  -14.7991   20.4710 C   0  0  0  0  0  0
  -30.4351  -12.4995   19.4799 C   0  0  0  0  0  0
  -29.5094  -12.5127   18.2434 C   0  0  0  0  0  0
  -28.0405  -12.3076   18.6643 C   0  0  0  0  0  0
  -27.6353  -13.2301   19.8436 C   0  0  2  0  0  0
  -28.6804  -13.1958   20.9798 C   0  0  0  0  0  0
  -25.2480  -13.8190   20.5683 C   0  0  0  0  0  0
  -24.1781  -13.0431   20.9232 C   0  0  0  0  0  0
  -24.6372  -11.6904   20.8753 C   0  0  0  0  0  0
  -23.9049  -10.4292   21.0405 C   0  0  0  0  0  0
  -24.3613   -9.4218   21.9188 C   0  0  0  0  0  0
  -23.6296   -8.2246   22.0757 C   0  0  0  0  0  0
  -22.4283   -8.0277   21.3539 C   0  0  0  0  0  0
  -21.9898   -9.0245   20.4636 C   0  0  0  0  0  0
  -22.7219  -10.2129   20.3046 C   0  0  0  0  0  0
  -21.6864   -6.0726   22.5271 C   0  0  0  0  0  0
  -21.4026   -6.5631   23.8208 C   0  0  0  0  0  0
  -21.3667   -5.6792   24.9174 C   0  0  0  0  0  0
  -21.6056   -4.3049   24.7227 C   0  0  0  0  0  0
  -21.8812   -3.8135   23.4353 C   0  0  0  0  0  0
  -21.9193   -4.6954   22.3405 C   0  0  0  0  0  0
  -22.7807  -13.5206   21.1890 C   0  0  0  0  0  0
  -22.1658   -4.2140   21.0980 F   0  0  0  0  0  0
  -21.5626   -3.4531   25.7738 F   0  0  0  0  0  0
  -29.9717  -13.5699   20.3930 N   0  0  0  0  0  0
  -26.2896  -12.9386   20.3269 N   0  0  0  0  0  0
  -25.9296  -11.6526   20.5745 N   0  0  0  0  0  0
  -22.0478  -12.8186   22.0459 N   0  0  0  0  0  0
  -25.4172  -15.1930   20.4123 N   0  0  0  0  0  0
  -31.7955  -14.8883   20.1945 O   0  0  0  0  0  0
  -21.6643   -6.8874   21.4235 O   0  0  0  0  0  0
  -22.3457  -14.5507   20.6744 O   0  0  0  0  0  0
  -24.6331  -31.8528   23.1946 C   0  0  0  0  0  0
  -25.9137  -32.4741   23.8309 C   0  0  1  0  0  0
  -27.2228  -27.2308   20.1605 C   0  0  0  0  0  0
  -25.5933  -33.8546   24.2248 N   0  0  0  0  0  0
  -23.4315  -30.4748   21.5358 C   0  0  2  0  0  0
  -24.8847  -28.9125   20.1140 C   0  0  0  0  0  0
  -22.7506  -29.4603   22.4870 C   0  0  0  0  0  0
  -18.0303  -28.1375   22.8485 C   0  0  0  0  0  0
  -24.1493  -36.7267   23.2646 C   0  0  0  0  0  0
  -25.9777  -30.7605   21.3771 C   0  0  0  0  0  0
  -26.0542  -29.3752   20.7301 C   0  0  0  0  0  0
  -27.2261  -28.5466   20.7431 C   0  0  0  0  0  0
  -26.0350  -26.8474   19.5039 C   0  0  0  0  0  0
  -24.8807  -27.6562   19.4876 C   0  0  0  0  0  0
  -23.6554  -29.8020   20.1549 C   0  0  0  0  0  0
  -25.4112  -36.3052   24.0342 C   0  0  1  0  0  0
  -20.5906  -28.3701   23.1247 C   0  0  2  0  0  0
  -20.6772  -26.9409   22.5402 C   0  0  0  0  0  0
  -19.5757  -26.6370   21.5206 C   0  0  0  0  0  0
  -18.1938  -26.7918   22.1625 C   0  0  0  0  0  0
  -19.1553  -28.8850   23.2867 C   0  0  0  0  0  0
  -18.9480  -30.1439   23.8893 C   0  0  0  0  0  0
  -17.6480  -30.6575   24.0552 C   0  0  0  0  0  0
  -25.9054  -34.9427   23.5089 C   0  0  0  0  0  0
  -16.5368  -29.9071   23.6326 C   0  0  0  0  0  0
  -16.7280  -28.6491   23.0356 C   0  0  0  0  0  0
  -26.4516  -31.6558   25.0694 C   0  0  0  0  0  0
  -25.3743  -31.3695   26.1415 C   0  0  0  0  0  0
  -27.0387  -30.2979   24.6184 C   0  0  0  0  0  0
  -27.6075  -32.4295   25.7461 C   0  0  0  0  0  0
  -27.5575  -37.1783   24.8471 C   0  0  0  0  0  0
  -21.4215  -29.3057   22.3624 N   0  0  0  0  0  0
  -26.4281  -37.3760   23.9419 N   0  0  0  0  0  0
  -24.6992  -31.0495   22.0920 N   0  0  0  0  0  0
  -23.4203  -28.8144   23.2975 O   0  0  0  0  0  0
  -28.3061  -26.3104   20.1687 O   0  0  0  0  0  0
  -26.5631  -34.8915   22.4667 O   0  0  0  0  0  0
  -23.5478  -32.1340   23.7251 O   0  0  0  0  0  0
  -29.3820  -19.8837   18.0842 C   0  0  0  0  0  0
  -29.7167  -18.6768   18.7370 C   0  0  0  0  0  0
  -29.7268  -18.6905   20.1514 C   0  0  0  0  0  0
  -29.1723  -21.0398   20.0431 C   0  0  0  0  0  0
  -30.2182  -17.3986   20.9770 C   0  0  0  0  0  0
  -28.8956  -23.7029   19.9612 C   0  0  0  0  0  0
  -28.1465  -24.9808   20.6570 C   0  0  1  0  0  0
  -29.1273  -21.0388   18.7260 N   0  0  0  0  0  0
  -29.4468  -19.9131   20.7769 N   0  0  0  0  0  0
  -30.0889  -17.5604   17.9781 N   0  0  0  0  0  0
  -28.9092  -22.3235   20.6355 N   0  0  0  0  0  0
  -29.8247  -15.9370   20.6786 N   0  0  0  0  0  0
  -28.5526  -24.9617   21.9514 F   0  0  0  0  0  0
  -31.4695  -12.6469   19.1680 H   0  0  0  0  0  0
  -30.4081  -11.5310   19.9808 H   0  0  0  0  0  0
  -29.8115  -11.7339   17.5404 H   0  0  0  0  0  0
  -29.6089  -13.4642   17.7155 H   0  0  0  0  0  0
  -27.9260  -11.2625   18.9568 H   0  0  0  0  0  0
  -27.3729  -12.4585   17.8155 H   0  0  0  0  0  0
  -27.6196  -14.2424   19.4370 H   0  0  0  0  0  0
  -28.7352  -12.2054   21.4349 H   0  0  0  0  0  0
  -28.3934  -13.8843   21.7766 H   0  0  0  0  0  0
  -25.2772   -9.5696   22.4741 H   0  0  0  0  0  0
  -24.0023   -7.4632   22.7457 H   0  0  0  0  0  0
  -21.0840   -8.8751   19.8935 H   0  0  0  0  0  0
  -22.3692  -10.9660   19.6139 H   0  0  0  0  0  0
  -21.2031   -7.6142   23.9714 H   0  0  0  0  0  0
  -21.1503   -6.0520   25.9082 H   0  0  0  0  0  0
  -22.0590   -2.7595   23.2848 H   0  0  0  0  0  0
  -22.4115  -11.9845   22.4817 H   0  0  0  0  0  0
  -21.1087  -13.1167   22.2686 H   0  0  0  0  0  0
  -24.6459  -15.8423   20.5246 H   0  0  0  0  0  0
  -26.2584  -15.6383   20.0672 H   0  0  0  0  0  0
  -26.7193  -32.5409   23.1048 H   0  0  0  0  0  0
  -25.0077  -33.9662   25.0392 H   0  0  0  0  0  0
  -22.7304  -31.2978   21.3843 H   0  0  0  0  0  0
  -23.3756  -35.9600   23.3291 H   0  0  0  0  0  0
  -24.3585  -36.8902   22.2061 H   0  0  0  0  0  0
  -23.7239  -37.6469   23.6672 H   0  0  0  0  0  0
  -26.1116  -31.5163   20.6011 H   0  0  0  0  0  0
  -26.8573  -30.8219   22.0046 H   0  0  0  0  0  0
  -28.1179  -28.8978   21.2417 H   0  0  0  0  0  0
  -25.9872  -25.8870   19.0131 H   0  0  0  0  0  0
  -23.9883  -27.2940   18.9949 H   0  0  0  0  0  0
  -23.7798  -30.5738   19.3955 H   0  0  0  0  0  0
  -22.7751  -29.2353   19.8457 H   0  0  0  0  0  0
  -25.1293  -36.1888   25.0836 H   0  0  0  0  0  0
  -21.0017  -28.3273   24.1363 H   0  0  0  0  0  0
  -20.5644  -26.2319   23.3616 H   0  0  0  0  0  0
  -21.6642  -26.7394   22.1226 H   0  0  0  0  0  0
  -19.6913  -25.6285   21.1231 H   0  0  0  0  0  0
  -19.6676  -27.3184   20.6735 H   0  0  0  0  0  0
  -17.4199  -26.6662   21.4022 H   0  0  0  0  0  0
  -18.0332  -26.0050   22.9013 H   0  0  0  0  0  0
  -19.7955  -30.7250   24.2259 H   0  0  0  0  0  0
  -17.5036  -31.6263   24.5154 H   0  0  0  0  0  0
  -15.5369  -30.2977   23.7642 H   0  0  0  0  0  0
  -15.8684  -28.0797   22.7077 H   0  0  0  0  0  0
  -24.5947  -30.7019   25.7722 H   0  0  0  0  0  0
  -24.8919  -32.2866   26.4803 H   0  0  0  0  0  0
  -25.8071  -30.8890   27.0196 H   0  0  0  0  0  0
  -26.2976  -29.6684   24.1251 H   0  0  0  0  0  0
  -27.4114  -29.7275   25.4696 H   0  0  0  0  0  0
  -27.8821  -30.4250   23.9397 H   0  0  0  0  0  0
  -27.2699  -33.3611   26.1994 H   0  0  0  0  0  0
  -28.3901  -32.6806   25.0295 H   0  0  0  0  0  0
  -28.0718  -31.8442   26.5405 H   0  0  0  0  0  0
  -28.2579  -38.0091   24.7520 H   0  0  0  0  0  0
  -28.1075  -36.2619   24.6275 H   0  0  0  0  0  0
  -27.2297  -37.1406   25.8876 H   0  0  0  0  0  0
  -20.9373  -29.8796   21.6856 H   0  0  0  0  0  0
  -26.0150  -38.2832   24.1430 H   0  0  0  0  0  0
  -29.3557  -19.9344   17.0055 H   0  0  0  0  0  0
  -31.3073  -17.4480   20.9815 H   0  0  0  0  0  0
  -29.9249  -17.5740   22.0120 H   0  0  0  0  0  0
  -29.9403  -23.9772   19.8135 H   0  0  0  0  0  0
  -28.4811  -23.5817   18.9602 H   0  0  0  0  0  0
  -27.0891  -24.7225   20.6639 H   0  0  0  0  0  0
  -30.4028  -17.7247   17.0239 H   0  0  0  0  0  0
  -30.6318  -16.8330   18.4394 H   0  0  0  0  0  0
  -28.9724  -22.3469   21.6462 H   0  0  0  0  0  0
  -28.8344  -15.7697   20.7461 H   0  0  0  0  0  0
  1 25  1  0  0  0
  1 30  2  0  0  0
  1 82  1  0  0  0
  2  3  1  0  0  0
  2 25  1  0  0  0
  2 84  1  0  0  0
  2 85  1  0  0  0
  3  4  1  0  0  0
  3 86  1  0  0  0
  3 87  1  0  0  0
  4  5  1  0  0  0
  4 88  1  0  0  0
  4 89  1  0  0  0
  5  6  1  0  0  0
  5 26  1  0  0  0
  5 90  1  0  0  0
  6 25  1  0  0  0
  6 91  1  0  0  0
  6 92  1  0  0  0
  7  8  2  0  0  0
  7 26  1  0  0  0
  7 29  1  0  0  0
  8  9  1  0  0  0
  8 22  1  0  0  0
  9 10  1  0  0  0
  9 27  2  0  0  0
 10 11  2  0  0  0
 10 15  1  0  0  0
 11 12  1  0  0  0
 11 93  1  0  0  0
 12 13  2  0  0  0
 12 94  1  0  0  0
 13 14  1  0  0  0
 13 31  1  0  0  0
 14 15  2  0  0  0
 14 95  1  0  0  0
 15 96  1  0  0  0
 16 17  2  0  0  0
 16 21  1  0  0  0
 16 31  1  0  0  0
 17 18  1  0  0  0
 17 97  1  0  0  0
 18 19  2  0  0  0
 18 98  1  0  0  0
 19 20  1  0  0  0
 19 24  1  0  0  0
 20 21  2  0  0  0
 20 99  1  0  0  0
 21 23  1  0  0  0
 22 28  1  0  0  0
 22 32  2  0  0  0
 26 27  1  0  0  0
 28100  1  0  0  0
 28101  1  0  0  0
 29102  1  0  0  0
 29103  1  0  0  0
 33 34  1  0  0  0
 33 66  1  0  0  0
 33 70  2  0  0  0
 34 36  1  0  0  0
 34 59  1  0  0  0
 34104  1  0  0  0
 35 44  2  0  0  0
 35 45  1  0  0  0
 35 68  1  0  0  0
 36 56  1  0  0  0
 36105  1  0  0  0
 37 39  1  0  0  0
 37 47  1  0  0  0
 37 66  1  0  0  0
 37106  1  0  0  0
 38 43  2  0  0  0
 38 46  1  0  0  0
 38 47  1  0  0  0
 39 64  1  0  0  0
 39 67  2  0  0  0
 40 52  1  0  0  0
 40 53  2  0  0  0
 40 58  1  0  0  0
 41107  1  0  0  0
 41108  1  0  0  0
 41109  1  0  0  0
 41 48  1  0  0  0
 42 43  1  0  0  0
 42 66  1  0  0  0
 42110  1  0  0  0
 42111  1  0  0  0
 43 44  1  0  0  0
 44112  1  0  0  0
 45 46  2  0  0  0
 45113  1  0  0  0
 46114  1  0  0  0
 47115  1  0  0  0
 47116  1  0  0  0
 48 56  1  0  0  0
 48 65  1  0  0  0
 48117  1  0  0  0
 49 50  1  0  0  0
 49 53  1  0  0  0
 49 64  1  0  0  0
 49118  1  0  0  0
 50 51  1  0  0  0
 50119  1  0  0  0
 50120  1  0  0  0
 51 52  1  0  0  0
 51121  1  0  0  0
 51122  1  0  0  0
 52123  1  0  0  0
 52124  1  0  0  0
 53 54  1  0  0  0
 54 55  2  0  0  0
 54125  1  0  0  0
 55 57  1  0  0  0
 55126  1  0  0  0
 56 69  2  0  0  0
 57 58  2  0  0  0
 57127  1  0  0  0
 58128  1  0  0  0
 59 60  1  0  0  0
 59 61  1  0  0  0
 59 62  1  0  0  0
 60129  1  0  0  0
 60130  1  0  0  0
 60131  1  0  0  0
 61132  1  0  0  0
 61133  1  0  0  0
 61134  1  0  0  0
 62135  1  0  0  0
 62136  1  0  0  0
 62137  1  0  0  0
 63 65  1  0  0  0
 63138  1  0  0  0
 63139  1  0  0  0
 63140  1  0  0  0
 64141  1  0  0  0
 65142  1  0  0  0
 68 77  1  0  0  0
 71 72  2  0  0  0
 71 78  1  0  0  0
 71143  1  0  0  0
 72 73  1  0  0  0
 72 80  1  0  0  0
 73 75  1  0  0  0
 73 79  2  0  0  0
 74 78  2  0  0  0
 74 79  1  0  0  0
 74 81  1  0  0  0
 75 82  1  0  0  0
 75144  1  0  0  0
 75145  1  0  0  0
 76 77  1  0  0  0
 76 81  1  0  0  0
 76146  1  0  0  0
 76147  1  0  0  0
 77 83  1  0  0  0
 77148  1  0  0  0
 80149  1  0  0  0
 80150  1  0  0  0
 81151  1  0  0  0
 82152  1  0  0  0
M  ISO  4   1 100  68 101  77 101  82 100
M  END
> <chiral flag>
0

> <version>
0

> <s_m_source_file>
/data/baiqing/PycharmProjects/Reinvent-master-3.2/result/LINK_invent/BTK/process_docking_weight1_custom_product_contain_oxygen_bond_distance_aromatic_linkinvent_7_9_3/rearranged_h_0196.sdf

> <i_m_source_file_index>
46

> <r_mmod_Potential_Energy-OPLS-2005>
-446.847503662109

> <r_mmod_Stretch_Energy-OPLS-2005>
134.989685058594

> <r_mmod_Bend_Energy-OPLS-2005>
185.544921875

> <r_mmod_Torsional_Energy-OPLS-2005>
196.656997680664

> <r_mmod_Improper_Torsional_Energy-OPLS-2005>
8.97006607055664

> <r_mmod_Van_der_Waal_Energy-OPLS-2005>
142.437515258789

> <r_mmod_Electrostatic_Energy-OPLS-2005>
-977.646179199219

> <r_mmod_Solvation_Energy-OPLS-2005>
-247.011764526367

> <b_mmod_Minimization_Converged-OPLS-2005>
0

> <r_mmod_RMS_Derivative-OPLS-2005>
3.3435525894165

$$$$
46
                    3D
 Structure written by MMmdl.
154162  0  0  1  0            999 V2000
  -29.6152  -14.3318   20.9844 C   0  0  0  0  0  0
  -30.6545  -12.5892   19.3480 C   0  0  0  0  0  0
  -29.8069  -12.5163   18.0069 C   0  0  0  0  0  0
  -28.2838  -12.2508   18.1396 C   0  0  0  0  0  0
  -27.9493  -13.0575   19.3160 C   0  0  2  0  0  0
  -28.7433  -12.3361   20.5048 C   0  0  0  0  0  0
  -25.1968  -14.3607   19.8913 C   0  0  0  0  0  0
  -24.2416  -13.6553   21.1626 C   0  0  0  0  0  0
  -24.8921  -12.0907   21.6673 C   0  0  0  0  0  0
  -24.0631  -10.7225   21.4875 C   0  0  0  0  0  0
  -24.4509   -9.5430   22.1786 C   0  0  0  0  0  0
  -23.7208   -8.3164   22.1583 C   0  0  0  0  0  0
  -22.5384   -8.1564   21.4008 C   0  0  0  0  0  0
  -22.1962   -9.2461   20.5660 C   0  0  0  0  0  0
  -22.9469  -10.4726   20.5915 C   0  0  0  0  0  0
  -21.7270   -6.1369   22.5035 C   0  0  0  0  0  0
  -21.4273   -6.6011   23.8062 C   0  0  0  0  0  0
  -21.3691   -5.7046   24.8957 C   0  0  0  0  0  0
  -21.5998   -4.3308   24.6965 C   0  0  0  0  0  0
  -21.8745   -3.8530   23.4040 C   0  0  0  0  0  0
  -21.9297   -4.7470   22.3146 C   0  0  0  0  0  0
  -22.7679  -13.8443   21.2655 C   0  0  0  0  0  0
  -22.1748   -4.2571   21.0763 F   0  0  0  0  0  0
  -21.5537   -3.4711   25.7442 F   0  0  0  0  0  0
  -29.8603  -13.0944   20.4980 N   0  0  0  0  0  0
  -26.6711  -13.1200   19.6751 N   0  0  0  0  0  0
  -26.3409  -11.8462   20.9166 N   0  0  0  0  0  0
  -22.0758  -13.0315   22.0648 N   0  0  0  0  0  0
  -25.2129  -15.6100   19.3821 N   0  0  0  0  0  0
  -30.6257  -15.0723   20.7995 O   0  0  0  0  0  0
  -21.7645   -6.9951   21.4127 O   0  0  0  0  0  0
  -22.2197  -14.7132   20.6074 O   0  0  0  0  0  0
  -24.6686  -31.8195   23.1754 C   0  0  0  0  0  0
  -25.9365  -32.4546   23.8184 C   0  0  1  0  0  0
  -26.9663  -26.7363   20.3066 C   0  0  0  0  0  0
  -25.6023  -33.8376   24.2059 N   0  0  0  0  0  0
  -23.4763  -30.4495   21.5249 C   0  0  2  0  0  0
  -24.8941  -28.8316   20.0987 C   0  0  0  0  0  0
  -22.7669  -29.4452   22.4725 C   0  0  0  0  0  0
  -18.0328  -28.1414   22.8467 C   0  0  0  0  0  0
  -24.1496  -36.7173   23.2645 C   0  0  0  0  0  0
  -26.0523  -30.5677   21.4347 C   0  0  0  0  0  0
  -26.0756  -29.1466   20.7823 C   0  0  0  0  0  0
  -27.1262  -28.1157   20.8588 C   0  0  0  0  0  0
  -25.8331  -26.6425   19.4863 C   0  0  0  0  0  0
  -24.8182  -27.6174   19.4065 C   0  0  0  0  0  0
  -23.7142  -29.7964   20.1369 C   0  0  0  0  0  0
  -25.4144  -36.2941   24.0288 C   0  0  1  0  0  0
  -20.5954  -28.3763   23.1164 C   0  0  2  0  0  0
  -20.6803  -26.9437   22.5395 C   0  0  0  0  0  0
  -19.5768  -26.6369   21.5218 C   0  0  0  0  0  0
  -18.1954  -26.7945   22.1629 C   0  0  0  0  0  0
  -19.1594  -28.8907   23.2805 C   0  0  0  0  0  0
  -18.9500  -30.1498   23.8839 C   0  0  0  0  0  0
  -17.6492  -30.6598   24.0554 C   0  0  0  0  0  0
  -25.9121  -34.9327   23.4990 C   0  0  0  0  0  0
  -16.5381  -29.9080   23.6350 C   0  0  0  0  0  0
  -16.7311  -28.6503   23.0363 C   0  0  0  0  0  0
  -26.4584  -31.6539   25.0759 C   0  0  0  0  0  0
  -25.3668  -31.3830   26.1384 C   0  0  0  0  0  0
  -27.0498  -30.2877   24.6624 C   0  0  0  0  0  0
  -27.6052  -32.4382   25.7550 C   0  0  0  0  0  0
  -27.5571  -37.1753   24.8464 C   0  0  0  0  0  0
  -21.4338  -29.3047   22.3491 N   0  0  0  0  0  0
  -26.4278  -37.3691   23.9408 N   0  0  0  0  0  0
  -24.7560  -30.9781   22.0949 N   0  0  0  0  0  0
  -23.4215  -28.7989   23.2943 O   0  0  0  0  0  0
  -27.7070  -25.4345   20.4777 O   0  0  0  0  0  0
  -26.5728  -34.8869   22.4589 O   0  0  0  0  0  0
  -23.5750  -32.1242   23.6804 O   0  0  0  0  0  0
  -24.5448  -16.6867   23.5001 C   0  0  0  0  0  0
  -26.1240  -15.8611   22.0109 C   0  0  0  0  0  0
  -26.2457  -17.4362   21.8128 C   0  0  0  0  0  0
  -26.8737  -20.7329   22.9199 C   0  0  0  0  0  0
  -26.5183  -14.0797   21.6526 C   0  0  0  0  0  0
  -27.3815  -22.0347   20.6798 C   0  0  0  0  0  0
  -27.0296  -23.8866   20.8058 C   0  0  0  0  0  0
  -26.6865  -20.4490   21.4186 C   0  0  1  0  0  0
  -25.2966  -15.6671   23.1289 N   0  0  0  0  0  0
  -26.9325  -18.7696   21.1923 N   0  0  0  0  0  0
  -28.2079  -14.5868   21.5312 N   0  0  0  0  0  0
  -24.8177  -18.1205   22.5866 S   0  0  0  0  0  0
  -31.5345  -13.2168   19.1971 H   0  0  0  0  0  0
  -31.0501  -11.6025   19.5955 H   0  0  0  0  0  0
  -30.2523  -11.7894   17.3259 H   0  0  0  0  0  0
  -29.9244  -13.4764   17.5022 H   0  0  0  0  0  0
  -28.0550  -11.1927   18.2752 H   0  0  0  0  0  0
  -27.7484  -12.5849   17.2501 H   0  0  0  0  0  0
  -28.1727  -14.0880   19.0213 H   0  0  0  0  0  0
  -28.9329  -11.2787   20.2951 H   0  0  0  0  0  0
  -28.4559  -12.2691   21.5599 H   0  0  0  0  0  0
  -25.3255   -9.6002   22.8119 H   0  0  0  0  0  0
  -24.0784   -7.4995   22.7683 H   0  0  0  0  0  0
  -21.3377   -9.1657   19.9133 H   0  0  0  0  0  0
  -22.6187  -11.2737   19.9455 H   0  0  0  0  0  0
  -21.2448   -7.6530   23.9721 H   0  0  0  0  0  0
  -21.1464   -6.0733   25.8867 H   0  0  0  0  0  0
  -22.0395   -2.7989   23.2433 H   0  0  0  0  0  0
  -22.5239  -12.3110   22.6090 H   0  0  0  0  0  0
  -21.0745  -13.1430   22.1379 H   0  0  0  0  0  0
  -24.4680  -16.2800   19.5335 H   0  0  0  0  0  0
  -25.9153  -15.9398   18.7303 H   0  0  0  0  0  0
  -26.7407  -32.5005   23.0854 H   0  0  0  0  0  0
  -25.0124  -33.9449   25.0177 H   0  0  0  0  0  0
  -22.7935  -31.2885   21.3709 H   0  0  0  0  0  0
  -23.3786  -35.9475   23.3270 H   0  0  0  0  0  0
  -24.3564  -36.8868   22.2068 H   0  0  0  0  0  0
  -23.7225  -37.6334   23.6734 H   0  0  0  0  0  0
  -26.2680  -31.2984   20.6544 H   0  0  0  0  0  0
  -26.9060  -30.6087   22.0991 H   0  0  0  0  0  0
  -28.0024  -28.3215   21.4577 H   0  0  0  0  0  0
  -25.6556  -25.7152   18.9609 H   0  0  0  0  0  0
  -23.9343  -27.3929   18.8259 H   0  0  0  0  0  0
  -23.9060  -30.5795   19.4028 H   0  0  0  0  0  0
  -22.8094  -29.2914   19.7932 H   0  0  0  0  0  0
  -25.1349  -36.1724   25.0777 H   0  0  0  0  0  0
  -21.0059  -28.3381   24.1281 H   0  0  0  0  0  0
  -20.5695  -26.2381   23.3645 H   0  0  0  0  0  0
  -21.6664  -26.7409   22.1193 H   0  0  0  0  0  0
  -19.6915  -25.6262   21.1288 H   0  0  0  0  0  0
  -19.6698  -27.3149   20.6724 H   0  0  0  0  0  0
  -17.4223  -26.6698   21.4034 H   0  0  0  0  0  0
  -18.0339  -26.0105   22.9042 H   0  0  0  0  0  0
  -19.7972  -30.7338   24.2176 H   0  0  0  0  0  0
  -17.5036  -31.6274   24.5170 H   0  0  0  0  0  0
  -15.5378  -30.2956   23.7705 H   0  0  0  0  0  0
  -15.8716  -28.0799   22.7101 H   0  0  0  0  0  0
  -24.5868  -30.7168   25.7685 H   0  0  0  0  0  0
  -24.8836  -32.3043   26.4649 H   0  0  0  0  0  0
  -25.7857  -30.9094   27.0271 H   0  0  0  0  0  0
  -26.3186  -29.6501   24.1647 H   0  0  0  0  0  0
  -27.3960  -29.7317   25.5349 H   0  0  0  0  0  0
  -27.9177  -30.4012   24.0125 H   0  0  0  0  0  0
  -27.2612  -33.3746   26.1959 H   0  0  0  0  0  0
  -28.3946  -32.6851   25.0435 H   0  0  0  0  0  0
  -28.0635  -31.8629   26.5606 H   0  0  0  0  0  0
  -28.2554  -38.0082   24.7535 H   0  0  0  0  0  0
  -28.1102  -36.2608   24.6270 H   0  0  0  0  0  0
  -27.2281  -37.1369   25.8863 H   0  0  0  0  0  0
  -20.9581  -29.8764   21.6652 H   0  0  0  0  0  0
  -26.0113  -38.2741   24.1433 H   0  0  0  0  0  0
  -23.8119  -16.5908   24.2880 H   0  0  0  0  0  0
  -26.6071  -21.7639   23.1537 H   0  0  0  0  0  0
  -27.9130  -20.5864   23.2144 H   0  0  0  0  0  0
  -26.2630  -20.1135   23.5712 H   0  0  0  0  0  0
  -24.9959  -12.5624   19.8832 H   0  0  0  0  0  0
  -26.5446  -13.5793   22.6278 H   0  0  0  0  0  0
  -28.4425  -21.9724   20.9196 H   0  0  0  0  0  0
  -27.3538  -21.8535   19.6055 H   0  0  0  0  0  0
  -26.8133  -23.9974   21.8679 H   0  0  0  0  0  0
  -26.0438  -23.9615   20.3482 H   0  0  0  0  0  0
  -25.6191  -20.5478   21.2124 H   0  0  0  0  0  0
  -27.6985  -18.5617   20.5525 H   0  0  0  0  0  0
  -28.2419  -15.5187   21.9189 H   0  0  0  0  0  0
  1 25  1  0  0  0
  1 30  2  0  0  0
  1 81  1  0  0  0
  2  3  1  0  0  0
  2 25  1  0  0  0
  2 83  1  0  0  0
  2 84  1  0  0  0
  3  4  1  0  0  0
  3 85  1  0  0  0
  3 86  1  0  0  0
  4  5  1  0  0  0
  4 87  1  0  0  0
  4 88  1  0  0  0
  5  6  1  0  0  0
  5 26  1  0  0  0
  5 89  1  0  0  0
  6 25  1  0  0  0
  6 90  1  0  0  0
  6 91  1  0  0  0
  7  8  2  0  0  0
  7 26  1  0  0  0
  7 29  1  0  0  0
  8  9  1  0  0  0
  8 22  1  0  0  0
  9 10  1  0  0  0
  9 27  2  0  0  0
 10 11  2  0  0  0
 10 15  1  0  0  0
 11 12  1  0  0  0
 11 92  1  0  0  0
 12 13  2  0  0  0
 12 93  1  0  0  0
 13 14  1  0  0  0
 13 31  1  0  0  0
 14 15  2  0  0  0
 14 94  1  0  0  0
 15 95  1  0  0  0
 16 17  2  0  0  0
 16 21  1  0  0  0
 16 31  1  0  0  0
 17 18  1  0  0  0
 17 96  1  0  0  0
 18 19  2  0  0  0
 18 97  1  0  0  0
 19 20  1  0  0  0
 19 24  1  0  0  0
 20 21  2  0  0  0
 20 98  1  0  0  0
 21 23  1  0  0  0
 22 28  1  0  0  0
 22 32  2  0  0  0
 26 27  1  0  0  0
 28 99  1  0  0  0
 28100  1  0  0  0
 29101  1  0  0  0
 29102  1  0  0  0
 33 34  1  0  0  0
 33 66  1  0  0  0
 33 70  2  0  0  0
 34 36  1  0  0  0
 34 59  1  0  0  0
 34103  1  0  0  0
 35 44  2  0  0  0
 35 45  1  0  0  0
 35 68  1  0  0  0
 36 56  1  0  0  0
 36104  1  0  0  0
 37 39  1  0  0  0
 37 47  1  0  0  0
 37 66  1  0  0  0
 37105  1  0  0  0
 38 43  2  0  0  0
 38 46  1  0  0  0
 38 47  1  0  0  0
 39 64  1  0  0  0
 39 67  2  0  0  0
 40 52  1  0  0  0
 40 53  2  0  0  0
 40 58  1  0  0  0
 41106  1  0  0  0
 41107  1  0  0  0
 41108  1  0  0  0
 41 48  1  0  0  0
 42 43  1  0  0  0
 42 66  1  0  0  0
 42109  1  0  0  0
 42110  1  0  0  0
 43 44  1  0  0  0
 44111  1  0  0  0
 45 46  2  0  0  0
 45112  1  0  0  0
 46113  1  0  0  0
 47114  1  0  0  0
 47115  1  0  0  0
 48 56  1  0  0  0
 48 65  1  0  0  0
 48116  1  0  0  0
 49 50  1  0  0  0
 49 53  1  0  0  0
 49 64  1  0  0  0
 49117  1  0  0  0
 50 51  1  0  0  0
 50118  1  0  0  0
 50119  1  0  0  0
 51 52  1  0  0  0
 51120  1  0  0  0
 51121  1  0  0  0
 52122  1  0  0  0
 52123  1  0  0  0
 53 54  1  0  0  0
 54 55  2  0  0  0
 54124  1  0  0  0
 55 57  1  0  0  0
 55125  1  0  0  0
 56 69  2  0  0  0
 57 58  2  0  0  0
 57126  1  0  0  0
 58127  1  0  0  0
 59 60  1  0  0  0
 59 61  1  0  0  0
 59 62  1  0  0  0
 60128  1  0  0  0
 60129  1  0  0  0
 60130  1  0  0  0
 61131  1  0  0  0
 61132  1  0  0  0
 61133  1  0  0  0
 62134  1  0  0  0
 62135  1  0  0  0
 62136  1  0  0  0
 63 65  1  0  0  0
 63137  1  0  0  0
 63138  1  0  0  0
 63139  1  0  0  0
 64140  1  0  0  0
 65141  1  0  0  0
 68 77  1  0  0  0
 71 79  2  0  0  0
 71 82  1  0  0  0
 71142  1  0  0  0
 72 73  2  0  0  0
 72 75  1  0  0  0
 72 79  1  0  0  0
 73 80  1  0  0  0
 73 82  1  0  0  0
 74143  1  0  0  0
 74144  1  0  0  0
 74145  1  0  0  0
 74 78  1  0  0  0
 75 81  1  0  0  0
 75146  1  0  0  0
 75147  1  0  0  0
 76 77  1  0  0  0
 76 78  1  0  0  0
 76148  1  0  0  0
 76149  1  0  0  0
 77150  1  0  0  0
 77151  1  0  0  0
 78 80  1  0  0  0
 78152  1  0  0  0
 80153  1  0  0  0
 81154  1  0  0  0
M  ISO  4   1 100  68 101  77 101  81 100
M  END
> <chiral flag>
0

> <version>
0

> <s_m_source_file>
/data/baiqing/PycharmProjects/Reinvent-master-3.2/result/LINK_invent/BTK/process_docking_weight1_custom_product_contain_oxygen_bond_distance_aromatic_linkinvent_7_9_3/rearranged_h_0196.sdf

> <i_m_source_file_index>
47

> <r_mmod_Potential_Energy-OPLS-2005>
11663.7666015625

> <r_mmod_Stretch_Energy-OPLS-2005>
7056.73193359375

> <r_mmod_Bend_Energy-OPLS-2005>
927.939147949219

> <r_mmod_Torsional_Energy-OPLS-2005>
396.944702148438

> <r_mmod_Improper_Torsional_Energy-OPLS-2005>
42.5786666870117

> <r_mmod_Van_der_Waal_Energy-OPLS-2005>
2413.61206054688

> <r_mmod_Electrostatic_Energy-OPLS-2005>
-411.657012939453

> <r_mmod_Solvation_Energy-OPLS-2005>
-231.720291137695

> <b_mmod_Minimization_Converged-OPLS-2005>
0

> <r_mmod_RMS_Derivative-OPLS-2005>
3.12934684753418

$$$$
47
                    3D
 Structure written by MMmdl.
153161  0  0  1  0            999 V2000
  -30.5050  -15.0995   20.4132 C   0  0  0  0  0  0
  -30.4408  -12.6844   19.5371 C   0  0  0  0  0  0
  -29.5404  -12.5436   18.2875 C   0  0  0  0  0  0
  -28.0767  -12.2976   18.7008 C   0  0  0  0  0  0
  -27.6181  -13.2637   19.8258 C   0  0  2  0  0  0
  -28.6502  -13.3716   20.9685 C   0  0  0  0  0  0
  -25.2382  -13.8232   20.5738 C   0  0  0  0  0  0
  -24.1721  -13.0429   20.9252 C   0  0  0  0  0  0
  -24.6363  -11.6923   20.8755 C   0  0  0  0  0  0
  -23.9063  -10.4277   21.0385 C   0  0  0  0  0  0
  -24.3607   -9.4190   21.9173 C   0  0  0  0  0  0
  -23.6269   -8.2235   22.0744 C   0  0  0  0  0  0
  -22.4264   -8.0266   21.3526 C   0  0  0  0  0  0
  -21.9877   -9.0252   20.4649 C   0  0  0  0  0  0
  -22.7215  -10.2131   20.3053 C   0  0  0  0  0  0
  -21.6865   -6.0709   22.5275 C   0  0  0  0  0  0
  -21.4021   -6.5604   23.8210 C   0  0  0  0  0  0
  -21.3673   -5.6764   24.9167 C   0  0  0  0  0  0
  -21.6057   -4.3031   24.7208 C   0  0  0  0  0  0
  -21.8810   -3.8108   23.4328 C   0  0  0  0  0  0
  -21.9188   -4.6931   22.3386 C   0  0  0  0  0  0
  -22.7745  -13.5205   21.1883 C   0  0  0  0  0  0
  -22.1660   -4.2126   21.0962 F   0  0  0  0  0  0
  -21.5636   -3.4510   25.7714 F   0  0  0  0  0  0
  -29.9105  -13.8210   20.3591 N   0  0  0  0  0  0
  -26.2810  -12.9504   20.3170 N   0  0  0  0  0  0
  -25.9294  -11.6621   20.5678 N   0  0  0  0  0  0
  -22.0365  -12.8269   22.0480 N   0  0  0  0  0  0
  -25.3981  -15.1972   20.4220 N   0  0  0  0  0  0
  -31.7266  -15.0905   20.1966 O   0  0  0  0  0  0
  -21.6637   -6.8860   21.4239 O   0  0  0  0  0  0
  -22.3459  -14.5484   20.6670 O   0  0  0  0  0  0
  -24.6504  -31.8392   23.1804 C   0  0  0  0  0  0
  -25.9236  -32.4669   23.8248 C   0  0  1  0  0  0
  -27.2076  -27.0522   20.1552 C   0  0  0  0  0  0
  -25.5956  -33.8480   24.2163 N   0  0  0  0  0  0
  -23.4570  -30.4558   21.5275 C   0  0  2  0  0  0
  -24.9063  -28.8674   20.1063 C   0  0  0  0  0  0
  -22.7599  -29.4525   22.4815 C   0  0  0  0  0  0
  -18.0324  -28.1405   22.8471 C   0  0  0  0  0  0
  -24.1479  -36.7247   23.2638 C   0  0  0  0  0  0
  -26.0169  -30.6839   21.3910 C   0  0  0  0  0  0
  -26.0864  -29.2870   20.7333 C   0  0  0  0  0  0
  -27.2361  -28.3957   20.7399 C   0  0  0  0  0  0
  -26.0054  -26.7617   19.4753 C   0  0  0  0  0  0
  -24.8839  -27.6220   19.4616 C   0  0  0  0  0  0
  -23.6879  -29.7822   20.1486 C   0  0  0  0  0  0
  -25.4118  -36.3025   24.0314 C   0  0  1  0  0  0
  -20.5933  -28.3741   23.1204 C   0  0  2  0  0  0
  -20.6804  -26.9431   22.5398 C   0  0  0  0  0  0
  -19.5770  -26.6362   21.5222 C   0  0  0  0  0  0
  -18.1959  -26.7931   22.1638 C   0  0  0  0  0  0
  -19.1580  -28.8891   23.2830 C   0  0  0  0  0  0
  -18.9494  -30.1490   23.8850 C   0  0  0  0  0  0
  -17.6490  -30.6595   24.0557 C   0  0  0  0  0  0
  -25.9083  -34.9405   23.5047 C   0  0  0  0  0  0
  -16.5384  -29.9090   23.6337 C   0  0  0  0  0  0
  -16.7306  -28.6512   23.0351 C   0  0  0  0  0  0
  -26.4538  -31.6554   25.0713 C   0  0  0  0  0  0
  -25.3712  -31.3783   26.1406 C   0  0  0  0  0  0
  -27.0399  -30.2930   24.6341 C   0  0  0  0  0  0
  -27.6060  -32.4335   25.7500 C   0  0  0  0  0  0
  -27.5574  -37.1776   24.8468 C   0  0  0  0  0  0
  -21.4280  -29.3056   22.3560 N   0  0  0  0  0  0
  -26.4281  -37.3746   23.9416 N   0  0  0  0  0  0
  -24.7286  -31.0179   22.0882 N   0  0  0  0  0  0
  -23.4217  -28.8098   23.3003 O   0  0  0  0  0  0
  -28.2280  -26.0099   20.2485 O   0  0  0  0  0  0
  -26.5672  -34.8912   22.4630 O   0  0  0  0  0  0
  -23.5602  -32.1302   23.6989 O   0  0  0  0  0  0
  -30.7230  -20.5195   20.9881 C   0  0  0  0  0  0
  -31.5650  -19.4252   21.2496 C   0  0  0  0  0  0
  -29.4490  -20.3068   20.4677 C   0  0  0  0  0  0
  -30.0055  -17.8268   20.5658 C   0  0  0  0  0  0
  -32.9594  -19.6704   21.7882 C   0  0  0  0  0  0
  -28.6537  -23.1438   22.1295 C   0  0  0  0  0  0
  -28.0096  -24.4556   19.9504 C   0  0  0  0  0  0
  -28.8250  -23.0667   20.5984 C   0  0  2  0  0  0
  -31.2110  -18.1342   21.0440 N   0  0  0  0  0  0
  -29.1209  -18.9156   20.2809 N   0  0  0  0  0  0
  -28.6333  -21.5381   20.1628 N   0  0  0  0  0  0
  -29.7366  -16.3376   20.4630 N   0  0  0  0  0  0
  -31.4807  -12.8418   19.2405 H   0  0  0  0  0  0
  -30.4412  -11.7602   20.1178 H   0  0  0  0  0  0
  -29.8932  -11.7241   17.6586 H   0  0  0  0  0  0
  -29.6074  -13.4492   17.6830 H   0  0  0  0  0  0
  -28.0117  -11.2693   19.0588 H   0  0  0  0  0  0
  -27.4183  -12.3602   17.8340 H   0  0  0  0  0  0
  -27.5568  -14.2463   19.3529 H   0  0  0  0  0  0
  -28.7690  -12.4140   21.4812 H   0  0  0  0  0  0
  -28.3184  -14.0864   21.7237 H   0  0  0  0  0  0
  -25.2753   -9.5680   22.4744 H   0  0  0  0  0  0
  -23.9984   -7.4626   22.7454 H   0  0  0  0  0  0
  -21.0795   -8.8756   19.8975 H   0  0  0  0  0  0
  -22.3642  -10.9659   19.6161 H   0  0  0  0  0  0
  -21.2023   -7.6118   23.9718 H   0  0  0  0  0  0
  -21.1533   -6.0484   25.9086 H   0  0  0  0  0  0
  -22.0582   -2.7562   23.2822 H   0  0  0  0  0  0
  -22.3941  -11.9978   22.4987 H   0  0  0  0  0  0
  -21.0969  -13.1333   22.2588 H   0  0  0  0  0  0
  -24.6175  -15.8313   20.5456 H   0  0  0  0  0  0
  -26.2233  -15.6544   20.0590 H   0  0  0  0  0  0
  -26.7296  -32.5255   23.0972 H   0  0  0  0  0  0
  -25.0070  -33.9613   25.0287 H   0  0  0  0  0  0
  -22.7630  -31.2844   21.3692 H   0  0  0  0  0  0
  -23.3762  -35.9554   23.3282 H   0  0  0  0  0  0
  -24.3549  -36.8908   22.2051 H   0  0  0  0  0  0
  -23.7206  -37.6423   23.6696 H   0  0  0  0  0  0
  -26.1799  -31.4326   20.6164 H   0  0  0  0  0  0
  -26.8838  -30.7405   22.0359 H   0  0  0  0  0  0
  -28.1286  -28.7112   21.2614 H   0  0  0  0  0  0
  -25.8957  -25.8143   18.9696 H   0  0  0  0  0  0
  -23.9875  -27.2993   18.9491 H   0  0  0  0  0  0
  -23.8333  -30.5574   19.3947 H   0  0  0  0  0  0
  -22.7983  -29.2349   19.8322 H   0  0  0  0  0  0
  -25.1301  -36.1847   25.0805 H   0  0  0  0  0  0
  -21.0051  -28.3343   24.1323 H   0  0  0  0  0  0
  -20.5702  -26.2374   23.3640 H   0  0  0  0  0  0
  -21.6669  -26.7434   22.1198 H   0  0  0  0  0  0
  -19.6946  -25.6257   21.1303 H   0  0  0  0  0  0
  -19.6706  -27.3128   20.6713 H   0  0  0  0  0  0
  -17.4228  -26.6663   21.4046 H   0  0  0  0  0  0
  -18.0371  -26.0087   22.9052 H   0  0  0  0  0  0
  -19.7974  -30.7320   24.2189 H   0  0  0  0  0  0
  -17.5049  -31.6278   24.5157 H   0  0  0  0  0  0
  -15.5377  -30.2989   23.7676 H   0  0  0  0  0  0
  -15.8711  -28.0826   22.7075 H   0  0  0  0  0  0
  -24.5824  -30.7230   25.7699 H   0  0  0  0  0  0
  -24.9005  -32.3005   26.4829 H   0  0  0  0  0  0
  -25.7969  -30.8906   27.0187 H   0  0  0  0  0  0
  -26.3028  -29.6641   24.1342 H   0  0  0  0  0  0
  -27.3966  -29.7244   25.4939 H   0  0  0  0  0  0
  -27.8961  -30.4123   23.9696 H   0  0  0  0  0  0
  -27.2623  -33.3626   26.2057 H   0  0  0  0  0  0
  -28.3876  -32.6921   25.0346 H   0  0  0  0  0  0
  -28.0729  -31.8492   26.5439 H   0  0  0  0  0  0
  -28.2591  -38.0074   24.7513 H   0  0  0  0  0  0
  -28.1080  -36.2611   24.6296 H   0  0  0  0  0  0
  -27.2311  -37.1412   25.8877 H   0  0  0  0  0  0
  -20.9509  -29.8742   21.6692 H   0  0  0  0  0  0
  -26.0150  -38.2813   24.1444 H   0  0  0  0  0  0
  -31.0862  -21.5195   21.1729 H   0  0  0  0  0  0
  -33.3636  -20.6081   21.3998 H   0  0  0  0  0  0
  -33.6424  -18.8683   21.5096 H   0  0  0  0  0  0
  -32.9449  -19.7421   22.8741 H   0  0  0  0  0  0
  -27.9490  -23.9266   22.4091 H   0  0  0  0  0  0
  -29.5992  -23.3770   22.6208 H   0  0  0  0  0  0
  -28.2748  -22.2179   22.5653 H   0  0  0  0  0  0
  -26.9521  -24.2602   20.1188 H   0  0  0  0  0  0
  -28.1291  -24.3805   18.8692 H   0  0  0  0  0  0
  -29.8769  -23.2665   20.3885 H   0  0  0  0  0  0
  -27.7711  -21.3540   19.6563 H   0  0  0  0  0  0
  -28.7484  -16.1450   20.4591 H   0  0  0  0  0  0
  1 25  1  0  0  0
  1 30  2  0  0  0
  1 82  1  0  0  0
  2  3  1  0  0  0
  2 25  1  0  0  0
  2 83  1  0  0  0
  2 84  1  0  0  0
  3  4  1  0  0  0
  3 85  1  0  0  0
  3 86  1  0  0  0
  4  5  1  0  0  0
  4 87  1  0  0  0
  4 88  1  0  0  0
  5  6  1  0  0  0
  5 26  1  0  0  0
  5 89  1  0  0  0
  6 25  1  0  0  0
  6 90  1  0  0  0
  6 91  1  0  0  0
  7  8  2  0  0  0
  7 26  1  0  0  0
  7 29  1  0  0  0
  8  9  1  0  0  0
  8 22  1  0  0  0
  9 10  1  0  0  0
  9 27  2  0  0  0
 10 11  2  0  0  0
 10 15  1  0  0  0
 11 12  1  0  0  0
 11 92  1  0  0  0
 12 13  2  0  0  0
 12 93  1  0  0  0
 13 14  1  0  0  0
 13 31  1  0  0  0
 14 15  2  0  0  0
 14 94  1  0  0  0
 15 95  1  0  0  0
 16 17  2  0  0  0
 16 21  1  0  0  0
 16 31  1  0  0  0
 17 18  1  0  0  0
 17 96  1  0  0  0
 18 19  2  0  0  0
 18 97  1  0  0  0
 19 20  1  0  0  0
 19 24  1  0  0  0
 20 21  2  0  0  0
 20 98  1  0  0  0
 21 23  1  0  0  0
 22 28  1  0  0  0
 22 32  2  0  0  0
 26 27  1  0  0  0
 28 99  1  0  0  0
 28100  1  0  0  0
 29101  1  0  0  0
 29102  1  0  0  0
 33 34  1  0  0  0
 33 66  1  0  0  0
 33 70  2  0  0  0
 34 36  1  0  0  0
 34 59  1  0  0  0
 34103  1  0  0  0
 35 44  2  0  0  0
 35 45  1  0  0  0
 35 68  1  0  0  0
 36 56  1  0  0  0
 36104  1  0  0  0
 37 39  1  0  0  0
 37 47  1  0  0  0
 37 66  1  0  0  0
 37105  1  0  0  0
 38 43  2  0  0  0
 38 46  1  0  0  0
 38 47  1  0  0  0
 39 64  1  0  0  0
 39 67  2  0  0  0
 40 52  1  0  0  0
 40 53  2  0  0  0
 40 58  1  0  0  0
 41106  1  0  0  0
 41107  1  0  0  0
 41108  1  0  0  0
 41 48  1  0  0  0
 42 43  1  0  0  0
 42 66  1  0  0  0
 42109  1  0  0  0
 42110  1  0  0  0
 43 44  1  0  0  0
 44111  1  0  0  0
 45 46  2  0  0  0
 45112  1  0  0  0
 46113  1  0  0  0
 47114  1  0  0  0
 47115  1  0  0  0
 48 56  1  0  0  0
 48 65  1  0  0  0
 48116  1  0  0  0
 49 50  1  0  0  0
 49 53  1  0  0  0
 49 64  1  0  0  0
 49117  1  0  0  0
 50 51  1  0  0  0
 50118  1  0  0  0
 50119  1  0  0  0
 51 52  1  0  0  0
 51120  1  0  0  0
 51121  1  0  0  0
 52122  1  0  0  0
 52123  1  0  0  0
 53 54  1  0  0  0
 54 55  2  0  0  0
 54124  1  0  0  0
 55 57  1  0  0  0
 55125  1  0  0  0
 56 69  2  0  0  0
 57 58  2  0  0  0
 57126  1  0  0  0
 58127  1  0  0  0
 59 60  1  0  0  0
 59 61  1  0  0  0
 59 62  1  0  0  0
 60128  1  0  0  0
 60129  1  0  0  0
 60130  1  0  0  0
 61131  1  0  0  0
 61132  1  0  0  0
 61133  1  0  0  0
 62134  1  0  0  0
 62135  1  0  0  0
 62136  1  0  0  0
 63 65  1  0  0  0
 63137  1  0  0  0
 63138  1  0  0  0
 63139  1  0  0  0
 64140  1  0  0  0
 65141  1  0  0  0
 68 77  1  0  0  0
 71 72  2  0  0  0
 71 73  1  0  0  0
 71142  1  0  0  0
 72 75  1  0  0  0
 72 79  1  0  0  0
 73 80  2  0  0  0
 73 81  1  0  0  0
 74 79  2  0  0  0
 74 80  1  0  0  0
 74 82  1  0  0  0
 75143  1  0  0  0
 75144  1  0  0  0
 75145  1  0  0  0
 76146  1  0  0  0
 76147  1  0  0  0
 76148  1  0  0  0
 76 78  1  0  0  0
 77 78  1  0  0  0
 77149  1  0  0  0
 77150  1  0  0  0
 78 81  1  0  0  0
 78151  1  0  0  0
 81152  1  0  0  0
 82153  1  0  0  0
M  ISO  4   1 100  68 101  77 101  82 100
M  END
> <chiral flag>
0

> <version>
0

> <s_m_source_file>
/data/baiqing/PycharmProjects/Reinvent-master-3.2/result/LINK_invent/BTK/process_docking_weight1_custom_product_contain_oxygen_bond_distance_aromatic_linkinvent_7_9_3/rearranged_h_0196.sdf

> <i_m_source_file_index>
48

> <r_mmod_Potential_Energy-OPLS-2005>
234.747940063477

> <r_mmod_Stretch_Energy-OPLS-2005>
356.438568115234

> <r_mmod_Bend_Energy-OPLS-2005>
321.360900878906

> <r_mmod_Torsional_Energy-OPLS-2005>
210.425567626953

> <r_mmod_Improper_Torsional_Energy-OPLS-2005>
5.60763740539551

> <r_mmod_Van_der_Waal_Energy-OPLS-2005>
135.189453125

> <r_mmod_Electrostatic_Energy-OPLS-2005>
-840.074890136719

> <r_mmod_Solvation_Energy-OPLS-2005>
-250.445159912109

> <b_mmod_Minimization_Converged-OPLS-2005>
0

> <r_mmod_RMS_Derivative-OPLS-2005>
4.06260538101196

$$$$
48
                    3D
 Structure written by MMmdl.
151159  0  0  1  0            999 V2000
  -30.6894  -14.5420   20.5577 C   0  0  0  0  0  0
  -30.4222  -12.3507   19.4313 C   0  0  0  0  0  0
  -29.4933  -12.5018   18.2095 C   0  0  0  0  0  0
  -28.0172  -12.3508   18.6262 C   0  0  0  0  0  0
  -27.6530  -13.2136   19.8639 C   0  0  2  0  0  0
  -28.6970  -13.0459   20.9896 C   0  0  0  0  0  0
  -25.2559  -13.8176   20.5685 C   0  0  0  0  0  0
  -24.1823  -13.0442   20.9188 C   0  0  0  0  0  0
  -24.6385  -11.6912   20.8740 C   0  0  0  0  0  0
  -23.9057  -10.4295   21.0408 C   0  0  0  0  0  0
  -24.3613   -9.4212   21.9183 C   0  0  0  0  0  0
  -23.6292   -8.2246   22.0754 C   0  0  0  0  0  0
  -22.4274   -8.0280   21.3544 C   0  0  0  0  0  0
  -21.9906   -9.0254   20.4646 C   0  0  0  0  0  0
  -22.7232  -10.2135   20.3055 C   0  0  0  0  0  0
  -21.6853   -6.0736   22.5280 C   0  0  0  0  0  0
  -21.4010   -6.5641   23.8213 C   0  0  0  0  0  0
  -21.3660   -5.6793   24.9176 C   0  0  0  0  0  0
  -21.6045   -4.3056   24.7226 C   0  0  0  0  0  0
  -21.8818   -3.8148   23.4347 C   0  0  0  0  0  0
  -21.9192   -4.6963   22.3404 C   0  0  0  0  0  0
  -22.7847  -13.5237   21.1855 C   0  0  0  0  0  0
  -22.1660   -4.2150   21.0981 F   0  0  0  0  0  0
  -21.5631   -3.4539   25.7739 F   0  0  0  0  0  0
  -30.0162  -13.3629   20.4229 N   0  0  0  0  0  0
  -26.2984  -12.9351   20.3329 N   0  0  0  0  0  0
  -25.9311  -11.6507   20.5764 N   0  0  0  0  0  0
  -22.0492  -12.8227   22.0413 N   0  0  0  0  0  0
  -25.4281  -15.1897   20.4090 N   0  0  0  0  0  0
  -31.8376  -14.6875   20.1315 O   0  0  0  0  0  0
  -21.6639   -6.8878   21.4242 O   0  0  0  0  0  0
  -22.3531  -14.5550   20.6715 O   0  0  0  0  0  0
  -24.6188  -31.8647   23.2073 C   0  0  0  0  0  0
  -25.9063  -32.4806   23.8383 C   0  0  1  0  0  0
  -27.2281  -27.3889   20.1109 C   0  0  0  0  0  0
  -25.5908  -33.8606   24.2310 N   0  0  0  0  0  0
  -23.4099  -30.4873   21.5479 C   0  0  2  0  0  0
  -24.8587  -28.9467   20.1148 C   0  0  0  0  0  0
  -22.7433  -29.4644   22.4966 C   0  0  0  0  0  0
  -18.0277  -28.1379   22.8492 C   0  0  0  0  0  0
  -24.1488  -36.7302   23.2641 C   0  0  0  0  0  0
  -25.9436  -30.8146   21.3701 C   0  0  0  0  0  0
  -26.0204  -29.4443   20.7200 C   0  0  0  0  0  0
  -27.2110  -28.6718   20.7190 C   0  0  0  0  0  0
  -26.0558  -26.9216   19.4880 C   0  0  0  0  0  0
  -24.8724  -27.6850   19.4951 C   0  0  0  0  0  0
  -23.6225  -29.8187   20.1633 C   0  0  0  0  0  0
  -25.4109  -36.3099   24.0337 C   0  0  1  0  0  0
  -20.5871  -28.3672   23.1302 C   0  0  2  0  0  0
  -20.6767  -26.9403   22.5414 C   0  0  0  0  0  0
  -19.5746  -26.6380   21.5215 C   0  0  0  0  0  0
  -18.1924  -26.7926   22.1621 C   0  0  0  0  0  0
  -19.1528  -28.8843   23.2894 C   0  0  0  0  0  0
  -18.9458  -30.1449   23.8905 C   0  0  0  0  0  0
  -17.6459  -30.6587   24.0564 C   0  0  0  0  0  0
  -25.9037  -34.9466   23.5118 C   0  0  0  0  0  0
  -16.5349  -29.9086   23.6332 C   0  0  0  0  0  0
  -16.7265  -28.6503   23.0352 C   0  0  0  0  0  0
  -26.4481  -31.6599   25.0726 C   0  0  0  0  0  0
  -25.3737  -31.3713   26.1469 C   0  0  0  0  0  0
  -27.0323  -30.3039   24.6124 C   0  0  0  0  0  0
  -27.6046  -32.4330   25.7492 C   0  0  0  0  0  0
  -27.5578  -37.1805   24.8470 C   0  0  0  0  0  0
  -21.4156  -29.3036   22.3704 N   0  0  0  0  0  0
  -26.4291  -37.3785   23.9410 N   0  0  0  0  0  0
  -24.6756  -31.0712   22.0992 N   0  0  0  0  0  0
  -23.4187  -28.8190   23.3026 O   0  0  0  0  0  0
  -28.3487  -26.5765   20.0805 O   0  0  0  0  0  0
  -26.5600  -34.8924   22.4681 O   0  0  0  0  0  0
  -23.5369  -32.1419   23.7437 O   0  0  0  0  0  0
  -29.9792  -18.1597   21.0308 C   0  0  0  0  0  0
  -29.1916  -20.4828   20.8439 C   0  0  0  0  0  0
  -30.6093  -16.8640   21.5401 C   0  0  0  0  0  0
  -28.9775  -23.1473   20.5231 C   0  0  0  0  0  0
  -28.5663  -25.7689   21.2615 C   0  0  0  0  0  0
  -28.1617  -24.2416   21.2897 C   0  0  1  0  0  0
  -30.3049  -18.7413   19.8605 N   0  0  0  0  0  0
  -29.8688  -20.0761   19.7603 N   0  0  0  0  0  0
  -28.7175  -21.7924   21.0657 N   0  0  0  0  0  0
  -30.0045  -15.5864   21.0835 N   0  0  0  0  0  0
  -26.7954  -24.0504   20.9828 O   0  0  0  0  0  0
  -28.9751  -19.2073   22.0550 S   0  0  0  0  0  0
  -31.4651  -12.4560   19.1270 H   0  0  0  0  0  0
  -30.3369  -11.3506   19.8591 H   0  0  0  0  0  0
  -29.7447  -11.7601   17.4503 H   0  0  0  0  0  0
  -29.6464  -13.4781   17.7469 H   0  0  0  0  0  0
  -27.8436  -11.2967   18.8466 H   0  0  0  0  0  0
  -27.3621  -12.5969   17.7898 H   0  0  0  0  0  0
  -27.6814  -14.2533   19.5370 H   0  0  0  0  0  0
  -28.6929  -12.0220   21.3665 H   0  0  0  0  0  0
  -28.4520  -13.6764   21.8454 H   0  0  0  0  0  0
  -25.2759   -9.5690   22.4753 H   0  0  0  0  0  0
  -24.0004   -7.4638   22.7471 H   0  0  0  0  0  0
  -21.0837   -8.8770   19.8949 H   0  0  0  0  0  0
  -22.3690  -10.9672   19.6162 H   0  0  0  0  0  0
  -21.1998   -7.6148   23.9718 H   0  0  0  0  0  0
  -21.1482   -6.0523   25.9080 H   0  0  0  0  0  0
  -22.0596   -2.7608   23.2849 H   0  0  0  0  0  0
  -22.4106  -11.9879   22.4786 H   0  0  0  0  0  0
  -21.1114  -13.1253   22.2635 H   0  0  0  0  0  0
  -24.6611  -15.8451   20.5137 H   0  0  0  0  0  0
  -26.2776  -15.6265   20.0742 H   0  0  0  0  0  0
  -26.7136  -32.5504   23.1144 H   0  0  0  0  0  0
  -25.0087  -33.9770   25.0476 H   0  0  0  0  0  0
  -22.7007  -31.3053   21.4050 H   0  0  0  0  0  0
  -23.3751  -35.9636   23.3315 H   0  0  0  0  0  0
  -24.3582  -36.8904   22.2054 H   0  0  0  0  0  0
  -23.7242  -37.6509   23.6651 H   0  0  0  0  0  0
  -26.0640  -31.5772   20.5993 H   0  0  0  0  0  0
  -26.8287  -30.8681   21.9922 H   0  0  0  0  0  0
  -28.1075  -29.0507   21.1900 H   0  0  0  0  0  0
  -26.0561  -25.9510   19.0126 H   0  0  0  0  0  0
  -23.9808  -27.2956   19.0228 H   0  0  0  0  0  0
  -23.7349  -30.5935   19.4041 H   0  0  0  0  0  0
  -22.7457  -29.2409   19.8648 H   0  0  0  0  0  0
  -25.1288  -36.1958   25.0830 H   0  0  0  0  0  0
  -20.9961  -28.3237   24.1421 H   0  0  0  0  0  0
  -20.5670  -26.2279   23.3604 H   0  0  0  0  0  0
  -21.6635  -26.7442   22.1202 H   0  0  0  0  0  0
  -19.6909  -25.6291   21.1240 H   0  0  0  0  0  0
  -19.6689  -27.3192   20.6750 H   0  0  0  0  0  0
  -17.4195  -26.6683   21.4021 H   0  0  0  0  0  0
  -18.0319  -26.0063   22.9013 H   0  0  0  0  0  0
  -19.7937  -30.7260   24.2273 H   0  0  0  0  0  0
  -17.5021  -31.6271   24.5155 H   0  0  0  0  0  0
  -15.5352  -30.2992   23.7659 H   0  0  0  0  0  0
  -15.8663  -28.0829   22.7062 H   0  0  0  0  0  0
  -24.5910  -30.7060   25.7807 H   0  0  0  0  0  0
  -24.8934  -32.2876   26.4914 H   0  0  0  0  0  0
  -25.8084  -30.8885   27.0232 H   0  0  0  0  0  0
  -26.2881  -29.6791   24.1170 H   0  0  0  0  0  0
  -27.4087  -29.7277   25.4588 H   0  0  0  0  0  0
  -27.8717  -30.4360   23.9292 H   0  0  0  0  0  0
  -27.2656  -33.3624   26.2080 H   0  0  0  0  0  0
  -28.3847  -32.6901   25.0315 H   0  0  0  0  0  0
  -28.0726  -31.8455   26.5401 H   0  0  0  0  0  0
  -28.2600  -38.0098   24.7505 H   0  0  0  0  0  0
  -28.1067  -36.2627   24.6305 H   0  0  0  0  0  0
  -27.2298  -37.1459   25.8874 H   0  0  0  0  0  0
  -20.9318  -29.8761   21.6926 H   0  0  0  0  0  0
  -26.0180  -38.2864   24.1404 H   0  0  0  0  0  0
  -30.5601  -16.8753   22.6289 H   0  0  0  0  0  0
  -31.6732  -16.9011   21.3024 H   0  0  0  0  0  0
  -30.0435  -23.3534   20.6310 H   0  0  0  0  0  0
  -28.7647  -23.1782   19.4533 H   0  0  0  0  0  0
  -29.6335  -25.8289   21.4772 H   0  0  0  0  0  0
  -28.0912  -26.2579   22.1148 H   0  0  0  0  0  0
  -28.2641  -23.9792   22.3444 H   0  0  0  0  0  0
  -28.2294  -21.8342   21.9543 H   0  0  0  0  0  0
  -29.0447  -15.4193   21.3425 H   0  0  0  0  0  0
  -26.6823  -23.1136   20.8487 H   0  0  0  0  0  0
  1 25  1  0  0  0
  1 30  2  0  0  0
  1 80  1  0  0  0
  2  3  1  0  0  0
  2 25  1  0  0  0
  2 83  1  0  0  0
  2 84  1  0  0  0
  3  4  1  0  0  0
  3 85  1  0  0  0
  3 86  1  0  0  0
  4  5  1  0  0  0
  4 87  1  0  0  0
  4 88  1  0  0  0
  5  6  1  0  0  0
  5 26  1  0  0  0
  5 89  1  0  0  0
  6 25  1  0  0  0
  6 90  1  0  0  0
  6 91  1  0  0  0
  7  8  2  0  0  0
  7 26  1  0  0  0
  7 29  1  0  0  0
  8  9  1  0  0  0
  8 22  1  0  0  0
  9 10  1  0  0  0
  9 27  2  0  0  0
 10 11  2  0  0  0
 10 15  1  0  0  0
 11 12  1  0  0  0
 11 92  1  0  0  0
 12 13  2  0  0  0
 12 93  1  0  0  0
 13 14  1  0  0  0
 13 31  1  0  0  0
 14 15  2  0  0  0
 14 94  1  0  0  0
 15 95  1  0  0  0
 16 17  2  0  0  0
 16 21  1  0  0  0
 16 31  1  0  0  0
 17 18  1  0  0  0
 17 96  1  0  0  0
 18 19  2  0  0  0
 18 97  1  0  0  0
 19 20  1  0  0  0
 19 24  1  0  0  0
 20 21  2  0  0  0
 20 98  1  0  0  0
 21 23  1  0  0  0
 22 28  1  0  0  0
 22 32  2  0  0  0
 26 27  1  0  0  0
 28 99  1  0  0  0
 28100  1  0  0  0
 29101  1  0  0  0
 29102  1  0  0  0
 33 34  1  0  0  0
 33 66  1  0  0  0
 33 70  2  0  0  0
 34 36  1  0  0  0
 34 59  1  0  0  0
 34103  1  0  0  0
 35 44  2  0  0  0
 35 45  1  0  0  0
 35 68  1  0  0  0
 36 56  1  0  0  0
 36104  1  0  0  0
 37 39  1  0  0  0
 37 47  1  0  0  0
 37 66  1  0  0  0
 37105  1  0  0  0
 38 43  2  0  0  0
 38 46  1  0  0  0
 38 47  1  0  0  0
 39 64  1  0  0  0
 39 67  2  0  0  0
 40 52  1  0  0  0
 40 53  2  0  0  0
 40 58  1  0  0  0
 41106  1  0  0  0
 41107  1  0  0  0
 41108  1  0  0  0
 41 48  1  0  0  0
 42 43  1  0  0  0
 42 66  1  0  0  0
 42109  1  0  0  0
 42110  1  0  0  0
 43 44  1  0  0  0
 44111  1  0  0  0
 45 46  2  0  0  0
 45112  1  0  0  0
 46113  1  0  0  0
 47114  1  0  0  0
 47115  1  0  0  0
 48 56  1  0  0  0
 48 65  1  0  0  0
 48116  1  0  0  0
 49 50  1  0  0  0
 49 53  1  0  0  0
 49 64  1  0  0  0
 49117  1  0  0  0
 50 51  1  0  0  0
 50118  1  0  0  0
 50119  1  0  0  0
 51 52  1  0  0  0
 51120  1  0  0  0
 51121  1  0  0  0
 52122  1  0  0  0
 52123  1  0  0  0
 53 54  1  0  0  0
 54 55  2  0  0  0
 54124  1  0  0  0
 55 57  1  0  0  0
 55125  1  0  0  0
 56 69  2  0  0  0
 57 58  2  0  0  0
 57126  1  0  0  0
 58127  1  0  0  0
 59 60  1  0  0  0
 59 61  1  0  0  0
 59 62  1  0  0  0
 60128  1  0  0  0
 60129  1  0  0  0
 60130  1  0  0  0
 61131  1  0  0  0
 61132  1  0  0  0
 61133  1  0  0  0
 62134  1  0  0  0
 62135  1  0  0  0
 62136  1  0  0  0
 63 65  1  0  0  0
 63137  1  0  0  0
 63138  1  0  0  0
 63139  1  0  0  0
 64140  1  0  0  0
 65141  1  0  0  0
 68 75  1  0  0  0
 71 73  1  0  0  0
 71 77  2  0  0  0
 71 82  1  0  0  0
 72 78  2  0  0  0
 72 79  1  0  0  0
 72 82  1  0  0  0
 73 80  1  0  0  0
 73142  1  0  0  0
 73143  1  0  0  0
 74 76  1  0  0  0
 74 79  1  0  0  0
 74144  1  0  0  0
 74145  1  0  0  0
 75 76  1  0  0  0
 75146  1  0  0  0
 75147  1  0  0  0
 76 81  1  0  0  0
 76148  1  0  0  0
 77 78  1  0  0  0
 79149  1  0  0  0
 80150  1  0  0  0
 81151  1  0  0  0
M  ISO  4   1 100  68 101  75 101  80 100
M  END
> <chiral flag>
0

> <version>
0

> <s_m_source_file>
/data/baiqing/PycharmProjects/Reinvent-master-3.2/result/LINK_invent/BTK/process_docking_weight1_custom_product_contain_oxygen_bond_distance_aromatic_linkinvent_7_9_3/rearranged_h_0196.sdf

> <i_m_source_file_index>
49

> <r_mmod_Potential_Energy-OPLS-2005>
-180.577117919922

> <r_mmod_Stretch_Energy-OPLS-2005>
47.0083045959473

> <r_mmod_Bend_Energy-OPLS-2005>
128.366180419922

> <r_mmod_Torsional_Energy-OPLS-2005>
255.551864624023

> <r_mmod_Improper_Torsional_Energy-OPLS-2005>
4.6711368560791

> <r_mmod_Van_der_Waal_Energy-OPLS-2005>
119.173004150391

> <r_mmod_Electrostatic_Energy-OPLS-2005>
-488.193969726562

> <r_mmod_Solvation_Energy-OPLS-2005>
-270.824645996094

> <b_mmod_Minimization_Converged-OPLS-2005>
0

> <r_mmod_RMS_Derivative-OPLS-2005>
0.653215110301971

$$$$
49
                    3D
 Structure written by MMmdl.
154162  0  0  1  0            999 V2000
  -30.5683  -14.8087   20.4419 C   0  0  0  0  0  0
  -30.4351  -12.4867   19.4975 C   0  0  0  0  0  0
  -29.5197  -12.5241   18.2516 C   0  0  0  0  0  0
  -28.0434  -12.3394   18.6554 C   0  0  0  0  0  0
  -27.6412  -13.2378   19.8554 C   0  0  2  0  0  0
  -28.6806  -13.1792   20.9965 C   0  0  0  0  0  0
  -25.2498  -13.8204   20.5714 C   0  0  0  0  0  0
  -24.1793  -13.0441   20.9209 C   0  0  0  0  0  0
  -24.6394  -11.6918   20.8737 C   0  0  0  0  0  0
  -23.9073  -10.4294   21.0402 C   0  0  0  0  0  0
  -24.3626   -9.4204   21.9178 C   0  0  0  0  0  0
  -23.6299   -8.2242   22.0750 C   0  0  0  0  0  0
  -22.4278   -8.0284   21.3546 C   0  0  0  0  0  0
  -21.9913   -9.0259   20.4645 C   0  0  0  0  0  0
  -22.7247  -10.2134   20.3054 C   0  0  0  0  0  0
  -21.6851   -6.0744   22.5280 C   0  0  0  0  0  0
  -21.4018   -6.5644   23.8218 C   0  0  0  0  0  0
  -21.3660   -5.6791   24.9176 C   0  0  0  0  0  0
  -21.6046   -4.3055   24.7221 C   0  0  0  0  0  0
  -21.8817   -3.8152   23.4339 C   0  0  0  0  0  0
  -21.9191   -4.6972   22.3401 C   0  0  0  0  0  0
  -22.7810  -13.5224   21.1860 C   0  0  0  0  0  0
  -22.1658   -4.2157   21.0976 F   0  0  0  0  0  0
  -21.5623   -3.4537   25.7731 F   0  0  0  0  0  0
  -29.9810  -13.5544   20.4265 N   0  0  0  0  0  0
  -26.2927  -12.9422   20.3288 N   0  0  0  0  0  0
  -25.9329  -11.6555   20.5740 N   0  0  0  0  0  0
  -22.0459  -12.8218   22.0427 N   0  0  0  0  0  0
  -25.4180  -15.1931   20.4146 N   0  0  0  0  0  0
  -31.7422  -14.9099   20.0648 O   0  0  0  0  0  0
  -21.6640   -6.8887   21.4242 O   0  0  0  0  0  0
  -22.3499  -14.5532   20.6712 O   0  0  0  0  0  0
  -24.6349  -31.8495   23.1918 C   0  0  0  0  0  0
  -25.9159  -32.4718   23.8286 C   0  0  1  0  0  0
  -27.2248  -27.2154   20.1407 C   0  0  0  0  0  0
  -25.5936  -33.8524   24.2205 N   0  0  0  0  0  0
  -23.4344  -30.4687   21.5353 C   0  0  2  0  0  0
  -24.8823  -28.9013   20.1072 C   0  0  0  0  0  0
  -22.7522  -29.4576   22.4885 C   0  0  0  0  0  0
  -18.0298  -28.1401   22.8485 C   0  0  0  0  0  0
  -24.1492  -36.7268   23.2641 C   0  0  0  0  0  0
  -25.9814  -30.7472   21.3783 C   0  0  0  0  0  0
  -26.0519  -29.3650   20.7203 C   0  0  0  0  0  0
  -27.2203  -28.5339   20.7242 C   0  0  0  0  0  0
  -26.0315  -26.8206   19.4993 C   0  0  0  0  0  0
  -24.8800  -27.6403   19.4847 C   0  0  0  0  0  0
  -23.6556  -29.7959   20.1531 C   0  0  0  0  0  0
  -25.4123  -36.3047   24.0316 C   0  0  1  0  0  0
  -20.5903  -28.3715   23.1260 C   0  0  2  0  0  0
  -20.6791  -26.9427   22.5415 C   0  0  0  0  0  0
  -19.5764  -26.6387   21.5223 C   0  0  0  0  0  0
  -18.1941  -26.7942   22.1627 C   0  0  0  0  0  0
  -19.1552  -28.8875   23.2869 C   0  0  0  0  0  0
  -18.9470  -30.1474   23.8888 C   0  0  0  0  0  0
  -17.6468  -30.6599   24.0564 C   0  0  0  0  0  0
  -25.9067  -34.9421   23.5069 C   0  0  0  0  0  0
  -16.5360  -29.9095   23.6335 C   0  0  0  0  0  0
  -16.7284  -28.6516   23.0352 C   0  0  0  0  0  0
  -26.4505  -31.6571   25.0708 C   0  0  0  0  0  0
  -25.3698  -31.3755   26.1410 C   0  0  0  0  0  0
  -27.0367  -30.2978   24.6249 C   0  0  0  0  0  0
  -27.6042  -32.4332   25.7491 C   0  0  0  0  0  0
  -27.5579  -37.1790   24.8460 C   0  0  0  0  0  0
  -21.4225  -29.3044   22.3631 N   0  0  0  0  0  0
  -26.4289  -37.3756   23.9406 N   0  0  0  0  0  0
  -24.7026  -31.0419   22.0910 N   0  0  0  0  0  0
  -23.4196  -28.8138   23.3024 O   0  0  0  0  0  0
  -28.3355  -26.3346   20.2462 O   0  0  0  0  0  0
  -26.5654  -34.8911   22.4647 O   0  0  0  0  0  0
  -23.5490  -32.1336   23.7190 O   0  0  0  0  0  0
  -29.7757  -17.3298   20.2678 C   0  0  0  0  0  0
  -29.3077  -19.4570   19.9880 C   0  0  0  0  0  0
  -30.6249  -22.5912   20.5978 C   0  0  0  0  0  0
  -29.7471  -19.4904   17.4920 C   0  0  0  0  0  0
  -28.1615  -23.5200   20.5732 C   0  0  0  0  0  0
  -28.4404  -24.9057   19.7262 C   0  0  0  0  0  0
  -29.1494  -22.1911   20.7189 C   0  0  1  0  0  0
  -29.3617  -18.4927   20.9627 N   0  0  0  0  0  0
  -29.9855  -17.5681   18.9734 N   0  0  0  0  0  0
  -29.6655  -18.8954   18.8132 N   0  0  0  0  0  0
  -29.8062  -15.9292   20.7937 N   0  0  0  0  0  0
  -28.9073  -20.8720   19.9877 N   0  0  0  0  0  0
  -31.4779  -12.6131   19.2016 H   0  0  0  0  0  0
  -30.3843  -11.5110   19.9846 H   0  0  0  0  0  0
  -29.8145  -11.7500   17.5421 H   0  0  0  0  0  0
  -29.6424  -13.4762   17.7331 H   0  0  0  0  0  0
  -27.9022  -11.2901   18.9162 H   0  0  0  0  0  0
  -27.3911  -12.5301   17.8025 H   0  0  0  0  0  0
  -27.6330  -14.2599   19.4746 H   0  0  0  0  0  0
  -28.7247  -12.1789   21.4308 H   0  0  0  0  0  0
  -28.4006  -13.8487   21.8105 H   0  0  0  0  0  0
  -25.2772   -9.5685   22.4753 H   0  0  0  0  0  0
  -24.0012   -7.4632   22.7468 H   0  0  0  0  0  0
  -21.0845   -8.8786   19.8952 H   0  0  0  0  0  0
  -22.3709  -10.9678   19.6166 H   0  0  0  0  0  0
  -21.2019   -7.6152   23.9727 H   0  0  0  0  0  0
  -21.1482   -6.0517   25.9080 H   0  0  0  0  0  0
  -22.0596   -2.7613   23.2833 H   0  0  0  0  0  0
  -22.4070  -11.9892   22.4834 H   0  0  0  0  0  0
  -21.1077  -13.1248   22.2621 H   0  0  0  0  0  0
  -24.6476  -15.8435   20.5277 H   0  0  0  0  0  0
  -26.2614  -15.6357   20.0728 H   0  0  0  0  0  0
  -26.7224  -32.5345   23.1019 H   0  0  0  0  0  0
  -25.0056  -33.9647   25.0333 H   0  0  0  0  0  0
  -22.7331  -31.2921   21.3844 H   0  0  0  0  0  0
  -23.3756  -35.9597   23.3291 H   0  0  0  0  0  0
  -24.3578  -36.8914   22.2058 H   0  0  0  0  0  0
  -23.7243  -37.6461   23.6685 H   0  0  0  0  0  0
  -26.1290  -31.5066   20.6090 H   0  0  0  0  0  0
  -26.8546  -30.7937   22.0180 H   0  0  0  0  0  0
  -28.1144  -28.8823   21.2227 H   0  0  0  0  0  0
  -25.9590  -25.8481   19.0362 H   0  0  0  0  0  0
  -23.9822  -27.2786   19.0030 H   0  0  0  0  0  0
  -23.7854  -30.5697   19.3956 H   0  0  0  0  0  0
  -22.7720  -29.2337   19.8468 H   0  0  0  0  0  0
  -25.1310  -36.1879   25.0808 H   0  0  0  0  0  0
  -20.9997  -28.3310   24.1380 H   0  0  0  0  0  0
  -20.5707  -26.2325   23.3628 H   0  0  0  0  0  0
  -21.6658  -26.7461   22.1198 H   0  0  0  0  0  0
  -19.6929  -25.6291   21.1269 H   0  0  0  0  0  0
  -19.6706  -27.3186   20.6742 H   0  0  0  0  0  0
  -17.4217  -26.6689   21.4024 H   0  0  0  0  0  0
  -18.0336  -26.0089   22.9025 H   0  0  0  0  0  0
  -19.7945  -30.7297   24.2250 H   0  0  0  0  0  0
  -17.5023  -31.6275   24.5171 H   0  0  0  0  0  0
  -15.5361  -30.2996   23.7665 H   0  0  0  0  0  0
  -15.8685  -28.0836   22.7065 H   0  0  0  0  0  0
  -24.5864  -30.7123   25.7726 H   0  0  0  0  0  0
  -24.8900  -32.2938   26.4803 H   0  0  0  0  0  0
  -25.7976  -30.8937   27.0207 H   0  0  0  0  0  0
  -26.2974  -29.6712   24.1246 H   0  0  0  0  0  0
  -27.3991  -29.7268   25.4807 H   0  0  0  0  0  0
  -27.8873  -30.4237   23.9546 H   0  0  0  0  0  0
  -27.2632  -33.3635   26.2045 H   0  0  0  0  0  0
  -28.3862  -32.6889   25.0329 H   0  0  0  0  0  0
  -28.0698  -31.8475   26.5426 H   0  0  0  0  0  0
  -28.2585  -38.0100   24.7518 H   0  0  0  0  0  0
  -28.1088  -36.2629   24.6273 H   0  0  0  0  0  0
  -27.2298  -37.1420   25.8864 H   0  0  0  0  0  0
  -20.9425  -29.8725   21.6791 H   0  0  0  0  0  0
  -26.0158  -38.2825   24.1416 H   0  0  0  0  0  0
  -30.8509  -23.4415   21.2428 H   0  0  0  0  0  0
  -30.8842  -22.8699   19.5757 H   0  0  0  0  0  0
  -31.2853  -21.7772   20.8997 H   0  0  0  0  0  0
  -30.4312  -20.3386   17.5137 H   0  0  0  0  0  0
  -28.7596  -19.8355   17.1840 H   0  0  0  0  0  0
  -30.1095  -18.7662   16.7620 H   0  0  0  0  0  0
  -27.1512  -23.1779   20.3469 H   0  0  0  0  0  0
  -28.0713  -23.8821   21.5982 H   0  0  0  0  0  0
  -27.9064  -24.8366   18.7793 H   0  0  0  0  0  0
  -29.4831  -24.8462   19.4180 H   0  0  0  0  0  0
  -29.0195  -21.8877   21.7595 H   0  0  0  0  0  0
  -28.9998  -15.6994   21.3516 H   0  0  0  0  0  0
  -28.6936  -21.1021   19.0228 H   0  0  0  0  0  0
  1 25  1  0  0  0
  1 30  2  0  0  0
  1 81  1  0  0  0
  2  3  1  0  0  0
  2 25  1  0  0  0
  2 83  1  0  0  0
  2 84  1  0  0  0
  3  4  1  0  0  0
  3 85  1  0  0  0
  3 86  1  0  0  0
  4  5  1  0  0  0
  4 87  1  0  0  0
  4 88  1  0  0  0
  5  6  1  0  0  0
  5 26  1  0  0  0
  5 89  1  0  0  0
  6 25  1  0  0  0
  6 90  1  0  0  0
  6 91  1  0  0  0
  7  8  2  0  0  0
  7 26  1  0  0  0
  7 29  1  0  0  0
  8  9  1  0  0  0
  8 22  1  0  0  0
  9 10  1  0  0  0
  9 27  2  0  0  0
 10 11  2  0  0  0
 10 15  1  0  0  0
 11 12  1  0  0  0
 11 92  1  0  0  0
 12 13  2  0  0  0
 12 93  1  0  0  0
 13 14  1  0  0  0
 13 31  1  0  0  0
 14 15  2  0  0  0
 14 94  1  0  0  0
 15 95  1  0  0  0
 16 17  2  0  0  0
 16 21  1  0  0  0
 16 31  1  0  0  0
 17 18  1  0  0  0
 17 96  1  0  0  0
 18 19  2  0  0  0
 18 97  1  0  0  0
 19 20  1  0  0  0
 19 24  1  0  0  0
 20 21  2  0  0  0
 20 98  1  0  0  0
 21 23  1  0  0  0
 22 28  1  0  0  0
 22 32  2  0  0  0
 26 27  1  0  0  0
 28 99  1  0  0  0
 28100  1  0  0  0
 29101  1  0  0  0
 29102  1  0  0  0
 33 34  1  0  0  0
 33 66  1  0  0  0
 33 70  2  0  0  0
 34 36  1  0  0  0
 34 59  1  0  0  0
 34103  1  0  0  0
 35 44  2  0  0  0
 35 45  1  0  0  0
 35 68  1  0  0  0
 36 56  1  0  0  0
 36104  1  0  0  0
 37 39  1  0  0  0
 37 47  1  0  0  0
 37 66  1  0  0  0
 37105  1  0  0  0
 38 43  2  0  0  0
 38 46  1  0  0  0
 38 47  1  0  0  0
 39 64  1  0  0  0
 39 67  2  0  0  0
 40 52  1  0  0  0
 40 53  2  0  0  0
 40 58  1  0  0  0
 41106  1  0  0  0
 41107  1  0  0  0
 41108  1  0  0  0
 41 48  1  0  0  0
 42 43  1  0  0  0
 42 66  1  0  0  0
 42109  1  0  0  0
 42110  1  0  0  0
 43 44  1  0  0  0
 44111  1  0  0  0
 45 46  2  0  0  0
 45112  1  0  0  0
 46113  1  0  0  0
 47114  1  0  0  0
 47115  1  0  0  0
 48 56  1  0  0  0
 48 65  1  0  0  0
 48116  1  0  0  0
 49 50  1  0  0  0
 49 53  1  0  0  0
 49 64  1  0  0  0
 49117  1  0  0  0
 50 51  1  0  0  0
 50118  1  0  0  0
 50119  1  0  0  0
 51 52  1  0  0  0
 51120  1  0  0  0
 51121  1  0  0  0
 52122  1  0  0  0
 52123  1  0  0  0
 53 54  1  0  0  0
 54 55  2  0  0  0
 54124  1  0  0  0
 55 57  1  0  0  0
 55125  1  0  0  0
 56 69  2  0  0  0
 57 58  2  0  0  0
 57126  1  0  0  0
 58127  1  0  0  0
 59 60  1  0  0  0
 59 61  1  0  0  0
 59 62  1  0  0  0
 60128  1  0  0  0
 60129  1  0  0  0
 60130  1  0  0  0
 61131  1  0  0  0
 61132  1  0  0  0
 61133  1  0  0  0
 62134  1  0  0  0
 62135  1  0  0  0
 62136  1  0  0  0
 63 65  1  0  0  0
 63137  1  0  0  0
 63138  1  0  0  0
 63139  1  0  0  0
 64140  1  0  0  0
 65141  1  0  0  0
 68 76  1  0  0  0
 71 78  1  0  0  0
 71 79  2  0  0  0
 71 81  1  0  0  0
 72 78  2  0  0  0
 72 80  1  0  0  0
 72 82  1  0  0  0
 73142  1  0  0  0
 73143  1  0  0  0
 73144  1  0  0  0
 73 77  1  0  0  0
 74 80  1  0  0  0
 74145  1  0  0  0
 74146  1  0  0  0
 74147  1  0  0  0
 75 76  1  0  0  0
 75 77  1  0  0  0
 75148  1  0  0  0
 75149  1  0  0  0
 76150  1  0  0  0
 76151  1  0  0  0
 77 82  1  0  0  0
 77152  1  0  0  0
 79 80  1  0  0  0
 81153  1  0  0  0
 82154  1  0  0  0
M  ISO  4   1 100  68 101  76 101  81 100
M  END
> <chiral flag>
0

> <version>
0

> <s_m_source_file>
/data/baiqing/PycharmProjects/Reinvent-master-3.2/result/LINK_invent/BTK/process_docking_weight1_custom_product_contain_oxygen_bond_distance_aromatic_linkinvent_7_9_3/rearranged_h_0196.sdf

> <i_m_source_file_index>
50

> <r_mmod_Potential_Energy-OPLS-2005>
208.480743408203

> <r_mmod_Stretch_Energy-OPLS-2005>
156.490127563477

> <r_mmod_Bend_Energy-OPLS-2005>
243.623504638672

> <r_mmod_Torsional_Energy-OPLS-2005>
248.167114257812

> <r_mmod_Improper_Torsional_Energy-OPLS-2005>
6.34741687774658

> <r_mmod_Van_der_Waal_Energy-OPLS-2005>
109.762504577637

> <r_mmod_Electrostatic_Energy-OPLS-2005>
-428.429046630859

> <r_mmod_Solvation_Energy-OPLS-2005>
-239.912506103516

> <b_mmod_Minimization_Converged-OPLS-2005>
0

> <r_mmod_RMS_Derivative-OPLS-2005>
1.12780106067657

$$$$
50
                    3D
 Structure written by MMmdl.
156164  0  0  1  0            999 V2000
  -30.6730  -14.5799   20.5369 C   0  0  0  0  0  0
  -30.4263  -12.3686   19.4369 C   0  0  0  0  0  0
  -29.4955  -12.4943   18.2128 C   0  0  0  0  0  0
  -28.0216  -12.3375   18.6332 C   0  0  0  0  0  0
  -27.6504  -13.2156   19.8586 C   0  0  2  0  0  0
  -28.6944  -13.0723   20.9870 C   0  0  0  0  0  0
  -25.2547  -13.8172   20.5692 C   0  0  0  0  0  0
  -24.1816  -13.0432   20.9189 C   0  0  0  0  0  0
  -24.6376  -11.6905   20.8740 C   0  0  0  0  0  0
  -23.9062  -10.4289   21.0411 C   0  0  0  0  0  0
  -24.3610   -9.4208   21.9192 C   0  0  0  0  0  0
  -23.6289   -8.2250   22.0762 C   0  0  0  0  0  0
  -22.4274   -8.0288   21.3545 C   0  0  0  0  0  0
  -21.9918   -9.0259   20.4646 C   0  0  0  0  0  0
  -22.7246  -10.2134   20.3057 C   0  0  0  0  0  0
  -21.6844   -6.0739   22.5278 C   0  0  0  0  0  0
  -21.4010   -6.5644   23.8208 C   0  0  0  0  0  0
  -21.3667   -5.6798   24.9175 C   0  0  0  0  0  0
  -21.6035   -4.3059   24.7231 C   0  0  0  0  0  0
  -21.8822   -3.8149   23.4350 C   0  0  0  0  0  0
  -21.9197   -4.6964   22.3403 C   0  0  0  0  0  0
  -22.7842  -13.5225   21.1859 C   0  0  0  0  0  0
  -22.1663   -4.2151   21.0979 F   0  0  0  0  0  0
  -21.5636   -3.4541   25.7749 F   0  0  0  0  0  0
  -30.0105  -13.3917   20.4150 N   0  0  0  0  0  0
  -26.2965  -12.9356   20.3301 N   0  0  0  0  0  0
  -25.9299  -11.6509   20.5757 N   0  0  0  0  0  0
  -22.0480  -12.8214   22.0401 N   0  0  0  0  0  0
  -25.4239  -15.1906   20.4104 N   0  0  0  0  0  0
  -31.8378  -14.7149   20.1532 O   0  0  0  0  0  0
  -21.6639   -6.8885   21.4240 O   0  0  0  0  0  0
  -22.3533  -14.5538   20.6721 O   0  0  0  0  0  0
  -24.6185  -31.8637   23.2075 C   0  0  0  0  0  0
  -25.9063  -32.4783   23.8396 C   0  0  1  0  0  0
  -27.2383  -27.3865   20.1277 C   0  0  0  0  0  0
  -25.5895  -33.8578   24.2324 N   0  0  0  0  0  0
  -23.4083  -30.4855   21.5500 C   0  0  2  0  0  0
  -24.8570  -28.9323   20.1286 C   0  0  0  0  0  0
  -22.7415  -29.4645   22.4990 C   0  0  0  0  0  0
  -18.0270  -28.1356   22.8488 C   0  0  0  0  0  0
  -24.1479  -36.7315   23.2640 C   0  0  0  0  0  0
  -25.9389  -30.8155   21.3634 C   0  0  0  0  0  0
  -26.0184  -29.4405   20.7266 C   0  0  0  0  0  0
  -27.2142  -28.6763   20.7173 C   0  0  0  0  0  0
  -26.0611  -26.8986   19.5282 C   0  0  0  0  0  0
  -24.8747  -27.6614   19.5262 C   0  0  0  0  0  0
  -23.6207  -29.8067   20.1694 C   0  0  0  0  0  0
  -25.4091  -36.3086   24.0342 C   0  0  1  0  0  0
  -20.5864  -28.3647   23.1302 C   0  0  2  0  0  0
  -20.6752  -26.9387   22.5391 C   0  0  0  0  0  0
  -19.5731  -26.6386   21.5190 C   0  0  0  0  0  0
  -18.1912  -26.7910   22.1602 C   0  0  0  0  0  0
  -19.1522  -28.8818   23.2879 C   0  0  0  0  0  0
  -18.9442  -30.1426   23.8886 C   0  0  0  0  0  0
  -17.6449  -30.6568   24.0563 C   0  0  0  0  0  0
  -25.9035  -34.9449   23.5136 C   0  0  0  0  0  0
  -16.5338  -29.9070   23.6340 C   0  0  0  0  0  0
  -16.7263  -28.6475   23.0375 C   0  0  0  0  0  0
  -26.4489  -31.6561   25.0721 C   0  0  0  0  0  0
  -25.3755  -31.3591   26.1453 C   0  0  0  0  0  0
  -27.0358  -30.3022   24.6085 C   0  0  0  0  0  0
  -27.6056  -32.4287   25.7479 C   0  0  0  0  0  0
  -27.5578  -37.1784   24.8450 C   0  0  0  0  0  0
  -21.4137  -29.3024   22.3714 N   0  0  0  0  0  0
  -26.4268  -37.3787   23.9446 N   0  0  0  0  0  0
  -24.6748  -31.0698   22.1003 N   0  0  0  0  0  0
  -23.4176  -28.8205   23.3053 O   0  0  0  0  0  0
  -28.4071  -26.6518   20.0360 O   0  0  0  0  0  0
  -26.5618  -34.8912   22.4701 O   0  0  0  0  0  0
  -23.5366  -32.1413   23.7441 O   0  0  0  0  0  0
  -29.6103  -20.2573   19.2444 C   0  0  0  0  0  0
  -29.1434  -19.2753   21.3108 C   0  0  0  0  0  0
  -28.9643  -20.4240   20.4390 C   0  0  0  0  0  0
  -29.9087  -18.2546   20.7485 C   0  0  0  0  0  0
  -28.5988  -19.2020   22.7086 C   0  0  0  0  0  0
  -30.4763  -16.9783   21.3876 C   0  0  0  0  0  0
  -28.6387  -22.8644   21.2282 C   0  0  0  0  0  0
  -28.5992  -25.4946   20.8930 C   0  0  0  0  0  0
  -28.1805  -24.0789   20.3467 C   0  0  1  0  0  0
  -28.1425  -21.5489   20.7608 N   0  0  0  0  0  0
  -29.9496  -15.6495   20.9698 N   0  0  0  0  0  0
  -28.8427  -23.7779   19.1407 O   0  0  0  0  0  0
  -30.4106  -18.7069   19.1385 S   0  0  0  0  0  0
  -31.4660  -12.4831   19.1265 H   0  0  0  0  0  0
  -30.3523  -11.3731   19.8774 H   0  0  0  0  0  0
  -29.7505  -11.7413   17.4662 H   0  0  0  0  0  0
  -29.6421  -13.4626   17.7326 H   0  0  0  0  0  0
  -27.8600  -11.2862   18.8744 H   0  0  0  0  0  0
  -27.3622  -12.5595   17.7940 H   0  0  0  0  0  0
  -27.6722  -14.2497   19.5146 H   0  0  0  0  0  0
  -28.6953  -12.0564   21.3842 H   0  0  0  0  0  0
  -28.4457  -13.7213   21.8275 H   0  0  0  0  0  0
  -25.2746   -9.5692   22.4775 H   0  0  0  0  0  0
  -23.9997   -7.4647   22.7491 H   0  0  0  0  0  0
  -21.0857   -8.8772   19.8950 H   0  0  0  0  0  0
  -22.3702  -10.9669   19.6172 H   0  0  0  0  0  0
  -21.1996   -7.6154   23.9713 H   0  0  0  0  0  0
  -21.1485   -6.0529   25.9078 H   0  0  0  0  0  0
  -22.0596   -2.7612   23.2849 H   0  0  0  0  0  0
  -22.4092  -11.9861   22.4765 H   0  0  0  0  0  0
  -21.1093  -13.1224   22.2610 H   0  0  0  0  0  0
  -24.6512  -15.8393   20.5212 H   0  0  0  0  0  0
  -26.2719  -15.6348   20.0807 H   0  0  0  0  0  0
  -26.7118  -32.5491   23.1152 H   0  0  0  0  0  0
  -25.0022  -33.9724   25.0449 H   0  0  0  0  0  0
  -22.6980  -31.3013   21.4052 H   0  0  0  0  0  0
  -23.3736  -35.9647   23.3274 H   0  0  0  0  0  0
  -24.3578  -36.8990   22.2057 H   0  0  0  0  0  0
  -23.7240  -37.6505   23.6688 H   0  0  0  0  0  0
  -26.0442  -31.5669   20.5791 H   0  0  0  0  0  0
  -26.8305  -30.8862   21.9756 H   0  0  0  0  0  0
  -28.1160  -29.0733   21.1632 H   0  0  0  0  0  0
  -26.0666  -25.9322   19.0436 H   0  0  0  0  0  0
  -23.9841  -27.2658   19.0577 H   0  0  0  0  0  0
  -23.7321  -30.5756   19.4041 H   0  0  0  0  0  0
  -22.7426  -29.2253   19.8782 H   0  0  0  0  0  0
  -25.1261  -36.1934   25.0830 H   0  0  0  0  0  0
  -20.9945  -28.3221   24.1438 H   0  0  0  0  0  0
  -20.5648  -26.2261   23.3575 H   0  0  0  0  0  0
  -21.6625  -26.7419   22.1206 H   0  0  0  0  0  0
  -19.6895  -25.6303   21.1209 H   0  0  0  0  0  0
  -19.6670  -27.3196   20.6712 H   0  0  0  0  0  0
  -17.4183  -26.6661   21.4002 H   0  0  0  0  0  0
  -18.0318  -26.0014   22.8951 H   0  0  0  0  0  0
  -19.7909  -30.7229   24.2283 H   0  0  0  0  0  0
  -17.5003  -31.6270   24.5127 H   0  0  0  0  0  0
  -15.5340  -30.2975   23.7652 H   0  0  0  0  0  0
  -15.8657  -28.0807   22.7116 H   0  0  0  0  0  0
  -24.5993  -30.6872   25.7782 H   0  0  0  0  0  0
  -24.8830  -32.2673   26.4913 H   0  0  0  0  0  0
  -25.8122  -30.8769   27.0207 H   0  0  0  0  0  0
  -26.2906  -29.6702   24.1234 H   0  0  0  0  0  0
  -27.4279  -29.7320   25.4515 H   0  0  0  0  0  0
  -27.8663  -30.4398   23.9166 H   0  0  0  0  0  0
  -27.2749  -33.3647   26.1998 H   0  0  0  0  0  0
  -28.3892  -32.6748   25.0302 H   0  0  0  0  0  0
  -28.0681  -31.8429   26.5432 H   0  0  0  0  0  0
  -28.2521  -38.0156   24.7626 H   0  0  0  0  0  0
  -28.1172  -36.2696   24.6138 H   0  0  0  0  0  0
  -27.2318  -37.1277   25.8856 H   0  0  0  0  0  0
  -20.9314  -29.8753   21.6928 H   0  0  0  0  0  0
  -26.0150  -38.2857   24.1489 H   0  0  0  0  0  0
  -29.6449  -20.9227   18.3904 H   0  0  0  0  0  0
  -27.7691  -19.8895   22.8675 H   0  0  0  0  0  0
  -29.3675  -19.4511   23.4396 H   0  0  0  0  0  0
  -28.2335  -18.2022   22.9421 H   0  0  0  0  0  0
  -30.3456  -17.0335   22.4680 H   0  0  0  0  0  0
  -31.5593  -16.9970   21.2524 H   0  0  0  0  0  0
  -28.2586  -23.0141   22.2417 H   0  0  0  0  0  0
  -29.7264  -22.8409   21.3223 H   0  0  0  0  0  0
  -29.6613  -25.4729   21.1399 H   0  0  0  0  0  0
  -28.0961  -25.6755   21.8438 H   0  0  0  0  0  0
  -27.0992  -24.0480   20.1988 H   0  0  0  0  0  0
  -27.3555  -21.2620   21.3379 H   0  0  0  0  0  0
  -28.9789  -15.4711   21.1728 H   0  0  0  0  0  0
  -28.7981  -22.8237   19.1109 H   0  0  0  0  0  0
  1 25  1  0  0  0
  1 30  2  0  0  0
  1 81  1  0  0  0
  2  3  1  0  0  0
  2 25  1  0  0  0
  2 84  1  0  0  0
  2 85  1  0  0  0
  3  4  1  0  0  0
  3 86  1  0  0  0
  3 87  1  0  0  0
  4  5  1  0  0  0
  4 88  1  0  0  0
  4 89  1  0  0  0
  5  6  1  0  0  0
  5 26  1  0  0  0
  5 90  1  0  0  0
  6 25  1  0  0  0
  6 91  1  0  0  0
  6 92  1  0  0  0
  7  8  2  0  0  0
  7 26  1  0  0  0
  7 29  1  0  0  0
  8  9  1  0  0  0
  8 22  1  0  0  0
  9 10  1  0  0  0
  9 27  2  0  0  0
 10 11  2  0  0  0
 10 15  1  0  0  0
 11 12  1  0  0  0
 11 93  1  0  0  0
 12 13  2  0  0  0
 12 94  1  0  0  0
 13 14  1  0  0  0
 13 31  1  0  0  0
 14 15  2  0  0  0
 14 95  1  0  0  0
 15 96  1  0  0  0
 16 17  2  0  0  0
 16 21  1  0  0  0
 16 31  1  0  0  0
 17 18  1  0  0  0
 17 97  1  0  0  0
 18 19  2  0  0  0
 18 98  1  0  0  0
 19 20  1  0  0  0
 19 24  1  0  0  0
 20 21  2  0  0  0
 20 99  1  0  0  0
 21 23  1  0  0  0
 22 28  1  0  0  0
 22 32  2  0  0  0
 26 27  1  0  0  0
 28100  1  0  0  0
 28101  1  0  0  0
 29102  1  0  0  0
 29103  1  0  0  0
 33 34  1  0  0  0
 33 66  1  0  0  0
 33 70  2  0  0  0
 34 36  1  0  0  0
 34 59  1  0  0  0
 34104  1  0  0  0
 35 44  2  0  0  0
 35 45  1  0  0  0
 35 68  1  0  0  0
 36 56  1  0  0  0
 36105  1  0  0  0
 37 39  1  0  0  0
 37 47  1  0  0  0
 37 66  1  0  0  0
 37106  1  0  0  0
 38 43  2  0  0  0
 38 46  1  0  0  0
 38 47  1  0  0  0
 39 64  1  0  0  0
 39 67  2  0  0  0
 40 52  1  0  0  0
 40 53  2  0  0  0
 40 58  1  0  0  0
 41107  1  0  0  0
 41108  1  0  0  0
 41109  1  0  0  0
 41 48  1  0  0  0
 42 43  1  0  0  0
 42 66  1  0  0  0
 42110  1  0  0  0
 42111  1  0  0  0
 43 44  1  0  0  0
 44112  1  0  0  0
 45 46  2  0  0  0
 45113  1  0  0  0
 46114  1  0  0  0
 47115  1  0  0  0
 47116  1  0  0  0
 48 56  1  0  0  0
 48 65  1  0  0  0
 48117  1  0  0  0
 49 50  1  0  0  0
 49 53  1  0  0  0
 49 64  1  0  0  0
 49118  1  0  0  0
 50 51  1  0  0  0
 50119  1  0  0  0
 50120  1  0  0  0
 51 52  1  0  0  0
 51121  1  0  0  0
 51122  1  0  0  0
 52123  1  0  0  0
 52124  1  0  0  0
 53 54  1  0  0  0
 54 55  2  0  0  0
 54125  1  0  0  0
 55 57  1  0  0  0
 55126  1  0  0  0
 56 69  2  0  0  0
 57 58  2  0  0  0
 57127  1  0  0  0
 58128  1  0  0  0
 59 60  1  0  0  0
 59 61  1  0  0  0
 59 62  1  0  0  0
 60129  1  0  0  0
 60130  1  0  0  0
 60131  1  0  0  0
 61132  1  0  0  0
 61133  1  0  0  0
 61134  1  0  0  0
 62135  1  0  0  0
 62136  1  0  0  0
 62137  1  0  0  0
 63 65  1  0  0  0
 63138  1  0  0  0
 63139  1  0  0  0
 63140  1  0  0  0
 64141  1  0  0  0
 65142  1  0  0  0
 68 78  1  0  0  0
 71 73  2  0  0  0
 71 83  1  0  0  0
 71143  1  0  0  0
 72 73  1  0  0  0
 72 74  2  0  0  0
 72 75  1  0  0  0
 73 80  1  0  0  0
 74 76  1  0  0  0
 74 83  1  0  0  0
 75144  1  0  0  0
 75145  1  0  0  0
 75146  1  0  0  0
 76 81  1  0  0  0
 76147  1  0  0  0
 76148  1  0  0  0
 77 79  1  0  0  0
 77 80  1  0  0  0
 77149  1  0  0  0
 77150  1  0  0  0
 78 79  1  0  0  0
 78151  1  0  0  0
 78152  1  0  0  0
 79 82  1  0  0  0
 79153  1  0  0  0
 80154  1  0  0  0
 81155  1  0  0  0
 82156  1  0  0  0
M  ISO  4   1 100  68 101  78 101  81 100
M  END
> <chiral flag>
0

> <version>
0

> <s_m_source_file>
/data/baiqing/PycharmProjects/Reinvent-master-3.2/result/LINK_invent/BTK/process_docking_weight1_custom_product_contain_oxygen_bond_distance_aromatic_linkinvent_7_9_3/rearranged_h_0196.sdf

> <i_m_source_file_index>
51

> <r_mmod_Potential_Energy-OPLS-2005>
-122.866455078125

> <r_mmod_Stretch_Energy-OPLS-2005>
50.8558883666992

> <r_mmod_Bend_Energy-OPLS-2005>
127.972663879395

> <r_mmod_Torsional_Energy-OPLS-2005>
281.391998291016

> <r_mmod_Improper_Torsional_Energy-OPLS-2005>
8.61160564422607

> <r_mmod_Van_der_Waal_Energy-OPLS-2005>
115.219505310059

> <r_mmod_Electrostatic_Energy-OPLS-2005>
-490.963989257812

> <r_mmod_Solvation_Energy-OPLS-2005>
-242.323318481445

> <b_mmod_Minimization_Converged-OPLS-2005>
0

> <r_mmod_RMS_Derivative-OPLS-2005>
2.936354637146

$$$$
51
                    3D
 Structure written by MMmdl.
154162  0  0  1  0            999 V2000
  -30.6994  -14.5596   20.4894 C   0  0  0  0  0  0
  -30.4144  -12.3478   19.4411 C   0  0  0  0  0  0
  -29.4926  -12.4859   18.2133 C   0  0  0  0  0  0
  -28.0179  -12.3358   18.6339 C   0  0  0  0  0  0
  -27.6467  -13.2167   19.8564 C   0  0  2  0  0  0
  -28.6950  -13.0935   20.9846 C   0  0  0  0  0  0
  -25.2530  -13.8168   20.5680 C   0  0  0  0  0  0
  -24.1816  -13.0435   20.9231 C   0  0  0  0  0  0
  -24.6383  -11.6905   20.8774 C   0  0  0  0  0  0
  -23.9055  -10.4287   21.0426 C   0  0  0  0  0  0
  -24.3609   -9.4201   21.9197 C   0  0  0  0  0  0
  -23.6287   -8.2236   22.0754 C   0  0  0  0  0  0
  -22.4272   -8.0277   21.3537 C   0  0  0  0  0  0
  -21.9909   -9.0256   20.4643 C   0  0  0  0  0  0
  -22.7235  -10.2138   20.3062 C   0  0  0  0  0  0
  -21.6853   -6.0733   22.5278 C   0  0  0  0  0  0
  -21.4012   -6.5635   23.8211 C   0  0  0  0  0  0
  -21.3655   -5.6793   24.9174 C   0  0  0  0  0  0
  -21.6046   -4.3056   24.7235 C   0  0  0  0  0  0
  -21.8817   -3.8142   23.4355 C   0  0  0  0  0  0
  -21.9188   -4.6958   22.3405 C   0  0  0  0  0  0
  -22.7840  -13.5229   21.1889 C   0  0  0  0  0  0
  -22.1662   -4.2140   21.0989 F   0  0  0  0  0  0
  -21.5628   -3.4541   25.7749 F   0  0  0  0  0  0
  -30.0052  -13.3908   20.3976 N   0  0  0  0  0  0
  -26.2955  -12.9355   20.3312 N   0  0  0  0  0  0
  -25.9308  -11.6509   20.5781 N   0  0  0  0  0  0
  -22.0478  -12.8214   22.0435 N   0  0  0  0  0  0
  -25.4214  -15.1880   20.4013 N   0  0  0  0  0  0
  -31.8958  -14.6233   20.2161 O   0  0  0  0  0  0
  -21.6632   -6.8875   21.4238 O   0  0  0  0  0  0
  -22.3531  -14.5535   20.6732 O   0  0  0  0  0  0
  -24.6191  -31.8635   23.2044 C   0  0  0  0  0  0
  -25.9054  -32.4804   23.8372 C   0  0  1  0  0  0
  -27.2319  -27.3823   20.1219 C   0  0  0  0  0  0
  -25.5883  -33.8600   24.2301 N   0  0  0  0  0  0
  -23.4110  -30.4858   21.5439 C   0  0  2  0  0  0
  -24.8597  -28.9389   20.1179 C   0  0  0  0  0  0
  -22.7427  -29.4663   22.4963 C   0  0  0  0  0  0
  -18.0273  -28.1418   22.8473 C   0  0  0  0  0  0
  -24.1487  -36.7315   23.2638 C   0  0  0  0  0  0
  -25.9434  -30.8164   21.3631 C   0  0  0  0  0  0
  -26.0218  -29.4440   20.7149 C   0  0  0  0  0  0
  -27.2147  -28.6761   20.7063 C   0  0  0  0  0  0
  -26.0541  -26.9002   19.5175 C   0  0  0  0  0  0
  -24.8731  -27.6693   19.5121 C   0  0  0  0  0  0
  -23.6248  -29.8123   20.1611 C   0  0  0  0  0  0
  -25.4108  -36.3105   24.0336 C   0  0  1  0  0  0
  -20.5864  -28.3713   23.1334 C   0  0  2  0  0  0
  -20.6731  -26.9412   22.5515 C   0  0  0  0  0  0
  -19.5769  -26.6430   21.5231 C   0  0  0  0  0  0
  -18.1913  -26.7983   22.1565 C   0  0  0  0  0  0
  -19.1521  -28.8872   23.2915 C   0  0  0  0  0  0
  -18.9446  -30.1466   23.8940 C   0  0  0  0  0  0
  -17.6448  -30.6608   24.0600 C   0  0  0  0  0  0
  -25.9032  -34.9468   23.5122 C   0  0  0  0  0  0
  -16.5343  -29.9111   23.6344 C   0  0  0  0  0  0
  -16.7269  -28.6540   23.0347 C   0  0  0  0  0  0
  -26.4472  -31.6586   25.0713 C   0  0  0  0  0  0
  -25.3734  -31.3682   26.1462 C   0  0  0  0  0  0
  -27.0309  -30.3029   24.6098 C   0  0  0  0  0  0
  -27.6055  -32.4304   25.7471 C   0  0  0  0  0  0
  -27.5582  -37.1814   24.8465 C   0  0  0  0  0  0
  -21.4145  -29.3056   22.3698 N   0  0  0  0  0  0
  -26.4297  -37.3792   23.9401 N   0  0  0  0  0  0
  -24.6760  -31.0718   22.0952 N   0  0  0  0  0  0
  -23.4174  -28.8218   23.3042 O   0  0  0  0  0  0
  -28.3784  -26.6057   20.0919 O   0  0  0  0  0  0
  -26.5614  -34.8921   22.4696 O   0  0  0  0  0  0
  -23.5369  -32.1395   23.7422 O   0  0  0  0  0  0
  -28.7524  -19.0048   20.6627 C   0  0  0  0  0  0
  -30.9491  -19.4417   22.1039 C   0  0  0  0  0  0
  -29.4755  -17.9300   21.2368 C   0  0  0  0  0  0
  -29.2165  -20.3167   20.8979 C   0  0  0  0  0  0
  -29.0770  -16.4464   21.1091 C   0  0  0  0  0  0
  -28.5291  -22.7472   21.0723 C   0  0  0  0  0  0
  -28.3926  -25.3911   20.8968 C   0  0  0  0  0  0
  -28.4675  -24.0108   20.1418 C   0  0  1  0  0  0
  -30.5944  -18.1692   21.9389 N   0  0  0  0  0  0
  -30.3199  -20.5163   21.6307 N   0  0  0  0  0  0
  -28.5910  -21.4567   20.3398 N   0  0  0  0  0  0
  -30.0077  -15.6938   20.2614 N   0  0  0  0  0  0
  -29.6884  -23.9024   19.4380 O   0  0  0  0  0  0
  -31.4597  -12.4373   19.1410 H   0  0  0  0  0  0
  -30.3149  -11.3597   19.8917 H   0  0  0  0  0  0
  -29.7466  -11.7330   17.4674 H   0  0  0  0  0  0
  -29.6464  -13.4565   17.7373 H   0  0  0  0  0  0
  -27.8582  -11.2838   18.8762 H   0  0  0  0  0  0
  -27.3592  -12.5571   17.7929 H   0  0  0  0  0  0
  -27.6601  -14.2472   19.5037 H   0  0  0  0  0  0
  -28.6945  -12.0893   21.4099 H   0  0  0  0  0  0
  -28.4662  -13.7731   21.8053 H   0  0  0  0  0  0
  -25.2751   -9.5683   22.4776 H   0  0  0  0  0  0
  -23.9993   -7.4627   22.7474 H   0  0  0  0  0  0
  -21.0838   -8.8784   19.8950 H   0  0  0  0  0  0
  -22.3696  -10.9687   19.6178 H   0  0  0  0  0  0
  -21.2007   -7.6145   23.9713 H   0  0  0  0  0  0
  -21.1478   -6.0526   25.9079 H   0  0  0  0  0  0
  -22.0598   -2.7606   23.2864 H   0  0  0  0  0  0
  -22.4077  -11.9855   22.4797 H   0  0  0  0  0  0
  -21.1099  -13.1241   22.2641 H   0  0  0  0  0  0
  -24.6454  -15.8363   20.4807 H   0  0  0  0  0  0
  -26.2432  -15.6068   19.9875 H   0  0  0  0  0  0
  -26.7122  -32.5512   23.1131 H   0  0  0  0  0  0
  -25.0010  -33.9759   25.0430 H   0  0  0  0  0  0
  -22.7018  -31.3024   21.3965 H   0  0  0  0  0  0
  -23.3746  -35.9658   23.3318 H   0  0  0  0  0  0
  -24.3571  -36.8917   22.2050 H   0  0  0  0  0  0
  -23.7251  -37.6525   23.6647 H   0  0  0  0  0  0
  -26.0602  -31.5780   20.5907 H   0  0  0  0  0  0
  -26.8306  -30.8750   21.9819 H   0  0  0  0  0  0
  -28.1155  -29.0659   21.1596 H   0  0  0  0  0  0
  -26.0529  -25.9274   19.0462 H   0  0  0  0  0  0
  -23.9813  -27.2771   19.0440 H   0  0  0  0  0  0
  -23.7407  -30.5828   19.3978 H   0  0  0  0  0  0
  -22.7487  -29.2339   19.8631 H   0  0  0  0  0  0
  -25.1293  -36.1971   25.0834 H   0  0  0  0  0  0
  -20.9971  -28.3311   24.1454 H   0  0  0  0  0  0
  -21.6621  -26.7346   22.1422 H   0  0  0  0  0  0
  -20.5488  -26.2349   23.3736 H   0  0  0  0  0  0
  -19.6945  -25.6345   21.1254 H   0  0  0  0  0  0
  -19.6801  -27.3276   20.6803 H   0  0  0  0  0  0
  -17.4230  -26.6812   21.3902 H   0  0  0  0  0  0
  -18.0216  -26.0085   22.8900 H   0  0  0  0  0  0
  -19.7921  -30.7268   24.2327 H   0  0  0  0  0  0
  -17.5006  -31.6282   24.5213 H   0  0  0  0  0  0
  -15.5351  -30.3020   23.7655 H   0  0  0  0  0  0
  -15.8672  -28.0872   22.7017 H   0  0  0  0  0  0
  -24.5912  -30.7029   25.7785 H   0  0  0  0  0  0
  -24.8926  -32.2835   26.4928 H   0  0  0  0  0  0
  -25.8096  -30.8830   27.0205 H   0  0  0  0  0  0
  -26.2854  -29.6779   24.1168 H   0  0  0  0  0  0
  -27.4088  -29.7276   25.4557 H   0  0  0  0  0  0
  -27.8684  -30.4343   23.9245 H   0  0  0  0  0  0
  -27.2677  -33.3587   26.2086 H   0  0  0  0  0  0
  -28.3842  -32.6883   25.0282 H   0  0  0  0  0  0
  -28.0750  -31.8401   26.5350 H   0  0  0  0  0  0
  -28.2617  -38.0094   24.7502 H   0  0  0  0  0  0
  -28.1064  -36.2629   24.6314 H   0  0  0  0  0  0
  -27.2297  -37.1490   25.8868 H   0  0  0  0  0  0
  -20.9317  -29.8751   21.6890 H   0  0  0  0  0  0
  -26.0191  -38.2877   24.1387 H   0  0  0  0  0  0
  -27.8664  -18.8161   20.0716 H   0  0  0  0  0  0
  -31.8416  -19.6217   22.6844 H   0  0  0  0  0  0
  -29.0309  -16.0119   22.1076 H   0  0  0  0  0  0
  -28.0756  -16.3779   20.6858 H   0  0  0  0  0  0
  -29.3745  -22.8415   21.7555 H   0  0  0  0  0  0
  -27.6418  -22.7263   21.7084 H   0  0  0  0  0  0
  -27.5211  -25.3789   21.5539 H   0  0  0  0  0  0
  -29.2497  -25.4676   21.5668 H   0  0  0  0  0  0
  -27.6309  -23.9244   19.4470 H   0  0  0  0  0  0
  -27.7552  -21.2411   19.8078 H   0  0  0  0  0  0
  -30.6157  -16.3596   19.8094 H   0  0  0  0  0  0
  -29.8065  -22.9616   19.3174 H   0  0  0  0  0  0
  1 25  1  0  0  0
  1 30  2  0  0  0
  1 82  1  0  0  0
  2  3  1  0  0  0
  2 25  1  0  0  0
  2 84  1  0  0  0
  2 85  1  0  0  0
  3  4  1  0  0  0
  3 86  1  0  0  0
  3 87  1  0  0  0
  4  5  1  0  0  0
  4 88  1  0  0  0
  4 89  1  0  0  0
  5  6  1  0  0  0
  5 26  1  0  0  0
  5 90  1  0  0  0
  6 25  1  0  0  0
  6 91  1  0  0  0
  6 92  1  0  0  0
  7  8  2  0  0  0
  7 26  1  0  0  0
  7 29  1  0  0  0
  8  9  1  0  0  0
  8 22  1  0  0  0
  9 10  1  0  0  0
  9 27  2  0  0  0
 10 11  2  0  0  0
 10 15  1  0  0  0
 11 12  1  0  0  0
 11 93  1  0  0  0
 12 13  2  0  0  0
 12 94  1  0  0  0
 13 14  1  0  0  0
 13 31  1  0  0  0
 14 15  2  0  0  0
 14 95  1  0  0  0
 15 96  1  0  0  0
 16 17  2  0  0  0
 16 21  1  0  0  0
 16 31  1  0  0  0
 17 18  1  0  0  0
 17 97  1  0  0  0
 18 19  2  0  0  0
 18 98  1  0  0  0
 19 20  1  0  0  0
 19 24  1  0  0  0
 20 21  2  0  0  0
 20 99  1  0  0  0
 21 23  1  0  0  0
 22 28  1  0  0  0
 22 32  2  0  0  0
 26 27  1  0  0  0
 28100  1  0  0  0
 28101  1  0  0  0
 29102  1  0  0  0
 29103  1  0  0  0
 33 34  1  0  0  0
 33 66  1  0  0  0
 33 70  2  0  0  0
 34 36  1  0  0  0
 34 59  1  0  0  0
 34104  1  0  0  0
 35 44  2  0  0  0
 35 45  1  0  0  0
 35 68  1  0  0  0
 36 56  1  0  0  0
 36105  1  0  0  0
 37 39  1  0  0  0
 37 47  1  0  0  0
 37 66  1  0  0  0
 37106  1  0  0  0
 38 43  2  0  0  0
 38 46  1  0  0  0
 38 47  1  0  0  0
 39 64  1  0  0  0
 39 67  2  0  0  0
 40 52  1  0  0  0
 40 53  2  0  0  0
 40 58  1  0  0  0
 41107  1  0  0  0
 41108  1  0  0  0
 41109  1  0  0  0
 41 48  1  0  0  0
 42 43  1  0  0  0
 42 66  1  0  0  0
 42110  1  0  0  0
 42111  1  0  0  0
 43 44  1  0  0  0
 44112  1  0  0  0
 45 46  2  0  0  0
 45113  1  0  0  0
 46114  1  0  0  0
 47115  1  0  0  0
 47116  1  0  0  0
 48 56  1  0  0  0
 48 65  1  0  0  0
 48117  1  0  0  0
 49 50  1  0  0  0
 49 53  1  0  0  0
 49 64  1  0  0  0
 49118  1  0  0  0
 50 51  1  0  0  0
 50119  1  0  0  0
 50120  1  0  0  0
 51 52  1  0  0  0
 51121  1  0  0  0
 51122  1  0  0  0
 52123  1  0  0  0
 52124  1  0  0  0
 53 54  1  0  0  0
 54 55  2  0  0  0
 54125  1  0  0  0
 55 57  1  0  0  0
 55126  1  0  0  0
 56 69  2  0  0  0
 57 58  2  0  0  0
 57127  1  0  0  0
 58128  1  0  0  0
 59 60  1  0  0  0
 59 61  1  0  0  0
 59 62  1  0  0  0
 60129  1  0  0  0
 60130  1  0  0  0
 60131  1  0  0  0
 61132  1  0  0  0
 61133  1  0  0  0
 61134  1  0  0  0
 62135  1  0  0  0
 62136  1  0  0  0
 62137  1  0  0  0
 63 65  1  0  0  0
 63138  1  0  0  0
 63139  1  0  0  0
 63140  1  0  0  0
 64141  1  0  0  0
 65142  1  0  0  0
 68 77  1  0  0  0
 71 73  2  0  0  0
 71 74  1  0  0  0
 71143  1  0  0  0
 72 79  2  0  0  0
 72 80  1  0  0  0
 72144  1  0  0  0
 73 75  1  0  0  0
 73 79  1  0  0  0
 74 80  2  0  0  0
 74 81  1  0  0  0
 75 82  1  0  0  0
 75145  1  0  0  0
 75146  1  0  0  0
 76 78  1  0  0  0
 76 81  1  0  0  0
 76147  1  0  0  0
 76148  1  0  0  0
 77 78  1  0  0  0
 77149  1  0  0  0
 77150  1  0  0  0
 78 83  1  0  0  0
 78151  1  0  0  0
 81152  1  0  0  0
 82153  1  0  0  0
 83154  1  0  0  0
M  ISO  4   1 100  68 101  77 101  82 100
M  END
> <chiral flag>
0

> <version>
0

> <s_m_source_file>
/data/baiqing/PycharmProjects/Reinvent-master-3.2/result/LINK_invent/BTK/process_docking_weight1_custom_product_contain_oxygen_bond_distance_aromatic_linkinvent_7_9_3/rearranged_h_0196.sdf

> <i_m_source_file_index>
52

> <r_mmod_Potential_Energy-OPLS-2005>
-684.680847167969

> <r_mmod_Stretch_Energy-OPLS-2005>
45.0810508728027

> <r_mmod_Bend_Energy-OPLS-2005>
133.553421020508

> <r_mmod_Torsional_Energy-OPLS-2005>
305.6259765625

> <r_mmod_Improper_Torsional_Energy-OPLS-2005>
29.2508640289307

> <r_mmod_Van_der_Waal_Energy-OPLS-2005>
148.147827148438

> <r_mmod_Electrostatic_Energy-OPLS-2005>
-1105.82165527344

> <r_mmod_Solvation_Energy-OPLS-2005>
-272.176483154297

> <b_mmod_Minimization_Converged-OPLS-2005>
0

> <r_mmod_RMS_Derivative-OPLS-2005>
1.68288898468018

$$$$
52
                    3D
 Structure written by MMmdl.
157165  0  0  1  0            999 V2000
  -30.6776  -14.6592   20.4915 C   0  0  0  0  0  0
  -30.4182  -12.4101   19.4630 C   0  0  0  0  0  0
  -29.5006  -12.4969   18.2264 C   0  0  0  0  0  0
  -28.0270  -12.3316   18.6429 C   0  0  0  0  0  0
  -27.6417  -13.2305   19.8492 C   0  0  2  0  0  0
  -28.6867  -13.1544   20.9835 C   0  0  0  0  0  0
  -25.2512  -13.8208   20.5704 C   0  0  0  0  0  0
  -24.1804  -13.0447   20.9211 C   0  0  0  0  0  0
  -24.6390  -11.6923   20.8742 C   0  0  0  0  0  0
  -23.9069  -10.4300   21.0402 C   0  0  0  0  0  0
  -24.3620   -9.4212   21.9180 C   0  0  0  0  0  0
  -23.6298   -8.2245   22.0749 C   0  0  0  0  0  0
  -22.4279   -8.0281   21.3541 C   0  0  0  0  0  0
  -21.9916   -9.0253   20.4643 C   0  0  0  0  0  0
  -22.7241  -10.2136   20.3053 C   0  0  0  0  0  0
  -21.6856   -6.0737   22.5279 C   0  0  0  0  0  0
  -21.4017   -6.5641   23.8212 C   0  0  0  0  0  0
  -21.3659   -5.6791   24.9172 C   0  0  0  0  0  0
  -21.6044   -4.3052   24.7222 C   0  0  0  0  0  0
  -21.8817   -3.8148   23.4341 C   0  0  0  0  0  0
  -21.9197   -4.6967   22.3400 C   0  0  0  0  0  0
  -22.7824  -13.5227   21.1867 C   0  0  0  0  0  0
  -22.1661   -4.2155   21.0976 F   0  0  0  0  0  0
  -21.5630   -3.4534   25.7733 F   0  0  0  0  0  0
  -29.9945  -13.4731   20.4002 N   0  0  0  0  0  0
  -26.2937  -12.9413   20.3288 N   0  0  0  0  0  0
  -25.9319  -11.6555   20.5750 N   0  0  0  0  0  0
  -22.0465  -12.8219   22.0419 N   0  0  0  0  0  0
  -25.4199  -15.1934   20.4119 N   0  0  0  0  0  0
  -31.8635  -14.7144   20.1607 O   0  0  0  0  0  0
  -21.6640   -6.8879   21.4240 O   0  0  0  0  0  0
  -22.3505  -14.5526   20.6706 O   0  0  0  0  0  0
  -24.6301  -31.8596   23.2036 C   0  0  0  0  0  0
  -25.9147  -32.4779   23.8356 C   0  0  1  0  0  0
  -27.2071  -27.2899   20.1118 C   0  0  0  0  0  0
  -25.5964  -33.8581   24.2289 N   0  0  0  0  0  0
  -23.4227  -30.4881   21.5474 C   0  0  2  0  0  0
  -24.8641  -28.9476   20.1095 C   0  0  0  0  0  0
  -22.7489  -29.4634   22.4920 C   0  0  0  0  0  0
  -18.0292  -28.1389   22.8487 C   0  0  0  0  0  0
  -24.1496  -36.7284   23.2634 C   0  0  0  0  0  0
  -25.9680  -30.7810   21.3800 C   0  0  0  0  0  0
  -26.0369  -29.4082   20.7194 C   0  0  0  0  0  0
  -27.2104  -28.5909   20.7146 C   0  0  0  0  0  0
  -26.0085  -26.9053   19.4625 C   0  0  0  0  0  0
  -24.8537  -27.7019   19.4720 C   0  0  0  0  0  0
  -23.6376  -29.8333   20.1596 C   0  0  0  0  0  0
  -25.4119  -36.3081   24.0330 C   0  0  1  0  0  0
  -20.5898  -28.3699   23.1277 C   0  0  2  0  0  0
  -20.6784  -26.9423   22.5403 C   0  0  0  0  0  0
  -19.5757  -26.6392   21.5208 C   0  0  0  0  0  0
  -18.1938  -26.7930   22.1622 C   0  0  0  0  0  0
  -19.1546  -28.8857   23.2880 C   0  0  0  0  0  0
  -18.9467  -30.1457   23.8902 C   0  0  0  0  0  0
  -17.6468  -30.6591   24.0566 C   0  0  0  0  0  0
  -25.9062  -34.9455   23.5103 C   0  0  0  0  0  0
  -16.5360  -29.9094   23.6331 C   0  0  0  0  0  0
  -16.7278  -28.6511   23.0351 C   0  0  0  0  0  0
  -26.4520  -31.6586   25.0725 C   0  0  0  0  0  0
  -25.3749  -31.3716   26.1443 C   0  0  0  0  0  0
  -27.0357  -30.3011   24.6178 C   0  0  0  0  0  0
  -27.6084  -32.4308   25.7498 C   0  0  0  0  0  0
  -27.5581  -37.1804   24.8471 C   0  0  0  0  0  0
  -21.4200  -29.3057   22.3664 N   0  0  0  0  0  0
  -26.4293  -37.3780   23.9415 N   0  0  0  0  0  0
  -24.6928  -31.0593   22.1003 N   0  0  0  0  0  0
  -23.4202  -28.8155   23.2994 O   0  0  0  0  0  0
  -28.3051  -26.4026   20.1854 O   0  0  0  0  0  0
  -26.5614  -34.8924   22.4659 O   0  0  0  0  0  0
  -23.5462  -32.1404   23.7356 O   0  0  0  0  0  0
  -30.0439  -18.6076   20.8012 C   0  0  0  0  0  0
  -30.7914  -19.7866   21.1394 C   0  0  0  0  0  0
  -29.0489  -21.1331   20.4767 C   0  0  0  0  0  0
  -28.3542  -24.8558   18.3033 C   0  0  0  0  0  0
  -32.9124  -20.9007   21.8361 C   0  0  0  0  0  0
  -30.6950  -17.1648   20.9277 C   0  0  0  0  0  0
  -28.9515  -23.7995   20.5469 C   0  0  0  0  0  0
  -28.1219  -24.9635   19.8215 C   0  0  1  0  0  0
  -28.7882  -18.7939   20.3028 N   0  0  0  0  0  0
  -30.2806  -21.0446   20.9798 N   0  0  0  0  0  0
  -28.2990  -20.0558   20.1434 N   0  0  0  0  0  0
  -32.1030  -19.7018   21.6410 N   0  0  0  0  0  0
  -28.4756  -22.4055   20.2442 N   0  0  0  0  0  0
  -30.0018  -15.8242   20.7753 N   0  0  0  0  0  0
  -31.4621  -12.5065   19.1597 H   0  0  0  0  0  0
  -30.3351  -11.4314   19.9385 H   0  0  0  0  0  0
  -29.7725  -11.7311   17.4990 H   0  0  0  0  0  0
  -29.6387  -13.4575   17.7277 H   0  0  0  0  0  0
  -27.8767  -11.2828   18.9033 H   0  0  0  0  0  0
  -27.3694  -12.5290   17.7955 H   0  0  0  0  0  0
  -27.6405  -14.2538   19.4732 H   0  0  0  0  0  0
  -28.7047  -12.1595   21.4294 H   0  0  0  0  0  0
  -28.4344  -13.8471   21.7876 H   0  0  0  0  0  0
  -25.2758   -9.5697   22.4758 H   0  0  0  0  0  0
  -24.0010   -7.4639   22.7467 H   0  0  0  0  0  0
  -21.0849   -8.8766   19.8947 H   0  0  0  0  0  0
  -22.3689  -10.9672   19.6166 H   0  0  0  0  0  0
  -21.2002   -7.6148   23.9720 H   0  0  0  0  0  0
  -21.1488   -6.0516   25.9077 H   0  0  0  0  0  0
  -22.0599   -2.7613   23.2836 H   0  0  0  0  0  0
  -22.4078  -11.9888   22.4825 H   0  0  0  0  0  0
  -21.1077  -13.1242   22.2602 H   0  0  0  0  0  0
  -24.6518  -15.8462   20.5222 H   0  0  0  0  0  0
  -26.2678  -15.6357   20.0806 H   0  0  0  0  0  0
  -26.7203  -32.5439   23.1087 H   0  0  0  0  0  0
  -25.0154  -33.9724   25.0462 H   0  0  0  0  0  0
  -22.7184  -31.3106   21.4084 H   0  0  0  0  0  0
  -23.3767  -35.9610   23.3302 H   0  0  0  0  0  0
  -24.3578  -36.8892   22.2045 H   0  0  0  0  0  0
  -23.7240  -37.6486   23.6647 H   0  0  0  0  0  0
  -26.1050  -31.5442   20.6126 H   0  0  0  0  0  0
  -26.8482  -30.8256   22.0105 H   0  0  0  0  0  0
  -28.1058  -28.9373   21.2112 H   0  0  0  0  0  0
  -25.9104  -25.9675   18.9397 H   0  0  0  0  0  0
  -23.9578  -27.3456   18.9827 H   0  0  0  0  0  0
  -23.7658  -30.6158   19.4099 H   0  0  0  0  0  0
  -22.7548  -29.2714   19.8489 H   0  0  0  0  0  0
  -25.1299  -36.1928   25.0823 H   0  0  0  0  0  0
  -20.9995  -28.3269   24.1395 H   0  0  0  0  0  0
  -20.5693  -26.2308   23.3600 H   0  0  0  0  0  0
  -21.6649  -26.7454   22.1190 H   0  0  0  0  0  0
  -19.6922  -25.6304   21.1236 H   0  0  0  0  0  0
  -19.6692  -27.3202   20.6740 H   0  0  0  0  0  0
  -17.4206  -26.6679   21.4027 H   0  0  0  0  0  0
  -18.0344  -26.0068   22.9018 H   0  0  0  0  0  0
  -19.7943  -30.7272   24.2276 H   0  0  0  0  0  0
  -17.5024  -31.6272   24.5163 H   0  0  0  0  0  0
  -15.5361  -30.3000   23.7653 H   0  0  0  0  0  0
  -15.8676  -28.0834   22.7066 H   0  0  0  0  0  0
  -24.5957  -30.7027   25.7771 H   0  0  0  0  0  0
  -24.8903  -32.2871   26.4848 H   0  0  0  0  0  0
  -25.8079  -30.8917   27.0230 H   0  0  0  0  0  0
  -26.2921  -29.6762   24.1216 H   0  0  0  0  0  0
  -27.4069  -29.7266   25.4675 H   0  0  0  0  0  0
  -27.8793  -30.4297   23.9390 H   0  0  0  0  0  0
  -27.2717  -33.3624   26.2058 H   0  0  0  0  0  0
  -28.3912  -32.6833   25.0333 H   0  0  0  0  0  0
  -28.0732  -31.8431   26.5426 H   0  0  0  0  0  0
  -28.2609  -38.0095   24.7516 H   0  0  0  0  0  0
  -28.1066  -36.2627   24.6300 H   0  0  0  0  0  0
  -27.2293  -37.1448   25.8871 H   0  0  0  0  0  0
  -20.9370  -29.8792   21.6892 H   0  0  0  0  0  0
  -26.0175  -38.2856   24.1417 H   0  0  0  0  0  0
  -28.0754  -23.8716   17.9270 H   0  0  0  0  0  0
  -29.4053  -25.0117   18.0630 H   0  0  0  0  0  0
  -27.7822  -25.5912   17.7399 H   0  0  0  0  0  0
  -33.9261  -20.6310   22.1328 H   0  0  0  0  0  0
  -32.4905  -21.5364   22.6160 H   0  0  0  0  0  0
  -32.9775  -21.4841   20.9165 H   0  0  0  0  0  0
  -31.1658  -17.1313   21.9109 H   0  0  0  0  0  0
  -31.5239  -17.1899   20.2186 H   0  0  0  0  0  0
  -28.8867  -23.9421   21.6262 H   0  0  0  0  0  0
  -30.0092  -23.8792   20.2938 H   0  0  0  0  0  0
  -27.0944  -24.6878   20.0546 H   0  0  0  0  0  0
  -32.5507  -18.7945   21.7290 H   0  0  0  0  0  0
  -27.5454  -22.3464   19.8512 H   0  0  0  0  0  0
  -29.0130  -15.7753   20.9688 H   0  0  0  0  0  0
  1 25  1  0  0  0
  1 30  2  0  0  0
  1 84  1  0  0  0
  2  3  1  0  0  0
  2 25  1  0  0  0
  2 85  1  0  0  0
  2 86  1  0  0  0
  3  4  1  0  0  0
  3 87  1  0  0  0
  3 88  1  0  0  0
  4  5  1  0  0  0
  4 89  1  0  0  0
  4 90  1  0  0  0
  5  6  1  0  0  0
  5 26  1  0  0  0
  5 91  1  0  0  0
  6 25  1  0  0  0
  6 92  1  0  0  0
  6 93  1  0  0  0
  7  8  2  0  0  0
  7 26  1  0  0  0
  7 29  1  0  0  0
  8  9  1  0  0  0
  8 22  1  0  0  0
  9 10  1  0  0  0
  9 27  2  0  0  0
 10 11  2  0  0  0
 10 15  1  0  0  0
 11 12  1  0  0  0
 11 94  1  0  0  0
 12 13  2  0  0  0
 12 95  1  0  0  0
 13 14  1  0  0  0
 13 31  1  0  0  0
 14 15  2  0  0  0
 14 96  1  0  0  0
 15 97  1  0  0  0
 16 17  2  0  0  0
 16 21  1  0  0  0
 16 31  1  0  0  0
 17 18  1  0  0  0
 17 98  1  0  0  0
 18 19  2  0  0  0
 18 99  1  0  0  0
 19 20  1  0  0  0
 19 24  1  0  0  0
 20 21  2  0  0  0
 20100  1  0  0  0
 21 23  1  0  0  0
 22 28  1  0  0  0
 22 32  2  0  0  0
 26 27  1  0  0  0
 28101  1  0  0  0
 28102  1  0  0  0
 29103  1  0  0  0
 29104  1  0  0  0
 33 34  1  0  0  0
 33 66  1  0  0  0
 33 70  2  0  0  0
 34 36  1  0  0  0
 34 59  1  0  0  0
 34105  1  0  0  0
 35 44  2  0  0  0
 35 45  1  0  0  0
 35 68  1  0  0  0
 36 56  1  0  0  0
 36106  1  0  0  0
 37 39  1  0  0  0
 37 47  1  0  0  0
 37 66  1  0  0  0
 37107  1  0  0  0
 38 43  2  0  0  0
 38 46  1  0  0  0
 38 47  1  0  0  0
 39 64  1  0  0  0
 39 67  2  0  0  0
 40 52  1  0  0  0
 40 53  2  0  0  0
 40 58  1  0  0  0
 41108  1  0  0  0
 41109  1  0  0  0
 41110  1  0  0  0
 41 48  1  0  0  0
 42 43  1  0  0  0
 42 66  1  0  0  0
 42111  1  0  0  0
 42112  1  0  0  0
 43 44  1  0  0  0
 44113  1  0  0  0
 45 46  2  0  0  0
 45114  1  0  0  0
 46115  1  0  0  0
 47116  1  0  0  0
 47117  1  0  0  0
 48 56  1  0  0  0
 48 65  1  0  0  0
 48118  1  0  0  0
 49 50  1  0  0  0
 49 53  1  0  0  0
 49 64  1  0  0  0
 49119  1  0  0  0
 50 51  1  0  0  0
 50120  1  0  0  0
 50121  1  0  0  0
 51 52  1  0  0  0
 51122  1  0  0  0
 51123  1  0  0  0
 52124  1  0  0  0
 52125  1  0  0  0
 53 54  1  0  0  0
 54 55  2  0  0  0
 54126  1  0  0  0
 55 57  1  0  0  0
 55127  1  0  0  0
 56 69  2  0  0  0
 57 58  2  0  0  0
 57128  1  0  0  0
 58129  1  0  0  0
 59 60  1  0  0  0
 59 61  1  0  0  0
 59 62  1  0  0  0
 60130  1  0  0  0
 60131  1  0  0  0
 60132  1  0  0  0
 61133  1  0  0  0
 61134  1  0  0  0
 61135  1  0  0  0
 62136  1  0  0  0
 62137  1  0  0  0
 62138  1  0  0  0
 63 65  1  0  0  0
 63139  1  0  0  0
 63140  1  0  0  0
 63141  1  0  0  0
 64142  1  0  0  0
 65143  1  0  0  0
 68 78  1  0  0  0
 71 72  2  0  0  0
 71 76  1  0  0  0
 71 79  1  0  0  0
 72 80  1  0  0  0
 72 82  1  0  0  0
 73 80  2  0  0  0
 73 81  1  0  0  0
 73 83  1  0  0  0
 74144  1  0  0  0
 74145  1  0  0  0
 74146  1  0  0  0
 74 78  1  0  0  0
 75 82  1  0  0  0
 75147  1  0  0  0
 75148  1  0  0  0
 75149  1  0  0  0
 76 84  1  0  0  0
 76150  1  0  0  0
 76151  1  0  0  0
 77 78  1  0  0  0
 77 83  1  0  0  0
 77152  1  0  0  0
 77153  1  0  0  0
 78154  1  0  0  0
 79 81  2  0  0  0
 82155  1  0  0  0
 83156  1  0  0  0
 84157  1  0  0  0
M  ISO  4   1 100  68 101  78 101  84 100
M  END
> <chiral flag>
0

> <version>
0

> <s_m_source_file>
/data/baiqing/PycharmProjects/Reinvent-master-3.2/result/LINK_invent/BTK/process_docking_weight1_custom_product_contain_oxygen_bond_distance_aromatic_linkinvent_7_9_3/rearranged_h_0196.sdf

> <i_m_source_file_index>
53

> <r_mmod_Potential_Energy-OPLS-2005>
-97.3489074707031

> <r_mmod_Stretch_Energy-OPLS-2005>
93.7846069335938

> <r_mmod_Bend_Energy-OPLS-2005>
187.571578979492

> <r_mmod_Torsional_Energy-OPLS-2005>
181.111740112305

> <r_mmod_Improper_Torsional_Energy-OPLS-2005>
4.17541933059692

> <r_mmod_Van_der_Waal_Energy-OPLS-2005>
165.298248291016

> <r_mmod_Electrostatic_Energy-OPLS-2005>
-544.403930664062

> <r_mmod_Solvation_Energy-OPLS-2005>
-249.168045043945

> <b_mmod_Minimization_Converged-OPLS-2005>
0

> <r_mmod_RMS_Derivative-OPLS-2005>
1.05211925506592

$$$$
53
                    3D
 Structure written by MMmdl.
155163  0  0  1  0            999 V2000
  -30.5950  -14.7666   20.4538 C   0  0  0  0  0  0
  -30.4301  -12.4674   19.4764 C   0  0  0  0  0  0
  -29.5114  -12.5164   18.2349 C   0  0  0  0  0  0
  -28.0360  -12.3391   18.6443 C   0  0  0  0  0  0
  -27.6394  -13.2350   19.8481 C   0  0  2  0  0  0
  -28.6831  -13.1755   20.9852 C   0  0  0  0  0  0
  -25.2501  -13.8201   20.5688 C   0  0  0  0  0  0
  -24.1811  -13.0433   20.9228 C   0  0  0  0  0  0
  -24.6410  -11.6915   20.8764 C   0  0  0  0  0  0
  -23.9089  -10.4286   21.0428 C   0  0  0  0  0  0
  -24.3631   -9.4192   21.9198 C   0  0  0  0  0  0
  -23.6300   -8.2231   22.0757 C   0  0  0  0  0  0
  -22.4281   -8.0280   21.3552 C   0  0  0  0  0  0
  -21.9924   -9.0260   20.4655 C   0  0  0  0  0  0
  -22.7262  -10.2134   20.3075 C   0  0  0  0  0  0
  -21.6851   -6.0736   22.5286 C   0  0  0  0  0  0
  -21.4009   -6.5640   23.8222 C   0  0  0  0  0  0
  -21.3664   -5.6793   24.9184 C   0  0  0  0  0  0
  -21.6041   -4.3055   24.7237 C   0  0  0  0  0  0
  -21.8817   -3.8148   23.4360 C   0  0  0  0  0  0
  -21.9185   -4.6961   22.3413 C   0  0  0  0  0  0
  -22.7832  -13.5218   21.1881 C   0  0  0  0  0  0
  -22.1649   -4.2152   21.0993 F   0  0  0  0  0  0
  -21.5637   -3.4538   25.7744 F   0  0  0  0  0  0
  -29.9808  -13.5336   20.4034 N   0  0  0  0  0  0
  -26.2930  -12.9413   20.3262 N   0  0  0  0  0  0
  -25.9335  -11.6553   20.5747 N   0  0  0  0  0  0
  -22.0468  -12.8214   22.0430 N   0  0  0  0  0  0
  -25.4135  -15.1923   20.4058 N   0  0  0  0  0  0
  -31.7838  -14.8678   20.1385 O   0  0  0  0  0  0
  -21.6633   -6.8881   21.4250 O   0  0  0  0  0  0
  -22.3517  -14.5519   20.6720 O   0  0  0  0  0  0
  -24.6324  -31.8526   23.1948 C   0  0  0  0  0  0
  -25.9142  -32.4730   23.8302 C   0  0  1  0  0  0
  -27.2219  -27.2373   20.1333 C   0  0  0  0  0  0
  -25.5928  -33.8536   24.2226 N   0  0  0  0  0  0
  -23.4299  -30.4728   21.5381 C   0  0  2  0  0  0
  -24.8778  -28.9131   20.1089 C   0  0  0  0  0  0
  -22.7495  -29.4605   22.4901 C   0  0  0  0  0  0
  -18.0288  -28.1384   22.8495 C   0  0  0  0  0  0
  -24.1484  -36.7272   23.2642 C   0  0  0  0  0  0
  -25.9757  -30.7575   21.3787 C   0  0  0  0  0  0
  -26.0476  -29.3775   20.7210 C   0  0  0  0  0  0
  -27.2179  -28.5515   20.7212 C   0  0  0  0  0  0
  -26.0257  -26.8389   19.4990 C   0  0  0  0  0  0
  -24.8728  -27.6526   19.4886 C   0  0  0  0  0  0
  -23.6501  -29.8033   20.1546 C   0  0  0  0  0  0
  -25.4115  -36.3056   24.0321 C   0  0  1  0  0  0
  -20.5891  -28.3718   23.1282 C   0  0  2  0  0  0
  -20.6773  -26.9432   22.5426 C   0  0  0  0  0  0
  -19.5757  -26.6399   21.5217 C   0  0  0  0  0  0
  -18.1938  -26.7926   22.1637 C   0  0  0  0  0  0
  -19.1538  -28.8863   23.2890 C   0  0  0  0  0  0
  -18.9454  -30.1464   23.8901 C   0  0  0  0  0  0
  -17.6452  -30.6588   24.0554 C   0  0  0  0  0  0
  -25.9060  -34.9426   23.5082 C   0  0  0  0  0  0
  -16.5346  -29.9084   23.6320 C   0  0  0  0  0  0
  -16.7274  -28.6494   23.0361 C   0  0  0  0  0  0
  -26.4502  -31.6575   25.0707 C   0  0  0  0  0  0
  -25.3718  -31.3748   26.1422 C   0  0  0  0  0  0
  -27.0353  -30.2980   24.6232 C   0  0  0  0  0  0
  -27.6031  -32.4337   25.7490 C   0  0  0  0  0  0
  -27.5574  -37.1796   24.8468 C   0  0  0  0  0  0
  -21.4196  -29.3065   22.3657 N   0  0  0  0  0  0
  -26.4285  -37.3762   23.9411 N   0  0  0  0  0  0
  -24.6981  -31.0478   22.0928 N   0  0  0  0  0  0
  -23.4182  -28.8148   23.3009 O   0  0  0  0  0  0
  -28.3381  -26.3673   20.2177 O   0  0  0  0  0  0
  -26.5642  -34.8910   22.4657 O   0  0  0  0  0  0
  -23.5469  -32.1358   23.7230 O   0  0  0  0  0  0
  -27.8741  -18.2787   21.0684 C   0  0  0  0  0  0
  -29.1643  -18.5637   20.6019 C   0  0  0  0  0  0
  -26.9920  -19.3509   21.2137 C   0  0  0  0  0  0
  -28.5457  -20.8894   20.4987 C   0  0  0  0  0  0
  -26.8168  -23.5525   21.1796 C   0  0  0  0  0  0
  -30.2216  -17.3741   20.4663 C   0  0  0  0  0  0
  -28.3972  -24.9400   19.7124 C   0  0  0  0  0  0
  -28.2675  -23.6211   20.6689 C   0  0  2  0  0  0
  -29.4722  -19.8968   20.3077 N   0  0  0  0  0  0
  -27.3236  -20.6220   20.9419 N   0  0  0  0  0  0
  -25.7018  -19.1418   21.6721 N   0  0  0  0  0  0
  -28.8226  -22.2720   20.1635 N   0  0  0  0  0  0
  -29.8210  -15.9023   20.6444 N   0  0  0  0  0  0
  -31.4727  -12.5911   19.1792 H   0  0  0  0  0  0
  -30.3719  -11.4911   19.9603 H   0  0  0  0  0  0
  -29.7967  -11.7467   17.5166 H   0  0  0  0  0  0
  -29.6379  -13.4727   17.7241 H   0  0  0  0  0  0
  -27.8872  -11.2893   18.8988 H   0  0  0  0  0  0
  -27.3832  -12.5404   17.7945 H   0  0  0  0  0  0
  -27.6316  -14.2569   19.4688 H   0  0  0  0  0  0
  -28.7220  -12.1794   21.4279 H   0  0  0  0  0  0
  -28.4166  -13.8579   21.7941 H   0  0  0  0  0  0
  -25.2778   -9.5649   22.4771 H   0  0  0  0  0  0
  -23.9997   -7.4615   22.7482 H   0  0  0  0  0  0
  -21.0845   -8.8804   19.8962 H   0  0  0  0  0  0
  -22.3740  -10.9683   19.6189 H   0  0  0  0  0  0
  -21.1994   -7.6147   23.9728 H   0  0  0  0  0  0
  -21.1489   -6.0524   25.9091 H   0  0  0  0  0  0
  -22.0588   -2.7611   23.2865 H   0  0  0  0  0  0
  -22.4080  -11.9876   22.4827 H   0  0  0  0  0  0
  -21.1095  -13.1269   22.2640 H   0  0  0  0  0  0
  -24.6166  -15.8159   20.4624 H   0  0  0  0  0  0
  -26.2100  -15.6139   19.9472 H   0  0  0  0  0  0
  -26.7199  -32.5370   23.1031 H   0  0  0  0  0  0
  -25.0056  -33.9665   25.0355 H   0  0  0  0  0  0
  -22.7279  -31.2952   21.3878 H   0  0  0  0  0  0
  -23.3747  -35.9607   23.3310 H   0  0  0  0  0  0
  -24.3571  -36.8891   22.2058 H   0  0  0  0  0  0
  -23.7240  -37.6470   23.6670 H   0  0  0  0  0  0
  -26.1215  -31.5199   20.6113 H   0  0  0  0  0  0
  -26.8497  -30.8043   22.0168 H   0  0  0  0  0  0
  -28.1125  -28.9035   21.2164 H   0  0  0  0  0  0
  -25.9407  -25.8704   19.0310 H   0  0  0  0  0  0
  -23.9746  -27.2885   19.0090 H   0  0  0  0  0  0
  -23.7789  -30.5772   19.3970 H   0  0  0  0  0  0
  -22.7684  -29.2380   19.8489 H   0  0  0  0  0  0
  -25.1302  -36.1896   25.0814 H   0  0  0  0  0  0
  -20.9980  -28.3295   24.1404 H   0  0  0  0  0  0
  -20.5670  -26.2326   23.3639 H   0  0  0  0  0  0
  -21.6638  -26.7456   22.1216 H   0  0  0  0  0  0
  -19.6932  -25.6309   21.1248 H   0  0  0  0  0  0
  -19.6700  -27.3215   20.6751 H   0  0  0  0  0  0
  -17.4207  -26.6674   21.4040 H   0  0  0  0  0  0
  -18.0349  -26.0056   22.9030 H   0  0  0  0  0  0
  -19.7930  -30.7268   24.2285 H   0  0  0  0  0  0
  -17.5008  -31.6278   24.5137 H   0  0  0  0  0  0
  -15.5345  -30.2987   23.7639 H   0  0  0  0  0  0
  -15.8671  -28.0807   22.7089 H   0  0  0  0  0  0
  -24.5886  -30.7101   25.7763 H   0  0  0  0  0  0
  -24.8915  -32.2926   26.4827 H   0  0  0  0  0  0
  -25.8025  -30.8943   27.0216 H   0  0  0  0  0  0
  -26.2953  -29.6719   24.1228 H   0  0  0  0  0  0
  -27.3978  -29.7256   25.4781 H   0  0  0  0  0  0
  -27.8856  -30.4225   23.9521 H   0  0  0  0  0  0
  -27.2611  -33.3638   26.2047 H   0  0  0  0  0  0
  -28.3857  -32.6906   25.0338 H   0  0  0  0  0  0
  -28.0687  -31.8486   26.5431 H   0  0  0  0  0  0
  -28.2593  -38.0088   24.7501 H   0  0  0  0  0  0
  -28.1063  -36.2618   24.6309 H   0  0  0  0  0  0
  -27.2291  -37.1464   25.8869 H   0  0  0  0  0  0
  -20.9393  -29.8792   21.6859 H   0  0  0  0  0  0
  -26.0156  -38.2832   24.1411 H   0  0  0  0  0  0
  -27.5737  -17.2726   21.3209 H   0  0  0  0  0  0
  -26.7217  -22.8977   22.0462 H   0  0  0  0  0  0
  -26.1328  -23.2023   20.4070 H   0  0  0  0  0  0
  -26.4698  -24.5348   21.5032 H   0  0  0  0  0  0
  -31.0097  -17.5802   21.1920 H   0  0  0  0  0  0
  -30.6953  -17.4721   19.4885 H   0  0  0  0  0  0
  -29.3984  -24.8848   19.2836 H   0  0  0  0  0  0
  -27.7514  -24.8147   18.8453 H   0  0  0  0  0  0
  -28.8859  -23.8415   21.5395 H   0  0  0  0  0  0
  -25.3276  -18.2009   21.6751 H   0  0  0  0  0  0
  -25.0095  -19.8634   21.5148 H   0  0  0  0  0  0
  -29.7352  -22.3773   19.7361 H   0  0  0  0  0  0
  -28.8509  -15.7508   20.8703 H   0  0  0  0  0  0
  1 25  1  0  0  0
  1 30  2  0  0  0
  1 83  1  0  0  0
  2  3  1  0  0  0
  2 25  1  0  0  0
  2 84  1  0  0  0
  2 85  1  0  0  0
  3  4  1  0  0  0
  3 86  1  0  0  0
  3 87  1  0  0  0
  4  5  1  0  0  0
  4 88  1  0  0  0
  4 89  1  0  0  0
  5  6  1  0  0  0
  5 26  1  0  0  0
  5 90  1  0  0  0
  6 25  1  0  0  0
  6 91  1  0  0  0
  6 92  1  0  0  0
  7  8  2  0  0  0
  7 26  1  0  0  0
  7 29  1  0  0  0
  8  9  1  0  0  0
  8 22  1  0  0  0
  9 10  1  0  0  0
  9 27  2  0  0  0
 10 11  2  0  0  0
 10 15  1  0  0  0
 11 12  1  0  0  0
 11 93  1  0  0  0
 12 13  2  0  0  0
 12 94  1  0  0  0
 13 14  1  0  0  0
 13 31  1  0  0  0
 14 15  2  0  0  0
 14 95  1  0  0  0
 15 96  1  0  0  0
 16 17  2  0  0  0
 16 21  1  0  0  0
 16 31  1  0  0  0
 17 18  1  0  0  0
 17 97  1  0  0  0
 18 19  2  0  0  0
 18 98  1  0  0  0
 19 20  1  0  0  0
 19 24  1  0  0  0
 20 21  2  0  0  0
 20 99  1  0  0  0
 21 23  1  0  0  0
 22 28  1  0  0  0
 22 32  2  0  0  0
 26 27  1  0  0  0
 28100  1  0  0  0
 28101  1  0  0  0
 29102  1  0  0  0
 29103  1  0  0  0
 33 34  1  0  0  0
 33 66  1  0  0  0
 33 70  2  0  0  0
 34 36  1  0  0  0
 34 59  1  0  0  0
 34104  1  0  0  0
 35 44  2  0  0  0
 35 45  1  0  0  0
 35 68  1  0  0  0
 36 56  1  0  0  0
 36105  1  0  0  0
 37 39  1  0  0  0
 37 47  1  0  0  0
 37 66  1  0  0  0
 37106  1  0  0  0
 38 43  2  0  0  0
 38 46  1  0  0  0
 38 47  1  0  0  0
 39 64  1  0  0  0
 39 67  2  0  0  0
 40 52  1  0  0  0
 40 53  2  0  0  0
 40 58  1  0  0  0
 41107  1  0  0  0
 41108  1  0  0  0
 41109  1  0  0  0
 41 48  1  0  0  0
 42 43  1  0  0  0
 42 66  1  0  0  0
 42110  1  0  0  0
 42111  1  0  0  0
 43 44  1  0  0  0
 44112  1  0  0  0
 45 46  2  0  0  0
 45113  1  0  0  0
 46114  1  0  0  0
 47115  1  0  0  0
 47116  1  0  0  0
 48 56  1  0  0  0
 48 65  1  0  0  0
 48117  1  0  0  0
 49 50  1  0  0  0
 49 53  1  0  0  0
 49 64  1  0  0  0
 49118  1  0  0  0
 50 51  1  0  0  0
 50119  1  0  0  0
 50120  1  0  0  0
 51 52  1  0  0  0
 51121  1  0  0  0
 51122  1  0  0  0
 52123  1  0  0  0
 52124  1  0  0  0
 53 54  1  0  0  0
 54 55  2  0  0  0
 54125  1  0  0  0
 55 57  1  0  0  0
 55126  1  0  0  0
 56 69  2  0  0  0
 57 58  2  0  0  0
 57127  1  0  0  0
 58128  1  0  0  0
 59 60  1  0  0  0
 59 61  1  0  0  0
 59 62  1  0  0  0
 60129  1  0  0  0
 60130  1  0  0  0
 60131  1  0  0  0
 61132  1  0  0  0
 61133  1  0  0  0
 61134  1  0  0  0
 62135  1  0  0  0
 62136  1  0  0  0
 62137  1  0  0  0
 63 65  1  0  0  0
 63138  1  0  0  0
 63139  1  0  0  0
 63140  1  0  0  0
 64141  1  0  0  0
 65142  1  0  0  0
 68 77  1  0  0  0
 71 72  2  0  0  0
 71 73  1  0  0  0
 71143  1  0  0  0
 72 76  1  0  0  0
 72 79  1  0  0  0
 73 80  2  0  0  0
 73 81  1  0  0  0
 74 79  2  0  0  0
 74 80  1  0  0  0
 74 82  1  0  0  0
 75144  1  0  0  0
 75145  1  0  0  0
 75146  1  0  0  0
 75 78  1  0  0  0
 76 83  1  0  0  0
 76147  1  0  0  0
 76148  1  0  0  0
 77 78  1  0  0  0
 77149  1  0  0  0
 77150  1  0  0  0
 78 82  1  0  0  0
 78151  1  0  0  0
 81152  1  0  0  0
 81153  1  0  0  0
 82154  1  0  0  0
 83155  1  0  0  0
M  ISO  4   1 100  68 101  77 101  83 100
M  END
> <chiral flag>
0

> <version>
0

> <s_m_source_file>
/data/baiqing/PycharmProjects/Reinvent-master-3.2/result/LINK_invent/BTK/process_docking_weight1_custom_product_contain_oxygen_bond_distance_aromatic_linkinvent_7_9_3/rearranged_h_0196.sdf

> <i_m_source_file_index>
54

> <r_mmod_Potential_Energy-OPLS-2005>
-622.27685546875

> <r_mmod_Stretch_Energy-OPLS-2005>
134.569320678711

> <r_mmod_Bend_Energy-OPLS-2005>
199.582672119141

> <r_mmod_Torsional_Energy-OPLS-2005>
194.73095703125

> <r_mmod_Improper_Torsional_Energy-OPLS-2005>
9.51573657989502

> <r_mmod_Van_der_Waal_Energy-OPLS-2005>
139.6484375

> <r_mmod_Electrostatic_Energy-OPLS-2005>
-1140.00537109375

> <r_mmod_Solvation_Energy-OPLS-2005>
-255.595184326172

> <b_mmod_Minimization_Converged-OPLS-2005>
0

> <r_mmod_RMS_Derivative-OPLS-2005>
1.80854332447052

$$$$
54
                    3D
 Structure written by MMmdl.
152160  0  0  1  0            999 V2000
  -30.6210  -14.6834   20.4637 C   0  0  0  0  0  0
  -30.4379  -12.4149   19.4536 C   0  0  0  0  0  0
  -29.5094  -12.5076   18.2220 C   0  0  0  0  0  0
  -28.0324  -12.3405   18.6352 C   0  0  0  0  0  0
  -27.6478  -13.2225   19.8536 C   0  0  2  0  0  0
  -28.6966  -13.1118   20.9840 C   0  0  0  0  0  0
  -25.2533  -13.8171   20.5677 C   0  0  0  0  0  0
  -24.1810  -13.0436   20.9194 C   0  0  0  0  0  0
  -24.6382  -11.6912   20.8728 C   0  0  0  0  0  0
  -23.9052  -10.4293   21.0402 C   0  0  0  0  0  0
  -24.3604   -9.4211   21.9180 C   0  0  0  0  0  0
  -23.6279   -8.2246   22.0753 C   0  0  0  0  0  0
  -22.4260   -8.0280   21.3555 C   0  0  0  0  0  0
  -21.9898   -9.0252   20.4657 C   0  0  0  0  0  0
  -22.7222  -10.2132   20.3053 C   0  0  0  0  0  0
  -21.6854   -6.0727   22.5276 C   0  0  0  0  0  0
  -21.4016   -6.5630   23.8211 C   0  0  0  0  0  0
  -21.3659   -5.6786   24.9176 C   0  0  0  0  0  0
  -21.6044   -4.3047   24.7225 C   0  0  0  0  0  0
  -21.8818   -3.8141   23.4346 C   0  0  0  0  0  0
  -21.9192   -4.6959   22.3403 C   0  0  0  0  0  0
  -22.7829  -13.5234   21.1859 C   0  0  0  0  0  0
  -22.1659   -4.2145   21.0979 F   0  0  0  0  0  0
  -21.5631   -3.4531   25.7736 F   0  0  0  0  0  0
  -30.0067  -13.4547   20.4097 N   0  0  0  0  0  0
  -26.2962  -12.9367   20.3276 N   0  0  0  0  0  0
  -25.9314  -11.6520   20.5727 N   0  0  0  0  0  0
  -22.0458  -12.8241   22.0420 N   0  0  0  0  0  0
  -25.4209  -15.1896   20.4089 N   0  0  0  0  0  0
  -31.8091  -14.7944   20.1393 O   0  0  0  0  0  0
  -21.6637   -6.8870   21.4239 O   0  0  0  0  0  0
  -22.3518  -14.5542   20.6709 O   0  0  0  0  0  0
  -24.6277  -31.8583   23.2022 C   0  0  0  0  0  0
  -25.9115  -32.4772   23.8351 C   0  0  1  0  0  0
  -27.2230  -27.3019   20.1128 C   0  0  0  0  0  0
  -25.5912  -33.8571   24.2272 N   0  0  0  0  0  0
  -23.4215  -30.4837   21.5463 C   0  0  2  0  0  0
  -24.8677  -28.9390   20.1126 C   0  0  0  0  0  0
  -22.7479  -29.4619   22.4933 C   0  0  0  0  0  0
  -18.0281  -28.1387   22.8481 C   0  0  0  0  0  0
  -24.1482  -36.7301   23.2638 C   0  0  0  0  0  0
  -25.9649  -30.7851   21.3745 C   0  0  0  0  0  0
  -26.0402  -29.4113   20.7165 C   0  0  0  0  0  0
  -27.2210  -28.6056   20.7053 C   0  0  0  0  0  0
  -26.0217  -26.8889   19.4886 C   0  0  0  0  0  0
  -24.8617  -27.6832   19.4911 C   0  0  0  0  0  0
  -23.6359  -29.8195   20.1621 C   0  0  0  0  0  0
  -25.4106  -36.3085   24.0326 C   0  0  1  0  0  0
  -20.5885  -28.3691   23.1280 C   0  0  2  0  0  0
  -20.6766  -26.9406   22.5417 C   0  0  0  0  0  0
  -19.5752  -26.6383   21.5210 C   0  0  0  0  0  0
  -18.1928  -26.7929   22.1619 C   0  0  0  0  0  0
  -19.1536  -28.8855   23.2875 C   0  0  0  0  0  0
  -18.9460  -30.1459   23.8886 C   0  0  0  0  0  0
  -17.6460  -30.6589   24.0565 C   0  0  0  0  0  0
  -25.9044  -34.9451   23.5106 C   0  0  0  0  0  0
  -16.5351  -29.9090   23.6333 C   0  0  0  0  0  0
  -16.7268  -28.6512   23.0339 C   0  0  0  0  0  0
  -26.4481  -31.6582   25.0731 C   0  0  0  0  0  0
  -25.3699  -31.3738   26.1453 C   0  0  0  0  0  0
  -27.0299  -30.2994   24.6184 C   0  0  0  0  0  0
  -27.6047  -32.4302   25.7499 C   0  0  0  0  0  0
  -27.5578  -37.1798   24.8452 C   0  0  0  0  0  0
  -21.4189  -29.3045   22.3675 N   0  0  0  0  0  0
  -26.4285  -37.3784   23.9407 N   0  0  0  0  0  0
  -24.6907  -31.0585   22.0983 N   0  0  0  0  0  0
  -23.4199  -28.8145   23.3006 O   0  0  0  0  0  0
  -28.3327  -26.4332   20.1543 O   0  0  0  0  0  0
  -26.5628  -34.8921   22.4684 O   0  0  0  0  0  0
  -23.5438  -32.1375   23.7346 O   0  0  0  0  0  0
  -31.0903  -19.1453   20.4257 C   0  0  0  0  0  0
  -29.8856  -19.9118   20.4168 C   0  0  0  0  0  0
  -29.9080  -17.1671   20.5616 C   0  0  0  0  0  0
  -28.8126  -22.3301   20.2360 C   0  0  0  0  0  0
  -28.0617  -24.9673   20.1009 C   0  0  0  0  0  0
  -29.2158  -23.8850   20.3435 C   0  0  1  0  0  0
  -31.1025  -17.7874   20.5012 N   0  0  0  0  0  0
  -28.7161  -19.2122   20.4616 N   0  0  0  0  0  0
  -28.7333  -17.8522   20.5430 N   0  0  0  0  0  0
  -32.3332  -19.7677   20.3431 N   0  0  0  0  0  0
  -29.9324  -21.3466   20.3864 N   0  0  0  0  0  0
  -29.7965  -15.7620   20.6811 N   0  0  0  0  0  0
  -29.6832  -24.0540   21.6698 O   0  0  0  0  0  0
  -31.4797  -12.5341   19.1494 H   0  0  0  0  0  0
  -30.3707  -11.4282   19.9125 H   0  0  0  0  0  0
  -29.7810  -11.7481   17.4879 H   0  0  0  0  0  0
  -29.6472  -13.4712   17.7274 H   0  0  0  0  0  0
  -27.8745  -11.2888   18.8753 H   0  0  0  0  0  0
  -27.3790  -12.5598   17.7893 H   0  0  0  0  0  0
  -27.6537  -14.2508   19.4925 H   0  0  0  0  0  0
  -28.7187  -12.0987   21.3884 H   0  0  0  0  0  0
  -28.4404  -13.7635   21.8210 H   0  0  0  0  0  0
  -25.2753   -9.5694   22.4754 H   0  0  0  0  0  0
  -24.0005   -7.4630   22.7458 H   0  0  0  0  0  0
  -21.0838   -8.8759   19.8955 H   0  0  0  0  0  0
  -22.3673  -10.9665   19.6155 H   0  0  0  0  0  0
  -21.2003   -7.6136   23.9711 H   0  0  0  0  0  0
  -21.1485   -6.0516   25.9078 H   0  0  0  0  0  0
  -22.0595   -2.7605   23.2847 H   0  0  0  0  0  0
  -22.4056  -11.9916   22.4852 H   0  0  0  0  0  0
  -21.1069  -13.1282   22.2591 H   0  0  0  0  0  0
  -24.6490  -15.8377   20.5204 H   0  0  0  0  0  0
  -26.2606  -15.6393   20.0664 H   0  0  0  0  0  0
  -26.7175  -32.5435   23.1091 H   0  0  0  0  0  0
  -25.0004  -33.9704   25.0379 H   0  0  0  0  0  0
  -22.7172  -31.3056   21.4037 H   0  0  0  0  0  0
  -23.3744  -35.9633   23.3292 H   0  0  0  0  0  0
  -24.3579  -36.8942   22.2057 H   0  0  0  0  0  0
  -23.7232  -37.6498   23.6669 H   0  0  0  0  0  0
  -26.0923  -31.5458   20.6032 H   0  0  0  0  0  0
  -26.8479  -30.8387   22.0001 H   0  0  0  0  0  0
  -28.1192  -28.9640   21.1892 H   0  0  0  0  0  0
  -25.9401  -25.9319   18.9973 H   0  0  0  0  0  0
  -23.9626  -27.3151   19.0163 H   0  0  0  0  0  0
  -23.7539  -30.5950   19.4046 H   0  0  0  0  0  0
  -22.7552  -29.2484   19.8613 H   0  0  0  0  0  0
  -25.1281  -36.1939   25.0818 H   0  0  0  0  0  0
  -20.9974  -28.3263   24.1400 H   0  0  0  0  0  0
  -20.5658  -26.2287   23.3613 H   0  0  0  0  0  0
  -21.6640  -26.7425   22.1217 H   0  0  0  0  0  0
  -19.6909  -25.6288   21.1249 H   0  0  0  0  0  0
  -19.6699  -27.3188   20.6737 H   0  0  0  0  0  0
  -17.4192  -26.6664   21.4026 H   0  0  0  0  0  0
  -18.0339  -26.0075   22.9023 H   0  0  0  0  0  0
  -19.7938  -30.7280   24.2245 H   0  0  0  0  0  0
  -17.5016  -31.6266   24.5174 H   0  0  0  0  0  0
  -15.5350  -30.2988   23.7665 H   0  0  0  0  0  0
  -15.8665  -28.0840   22.7042 H   0  0  0  0  0  0
  -24.5855  -30.7108   25.7783 H   0  0  0  0  0  0
  -24.8898  -32.2912   26.4875 H   0  0  0  0  0  0
  -25.8008  -30.8909   27.0232 H   0  0  0  0  0  0
  -26.2859  -29.6772   24.1195 H   0  0  0  0  0  0
  -27.3960  -29.7239   25.4696 H   0  0  0  0  0  0
  -27.8757  -30.4266   23.9424 H   0  0  0  0  0  0
  -27.2664  -33.3600   26.2090 H   0  0  0  0  0  0
  -28.3856  -32.6864   25.0326 H   0  0  0  0  0  0
  -28.0707  -31.8406   26.5405 H   0  0  0  0  0  0
  -28.2581  -38.0108   24.7524 H   0  0  0  0  0  0
  -28.1091  -36.2643   24.6245 H   0  0  0  0  0  0
  -27.2305  -37.1422   25.8857 H   0  0  0  0  0  0
  -20.9355  -29.8775   21.6897 H   0  0  0  0  0  0
  -26.0169  -38.2857   24.1427 H   0  0  0  0  0  0
  -28.3506  -22.1579   19.2620 H   0  0  0  0  0  0
  -28.0432  -22.0997   20.9744 H   0  0  0  0  0  0
  -27.2411  -24.7448   20.7848 H   0  0  0  0  0  0
  -27.6901  -24.7476   19.1001 H   0  0  0  0  0  0
  -30.0291  -24.0940   19.6463 H   0  0  0  0  0  0
  -32.3226  -20.6728   19.8871 H   0  0  0  0  0  0
  -33.0954  -19.1822   20.0267 H   0  0  0  0  0  0
  -30.8387  -21.7425   20.6140 H   0  0  0  0  0  0
  -28.8524  -15.4812   20.8776 H   0  0  0  0  0  0
  -29.9290  -24.9703   21.7607 H   0  0  0  0  0  0
  1 25  1  0  0  0
  1 30  2  0  0  0
  1 82  1  0  0  0
  2  3  1  0  0  0
  2 25  1  0  0  0
  2 84  1  0  0  0
  2 85  1  0  0  0
  3  4  1  0  0  0
  3 86  1  0  0  0
  3 87  1  0  0  0
  4  5  1  0  0  0
  4 88  1  0  0  0
  4 89  1  0  0  0
  5  6  1  0  0  0
  5 26  1  0  0  0
  5 90  1  0  0  0
  6 25  1  0  0  0
  6 91  1  0  0  0
  6 92  1  0  0  0
  7  8  2  0  0  0
  7 26  1  0  0  0
  7 29  1  0  0  0
  8  9  1  0  0  0
  8 22  1  0  0  0
  9 10  1  0  0  0
  9 27  2  0  0  0
 10 11  2  0  0  0
 10 15  1  0  0  0
 11 12  1  0  0  0
 11 93  1  0  0  0
 12 13  2  0  0  0
 12 94  1  0  0  0
 13 14  1  0  0  0
 13 31  1  0  0  0
 14 15  2  0  0  0
 14 95  1  0  0  0
 15 96  1  0  0  0
 16 17  2  0  0  0
 16 21  1  0  0  0
 16 31  1  0  0  0
 17 18  1  0  0  0
 17 97  1  0  0  0
 18 19  2  0  0  0
 18 98  1  0  0  0
 19 20  1  0  0  0
 19 24  1  0  0  0
 20 21  2  0  0  0
 20 99  1  0  0  0
 21 23  1  0  0  0
 22 28  1  0  0  0
 22 32  2  0  0  0
 26 27  1  0  0  0
 28100  1  0  0  0
 28101  1  0  0  0
 29102  1  0  0  0
 29103  1  0  0  0
 33 34  1  0  0  0
 33 66  1  0  0  0
 33 70  2  0  0  0
 34 36  1  0  0  0
 34 59  1  0  0  0
 34104  1  0  0  0
 35 44  2  0  0  0
 35 45  1  0  0  0
 35 68  1  0  0  0
 36 56  1  0  0  0
 36105  1  0  0  0
 37 39  1  0  0  0
 37 47  1  0  0  0
 37 66  1  0  0  0
 37106  1  0  0  0
 38 43  2  0  0  0
 38 46  1  0  0  0
 38 47  1  0  0  0
 39 64  1  0  0  0
 39 67  2  0  0  0
 40 52  1  0  0  0
 40 53  2  0  0  0
 40 58  1  0  0  0
 41107  1  0  0  0
 41108  1  0  0  0
 41109  1  0  0  0
 41 48  1  0  0  0
 42 43  1  0  0  0
 42 66  1  0  0  0
 42110  1  0  0  0
 42111  1  0  0  0
 43 44  1  0  0  0
 44112  1  0  0  0
 45 46  2  0  0  0
 45113  1  0  0  0
 46114  1  0  0  0
 47115  1  0  0  0
 47116  1  0  0  0
 48 56  1  0  0  0
 48 65  1  0  0  0
 48117  1  0  0  0
 49 50  1  0  0  0
 49 53  1  0  0  0
 49 64  1  0  0  0
 49118  1  0  0  0
 50 51  1  0  0  0
 50119  1  0  0  0
 50120  1  0  0  0
 51 52  1  0  0  0
 51121  1  0  0  0
 51122  1  0  0  0
 52123  1  0  0  0
 52124  1  0  0  0
 53 54  1  0  0  0
 54 55  2  0  0  0
 54125  1  0  0  0
 55 57  1  0  0  0
 55126  1  0  0  0
 56 69  2  0  0  0
 57 58  2  0  0  0
 57127  1  0  0  0
 58128  1  0  0  0
 59 60  1  0  0  0
 59 61  1  0  0  0
 59 62  1  0  0  0
 60129  1  0  0  0
 60130  1  0  0  0
 60131  1  0  0  0
 61132  1  0  0  0
 61133  1  0  0  0
 61134  1  0  0  0
 62135  1  0  0  0
 62136  1  0  0  0
 62137  1  0  0  0
 63 65  1  0  0  0
 63138  1  0  0  0
 63139  1  0  0  0
 63140  1  0  0  0
 64141  1  0  0  0
 65142  1  0  0  0
 68 75  1  0  0  0
 71 72  2  0  0  0
 71 77  1  0  0  0
 71 80  1  0  0  0
 72 78  1  0  0  0
 72 81  1  0  0  0
 73 77  2  0  0  0
 73 79  1  0  0  0
 73 82  1  0  0  0
 74 76  1  0  0  0
 74 81  1  0  0  0
 74143  1  0  0  0
 74144  1  0  0  0
 75 76  1  0  0  0
 75145  1  0  0  0
 75146  1  0  0  0
 76 83  1  0  0  0
 76147  1  0  0  0
 78 79  2  0  0  0
 80148  1  0  0  0
 80149  1  0  0  0
 81150  1  0  0  0
 82151  1  0  0  0
 83152  1  0  0  0
M  ISO  4   1 100  68 101  75 101  82 100
M  END
> <chiral flag>
0

> <version>
0

> <s_m_source_file>
/data/baiqing/PycharmProjects/Reinvent-master-3.2/result/LINK_invent/BTK/process_docking_weight1_custom_product_contain_oxygen_bond_distance_aromatic_linkinvent_7_9_3/rearranged_h_0196.sdf

> <i_m_source_file_index>
55

> <r_mmod_Potential_Energy-OPLS-2005>
-120.052543640137

> <r_mmod_Stretch_Energy-OPLS-2005>
89.2580642700195

> <r_mmod_Bend_Energy-OPLS-2005>
167.141189575195

> <r_mmod_Torsional_Energy-OPLS-2005>
234.122543334961

> <r_mmod_Improper_Torsional_Energy-OPLS-2005>
9.61095905303955

> <r_mmod_Van_der_Waal_Energy-OPLS-2005>
152.688186645508

> <r_mmod_Electrostatic_Energy-OPLS-2005>
-567.859375

> <r_mmod_Solvation_Energy-OPLS-2005>
-265.624114990234

> <b_mmod_Minimization_Converged-OPLS-2005>
0

> <r_mmod_RMS_Derivative-OPLS-2005>
1.5580461025238

$$$$
55
                    3D
 Structure written by MMmdl.
153161  0  0  1  0            999 V2000
  -30.6154  -14.7450   20.4450 C   0  0  0  0  0  0
  -30.4295  -12.4486   19.4881 C   0  0  0  0  0  0
  -29.5137  -12.5082   18.2454 C   0  0  0  0  0  0
  -28.0396  -12.3310   18.6555 C   0  0  0  0  0  0
  -27.6422  -13.2338   19.8537 C   0  0  2  0  0  0
  -28.6838  -13.1741   20.9936 C   0  0  0  0  0  0
  -25.2503  -13.8201   20.5700 C   0  0  0  0  0  0
  -24.1795  -13.0442   20.9206 C   0  0  0  0  0  0
  -24.6389  -11.6919   20.8744 C   0  0  0  0  0  0
  -23.9067  -10.4291   21.0405 C   0  0  0  0  0  0
  -24.3620   -9.4207   21.9181 C   0  0  0  0  0  0
  -23.6295   -8.2241   22.0749 C   0  0  0  0  0  0
  -22.4279   -8.0278   21.3542 C   0  0  0  0  0  0
  -21.9911   -9.0252   20.4645 C   0  0  0  0  0  0
  -22.7239  -10.2133   20.3053 C   0  0  0  0  0  0
  -21.6854   -6.0736   22.5279 C   0  0  0  0  0  0
  -21.4018   -6.5640   23.8215 C   0  0  0  0  0  0
  -21.3659   -5.6789   24.9173 C   0  0  0  0  0  0
  -21.6045   -4.3052   24.7223 C   0  0  0  0  0  0
  -21.8816   -3.8146   23.4345 C   0  0  0  0  0  0
  -21.9190   -4.6963   22.3401 C   0  0  0  0  0  0
  -22.7815  -13.5223   21.1860 C   0  0  0  0  0  0
  -22.1658   -4.2150   21.0980 F   0  0  0  0  0  0
  -21.5623   -3.4535   25.7737 F   0  0  0  0  0  0
  -29.9905  -13.5168   20.4182 N   0  0  0  0  0  0
  -26.2933  -12.9413   20.3291 N   0  0  0  0  0  0
  -25.9320  -11.6555   20.5754 N   0  0  0  0  0  0
  -22.0455  -12.8223   22.0422 N   0  0  0  0  0  0
  -25.4196  -15.1928   20.4123 N   0  0  0  0  0  0
  -31.8016  -14.8239   20.1123 O   0  0  0  0  0  0
  -21.6639   -6.8882   21.4243 O   0  0  0  0  0  0
  -22.3498  -14.5522   20.6698 O   0  0  0  0  0  0
  -24.6335  -31.8548   23.1991 C   0  0  0  0  0  0
  -25.9153  -32.4753   23.8338 C   0  0  1  0  0  0
  -27.2149  -27.2546   20.1250 C   0  0  0  0  0  0
  -25.5942  -33.8554   24.2264 N   0  0  0  0  0  0
  -23.4305  -30.4807   21.5415 C   0  0  2  0  0  0
  -24.8767  -28.9321   20.1051 C   0  0  0  0  0  0
  -22.7514  -29.4611   22.4887 C   0  0  0  0  0  0
  -18.0294  -28.1388   22.8471 C   0  0  0  0  0  0
  -24.1489  -36.7291   23.2641 C   0  0  0  0  0  0
  -25.9785  -30.7663   21.3804 C   0  0  0  0  0  0
  -26.0496  -29.3895   20.7198 C   0  0  0  0  0  0
  -27.2213  -28.5635   20.7193 C   0  0  0  0  0  0
  -26.0231  -26.8811   19.4610 C   0  0  0  0  0  0
  -24.8703  -27.6871   19.4622 C   0  0  0  0  0  0
  -23.6486  -29.8200   20.1555 C   0  0  0  0  0  0
  -25.4111  -36.3069   24.0328 C   0  0  1  0  0  0
  -20.5899  -28.3710   23.1244 C   0  0  2  0  0  0
  -20.6778  -26.9422   22.5395 C   0  0  0  0  0  0
  -19.5756  -26.6380   21.5198 C   0  0  0  0  0  0
  -18.1937  -26.7928   22.1614 C   0  0  0  0  0  0
  -19.1546  -28.8864   23.2857 C   0  0  0  0  0  0
  -18.9468  -30.1456   23.8891 C   0  0  0  0  0  0
  -17.6467  -30.6586   24.0559 C   0  0  0  0  0  0
  -25.9052  -34.9438   23.5097 C   0  0  0  0  0  0
  -16.5360  -29.9085   23.6323 C   0  0  0  0  0  0
  -16.7279  -28.6502   23.0348 C   0  0  0  0  0  0
  -26.4509  -31.6580   25.0735 C   0  0  0  0  0  0
  -25.3731  -31.3730   26.1456 C   0  0  0  0  0  0
  -27.0355  -30.2995   24.6229 C   0  0  0  0  0  0
  -27.6061  -32.4321   25.7512 C   0  0  0  0  0  0
  -27.5576  -37.1800   24.8462 C   0  0  0  0  0  0
  -21.4220  -29.3061   22.3634 N   0  0  0  0  0  0
  -26.4287  -37.3767   23.9409 N   0  0  0  0  0  0
  -24.7000  -31.0512   22.0968 N   0  0  0  0  0  0
  -23.4208  -28.8139   23.2981 O   0  0  0  0  0  0
  -28.2907  -26.3332   20.2089 O   0  0  0  0  0  0
  -26.5619  -34.8913   22.4664 O   0  0  0  0  0  0
  -23.5479  -32.1370   23.7277 O   0  0  0  0  0  0
  -30.7489  -17.4156   18.9461 C   0  0  0  0  0  0
  -30.0406  -17.2752   20.1704 C   0  0  0  0  0  0
  -30.4575  -19.7092   18.8996 C   0  0  0  0  0  0
  -29.7004  -19.6921   20.1040 C   0  0  0  0  0  0
  -28.6093  -22.1337   20.0294 C   0  0  0  0  0  0
  -28.0013  -24.8640   20.0080 C   0  0  0  0  0  0
  -28.9356  -23.6432   20.5408 C   0  0  1  0  0  0
  -30.9586  -18.6000   18.3241 N   0  0  0  0  0  0
  -29.5111  -18.4540   20.7263 N   0  0  0  0  0  0
  -30.8200  -20.8990   18.2877 N   0  0  0  0  0  0
  -29.8618  -15.8903   20.6879 N   0  0  0  0  0  0
  -29.2648  -20.9381   20.7129 N   0  0  0  0  0  0
  -28.7688  -23.5790   21.9473 O   0  0  0  0  0  0
  -31.4735  -12.5588   19.1905 H   0  0  0  0  0  0
  -30.3613  -11.4725   19.9719 H   0  0  0  0  0  0
  -29.7982  -11.7367   17.5290 H   0  0  0  0  0  0
  -29.6433  -13.4642   17.7349 H   0  0  0  0  0  0
  -27.8983  -11.2830   18.9222 H   0  0  0  0  0  0
  -27.3825  -12.5173   17.8049 H   0  0  0  0  0  0
  -27.6364  -14.2544   19.4705 H   0  0  0  0  0  0
  -28.7111  -12.1801   21.4426 H   0  0  0  0  0  0
  -28.4158  -13.8625   21.7971 H   0  0  0  0  0  0
  -25.2760   -9.5683   22.4757 H   0  0  0  0  0  0
  -24.0000   -7.4631   22.7468 H   0  0  0  0  0  0
  -21.0839   -8.8773   19.8954 H   0  0  0  0  0  0
  -22.3692  -10.9671   19.6163 H   0  0  0  0  0  0
  -21.2022   -7.6151   23.9722 H   0  0  0  0  0  0
  -21.1483   -6.0519   25.9079 H   0  0  0  0  0  0
  -22.0596   -2.7607   23.2842 H   0  0  0  0  0  0
  -22.4074  -11.9906   22.4846 H   0  0  0  0  0  0
  -21.1069  -13.1245   22.2607 H   0  0  0  0  0  0
  -24.6499  -15.8448   20.5205 H   0  0  0  0  0  0
  -26.2668  -15.6336   20.0772 H   0  0  0  0  0  0
  -26.7230  -32.5398   23.1088 H   0  0  0  0  0  0
  -25.0089  -33.9683   25.0410 H   0  0  0  0  0  0
  -22.7287  -31.3042   21.3970 H   0  0  0  0  0  0
  -23.3745  -35.9629   23.3294 H   0  0  0  0  0  0
  -24.3589  -36.8923   22.2058 H   0  0  0  0  0  0
  -23.7247  -37.6493   23.6669 H   0  0  0  0  0  0
  -26.1187  -31.5268   20.6103 H   0  0  0  0  0  0
  -26.8568  -30.8147   22.0127 H   0  0  0  0  0  0
  -28.1161  -28.9058   21.2200 H   0  0  0  0  0  0
  -25.9451  -25.9377   18.9428 H   0  0  0  0  0  0
  -23.9771  -27.3368   18.9627 H   0  0  0  0  0  0
  -23.7752  -30.5994   19.4030 H   0  0  0  0  0  0
  -22.7663  -29.2557   19.8479 H   0  0  0  0  0  0
  -25.1291  -36.1921   25.0819 H   0  0  0  0  0  0
  -20.9997  -28.3295   24.1362 H   0  0  0  0  0  0
  -20.5657  -26.2329   23.3608 H   0  0  0  0  0  0
  -21.6649  -26.7425   22.1206 H   0  0  0  0  0  0
  -19.6919  -25.6285   21.1242 H   0  0  0  0  0  0
  -19.6694  -27.3175   20.6714 H   0  0  0  0  0  0
  -17.4203  -26.6658   21.4025 H   0  0  0  0  0  0
  -18.0353  -26.0076   22.9019 H   0  0  0  0  0  0
  -19.7944  -30.7263   24.2274 H   0  0  0  0  0  0
  -17.5023  -31.6265   24.5161 H   0  0  0  0  0  0
  -15.5360  -30.2989   23.7645 H   0  0  0  0  0  0
  -15.8679  -28.0817   22.7070 H   0  0  0  0  0  0
  -24.5914  -30.7068   25.7794 H   0  0  0  0  0  0
  -24.8909  -32.2891   26.4872 H   0  0  0  0  0  0
  -25.8049  -30.8923   27.0242 H   0  0  0  0  0  0
  -26.2941  -29.6740   24.1246 H   0  0  0  0  0  0
  -27.4023  -29.7265   25.4757 H   0  0  0  0  0  0
  -27.8826  -30.4268   23.9486 H   0  0  0  0  0  0
  -27.2671  -33.3626   26.2077 H   0  0  0  0  0  0
  -28.3879  -32.6871   25.0347 H   0  0  0  0  0  0
  -28.0721  -31.8454   26.5439 H   0  0  0  0  0  0
  -28.2587  -38.0103   24.7504 H   0  0  0  0  0  0
  -28.1075  -36.2631   24.6285 H   0  0  0  0  0  0
  -27.2296  -37.1451   25.8866 H   0  0  0  0  0  0
  -20.9404  -29.8817   21.6869 H   0  0  0  0  0  0
  -26.0164  -38.2842   24.1404 H   0  0  0  0  0  0
  -31.1470  -16.5620   18.4197 H   0  0  0  0  0  0
  -28.7447  -22.0906   18.9497 H   0  0  0  0  0  0
  -27.5362  -21.9858   20.1591 H   0  0  0  0  0  0
  -27.0059  -24.6542   20.4007 H   0  0  0  0  0  0
  -27.9232  -24.7333   18.9280 H   0  0  0  0  0  0
  -29.9775  -23.8735   20.3131 H   0  0  0  0  0  0
  -30.7244  -21.6856   18.9203 H   0  0  0  0  0  0
  -31.6939  -20.8940   17.7787 H   0  0  0  0  0  0
  -28.9822  -15.7232   21.1496 H   0  0  0  0  0  0
  -28.9631  -20.8469   21.6768 H   0  0  0  0  0  0
  -28.9785  -24.4420   22.2927 H   0  0  0  0  0  0
  1 25  1  0  0  0
  1 30  2  0  0  0
  1 81  1  0  0  0
  2  3  1  0  0  0
  2 25  1  0  0  0
  2 84  1  0  0  0
  2 85  1  0  0  0
  3  4  1  0  0  0
  3 86  1  0  0  0
  3 87  1  0  0  0
  4  5  1  0  0  0
  4 88  1  0  0  0
  4 89  1  0  0  0
  5  6  1  0  0  0
  5 26  1  0  0  0
  5 90  1  0  0  0
  6 25  1  0  0  0
  6 91  1  0  0  0
  6 92  1  0  0  0
  7  8  2  0  0  0
  7 26  1  0  0  0
  7 29  1  0  0  0
  8  9  1  0  0  0
  8 22  1  0  0  0
  9 10  1  0  0  0
  9 27  2  0  0  0
 10 11  2  0  0  0
 10 15  1  0  0  0
 11 12  1  0  0  0
 11 93  1  0  0  0
 12 13  2  0  0  0
 12 94  1  0  0  0
 13 14  1  0  0  0
 13 31  1  0  0  0
 14 15  2  0  0  0
 14 95  1  0  0  0
 15 96  1  0  0  0
 16 17  2  0  0  0
 16 21  1  0  0  0
 16 31  1  0  0  0
 17 18  1  0  0  0
 17 97  1  0  0  0
 18 19  2  0  0  0
 18 98  1  0  0  0
 19 20  1  0  0  0
 19 24  1  0  0  0
 20 21  2  0  0  0
 20 99  1  0  0  0
 21 23  1  0  0  0
 22 28  1  0  0  0
 22 32  2  0  0  0
 26 27  1  0  0  0
 28100  1  0  0  0
 28101  1  0  0  0
 29102  1  0  0  0
 29103  1  0  0  0
 33 34  1  0  0  0
 33 66  1  0  0  0
 33 70  2  0  0  0
 34 36  1  0  0  0
 34 59  1  0  0  0
 34104  1  0  0  0
 35 44  2  0  0  0
 35 45  1  0  0  0
 35 68  1  0  0  0
 36 56  1  0  0  0
 36105  1  0  0  0
 37 39  1  0  0  0
 37 47  1  0  0  0
 37 66  1  0  0  0
 37106  1  0  0  0
 38 43  2  0  0  0
 38 46  1  0  0  0
 38 47  1  0  0  0
 39 64  1  0  0  0
 39 67  2  0  0  0
 40 52  1  0  0  0
 40 53  2  0  0  0
 40 58  1  0  0  0
 41107  1  0  0  0
 41108  1  0  0  0
 41109  1  0  0  0
 41 48  1  0  0  0
 42 43  1  0  0  0
 42 66  1  0  0  0
 42110  1  0  0  0
 42111  1  0  0  0
 43 44  1  0  0  0
 44112  1  0  0  0
 45 46  2  0  0  0
 45113  1  0  0  0
 46114  1  0  0  0
 47115  1  0  0  0
 47116  1  0  0  0
 48 56  1  0  0  0
 48 65  1  0  0  0
 48117  1  0  0  0
 49 50  1  0  0  0
 49 53  1  0  0  0
 49 64  1  0  0  0
 49118  1  0  0  0
 50 51  1  0  0  0
 50119  1  0  0  0
 50120  1  0  0  0
 51 52  1  0  0  0
 51121  1  0  0  0
 51122  1  0  0  0
 52123  1  0  0  0
 52124  1  0  0  0
 53 54  1  0  0  0
 54 55  2  0  0  0
 54125  1  0  0  0
 55 57  1  0  0  0
 55126  1  0  0  0
 56 69  2  0  0  0
 57 58  2  0  0  0
 57127  1  0  0  0
 58128  1  0  0  0
 59 60  1  0  0  0
 59 61  1  0  0  0
 59 62  1  0  0  0
 60129  1  0  0  0
 60130  1  0  0  0
 60131  1  0  0  0
 61132  1  0  0  0
 61133  1  0  0  0
 61134  1  0  0  0
 62135  1  0  0  0
 62136  1  0  0  0
 62137  1  0  0  0
 63 65  1  0  0  0
 63138  1  0  0  0
 63139  1  0  0  0
 63140  1  0  0  0
 64141  1  0  0  0
 65142  1  0  0  0
 68 76  1  0  0  0
 71 72  2  0  0  0
 71 78  1  0  0  0
 71143  1  0  0  0
 72 79  1  0  0  0
 72 81  1  0  0  0
 73 74  1  0  0  0
 73 78  2  0  0  0
 73 80  1  0  0  0
 74 79  2  0  0  0
 74 82  1  0  0  0
 75 77  1  0  0  0
 75 82  1  0  0  0
 75144  1  0  0  0
 75145  1  0  0  0
 76 77  1  0  0  0
 76146  1  0  0  0
 76147  1  0  0  0
 77 83  1  0  0  0
 77148  1  0  0  0
 80149  1  0  0  0
 80150  1  0  0  0
 81151  1  0  0  0
 82152  1  0  0  0
 83153  1  0  0  0
M  ISO  4   1 100  68 101  76 101  81 100
M  END
> <chiral flag>
0

> <version>
0

> <s_m_source_file>
/data/baiqing/PycharmProjects/Reinvent-master-3.2/result/LINK_invent/BTK/process_docking_weight1_custom_product_contain_oxygen_bond_distance_aromatic_linkinvent_7_9_3/rearranged_h_0196.sdf

> <i_m_source_file_index>
56

> <r_mmod_Potential_Energy-OPLS-2005>
51.1076393127441

> <r_mmod_Stretch_Energy-OPLS-2005>
133.357498168945

> <r_mmod_Bend_Energy-OPLS-2005>
173.864028930664

> <r_mmod_Torsional_Energy-OPLS-2005>
267.500518798828

> <r_mmod_Improper_Torsional_Energy-OPLS-2005>
11.4648733139038

> <r_mmod_Van_der_Waal_Energy-OPLS-2005>
156.787994384766

> <r_mmod_Electrostatic_Energy-OPLS-2005>
-531.633056640625

> <r_mmod_Solvation_Energy-OPLS-2005>
-250.480178833008

> <b_mmod_Minimization_Converged-OPLS-2005>
0

> <r_mmod_RMS_Derivative-OPLS-2005>
0.964026868343353

$$$$
56
                    3D
 Structure written by MMmdl.
152160  0  0  1  0            999 V2000
  -30.6712  -14.5388   20.5146 C   0  0  0  0  0  0
  -30.4183  -12.3283   19.4483 C   0  0  0  0  0  0
  -29.4973  -12.4891   18.2200 C   0  0  0  0  0  0
  -28.0188  -12.3417   18.6322 C   0  0  0  0  0  0
  -27.6519  -13.2106   19.8657 C   0  0  2  0  0  0
  -28.6935  -13.0465   20.9963 C   0  0  0  0  0  0
  -25.2549  -13.8183   20.5681 C   0  0  0  0  0  0
  -24.1810  -13.0443   20.9193 C   0  0  0  0  0  0
  -24.6370  -11.6918   20.8738 C   0  0  0  0  0  0
  -23.9044  -10.4293   21.0404 C   0  0  0  0  0  0
  -24.3604   -9.4203   21.9175 C   0  0  0  0  0  0
  -23.6282   -8.2240   22.0744 C   0  0  0  0  0  0
  -22.4262   -8.0271   21.3542 C   0  0  0  0  0  0
  -21.9893   -9.0242   20.4644 C   0  0  0  0  0  0
  -22.7222  -10.2122   20.3050 C   0  0  0  0  0  0
  -21.6847   -6.0720   22.5279 C   0  0  0  0  0  0
  -21.4019   -6.5631   23.8210 C   0  0  0  0  0  0
  -21.3662   -5.6789   24.9177 C   0  0  0  0  0  0
  -21.6041   -4.3048   24.7231 C   0  0  0  0  0  0
  -21.8828   -3.8134   23.4355 C   0  0  0  0  0  0
  -21.9197   -4.6949   22.3408 C   0  0  0  0  0  0
  -22.7835  -13.5230   21.1865 C   0  0  0  0  0  0
  -22.1659   -4.2130   21.0985 F   0  0  0  0  0  0
  -21.5632   -3.4538   25.7750 F   0  0  0  0  0  0
  -30.0156  -13.3482   20.4322 N   0  0  0  0  0  0
  -26.2961  -12.9343   20.3343 N   0  0  0  0  0  0
  -25.9291  -11.6498   20.5768 N   0  0  0  0  0  0
  -22.0490  -12.8198   22.0426 N   0  0  0  0  0  0
  -25.4270  -15.1902   20.4091 N   0  0  0  0  0  0
  -31.8343  -14.6711   20.1241 O   0  0  0  0  0  0
  -21.6639   -6.8858   21.4236 O   0  0  0  0  0  0
  -22.3513  -14.5539   20.6719 O   0  0  0  0  0  0
  -24.6169  -31.8639   23.2060 C   0  0  0  0  0  0
  -25.9053  -32.4789   23.8371 C   0  0  1  0  0  0
  -27.2338  -27.3787   20.1046 C   0  0  0  0  0  0
  -25.5894  -33.8592   24.2301 N   0  0  0  0  0  0
  -23.4083  -30.4867   21.5453 C   0  0  2  0  0  0
  -24.8570  -28.9444   20.1084 C   0  0  0  0  0  0
  -22.7411  -29.4654   22.4943 C   0  0  0  0  0  0
  -18.0277  -28.1382   22.8503 C   0  0  0  0  0  0
  -24.1487  -36.7306   23.2641 C   0  0  0  0  0  0
  -25.9422  -30.8092   21.3710 C   0  0  0  0  0  0
  -26.0172  -29.4407   20.7139 C   0  0  0  0  0  0
  -27.2036  -28.6640   20.7094 C   0  0  0  0  0  0
  -26.0510  -26.9093   19.4882 C   0  0  0  0  0  0
  -24.8731  -27.6829   19.4889 C   0  0  0  0  0  0
  -23.6195  -29.8158   20.1599 C   0  0  0  0  0  0
  -25.4110  -36.3098   24.0332 C   0  0  1  0  0  0
  -20.5865  -28.3699   23.1296 C   0  0  2  0  0  0
  -20.6769  -26.9416   22.5458 C   0  0  0  0  0  0
  -19.5745  -26.6353   21.5279 C   0  0  0  0  0  0
  -18.1919  -26.7913   22.1673 C   0  0  0  0  0  0
  -19.1525  -28.8868   23.2881 C   0  0  0  0  0  0
  -18.9443  -30.1474   23.8882 C   0  0  0  0  0  0
  -17.6438  -30.6600   24.0547 C   0  0  0  0  0  0
  -25.9043  -34.9461   23.5119 C   0  0  0  0  0  0
  -16.5336  -29.9088   23.6332 C   0  0  0  0  0  0
  -16.7266  -28.6494   23.0369 C   0  0  0  0  0  0
  -26.4471  -31.6597   25.0723 C   0  0  0  0  0  0
  -25.3720  -31.3718   26.1460 C   0  0  0  0  0  0
  -27.0313  -30.3026   24.6163 C   0  0  0  0  0  0
  -27.6041  -32.4327   25.7474 C   0  0  0  0  0  0
  -27.5580  -37.1810   24.8463 C   0  0  0  0  0  0
  -21.4134  -29.3045   22.3670 N   0  0  0  0  0  0
  -26.4299  -37.3781   23.9396 N   0  0  0  0  0  0
  -24.6733  -31.0696   22.0980 N   0  0  0  0  0  0
  -23.4162  -28.8217   23.3019 O   0  0  0  0  0  0
  -28.4027  -26.6281   20.1659 O   0  0  0  0  0  0
  -26.5611  -34.8915   22.4686 O   0  0  0  0  0  0
  -23.5347  -32.1422   23.7427 O   0  0  0  0  0  0
  -28.3063  -18.2211   21.5655 C   0  0  0  0  0  0
  -29.4662  -18.1899   20.8284 C   0  0  0  0  0  0
  -28.9551  -20.4533   20.7042 C   0  0  0  0  0  0
  -30.4024  -17.0112   20.5533 C   0  0  0  0  0  0
  -28.7286  -23.0848   21.0438 C   0  0  0  0  0  0
  -28.5191  -25.3266   19.5277 C   0  0  0  0  0  0
  -27.8391  -24.0810   20.2139 C   0  0  1  0  0  0
  -29.7918  -19.4739   20.3234 N   0  0  0  0  0  0
  -29.1098  -21.8133   20.3708 N   0  0  0  0  0  0
  -29.9286  -15.6302   20.8206 N   0  0  0  0  0  0
  -27.2618  -23.2406   19.2380 O   0  0  0  0  0  0
  -27.6474  -19.8424   21.7122 S   0  0  0  0  0  0
  -31.4653  -12.4165   19.1526 H   0  0  0  0  0  0
  -30.3118  -11.3317   19.8808 H   0  0  0  0  0  0
  -29.7486  -11.7495   17.4589 H   0  0  0  0  0  0
  -29.6586  -13.4666   17.7619 H   0  0  0  0  0  0
  -27.8461  -11.2887   18.8591 H   0  0  0  0  0  0
  -27.3655  -12.5790   17.7915 H   0  0  0  0  0  0
  -27.6792  -14.2476   19.5321 H   0  0  0  0  0  0
  -28.6803  -12.0270   21.3857 H   0  0  0  0  0  0
  -28.4592  -13.6940   21.8424 H   0  0  0  0  0  0
  -25.2752   -9.5684   22.4738 H   0  0  0  0  0  0
  -23.9993   -7.4639   22.7459 H   0  0  0  0  0  0
  -21.0827   -8.8760   19.8954 H   0  0  0  0  0  0
  -22.3677  -10.9652   19.6157 H   0  0  0  0  0  0
  -21.2009   -7.6138   23.9712 H   0  0  0  0  0  0
  -21.1476   -6.0517   25.9082 H   0  0  0  0  0  0
  -22.0604   -2.7591   23.2872 H   0  0  0  0  0  0
  -22.4101  -11.9845   22.4779 H   0  0  0  0  0  0
  -21.1120  -13.1224   22.2677 H   0  0  0  0  0  0
  -24.6553  -15.8418   20.4992 H   0  0  0  0  0  0
  -26.2719  -15.6261   20.0627 H   0  0  0  0  0  0
  -26.7108  -32.5490   23.1116 H   0  0  0  0  0  0
  -25.0023  -33.9753   25.0432 H   0  0  0  0  0  0
  -22.7008  -31.3065   21.4030 H   0  0  0  0  0  0
  -23.3748  -35.9643   23.3315 H   0  0  0  0  0  0
  -24.3585  -36.8919   22.2057 H   0  0  0  0  0  0
  -23.7251  -37.6516   23.6653 H   0  0  0  0  0  0
  -26.0705  -31.5763   20.6061 H   0  0  0  0  0  0
  -26.8241  -30.8557   21.9985 H   0  0  0  0  0  0
  -28.0979  -29.0384   21.1880 H   0  0  0  0  0  0
  -26.0136  -25.9400   19.0139 H   0  0  0  0  0  0
  -23.9819  -27.2996   19.0122 H   0  0  0  0  0  0
  -23.7221  -30.5885   19.3971 H   0  0  0  0  0  0
  -22.7430  -29.2330   19.8690 H   0  0  0  0  0  0
  -25.1298  -36.1970   25.0827 H   0  0  0  0  0  0
  -20.9970  -28.3304   24.1421 H   0  0  0  0  0  0
  -20.5696  -26.2333   23.3688 H   0  0  0  0  0  0
  -21.6631  -26.7441   22.1243 H   0  0  0  0  0  0
  -19.6913  -25.6245   21.1358 H   0  0  0  0  0  0
  -19.6698  -27.3138   20.6778 H   0  0  0  0  0  0
  -17.4184  -26.6601   21.4083 H   0  0  0  0  0  0
  -18.0337  -26.0090   22.9114 H   0  0  0  0  0  0
  -19.7918  -30.7319   24.2208 H   0  0  0  0  0  0
  -17.4971  -31.6298   24.5108 H   0  0  0  0  0  0
  -15.5323  -30.2969   23.7629 H   0  0  0  0  0  0
  -15.8673  -28.0792   22.7101 H   0  0  0  0  0  0
  -24.5895  -30.7071   25.7784 H   0  0  0  0  0  0
  -24.8905  -32.2870   26.4900 H   0  0  0  0  0  0
  -25.8052  -30.8882   27.0225 H   0  0  0  0  0  0
  -26.2874  -29.6763   24.1224 H   0  0  0  0  0  0
  -27.4058  -29.7298   25.4663 H   0  0  0  0  0  0
  -27.8718  -30.4313   23.9340 H   0  0  0  0  0  0
  -27.2662  -33.3616   26.2071 H   0  0  0  0  0  0
  -28.3821  -32.6913   25.0283 H   0  0  0  0  0  0
  -28.0740  -31.8454   26.5374 H   0  0  0  0  0  0
  -28.2611  -38.0095   24.7504 H   0  0  0  0  0  0
  -28.1068  -36.2634   24.6302 H   0  0  0  0  0  0
  -27.2296  -37.1469   25.8866 H   0  0  0  0  0  0
  -20.9301  -29.8734   21.6859 H   0  0  0  0  0  0
  -26.0195  -38.2864   24.1389 H   0  0  0  0  0  0
  -27.8097  -17.4000   22.0657 H   0  0  0  0  0  0
  -31.3212  -17.1621   21.1224 H   0  0  0  0  0  0
  -30.7072  -17.0477   19.5052 H   0  0  0  0  0  0
  -28.1819  -22.8167   21.9499 H   0  0  0  0  0  0
  -29.6274  -23.5931   21.3966 H   0  0  0  0  0  0
  -28.1680  -25.4342   18.5011 H   0  0  0  0  0  0
  -29.5831  -25.1135   19.4166 H   0  0  0  0  0  0
  -27.0337  -24.4505   20.8515 H   0  0  0  0  0  0
  -29.9292  -21.9398   19.7832 H   0  0  0  0  0  0
  -28.9662  -15.4983   21.0898 H   0  0  0  0  0  0
  -27.8104  -22.4533   19.3038 H   0  0  0  0  0  0
  1 25  1  0  0  0
  1 30  2  0  0  0
  1 80  1  0  0  0
  2  3  1  0  0  0
  2 25  1  0  0  0
  2 83  1  0  0  0
  2 84  1  0  0  0
  3  4  1  0  0  0
  3 85  1  0  0  0
  3 86  1  0  0  0
  4  5  1  0  0  0
  4 87  1  0  0  0
  4 88  1  0  0  0
  5  6  1  0  0  0
  5 26  1  0  0  0
  5 89  1  0  0  0
  6 25  1  0  0  0
  6 90  1  0  0  0
  6 91  1  0  0  0
  7  8  2  0  0  0
  7 26  1  0  0  0
  7 29  1  0  0  0
  8  9  1  0  0  0
  8 22  1  0  0  0
  9 10  1  0  0  0
  9 27  2  0  0  0
 10 11  2  0  0  0
 10 15  1  0  0  0
 11 12  1  0  0  0
 11 92  1  0  0  0
 12 13  2  0  0  0
 12 93  1  0  0  0
 13 14  1  0  0  0
 13 31  1  0  0  0
 14 15  2  0  0  0
 14 94  1  0  0  0
 15 95  1  0  0  0
 16 17  2  0  0  0
 16 21  1  0  0  0
 16 31  1  0  0  0
 17 18  1  0  0  0
 17 96  1  0  0  0
 18 19  2  0  0  0
 18 97  1  0  0  0
 19 20  1  0  0  0
 19 24  1  0  0  0
 20 21  2  0  0  0
 20 98  1  0  0  0
 21 23  1  0  0  0
 22 28  1  0  0  0
 22 32  2  0  0  0
 26 27  1  0  0  0
 28 99  1  0  0  0
 28100  1  0  0  0
 29101  1  0  0  0
 29102  1  0  0  0
 33 34  1  0  0  0
 33 66  1  0  0  0
 33 70  2  0  0  0
 34 36  1  0  0  0
 34 59  1  0  0  0
 34103  1  0  0  0
 35 44  2  0  0  0
 35 45  1  0  0  0
 35 68  1  0  0  0
 36 56  1  0  0  0
 36104  1  0  0  0
 37 39  1  0  0  0
 37 47  1  0  0  0
 37 66  1  0  0  0
 37105  1  0  0  0
 38 43  2  0  0  0
 38 46  1  0  0  0
 38 47  1  0  0  0
 39 64  1  0  0  0
 39 67  2  0  0  0
 40 52  1  0  0  0
 40 53  2  0  0  0
 40 58  1  0  0  0
 41106  1  0  0  0
 41107  1  0  0  0
 41108  1  0  0  0
 41 48  1  0  0  0
 42 43  1  0  0  0
 42 66  1  0  0  0
 42109  1  0  0  0
 42110  1  0  0  0
 43 44  1  0  0  0
 44111  1  0  0  0
 45 46  2  0  0  0
 45112  1  0  0  0
 46113  1  0  0  0
 47114  1  0  0  0
 47115  1  0  0  0
 48 56  1  0  0  0
 48 65  1  0  0  0
 48116  1  0  0  0
 49 50  1  0  0  0
 49 53  1  0  0  0
 49 64  1  0  0  0
 49117  1  0  0  0
 50 51  1  0  0  0
 50118  1  0  0  0
 50119  1  0  0  0
 51 52  1  0  0  0
 51120  1  0  0  0
 51121  1  0  0  0
 52122  1  0  0  0
 52123  1  0  0  0
 53 54  1  0  0  0
 54 55  2  0  0  0
 54124  1  0  0  0
 55 57  1  0  0  0
 55125  1  0  0  0
 56 69  2  0  0  0
 57 58  2  0  0  0
 57126  1  0  0  0
 58127  1  0  0  0
 59 60  1  0  0  0
 59 61  1  0  0  0
 59 62  1  0  0  0
 60128  1  0  0  0
 60129  1  0  0  0
 60130  1  0  0  0
 61131  1  0  0  0
 61132  1  0  0  0
 61133  1  0  0  0
 62134  1  0  0  0
 62135  1  0  0  0
 62136  1  0  0  0
 63 65  1  0  0  0
 63137  1  0  0  0
 63138  1  0  0  0
 63139  1  0  0  0
 64140  1  0  0  0
 65141  1  0  0  0
 68 76  1  0  0  0
 71 72  2  0  0  0
 71 82  1  0  0  0
 71142  1  0  0  0
 72 74  1  0  0  0
 72 78  1  0  0  0
 73 78  2  0  0  0
 73 79  1  0  0  0
 73 82  1  0  0  0
 74 80  1  0  0  0
 74143  1  0  0  0
 74144  1  0  0  0
 75 77  1  0  0  0
 75 79  1  0  0  0
 75145  1  0  0  0
 75146  1  0  0  0
 76 77  1  0  0  0
 76147  1  0  0  0
 76148  1  0  0  0
 77 81  1  0  0  0
 77149  1  0  0  0
 79150  1  0  0  0
 80151  1  0  0  0
 81152  1  0  0  0
M  ISO  4   1 100  68 101  76 101  80 100
M  END
> <chiral flag>
0

> <version>
0

> <s_m_source_file>
/data/baiqing/PycharmProjects/Reinvent-master-3.2/result/LINK_invent/BTK/process_docking_weight1_custom_product_contain_oxygen_bond_distance_aromatic_linkinvent_7_9_3/rearranged_h_0196.sdf

> <i_m_source_file_index>
57

> <r_mmod_Potential_Energy-OPLS-2005>
-256.595001220703

> <r_mmod_Stretch_Energy-OPLS-2005>
48.977783203125

> <r_mmod_Bend_Energy-OPLS-2005>
123.672454833984

> <r_mmod_Torsional_Energy-OPLS-2005>
239.216522216797

> <r_mmod_Improper_Torsional_Energy-OPLS-2005>
7.51880645751953

> <r_mmod_Van_der_Waal_Energy-OPLS-2005>
133.392349243164

> <r_mmod_Electrostatic_Energy-OPLS-2005>
-595.460571289062

> <r_mmod_Solvation_Energy-OPLS-2005>
-239.425247192383

> <b_mmod_Minimization_Converged-OPLS-2005>
0

> <r_mmod_RMS_Derivative-OPLS-2005>
2.39066386222839

$$$$
57
                    3D
 Structure written by MMmdl.
161169  0  0  1  0            999 V2000
  -30.7662  -14.4925   20.6560 C   0  0  0  0  0  0
  -30.4061  -12.3447   19.4630 C   0  0  0  0  0  0
  -29.5062  -12.5461   18.2278 C   0  0  0  0  0  0
  -28.0269  -12.3738   18.6181 C   0  0  0  0  0  0
  -27.6552  -13.2161   19.8639 C   0  0  2  0  0  0
  -28.6784  -13.0326   21.0004 C   0  0  0  0  0  0
  -25.2566  -13.8169   20.5670 C   0  0  0  0  0  0
  -24.1828  -13.0448   20.9152 C   0  0  0  0  0  0
  -24.6399  -11.6911   20.8702 C   0  0  0  0  0  0
  -23.9079  -10.4303   21.0409 C   0  0  0  0  0  0
  -24.3650   -9.4214   21.9181 C   0  0  0  0  0  0
  -23.6324   -8.2235   22.0748 C   0  0  0  0  0  0
  -22.4309   -8.0279   21.3541 C   0  0  0  0  0  0
  -21.9942   -9.0243   20.4638 C   0  0  0  0  0  0
  -22.7254  -10.2126   20.3039 C   0  0  0  0  0  0
  -21.6858   -6.0782   22.5298 C   0  0  0  0  0  0
  -21.3993   -6.5669   23.8243 C   0  0  0  0  0  0
  -21.3637   -5.6802   24.9192 C   0  0  0  0  0  0
  -21.6044   -4.3075   24.7224 C   0  0  0  0  0  0
  -21.8806   -3.8180   23.4339 C   0  0  0  0  0  0
  -21.9189   -4.7008   22.3407 C   0  0  0  0  0  0
  -22.7852  -13.5243   21.1850 C   0  0  0  0  0  0
  -22.1668   -4.2213   21.0987 F   0  0  0  0  0  0
  -21.5633   -3.4549   25.7730 F   0  0  0  0  0  0
  -30.0252  -13.3462   20.4854 N   0  0  0  0  0  0
  -26.2979  -12.9345   20.3240 N   0  0  0  0  0  0
  -25.9324  -11.6512   20.5685 N   0  0  0  0  0  0
  -22.0501  -12.8228   22.0415 N   0  0  0  0  0  0
  -25.4282  -15.1885   20.4127 N   0  0  0  0  0  0
  -31.8132  -14.6347   20.0125 O   0  0  0  0  0  0
  -21.6649   -6.8902   21.4253 O   0  0  0  0  0  0
  -22.3556  -14.5572   20.6750 O   0  0  0  0  0  0
  -24.6272  -31.8659   23.2145 C   0  0  0  0  0  0
  -25.9150  -32.4775   23.8444 C   0  0  1  0  0  0
  -27.2055  -27.3613   20.0879 C   0  0  0  0  0  0
  -25.6022  -33.8579   24.2387 N   0  0  0  0  0  0
  -23.4144  -30.5033   21.5506 C   0  0  2  0  0  0
  -24.8540  -28.9732   20.1050 C   0  0  0  0  0  0
  -22.7455  -29.4707   22.4909 C   0  0  0  0  0  0
  -18.0297  -28.1382   22.8471 C   0  0  0  0  0  0
  -24.1488  -36.7267   23.2632 C   0  0  0  0  0  0
  -25.9588  -30.8013   21.3905 C   0  0  0  0  0  0
  -26.0244  -29.4405   20.7179 C   0  0  0  0  0  0
  -27.2036  -28.6424   20.7092 C   0  0  0  0  0  0
  -26.0161  -26.9566   19.4338 C   0  0  0  0  0  0
  -24.8488  -27.7320   19.4591 C   0  0  0  0  0  0
  -23.6297  -29.8579   20.1581 C   0  0  0  0  0  0
  -25.4101  -36.3068   24.0346 C   0  0  1  0  0  0
  -20.5895  -28.3706   23.1233 C   0  0  2  0  0  0
  -20.6784  -26.9430   22.5372 C   0  0  0  0  0  0
  -19.5759  -26.6385   21.5177 C   0  0  0  0  0  0
  -18.1933  -26.7938   22.1581 C   0  0  0  0  0  0
  -19.1546  -28.8850   23.2865 C   0  0  0  0  0  0
  -18.9473  -30.1436   23.8906 C   0  0  0  0  0  0
  -17.6476  -30.6566   24.0574 C   0  0  0  0  0  0
  -25.9049  -34.9441   23.5146 C   0  0  0  0  0  0
  -16.5368  -29.9064   23.6345 C   0  0  0  0  0  0
  -16.7285  -28.6489   23.0355 C   0  0  0  0  0  0
  -26.4561  -31.6546   25.0780 C   0  0  0  0  0  0
  -25.3834  -31.3625   26.1519 C   0  0  0  0  0  0
  -27.0431  -30.2980   24.6230 C   0  0  0  0  0  0
  -27.6117  -32.4283   25.7549 C   0  0  0  0  0  0
  -27.5594  -37.1778   24.8460 C   0  0  0  0  0  0
  -21.4181  -29.3081   22.3630 N   0  0  0  0  0  0
  -26.4272  -37.3775   23.9442 N   0  0  0  0  0  0
  -24.6835  -31.0728   22.1059 N   0  0  0  0  0  0
  -23.4202  -28.8237   23.2951 O   0  0  0  0  0  0
  -28.3050  -26.4992   20.1444 O   0  0  0  0  0  0
  -26.5550  -34.8903   22.4673 O   0  0  0  0  0  0
  -23.5450  -32.1450   23.7516 O   0  0  0  0  0  0
  -31.5407  -19.4092   21.1689 C   0  0  0  0  0  0
  -32.3592  -18.3963   21.6728 C   0  0  0  0  0  0
  -30.2499  -19.0493   20.7592 C   0  0  0  0  0  0
  -30.7202  -16.8250   21.2925 C   0  0  0  0  0  0
  -29.9844  -15.1797   22.8846 C   0  0  0  0  0  0
  -28.5705  -21.0821   22.3111 C   0  0  0  0  0  0
  -29.3045  -20.1236   20.1638 C   0  0  0  0  0  0
  -28.4287  -22.5082   20.2775 C   0  0  0  0  0  0
  -27.9856  -25.0714   19.9927 C   0  0  0  0  0  0
  -28.9782  -23.9748   20.5173 C   0  0  1  0  0  0
  -31.9349  -17.1260   21.7502 N   0  0  0  0  0  0
  -29.8447  -17.7451   20.8404 N   0  0  0  0  0  0
  -30.3135  -15.4971   21.4809 N   0  0  0  0  0  0
  -29.1553  -21.3827   20.9764 N   0  3  1  0  0  0
  -29.1340  -24.2019   21.9067 O   0  0  0  0  0  0
  -31.4599  -12.3967   19.1819 H   0  0  0  0  0  0
  -30.2710  -11.3373   19.8599 H   0  0  0  0  0  0
  -29.7733  -11.8404   17.4406 H   0  0  0  0  0  0
  -29.6650  -13.5431   17.8119 H   0  0  0  0  0  0
  -27.8586  -11.3154   18.8192 H   0  0  0  0  0  0
  -27.3805  -12.6327   17.7796 H   0  0  0  0  0  0
  -27.6893  -14.2618   19.5559 H   0  0  0  0  0  0
  -28.6596  -12.0088   21.3756 H   0  0  0  0  0  0
  -28.3567  -13.6455   21.8320 H   0  0  0  0  0  0
  -25.2801   -9.5718   22.4759 H   0  0  0  0  0  0
  -24.0049   -7.4648   22.7480 H   0  0  0  0  0  0
  -21.0869   -8.8756   19.8959 H   0  0  0  0  0  0
  -22.3720  -10.9668   19.6152 H   0  0  0  0  0  0
  -21.1973   -7.6171   23.9767 H   0  0  0  0  0  0
  -21.1469   -6.0538   25.9111 H   0  0  0  0  0  0
  -22.0602   -2.7649   23.2828 H   0  0  0  0  0  0
  -22.4128  -11.9870   22.4774 H   0  0  0  0  0  0
  -21.1133  -13.1249   22.2646 H   0  0  0  0  0  0
  -24.6630  -15.8413   20.5322 H   0  0  0  0  0  0
  -26.2938  -15.6361   20.1356 H   0  0  0  0  0  0
  -26.7232  -32.5468   23.1210 H   0  0  0  0  0  0
  -25.0343  -33.9729   25.0655 H   0  0  0  0  0  0
  -22.7075  -31.3265   21.4189 H   0  0  0  0  0  0
  -23.3784  -35.9559   23.3210 H   0  0  0  0  0  0
  -24.3641  -36.8969   22.2069 H   0  0  0  0  0  0
  -23.7175  -37.6418   23.6705 H   0  0  0  0  0  0
  -26.1099  -31.5777   20.6394 H   0  0  0  0  0  0
  -26.8303  -30.8229   22.0337 H   0  0  0  0  0  0
  -28.0982  -28.9867   21.2111 H   0  0  0  0  0  0
  -25.9492  -26.0257   18.8932 H   0  0  0  0  0  0
  -23.9562  -27.3693   18.9666 H   0  0  0  0  0  0
  -23.7724  -30.6509   19.4236 H   0  0  0  0  0  0
  -22.7429  -29.3122   19.8312 H   0  0  0  0  0  0
  -25.1272  -36.1899   25.0833 H   0  0  0  0  0  0
  -20.9994  -28.3276   24.1348 H   0  0  0  0  0  0
  -20.5644  -26.2340   23.3584 H   0  0  0  0  0  0
  -21.6654  -26.7429   22.1175 H   0  0  0  0  0  0
  -19.6908  -25.6279   21.1232 H   0  0  0  0  0  0
  -19.6680  -27.3190   20.6696 H   0  0  0  0  0  0
  -17.4204  -26.6698   21.3977 H   0  0  0  0  0  0
  -18.0323  -26.0050   22.8946 H   0  0  0  0  0  0
  -19.7945  -30.7248   24.2278 H   0  0  0  0  0  0
  -17.5028  -31.6248   24.5160 H   0  0  0  0  0  0
  -15.5379  -30.2971   23.7644 H   0  0  0  0  0  0
  -15.8684  -28.0802   22.7072 H   0  0  0  0  0  0
  -24.6068  -30.6893   25.7875 H   0  0  0  0  0  0
  -24.8979  -32.2753   26.4969 H   0  0  0  0  0  0
  -25.8224  -30.8827   27.0276 H   0  0  0  0  0  0
  -26.3010  -29.6658   24.1340 H   0  0  0  0  0  0
  -27.4234  -29.7278   25.4717 H   0  0  0  0  0  0
  -27.8839  -30.4268   23.9412 H   0  0  0  0  0  0
  -27.2718  -33.3571   26.2137 H   0  0  0  0  0  0
  -28.3930  -32.6839   25.0378 H   0  0  0  0  0  0
  -28.0789  -31.8408   26.5466 H   0  0  0  0  0  0
  -28.2511  -38.0172   24.7647 H   0  0  0  0  0  0
  -28.1201  -36.2727   24.6100 H   0  0  0  0  0  0
  -27.2366  -37.1170   25.8869 H   0  0  0  0  0  0
  -20.9347  -29.8879   21.6921 H   0  0  0  0  0  0
  -26.0143  -38.2828   24.1523 H   0  0  0  0  0  0
  -31.9270  -20.4175   21.1040 H   0  0  0  0  0  0
  -33.3633  -18.5957   22.0142 H   0  0  0  0  0  0
  -28.9305  -15.3687   23.0867 H   0  0  0  0  0  0
  -30.5438  -15.8061   23.5804 H   0  0  0  0  0  0
  -30.2180  -14.1496   23.1556 H   0  0  0  0  0  0
  -29.2307  -20.4444   22.8986 H   0  0  0  0  0  0
  -27.6129  -20.5653   22.2132 H   0  0  0  0  0  0
  -28.3961  -21.9822   22.8972 H   0  0  0  0  0  0
  -28.3241  -19.6809   19.9826 H   0  0  0  0  0  0
  -29.7084  -20.3788   19.1832 H   0  0  0  0  0  0
  -28.4329  -22.3322   19.2010 H   0  0  0  0  0  0
  -27.3728  -22.4634   20.5509 H   0  0  0  0  0  0
  -27.0302  -24.8604   20.4780 H   0  0  0  0  0  0
  -27.8429  -24.8863   18.9264 H   0  0  0  0  0  0
  -29.9450  -24.0909   20.0274 H   0  0  0  0  0  0
  -30.0900  -21.7209   21.1404 H   0  0  0  0  0  0
  -29.3893  -25.1171   22.0040 H   0  0  0  0  0  0
  1 25  1  0  0  0
  1 30  2  0  0  0
  1 83  1  0  0  0
  2  3  1  0  0  0
  2 25  1  0  0  0
  2 86  1  0  0  0
  2 87  1  0  0  0
  3  4  1  0  0  0
  3 88  1  0  0  0
  3 89  1  0  0  0
  4  5  1  0  0  0
  4 90  1  0  0  0
  4 91  1  0  0  0
  5  6  1  0  0  0
  5 26  1  0  0  0
  5 92  1  0  0  0
  6 25  1  0  0  0
  6 93  1  0  0  0
  6 94  1  0  0  0
  7  8  2  0  0  0
  7 26  1  0  0  0
  7 29  1  0  0  0
  8  9  1  0  0  0
  8 22  1  0  0  0
  9 10  1  0  0  0
  9 27  2  0  0  0
 10 11  2  0  0  0
 10 15  1  0  0  0
 11 12  1  0  0  0
 11 95  1  0  0  0
 12 13  2  0  0  0
 12 96  1  0  0  0
 13 14  1  0  0  0
 13 31  1  0  0  0
 14 15  2  0  0  0
 14 97  1  0  0  0
 15 98  1  0  0  0
 16 17  2  0  0  0
 16 21  1  0  0  0
 16 31  1  0  0  0
 17 18  1  0  0  0
 17 99  1  0  0  0
 18 19  2  0  0  0
 18100  1  0  0  0
 19 20  1  0  0  0
 19 24  1  0  0  0
 20 21  2  0  0  0
 20101  1  0  0  0
 21 23  1  0  0  0
 22 28  1  0  0  0
 22 32  2  0  0  0
 26 27  1  0  0  0
 28102  1  0  0  0
 28103  1  0  0  0
 29104  1  0  0  0
 29105  1  0  0  0
 33 34  1  0  0  0
 33 66  1  0  0  0
 33 70  2  0  0  0
 34 36  1  0  0  0
 34 59  1  0  0  0
 34106  1  0  0  0
 35 44  2  0  0  0
 35 45  1  0  0  0
 35 68  1  0  0  0
 36 56  1  0  0  0
 36107  1  0  0  0
 37 39  1  0  0  0
 37 47  1  0  0  0
 37 66  1  0  0  0
 37108  1  0  0  0
 38 43  2  0  0  0
 38 46  1  0  0  0
 38 47  1  0  0  0
 39 64  1  0  0  0
 39 67  2  0  0  0
 40 52  1  0  0  0
 40 53  2  0  0  0
 40 58  1  0  0  0
 41109  1  0  0  0
 41110  1  0  0  0
 41111  1  0  0  0
 41 48  1  0  0  0
 42 43  1  0  0  0
 42 66  1  0  0  0
 42112  1  0  0  0
 42113  1  0  0  0
 43 44  1  0  0  0
 44114  1  0  0  0
 45 46  2  0  0  0
 45115  1  0  0  0
 46116  1  0  0  0
 47117  1  0  0  0
 47118  1  0  0  0
 48 56  1  0  0  0
 48 65  1  0  0  0
 48119  1  0  0  0
 49 50  1  0  0  0
 49 53  1  0  0  0
 49 64  1  0  0  0
 49120  1  0  0  0
 50 51  1  0  0  0
 50121  1  0  0  0
 50122  1  0  0  0
 51 52  1  0  0  0
 51123  1  0  0  0
 51124  1  0  0  0
 52125  1  0  0  0
 52126  1  0  0  0
 53 54  1  0  0  0
 54 55  2  0  0  0
 54127  1  0  0  0
 55 57  1  0  0  0
 55128  1  0  0  0
 56 69  2  0  0  0
 57 58  2  0  0  0
 57129  1  0  0  0
 58130  1  0  0  0
 59 60  1  0  0  0
 59 61  1  0  0  0
 59 62  1  0  0  0
 60131  1  0  0  0
 60132  1  0  0  0
 60133  1  0  0  0
 61134  1  0  0  0
 61135  1  0  0  0
 61136  1  0  0  0
 62137  1  0  0  0
 62138  1  0  0  0
 62139  1  0  0  0
 63 65  1  0  0  0
 63140  1  0  0  0
 63141  1  0  0  0
 63142  1  0  0  0
 64143  1  0  0  0
 65144  1  0  0  0
 68 79  1  0  0  0
 71 72  2  0  0  0
 71 73  1  0  0  0
 71145  1  0  0  0
 72 81  1  0  0  0
 72146  1  0  0  0
 73 77  1  0  0  0
 73 82  2  0  0  0
 74 81  2  0  0  0
 74 82  1  0  0  0
 74 83  1  0  0  0
 75 83  1  0  0  0
 75147  1  0  0  0
 75148  1  0  0  0
 75149  1  0  0  0
 76150  1  0  0  0
 76151  1  0  0  0
 76152  1  0  0  0
 76 84  1  0  0  0
 77 84  1  0  0  0
 77153  1  0  0  0
 77154  1  0  0  0
 78 80  1  0  0  0
 78 84  1  0  0  0
 78155  1  0  0  0
 78156  1  0  0  0
 79 80  1  0  0  0
 79157  1  0  0  0
 79158  1  0  0  0
 80 85  1  0  0  0
 80159  1  0  0  0
 84160  1  0  0  0
 85161  1  0  0  0
M  CHG  1  84   1
M  ISO  4   1 100  68 101  79 101  83 100
M  END
> <chiral flag>
0

> <version>
0

> <s_m_source_file>
/data/baiqing/PycharmProjects/Reinvent-master-3.2/result/LINK_invent/BTK/process_docking_weight1_custom_product_contain_oxygen_bond_distance_aromatic_linkinvent_7_9_3/rearranged_h_0196.sdf

> <i_m_source_file_index>
58

> <r_mmod_Potential_Energy-OPLS-2005>
-463.321716308594

> <r_mmod_Stretch_Energy-OPLS-2005>
63.9731101989746

> <r_mmod_Bend_Energy-OPLS-2005>
132.124816894531

> <r_mmod_Torsional_Energy-OPLS-2005>
298.602966308594

> <r_mmod_Improper_Torsional_Energy-OPLS-2005>
4.8220591545105

> <r_mmod_Van_der_Waal_Energy-OPLS-2005>
179.607269287109

> <r_mmod_Electrostatic_Energy-OPLS-2005>
-701.609985351562

> <r_mmod_Solvation_Energy-OPLS-2005>
-469.611999511719

> <b_mmod_Minimization_Converged-OPLS-2005>
0

> <r_mmod_RMS_Derivative-OPLS-2005>
4.14664125442505

$$$$
58
                    3D
 Structure written by MMmdl.
169177  0  0  1  0            999 V2000
  -30.6842  -14.4819   20.4515 C   0  0  0  0  0  0
  -30.4149  -12.2943   19.4192 C   0  0  0  0  0  0
  -29.4913  -12.5006   18.1990 C   0  0  0  0  0  0
  -28.0120  -12.3429   18.6064 C   0  0  0  0  0  0
  -27.6483  -13.2019   19.8474 C   0  0  2  0  0  0
  -28.6920  -13.0408   20.9770 C   0  0  0  0  0  0
  -25.2569  -13.8153   20.5661 C   0  0  0  0  0  0
  -24.1826  -13.0439   20.9194 C   0  0  0  0  0  0
  -24.6327  -11.6897   20.8673 C   0  0  0  0  0  0
  -23.8984  -10.4303   21.0367 C   0  0  0  0  0  0
  -24.3559   -9.4243   21.9160 C   0  0  0  0  0  0
  -23.6265   -8.2265   22.0745 C   0  0  0  0  0  0
  -22.4267   -8.0270   21.3507 C   0  0  0  0  0  0
  -21.9844   -9.0231   20.4629 C   0  0  0  0  0  0
  -22.7152  -10.2129   20.3024 C   0  0  0  0  0  0
  -21.6864   -6.0718   22.5278 C   0  0  0  0  0  0
  -21.4010   -6.5623   23.8217 C   0  0  0  0  0  0
  -21.3666   -5.6778   24.9164 C   0  0  0  0  0  0
  -21.6058   -4.3061   24.7206 C   0  0  0  0  0  0
  -21.8848   -3.8131   23.4330 C   0  0  0  0  0  0
  -21.9216   -4.6935   22.3391 C   0  0  0  0  0  0
  -22.7857  -13.5254   21.1846 C   0  0  0  0  0  0
  -22.1703   -4.2146   21.0970 F   0  0  0  0  0  0
  -21.5632   -3.4553   25.7712 F   0  0  0  0  0  0
  -30.0270  -13.2971   20.4186 N   0  0  0  0  0  0
  -26.2962  -12.9286   20.3211 N   0  0  0  0  0  0
  -25.9243  -11.6456   20.5613 N   0  0  0  0  0  0
  -22.0447  -12.8281   22.0394 N   0  0  0  0  0  0
  -25.4265  -15.1883   20.4062 N   0  0  0  0  0  0
  -31.8958  -14.5762   20.2412 O   0  0  0  0  0  0
  -21.6649   -6.8850   21.4250 O   0  0  0  0  0  0
  -22.3587  -14.5581   20.6726 O   0  0  0  0  0  0
  -24.6154  -31.8670   23.2066 C   0  0  0  0  0  0
  -25.9045  -32.4813   23.8385 C   0  0  1  0  0  0
  -27.2568  -27.4462   20.0992 C   0  0  0  0  0  0
  -25.5896  -33.8599   24.2313 N   0  0  0  0  0  0
  -23.4038  -30.4846   21.5467 C   0  0  2  0  0  0
  -24.8536  -28.9411   20.1207 C   0  0  0  0  0  0
  -22.7410  -29.4647   22.4992 C   0  0  0  0  0  0
  -18.0265  -28.1388   22.8499 C   0  0  0  0  0  0
  -24.1485  -36.7324   23.2633 C   0  0  0  0  0  0
  -25.9297  -30.8334   21.3585 C   0  0  0  0  0  0
  -26.0095  -29.4671   20.7105 C   0  0  0  0  0  0
  -27.2098  -28.7248   20.6963 C   0  0  0  0  0  0
  -26.0803  -26.9265   19.5103 C   0  0  0  0  0  0
  -24.8847  -27.6700   19.5197 C   0  0  0  0  0  0
  -23.6135  -29.8043   20.1670 C   0  0  0  0  0  0
  -25.4105  -36.3100   24.0338 C   0  0  1  0  0  0
  -20.5863  -28.3660   23.1315 C   0  0  2  0  0  0
  -20.6746  -26.9400   22.5414 C   0  0  0  0  0  0
  -19.5724  -26.6399   21.5208 C   0  0  0  0  0  0
  -18.1906  -26.7941   22.1620 C   0  0  0  0  0  0
  -19.1512  -28.8843   23.2912 C   0  0  0  0  0  0
  -18.9446  -30.1452   23.8923 C   0  0  0  0  0  0
  -17.6448  -30.6586   24.0571 C   0  0  0  0  0  0
  -25.9036  -34.9458   23.5119 C   0  0  0  0  0  0
  -16.5335  -29.9094   23.6327 C   0  0  0  0  0  0
  -16.7248  -28.6509   23.0349 C   0  0  0  0  0  0
  -26.4476  -31.6596   25.0716 C   0  0  0  0  0  0
  -25.3756  -31.3714   26.1482 C   0  0  0  0  0  0
  -27.0313  -30.3035   24.6111 C   0  0  0  0  0  0
  -27.6045  -32.4326   25.7480 C   0  0  0  0  0  0
  -27.5575  -37.1808   24.8455 C   0  0  0  0  0  0
  -21.4135  -29.3040   22.3734 N   0  0  0  0  0  0
  -26.4279  -37.3792   23.9404 N   0  0  0  0  0  0
  -24.6667  -31.0769   22.0958 N   0  0  0  0  0  0
  -23.4167  -28.8196   23.3043 O   0  0  0  0  0  0
  -28.4659  -26.7838   20.0926 O   0  0  0  0  0  0
  -26.5597  -34.8921   22.4684 O   0  0  0  0  0  0
  -23.5342  -32.1392   23.7468 O   0  0  0  0  0  0
  -30.5647  -19.2220   18.5572 C   0  0  0  0  0  0
  -29.6853  -19.1209   19.6556 C   0  0  0  0  0  0
  -30.9134  -16.9568   18.6118 C   0  0  0  0  0  0
  -30.1129  -16.8260   19.8015 C   0  0  0  0  0  0
  -27.3432  -22.5048   16.4692 C   0  0  0  0  0  0
  -25.4861  -22.1379   18.1575 C   0  0  0  0  0  0
  -28.9563  -20.3714   20.1343 C   0  0  0  0  0  0
  -29.2357  -23.2388   18.8426 C   0  0  0  0  0  0
  -28.5052  -25.3546   20.1693 C   0  0  0  0  0  0
  -26.8625  -22.7803   17.9102 C   0  0  0  0  0  0
  -27.9112  -22.4218   19.0082 C   0  0  1  0  0  0
  -29.1134  -24.7880   18.8719 C   0  0  1  0  0  0
  -31.1497  -18.1390   18.0166 N   0  0  0  0  0  0
  -29.4669  -17.9294   20.2796 N   0  0  0  0  0  0
  -31.4675  -15.9057   17.9001 N   0  0  0  0  0  0
  -29.8816  -15.5616   20.4338 N   0  0  0  0  0  0
  -28.1332  -20.9445   19.0369 N   0  3  0  0  0  0
  -30.4289  -25.3119   18.7974 O   0  0  0  0  0  0
  -31.4601  -12.3921   19.1162 H   0  0  0  0  0  0
  -30.3066  -11.2893   19.8290 H   0  0  0  0  0  0
  -29.7511  -11.8056   17.4010 H   0  0  0  0  0  0
  -29.6452  -13.4999   17.7829 H   0  0  0  0  0  0
  -27.8385  -11.2881   18.8195 H   0  0  0  0  0  0
  -27.3581  -12.5944   17.7703 H   0  0  0  0  0  0
  -27.6662  -14.2365   19.5072 H   0  0  0  0  0  0
  -28.6593  -12.0344   21.3957 H   0  0  0  0  0  0
  -28.4704  -13.7245   21.7983 H   0  0  0  0  0  0
  -25.2683   -9.5749   22.4756 H   0  0  0  0  0  0
  -23.9997   -7.4670   22.7461 H   0  0  0  0  0  0
  -21.0761   -8.8687   19.8946 H   0  0  0  0  0  0
  -22.3545  -10.9642   19.6133 H   0  0  0  0  0  0
  -21.1999   -7.6144   23.9731 H   0  0  0  0  0  0
  -21.1459   -6.0482   25.9081 H   0  0  0  0  0  0
  -22.0614   -2.7599   23.2804 H   0  0  0  0  0  0
  -22.3935  -11.9896   22.4803 H   0  0  0  0  0  0
  -21.1097  -13.1427   22.2588 H   0  0  0  0  0  0
  -24.6662  -15.8447   20.5533 H   0  0  0  0  0  0
  -26.2512  -15.6243   20.0153 H   0  0  0  0  0  0
  -26.7123  -32.5513   23.1159 H   0  0  0  0  0  0
  -25.0065  -33.9758   25.0464 H   0  0  0  0  0  0
  -22.6948  -31.3014   21.3984 H   0  0  0  0  0  0
  -23.3737  -35.9662   23.3287 H   0  0  0  0  0  0
  -24.3595  -36.8952   22.2051 H   0  0  0  0  0  0
  -23.7238  -37.6528   23.6657 H   0  0  0  0  0  0
  -26.0371  -31.5940   20.5842 H   0  0  0  0  0  0
  -26.8177  -30.8927   21.9752 H   0  0  0  0  0  0
  -28.1048  -29.1295   21.1481 H   0  0  0  0  0  0
  -26.0838  -25.9614   19.0280 H   0  0  0  0  0  0
  -23.9958  -27.2550   19.0627 H   0  0  0  0  0  0
  -23.7201  -30.5696   19.3970 H   0  0  0  0  0  0
  -22.7419  -29.2171   19.8759 H   0  0  0  0  0  0
  -25.1285  -36.1965   25.0835 H   0  0  0  0  0  0
  -20.9952  -28.3222   24.1437 H   0  0  0  0  0  0
  -20.5638  -26.2282   23.3600 H   0  0  0  0  0  0
  -21.6613  -26.7446   22.1194 H   0  0  0  0  0  0
  -19.6874  -25.6315   21.1218 H   0  0  0  0  0  0
  -19.6661  -27.3230   20.6754 H   0  0  0  0  0  0
  -17.4183  -26.6710   21.4020 H   0  0  0  0  0  0
  -18.0296  -26.0070   22.9002 H   0  0  0  0  0  0
  -19.7933  -30.7256   24.2300 H   0  0  0  0  0  0
  -17.5008  -31.6275   24.5178 H   0  0  0  0  0  0
  -15.5343  -30.2999   23.7640 H   0  0  0  0  0  0
  -15.8661  -28.0835   22.7052 H   0  0  0  0  0  0
  -24.5904  -30.7093   25.7829 H   0  0  0  0  0  0
  -24.8987  -32.2880   26.4962 H   0  0  0  0  0  0
  -25.8118  -30.8859   27.0219 H   0  0  0  0  0  0
  -26.2856  -29.6776   24.1198 H   0  0  0  0  0  0
  -27.4108  -29.7302   25.4578 H   0  0  0  0  0  0
  -27.8673  -30.4350   23.9242 H   0  0  0  0  0  0
  -27.2655  -33.3606   26.2093 H   0  0  0  0  0  0
  -28.3832  -32.6920   25.0301 H   0  0  0  0  0  0
  -28.0739  -31.8440   26.5374 H   0  0  0  0  0  0
  -28.2584  -38.0117   24.7522 H   0  0  0  0  0  0
  -28.1095  -36.2649   24.6258 H   0  0  0  0  0  0
  -27.2312  -37.1423   25.8865 H   0  0  0  0  0  0
  -20.9298  -29.8785   21.6976 H   0  0  0  0  0  0
  -26.0181  -38.2868   24.1420 H   0  0  0  0  0  0
  -30.7558  -20.1691   18.0761 H   0  0  0  0  0  0
  -26.5826  -22.7945   15.7436 H   0  0  0  0  0  0
  -27.5604  -21.4496   16.2998 H   0  0  0  0  0  0
  -28.2376  -23.0759   16.2158 H   0  0  0  0  0  0
  -24.7706  -22.4563   17.3983 H   0  0  0  0  0  0
  -25.0765  -22.4367   19.1232 H   0  0  0  0  0  0
  -25.5197  -21.0500   18.1259 H   0  0  0  0  0  0
  -29.7206  -21.0622   20.4838 H   0  0  0  0  0  0
  -28.3244  -20.1486   20.9951 H   0  0  0  0  0  0
  -29.7311  -22.9423   17.9168 H   0  0  0  0  0  0
  -29.9372  -22.9693   19.6299 H   0  0  0  0  0  0
  -29.1370  -25.0790   21.0154 H   0  0  0  0  0  0
  -27.5313  -24.9214   20.3824 H   0  0  0  0  0  0
  -26.6826  -23.8538   17.9685 H   0  0  0  0  0  0
  -27.4820  -22.6747   19.9783 H   0  0  0  0  0  0
  -28.5604  -25.1507   18.0050 H   0  0  0  0  0  0
  -32.1606  -16.1771   17.2150 H   0  0  0  0  0  0
  -31.8185  -15.1763   18.5219 H   0  0  0  0  0  0
  -28.9429  -15.4114   20.7619 H   0  0  0  0  0  0
  -27.2306  -20.4972   19.0997 H   0  0  0  0  0  0
  -28.5358  -20.6562   18.1617 H   0  0  0  0  0  0
  -30.3527  -26.2460   18.9859 H   0  0  0  0  0  0
  1 25  1  0  0  0
  1 30  2  0  0  0
  1 86  1  0  0  0
  2  3  1  0  0  0
  2 25  1  0  0  0
  2 89  1  0  0  0
  2 90  1  0  0  0
  3  4  1  0  0  0
  3 91  1  0  0  0
  3 92  1  0  0  0
  4  5  1  0  0  0
  4 93  1  0  0  0
  4 94  1  0  0  0
  5  6  1  0  0  0
  5 26  1  0  0  0
  5 95  1  0  0  0
  6 25  1  0  0  0
  6 96  1  0  0  0
  6 97  1  0  0  0
  7  8  2  0  0  0
  7 26  1  0  0  0
  7 29  1  0  0  0
  8  9  1  0  0  0
  8 22  1  0  0  0
  9 10  1  0  0  0
  9 27  2  0  0  0
 10 11  2  0  0  0
 10 15  1  0  0  0
 11 12  1  0  0  0
 11 98  1  0  0  0
 12 13  2  0  0  0
 12 99  1  0  0  0
 13 14  1  0  0  0
 13 31  1  0  0  0
 14 15  2  0  0  0
 14100  1  0  0  0
 15101  1  0  0  0
 16 17  2  0  0  0
 16 21  1  0  0  0
 16 31  1  0  0  0
 17 18  1  0  0  0
 17102  1  0  0  0
 18 19  2  0  0  0
 18103  1  0  0  0
 19 20  1  0  0  0
 19 24  1  0  0  0
 20 21  2  0  0  0
 20104  1  0  0  0
 21 23  1  0  0  0
 22 28  1  0  0  0
 22 32  2  0  0  0
 26 27  1  0  0  0
 28105  1  0  0  0
 28106  1  0  0  0
 29107  1  0  0  0
 29108  1  0  0  0
 33 34  1  0  0  0
 33 66  1  0  0  0
 33 70  2  0  0  0
 34 36  1  0  0  0
 34 59  1  0  0  0
 34109  1  0  0  0
 35 44  2  0  0  0
 35 45  1  0  0  0
 35 68  1  0  0  0
 36 56  1  0  0  0
 36110  1  0  0  0
 37 39  1  0  0  0
 37 47  1  0  0  0
 37 66  1  0  0  0
 37111  1  0  0  0
 38 43  2  0  0  0
 38 46  1  0  0  0
 38 47  1  0  0  0
 39 64  1  0  0  0
 39 67  2  0  0  0
 40 52  1  0  0  0
 40 53  2  0  0  0
 40 58  1  0  0  0
 41112  1  0  0  0
 41113  1  0  0  0
 41114  1  0  0  0
 41 48  1  0  0  0
 42 43  1  0  0  0
 42 66  1  0  0  0
 42115  1  0  0  0
 42116  1  0  0  0
 43 44  1  0  0  0
 44117  1  0  0  0
 45 46  2  0  0  0
 45118  1  0  0  0
 46119  1  0  0  0
 47120  1  0  0  0
 47121  1  0  0  0
 48 56  1  0  0  0
 48 65  1  0  0  0
 48122  1  0  0  0
 49 50  1  0  0  0
 49 53  1  0  0  0
 49 64  1  0  0  0
 49123  1  0  0  0
 50 51  1  0  0  0
 50124  1  0  0  0
 50125  1  0  0  0
 51 52  1  0  0  0
 51126  1  0  0  0
 51127  1  0  0  0
 52128  1  0  0  0
 52129  1  0  0  0
 53 54  1  0  0  0
 54 55  2  0  0  0
 54130  1  0  0  0
 55 57  1  0  0  0
 55131  1  0  0  0
 56 69  2  0  0  0
 57 58  2  0  0  0
 57132  1  0  0  0
 58133  1  0  0  0
 59 60  1  0  0  0
 59 61  1  0  0  0
 59 62  1  0  0  0
 60134  1  0  0  0
 60135  1  0  0  0
 60136  1  0  0  0
 61137  1  0  0  0
 61138  1  0  0  0
 61139  1  0  0  0
 62140  1  0  0  0
 62141  1  0  0  0
 62142  1  0  0  0
 63 65  1  0  0  0
 63143  1  0  0  0
 63144  1  0  0  0
 63145  1  0  0  0
 64146  1  0  0  0
 65147  1  0  0  0
 68 79  1  0  0  0
 71 72  2  0  0  0
 71 83  1  0  0  0
 71148  1  0  0  0
 72 77  1  0  0  0
 72 84  1  0  0  0
 73 74  1  0  0  0
 73 83  2  0  0  0
 73 85  1  0  0  0
 74 84  2  0  0  0
 74 86  1  0  0  0
 75149  1  0  0  0
 75150  1  0  0  0
 75151  1  0  0  0
 75 80  1  0  0  0
 76 80  1  0  0  0
 76152  1  0  0  0
 76153  1  0  0  0
 76154  1  0  0  0
 77 87  1  0  0  0
 77155  1  0  0  0
 77156  1  0  0  0
 78 82  1  0  0  0
 78157  1  0  0  0
 78158  1  0  0  0
 78 81  1  0  0  0
 79 82  1  0  0  0
 79159  1  0  0  0
 79160  1  0  0  0
 80 81  1  0  0  0
 80161  1  0  0  0
 81 87  1  0  0  0
 81162  1  0  0  0
 82 88  1  0  0  0
 82163  1  0  0  0
 85164  1  0  0  0
 85165  1  0  0  0
 86166  1  0  0  0
 87167  1  0  0  0
 87168  1  0  0  0
 88169  1  0  0  0
M  CHG  1  87   1
M  ISO  4   1 100  68 101  79 101  86 100
M  END
> <chiral flag>
0

> <version>
0

> <s_m_source_file>
/data/baiqing/PycharmProjects/Reinvent-master-3.2/result/LINK_invent/BTK/process_docking_weight1_custom_product_contain_oxygen_bond_distance_aromatic_linkinvent_7_9_3/rearranged_h_0196.sdf

> <i_m_source_file_index>
59

> <r_mmod_Potential_Energy-OPLS-2005>
-322.36279296875

> <r_mmod_Stretch_Energy-OPLS-2005>
42.820743560791

> <r_mmod_Bend_Energy-OPLS-2005>
120.799629211426

> <r_mmod_Torsional_Energy-OPLS-2005>
289.873321533203

> <r_mmod_Improper_Torsional_Energy-OPLS-2005>
13.498423576355

> <r_mmod_Van_der_Waal_Energy-OPLS-2005>
168.393081665039

> <r_mmod_Electrostatic_Energy-OPLS-2005>
-485.785888671875

> <r_mmod_Solvation_Energy-OPLS-2005>
-495.032897949219

> <b_mmod_Minimization_Converged-OPLS-2005>
0

> <r_mmod_RMS_Derivative-OPLS-2005>
4.98417472839355

$$$$
59
                    3D
 Structure written by MMmdl.
149157  0  0  1  0            999 V2000
  -30.5636  -14.7786   20.4505 C   0  0  0  0  0  0
  -30.4439  -12.4739   19.4684 C   0  0  0  0  0  0
  -29.5138  -12.5055   18.2334 C   0  0  0  0  0  0
  -28.0391  -12.3226   18.6484 C   0  0  0  0  0  0
  -27.6393  -13.2242   19.8461 C   0  0  2  0  0  0
  -28.6854  -13.1539   20.9800 C   0  0  0  0  0  0
  -25.2499  -13.8164   20.5682 C   0  0  0  0  0  0
  -24.1793  -13.0421   20.9221 C   0  0  0  0  0  0
  -24.6379  -11.6901   20.8752 C   0  0  0  0  0  0
  -23.9053  -10.4283   21.0416 C   0  0  0  0  0  0
  -24.3608   -9.4198   21.9192 C   0  0  0  0  0  0
  -23.6284   -8.2233   22.0755 C   0  0  0  0  0  0
  -22.4266   -8.0276   21.3542 C   0  0  0  0  0  0
  -21.9901   -9.0251   20.4645 C   0  0  0  0  0  0
  -22.7228  -10.2130   20.3060 C   0  0  0  0  0  0
  -21.6851   -6.0731   22.5280 C   0  0  0  0  0  0
  -21.4016   -6.5636   23.8212 C   0  0  0  0  0  0
  -21.3660   -5.6790   24.9175 C   0  0  0  0  0  0
  -21.6044   -4.3052   24.7226 C   0  0  0  0  0  0
  -21.8818   -3.8144   23.4346 C   0  0  0  0  0  0
  -21.9189   -4.6959   22.3402 C   0  0  0  0  0  0
  -22.7816  -13.5219   21.1879 C   0  0  0  0  0  0
  -22.1658   -4.2146   21.0979 F   0  0  0  0  0  0
  -21.5625   -3.4535   25.7736 F   0  0  0  0  0  0
  -29.9814  -13.5292   20.3978 N   0  0  0  0  0  0
  -26.2912  -12.9359   20.3246 N   0  0  0  0  0  0
  -25.9301  -11.6511   20.5735 N   0  0  0  0  0  0
  -22.0452  -12.8219   22.0435 N   0  0  0  0  0  0
  -25.4156  -15.1890   20.4075 N   0  0  0  0  0  0
  -31.7654  -14.9019   20.1853 O   0  0  0  0  0  0
  -21.6632   -6.8873   21.4241 O   0  0  0  0  0  0
  -22.3511  -14.5529   20.6723 O   0  0  0  0  0  0
  -24.6318  -31.8541   23.1951 C   0  0  0  0  0  0
  -25.9141  -32.4749   23.8308 C   0  0  1  0  0  0
  -27.2249  -27.2524   20.1453 C   0  0  0  0  0  0
  -25.5932  -33.8551   24.2239 N   0  0  0  0  0  0
  -23.4295  -30.4740   21.5381 C   0  0  2  0  0  0
  -24.8787  -28.9094   20.1179 C   0  0  0  0  0  0
  -22.7503  -29.4602   22.4903 C   0  0  0  0  0  0
  -18.0295  -28.1392   22.8486 C   0  0  0  0  0  0
  -24.1488  -36.7274   23.2640 C   0  0  0  0  0  0
  -25.9745  -30.7659   21.3738 C   0  0  0  0  0  0
  -26.0501  -29.3838   20.7227 C   0  0  0  0  0  0
  -27.2290  -28.5700   20.7183 C   0  0  0  0  0  0
  -26.0314  -26.8373   19.5224 C   0  0  0  0  0  0
  -24.8744  -27.6444   19.5059 C   0  0  0  0  0  0
  -23.6505  -29.7999   20.1574 C   0  0  0  0  0  0
  -25.4117  -36.3065   24.0325 C   0  0  1  0  0  0
  -20.5899  -28.3710   23.1266 C   0  0  2  0  0  0
  -20.6783  -26.9426   22.5409 C   0  0  0  0  0  0
  -19.5755  -26.6389   21.5216 C   0  0  0  0  0  0
  -18.1936  -26.7934   22.1629 C   0  0  0  0  0  0
  -19.1547  -28.8868   23.2870 C   0  0  0  0  0  0
  -18.9468  -30.1466   23.8893 C   0  0  0  0  0  0
  -17.6467  -30.6592   24.0567 C   0  0  0  0  0  0
  -25.9060  -34.9438   23.5086 C   0  0  0  0  0  0
  -16.5358  -29.9091   23.6331 C   0  0  0  0  0  0
  -16.7281  -28.6508   23.0352 C   0  0  0  0  0  0
  -26.4503  -31.6576   25.0702 C   0  0  0  0  0  0
  -25.3719  -31.3735   26.1418 C   0  0  0  0  0  0
  -27.0354  -30.2989   24.6195 C   0  0  0  0  0  0
  -27.6050  -32.4318   25.7482 C   0  0  0  0  0  0
  -27.5575  -37.1796   24.8468 C   0  0  0  0  0  0
  -21.4210  -29.3052   22.3649 N   0  0  0  0  0  0
  -26.4289  -37.3765   23.9409 N   0  0  0  0  0  0
  -24.6975  -31.0502   22.0922 N   0  0  0  0  0  0
  -23.4196  -28.8152   23.3015 O   0  0  0  0  0  0
  -28.3324  -26.3756   20.1237 O   0  0  0  0  0  0
  -26.5631  -34.8919   22.4654 O   0  0  0  0  0  0
  -23.5466  -32.1364   23.7244 O   0  0  0  0  0  0
  -28.8464  -18.2869   20.0446 C   0  0  0  0  0  0
  -29.8402  -17.3437   20.5361 C   0  0  0  0  0  0
  -29.3018  -19.5829   20.2902 C   0  0  0  0  0  0
  -28.8940  -22.2100   20.7018 C   0  0  0  0  0  0
  -28.2395  -24.9908   20.7186 C   0  0  0  0  0  0
  -28.6495  -23.6293   19.9141 C   0  0  1  0  0  0
  -30.8407  -18.0532   21.0593 N   0  0  0  0  0  0
  -29.6938  -15.8626   20.5337 N   0  0  0  0  0  0
  -28.8086  -20.9051   19.9255 N   0  0  0  0  0  0
  -30.5079  -19.4328   20.9258 O   0  0  0  0  0  0
  -29.9002  -23.9141   19.3179 O   0  0  0  0  0  0
  -31.4811  -12.6242   19.1637 H   0  0  0  0  0  0
  -30.4117  -11.4974   19.9538 H   0  0  0  0  0  0
  -29.8019  -11.7264   17.5261 H   0  0  0  0  0  0
  -29.6307  -13.4541   17.7072 H   0  0  0  0  0  0
  -27.9032  -11.2746   18.9182 H   0  0  0  0  0  0
  -27.3800  -12.5048   17.7987 H   0  0  0  0  0  0
  -27.6296  -14.2434   19.4607 H   0  0  0  0  0  0
  -28.7302  -12.1483   21.4017 H   0  0  0  0  0  0
  -28.4147  -13.8162   21.8044 H   0  0  0  0  0  0
  -25.2751   -9.5674   22.4768 H   0  0  0  0  0  0
  -23.9992   -7.4622   22.7473 H   0  0  0  0  0  0
  -21.0830   -8.8769   19.8952 H   0  0  0  0  0  0
  -22.3686  -10.9670   19.6170 H   0  0  0  0  0  0
  -21.2017   -7.6146   23.9715 H   0  0  0  0  0  0
  -21.1482   -6.0520   25.9077 H   0  0  0  0  0  0
  -22.0596   -2.7606   23.2843 H   0  0  0  0  0  0
  -22.4063  -11.9888   22.4839 H   0  0  0  0  0  0
  -21.1070  -13.1249   22.2636 H   0  0  0  0  0  0
  -24.6349  -15.8292   20.5074 H   0  0  0  0  0  0
  -26.2346  -15.6291   20.0115 H   0  0  0  0  0  0
  -26.7209  -32.5406   23.1051 H   0  0  0  0  0  0
  -25.0086  -33.9682   25.0390 H   0  0  0  0  0  0
  -22.7269  -31.2960   21.3868 H   0  0  0  0  0  0
  -23.3754  -35.9603   23.3305 H   0  0  0  0  0  0
  -24.3576  -36.8895   22.2055 H   0  0  0  0  0  0
  -23.7243  -37.6475   23.6664 H   0  0  0  0  0  0
  -26.1113  -31.5237   20.6009 H   0  0  0  0  0  0
  -26.8523  -30.8203   22.0062 H   0  0  0  0  0  0
  -28.1313  -28.9349   21.1887 H   0  0  0  0  0  0
  -25.9921  -25.8665   19.0487 H   0  0  0  0  0  0
  -23.9776  -27.2751   19.0275 H   0  0  0  0  0  0
  -23.7792  -30.5722   19.3980 H   0  0  0  0  0  0
  -22.7688  -29.2341   19.8523 H   0  0  0  0  0  0
  -25.1303  -36.1903   25.0818 H   0  0  0  0  0  0
  -20.9995  -28.3295   24.1385 H   0  0  0  0  0  0
  -20.5687  -26.2324   23.3619 H   0  0  0  0  0  0
  -21.6650  -26.7450   22.1201 H   0  0  0  0  0  0
  -19.6916  -25.6297   21.1252 H   0  0  0  0  0  0
  -19.6686  -27.3195   20.6742 H   0  0  0  0  0  0
  -17.4205  -26.6680   21.4033 H   0  0  0  0  0  0
  -18.0335  -26.0080   22.9030 H   0  0  0  0  0  0
  -19.7944  -30.7283   24.2259 H   0  0  0  0  0  0
  -17.5022  -31.6273   24.5168 H   0  0  0  0  0  0
  -15.5358  -30.2992   23.7658 H   0  0  0  0  0  0
  -15.8681  -28.0827   22.7067 H   0  0  0  0  0  0
  -24.5898  -30.7080   25.7743 H   0  0  0  0  0  0
  -24.8910  -32.2913   26.4813 H   0  0  0  0  0  0
  -25.8034  -30.8931   27.0210 H   0  0  0  0  0  0
  -26.2944  -29.6729   24.1210 H   0  0  0  0  0  0
  -27.4026  -29.7258   25.4718 H   0  0  0  0  0  0
  -27.8821  -30.4256   23.9444 H   0  0  0  0  0  0
  -27.2652  -33.3625   26.2035 H   0  0  0  0  0  0
  -28.3878  -32.6867   25.0328 H   0  0  0  0  0  0
  -28.0695  -31.8460   26.5423 H   0  0  0  0  0  0
  -28.2596  -38.0088   24.7510 H   0  0  0  0  0  0
  -28.1068  -36.2622   24.6303 H   0  0  0  0  0  0
  -27.2293  -37.1456   25.8870 H   0  0  0  0  0  0
  -20.9398  -29.8768   21.6846 H   0  0  0  0  0  0
  -26.0165  -38.2837   24.1406 H   0  0  0  0  0  0
  -27.9168  -18.0406   19.5543 H   0  0  0  0  0  0
  -29.8401  -22.2449   21.2448 H   0  0  0  0  0  0
  -28.1288  -22.1404   21.4769 H   0  0  0  0  0  0
  -28.8640  -25.0301   21.6116 H   0  0  0  0  0  0
  -27.2295  -24.8493   21.1065 H   0  0  0  0  0  0
  -27.9081  -23.4797   19.1275 H   0  0  0  0  0  0
  -28.7344  -15.5624   20.5575 H   0  0  0  0  0  0
  -28.0197  -20.8750   19.2873 H   0  0  0  0  0  0
  -29.8176  -24.7734   18.9119 H   0  0  0  0  0  0
  1 25  1  0  0  0
  1 30  2  0  0  0
  1 78  1  0  0  0
  2  3  1  0  0  0
  2 25  1  0  0  0
  2 82  1  0  0  0
  2 83  1  0  0  0
  3  4  1  0  0  0
  3 84  1  0  0  0
  3 85  1  0  0  0
  4  5  1  0  0  0
  4 86  1  0  0  0
  4 87  1  0  0  0
  5  6  1  0  0  0
  5 26  1  0  0  0
  5 88  1  0  0  0
  6 25  1  0  0  0
  6 89  1  0  0  0
  6 90  1  0  0  0
  7  8  2  0  0  0
  7 26  1  0  0  0
  7 29  1  0  0  0
  8  9  1  0  0  0
  8 22  1  0  0  0
  9 10  1  0  0  0
  9 27  2  0  0  0
 10 11  2  0  0  0
 10 15  1  0  0  0
 11 12  1  0  0  0
 11 91  1  0  0  0
 12 13  2  0  0  0
 12 92  1  0  0  0
 13 14  1  0  0  0
 13 31  1  0  0  0
 14 15  2  0  0  0
 14 93  1  0  0  0
 15 94  1  0  0  0
 16 17  2  0  0  0
 16 21  1  0  0  0
 16 31  1  0  0  0
 17 18  1  0  0  0
 17 95  1  0  0  0
 18 19  2  0  0  0
 18 96  1  0  0  0
 19 20  1  0  0  0
 19 24  1  0  0  0
 20 21  2  0  0  0
 20 97  1  0  0  0
 21 23  1  0  0  0
 22 28  1  0  0  0
 22 32  2  0  0  0
 26 27  1  0  0  0
 28 98  1  0  0  0
 28 99  1  0  0  0
 29100  1  0  0  0
 29101  1  0  0  0
 33 34  1  0  0  0
 33 66  1  0  0  0
 33 70  2  0  0  0
 34 36  1  0  0  0
 34 59  1  0  0  0
 34102  1  0  0  0
 35 44  2  0  0  0
 35 45  1  0  0  0
 35 68  1  0  0  0
 36 56  1  0  0  0
 36103  1  0  0  0
 37 39  1  0  0  0
 37 47  1  0  0  0
 37 66  1  0  0  0
 37104  1  0  0  0
 38 43  2  0  0  0
 38 46  1  0  0  0
 38 47  1  0  0  0
 39 64  1  0  0  0
 39 67  2  0  0  0
 40 52  1  0  0  0
 40 53  2  0  0  0
 40 58  1  0  0  0
 41105  1  0  0  0
 41106  1  0  0  0
 41107  1  0  0  0
 41 48  1  0  0  0
 42 43  1  0  0  0
 42 66  1  0  0  0
 42108  1  0  0  0
 42109  1  0  0  0
 43 44  1  0  0  0
 44110  1  0  0  0
 45 46  2  0  0  0
 45111  1  0  0  0
 46112  1  0  0  0
 47113  1  0  0  0
 47114  1  0  0  0
 48 56  1  0  0  0
 48 65  1  0  0  0
 48115  1  0  0  0
 49 50  1  0  0  0
 49 53  1  0  0  0
 49 64  1  0  0  0
 49116  1  0  0  0
 50 51  1  0  0  0
 50117  1  0  0  0
 50118  1  0  0  0
 51 52  1  0  0  0
 51119  1  0  0  0
 51120  1  0  0  0
 52121  1  0  0  0
 52122  1  0  0  0
 53 54  1  0  0  0
 54 55  2  0  0  0
 54123  1  0  0  0
 55 57  1  0  0  0
 55124  1  0  0  0
 56 69  2  0  0  0
 57 58  2  0  0  0
 57125  1  0  0  0
 58126  1  0  0  0
 59 60  1  0  0  0
 59 61  1  0  0  0
 59 62  1  0  0  0
 60127  1  0  0  0
 60128  1  0  0  0
 60129  1  0  0  0
 61130  1  0  0  0
 61131  1  0  0  0
 61132  1  0  0  0
 62133  1  0  0  0
 62134  1  0  0  0
 62135  1  0  0  0
 63 65  1  0  0  0
 63136  1  0  0  0
 63137  1  0  0  0
 63138  1  0  0  0
 64139  1  0  0  0
 65140  1  0  0  0
 68 75  1  0  0  0
 71 72  1  0  0  0
 71 73  2  0  0  0
 71141  1  0  0  0
 72 77  2  0  0  0
 72 78  1  0  0  0
 73 79  1  0  0  0
 73 80  1  0  0  0
 74 76  1  0  0  0
 74 79  1  0  0  0
 74142  1  0  0  0
 74143  1  0  0  0
 75 76  1  0  0  0
 75144  1  0  0  0
 75145  1  0  0  0
 76 81  1  0  0  0
 76146  1  0  0  0
 77 80  1  0  0  0
 78147  1  0  0  0
 79148  1  0  0  0
 81149  1  0  0  0
M  ISO  4   1 100  68 101  75 101  78 100
M  END
> <chiral flag>
0

> <version>
0

> <s_m_source_file>
/data/baiqing/PycharmProjects/Reinvent-master-3.2/result/LINK_invent/BTK/process_docking_weight1_custom_product_contain_oxygen_bond_distance_aromatic_linkinvent_7_9_3/rearranged_h_0196.sdf

> <i_m_source_file_index>
60

> <r_mmod_Potential_Energy-OPLS-2005>
72.0778656005859

> <r_mmod_Stretch_Energy-OPLS-2005>
124.181495666504

> <r_mmod_Bend_Energy-OPLS-2005>
182.545181274414

> <r_mmod_Torsional_Energy-OPLS-2005>
268.141021728516

> <r_mmod_Improper_Torsional_Energy-OPLS-2005>
8.90750503540039

> <r_mmod_Van_der_Waal_Energy-OPLS-2005>
110.19775390625

> <r_mmod_Electrostatic_Energy-OPLS-2005>
-436.477081298828

> <r_mmod_Solvation_Energy-OPLS-2005>
-279.373687744141

> <b_mmod_Minimization_Converged-OPLS-2005>
0

> <r_mmod_RMS_Derivative-OPLS-2005>
0.739378392696381

$$$$
60
                    3D
 Structure written by MMmdl.
158166  0  0  1  0            999 V2000
  -30.6951  -14.4495   20.6341 C   0  0  0  0  0  0
  -30.4293  -12.3105   19.4188 C   0  0  0  0  0  0
  -29.4999  -12.5249   18.2068 C   0  0  0  0  0  0
  -28.0188  -12.3853   18.6141 C   0  0  0  0  0  0
  -27.6678  -13.2026   19.8855 C   0  0  2  0  0  0
  -28.7041  -12.9409   21.0003 C   0  0  0  0  0  0
  -25.2607  -13.8150   20.5663 C   0  0  0  0  0  0
  -24.1849  -13.0441   20.9156 C   0  0  0  0  0  0
  -24.6387  -11.6903   20.8707 C   0  0  0  0  0  0
  -23.9051  -10.4290   21.0382 C   0  0  0  0  0  0
  -24.3607   -9.4210   21.9161 C   0  0  0  0  0  0
  -23.6284   -8.2250   22.0747 C   0  0  0  0  0  0
  -22.4265   -8.0285   21.3540 C   0  0  0  0  0  0
  -21.9893   -9.0257   20.4640 C   0  0  0  0  0  0
  -22.7219  -10.2137   20.3040 C   0  0  0  0  0  0
  -21.6859   -6.0736   22.5274 C   0  0  0  0  0  0
  -21.4012   -6.5632   23.8208 C   0  0  0  0  0  0
  -21.3662   -5.6780   24.9166 C   0  0  0  0  0  0
  -21.6054   -4.3048   24.7213 C   0  0  0  0  0  0
  -21.8818   -3.8142   23.4332 C   0  0  0  0  0  0
  -21.9188   -4.6964   22.3391 C   0  0  0  0  0  0
  -22.7880  -13.5258   21.1840 C   0  0  0  0  0  0
  -22.1659   -4.2147   21.0969 F   0  0  0  0  0  0
  -21.5639   -3.4536   25.7727 F   0  0  0  0  0  0
  -30.0407  -13.2666   20.4666 N   0  0  0  0  0  0
  -26.3046  -12.9313   20.3378 N   0  0  0  0  0  0
  -25.9311  -11.6481   20.5725 N   0  0  0  0  0  0
  -22.0507  -12.8262   22.0397 N   0  0  0  0  0  0
  -25.4334  -15.1868   20.4104 N   0  0  0  0  0  0
  -31.7729  -14.7016   20.0818 O   0  0  0  0  0  0
  -21.6641   -6.8876   21.4240 O   0  0  0  0  0  0
  -22.3561  -14.5554   20.6674 O   0  0  0  0  0  0
  -24.6162  -31.8699   23.2117 C   0  0  0  0  0  0
  -25.9066  -32.4824   23.8405 C   0  0  1  0  0  0
  -27.2246  -27.4200   20.0844 C   0  0  0  0  0  0
  -25.5940  -33.8624   24.2336 N   0  0  0  0  0  0
  -23.4017  -30.4969   21.5526 C   0  0  2  0  0  0
  -24.8459  -28.9712   20.1108 C   0  0  0  0  0  0
  -22.7423  -29.4667   22.4979 C   0  0  0  0  0  0
  -18.0276  -28.1386   22.8510 C   0  0  0  0  0  0
  -24.1473  -36.7293   23.2636 C   0  0  0  0  0  0
  -25.9357  -30.8299   21.3677 C   0  0  0  0  0  0
  -26.0095  -29.4658   20.7108 C   0  0  0  0  0  0
  -27.2005  -28.6984   20.6962 C   0  0  0  0  0  0
  -26.0356  -26.9568   19.4663 C   0  0  0  0  0  0
  -24.8540  -27.7159   19.4849 C   0  0  0  0  0  0
  -23.6094  -29.8383   20.1644 C   0  0  0  0  0  0
  -25.4101  -36.3103   24.0332 C   0  0  1  0  0  0
  -20.5870  -28.3656   23.1328 C   0  0  2  0  0  0
  -20.6759  -26.9393   22.5421 C   0  0  0  0  0  0
  -19.5729  -26.6393   21.5223 C   0  0  0  0  0  0
  -18.1909  -26.7930   22.1635 C   0  0  0  0  0  0
  -19.1533  -28.8832   23.2914 C   0  0  0  0  0  0
  -18.9467  -30.1442   23.8921 C   0  0  0  0  0  0
  -17.6469  -30.6589   24.0566 C   0  0  0  0  0  0
  -25.9038  -34.9475   23.5119 C   0  0  0  0  0  0
  -16.5358  -29.9095   23.6338 C   0  0  0  0  0  0
  -16.7270  -28.6511   23.0357 C   0  0  0  0  0  0
  -26.4490  -31.6592   25.0729 C   0  0  0  0  0  0
  -25.3773  -31.3746   26.1493 C   0  0  0  0  0  0
  -27.0292  -30.3018   24.6106 C   0  0  0  0  0  0
  -27.6057  -32.4307   25.7510 C   0  0  0  0  0  0
  -27.5565  -37.1799   24.8478 C   0  0  0  0  0  0
  -21.4148  -29.3023   22.3735 N   0  0  0  0  0  0
  -26.4276  -37.3794   23.9428 N   0  0  0  0  0  0
  -24.6696  -31.0796   22.1019 N   0  0  0  0  0  0
  -23.4216  -28.8204   23.3002 O   0  0  0  0  0  0
  -28.3840  -26.6545   20.1183 O   0  0  0  0  0  0
  -26.5587  -34.8931   22.4668 O   0  0  0  0  0  0
  -23.5356  -32.1433   23.7526 O   0  0  0  0  0  0
  -30.8434  -18.8666   21.7801 C   0  0  0  0  0  0
  -29.7309  -19.1829   21.0180 C   0  0  0  0  0  0
  -30.1284  -16.7485   21.3053 C   0  0  0  0  0  0
  -31.7830  -19.8092   22.4699 C   0  0  0  0  0  0
  -30.9692  -21.4466   19.3365 C   0  0  0  0  0  0
  -28.9462  -22.8292   20.1166 C   0  0  0  0  0  0
  -28.2479  -25.2611   19.7670 C   0  0  0  0  0  0
  -29.9282  -21.6598   20.4537 C   0  0  1  0  0  0
  -29.4131  -24.3258   20.1887 C   0  0  1  0  0  0
  -31.0509  -17.4834   21.9367 N   0  0  0  0  0  0
  -29.1621  -20.4194   20.6497 N   0  0  0  0  0  0
  -30.0655  -15.3361   21.4248 N   0  0  0  0  0  0
  -30.4818  -24.5760   19.2906 O   0  0  0  0  0  0
  -28.9082  -17.7229   20.4935 S   0  0  0  0  0  0
  -31.4730  -12.4279   19.1218 H   0  0  0  0  0  0
  -30.3410  -11.2879   19.7924 H   0  0  0  0  0  0
  -29.7410  -11.8086   17.4193 H   0  0  0  0  0  0
  -29.6737  -13.5149   17.7828 H   0  0  0  0  0  0
  -27.8199  -11.3262   18.7867 H   0  0  0  0  0  0
  -27.3746  -12.6865   17.7871 H   0  0  0  0  0  0
  -27.7245  -14.2579   19.6174 H   0  0  0  0  0  0
  -28.6764  -11.8912   21.2954 H   0  0  0  0  0  0
  -28.4484  -13.4939   21.9044 H   0  0  0  0  0  0
  -25.2751   -9.5701   22.4741 H   0  0  0  0  0  0
  -23.9996   -7.4643   22.7472 H   0  0  0  0  0  0
  -21.0821   -8.8760   19.8953 H   0  0  0  0  0  0
  -22.3650  -10.9674   19.6156 H   0  0  0  0  0  0
  -21.1996   -7.6136   23.9710 H   0  0  0  0  0  0
  -21.1497   -6.0507   25.9069 H   0  0  0  0  0  0
  -22.0592   -2.7607   23.2824 H   0  0  0  0  0  0
  -22.4111  -11.9917   22.4783 H   0  0  0  0  0  0
  -21.1131  -13.1307   22.2625 H   0  0  0  0  0  0
  -24.6654  -15.8393   20.5202 H   0  0  0  0  0  0
  -26.2859  -15.6304   20.0948 H   0  0  0  0  0  0
  -26.7134  -32.5526   23.1165 H   0  0  0  0  0  0
  -25.0161  -33.9802   25.0529 H   0  0  0  0  0  0
  -22.6875  -31.3125   21.4197 H   0  0  0  0  0  0
  -23.3735  -35.9623   23.3319 H   0  0  0  0  0  0
  -24.3575  -36.8886   22.2049 H   0  0  0  0  0  0
  -23.7222  -37.6500   23.6638 H   0  0  0  0  0  0
  -26.0520  -31.5976   20.6013 H   0  0  0  0  0  0
  -26.8218  -30.8793   21.9884 H   0  0  0  0  0  0
  -28.0956  -29.0780   21.1691 H   0  0  0  0  0  0
  -25.9826  -26.0064   18.9578 H   0  0  0  0  0  0
  -23.9607  -27.3330   19.0118 H   0  0  0  0  0  0
  -23.7232  -30.6165   19.4096 H   0  0  0  0  0  0
  -22.7316  -29.2629   19.8632 H   0  0  0  0  0  0
  -25.1272  -36.1946   25.0821 H   0  0  0  0  0  0
  -20.9963  -28.3204   24.1451 H   0  0  0  0  0  0
  -20.5661  -26.2261   23.3608 H   0  0  0  0  0  0
  -21.6629  -26.7446   22.1209 H   0  0  0  0  0  0
  -19.6882  -25.6318   21.1218 H   0  0  0  0  0  0
  -19.6648  -27.3243   20.6787 H   0  0  0  0  0  0
  -17.4181  -26.6708   21.4028 H   0  0  0  0  0  0
  -18.0285  -26.0064   22.9024 H   0  0  0  0  0  0
  -19.7945  -30.7249   24.2287 H   0  0  0  0  0  0
  -17.5041  -31.6275   24.5163 H   0  0  0  0  0  0
  -15.5360  -30.3011   23.7651 H   0  0  0  0  0  0
  -15.8670  -28.0843   22.7057 H   0  0  0  0  0  0
  -24.5908  -30.7123   25.7866 H   0  0  0  0  0  0
  -24.9023  -32.2932   26.4939 H   0  0  0  0  0  0
  -25.8137  -30.8933   27.0252 H   0  0  0  0  0  0
  -26.2841  -29.6823   24.1096 H   0  0  0  0  0  0
  -27.3992  -29.7209   25.4563 H   0  0  0  0  0  0
  -27.8712  -30.4307   23.9304 H   0  0  0  0  0  0
  -27.2643  -33.3573   26.2136 H   0  0  0  0  0  0
  -28.3860  -32.6909   25.0351 H   0  0  0  0  0  0
  -28.0725  -31.8407   26.5403 H   0  0  0  0  0  0
  -28.2602  -38.0072   24.7514 H   0  0  0  0  0  0
  -28.1027  -36.2611   24.6297 H   0  0  0  0  0  0
  -27.2301  -37.1458   25.8885 H   0  0  0  0  0  0
  -20.9299  -29.8771   21.6991 H   0  0  0  0  0  0
  -26.0150  -38.2861   24.1446 H   0  0  0  0  0  0
  -32.3783  -20.3752   21.7553 H   0  0  0  0  0  0
  -32.4772  -19.2833   23.1232 H   0  0  0  0  0  0
  -31.2386  -20.5238   23.0876 H   0  0  0  0  0  0
  -30.4853  -21.2877   18.3717 H   0  0  0  0  0  0
  -31.6120  -20.5864   19.5212 H   0  0  0  0  0  0
  -31.6375  -22.2987   19.2314 H   0  0  0  0  0  0
  -28.1115  -22.7501   20.8166 H   0  0  0  0  0  0
  -28.5047  -22.6456   19.1348 H   0  0  0  0  0  0
  -28.0768  -25.1707   18.6923 H   0  0  0  0  0  0
  -27.3571  -24.8779   20.2664 H   0  0  0  0  0  0
  -30.4374  -21.9066   21.3858 H   0  0  0  0  0  0
  -29.7218  -24.5660   21.2079 H   0  0  0  0  0  0
  -28.2853  -20.3693   20.1370 H   0  0  0  0  0  0
  -29.2130  -14.9804   21.8275 H   0  0  0  0  0  0
  -31.2628  -24.1748   19.6574 H   0  0  0  0  0  0
  1 25  1  0  0  0
  1 30  2  0  0  0
  1 82  1  0  0  0
  2  3  1  0  0  0
  2 25  1  0  0  0
  2 85  1  0  0  0
  2 86  1  0  0  0
  3  4  1  0  0  0
  3 87  1  0  0  0
  3 88  1  0  0  0
  4  5  1  0  0  0
  4 89  1  0  0  0
  4 90  1  0  0  0
  5  6  1  0  0  0
  5 26  1  0  0  0
  5 91  1  0  0  0
  6 25  1  0  0  0
  6 92  1  0  0  0
  6 93  1  0  0  0
  7  8  2  0  0  0
  7 26  1  0  0  0
  7 29  1  0  0  0
  8  9  1  0  0  0
  8 22  1  0  0  0
  9 10  1  0  0  0
  9 27  2  0  0  0
 10 11  2  0  0  0
 10 15  1  0  0  0
 11 12  1  0  0  0
 11 94  1  0  0  0
 12 13  2  0  0  0
 12 95  1  0  0  0
 13 14  1  0  0  0
 13 31  1  0  0  0
 14 15  2  0  0  0
 14 96  1  0  0  0
 15 97  1  0  0  0
 16 17  2  0  0  0
 16 21  1  0  0  0
 16 31  1  0  0  0
 17 18  1  0  0  0
 17 98  1  0  0  0
 18 19  2  0  0  0
 18 99  1  0  0  0
 19 20  1  0  0  0
 19 24  1  0  0  0
 20 21  2  0  0  0
 20100  1  0  0  0
 21 23  1  0  0  0
 22 28  1  0  0  0
 22 32  2  0  0  0
 26 27  1  0  0  0
 28101  1  0  0  0
 28102  1  0  0  0
 29103  1  0  0  0
 29104  1  0  0  0
 33 34  1  0  0  0
 33 66  1  0  0  0
 33 70  2  0  0  0
 34 36  1  0  0  0
 34 59  1  0  0  0
 34105  1  0  0  0
 35 44  2  0  0  0
 35 45  1  0  0  0
 35 68  1  0  0  0
 36 56  1  0  0  0
 36106  1  0  0  0
 37 39  1  0  0  0
 37 47  1  0  0  0
 37 66  1  0  0  0
 37107  1  0  0  0
 38 43  2  0  0  0
 38 46  1  0  0  0
 38 47  1  0  0  0
 39 64  1  0  0  0
 39 67  2  0  0  0
 40 52  1  0  0  0
 40 53  2  0  0  0
 40 58  1  0  0  0
 41108  1  0  0  0
 41109  1  0  0  0
 41110  1  0  0  0
 41 48  1  0  0  0
 42 43  1  0  0  0
 42 66  1  0  0  0
 42111  1  0  0  0
 42112  1  0  0  0
 43 44  1  0  0  0
 44113  1  0  0  0
 45 46  2  0  0  0
 45114  1  0  0  0
 46115  1  0  0  0
 47116  1  0  0  0
 47117  1  0  0  0
 48 56  1  0  0  0
 48 65  1  0  0  0
 48118  1  0  0  0
 49 50  1  0  0  0
 49 53  1  0  0  0
 49 64  1  0  0  0
 49119  1  0  0  0
 50 51  1  0  0  0
 50120  1  0  0  0
 50121  1  0  0  0
 51 52  1  0  0  0
 51122  1  0  0  0
 51123  1  0  0  0
 52124  1  0  0  0
 52125  1  0  0  0
 53 54  1  0  0  0
 54 55  2  0  0  0
 54126  1  0  0  0
 55 57  1  0  0  0
 55127  1  0  0  0
 56 69  2  0  0  0
 57 58  2  0  0  0
 57128  1  0  0  0
 58129  1  0  0  0
 59 60  1  0  0  0
 59 61  1  0  0  0
 59 62  1  0  0  0
 60130  1  0  0  0
 60131  1  0  0  0
 60132  1  0  0  0
 61133  1  0  0  0
 61134  1  0  0  0
 61135  1  0  0  0
 62136  1  0  0  0
 62137  1  0  0  0
 62138  1  0  0  0
 63 65  1  0  0  0
 63139  1  0  0  0
 63140  1  0  0  0
 63141  1  0  0  0
 64142  1  0  0  0
 65143  1  0  0  0
 68 77  1  0  0  0
 71 72  2  0  0  0
 71 74  1  0  0  0
 71 80  1  0  0  0
 72 81  1  0  0  0
 72 84  1  0  0  0
 73 80  2  0  0  0
 73 82  1  0  0  0
 73 84  1  0  0  0
 74144  1  0  0  0
 74145  1  0  0  0
 74146  1  0  0  0
 75147  1  0  0  0
 75148  1  0  0  0
 75149  1  0  0  0
 75 78  1  0  0  0
 76 78  1  0  0  0
 76 79  1  0  0  0
 76150  1  0  0  0
 76151  1  0  0  0
 77 79  1  0  0  0
 77152  1  0  0  0
 77153  1  0  0  0
 78 81  1  0  0  0
 78154  1  0  0  0
 79 83  1  0  0  0
 79155  1  0  0  0
 81156  1  0  0  0
 82157  1  0  0  0
 83158  1  0  0  0
M  ISO  4   1 100  68 101  77 101  82 100
M  END
> <chiral flag>
0

> <version>
0

> <s_m_source_file>
/data/baiqing/PycharmProjects/Reinvent-master-3.2/result/LINK_invent/BTK/process_docking_weight1_custom_product_contain_oxygen_bond_distance_aromatic_linkinvent_7_9_3/rearranged_h_0196.sdf

> <i_m_source_file_index>
61

> <r_mmod_Potential_Energy-OPLS-2005>
-59.1041412353516

> <r_mmod_Stretch_Energy-OPLS-2005>
40.5760612487793

> <r_mmod_Bend_Energy-OPLS-2005>
112.139366149902

> <r_mmod_Torsional_Energy-OPLS-2005>
234.202270507812

> <r_mmod_Improper_Torsional_Energy-OPLS-2005>
5.95403099060059

> <r_mmod_Van_der_Waal_Energy-OPLS-2005>
133.498031616211

> <r_mmod_Electrostatic_Energy-OPLS-2005>
-348.732208251953

> <r_mmod_Solvation_Energy-OPLS-2005>
-249.503890991211

> <b_mmod_Minimization_Converged-OPLS-2005>
0

> <r_mmod_RMS_Derivative-OPLS-2005>
2.47145795822144

$$$$
61
                    3D
 Structure written by MMmdl.
156164  0  0  1  0            999 V2000
  -31.2091  -14.3244   20.8174 C   0  0  0  0  0  0
  -31.1377  -12.5681   18.9697 C   0  0  0  0  0  0
  -30.1588  -12.9690   17.8332 C   0  0  0  0  0  0
  -28.7508  -13.3908   18.2521 C   0  0  0  0  0  0
  -28.4392  -14.2450   19.7133 C   0  0  2  0  0  0
  -29.5113  -12.9832   20.3137 C   0  0  0  0  0  0
  -24.5012  -14.4842   20.6707 C   0  0  0  0  0  0
  -23.6911  -13.3823   20.8174 C   0  0  0  0  0  0
  -24.3717  -12.1777   21.0372 C   0  0  0  0  0  0
  -23.8778  -10.7024   21.1330 C   0  0  0  0  0  0
  -24.3643   -9.6517   21.9737 C   0  0  0  0  0  0
  -23.6947   -8.3882   22.0908 C   0  0  0  0  0  0
  -22.5073   -8.1153   21.3618 C   0  0  0  0  0  0
  -22.0769   -9.1004   20.4557 C   0  0  0  0  0  0
  -22.7572  -10.3370   20.3333 C   0  0  0  0  0  0
  -21.7415   -6.1131   22.5206 C   0  0  0  0  0  0
  -21.4414   -6.5909   23.8160 C   0  0  0  0  0  0
  -21.3757   -5.6980   24.9070 C   0  0  0  0  0  0
  -21.6006   -4.3219   24.7107 C   0  0  0  0  0  0
  -21.8756   -3.8364   23.4211 C   0  0  0  0  0  0
  -21.9364   -4.7254   22.3313 C   0  0  0  0  0  0
  -22.2855  -13.5732   21.0820 C   0  0  0  0  0  0
  -22.1749   -4.2374   21.0902 F   0  0  0  0  0  0
  -21.5507   -3.4660   25.7595 F   0  0  0  0  0  0
  -30.7855  -13.2303   20.2081 N   0  0  0  0  0  0
  -25.7414  -14.1925   20.9900 N   0  0  0  0  0  0
  -25.2572  -12.9039   21.7312 N   0  0  0  0  0  0
  -21.7442  -12.8052   22.0163 N   0  0  0  0  0  0
  -24.3266  -15.7994   20.4139 N   0  0  0  0  0  0
  -31.9988  -15.0459   20.2302 O   0  0  0  0  0  0
  -21.7672   -6.9432   21.4191 O   0  0  0  0  0  0
  -21.7244  -14.5287   20.5761 O   0  0  0  0  0  0
  -24.7317  -31.7355   23.1149 C   0  0  0  0  0  0
  -25.9679  -32.4126   23.7834 C   0  0  1  0  0  0
  -26.8662  -26.0352   20.2719 C   0  0  0  0  0  0
  -25.6057  -33.7998   24.1642 N   0  0  0  0  0  0
  -23.5589  -30.3422   21.4860 C   0  0  2  0  0  0
  -24.9464  -28.5733   20.1012 C   0  0  0  0  0  0
  -22.7890  -29.4015   22.4551 C   0  0  0  0  0  0
  -18.0345  -28.1436   22.8431 C   0  0  0  0  0  0
  -24.1496  -36.7005   23.2667 C   0  0  0  0  0  0
  -26.1483  -30.2310   21.4757 C   0  0  0  0  0  0
  -26.1295  -28.7379   20.8214 C   0  0  0  0  0  0
  -27.0718  -27.5057   20.8659 C   0  0  0  0  0  0
  -25.7448  -26.2627   19.4279 C   0  0  0  0  0  0
  -24.8402  -27.3805   19.3672 C   0  0  0  0  0  0
  -23.8191  -29.6354   20.1203 C   0  0  0  0  0  0
  -25.4173  -36.2704   24.0238 C   0  0  1  0  0  0
  -20.5991  -28.3800   23.1066 C   0  0  2  0  0  0
  -20.6783  -26.9418   22.5414 C   0  0  0  0  0  0
  -19.5769  -26.6343   21.5222 C   0  0  0  0  0  0
  -18.1951  -26.7956   22.1609 C   0  0  0  0  0  0
  -19.1619  -28.8952   23.2722 C   0  0  0  0  0  0
  -18.9524  -30.1529   23.8783 C   0  0  0  0  0  0
  -17.6511  -30.6609   24.0540 C   0  0  0  0  0  0
  -25.9193  -34.9109   23.4815 C   0  0  0  0  0  0
  -16.5397  -29.9086   23.6358 C   0  0  0  0  0  0
  -16.7326  -28.6511   23.0372 C   0  0  0  0  0  0
  -26.4679  -31.6436   25.0704 C   0  0  0  0  0  0
  -25.3599  -31.3931   26.1222 C   0  0  0  0  0  0
  -27.0711  -30.2719   24.7064 C   0  0  0  0  0  0
  -27.6019  -32.4450   25.7529 C   0  0  0  0  0  0
  -27.5544  -37.1665   24.8466 C   0  0  0  0  0  0
  -21.4500  -29.2964   22.3328 N   0  0  0  0  0  0
  -26.4247  -37.3532   23.9406 N   0  0  0  0  0  0
  -24.8492  -30.8224   22.0729 N   0  0  0  0  0  0
  -23.4147  -28.7647   23.3060 O   0  0  0  0  0  0
  -27.4721  -24.4443   20.3816 O   0  0  0  0  0  0
  -26.5902  -34.8791   22.4481 O   0  0  0  0  0  0
  -23.6256  -32.0759   23.5782 O   0  0  0  0  0  0
  -27.1251  -12.5808   20.3341 C   0  0  0  0  0  0
  -26.3971  -13.6168   18.9320 C   0  0  0  0  0  0
  -27.7554  -13.7826   21.8086 C   0  0  0  0  0  0
  -27.0707  -16.4000   20.2657 C   0  0  0  0  0  0
  -26.7921  -20.2058   22.0241 C   0  0  0  0  0  0
  -28.5913  -13.4999   23.0657 C   0  0  0  0  0  0
  -29.9273  -14.3671   23.1371 C   0  0  0  0  0  0
  -27.0747  -22.4335   20.1194 C   0  0  0  0  0  0
  -27.3105  -20.1863   20.5824 C   0  0  2  0  0  0
  -26.5093  -15.3818   19.0591 N   0  0  0  0  0  0
  -27.6230  -15.5137   21.5390 N   0  0  0  0  0  0
  -27.0325  -18.2763   20.1034 N   0  0  0  0  0  0
  -31.0881  -14.3067   22.1746 N   0  0  0  0  0  0
  -32.1561  -12.8411   18.6880 H   0  0  0  0  0  0
  -31.1739  -11.4843   19.1044 H   0  0  0  0  0  0
  -30.1266  -12.1930   17.0667 H   0  0  0  0  0  0
  -30.6063  -13.8318   17.3370 H   0  0  0  0  0  0
  -28.2459  -12.4260   18.1328 H   0  0  0  0  0  0
  -28.3878  -14.0001   17.4207 H   0  0  0  0  0  0
  -28.9823  -15.1940   19.6284 H   0  0  0  0  0  0
  -29.2904  -11.9715   19.9335 H   0  0  0  0  0  0
  -29.5477  -12.4976   21.2717 H   0  0  0  0  0  0
  -25.2345   -9.8444   22.5861 H   0  0  0  0  0  0
  -24.0907   -7.6470   22.7702 H   0  0  0  0  0  0
  -21.2004   -8.9182   19.8498 H   0  0  0  0  0  0
  -22.3550  -11.0610   19.6386 H   0  0  0  0  0  0
  -21.2610   -7.6443   23.9749 H   0  0  0  0  0  0
  -21.1534   -6.0692   25.8971 H   0  0  0  0  0  0
  -22.0353   -2.7804   23.2651 H   0  0  0  0  0  0
  -22.2835  -12.0820   22.4688 H   0  0  0  0  0  0
  -20.7821  -12.9478   22.2888 H   0  0  0  0  0  0
  -24.7101  -16.3183   21.1936 H   0  0  0  0  0  0
  -25.0451  -15.8734   19.6790 H   0  0  0  0  0  0
  -26.7795  -32.4404   23.0550 H   0  0  0  0  0  0
  -25.0032  -33.8954   24.9686 H   0  0  0  0  0  0
  -22.9161  -31.2015   21.2840 H   0  0  0  0  0  0
  -23.3794  -35.9294   23.3232 H   0  0  0  0  0  0
  -24.3536  -36.8803   22.2099 H   0  0  0  0  0  0
  -23.7222  -37.6121   23.6855 H   0  0  0  0  0  0
  -26.4465  -30.9110   20.6770 H   0  0  0  0  0  0
  -26.9776  -30.2692   22.1668 H   0  0  0  0  0  0
  -27.9412  -27.6247   21.4973 H   0  0  0  0  0  0
  -25.4416  -25.4094   18.8380 H   0  0  0  0  0  0
  -23.9698  -27.2617   18.7371 H   0  0  0  0  0  0
  -24.0759  -30.3916   19.3779 H   0  0  0  0  0  0
  -22.8951  -29.1819   19.7594 H   0  0  0  0  0  0
  -25.1406  -36.1388   25.0725 H   0  0  0  0  0  0
  -21.0066  -28.3465   24.1198 H   0  0  0  0  0  0
  -20.5607  -26.2432   23.3713 H   0  0  0  0  0  0
  -21.6642  -26.7292   22.1257 H   0  0  0  0  0  0
  -19.6911  -25.6224   21.1326 H   0  0  0  0  0  0
  -19.6737  -27.3090   20.6708 H   0  0  0  0  0  0
  -17.4226  -26.6707   21.4007 H   0  0  0  0  0  0
  -18.0313  -26.0130   22.9029 H   0  0  0  0  0  0
  -19.8005  -30.7368   24.2105 H   0  0  0  0  0  0
  -17.5064  -31.6280   24.5162 H   0  0  0  0  0  0
  -15.5395  -30.2955   23.7754 H   0  0  0  0  0  0
  -15.8723  -28.0800   22.7151 H   0  0  0  0  0  0
  -24.5831  -30.7235   25.7516 H   0  0  0  0  0  0
  -24.8748  -32.3209   26.4260 H   0  0  0  0  0  0
  -25.7642  -30.9343   27.0254 H   0  0  0  0  0  0
  -26.3483  -29.6076   24.2326 H   0  0  0  0  0  0
  -27.4138  -29.7506   25.6013 H   0  0  0  0  0  0
  -27.9475  -30.3711   24.0660 H   0  0  0  0  0  0
  -27.2490  -33.3897   26.1681 H   0  0  0  0  0  0
  -28.4027  -32.6784   25.0499 H   0  0  0  0  0  0
  -28.0474  -31.8893   26.5792 H   0  0  0  0  0  0
  -28.2496  -38.0017   24.7513 H   0  0  0  0  0  0
  -28.1103  -36.2529   24.6298 H   0  0  0  0  0  0
  -27.2253  -37.1290   25.8866 H   0  0  0  0  0  0
  -20.9881  -29.8611   21.6333 H   0  0  0  0  0  0
  -26.0019  -38.2552   24.1431 H   0  0  0  0  0  0
  -27.1632  -11.4992   20.3487 H   0  0  0  0  0  0
  -25.9625  -13.1834   18.0425 H   0  0  0  0  0  0
  -27.1113  -21.1072   22.5469 H   0  0  0  0  0  0
  -27.1492  -19.3487   22.5939 H   0  0  0  0  0  0
  -25.7017  -20.1870   22.0363 H   0  0  0  0  0  0
  -28.7808  -12.4333   23.1933 H   0  0  0  0  0  0
  -27.9629  -13.7647   23.9163 H   0  0  0  0  0  0
  -29.6469  -15.4199   23.1946 H   0  0  0  0  0  0
  -30.3681  -14.1581   24.1120 H   0  0  0  0  0  0
  -25.9868  -22.5029   20.1428 H   0  0  0  0  0  0
  -27.3039  -22.4018   19.0539 H   0  0  0  0  0  0
  -28.3987  -20.1471   20.6452 H   0  0  0  0  0  0
  -26.6201  -18.4119   19.1847 H   0  0  0  0  0  0
  -31.8694  -14.8114   22.5689 H   0  0  0  0  0  0
  1 25  1  0  0  0
  1 30  2  0  0  0
  1 83  1  0  0  0
  2  3  1  0  0  0
  2 25  1  0  0  0
  2 84  1  0  0  0
  2 85  1  0  0  0
  3  4  1  0  0  0
  3 86  1  0  0  0
  3 87  1  0  0  0
  4  5  1  0  0  0
  4 88  1  0  0  0
  4 89  1  0  0  0
  5  6  1  0  0  0
  5 26  1  0  0  0
  5 90  1  0  0  0
  6 25  1  0  0  0
  6 91  1  0  0  0
  6 92  1  0  0  0
  7  8  2  0  0  0
  7 26  1  0  0  0
  7 29  1  0  0  0
  8  9  1  0  0  0
  8 22  1  0  0  0
  9 10  1  0  0  0
  9 27  2  0  0  0
 10 11  2  0  0  0
 10 15  1  0  0  0
 11 12  1  0  0  0
 11 93  1  0  0  0
 12 13  2  0  0  0
 12 94  1  0  0  0
 13 14  1  0  0  0
 13 31  1  0  0  0
 14 15  2  0  0  0
 14 95  1  0  0  0
 15 96  1  0  0  0
 16 17  2  0  0  0
 16 21  1  0  0  0
 16 31  1  0  0  0
 17 18  1  0  0  0
 17 97  1  0  0  0
 18 19  2  0  0  0
 18 98  1  0  0  0
 19 20  1  0  0  0
 19 24  1  0  0  0
 20 21  2  0  0  0
 20 99  1  0  0  0
 21 23  1  0  0  0
 22 28  1  0  0  0
 22 32  2  0  0  0
 26 27  1  0  0  0
 28100  1  0  0  0
 28101  1  0  0  0
 29102  1  0  0  0
 29103  1  0  0  0
 33 34  1  0  0  0
 33 66  1  0  0  0
 33 70  2  0  0  0
 34 36  1  0  0  0
 34 59  1  0  0  0
 34104  1  0  0  0
 35 44  2  0  0  0
 35 45  1  0  0  0
 35 68  1  0  0  0
 36 56  1  0  0  0
 36105  1  0  0  0
 37 39  1  0  0  0
 37 47  1  0  0  0
 37 66  1  0  0  0
 37106  1  0  0  0
 38 43  2  0  0  0
 38 46  1  0  0  0
 38 47  1  0  0  0
 39 64  1  0  0  0
 39 67  2  0  0  0
 40 52  1  0  0  0
 40 53  2  0  0  0
 40 58  1  0  0  0
 41107  1  0  0  0
 41108  1  0  0  0
 41109  1  0  0  0
 41 48  1  0  0  0
 42 43  1  0  0  0
 42 66  1  0  0  0
 42110  1  0  0  0
 42111  1  0  0  0
 43 44  1  0  0  0
 44112  1  0  0  0
 45 46  2  0  0  0
 45113  1  0  0  0
 46114  1  0  0  0
 47115  1  0  0  0
 47116  1  0  0  0
 48 56  1  0  0  0
 48 65  1  0  0  0
 48117  1  0  0  0
 49 50  1  0  0  0
 49 53  1  0  0  0
 49 64  1  0  0  0
 49118  1  0  0  0
 50 51  1  0  0  0
 50119  1  0  0  0
 50120  1  0  0  0
 51 52  1  0  0  0
 51121  1  0  0  0
 51122  1  0  0  0
 52123  1  0  0  0
 52124  1  0  0  0
 53 54  1  0  0  0
 54 55  2  0  0  0
 54125  1  0  0  0
 55 57  1  0  0  0
 55126  1  0  0  0
 56 69  2  0  0  0
 57 58  2  0  0  0
 57127  1  0  0  0
 58128  1  0  0  0
 59 60  1  0  0  0
 59 61  1  0  0  0
 59 62  1  0  0  0
 60129  1  0  0  0
 60130  1  0  0  0
 60131  1  0  0  0
 61132  1  0  0  0
 61133  1  0  0  0
 61134  1  0  0  0
 62135  1  0  0  0
 62136  1  0  0  0
 62137  1  0  0  0
 63 65  1  0  0  0
 63138  1  0  0  0
 63139  1  0  0  0
 63140  1  0  0  0
 64141  1  0  0  0
 65142  1  0  0  0
 68 78  1  0  0  0
 71 72  2  0  0  0
 71 73  1  0  0  0
 71143  1  0  0  0
 72 80  1  0  0  0
 72144  1  0  0  0
 73 76  1  0  0  0
 73 81  2  0  0  0
 74 80  2  0  0  0
 74 81  1  0  0  0
 74 82  1  0  0  0
 75145  1  0  0  0
 75146  1  0  0  0
 75147  1  0  0  0
 75 79  1  0  0  0
 76 77  1  0  0  0
 76148  1  0  0  0
 76149  1  0  0  0
 77 83  1  0  0  0
 77150  1  0  0  0
 77151  1  0  0  0
 78 79  1  0  0  0
 78152  1  0  0  0
 78153  1  0  0  0
 79 82  1  0  0  0
 79154  1  0  0  0
 82155  1  0  0  0
 83156  1  0  0  0
M  ISO  4   1 100  68 101  78 101  83 100
M  END
> <chiral flag>
0

> <version>
0

> <s_m_source_file>
/data/baiqing/PycharmProjects/Reinvent-master-3.2/result/LINK_invent/BTK/process_docking_weight1_custom_product_contain_oxygen_bond_distance_aromatic_linkinvent_7_9_3/rearranged_h_0196.sdf

> <i_m_source_file_index>
62

> <r_mmod_Potential_Energy-OPLS-2005>
15061.02734375

> <r_mmod_Stretch_Energy-OPLS-2005>
8421.0458984375

> <r_mmod_Bend_Energy-OPLS-2005>
1350.13525390625

> <r_mmod_Torsional_Energy-OPLS-2005>
459.392608642578

> <r_mmod_Improper_Torsional_Energy-OPLS-2005>
51.8952751159668

> <r_mmod_Van_der_Waal_Energy-OPLS-2005>
2818.83715820312

> <r_mmod_Electrostatic_Energy-OPLS-2005>
-761.608032226562

> <r_mmod_Solvation_Energy-OPLS-2005>
-259.478179931641

> <b_mmod_Minimization_Converged-OPLS-2005>
0

> <r_mmod_RMS_Derivative-OPLS-2005>
3.11214113235474

$$$$
62
                    3D
 Structure written by MMmdl.
153161  0  0  1  0            999 V2000
  -30.6783  -14.4923   20.5650 C   0  0  0  0  0  0
  -30.4293  -12.3163   19.4250 C   0  0  0  0  0  0
  -29.4988  -12.5075   18.2084 C   0  0  0  0  0  0
  -28.0191  -12.3644   18.6192 C   0  0  0  0  0  0
  -27.6626  -13.2038   19.8752 C   0  0  2  0  0  0
  -28.7037  -12.9828   20.9961 C   0  0  0  0  0  0
  -25.2598  -13.8152   20.5675 C   0  0  0  0  0  0
  -24.1844  -13.0436   20.9173 C   0  0  0  0  0  0
  -24.6392  -11.6900   20.8728 C   0  0  0  0  0  0
  -23.9055  -10.4290   21.0400 C   0  0  0  0  0  0
  -24.3608   -9.4207   21.9180 C   0  0  0  0  0  0
  -23.6285   -8.2243   22.0753 C   0  0  0  0  0  0
  -22.4267   -8.0280   21.3544 C   0  0  0  0  0  0
  -21.9899   -9.0253   20.4647 C   0  0  0  0  0  0
  -22.7226  -10.2132   20.3053 C   0  0  0  0  0  0
  -21.6853   -6.0732   22.5278 C   0  0  0  0  0  0
  -21.4016   -6.5636   23.8212 C   0  0  0  0  0  0
  -21.3657   -5.6790   24.9175 C   0  0  0  0  0  0
  -21.6041   -4.3053   24.7226 C   0  0  0  0  0  0
  -21.8820   -3.8144   23.4348 C   0  0  0  0  0  0
  -21.9194   -4.6960   22.3403 C   0  0  0  0  0  0
  -22.7868  -13.5241   21.1839 C   0  0  0  0  0  0
  -22.1661   -4.2146   21.0981 F   0  0  0  0  0  0
  -21.5627   -3.4539   25.7741 F   0  0  0  0  0  0
  -30.0337  -13.2987   20.4469 N   0  0  0  0  0  0
  -26.3029  -12.9312   20.3357 N   0  0  0  0  0  0
  -25.9317  -11.6476   20.5754 N   0  0  0  0  0  0
  -22.0503  -12.8241   22.0396 N   0  0  0  0  0  0
  -25.4336  -15.1869   20.4082 N   0  0  0  0  0  0
  -31.8090  -14.6855   20.1083 O   0  0  0  0  0  0
  -21.6635   -6.8874   21.4240 O   0  0  0  0  0  0
  -22.3558  -14.5550   20.6688 O   0  0  0  0  0  0
  -24.6159  -31.8674   23.2093 C   0  0  0  0  0  0
  -25.9047  -32.4819   23.8394 C   0  0  1  0  0  0
  -27.2333  -27.4237   20.1030 C   0  0  0  0  0  0
  -25.5901  -33.8616   24.2328 N   0  0  0  0  0  0
  -23.4048  -30.4899   21.5501 C   0  0  2  0  0  0
  -24.8527  -28.9532   20.1166 C   0  0  0  0  0  0
  -22.7418  -29.4656   22.4989 C   0  0  0  0  0  0
  -18.0275  -28.1378   22.8493 C   0  0  0  0  0  0
  -24.1483  -36.7312   23.2637 C   0  0  0  0  0  0
  -25.9348  -30.8295   21.3645 C   0  0  0  0  0  0
  -26.0135  -29.4623   20.7136 C   0  0  0  0  0  0
  -27.2098  -28.7056   20.7022 C   0  0  0  0  0  0
  -26.0595  -26.9341   19.4951 C   0  0  0  0  0  0
  -24.8710  -27.6884   19.5032 C   0  0  0  0  0  0
  -23.6145  -29.8208   20.1654 C   0  0  0  0  0  0
  -25.4103  -36.3108   24.0338 C   0  0  1  0  0  0
  -20.5865  -28.3668   23.1316 C   0  0  2  0  0  0
  -20.6764  -26.9402   22.5418 C   0  0  0  0  0  0
  -19.5742  -26.6386   21.5213 C   0  0  0  0  0  0
  -18.1920  -26.7927   22.1622 C   0  0  0  0  0  0
  -19.1524  -28.8840   23.2902 C   0  0  0  0  0  0
  -18.9451  -30.1446   23.8912 C   0  0  0  0  0  0
  -17.6453  -30.6584   24.0564 C   0  0  0  0  0  0
  -25.9032  -34.9473   23.5130 C   0  0  0  0  0  0
  -16.5345  -29.9086   23.6324 C   0  0  0  0  0  0
  -16.7263  -28.6502   23.0349 C   0  0  0  0  0  0
  -26.4472  -31.6597   25.0724 C   0  0  0  0  0  0
  -25.3739  -31.3709   26.1477 C   0  0  0  0  0  0
  -27.0297  -30.3037   24.6100 C   0  0  0  0  0  0
  -27.6055  -32.4311   25.7479 C   0  0  0  0  0  0
  -27.5580  -37.1804   24.8461 C   0  0  0  0  0  0
  -21.4144  -29.3035   22.3724 N   0  0  0  0  0  0
  -26.4288  -37.3793   23.9411 N   0  0  0  0  0  0
  -24.6700  -31.0766   22.0998 N   0  0  0  0  0  0
  -23.4182  -28.8199   23.3039 O   0  0  0  0  0  0
  -28.3809  -26.6587   20.0895 O   0  0  0  0  0  0
  -26.5593  -34.8926   22.4690 O   0  0  0  0  0  0
  -23.5347  -32.1431   23.7480 O   0  0  0  0  0  0
  -31.3251  -17.5976   20.5610 C   0  0  0  0  0  0
  -29.3070  -17.8856   21.4385 C   0  0  0  0  0  0
  -30.1731  -16.9042   21.0309 C   0  0  0  0  0  0
  -29.3105  -21.6001   20.6128 C   0  0  0  0  0  0
  -28.9293  -22.9833   21.2021 C   0  0  0  0  0  0
  -29.4897  -20.4474   21.6308 C   0  0  0  0  0  0
  -28.3543  -25.4985   20.9465 C   0  0  0  0  0  0
  -28.4839  -24.1190   20.2236 C   0  0  2  0  0  0
  -31.1834  -18.9144   20.7010 N   0  0  0  0  0  0
  -29.9399  -19.1044   21.2228 N   0  0  0  0  0  0
  -29.9356  -15.4902   21.0923 N   0  0  0  0  0  0
  -29.4696  -21.4299   19.3989 O   0  0  0  0  0  0
  -27.2100  -23.7843   19.6876 O   0  0  0  0  0  0
  -31.4730  -12.4242   19.1242 H   0  0  0  0  0  0
  -30.3379  -11.3045   19.8227 H   0  0  0  0  0  0
  -29.7416  -11.7824   17.4303 H   0  0  0  0  0  0
  -29.6640  -13.4928   17.7696 H   0  0  0  0  0  0
  -27.8310  -11.3082   18.8151 H   0  0  0  0  0  0
  -27.3697  -12.6384   17.7870 H   0  0  0  0  0  0
  -27.7066  -14.2515   19.5771 H   0  0  0  0  0  0
  -28.6849  -11.9445   21.3308 H   0  0  0  0  0  0
  -28.4614  -13.5740   21.8802 H   0  0  0  0  0  0
  -25.2753   -9.5685   22.4753 H   0  0  0  0  0  0
  -23.9996   -7.4634   22.7472 H   0  0  0  0  0  0
  -21.0829   -8.8771   19.8954 H   0  0  0  0  0  0
  -22.3684  -10.9670   19.6162 H   0  0  0  0  0  0
  -21.2009   -7.6144   23.9714 H   0  0  0  0  0  0
  -21.1476   -6.0521   25.9077 H   0  0  0  0  0  0
  -22.0601   -2.7606   23.2852 H   0  0  0  0  0  0
  -22.4106  -11.9899   22.4785 H   0  0  0  0  0  0
  -21.1121  -13.1275   22.2593 H   0  0  0  0  0  0
  -24.6667  -15.8427   20.5100 H   0  0  0  0  0  0
  -26.2829  -15.6218   20.0698 H   0  0  0  0  0  0
  -26.7123  -32.5531   23.1164 H   0  0  0  0  0  0
  -25.0062  -33.9779   25.0480 H   0  0  0  0  0  0
  -22.6939  -31.3068   21.4095 H   0  0  0  0  0  0
  -23.3744  -35.9646   23.3301 H   0  0  0  0  0  0
  -24.3581  -36.8925   22.2052 H   0  0  0  0  0  0
  -23.7235  -37.6517   23.6650 H   0  0  0  0  0  0
  -26.0480  -31.5939   20.5946 H   0  0  0  0  0  0
  -26.8223  -30.8846   21.9831 H   0  0  0  0  0  0
  -28.1073  -29.0946   21.1626 H   0  0  0  0  0  0
  -26.0632  -25.9711   19.0067 H   0  0  0  0  0  0
  -23.9810  -27.2924   19.0339 H   0  0  0  0  0  0
  -23.7228  -30.5948   19.4048 H   0  0  0  0  0  0
  -22.7385  -29.2402   19.8703 H   0  0  0  0  0  0
  -25.1276  -36.1975   25.0830 H   0  0  0  0  0  0
  -20.9955  -28.3234   24.1438 H   0  0  0  0  0  0
  -20.5666  -26.2275   23.3606 H   0  0  0  0  0  0
  -21.6636  -26.7446   22.1210 H   0  0  0  0  0  0
  -19.6902  -25.6300   21.1234 H   0  0  0  0  0  0
  -19.6680  -27.3203   20.6747 H   0  0  0  0  0  0
  -17.4192  -26.6685   21.4020 H   0  0  0  0  0  0
  -18.0312  -26.0063   22.9010 H   0  0  0  0  0  0
  -19.7927  -30.7259   24.2286 H   0  0  0  0  0  0
  -17.5009  -31.6267   24.5162 H   0  0  0  0  0  0
  -15.5346  -30.2993   23.7639 H   0  0  0  0  0  0
  -15.8664  -28.0824   22.7058 H   0  0  0  0  0  0
  -24.5900  -30.7070   25.7817 H   0  0  0  0  0  0
  -24.8947  -32.2869   26.4943 H   0  0  0  0  0  0
  -25.8092  -30.8861   27.0224 H   0  0  0  0  0  0
  -26.2839  -29.6802   24.1155 H   0  0  0  0  0  0
  -27.4070  -29.7271   25.4557 H   0  0  0  0  0  0
  -27.8675  -30.4356   23.9248 H   0  0  0  0  0  0
  -27.2686  -33.3604   26.2084 H   0  0  0  0  0  0
  -28.3846  -32.6879   25.0288 H   0  0  0  0  0  0
  -28.0743  -31.8416   26.5369 H   0  0  0  0  0  0
  -28.2598  -38.0102   24.7518 H   0  0  0  0  0  0
  -28.1075  -36.2638   24.6266 H   0  0  0  0  0  0
  -27.2305  -37.1436   25.8866 H   0  0  0  0  0  0
  -20.9306  -29.8760   21.6947 H   0  0  0  0  0  0
  -26.0179  -38.2870   24.1415 H   0  0  0  0  0  0
  -32.2477  -17.2097   20.1526 H   0  0  0  0  0  0
  -28.3220  -17.8280   21.8815 H   0  0  0  0  0  0
  -29.8124  -23.3260   21.7416 H   0  0  0  0  0  0
  -28.1641  -22.8293   21.9627 H   0  0  0  0  0  0
  -28.5337  -20.3278   22.1405 H   0  0  0  0  0  0
  -30.1828  -20.7999   22.3943 H   0  0  0  0  0  0
  -29.2171  -25.6174   21.6028 H   0  0  0  0  0  0
  -27.4913  -25.5037   21.6164 H   0  0  0  0  0  0
  -29.2124  -24.2023   19.4154 H   0  0  0  0  0  0
  -29.0396  -15.1998   21.4544 H   0  0  0  0  0  0
  -26.5641  -23.8664   20.3822 H   0  0  0  0  0  0
  1 25  1  0  0  0
  1 30  2  0  0  0
  1 81  1  0  0  0
  2  3  1  0  0  0
  2 25  1  0  0  0
  2 84  1  0  0  0
  2 85  1  0  0  0
  3  4  1  0  0  0
  3 86  1  0  0  0
  3 87  1  0  0  0
  4  5  1  0  0  0
  4 88  1  0  0  0
  4 89  1  0  0  0
  5  6  1  0  0  0
  5 26  1  0  0  0
  5 90  1  0  0  0
  6 25  1  0  0  0
  6 91  1  0  0  0
  6 92  1  0  0  0
  7  8  2  0  0  0
  7 26  1  0  0  0
  7 29  1  0  0  0
  8  9  1  0  0  0
  8 22  1  0  0  0
  9 10  1  0  0  0
  9 27  2  0  0  0
 10 11  2  0  0  0
 10 15  1  0  0  0
 11 12  1  0  0  0
 11 93  1  0  0  0
 12 13  2  0  0  0
 12 94  1  0  0  0
 13 14  1  0  0  0
 13 31  1  0  0  0
 14 15  2  0  0  0
 14 95  1  0  0  0
 15 96  1  0  0  0
 16 17  2  0  0  0
 16 21  1  0  0  0
 16 31  1  0  0  0
 17 18  1  0  0  0
 17 97  1  0  0  0
 18 19  2  0  0  0
 18 98  1  0  0  0
 19 20  1  0  0  0
 19 24  1  0  0  0
 20 21  2  0  0  0
 20 99  1  0  0  0
 21 23  1  0  0  0
 22 28  1  0  0  0
 22 32  2  0  0  0
 26 27  1  0  0  0
 28100  1  0  0  0
 28101  1  0  0  0
 29102  1  0  0  0
 29103  1  0  0  0
 33 34  1  0  0  0
 33 66  1  0  0  0
 33 70  2  0  0  0
 34 36  1  0  0  0
 34 59  1  0  0  0
 34104  1  0  0  0
 35 44  2  0  0  0
 35 45  1  0  0  0
 35 68  1  0  0  0
 36 56  1  0  0  0
 36105  1  0  0  0
 37 39  1  0  0  0
 37 47  1  0  0  0
 37 66  1  0  0  0
 37106  1  0  0  0
 38 43  2  0  0  0
 38 46  1  0  0  0
 38 47  1  0  0  0
 39 64  1  0  0  0
 39 67  2  0  0  0
 40 52  1  0  0  0
 40 53  2  0  0  0
 40 58  1  0  0  0
 41107  1  0  0  0
 41108  1  0  0  0
 41109  1  0  0  0
 41 48  1  0  0  0
 42 43  1  0  0  0
 42 66  1  0  0  0
 42110  1  0  0  0
 42111  1  0  0  0
 43 44  1  0  0  0
 44112  1  0  0  0
 45 46  2  0  0  0
 45113  1  0  0  0
 46114  1  0  0  0
 47115  1  0  0  0
 47116  1  0  0  0
 48 56  1  0  0  0
 48 65  1  0  0  0
 48117  1  0  0  0
 49 50  1  0  0  0
 49 53  1  0  0  0
 49 64  1  0  0  0
 49118  1  0  0  0
 50 51  1  0  0  0
 50119  1  0  0  0
 50120  1  0  0  0
 51 52  1  0  0  0
 51121  1  0  0  0
 51122  1  0  0  0
 52123  1  0  0  0
 52124  1  0  0  0
 53 54  1  0  0  0
 54 55  2  0  0  0
 54125  1  0  0  0
 55 57  1  0  0  0
 55126  1  0  0  0
 56 69  2  0  0  0
 57 58  2  0  0  0
 57127  1  0  0  0
 58128  1  0  0  0
 59 60  1  0  0  0
 59 61  1  0  0  0
 59 62  1  0  0  0
 60129  1  0  0  0
 60130  1  0  0  0
 60131  1  0  0  0
 61132  1  0  0  0
 61133  1  0  0  0
 61134  1  0  0  0
 62135  1  0  0  0
 62136  1  0  0  0
 62137  1  0  0  0
 63 65  1  0  0  0
 63138  1  0  0  0
 63139  1  0  0  0
 63140  1  0  0  0
 64141  1  0  0  0
 65142  1  0  0  0
 68 77  1  0  0  0
 71 73  1  0  0  0
 71 79  2  0  0  0
 71143  1  0  0  0
 72 73  2  0  0  0
 72 80  1  0  0  0
 72144  1  0  0  0
 73 81  1  0  0  0
 74 75  1  0  0  0
 74 76  1  0  0  0
 74 82  2  0  0  0
 75 78  1  0  0  0
 75145  1  0  0  0
 75146  1  0  0  0
 76 80  1  0  0  0
 76147  1  0  0  0
 76148  1  0  0  0
 77 78  1  0  0  0
 77149  1  0  0  0
 77150  1  0  0  0
 78 83  1  0  0  0
 78151  1  0  0  0
 79 80  1  0  0  0
 81152  1  0  0  0
 83153  1  0  0  0
M  ISO  4   1 100  68 101  77 101  81 100
M  END
> <chiral flag>
0

> <version>
0

> <s_m_source_file>
/data/baiqing/PycharmProjects/Reinvent-master-3.2/result/LINK_invent/BTK/process_docking_weight1_custom_product_contain_oxygen_bond_distance_aromatic_linkinvent_7_9_3/rearranged_h_0196.sdf

> <i_m_source_file_index>
63

> <r_mmod_Potential_Energy-OPLS-2005>
-59.8295402526855

> <r_mmod_Stretch_Energy-OPLS-2005>
40.4920959472656

> <r_mmod_Bend_Energy-OPLS-2005>
113.618309020996

> <r_mmod_Torsional_Energy-OPLS-2005>
231.375

> <r_mmod_Improper_Torsional_Energy-OPLS-2005>
4.02156543731689

> <r_mmod_Van_der_Waal_Energy-OPLS-2005>
125.267715454102

> <r_mmod_Electrostatic_Energy-OPLS-2005>
-309.050750732422

> <r_mmod_Solvation_Energy-OPLS-2005>
-279.807830810547

> <b_mmod_Minimization_Converged-OPLS-2005>
0

> <r_mmod_RMS_Derivative-OPLS-2005>
0.359268963336945

$$$$
63
                    3D
 Structure written by MMmdl.
151159  0  0  1  0            999 V2000
  -30.6025  -14.7510   20.4296 C   0  0  0  0  0  0
  -30.4336  -12.4502   19.4971 C   0  0  0  0  0  0
  -29.5180  -12.5002   18.2533 C   0  0  0  0  0  0
  -28.0443  -12.3172   18.6637 C   0  0  0  0  0  0
  -27.6397  -13.2279   19.8513 C   0  0  2  0  0  0
  -28.6789  -13.1840   20.9932 C   0  0  0  0  0  0
  -25.2492  -13.8181   20.5696 C   0  0  0  0  0  0
  -24.1757  -13.0448   20.9204 C   0  0  0  0  0  0
  -24.6322  -11.6916   20.8730 C   0  0  0  0  0  0
  -23.8986  -10.4297   21.0402 C   0  0  0  0  0  0
  -24.3558   -9.4233   21.9187 C   0  0  0  0  0  0
  -23.6254   -8.2262   22.0765 C   0  0  0  0  0  0
  -22.4244   -8.0277   21.3556 C   0  0  0  0  0  0
  -21.9852   -9.0235   20.4663 C   0  0  0  0  0  0
  -22.7155  -10.2134   20.3061 C   0  0  0  0  0  0
  -21.6852   -6.0712   22.5272 C   0  0  0  0  0  0
  -21.4014   -6.5627   23.8197 C   0  0  0  0  0  0
  -21.3667   -5.6790   24.9172 C   0  0  0  0  0  0
  -21.6050   -4.3050   24.7228 C   0  0  0  0  0  0
  -21.8818   -3.8132   23.4346 C   0  0  0  0  0  0
  -21.9184   -4.6937   22.3402 C   0  0  0  0  0  0
  -22.7788  -13.5261   21.1857 C   0  0  0  0  0  0
  -22.1664   -4.2119   21.0978 F   0  0  0  0  0  0
  -21.5625   -3.4542   25.7741 F   0  0  0  0  0  0
  -29.9873  -13.5203   20.4176 N   0  0  0  0  0  0
  -26.2898  -12.9372   20.3261 N   0  0  0  0  0  0
  -25.9255  -11.6524   20.5720 N   0  0  0  0  0  0
  -22.0416  -12.8281   22.0425 N   0  0  0  0  0  0
  -25.4195  -15.1899   20.4111 N   0  0  0  0  0  0
  -31.7888  -14.8441   20.1016 O   0  0  0  0  0  0
  -21.6654   -6.8856   21.4227 O   0  0  0  0  0  0
  -22.3498  -14.5589   20.6730 O   0  0  0  0  0  0
  -24.6309  -31.8539   23.2018 C   0  0  0  0  0  0
  -25.9126  -32.4755   23.8367 C   0  0  1  0  0  0
  -27.2167  -27.2570   20.1240 C   0  0  0  0  0  0
  -25.5920  -33.8555   24.2286 N   0  0  0  0  0  0
  -23.4278  -30.4772   21.5430 C   0  0  2  0  0  0
  -24.8756  -28.9266   20.1093 C   0  0  0  0  0  0
  -22.7487  -29.4589   22.4908 C   0  0  0  0  0  0
  -18.0271  -28.1397   22.8461 C   0  0  0  0  0  0
  -24.1474  -36.7293   23.2639 C   0  0  0  0  0  0
  -25.9730  -30.7692   21.3800 C   0  0  0  0  0  0
  -26.0465  -29.3906   20.7228 C   0  0  0  0  0  0
  -27.2188  -28.5651   20.7223 C   0  0  0  0  0  0
  -26.0253  -26.8746   19.4669 C   0  0  0  0  0  0
  -24.8704  -27.6784   19.4713 C   0  0  0  0  0  0
  -23.6460  -29.8122   20.1592 C   0  0  0  0  0  0
  -25.4095  -36.3070   24.0333 C   0  0  1  0  0  0
  -20.5874  -28.3700   23.1265 C   0  0  2  0  0  0
  -20.6757  -26.9414   22.5406 C   0  0  0  0  0  0
  -19.5751  -26.6383   21.5196 C   0  0  0  0  0  0
  -18.1926  -26.7927   22.1603 C   0  0  0  0  0  0
  -19.1524  -28.8864   23.2859 C   0  0  0  0  0  0
  -18.9444  -30.1462   23.8893 C   0  0  0  0  0  0
  -17.6449  -30.6595   24.0550 C   0  0  0  0  0  0
  -25.9027  -34.9433   23.5109 C   0  0  0  0  0  0
  -16.5340  -29.9090   23.6336 C   0  0  0  0  0  0
  -16.7258  -28.6501   23.0355 C   0  0  0  0  0  0
  -26.4495  -31.6580   25.0756 C   0  0  0  0  0  0
  -25.3734  -31.3747   26.1491 C   0  0  0  0  0  0
  -27.0342  -30.2988   24.6280 C   0  0  0  0  0  0
  -27.6053  -32.4316   25.7548 C   0  0  0  0  0  0
  -27.5569  -37.1800   24.8459 C   0  0  0  0  0  0
  -21.4189  -29.3033   22.3641 N   0  0  0  0  0  0
  -26.4269  -37.3765   23.9410 N   0  0  0  0  0  0
  -24.6970  -31.0506   22.0996 N   0  0  0  0  0  0
  -23.4185  -28.8129   23.2998 O   0  0  0  0  0  0
  -28.3095  -26.3544   20.2015 O   0  0  0  0  0  0
  -26.5586  -34.8902   22.4677 O   0  0  0  0  0  0
  -23.5459  -32.1348   23.7318 O   0  0  0  0  0  0
  -29.6286  -18.9210   21.8869 C   0  0  0  0  0  0
  -29.6522  -18.6231   20.5451 C   0  0  0  0  0  0
  -29.1755  -20.9758   20.5074 C   0  0  0  0  0  0
  -30.5491  -24.1222   20.3603 C   0  0  0  0  0  0
  -30.0467  -17.2424   19.8836 C   0  0  0  0  0  0
  -28.1317  -24.8930   19.8656 C   0  0  0  0  0  0
  -29.0729  -23.7335   20.5013 C   0  0  2  0  0  0
  -29.3642  -19.8241   19.7906 N   0  0  0  0  0  0
  -28.9111  -22.3050   20.0087 N   0  0  0  0  0  0
  -29.8151  -15.8847   20.5457 N   0  0  0  0  0  0
  -29.3135  -20.6265   22.2295 S   0  0  0  0  0  0
  -31.4791  -12.5604   19.2000 H   0  0  0  0  0  0
  -30.3656  -11.4819   19.9952 H   0  0  0  0  0  0
  -29.8097  -11.7251   17.5436 H   0  0  0  0  0  0
  -29.6388  -13.4533   17.7346 H   0  0  0  0  0  0
  -27.9117  -11.2728   18.9469 H   0  0  0  0  0  0
  -27.3880  -12.4895   17.8104 H   0  0  0  0  0  0
  -27.6301  -14.2426   19.4546 H   0  0  0  0  0  0
  -28.7047  -12.2001   21.4633 H   0  0  0  0  0  0
  -28.4057  -13.8888   21.7788 H   0  0  0  0  0  0
  -25.2683   -9.5753   22.4774 H   0  0  0  0  0  0
  -23.9974   -7.4662   22.7487 H   0  0  0  0  0  0
  -21.0779   -8.8722   19.8971 H   0  0  0  0  0  0
  -22.3552  -10.9674   19.6190 H   0  0  0  0  0  0
  -21.2020   -7.6140   23.9687 H   0  0  0  0  0  0
  -21.1495   -6.0535   25.9073 H   0  0  0  0  0  0
  -22.0582   -2.7585   23.2856 H   0  0  0  0  0  0
  -22.3969  -11.9930   22.4842 H   0  0  0  0  0  0
  -21.1059  -13.1385   22.2650 H   0  0  0  0  0  0
  -24.6522  -15.8455   20.5158 H   0  0  0  0  0  0
  -26.2625  -15.6241   20.0588 H   0  0  0  0  0  0
  -26.7196  -32.5418   23.1108 H   0  0  0  0  0  0
  -25.0093  -33.9703   25.0455 H   0  0  0  0  0  0
  -22.7242  -31.2994   21.3973 H   0  0  0  0  0  0
  -23.3728  -35.9634   23.3292 H   0  0  0  0  0  0
  -24.3557  -36.8924   22.2055 H   0  0  0  0  0  0
  -23.7236  -37.6501   23.6657 H   0  0  0  0  0  0
  -26.1023  -31.5293   20.6082 H   0  0  0  0  0  0
  -26.8548  -30.8283   22.0071 H   0  0  0  0  0  0
  -28.1118  -28.9094   21.2261 H   0  0  0  0  0  0
  -25.9511  -25.9288   18.9530 H   0  0  0  0  0  0
  -23.9738  -27.3249   18.9803 H   0  0  0  0  0  0
  -23.7639  -30.5877   19.4013 H   0  0  0  0  0  0
  -22.7661  -29.2393   19.8605 H   0  0  0  0  0  0
  -25.1270  -36.1921   25.0824 H   0  0  0  0  0  0
  -20.9961  -28.3282   24.1395 H   0  0  0  0  0  0
  -20.5624  -26.2321   23.3614 H   0  0  0  0  0  0
  -21.6632  -26.7413   22.1237 H   0  0  0  0  0  0
  -19.6913  -25.6287   21.1257 H   0  0  0  0  0  0
  -19.6712  -27.3166   20.6709 H   0  0  0  0  0  0
  -17.4191  -26.6650   21.4013 H   0  0  0  0  0  0
  -18.0333  -26.0083   22.9022 H   0  0  0  0  0  0
  -19.7921  -30.7258   24.2284 H   0  0  0  0  0  0
  -17.5005  -31.6278   24.5142 H   0  0  0  0  0  0
  -15.5342  -30.2994   23.7669 H   0  0  0  0  0  0
  -15.8645  -28.0822   22.7101 H   0  0  0  0  0  0
  -24.5952  -30.7015   25.7874 H   0  0  0  0  0  0
  -24.8870  -32.2917   26.4828 H   0  0  0  0  0  0
  -25.8081  -30.9042   27.0323 H   0  0  0  0  0  0
  -26.2951  -29.6745   24.1250 H   0  0  0  0  0  0
  -27.3925  -29.7239   25.4831 H   0  0  0  0  0  0
  -27.8864  -30.4223   23.9594 H   0  0  0  0  0  0
  -27.2667  -33.3638   26.2078 H   0  0  0  0  0  0
  -28.3915  -32.6835   25.0418 H   0  0  0  0  0  0
  -28.0658  -31.8465   26.5517 H   0  0  0  0  0  0
  -28.2579  -38.0101   24.7481 H   0  0  0  0  0  0
  -28.1066  -36.2629   24.6292 H   0  0  0  0  0  0
  -27.2285  -37.1466   25.8861 H   0  0  0  0  0  0
  -20.9368  -29.8777   21.6868 H   0  0  0  0  0  0
  -26.0153  -38.2842   24.1414 H   0  0  0  0  0  0
  -29.8248  -18.2409   22.7055 H   0  0  0  0  0  0
  -30.8570  -24.1274   19.3139 H   0  0  0  0  0  0
  -31.1939  -23.4217   20.8928 H   0  0  0  0  0  0
  -30.7385  -25.1181   20.7668 H   0  0  0  0  0  0
  -31.1012  -17.3014   19.6125 H   0  0  0  0  0  0
  -29.5421  -17.1746   18.9177 H   0  0  0  0  0  0
  -27.1181  -24.5911   20.1263 H   0  0  0  0  0  0
  -28.1936  -24.8214   18.7789 H   0  0  0  0  0  0
  -28.8542  -23.7044   21.5687 H   0  0  0  0  0  0
  -28.7668  -22.2827   19.0034 H   0  0  0  0  0  0
  -28.8617  -15.7131   20.8264 H   0  0  0  0  0  0
  1 25  1  0  0  0
  1 30  2  0  0  0
  1 80  1  0  0  0
  2  3  1  0  0  0
  2 25  1  0  0  0
  2 82  1  0  0  0
  2 83  1  0  0  0
  3  4  1  0  0  0
  3 84  1  0  0  0
  3 85  1  0  0  0
  4  5  1  0  0  0
  4 86  1  0  0  0
  4 87  1  0  0  0
  5  6  1  0  0  0
  5 26  1  0  0  0
  5 88  1  0  0  0
  6 25  1  0  0  0
  6 89  1  0  0  0
  6 90  1  0  0  0
  7  8  2  0  0  0
  7 26  1  0  0  0
  7 29  1  0  0  0
  8  9  1  0  0  0
  8 22  1  0  0  0
  9 10  1  0  0  0
  9 27  2  0  0  0
 10 11  2  0  0  0
 10 15  1  0  0  0
 11 12  1  0  0  0
 11 91  1  0  0  0
 12 13  2  0  0  0
 12 92  1  0  0  0
 13 14  1  0  0  0
 13 31  1  0  0  0
 14 15  2  0  0  0
 14 93  1  0  0  0
 15 94  1  0  0  0
 16 17  2  0  0  0
 16 21  1  0  0  0
 16 31  1  0  0  0
 17 18  1  0  0  0
 17 95  1  0  0  0
 18 19  2  0  0  0
 18 96  1  0  0  0
 19 20  1  0  0  0
 19 24  1  0  0  0
 20 21  2  0  0  0
 20 97  1  0  0  0
 21 23  1  0  0  0
 22 28  1  0  0  0
 22 32  2  0  0  0
 26 27  1  0  0  0
 28 98  1  0  0  0
 28 99  1  0  0  0
 29100  1  0  0  0
 29101  1  0  0  0
 33 34  1  0  0  0
 33 66  1  0  0  0
 33 70  2  0  0  0
 34 36  1  0  0  0
 34 59  1  0  0  0
 34102  1  0  0  0
 35 44  2  0  0  0
 35 45  1  0  0  0
 35 68  1  0  0  0
 36 56  1  0  0  0
 36103  1  0  0  0
 37 39  1  0  0  0
 37 47  1  0  0  0
 37 66  1  0  0  0
 37104  1  0  0  0
 38 43  2  0  0  0
 38 46  1  0  0  0
 38 47  1  0  0  0
 39 64  1  0  0  0
 39 67  2  0  0  0
 40 52  1  0  0  0
 40 53  2  0  0  0
 40 58  1  0  0  0
 41105  1  0  0  0
 41106  1  0  0  0
 41107  1  0  0  0
 41 48  1  0  0  0
 42 43  1  0  0  0
 42 66  1  0  0  0
 42108  1  0  0  0
 42109  1  0  0  0
 43 44  1  0  0  0
 44110  1  0  0  0
 45 46  2  0  0  0
 45111  1  0  0  0
 46112  1  0  0  0
 47113  1  0  0  0
 47114  1  0  0  0
 48 56  1  0  0  0
 48 65  1  0  0  0
 48115  1  0  0  0
 49 50  1  0  0  0
 49 53  1  0  0  0
 49 64  1  0  0  0
 49116  1  0  0  0
 50 51  1  0  0  0
 50117  1  0  0  0
 50118  1  0  0  0
 51 52  1  0  0  0
 51119  1  0  0  0
 51120  1  0  0  0
 52121  1  0  0  0
 52122  1  0  0  0
 53 54  1  0  0  0
 54 55  2  0  0  0
 54123  1  0  0  0
 55 57  1  0  0  0
 55124  1  0  0  0
 56 69  2  0  0  0
 57 58  2  0  0  0
 57125  1  0  0  0
 58126  1  0  0  0
 59 60  1  0  0  0
 59 61  1  0  0  0
 59 62  1  0  0  0
 60127  1  0  0  0
 60128  1  0  0  0
 60129  1  0  0  0
 61130  1  0  0  0
 61131  1  0  0  0
 61132  1  0  0  0
 62133  1  0  0  0
 62134  1  0  0  0
 62135  1  0  0  0
 63 65  1  0  0  0
 63136  1  0  0  0
 63137  1  0  0  0
 63138  1  0  0  0
 64139  1  0  0  0
 65140  1  0  0  0
 68 76  1  0  0  0
 71 72  2  0  0  0
 71 81  1  0  0  0
 71141  1  0  0  0
 72 75  1  0  0  0
 72 78  1  0  0  0
 73 78  2  0  0  0
 73 79  1  0  0  0
 73 81  1  0  0  0
 74142  1  0  0  0
 74143  1  0  0  0
 74144  1  0  0  0
 74 77  1  0  0  0
 75 80  1  0  0  0
 75145  1  0  0  0
 75146  1  0  0  0
 76 77  1  0  0  0
 76147  1  0  0  0
 76148  1  0  0  0
 77 79  1  0  0  0
 77149  1  0  0  0
 79150  1  0  0  0
 80151  1  0  0  0
M  ISO  4   1 100  68 101  76 101  80 100
M  END
> <chiral flag>
0

> <version>
0

> <s_m_source_file>
/data/baiqing/PycharmProjects/Reinvent-master-3.2/result/LINK_invent/BTK/process_docking_weight1_custom_product_contain_oxygen_bond_distance_aromatic_linkinvent_7_9_3/rearranged_h_0196.sdf

> <i_m_source_file_index>
64

> <r_mmod_Potential_Energy-OPLS-2005>
-63.6308898925781

> <r_mmod_Stretch_Energy-OPLS-2005>
112.845932006836

> <r_mmod_Bend_Energy-OPLS-2005>
154.699172973633

> <r_mmod_Torsional_Energy-OPLS-2005>
202.36003112793

> <r_mmod_Improper_Torsional_Energy-OPLS-2005>
8.60605049133301

> <r_mmod_Van_der_Waal_Energy-OPLS-2005>
117.511474609375

> <r_mmod_Electrostatic_Energy-OPLS-2005>
-522.124816894531

> <r_mmod_Solvation_Energy-OPLS-2005>
-228.599380493164

> <b_mmod_Minimization_Converged-OPLS-2005>
0

> <r_mmod_RMS_Derivative-OPLS-2005>
3.21932816505432

$$$$
64
                    3D
 Structure written by MMmdl.
156164  0  0  1  0            999 V2000
  -30.6140  -14.7709   20.4662 C   0  0  0  0  0  0
  -30.4347  -12.4767   19.4625 C   0  0  0  0  0  0
  -29.5074  -12.5048   18.2284 C   0  0  0  0  0  0
  -28.0354  -12.3229   18.6485 C   0  0  0  0  0  0
  -27.6370  -13.2316   19.8420 C   0  0  2  0  0  0
  -28.6865  -13.1876   20.9733 C   0  0  0  0  0  0
  -25.2494  -13.8190   20.5694 C   0  0  0  0  0  0
  -24.1795  -13.0433   20.9219 C   0  0  0  0  0  0
  -24.6390  -11.6912   20.8757 C   0  0  0  0  0  0
  -23.9069  -10.4288   21.0413 C   0  0  0  0  0  0
  -24.3621   -9.4203   21.9188 C   0  0  0  0  0  0
  -23.6295   -8.2239   22.0754 C   0  0  0  0  0  0
  -22.4276   -8.0279   21.3544 C   0  0  0  0  0  0
  -21.9914   -9.0252   20.4646 C   0  0  0  0  0  0
  -22.7243  -10.2131   20.3058 C   0  0  0  0  0  0
  -21.6852   -6.0734   22.5278 C   0  0  0  0  0  0
  -21.4015   -6.5640   23.8212 C   0  0  0  0  0  0
  -21.3659   -5.6792   24.9175 C   0  0  0  0  0  0
  -21.6044   -4.3055   24.7226 C   0  0  0  0  0  0
  -21.8819   -3.8146   23.4347 C   0  0  0  0  0  0
  -21.9193   -4.6962   22.3402 C   0  0  0  0  0  0
  -22.7817  -13.5214   21.1875 C   0  0  0  0  0  0
  -22.1662   -4.2149   21.0979 F   0  0  0  0  0  0
  -21.5628   -3.4538   25.7738 F   0  0  0  0  0  0
  -29.9783  -13.5489   20.3770 N   0  0  0  0  0  0
  -26.2916  -12.9397   20.3257 N   0  0  0  0  0  0
  -25.9317  -11.6542   20.5750 N   0  0  0  0  0  0
  -22.0463  -12.8202   22.0431 N   0  0  0  0  0  0
  -25.4146  -15.1919   20.4091 N   0  0  0  0  0  0
  -31.8221  -14.8303   20.2076 O   0  0  0  0  0  0
  -21.6639   -6.8876   21.4240 O   0  0  0  0  0  0
  -22.3505  -14.5519   20.6719 O   0  0  0  0  0  0
  -24.6350  -31.8544   23.1984 C   0  0  0  0  0  0
  -25.9165  -32.4749   23.8334 C   0  0  1  0  0  0
  -27.2106  -27.2350   20.1258 C   0  0  0  0  0  0
  -25.5950  -33.8551   24.2254 N   0  0  0  0  0  0
  -23.4322  -30.4795   21.5433 C   0  0  2  0  0  0
  -24.8768  -28.9280   20.1116 C   0  0  0  0  0  0
  -22.7522  -29.4603   22.4903 C   0  0  0  0  0  0
  -18.0298  -28.1390   22.8482 C   0  0  0  0  0  0
  -24.1491  -36.7277   23.2640 C   0  0  0  0  0  0
  -25.9827  -30.7591   21.3833 C   0  0  0  0  0  0
  -26.0533  -29.3811   20.7220 C   0  0  0  0  0  0
  -27.2242  -28.5489   20.7162 C   0  0  0  0  0  0
  -26.0076  -26.8668   19.4787 C   0  0  0  0  0  0
  -24.8611  -27.6800   19.4782 C   0  0  0  0  0  0
  -23.6513  -29.8195   20.1583 C   0  0  0  0  0  0
  -25.4118  -36.3063   24.0326 C   0  0  1  0  0  0
  -20.5904  -28.3707   23.1256 C   0  0  2  0  0  0
  -20.6786  -26.9420   22.5403 C   0  0  0  0  0  0
  -19.5758  -26.6385   21.5210 C   0  0  0  0  0  0
  -18.1939  -26.7931   22.1624 C   0  0  0  0  0  0
  -19.1552  -28.8864   23.2864 C   0  0  0  0  0  0
  -18.9471  -30.1464   23.8884 C   0  0  0  0  0  0
  -17.6470  -30.6588   24.0561 C   0  0  0  0  0  0
  -25.9063  -34.9435   23.5090 C   0  0  0  0  0  0
  -16.5361  -29.9084   23.6330 C   0  0  0  0  0  0
  -16.7283  -28.6503   23.0353 C   0  0  0  0  0  0
  -26.4515  -31.6578   25.0731 C   0  0  0  0  0  0
  -25.3726  -31.3737   26.1441 C   0  0  0  0  0  0
  -27.0371  -30.2991   24.6243 C   0  0  0  0  0  0
  -27.6062  -32.4325   25.7510 C   0  0  0  0  0  0
  -27.5577  -37.1797   24.8467 C   0  0  0  0  0  0
  -21.4227  -29.3051   22.3644 N   0  0  0  0  0  0
  -26.4291  -37.3766   23.9408 N   0  0  0  0  0  0
  -24.7027  -31.0492   22.0974 N   0  0  0  0  0  0
  -23.4214  -28.8134   23.3002 O   0  0  0  0  0  0
  -28.2873  -26.3054   20.1739 O   0  0  0  0  0  0
  -26.5633  -34.8915   22.4658 O   0  0  0  0  0  0
  -23.5492  -32.1377   23.7264 O   0  0  0  0  0  0
  -30.4976  -19.8225   21.8704 C   0  0  0  0  0  0
  -31.0669  -18.6831   22.4563 C   0  0  0  0  0  0
  -29.6875  -19.6553   20.7479 C   0  0  0  0  0  0
  -30.0982  -17.2832   20.8951 C   0  0  0  0  0  0
  -31.9562  -18.7986   23.6753 C   0  0  0  0  0  0
  -28.0717  -21.9415   22.0762 C   0  0  0  0  0  0
  -29.0192  -23.5829   20.2701 C   0  0  0  0  0  0
  -27.9580  -24.8242   20.2399 C   0  0  0  0  0  0
  -28.4734  -22.0727   20.5964 C   0  0  1  0  0  0
  -30.8667  -17.4414   21.9698 N   0  0  0  0  0  0
  -29.4938  -18.3602   20.2787 N   0  0  0  0  0  0
  -29.1791  -20.8242   20.0562 N   0  0  0  0  0  0
  -29.8293  -15.9226   20.5294 N   0  0  0  0  0  0
  -31.4725  -12.6108   19.1520 H   0  0  0  0  0  0
  -30.3931  -11.5061   19.9589 H   0  0  0  0  0  0
  -29.7938  -11.7244   17.5219 H   0  0  0  0  0  0
  -29.6248  -13.4531   17.7012 H   0  0  0  0  0  0
  -27.8999  -11.2760   18.9220 H   0  0  0  0  0  0
  -27.3747  -12.5026   17.7992 H   0  0  0  0  0  0
  -27.6209  -14.2473   19.4478 H   0  0  0  0  0  0
  -28.7336  -12.1956   21.4248 H   0  0  0  0  0  0
  -28.4203  -13.8786   21.7751 H   0  0  0  0  0  0
  -25.2765   -9.5680   22.4763 H   0  0  0  0  0  0
  -24.0002   -7.4631   22.7474 H   0  0  0  0  0  0
  -21.0845   -8.8772   19.8952 H   0  0  0  0  0  0
  -22.3702  -10.9671   19.6168 H   0  0  0  0  0  0
  -21.2007   -7.6148   23.9716 H   0  0  0  0  0  0
  -21.1482   -6.0523   25.9078 H   0  0  0  0  0  0
  -22.0599   -2.7608   23.2847 H   0  0  0  0  0  0
  -22.4082  -11.9865   22.4819 H   0  0  0  0  0  0
  -21.1077  -13.1222   22.2633 H   0  0  0  0  0  0
  -24.6365  -15.8348   20.5113 H   0  0  0  0  0  0
  -26.2429  -15.6364   20.0369 H   0  0  0  0  0  0
  -26.7230  -32.5390   23.1073 H   0  0  0  0  0  0
  -25.0092  -33.9682   25.0398 H   0  0  0  0  0  0
  -22.7303  -31.3031   21.3983 H   0  0  0  0  0  0
  -23.3754  -35.9607   23.3299 H   0  0  0  0  0  0
  -24.3578  -36.8905   22.2055 H   0  0  0  0  0  0
  -23.7242  -37.6477   23.6668 H   0  0  0  0  0  0
  -26.1279  -31.5202   20.6154 H   0  0  0  0  0  0
  -26.8579  -30.8048   22.0195 H   0  0  0  0  0  0
  -28.1231  -28.8899   21.2103 H   0  0  0  0  0  0
  -25.9042  -25.9279   18.9611 H   0  0  0  0  0  0
  -23.9634  -27.3306   18.9871 H   0  0  0  0  0  0
  -23.7815  -30.5984   19.4060 H   0  0  0  0  0  0
  -22.7680  -29.2581   19.8487 H   0  0  0  0  0  0
  -25.1299  -36.1908   25.0818 H   0  0  0  0  0  0
  -20.9997  -28.3285   24.1375 H   0  0  0  0  0  0
  -20.5688  -26.2315   23.3612 H   0  0  0  0  0  0
  -21.6652  -26.7441   22.1192 H   0  0  0  0  0  0
  -19.6918  -25.6294   21.1244 H   0  0  0  0  0  0
  -19.6690  -27.3192   20.6736 H   0  0  0  0  0  0
  -17.4207  -26.6674   21.4031 H   0  0  0  0  0  0
  -18.0338  -26.0079   22.9026 H   0  0  0  0  0  0
  -19.7948  -30.7280   24.2251 H   0  0  0  0  0  0
  -17.5024  -31.6268   24.5164 H   0  0  0  0  0  0
  -15.5361  -30.2980   23.7665 H   0  0  0  0  0  0
  -15.8684  -28.0818   22.7070 H   0  0  0  0  0  0
  -24.5915  -30.7070   25.7770 H   0  0  0  0  0  0
  -24.8898  -32.2906   26.4832 H   0  0  0  0  0  0
  -25.8030  -30.8943   27.0241 H   0  0  0  0  0  0
  -26.2967  -29.6730   24.1250 H   0  0  0  0  0  0
  -27.4021  -29.7264   25.4778 H   0  0  0  0  0  0
  -27.8857  -30.4256   23.9518 H   0  0  0  0  0  0
  -27.2669  -33.3639   26.2056 H   0  0  0  0  0  0
  -28.3890  -32.6863   25.0349 H   0  0  0  0  0  0
  -28.0709  -31.8469   26.5453 H   0  0  0  0  0  0
  -28.2593  -38.0097   24.7511 H   0  0  0  0  0  0
  -28.1076  -36.2625   24.6295 H   0  0  0  0  0  0
  -27.2293  -37.1444   25.8871 H   0  0  0  0  0  0
  -20.9417  -29.8785   21.6855 H   0  0  0  0  0  0
  -26.0166  -38.2837   24.1411 H   0  0  0  0  0  0
  -30.7175  -20.8051   22.2620 H   0  0  0  0  0  0
  -31.6038  -19.5917   24.3347 H   0  0  0  0  0  0
  -32.9784  -19.0301   23.3771 H   0  0  0  0  0  0
  -31.9676  -17.8702   24.2467 H   0  0  0  0  0  0
  -27.3468  -22.7068   22.3541 H   0  0  0  0  0  0
  -28.9234  -22.0588   22.7453 H   0  0  0  0  0  0
  -27.6054  -20.9780   22.2848 H   0  0  0  0  0  0
  -29.8070  -23.8212   20.9847 H   0  0  0  0  0  0
  -29.5135  -23.5646   19.2987 H   0  0  0  0  0  0
  -27.3027  -24.7105   21.1038 H   0  0  0  0  0  0
  -27.3463  -24.5751   19.3771 H   0  0  0  0  0  0
  -27.5281  -22.0258   20.0530 H   0  0  0  0  0  0
  -28.8275  -20.5694   19.1382 H   0  0  0  0  0  0
  -28.8528  -15.7448   20.3765 H   0  0  0  0  0  0
  1 25  1  0  0  0
  1 30  2  0  0  0
  1 83  1  0  0  0
  2  3  1  0  0  0
  2 25  1  0  0  0
  2 84  1  0  0  0
  2 85  1  0  0  0
  3  4  1  0  0  0
  3 86  1  0  0  0
  3 87  1  0  0  0
  4  5  1  0  0  0
  4 88  1  0  0  0
  4 89  1  0  0  0
  5  6  1  0  0  0
  5 26  1  0  0  0
  5 90  1  0  0  0
  6 25  1  0  0  0
  6 91  1  0  0  0
  6 92  1  0  0  0
  7  8  2  0  0  0
  7 26  1  0  0  0
  7 29  1  0  0  0
  8  9  1  0  0  0
  8 22  1  0  0  0
  9 10  1  0  0  0
  9 27  2  0  0  0
 10 11  2  0  0  0
 10 15  1  0  0  0
 11 12  1  0  0  0
 11 93  1  0  0  0
 12 13  2  0  0  0
 12 94  1  0  0  0
 13 14  1  0  0  0
 13 31  1  0  0  0
 14 15  2  0  0  0
 14 95  1  0  0  0
 15 96  1  0  0  0
 16 17  2  0  0  0
 16 21  1  0  0  0
 16 31  1  0  0  0
 17 18  1  0  0  0
 17 97  1  0  0  0
 18 19  2  0  0  0
 18 98  1  0  0  0
 19 20  1  0  0  0
 19 24  1  0  0  0
 20 21  2  0  0  0
 20 99  1  0  0  0
 21 23  1  0  0  0
 22 28  1  0  0  0
 22 32  2  0  0  0
 26 27  1  0  0  0
 28100  1  0  0  0
 28101  1  0  0  0
 29102  1  0  0  0
 29103  1  0  0  0
 33 34  1  0  0  0
 33 66  1  0  0  0
 33 70  2  0  0  0
 34 36  1  0  0  0
 34 59  1  0  0  0
 34104  1  0  0  0
 35 44  2  0  0  0
 35 45  1  0  0  0
 35 68  1  0  0  0
 36 56  1  0  0  0
 36105  1  0  0  0
 37 39  1  0  0  0
 37 47  1  0  0  0
 37 66  1  0  0  0
 37106  1  0  0  0
 38 43  2  0  0  0
 38 46  1  0  0  0
 38 47  1  0  0  0
 39 64  1  0  0  0
 39 67  2  0  0  0
 40 52  1  0  0  0
 40 53  2  0  0  0
 40 58  1  0  0  0
 41107  1  0  0  0
 41108  1  0  0  0
 41109  1  0  0  0
 41 48  1  0  0  0
 42 43  1  0  0  0
 42 66  1  0  0  0
 42110  1  0  0  0
 42111  1  0  0  0
 43 44  1  0  0  0
 44112  1  0  0  0
 45 46  2  0  0  0
 45113  1  0  0  0
 46114  1  0  0  0
 47115  1  0  0  0
 47116  1  0  0  0
 48 56  1  0  0  0
 48 65  1  0  0  0
 48117  1  0  0  0
 49 50  1  0  0  0
 49 53  1  0  0  0
 49 64  1  0  0  0
 49118  1  0  0  0
 50 51  1  0  0  0
 50119  1  0  0  0
 50120  1  0  0  0
 51 52  1  0  0  0
 51121  1  0  0  0
 51122  1  0  0  0
 52123  1  0  0  0
 52124  1  0  0  0
 53 54  1  0  0  0
 54 55  2  0  0  0
 54125  1  0  0  0
 55 57  1  0  0  0
 55126  1  0  0  0
 56 69  2  0  0  0
 57 58  2  0  0  0
 57127  1  0  0  0
 58128  1  0  0  0
 59 60  1  0  0  0
 59 61  1  0  0  0
 59 62  1  0  0  0
 60129  1  0  0  0
 60130  1  0  0  0
 60131  1  0  0  0
 61132  1  0  0  0
 61133  1  0  0  0
 61134  1  0  0  0
 62135  1  0  0  0
 62136  1  0  0  0
 62137  1  0  0  0
 63 65  1  0  0  0
 63138  1  0  0  0
 63139  1  0  0  0
 63140  1  0  0  0
 64141  1  0  0  0
 65142  1  0  0  0
 68 78  1  0  0  0
 71 72  2  0  0  0
 71 73  1  0  0  0
 71143  1  0  0  0
 72 75  1  0  0  0
 72 80  1  0  0  0
 73 81  2  0  0  0
 73 82  1  0  0  0
 74 80  2  0  0  0
 74 81  1  0  0  0
 74 83  1  0  0  0
 75144  1  0  0  0
 75145  1  0  0  0
 75146  1  0  0  0
 76147  1  0  0  0
 76148  1  0  0  0
 76149  1  0  0  0
 76 79  1  0  0  0
 77 78  1  0  0  0
 77 79  1  0  0  0
 77150  1  0  0  0
 77151  1  0  0  0
 78152  1  0  0  0
 78153  1  0  0  0
 79 82  1  0  0  0
 79154  1  0  0  0
 82155  1  0  0  0
 83156  1  0  0  0
M  ISO  4   1 100  68 101  78 101  83 100
M  END
> <chiral flag>
0

> <version>
0

> <s_m_source_file>
/data/baiqing/PycharmProjects/Reinvent-master-3.2/result/LINK_invent/BTK/process_docking_weight1_custom_product_contain_oxygen_bond_distance_aromatic_linkinvent_7_9_3/rearranged_h_0196.sdf

> <i_m_source_file_index>
65

> <r_mmod_Potential_Energy-OPLS-2005>
-232.902328491211

> <r_mmod_Stretch_Energy-OPLS-2005>
134.895141601562

> <r_mmod_Bend_Energy-OPLS-2005>
200.76399230957

> <r_mmod_Torsional_Energy-OPLS-2005>
239.475570678711

> <r_mmod_Improper_Torsional_Energy-OPLS-2005>
11.3889169692993

> <r_mmod_Van_der_Waal_Energy-OPLS-2005>
146.634841918945

> <r_mmod_Electrostatic_Energy-OPLS-2005>
-825.770324707031

> <r_mmod_Solvation_Energy-OPLS-2005>
-241.956649780273

> <b_mmod_Minimization_Converged-OPLS-2005>
0

> <r_mmod_RMS_Derivative-OPLS-2005>
0.58773285150528

$$$$
65
                    3D
 Structure written by MMmdl.
151159  0  0  1  0            999 V2000
  -30.5885  -14.7757   20.4529 C   0  0  0  0  0  0
  -30.4337  -12.4726   19.4781 C   0  0  0  0  0  0
  -29.5058  -12.4943   18.2418 C   0  0  0  0  0  0
  -28.0382  -12.3046   18.6659 C   0  0  0  0  0  0
  -27.6380  -13.2266   19.8480 C   0  0  2  0  0  0
  -28.6820  -13.1801   20.9845 C   0  0  0  0  0  0
  -25.2504  -13.8193   20.5695 C   0  0  0  0  0  0
  -24.1803  -13.0440   20.9202 C   0  0  0  0  0  0
  -24.6381  -11.6910   20.8761 C   0  0  0  0  0  0
  -23.9055  -10.4294   21.0419 C   0  0  0  0  0  0
  -24.3613   -9.4214   21.9190 C   0  0  0  0  0  0
  -23.6294   -8.2244   22.0747 C   0  0  0  0  0  0
  -22.4274   -8.0279   21.3537 C   0  0  0  0  0  0
  -21.9917   -9.0255   20.4640 C   0  0  0  0  0  0
  -22.7236  -10.2136   20.3062 C   0  0  0  0  0  0
  -21.6855   -6.0736   22.5278 C   0  0  0  0  0  0
  -21.4012   -6.5642   23.8211 C   0  0  0  0  0  0
  -21.3655   -5.6794   24.9176 C   0  0  0  0  0  0
  -21.6048   -4.3058   24.7227 C   0  0  0  0  0  0
  -21.8824   -3.8149   23.4347 C   0  0  0  0  0  0
  -21.9192   -4.6965   22.3403 C   0  0  0  0  0  0
  -22.7828  -13.5221   21.1857 C   0  0  0  0  0  0
  -22.1661   -4.2151   21.0980 F   0  0  0  0  0  0
  -21.5623   -3.4544   25.7740 F   0  0  0  0  0  0
  -29.9779  -13.5411   20.3986 N   0  0  0  0  0  0
  -26.2920  -12.9385   20.3296 N   0  0  0  0  0  0
  -25.9312  -11.6532   20.5782 N   0  0  0  0  0  0
  -22.0492  -12.8211   22.0420 N   0  0  0  0  0  0
  -25.4189  -15.1923   20.4077 N   0  0  0  0  0  0
  -31.7773  -14.8827   20.1400 O   0  0  0  0  0  0
  -21.6640   -6.8875   21.4232 O   0  0  0  0  0  0
  -22.3514  -14.5524   20.6694 O   0  0  0  0  0  0
  -24.6325  -31.8520   23.1942 C   0  0  0  0  0  0
  -25.9142  -32.4736   23.8294 C   0  0  1  0  0  0
  -27.2186  -27.2358   20.1475 C   0  0  0  0  0  0
  -25.5921  -33.8537   24.2236 N   0  0  0  0  0  0
  -23.4325  -30.4708   21.5383 C   0  0  2  0  0  0
  -24.8802  -28.9062   20.1142 C   0  0  0  0  0  0
  -22.7517  -29.4580   22.4901 C   0  0  0  0  0  0
  -18.0295  -28.1381   22.8509 C   0  0  0  0  0  0
  -24.1489  -36.7274   23.2645 C   0  0  0  0  0  0
  -25.9788  -30.7576   21.3751 C   0  0  0  0  0  0
  -26.0525  -29.3752   20.7224 C   0  0  0  0  0  0
  -27.2285  -28.5554   20.7191 C   0  0  0  0  0  0
  -26.0248  -26.8282   19.5214 C   0  0  0  0  0  0
  -24.8714  -27.6409   19.5013 C   0  0  0  0  0  0
  -23.6540  -29.8008   20.1551 C   0  0  0  0  0  0
  -25.4119  -36.3066   24.0330 C   0  0  1  0  0  0
  -20.5900  -28.3715   23.1287 C   0  0  2  0  0  0
  -20.6767  -26.9428   22.5454 C   0  0  0  0  0  0
  -19.5755  -26.6435   21.5223 C   0  0  0  0  0  0
  -18.1958  -26.7908   22.1690 C   0  0  0  0  0  0
  -19.1544  -28.8868   23.2894 C   0  0  0  0  0  0
  -18.9453  -30.1468   23.8915 C   0  0  0  0  0  0
  -17.6453  -30.6585   24.0573 C   0  0  0  0  0  0
  -25.9056  -34.9432   23.5092 C   0  0  0  0  0  0
  -16.5355  -29.9075   23.6320 C   0  0  0  0  0  0
  -16.7279  -28.6489   23.0344 C   0  0  0  0  0  0
  -26.4502  -31.6566   25.0694 C   0  0  0  0  0  0
  -25.3721  -31.3702   26.1409 C   0  0  0  0  0  0
  -27.0362  -30.2987   24.6190 C   0  0  0  0  0  0
  -27.6057  -32.4303   25.7460 C   0  0  0  0  0  0
  -27.5583  -37.1799   24.8473 C   0  0  0  0  0  0
  -21.4220  -29.3032   22.3634 N   0  0  0  0  0  0
  -26.4296  -37.3769   23.9412 N   0  0  0  0  0  0
  -24.7009  -31.0458   22.0931 N   0  0  0  0  0  0
  -23.4185  -28.8152   23.3044 O   0  0  0  0  0  0
  -28.3205  -26.3485   20.1369 O   0  0  0  0  0  0
  -26.5642  -34.8923   22.4672 O   0  0  0  0  0  0
  -23.5464  -32.1349   23.7221 O   0  0  0  0  0  0
  -29.1935  -18.6595   20.4728 C   0  0  0  0  0  0
  -27.1116  -19.4151   20.3141 C   0  0  0  0  0  0
  -28.7157  -20.9352   20.3859 C   0  0  0  0  0  0
  -30.1752  -17.3906   20.5515 C   0  0  0  0  0  0
  -28.4437  -23.5682   19.8324 C   0  0  0  0  0  0
  -28.2073  -24.9422   20.6895 C   0  0  0  0  0  0
  -27.8966  -18.3569   20.3955 N   0  0  0  0  0  0
  -29.6593  -19.9543   20.4925 N   0  0  0  0  0  0
  -27.4179  -20.7032   20.2812 N   0  0  0  0  0  0
  -25.7866  -19.1249   20.2600 N   0  0  0  0  0  0
  -29.0837  -22.3263   20.4628 N   0  0  0  0  0  0
  -29.8066  -15.9042   20.6467 N   0  0  0  0  0  0
  -31.4716  -12.6090   19.1717 H   0  0  0  0  0  0
  -30.3933  -11.5028   19.9754 H   0  0  0  0  0  0
  -29.7958  -11.7102   17.5403 H   0  0  0  0  0  0
  -29.6166  -13.4403   17.7096 H   0  0  0  0  0  0
  -27.9206  -11.2613   18.9607 H   0  0  0  0  0  0
  -27.3690  -12.4545   17.8173 H   0  0  0  0  0  0
  -27.6255  -14.2396   19.4446 H   0  0  0  0  0  0
  -28.7293  -12.1873   21.4354 H   0  0  0  0  0  0
  -28.4096  -13.8679   21.7864 H   0  0  0  0  0  0
  -25.2761   -9.5696   22.4763 H   0  0  0  0  0  0
  -24.0012   -7.4639   22.7475 H   0  0  0  0  0  0
  -21.0847   -8.8772   19.8947 H   0  0  0  0  0  0
  -22.3697  -10.9673   19.6171 H   0  0  0  0  0  0
  -21.1999   -7.6154   23.9710 H   0  0  0  0  0  0
  -21.1469   -6.0526   25.9075 H   0  0  0  0  0  0
  -22.0602   -2.7611   23.2844 H   0  0  0  0  0  0
  -22.4123  -11.9869   22.4800 H   0  0  0  0  0  0
  -21.1095  -13.1203   22.2630 H   0  0  0  0  0  0
  -24.6322  -15.8267   20.4814 H   0  0  0  0  0  0
  -26.2604  -15.6403   20.0666 H   0  0  0  0  0  0
  -26.7216  -32.5373   23.1031 H   0  0  0  0  0  0
  -25.0043  -33.9645   25.0366 H   0  0  0  0  0  0
  -22.7292  -31.2922   21.3885 H   0  0  0  0  0  0
  -23.3752  -35.9601   23.3302 H   0  0  0  0  0  0
  -24.3578  -36.8897   22.2059 H   0  0  0  0  0  0
  -23.7240  -37.6476   23.6666 H   0  0  0  0  0  0
  -26.1202  -31.5136   20.6021 H   0  0  0  0  0  0
  -26.8555  -30.8087   22.0087 H   0  0  0  0  0  0
  -28.1344  -28.9155   21.1880 H   0  0  0  0  0  0
  -25.9810  -25.8567   19.0490 H   0  0  0  0  0  0
  -23.9749  -27.2736   19.0205 H   0  0  0  0  0  0
  -23.7899  -30.5785   19.4013 H   0  0  0  0  0  0
  -22.7707  -29.2392   19.8454 H   0  0  0  0  0  0
  -25.1305  -36.1909   25.0823 H   0  0  0  0  0  0
  -21.0009  -28.3304   24.1405 H   0  0  0  0  0  0
  -20.5611  -26.2344   23.3671 H   0  0  0  0  0  0
  -21.6638  -26.7401   22.1289 H   0  0  0  0  0  0
  -19.6928  -25.6375   21.1191 H   0  0  0  0  0  0
  -19.6635  -27.3324   20.6809 H   0  0  0  0  0  0
  -17.4185  -26.6526   21.4156 H   0  0  0  0  0  0
  -18.0459  -26.0091   22.9159 H   0  0  0  0  0  0
  -19.7931  -30.7284   24.2285 H   0  0  0  0  0  0
  -17.4997  -31.6257   24.5194 H   0  0  0  0  0  0
  -15.5359  -30.2990   23.7608 H   0  0  0  0  0  0
  -15.8686  -28.0794   22.7051 H   0  0  0  0  0  0
  -24.5900  -30.7058   25.7718 H   0  0  0  0  0  0
  -24.8897  -32.2864   26.4829 H   0  0  0  0  0  0
  -25.8023  -30.8869   27.0193 H   0  0  0  0  0  0
  -26.2957  -29.6710   24.1227 H   0  0  0  0  0  0
  -27.4074  -29.7270   25.4708 H   0  0  0  0  0  0
  -27.8813  -30.4266   23.9420 H   0  0  0  0  0  0
  -27.2683  -33.3613   26.2023 H   0  0  0  0  0  0
  -28.3867  -32.6849   25.0282 H   0  0  0  0  0  0
  -28.0734  -31.8441   26.5383 H   0  0  0  0  0  0
  -28.2616  -38.0084   24.7520 H   0  0  0  0  0  0
  -28.1070  -36.2620   24.6304 H   0  0  0  0  0  0
  -27.2300  -37.1459   25.8878 H   0  0  0  0  0  0
  -20.9426  -29.8681   21.6769 H   0  0  0  0  0  0
  -26.0168  -38.2844   24.1398 H   0  0  0  0  0  0
  -29.8134  -17.2079   19.5377 H   0  0  0  0  0  0
  -29.7645  -17.3220   21.5595 H   0  0  0  0  0  0
  -29.0911  -23.8264   18.9936 H   0  0  0  0  0  0
  -27.4965  -23.2819   19.3718 H   0  0  0  0  0  0
  -28.9394  -24.9265   21.4970 H   0  0  0  0  0  0
  -27.2502  -24.8506   21.2063 H   0  0  0  0  0  0
  -25.5299  -18.2084   20.6005 H   0  0  0  0  0  0
  -25.1615  -19.8691   20.5355 H   0  0  0  0  0  0
  -30.0758  -22.4445   20.6361 H   0  0  0  0  0  0
  -28.8265  -15.7480   20.8262 H   0  0  0  0  0  0
  1 25  1  0  0  0
  1 30  2  0  0  0
  1 82  1  0  0  0
  2  3  1  0  0  0
  2 25  1  0  0  0
  2 83  1  0  0  0
  2 84  1  0  0  0
  3  4  1  0  0  0
  3 85  1  0  0  0
  3 86  1  0  0  0
  4  5  1  0  0  0
  4 87  1  0  0  0
  4 88  1  0  0  0
  5  6  1  0  0  0
  5 26  1  0  0  0
  5 89  1  0  0  0
  6 25  1  0  0  0
  6 90  1  0  0  0
  6 91  1  0  0  0
  7  8  2  0  0  0
  7 26  1  0  0  0
  7 29  1  0  0  0
  8  9  1  0  0  0
  8 22  1  0  0  0
  9 10  1  0  0  0
  9 27  2  0  0  0
 10 11  2  0  0  0
 10 15  1  0  0  0
 11 12  1  0  0  0
 11 92  1  0  0  0
 12 13  2  0  0  0
 12 93  1  0  0  0
 13 14  1  0  0  0
 13 31  1  0  0  0
 14 15  2  0  0  0
 14 94  1  0  0  0
 15 95  1  0  0  0
 16 17  2  0  0  0
 16 21  1  0  0  0
 16 31  1  0  0  0
 17 18  1  0  0  0
 17 96  1  0  0  0
 18 19  2  0  0  0
 18 97  1  0  0  0
 19 20  1  0  0  0
 19 24  1  0  0  0
 20 21  2  0  0  0
 20 98  1  0  0  0
 21 23  1  0  0  0
 22 28  1  0  0  0
 22 32  2  0  0  0
 26 27  1  0  0  0
 28 99  1  0  0  0
 28100  1  0  0  0
 29101  1  0  0  0
 29102  1  0  0  0
 33 34  1  0  0  0
 33 66  1  0  0  0
 33 70  2  0  0  0
 34 36  1  0  0  0
 34 59  1  0  0  0
 34103  1  0  0  0
 35 44  2  0  0  0
 35 45  1  0  0  0
 35 68  1  0  0  0
 36 56  1  0  0  0
 36104  1  0  0  0
 37 39  1  0  0  0
 37 47  1  0  0  0
 37 66  1  0  0  0
 37105  1  0  0  0
 38 43  2  0  0  0
 38 46  1  0  0  0
 38 47  1  0  0  0
 39 64  1  0  0  0
 39 67  2  0  0  0
 40 52  1  0  0  0
 40 53  2  0  0  0
 40 58  1  0  0  0
 41106  1  0  0  0
 41107  1  0  0  0
 41108  1  0  0  0
 41 48  1  0  0  0
 42 43  1  0  0  0
 42 66  1  0  0  0
 42109  1  0  0  0
 42110  1  0  0  0
 43 44  1  0  0  0
 44111  1  0  0  0
 45 46  2  0  0  0
 45112  1  0  0  0
 46113  1  0  0  0
 47114  1  0  0  0
 47115  1  0  0  0
 48 56  1  0  0  0
 48 65  1  0  0  0
 48116  1  0  0  0
 49 50  1  0  0  0
 49 53  1  0  0  0
 49 64  1  0  0  0
 49117  1  0  0  0
 50 51  1  0  0  0
 50118  1  0  0  0
 50119  1  0  0  0
 51 52  1  0  0  0
 51120  1  0  0  0
 51121  1  0  0  0
 52122  1  0  0  0
 52123  1  0  0  0
 53 54  1  0  0  0
 54 55  2  0  0  0
 54124  1  0  0  0
 55 57  1  0  0  0
 55125  1  0  0  0
 56 69  2  0  0  0
 57 58  2  0  0  0
 57126  1  0  0  0
 58127  1  0  0  0
 59 60  1  0  0  0
 59 61  1  0  0  0
 59 62  1  0  0  0
 60128  1  0  0  0
 60129  1  0  0  0
 60130  1  0  0  0
 61131  1  0  0  0
 61132  1  0  0  0
 61133  1  0  0  0
 62134  1  0  0  0
 62135  1  0  0  0
 62136  1  0  0  0
 63 65  1  0  0  0
 63137  1  0  0  0
 63138  1  0  0  0
 63139  1  0  0  0
 64140  1  0  0  0
 65141  1  0  0  0
 68 76  1  0  0  0
 71 74  1  0  0  0
 71 77  1  0  0  0
 71 78  2  0  0  0
 72 77  2  0  0  0
 72 79  1  0  0  0
 72 80  1  0  0  0
 73 78  1  0  0  0
 73 79  2  0  0  0
 73 81  1  0  0  0
 74 82  1  0  0  0
 74142  1  0  0  0
 74143  1  0  0  0
 75 76  1  0  0  0
 75 81  1  0  0  0
 75144  1  0  0  0
 75145  1  0  0  0
 76146  1  0  0  0
 76147  1  0  0  0
 80148  1  0  0  0
 80149  1  0  0  0
 81150  1  0  0  0
 82151  1  0  0  0
M  ISO  4   1 100  68 101  76 101  82 100
M  END
> <chiral flag>
0

> <version>
0

> <s_m_source_file>
/data/baiqing/PycharmProjects/Reinvent-master-3.2/result/LINK_invent/BTK/process_docking_weight1_custom_product_contain_oxygen_bond_distance_aromatic_linkinvent_7_9_3/rearranged_h_0196.sdf

> <i_m_source_file_index>
66

> <r_mmod_Potential_Energy-OPLS-2005>
-746.105712890625

> <r_mmod_Stretch_Energy-OPLS-2005>
128.763549804688

> <r_mmod_Bend_Energy-OPLS-2005>
376.965972900391

> <r_mmod_Torsional_Energy-OPLS-2005>
226.341354370117

> <r_mmod_Improper_Torsional_Energy-OPLS-2005>
10.3795347213745

> <r_mmod_Van_der_Waal_Energy-OPLS-2005>
154.170867919922

> <r_mmod_Electrostatic_Energy-OPLS-2005>
-1491.61633300781

> <r_mmod_Solvation_Energy-OPLS-2005>
-249.5654296875

> <b_mmod_Minimization_Converged-OPLS-2005>
0

> <r_mmod_RMS_Derivative-OPLS-2005>
2.12253832817078

$$$$
66
                    3D
 Structure written by MMmdl.
151159  0  0  1  0            999 V2000
  -30.6025  -14.7510   20.4296 C   0  0  0  0  0  0
  -30.4336  -12.4502   19.4971 C   0  0  0  0  0  0
  -29.5180  -12.5002   18.2533 C   0  0  0  0  0  0
  -28.0443  -12.3172   18.6637 C   0  0  0  0  0  0
  -27.6397  -13.2279   19.8513 C   0  0  2  0  0  0
  -28.6789  -13.1840   20.9932 C   0  0  0  0  0  0
  -25.2492  -13.8181   20.5696 C   0  0  0  0  0  0
  -24.1757  -13.0448   20.9204 C   0  0  0  0  0  0
  -24.6322  -11.6916   20.8730 C   0  0  0  0  0  0
  -23.8986  -10.4297   21.0402 C   0  0  0  0  0  0
  -24.3558   -9.4233   21.9187 C   0  0  0  0  0  0
  -23.6254   -8.2262   22.0765 C   0  0  0  0  0  0
  -22.4244   -8.0277   21.3556 C   0  0  0  0  0  0
  -21.9852   -9.0235   20.4663 C   0  0  0  0  0  0
  -22.7155  -10.2134   20.3061 C   0  0  0  0  0  0
  -21.6852   -6.0712   22.5272 C   0  0  0  0  0  0
  -21.4014   -6.5627   23.8197 C   0  0  0  0  0  0
  -21.3667   -5.6790   24.9172 C   0  0  0  0  0  0
  -21.6050   -4.3050   24.7228 C   0  0  0  0  0  0
  -21.8818   -3.8132   23.4346 C   0  0  0  0  0  0
  -21.9184   -4.6937   22.3402 C   0  0  0  0  0  0
  -22.7788  -13.5261   21.1857 C   0  0  0  0  0  0
  -22.1664   -4.2119   21.0978 F   0  0  0  0  0  0
  -21.5625   -3.4542   25.7741 F   0  0  0  0  0  0
  -29.9873  -13.5203   20.4176 N   0  0  0  0  0  0
  -26.2898  -12.9372   20.3261 N   0  0  0  0  0  0
  -25.9255  -11.6524   20.5720 N   0  0  0  0  0  0
  -22.0416  -12.8281   22.0425 N   0  0  0  0  0  0
  -25.4195  -15.1899   20.4111 N   0  0  0  0  0  0
  -31.7888  -14.8441   20.1016 O   0  0  0  0  0  0
  -21.6654   -6.8856   21.4227 O   0  0  0  0  0  0
  -22.3498  -14.5589   20.6730 O   0  0  0  0  0  0
  -24.6309  -31.8539   23.2018 C   0  0  0  0  0  0
  -25.9126  -32.4755   23.8367 C   0  0  1  0  0  0
  -27.2167  -27.2570   20.1240 C   0  0  0  0  0  0
  -25.5920  -33.8555   24.2286 N   0  0  0  0  0  0
  -23.4278  -30.4772   21.5430 C   0  0  2  0  0  0
  -24.8756  -28.9266   20.1093 C   0  0  0  0  0  0
  -22.7487  -29.4589   22.4908 C   0  0  0  0  0  0
  -18.0271  -28.1397   22.8461 C   0  0  0  0  0  0
  -24.1474  -36.7293   23.2639 C   0  0  0  0  0  0
  -25.9730  -30.7692   21.3800 C   0  0  0  0  0  0
  -26.0465  -29.3906   20.7228 C   0  0  0  0  0  0
  -27.2188  -28.5651   20.7223 C   0  0  0  0  0  0
  -26.0253  -26.8746   19.4669 C   0  0  0  0  0  0
  -24.8704  -27.6784   19.4713 C   0  0  0  0  0  0
  -23.6460  -29.8122   20.1592 C   0  0  0  0  0  0
  -25.4095  -36.3070   24.0333 C   0  0  1  0  0  0
  -20.5874  -28.3700   23.1265 C   0  0  2  0  0  0
  -20.6757  -26.9414   22.5406 C   0  0  0  0  0  0
  -19.5751  -26.6383   21.5196 C   0  0  0  0  0  0
  -18.1926  -26.7927   22.1603 C   0  0  0  0  0  0
  -19.1524  -28.8864   23.2859 C   0  0  0  0  0  0
  -18.9444  -30.1462   23.8893 C   0  0  0  0  0  0
  -17.6449  -30.6595   24.0550 C   0  0  0  0  0  0
  -25.9027  -34.9433   23.5109 C   0  0  0  0  0  0
  -16.5340  -29.9090   23.6336 C   0  0  0  0  0  0
  -16.7258  -28.6501   23.0355 C   0  0  0  0  0  0
  -26.4495  -31.6580   25.0756 C   0  0  0  0  0  0
  -25.3734  -31.3747   26.1491 C   0  0  0  0  0  0
  -27.0342  -30.2988   24.6280 C   0  0  0  0  0  0
  -27.6053  -32.4316   25.7548 C   0  0  0  0  0  0
  -27.5569  -37.1800   24.8459 C   0  0  0  0  0  0
  -21.4189  -29.3033   22.3641 N   0  0  0  0  0  0
  -26.4269  -37.3765   23.9410 N   0  0  0  0  0  0
  -24.6970  -31.0506   22.0996 N   0  0  0  0  0  0
  -23.4185  -28.8129   23.2998 O   0  0  0  0  0  0
  -28.3095  -26.3544   20.2015 O   0  0  0  0  0  0
  -26.5586  -34.8902   22.4677 O   0  0  0  0  0  0
  -23.5459  -32.1348   23.7318 O   0  0  0  0  0  0
  -29.6286  -18.9210   21.8869 C   0  0  0  0  0  0
  -29.6522  -18.6231   20.5451 C   0  0  0  0  0  0
  -29.1755  -20.9758   20.5074 C   0  0  0  0  0  0
  -30.5491  -24.1222   20.3603 C   0  0  0  0  0  0
  -30.0467  -17.2424   19.8836 C   0  0  0  0  0  0
  -28.1317  -24.8930   19.8656 C   0  0  0  0  0  0
  -29.0729  -23.7335   20.5013 C   0  0  2  0  0  0
  -29.3642  -19.8241   19.7906 N   0  0  0  0  0  0
  -28.9111  -22.3050   20.0087 N   0  0  0  0  0  0
  -29.8151  -15.8847   20.5457 N   0  0  0  0  0  0
  -29.3135  -20.6265   22.2295 S   0  0  0  0  0  0
  -31.4791  -12.5604   19.2000 H   0  0  0  0  0  0
  -30.3656  -11.4819   19.9952 H   0  0  0  0  0  0
  -29.8097  -11.7251   17.5436 H   0  0  0  0  0  0
  -29.6388  -13.4533   17.7346 H   0  0  0  0  0  0
  -27.9117  -11.2728   18.9469 H   0  0  0  0  0  0
  -27.3880  -12.4895   17.8104 H   0  0  0  0  0  0
  -27.6301  -14.2426   19.4546 H   0  0  0  0  0  0
  -28.7047  -12.2001   21.4633 H   0  0  0  0  0  0
  -28.4057  -13.8888   21.7788 H   0  0  0  0  0  0
  -25.2683   -9.5753   22.4774 H   0  0  0  0  0  0
  -23.9974   -7.4662   22.7487 H   0  0  0  0  0  0
  -21.0779   -8.8722   19.8971 H   0  0  0  0  0  0
  -22.3552  -10.9674   19.6190 H   0  0  0  0  0  0
  -21.2020   -7.6140   23.9687 H   0  0  0  0  0  0
  -21.1495   -6.0535   25.9073 H   0  0  0  0  0  0
  -22.0582   -2.7585   23.2856 H   0  0  0  0  0  0
  -22.3969  -11.9930   22.4842 H   0  0  0  0  0  0
  -21.1059  -13.1385   22.2650 H   0  0  0  0  0  0
  -24.6522  -15.8455   20.5158 H   0  0  0  0  0  0
  -26.2625  -15.6241   20.0588 H   0  0  0  0  0  0
  -26.7196  -32.5418   23.1108 H   0  0  0  0  0  0
  -25.0093  -33.9703   25.0455 H   0  0  0  0  0  0
  -22.7242  -31.2994   21.3973 H   0  0  0  0  0  0
  -23.3728  -35.9634   23.3292 H   0  0  0  0  0  0
  -24.3557  -36.8924   22.2055 H   0  0  0  0  0  0
  -23.7236  -37.6501   23.6657 H   0  0  0  0  0  0
  -26.1023  -31.5293   20.6082 H   0  0  0  0  0  0
  -26.8548  -30.8283   22.0071 H   0  0  0  0  0  0
  -28.1118  -28.9094   21.2261 H   0  0  0  0  0  0
  -25.9511  -25.9288   18.9530 H   0  0  0  0  0  0
  -23.9738  -27.3249   18.9803 H   0  0  0  0  0  0
  -23.7639  -30.5877   19.4013 H   0  0  0  0  0  0
  -22.7661  -29.2393   19.8605 H   0  0  0  0  0  0
  -25.1270  -36.1921   25.0824 H   0  0  0  0  0  0
  -20.9961  -28.3282   24.1395 H   0  0  0  0  0  0
  -20.5624  -26.2321   23.3614 H   0  0  0  0  0  0
  -21.6632  -26.7413   22.1237 H   0  0  0  0  0  0
  -19.6913  -25.6287   21.1257 H   0  0  0  0  0  0
  -19.6712  -27.3166   20.6709 H   0  0  0  0  0  0
  -17.4191  -26.6650   21.4013 H   0  0  0  0  0  0
  -18.0333  -26.0083   22.9022 H   0  0  0  0  0  0
  -19.7921  -30.7258   24.2284 H   0  0  0  0  0  0
  -17.5005  -31.6278   24.5142 H   0  0  0  0  0  0
  -15.5342  -30.2994   23.7669 H   0  0  0  0  0  0
  -15.8645  -28.0822   22.7101 H   0  0  0  0  0  0
  -24.5952  -30.7015   25.7874 H   0  0  0  0  0  0
  -24.8870  -32.2917   26.4828 H   0  0  0  0  0  0
  -25.8081  -30.9042   27.0323 H   0  0  0  0  0  0
  -26.2951  -29.6745   24.1250 H   0  0  0  0  0  0
  -27.3925  -29.7239   25.4831 H   0  0  0  0  0  0
  -27.8864  -30.4223   23.9594 H   0  0  0  0  0  0
  -27.2667  -33.3638   26.2078 H   0  0  0  0  0  0
  -28.3915  -32.6835   25.0418 H   0  0  0  0  0  0
  -28.0658  -31.8465   26.5517 H   0  0  0  0  0  0
  -28.2579  -38.0101   24.7481 H   0  0  0  0  0  0
  -28.1066  -36.2629   24.6292 H   0  0  0  0  0  0
  -27.2285  -37.1466   25.8861 H   0  0  0  0  0  0
  -20.9368  -29.8777   21.6868 H   0  0  0  0  0  0
  -26.0153  -38.2842   24.1414 H   0  0  0  0  0  0
  -29.8248  -18.2409   22.7055 H   0  0  0  0  0  0
  -30.8570  -24.1274   19.3139 H   0  0  0  0  0  0
  -31.1939  -23.4217   20.8928 H   0  0  0  0  0  0
  -30.7385  -25.1181   20.7668 H   0  0  0  0  0  0
  -31.1012  -17.3014   19.6125 H   0  0  0  0  0  0
  -29.5421  -17.1746   18.9177 H   0  0  0  0  0  0
  -27.1181  -24.5911   20.1263 H   0  0  0  0  0  0
  -28.1936  -24.8214   18.7789 H   0  0  0  0  0  0
  -28.8542  -23.7044   21.5687 H   0  0  0  0  0  0
  -28.7668  -22.2827   19.0034 H   0  0  0  0  0  0
  -28.8617  -15.7131   20.8264 H   0  0  0  0  0  0
  1 25  1  0  0  0
  1 30  2  0  0  0
  1 80  1  0  0  0
  2  3  1  0  0  0
  2 25  1  0  0  0
  2 82  1  0  0  0
  2 83  1  0  0  0
  3  4  1  0  0  0
  3 84  1  0  0  0
  3 85  1  0  0  0
  4  5  1  0  0  0
  4 86  1  0  0  0
  4 87  1  0  0  0
  5  6  1  0  0  0
  5 26  1  0  0  0
  5 88  1  0  0  0
  6 25  1  0  0  0
  6 89  1  0  0  0
  6 90  1  0  0  0
  7  8  2  0  0  0
  7 26  1  0  0  0
  7 29  1  0  0  0
  8  9  1  0  0  0
  8 22  1  0  0  0
  9 10  1  0  0  0
  9 27  2  0  0  0
 10 11  2  0  0  0
 10 15  1  0  0  0
 11 12  1  0  0  0
 11 91  1  0  0  0
 12 13  2  0  0  0
 12 92  1  0  0  0
 13 14  1  0  0  0
 13 31  1  0  0  0
 14 15  2  0  0  0
 14 93  1  0  0  0
 15 94  1  0  0  0
 16 17  2  0  0  0
 16 21  1  0  0  0
 16 31  1  0  0  0
 17 18  1  0  0  0
 17 95  1  0  0  0
 18 19  2  0  0  0
 18 96  1  0  0  0
 19 20  1  0  0  0
 19 24  1  0  0  0
 20 21  2  0  0  0
 20 97  1  0  0  0
 21 23  1  0  0  0
 22 28  1  0  0  0
 22 32  2  0  0  0
 26 27  1  0  0  0
 28 98  1  0  0  0
 28 99  1  0  0  0
 29100  1  0  0  0
 29101  1  0  0  0
 33 34  1  0  0  0
 33 66  1  0  0  0
 33 70  2  0  0  0
 34 36  1  0  0  0
 34 59  1  0  0  0
 34102  1  0  0  0
 35 44  2  0  0  0
 35 45  1  0  0  0
 35 68  1  0  0  0
 36 56  1  0  0  0
 36103  1  0  0  0
 37 39  1  0  0  0
 37 47  1  0  0  0
 37 66  1  0  0  0
 37104  1  0  0  0
 38 43  2  0  0  0
 38 46  1  0  0  0
 38 47  1  0  0  0
 39 64  1  0  0  0
 39 67  2  0  0  0
 40 52  1  0  0  0
 40 53  2  0  0  0
 40 58  1  0  0  0
 41105  1  0  0  0
 41106  1  0  0  0
 41107  1  0  0  0
 41 48  1  0  0  0
 42 43  1  0  0  0
 42 66  1  0  0  0
 42108  1  0  0  0
 42109  1  0  0  0
 43 44  1  0  0  0
 44110  1  0  0  0
 45 46  2  0  0  0
 45111  1  0  0  0
 46112  1  0  0  0
 47113  1  0  0  0
 47114  1  0  0  0
 48 56  1  0  0  0
 48 65  1  0  0  0
 48115  1  0  0  0
 49 50  1  0  0  0
 49 53  1  0  0  0
 49 64  1  0  0  0
 49116  1  0  0  0
 50 51  1  0  0  0
 50117  1  0  0  0
 50118  1  0  0  0
 51 52  1  0  0  0
 51119  1  0  0  0
 51120  1  0  0  0
 52121  1  0  0  0
 52122  1  0  0  0
 53 54  1  0  0  0
 54 55  2  0  0  0
 54123  1  0  0  0
 55 57  1  0  0  0
 55124  1  0  0  0
 56 69  2  0  0  0
 57 58  2  0  0  0
 57125  1  0  0  0
 58126  1  0  0  0
 59 60  1  0  0  0
 59 61  1  0  0  0
 59 62  1  0  0  0
 60127  1  0  0  0
 60128  1  0  0  0
 60129  1  0  0  0
 61130  1  0  0  0
 61131  1  0  0  0
 61132  1  0  0  0
 62133  1  0  0  0
 62134  1  0  0  0
 62135  1  0  0  0
 63 65  1  0  0  0
 63136  1  0  0  0
 63137  1  0  0  0
 63138  1  0  0  0
 64139  1  0  0  0
 65140  1  0  0  0
 68 76  1  0  0  0
 71 72  2  0  0  0
 71 81  1  0  0  0
 71141  1  0  0  0
 72 75  1  0  0  0
 72 78  1  0  0  0
 73 78  2  0  0  0
 73 79  1  0  0  0
 73 81  1  0  0  0
 74142  1  0  0  0
 74143  1  0  0  0
 74144  1  0  0  0
 74 77  1  0  0  0
 75 80  1  0  0  0
 75145  1  0  0  0
 75146  1  0  0  0
 76 77  1  0  0  0
 76147  1  0  0  0
 76148  1  0  0  0
 77 79  1  0  0  0
 77149  1  0  0  0
 79150  1  0  0  0
 80151  1  0  0  0
M  ISO  4   1 100  68 101  76 101  80 100
M  END
> <chiral flag>
0

> <version>
0

> <s_m_source_file>
/data/baiqing/PycharmProjects/Reinvent-master-3.2/result/LINK_invent/BTK/process_docking_weight1_custom_product_contain_oxygen_bond_distance_aromatic_linkinvent_7_9_3/rearranged_h_0196.sdf

> <i_m_source_file_index>
67

> <r_mmod_Potential_Energy-OPLS-2005>
-63.6308898925781

> <r_mmod_Stretch_Energy-OPLS-2005>
112.845932006836

> <r_mmod_Bend_Energy-OPLS-2005>
154.699172973633

> <r_mmod_Torsional_Energy-OPLS-2005>
202.36003112793

> <r_mmod_Improper_Torsional_Energy-OPLS-2005>
8.60605049133301

> <r_mmod_Van_der_Waal_Energy-OPLS-2005>
117.511474609375

> <r_mmod_Electrostatic_Energy-OPLS-2005>
-522.124816894531

> <r_mmod_Solvation_Energy-OPLS-2005>
-228.599380493164

> <b_mmod_Minimization_Converged-OPLS-2005>
0

> <r_mmod_RMS_Derivative-OPLS-2005>
3.21932816505432

$$$$
67
                    3D
 Structure written by MMmdl.
153161  0  0  1  0            999 V2000
  -30.6687  -14.5190   20.5923 C   0  0  0  0  0  0
  -30.4365  -12.3395   19.4296 C   0  0  0  0  0  0
  -29.5031  -12.5235   18.2131 C   0  0  0  0  0  0
  -28.0237  -12.3741   18.6217 C   0  0  0  0  0  0
  -27.6659  -13.2076   19.8807 C   0  0  2  0  0  0
  -28.7064  -12.9783   21.0005 C   0  0  0  0  0  0
  -25.2602  -13.8159   20.5678 C   0  0  0  0  0  0
  -24.1847  -13.0436   20.9165 C   0  0  0  0  0  0
  -24.6403  -11.6903   20.8724 C   0  0  0  0  0  0
  -23.9066  -10.4291   21.0393 C   0  0  0  0  0  0
  -24.3615   -9.4210   21.9176 C   0  0  0  0  0  0
  -23.6289   -8.2247   22.0752 C   0  0  0  0  0  0
  -22.4271   -8.0285   21.3547 C   0  0  0  0  0  0
  -21.9907   -9.0257   20.4647 C   0  0  0  0  0  0
  -22.7236  -10.2135   20.3049 C   0  0  0  0  0  0
  -21.6856   -6.0734   22.5279 C   0  0  0  0  0  0
  -21.4016   -6.5637   23.8211 C   0  0  0  0  0  0
  -21.3659   -5.6791   24.9174 C   0  0  0  0  0  0
  -21.6046   -4.3054   24.7226 C   0  0  0  0  0  0
  -21.8820   -3.8146   23.4347 C   0  0  0  0  0  0
  -21.9192   -4.6962   22.3402 C   0  0  0  0  0  0
  -22.7868  -13.5235   21.1833 C   0  0  0  0  0  0
  -22.1659   -4.2146   21.0981 F   0  0  0  0  0  0
  -21.5631   -3.4537   25.7740 F   0  0  0  0  0  0
  -30.0394  -13.3127   20.4631 N   0  0  0  0  0  0
  -26.3047  -12.9331   20.3382 N   0  0  0  0  0  0
  -25.9335  -11.6488   20.5764 N   0  0  0  0  0  0
  -22.0510  -12.8229   22.0394 N   0  0  0  0  0  0
  -25.4333  -15.1878   20.4097 N   0  0  0  0  0  0
  -31.7532  -14.7607   20.0503 O   0  0  0  0  0  0
  -21.6641   -6.8878   21.4241 O   0  0  0  0  0  0
  -22.3553  -14.5544   20.6688 O   0  0  0  0  0  0
  -24.6203  -31.8655   23.2085 C   0  0  0  0  0  0
  -25.9078  -32.4808   23.8389 C   0  0  1  0  0  0
  -27.2255  -27.3773   20.0956 C   0  0  0  0  0  0
  -25.5920  -33.8607   24.2317 N   0  0  0  0  0  0
  -23.4101  -30.4916   21.5505 C   0  0  2  0  0  0
  -24.8549  -28.9591   20.1094 C   0  0  0  0  0  0
  -22.7444  -29.4650   22.4968 C   0  0  0  0  0  0
  -18.0281  -28.1377   22.8490 C   0  0  0  0  0  0
  -24.1490  -36.7309   23.2637 C   0  0  0  0  0  0
  -25.9471  -30.8115   21.3739 C   0  0  0  0  0  0
  -26.0201  -29.4442   20.7158 C   0  0  0  0  0  0
  -27.2054  -28.6609   20.7081 C   0  0  0  0  0  0
  -26.0387  -26.9405   19.4567 C   0  0  0  0  0  0
  -24.8627  -27.7090   19.4752 C   0  0  0  0  0  0
  -23.6204  -29.8319   20.1632 C   0  0  0  0  0  0
  -25.4112  -36.3102   24.0334 C   0  0  1  0  0  0
  -20.5876  -28.3674   23.1302 C   0  0  2  0  0  0
  -20.6772  -26.9406   22.5413 C   0  0  0  0  0  0
  -19.5748  -26.6383   21.5214 C   0  0  0  0  0  0
  -18.1926  -26.7921   22.1626 C   0  0  0  0  0  0
  -19.1530  -28.8842   23.2892 C   0  0  0  0  0  0
  -18.9455  -30.1448   23.8904 C   0  0  0  0  0  0
  -17.6457  -30.6582   24.0564 C   0  0  0  0  0  0
  -25.9044  -34.9468   23.5123 C   0  0  0  0  0  0
  -16.5348  -29.9081   23.6325 C   0  0  0  0  0  0
  -16.7268  -28.6499   23.0348 C   0  0  0  0  0  0
  -26.4483  -31.6594   25.0732 C   0  0  0  0  0  0
  -25.3735  -31.3709   26.1470 C   0  0  0  0  0  0
  -27.0316  -30.3025   24.6143 C   0  0  0  0  0  0
  -27.6052  -32.4316   25.7498 C   0  0  0  0  0  0
  -27.5581  -37.1811   24.8465 C   0  0  0  0  0  0
  -21.4165  -29.3038   22.3706 N   0  0  0  0  0  0
  -26.4295  -37.3789   23.9405 N   0  0  0  0  0  0
  -24.6775  -31.0713   22.1015 N   0  0  0  0  0  0
  -23.4196  -28.8185   23.3019 O   0  0  0  0  0  0
  -28.3672  -26.5754   20.1487 O   0  0  0  0  0  0
  -26.5607  -34.8923   22.4684 O   0  0  0  0  0  0
  -23.5381  -32.1436   23.7445 O   0  0  0  0  0  0
  -29.5871  -17.6259   22.4348 C   0  0  0  0  0  0
  -29.9858  -16.8600   21.3109 C   0  0  0  0  0  0
  -29.7194  -21.5134   20.6224 C   0  0  0  0  0  0
  -29.2707  -24.1527   20.3637 C   0  0  0  0  0  0
  -29.6277  -20.1002   19.9356 C   0  0  0  0  0  0
  -28.2332  -25.1697   19.7794 C   0  0  0  0  0  0
  -29.1700  -22.7023   19.7577 C   0  0  1  0  0  0
  -29.4861  -18.8933   22.1066 N   0  0  0  0  0  0
  -30.1419  -17.6657   20.2772 N   0  0  0  0  0  0
  -29.8267  -18.9090   20.7879 N   0  0  0  0  0  0
  -30.0185  -15.4240   21.3569 N   0  0  0  0  0  0
  -29.8666  -22.6942   18.5226 O   0  0  0  0  0  0
  -31.4787  -12.4596   19.1280 H   0  0  0  0  0  0
  -30.3581  -11.3247   19.8229 H   0  0  0  0  0  0
  -29.7504  -11.7993   17.4358 H   0  0  0  0  0  0
  -29.6634  -13.5093   17.7738 H   0  0  0  0  0  0
  -27.8370  -11.3166   18.8124 H   0  0  0  0  0  0
  -27.3748  -12.6513   17.7904 H   0  0  0  0  0  0
  -27.7121  -14.2583   19.5930 H   0  0  0  0  0  0
  -28.6938  -11.9341   21.3178 H   0  0  0  0  0  0
  -28.4464  -13.5481   21.8929 H   0  0  0  0  0  0
  -25.2762   -9.5684   22.4746 H   0  0  0  0  0  0
  -24.0000   -7.4640   22.7470 H   0  0  0  0  0  0
  -21.0839   -8.8770   19.8954 H   0  0  0  0  0  0
  -22.3690  -10.9669   19.6155 H   0  0  0  0  0  0
  -21.2008   -7.6146   23.9711 H   0  0  0  0  0  0
  -21.1482   -6.0524   25.9075 H   0  0  0  0  0  0
  -22.0599   -2.7607   23.2849 H   0  0  0  0  0  0
  -22.4123  -11.9885   22.4776 H   0  0  0  0  0  0
  -21.1130  -13.1258   22.2608 H   0  0  0  0  0  0
  -24.6710  -15.8475   20.5216 H   0  0  0  0  0  0
  -26.2925  -15.6253   20.1011 H   0  0  0  0  0  0
  -26.7149  -32.5495   23.1144 H   0  0  0  0  0  0
  -25.0072  -33.9767   25.0463 H   0  0  0  0  0  0
  -22.7008  -31.3103   21.4135 H   0  0  0  0  0  0
  -23.3748  -35.9647   23.3308 H   0  0  0  0  0  0
  -24.3584  -36.8917   22.2050 H   0  0  0  0  0  0
  -23.7249  -37.6518   23.6649 H   0  0  0  0  0  0
  -26.0734  -31.5780   20.6079 H   0  0  0  0  0  0
  -26.8302  -30.8581   21.9994 H   0  0  0  0  0  0
  -28.0986  -29.0278   21.1942 H   0  0  0  0  0  0
  -25.9851  -25.9992   18.9312 H   0  0  0  0  0  0
  -23.9716  -27.3359   18.9890 H   0  0  0  0  0  0
  -23.7336  -30.6114   19.4089 H   0  0  0  0  0  0
  -22.7419  -29.2583   19.8620 H   0  0  0  0  0  0
  -25.1289  -36.1965   25.0828 H   0  0  0  0  0  0
  -20.9966  -28.3240   24.1423 H   0  0  0  0  0  0
  -20.5680  -26.2283   23.3604 H   0  0  0  0  0  0
  -21.6641  -26.7445   22.1201 H   0  0  0  0  0  0
  -19.6909  -25.6295   21.1238 H   0  0  0  0  0  0
  -19.6684  -27.3200   20.6747 H   0  0  0  0  0  0
  -17.4197  -26.6671   21.4026 H   0  0  0  0  0  0
  -18.0326  -26.0060   22.9018 H   0  0  0  0  0  0
  -19.7932  -30.7261   24.2275 H   0  0  0  0  0  0
  -17.5010  -31.6263   24.5163 H   0  0  0  0  0  0
  -15.5347  -30.2986   23.7641 H   0  0  0  0  0  0
  -15.8670  -28.0820   22.7056 H   0  0  0  0  0  0
  -24.5912  -30.7054   25.7804 H   0  0  0  0  0  0
  -24.8923  -32.2864   26.4916 H   0  0  0  0  0  0
  -25.8078  -30.8877   27.0231 H   0  0  0  0  0  0
  -26.2873  -29.6788   24.1178 H   0  0  0  0  0  0
  -27.4048  -29.7263   25.4619 H   0  0  0  0  0  0
  -27.8730  -30.4329   23.9332 H   0  0  0  0  0  0
  -27.2669  -33.3610   26.2093 H   0  0  0  0  0  0
  -28.3853  -32.6886   25.0320 H   0  0  0  0  0  0
  -28.0730  -31.8430   26.5400 H   0  0  0  0  0  0
  -28.2602  -38.0105   24.7506 H   0  0  0  0  0  0
  -28.1074  -36.2636   24.6296 H   0  0  0  0  0  0
  -27.2299  -37.1469   25.8868 H   0  0  0  0  0  0
  -20.9330  -29.8773   21.6936 H   0  0  0  0  0  0
  -26.0182  -38.2869   24.1395 H   0  0  0  0  0  0
  -29.3420  -17.2887   23.4331 H   0  0  0  0  0  0
  -30.7538  -21.7036   20.9100 H   0  0  0  0  0  0
  -29.1515  -21.4940   21.5527 H   0  0  0  0  0  0
  -29.1029  -24.0960   21.4398 H   0  0  0  0  0  0
  -30.2834  -24.5398   20.2451 H   0  0  0  0  0  0
  -30.3474  -20.0497   19.1183 H   0  0  0  0  0  0
  -28.6449  -19.9943   19.4762 H   0  0  0  0  0  0
  -27.2671  -24.7847   20.1075 H   0  0  0  0  0  0
  -28.2451  -25.1119   18.6901 H   0  0  0  0  0  0
  -28.1180  -22.4902   19.5538 H   0  0  0  0  0  0
  -29.3166  -15.0104   21.9511 H   0  0  0  0  0  0
  -29.4213  -23.2841   17.9207 H   0  0  0  0  0  0
  1 25  1  0  0  0
  1 30  2  0  0  0
  1 81  1  0  0  0
  2  3  1  0  0  0
  2 25  1  0  0  0
  2 83  1  0  0  0
  2 84  1  0  0  0
  3  4  1  0  0  0
  3 85  1  0  0  0
  3 86  1  0  0  0
  4  5  1  0  0  0
  4 87  1  0  0  0
  4 88  1  0  0  0
  5  6  1  0  0  0
  5 26  1  0  0  0
  5 89  1  0  0  0
  6 25  1  0  0  0
  6 90  1  0  0  0
  6 91  1  0  0  0
  7  8  2  0  0  0
  7 26  1  0  0  0
  7 29  1  0  0  0
  8  9  1  0  0  0
  8 22  1  0  0  0
  9 10  1  0  0  0
  9 27  2  0  0  0
 10 11  2  0  0  0
 10 15  1  0  0  0
 11 12  1  0  0  0
 11 92  1  0  0  0
 12 13  2  0  0  0
 12 93  1  0  0  0
 13 14  1  0  0  0
 13 31  1  0  0  0
 14 15  2  0  0  0
 14 94  1  0  0  0
 15 95  1  0  0  0
 16 17  2  0  0  0
 16 21  1  0  0  0
 16 31  1  0  0  0
 17 18  1  0  0  0
 17 96  1  0  0  0
 18 19  2  0  0  0
 18 97  1  0  0  0
 19 20  1  0  0  0
 19 24  1  0  0  0
 20 21  2  0  0  0
 20 98  1  0  0  0
 21 23  1  0  0  0
 22 28  1  0  0  0
 22 32  2  0  0  0
 26 27  1  0  0  0
 28 99  1  0  0  0
 28100  1  0  0  0
 29101  1  0  0  0
 29102  1  0  0  0
 33 34  1  0  0  0
 33 66  1  0  0  0
 33 70  2  0  0  0
 34 36  1  0  0  0
 34 59  1  0  0  0
 34103  1  0  0  0
 35 44  2  0  0  0
 35 45  1  0  0  0
 35 68  1  0  0  0
 36 56  1  0  0  0
 36104  1  0  0  0
 37 39  1  0  0  0
 37 47  1  0  0  0
 37 66  1  0  0  0
 37105  1  0  0  0
 38 43  2  0  0  0
 38 46  1  0  0  0
 38 47  1  0  0  0
 39 64  1  0  0  0
 39 67  2  0  0  0
 40 52  1  0  0  0
 40 53  2  0  0  0
 40 58  1  0  0  0
 41106  1  0  0  0
 41107  1  0  0  0
 41108  1  0  0  0
 41 48  1  0  0  0
 42 43  1  0  0  0
 42 66  1  0  0  0
 42109  1  0  0  0
 42110  1  0  0  0
 43 44  1  0  0  0
 44111  1  0  0  0
 45 46  2  0  0  0
 45112  1  0  0  0
 46113  1  0  0  0
 47114  1  0  0  0
 47115  1  0  0  0
 48 56  1  0  0  0
 48 65  1  0  0  0
 48116  1  0  0  0
 49 50  1  0  0  0
 49 53  1  0  0  0
 49 64  1  0  0  0
 49117  1  0  0  0
 50 51  1  0  0  0
 50118  1  0  0  0
 50119  1  0  0  0
 51 52  1  0  0  0
 51120  1  0  0  0
 51121  1  0  0  0
 52122  1  0  0  0
 52123  1  0  0  0
 53 54  1  0  0  0
 54 55  2  0  0  0
 54124  1  0  0  0
 55 57  1  0  0  0
 55125  1  0  0  0
 56 69  2  0  0  0
 57 58  2  0  0  0
 57126  1  0  0  0
 58127  1  0  0  0
 59 60  1  0  0  0
 59 61  1  0  0  0
 59 62  1  0  0  0
 60128  1  0  0  0
 60129  1  0  0  0
 60130  1  0  0  0
 61131  1  0  0  0
 61132  1  0  0  0
 61133  1  0  0  0
 62134  1  0  0  0
 62135  1  0  0  0
 62136  1  0  0  0
 63 65  1  0  0  0
 63137  1  0  0  0
 63138  1  0  0  0
 63139  1  0  0  0
 64140  1  0  0  0
 65141  1  0  0  0
 68 76  1  0  0  0
 71 72  1  0  0  0
 71 78  2  0  0  0
 71142  1  0  0  0
 72 79  2  0  0  0
 72 81  1  0  0  0
 73 75  1  0  0  0
 73 77  1  0  0  0
 73143  1  0  0  0
 73144  1  0  0  0
 74 76  1  0  0  0
 74 77  1  0  0  0
 74145  1  0  0  0
 74146  1  0  0  0
 75 80  1  0  0  0
 75147  1  0  0  0
 75148  1  0  0  0
 76149  1  0  0  0
 76150  1  0  0  0
 77 82  1  0  0  0
 77151  1  0  0  0
 78 80  1  0  0  0
 79 80  1  0  0  0
 81152  1  0  0  0
 82153  1  0  0  0
M  ISO  4   1 100  68 101  76 101  81 100
M  END
> <chiral flag>
0

> <version>
0

> <s_m_source_file>
/data/baiqing/PycharmProjects/Reinvent-master-3.2/result/LINK_invent/BTK/process_docking_weight1_custom_product_contain_oxygen_bond_distance_aromatic_linkinvent_7_9_3/rearranged_h_0196.sdf

> <i_m_source_file_index>
68

> <r_mmod_Potential_Energy-OPLS-2005>
-85.5137557983398

> <r_mmod_Stretch_Energy-OPLS-2005>
51.590934753418

> <r_mmod_Bend_Energy-OPLS-2005>
126.557014465332

> <r_mmod_Torsional_Energy-OPLS-2005>
225.959121704102

> <r_mmod_Improper_Torsional_Energy-OPLS-2005>
4.37982845306396

> <r_mmod_Van_der_Waal_Energy-OPLS-2005>
131.974792480469

> <r_mmod_Electrostatic_Energy-OPLS-2005>
-400.455078125

> <r_mmod_Solvation_Energy-OPLS-2005>
-247.996002197266

> <b_mmod_Minimization_Converged-OPLS-2005>
0

> <r_mmod_RMS_Derivative-OPLS-2005>
0.560935854911804

$$$$
68
                    3D
 Structure written by MMmdl.
184192  0  0  1  0            999 V2000
  -30.6973  -14.4844   20.5796 C   0  0  0  0  0  0
  -30.4368  -12.3223   19.4094 C   0  0  0  0  0  0
  -29.4977  -12.5177   18.2000 C   0  0  0  0  0  0
  -28.0173  -12.3808   18.6123 C   0  0  0  0  0  0
  -27.6659  -13.2071   19.8788 C   0  0  2  0  0  0
  -28.7119  -12.9701   20.9912 C   0  0  0  0  0  0
  -25.2620  -13.8112   20.5696 C   0  0  0  0  0  0
  -24.1868  -13.0417   20.9194 C   0  0  0  0  0  0
  -24.6409  -11.6887   20.8723 C   0  0  0  0  0  0
  -23.9060  -10.4295   21.0406 C   0  0  0  0  0  0
  -24.3616   -9.4215   21.9187 C   0  0  0  0  0  0
  -23.6306   -8.2229   22.0749 C   0  0  0  0  0  0
  -22.4282   -8.0273   21.3534 C   0  0  0  0  0  0
  -21.9914   -9.0239   20.4636 C   0  0  0  0  0  0
  -22.7231  -10.2129   20.3046 C   0  0  0  0  0  0
  -21.6853   -6.0744   22.5289 C   0  0  0  0  0  0
  -21.3989   -6.5647   23.8216 C   0  0  0  0  0  0
  -21.3660   -5.6800   24.9186 C   0  0  0  0  0  0
  -21.6050   -4.3061   24.7229 C   0  0  0  0  0  0
  -21.8827   -3.8147   23.4342 C   0  0  0  0  0  0
  -21.9191   -4.6972   22.3401 C   0  0  0  0  0  0
  -22.7889  -13.5237   21.1856 C   0  0  0  0  0  0
  -22.1686   -4.2167   21.0982 F   0  0  0  0  0  0
  -21.5626   -3.4529   25.7735 F   0  0  0  0  0  0
  -30.0444  -13.2936   20.4443 N   0  0  0  0  0  0
  -26.3055  -12.9290   20.3386 N   0  0  0  0  0  0
  -25.9334  -11.6453   20.5751 N   0  0  0  0  0  0
  -22.0492  -12.8223   22.0390 N   0  0  0  0  0  0
  -25.4376  -15.1799   20.4138 N   0  0  0  0  0  0
  -31.8174  -14.6776   20.0920 O   0  0  0  0  0  0
  -21.6632   -6.8878   21.4244 O   0  0  0  0  0  0
  -22.3611  -14.5556   20.6736 O   0  0  0  0  0  0
  -24.6119  -31.8688   23.2097 C   0  0  0  0  0  0
  -25.9031  -32.4825   23.8387 C   0  0  1  0  0  0
  -27.2548  -27.4605   20.1087 C   0  0  0  0  0  0
  -25.5911  -33.8622   24.2339 N   0  0  0  0  0  0
  -23.4017  -30.4888   21.5440 C   0  0  2  0  0  0
  -24.8578  -28.9552   20.1110 C   0  0  0  0  0  0
  -22.7398  -29.4670   22.4953 C   0  0  0  0  0  0
  -18.0279  -28.1403   22.8491 C   0  0  0  0  0  0
  -24.1472  -36.7300   23.2640 C   0  0  0  0  0  0
  -25.9233  -30.8492   21.3542 C   0  0  0  0  0  0
  -26.0089  -29.4806   20.7099 C   0  0  0  0  0  0
  -27.2104  -28.7390   20.7104 C   0  0  0  0  0  0
  -26.0933  -26.9485   19.4948 C   0  0  0  0  0  0
  -24.8914  -27.6860   19.5042 C   0  0  0  0  0  0
  -23.6161  -29.8171   20.1591 C   0  0  0  0  0  0
  -25.4085  -36.3116   24.0363 C   0  0  1  0  0  0
  -20.5867  -28.3683   23.1322 C   0  0  2  0  0  0
  -20.6767  -26.9426   22.5422 C   0  0  0  0  0  0
  -19.5761  -26.6417   21.5208 C   0  0  0  0  0  0
  -18.1934  -26.7960   22.1608 C   0  0  0  0  0  0
  -19.1534  -28.8851   23.2914 C   0  0  0  0  0  0
  -18.9460  -30.1458   23.8914 C   0  0  0  0  0  0
  -17.6473  -30.6618   24.0558 C   0  0  0  0  0  0
  -25.9028  -34.9489   23.5143 C   0  0  0  0  0  0
  -16.5362  -29.9124   23.6329 C   0  0  0  0  0  0
  -16.7274  -28.6544   23.0336 C   0  0  0  0  0  0
  -26.4488  -31.6586   25.0685 C   0  0  0  0  0  0
  -25.3787  -31.3712   26.1460 C   0  0  0  0  0  0
  -27.0301  -30.3026   24.6011 C   0  0  0  0  0  0
  -27.6057  -32.4295   25.7453 C   0  0  0  0  0  0
  -27.5600  -37.1777   24.8444 C   0  0  0  0  0  0
  -21.4122  -29.3063   22.3721 N   0  0  0  0  0  0
  -26.4255  -37.3828   23.9478 N   0  0  0  0  0  0
  -24.6630  -31.0820   22.0963 N   0  0  0  0  0  0
  -23.4182  -28.8231   23.3006 O   0  0  0  0  0  0
  -28.4059  -26.7096   20.1035 O   0  0  0  0  0  0
  -26.5535  -34.8941   22.4664 O   0  0  0  0  0  0
  -23.5325  -32.1412   23.7510 O   0  0  0  0  0  0
  -30.9787  -18.8711   20.9439 C   0  0  0  0  0  0
  -29.9198  -19.5132   21.6299 C   0  0  0  0  0  0
  -28.9093  -18.6397   22.0967 C   0  0  0  0  0  0
  -30.0378  -16.8047   21.3006 C   0  0  0  0  0  0
  -31.9254  -21.2194   23.9651 C   0  0  0  0  0  0
  -27.8163  -18.6742   24.3516 C   0  0  0  0  0  0
  -24.4308  -18.8916   20.6625 C   0  0  0  0  0  0
  -26.7201  -18.6457   19.7195 C   0  0  0  0  0  0
  -26.0392  -20.7875   20.8446 C   0  0  0  0  0  0
  -32.1566  -21.5892   22.4851 C   0  0  0  0  0  0
  -30.2643  -25.9028   21.5198 C   0  0  0  0  0  0
  -26.3326  -18.6738   22.2683 C   0  0  0  0  0  0
  -30.3167  -23.3305   21.9904 C   0  0  0  0  0  0
  -28.7507  -26.1773   21.3887 C   0  0  0  0  0  0
  -27.6866  -19.1162   22.8849 C   0  0  2  0  0  0
  -30.8749  -21.9064   21.6639 C   0  0  2  0  0  0
  -30.7765  -24.5033   21.0717 C   0  0  2  0  0  0
  -25.9116  -19.2521   20.8841 C   0  0  0  0  0  0
  -31.0319  -17.5274   20.7855 N   0  0  0  0  0  0
  -28.9960  -17.3063   21.9406 N   0  0  0  0  0  0
  -29.8301  -20.9030   21.8825 N   0  0  0  0  0  0
  -29.9780  -15.4352   21.2121 N   0  0  0  0  0  0
  -32.1931  -24.5843   21.0530 O   0  0  0  0  0  0
  -31.4781  -12.4391   19.0999 H   0  0  0  0  0  0
  -30.3540  -11.3061   19.7960 H   0  0  0  0  0  0
  -29.7359  -11.7933   17.4198 H   0  0  0  0  0  0
  -29.6634  -13.5024   17.7579 H   0  0  0  0  0  0
  -27.8166  -11.3250   18.7910 H   0  0  0  0  0  0
  -27.3683  -12.6739   17.7857 H   0  0  0  0  0  0
  -27.7120  -14.2590   19.5939 H   0  0  0  0  0  0
  -28.6933  -11.9242   21.3017 H   0  0  0  0  0  0
  -28.4670  -13.5376   21.8898 H   0  0  0  0  0  0
  -25.2763   -9.5707   22.4769 H   0  0  0  0  0  0
  -24.0037   -7.4611   22.7455 H   0  0  0  0  0  0
  -21.0835   -8.8737   19.8940 H   0  0  0  0  0  0
  -22.3681  -10.9660   19.6146 H   0  0  0  0  0  0
  -21.1969   -7.6154   23.9725 H   0  0  0  0  0  0
  -21.1483   -6.0526   25.9100 H   0  0  0  0  0  0
  -22.0601   -2.7610   23.2812 H   0  0  0  0  0  0
  -22.4060  -11.9866   22.4768 H   0  0  0  0  0  0
  -21.1098  -13.1263   22.2549 H   0  0  0  0  0  0
  -24.6728  -15.8351   20.5224 H   0  0  0  0  0  0
  -26.3015  -15.6152   20.1167 H   0  0  0  0  0  0
  -26.7101  -32.5569   23.1173 H   0  0  0  0  0  0
  -25.0142  -33.9779   25.0535 H   0  0  0  0  0  0
  -22.6928  -31.3071   21.3994 H   0  0  0  0  0  0
  -23.3778  -35.9585   23.3240 H   0  0  0  0  0  0
  -24.3631  -36.8948   22.2076 H   0  0  0  0  0  0
  -23.7152  -37.6468   23.6651 H   0  0  0  0  0  0
  -26.0164  -31.6186   20.5854 H   0  0  0  0  0  0
  -26.8162  -30.9105   21.9640 H   0  0  0  0  0  0
  -28.0986  -29.1480   21.1717 H   0  0  0  0  0  0
  -26.1180  -25.9764   19.0206 H   0  0  0  0  0  0
  -24.0053  -27.2747   19.0392 H   0  0  0  0  0  0
  -23.7266  -30.5904   19.3983 H   0  0  0  0  0  0
  -22.7410  -29.2368   19.8607 H   0  0  0  0  0  0
  -25.1246  -36.1964   25.0861 H   0  0  0  0  0  0
  -20.9953  -28.3234   24.1441 H   0  0  0  0  0  0
  -20.5655  -26.2288   23.3606 H   0  0  0  0  0  0
  -21.6644  -26.7472   22.1207 H   0  0  0  0  0  0
  -19.6918  -25.6331   21.1237 H   0  0  0  0  0  0
  -19.6725  -27.3212   20.6726 H   0  0  0  0  0  0
  -17.4213  -26.6705   21.4002 H   0  0  0  0  0  0
  -18.0335  -26.0091   22.9001 H   0  0  0  0  0  0
  -19.7955  -30.7247   24.2280 H   0  0  0  0  0  0
  -17.5057  -31.6286   24.5184 H   0  0  0  0  0  0
  -15.5350  -30.3027   23.7693 H   0  0  0  0  0  0
  -15.8679  -28.0900   22.7006 H   0  0  0  0  0  0
  -24.5897  -30.7124   25.7834 H   0  0  0  0  0  0
  -24.9061  -32.2882   26.4975 H   0  0  0  0  0  0
  -25.8169  -30.8841   27.0174 H   0  0  0  0  0  0
  -26.2822  -29.6774   24.1109 H   0  0  0  0  0  0
  -27.4152  -29.7267   25.4439 H   0  0  0  0  0  0
  -27.8619  -30.4369   23.9089 H   0  0  0  0  0  0
  -27.2674  -33.3594   26.2040 H   0  0  0  0  0  0
  -28.3875  -32.6852   25.0289 H   0  0  0  0  0  0
  -28.0692  -31.8391   26.5371 H   0  0  0  0  0  0
  -28.2491  -38.0195   24.7668 H   0  0  0  0  0  0
  -28.1207  -36.2742   24.6003 H   0  0  0  0  0  0
  -27.2366  -37.1099   25.8844 H   0  0  0  0  0  0
  -20.9276  -29.8823   21.6977 H   0  0  0  0  0  0
  -26.0135  -38.2874   24.1591 H   0  0  0  0  0  0
  -31.8001  -19.4304   20.5223 H   0  0  0  0  0  0
  -32.8715  -20.9968   24.4604 H   0  0  0  0  0  0
  -31.3002  -20.3318   24.0653 H   0  0  0  0  0  0
  -31.4490  -22.0271   24.5215 H   0  0  0  0  0  0
  -28.7442  -19.0519   24.7806 H   0  0  0  0  0  0
  -27.8279  -17.5879   24.4404 H   0  0  0  0  0  0
  -26.9944  -19.0572   24.9562 H   0  0  0  0  0  0
  -24.0683  -19.2431   19.6949 H   0  0  0  0  0  0
  -23.7920  -19.3365   21.4268 H   0  0  0  0  0  0
  -24.2734  -17.8132   20.6957 H   0  0  0  0  0  0
  -26.3024  -18.9417   18.7562 H   0  0  0  0  0  0
  -26.7160  -17.5559   19.7475 H   0  0  0  0  0  0
  -27.7581  -18.9743   19.7135 H   0  0  0  0  0  0
  -25.5853  -21.1958   19.9408 H   0  0  0  0  0  0
  -27.0807  -21.1098   20.8452 H   0  0  0  0  0  0
  -25.5436  -21.2562   21.6958 H   0  0  0  0  0  0
  -32.7190  -20.7866   22.0134 H   0  0  0  0  0  0
  -32.8289  -22.4458   22.4458 H   0  0  0  0  0  0
  -30.5370  -26.0455   22.5671 H   0  0  0  0  0  0
  -30.7879  -26.6925   20.9760 H   0  0  0  0  0  0
  -25.5597  -18.9494   22.9870 H   0  0  0  0  0  0
  -26.2995  -17.5843   22.2312 H   0  0  0  0  0  0
  -30.5156  -23.5746   23.0355 H   0  0  0  0  0  0
  -29.2283  -23.2966   21.9212 H   0  0  0  0  0  0
  -28.4820  -26.8864   22.1752 H   0  0  0  0  0  0
  -28.1700  -25.2762   21.5871 H   0  0  0  0  0  0
  -27.6690  -20.2033   22.9148 H   0  0  0  0  0  0
  -31.1226  -21.8926   20.6002 H   0  0  0  0  0  0
  -30.4384  -24.3008   20.0536 H   0  0  0  0  0  0
  -29.0355  -21.2227   22.4291 H   0  0  0  0  0  0
  -29.1301  -15.0713   21.6090 H   0  0  0  0  0  0
  -32.4900  -24.8327   21.9226 H   0  0  0  0  0  0
  1 25  1  0  0  0
  1 30  2  0  0  0
  1 92  1  0  0  0
  2  3  1  0  0  0
  2 25  1  0  0  0
  2 94  1  0  0  0
  2 95  1  0  0  0
  3  4  1  0  0  0
  3 96  1  0  0  0
  3 97  1  0  0  0
  4  5  1  0  0  0
  4 98  1  0  0  0
  4 99  1  0  0  0
  5  6  1  0  0  0
  5 26  1  0  0  0
  5100  1  0  0  0
  6 25  1  0  0  0
  6101  1  0  0  0
  6102  1  0  0  0
  7  8  2  0  0  0
  7 26  1  0  0  0
  7 29  1  0  0  0
  8  9  1  0  0  0
  8 22  1  0  0  0
  9 10  1  0  0  0
  9 27  2  0  0  0
 10 11  2  0  0  0
 10 15  1  0  0  0
 11 12  1  0  0  0
 11103  1  0  0  0
 12 13  2  0  0  0
 12104  1  0  0  0
 13 14  1  0  0  0
 13 31  1  0  0  0
 14 15  2  0  0  0
 14105  1  0  0  0
 15106  1  0  0  0
 16 17  2  0  0  0
 16 21  1  0  0  0
 16 31  1  0  0  0
 17 18  1  0  0  0
 17107  1  0  0  0
 18 19  2  0  0  0
 18108  1  0  0  0
 19 20  1  0  0  0
 19 24  1  0  0  0
 20 21  2  0  0  0
 20109  1  0  0  0
 21 23  1  0  0  0
 22 28  1  0  0  0
 22 32  2  0  0  0
 26 27  1  0  0  0
 28110  1  0  0  0
 28111  1  0  0  0
 29112  1  0  0  0
 29113  1  0  0  0
 33 34  1  0  0  0
 33 66  1  0  0  0
 33 70  2  0  0  0
 34 36  1  0  0  0
 34 59  1  0  0  0
 34114  1  0  0  0
 35 44  2  0  0  0
 35 45  1  0  0  0
 35 68  1  0  0  0
 36 56  1  0  0  0
 36115  1  0  0  0
 37 39  1  0  0  0
 37 47  1  0  0  0
 37 66  1  0  0  0
 37116  1  0  0  0
 38 43  2  0  0  0
 38 46  1  0  0  0
 38 47  1  0  0  0
 39 64  1  0  0  0
 39 67  2  0  0  0
 40 52  1  0  0  0
 40 53  2  0  0  0
 40 58  1  0  0  0
 41117  1  0  0  0
 41118  1  0  0  0
 41119  1  0  0  0
 41 48  1  0  0  0
 42 43  1  0  0  0
 42 66  1  0  0  0
 42120  1  0  0  0
 42121  1  0  0  0
 43 44  1  0  0  0
 44122  1  0  0  0
 45 46  2  0  0  0
 45123  1  0  0  0
 46124  1  0  0  0
 47125  1  0  0  0
 47126  1  0  0  0
 48 56  1  0  0  0
 48 65  1  0  0  0
 48127  1  0  0  0
 49 50  1  0  0  0
 49 53  1  0  0  0
 49 64  1  0  0  0
 49128  1  0  0  0
 50 51  1  0  0  0
 50129  1  0  0  0
 50130  1  0  0  0
 51 52  1  0  0  0
 51131  1  0  0  0
 51132  1  0  0  0
 52133  1  0  0  0
 52134  1  0  0  0
 53 54  1  0  0  0
 54 55  2  0  0  0
 54135  1  0  0  0
 55 57  1  0  0  0
 55136  1  0  0  0
 56 69  2  0  0  0
 57 58  2  0  0  0
 57137  1  0  0  0
 58138  1  0  0  0
 59 60  1  0  0  0
 59 61  1  0  0  0
 59 62  1  0  0  0
 60139  1  0  0  0
 60140  1  0  0  0
 60141  1  0  0  0
 61142  1  0  0  0
 61143  1  0  0  0
 61144  1  0  0  0
 62145  1  0  0  0
 62146  1  0  0  0
 62147  1  0  0  0
 63 65  1  0  0  0
 63148  1  0  0  0
 63149  1  0  0  0
 63150  1  0  0  0
 64151  1  0  0  0
 65152  1  0  0  0
 68 84  1  0  0  0
 71 72  2  0  0  0
 71 89  1  0  0  0
 71153  1  0  0  0
 72 73  1  0  0  0
 72 91  1  0  0  0
 73 85  1  0  0  0
 73 90  2  0  0  0
 74 89  2  0  0  0
 74 90  1  0  0  0
 74 92  1  0  0  0
 75 80  1  0  0  0
 75154  1  0  0  0
 75155  1  0  0  0
 75156  1  0  0  0
 76157  1  0  0  0
 76158  1  0  0  0
 76159  1  0  0  0
 76 85  1  0  0  0
 77160  1  0  0  0
 77161  1  0  0  0
 77162  1  0  0  0
 77 88  1  0  0  0
 78 88  1  0  0  0
 78163  1  0  0  0
 78164  1  0  0  0
 78165  1  0  0  0
 79 88  1  0  0  0
 79166  1  0  0  0
 79167  1  0  0  0
 79168  1  0  0  0
 80169  1  0  0  0
 80170  1  0  0  0
 80 86  1  0  0  0
 81 84  1  0  0  0
 81 87  1  0  0  0
 81171  1  0  0  0
 81172  1  0  0  0
 82 85  1  0  0  0
 82 88  1  0  0  0
 82173  1  0  0  0
 82174  1  0  0  0
 83 86  1  0  0  0
 83 87  1  0  0  0
 83175  1  0  0  0
 83176  1  0  0  0
 84177  1  0  0  0
 84178  1  0  0  0
 85179  1  0  0  0
 86 91  1  0  0  0
 86180  1  0  0  0
 87 93  1  0  0  0
 87181  1  0  0  0
 91182  1  0  0  0
 92183  1  0  0  0
 93184  1  0  0  0
M  ISO  4   1 100  68 101  84 101  92 100
M  END
> <chiral flag>
0

> <version>
0

> <s_m_source_file>
/data/baiqing/PycharmProjects/Reinvent-master-3.2/result/LINK_invent/BTK/process_docking_weight1_custom_product_contain_oxygen_bond_distance_aromatic_linkinvent_7_9_3/rearranged_h_0196.sdf

> <i_m_source_file_index>
69

> <r_mmod_Potential_Energy-OPLS-2005>
-335.005035400391

> <r_mmod_Stretch_Energy-OPLS-2005>
42.4286727905273

> <r_mmod_Bend_Energy-OPLS-2005>
153.535858154297

> <r_mmod_Torsional_Energy-OPLS-2005>
244.109039306641

> <r_mmod_Improper_Torsional_Energy-OPLS-2005>
3.12911438941956

> <r_mmod_Van_der_Waal_Energy-OPLS-2005>
148.626876831055

> <r_mmod_Electrostatic_Energy-OPLS-2005>
-711.38427734375

> <r_mmod_Solvation_Energy-OPLS-2005>
-226.813278198242

> <b_mmod_Minimization_Converged-OPLS-2005>
0

> <r_mmod_RMS_Derivative-OPLS-2005>
3.68735384941101

$$$$
69
                    3D
 Structure written by MMmdl.
156164  0  0  1  0            999 V2000
  -31.2402  -14.3451   20.7913 C   0  0  0  0  0  0
  -31.1363  -12.5678   18.9697 C   0  0  0  0  0  0
  -30.1594  -12.9843   17.8426 C   0  0  0  0  0  0
  -28.7505  -13.3797   18.2752 C   0  0  0  0  0  0
  -28.4384  -14.2258   19.7404 C   0  0  2  0  0  0
  -29.5324  -12.9996   20.3431 C   0  0  0  0  0  0
  -24.4985  -14.4985   20.6848 C   0  0  0  0  0  0
  -23.6913  -13.3838   20.7797 C   0  0  0  0  0  0
  -24.3705  -12.1781   21.0119 C   0  0  0  0  0  0
  -23.8732  -10.7032   21.1236 C   0  0  0  0  0  0
  -24.3612   -9.6549   21.9692 C   0  0  0  0  0  0
  -23.6941   -8.3907   22.0901 C   0  0  0  0  0  0
  -22.5073   -8.1153   21.3620 C   0  0  0  0  0  0
  -22.0755   -9.0977   20.4540 C   0  0  0  0  0  0
  -22.7522  -10.3349   20.3281 C   0  0  0  0  0  0
  -21.7411   -6.1135   22.5214 C   0  0  0  0  0  0
  -21.4407   -6.5919   23.8168 C   0  0  0  0  0  0
  -21.3781   -5.6987   24.9075 C   0  0  0  0  0  0
  -21.6013   -4.3228   24.7119 C   0  0  0  0  0  0
  -21.8744   -3.8363   23.4218 C   0  0  0  0  0  0
  -21.9360   -4.7259   22.3320 C   0  0  0  0  0  0
  -22.2885  -13.5799   21.0646 C   0  0  0  0  0  0
  -22.1742   -4.2375   21.0913 F   0  0  0  0  0  0
  -21.5520   -3.4663   25.7608 F   0  0  0  0  0  0
  -30.8021  -13.2454   20.2044 N   0  0  0  0  0  0
  -25.7311  -14.2043   21.0219 N   0  0  0  0  0  0
  -25.2088  -12.9217   21.7409 N   0  0  0  0  0  0
  -21.7488  -12.8084   21.9977 N   0  0  0  0  0  0
  -24.3040  -15.8322   20.5182 N   0  0  0  0  0  0
  -32.0349  -15.0469   20.1917 O   0  0  0  0  0  0
  -21.7678   -6.9424   21.4194 O   0  0  0  0  0  0
  -21.7374  -14.5526   20.5772 O   0  0  0  0  0  0
  -24.7335  -31.7337   23.1135 C   0  0  0  0  0  0
  -25.9687  -32.4111   23.7820 C   0  0  1  0  0  0
  -26.8585  -26.0182   20.2704 C   0  0  0  0  0  0
  -25.6047  -33.7986   24.1623 N   0  0  0  0  0  0
  -23.5615  -30.3405   21.4856 C   0  0  2  0  0  0
  -24.9473  -28.5694   20.1010 C   0  0  0  0  0  0
  -22.7903  -29.4009   22.4553 C   0  0  0  0  0  0
  -18.0362  -28.1442   22.8444 C   0  0  0  0  0  0
  -24.1504  -36.7009   23.2665 C   0  0  0  0  0  0
  -26.1514  -30.2237   21.4773 C   0  0  0  0  0  0
  -26.1310  -28.7289   20.8224 C   0  0  0  0  0  0
  -27.0698  -27.4910   20.8644 C   0  0  0  0  0  0
  -25.7373  -26.2556   19.4281 C   0  0  0  0  0  0
  -24.8401  -27.3781   19.3645 C   0  0  0  0  0  0
  -23.8213  -29.6334   20.1209 C   0  0  0  0  0  0
  -25.4177  -36.2692   24.0233 C   0  0  1  0  0  0
  -20.6010  -28.3813   23.1066 C   0  0  2  0  0  0
  -20.6793  -26.9429   22.5416 C   0  0  0  0  0  0
  -19.5770  -26.6345   21.5235 C   0  0  0  0  0  0
  -18.1955  -26.7966   22.1624 C   0  0  0  0  0  0
  -19.1637  -28.8963   23.2725 C   0  0  0  0  0  0
  -18.9531  -30.1537   23.8783 C   0  0  0  0  0  0
  -17.6512  -30.6606   24.0546 C   0  0  0  0  0  0
  -25.9197  -34.9098   23.4808 C   0  0  0  0  0  0
  -16.5401  -29.9081   23.6352 C   0  0  0  0  0  0
  -16.7340  -28.6509   23.0367 C   0  0  0  0  0  0
  -26.4680  -31.6437   25.0700 C   0  0  0  0  0  0
  -25.3587  -31.3946   26.1204 C   0  0  0  0  0  0
  -27.0700  -30.2712   24.7089 C   0  0  0  0  0  0
  -27.6024  -32.4461   25.7511 C   0  0  0  0  0  0
  -27.5547  -37.1660   24.8455 C   0  0  0  0  0  0
  -21.4517  -29.2973   22.3331 N   0  0  0  0  0  0
  -26.4249  -37.3520   23.9398 N   0  0  0  0  0  0
  -24.8518  -30.8191   22.0727 N   0  0  0  0  0  0
  -23.4154  -28.7651   23.3071 O   0  0  0  0  0  0
  -27.4569  -24.4192   20.3744 O   0  0  0  0  0  0
  -26.5915  -34.8782   22.4481 O   0  0  0  0  0  0
  -23.6269  -32.0749   23.5762 O   0  0  0  0  0  0
  -26.4778  -15.2148   19.0155 C   0  0  0  0  0  0
  -26.4470  -13.3520   19.1023 C   0  0  0  0  0  0
  -27.0446  -16.3896   20.2436 C   0  0  0  0  0  0
  -27.7554  -13.8217   21.8581 C   0  0  0  0  0  0
  -26.7841  -20.1728   22.0070 C   0  0  0  0  0  0
  -28.6422  -13.5679   23.0881 C   0  0  0  0  0  0
  -29.9744  -14.4457   23.1104 C   0  0  0  0  0  0
  -27.0467  -22.4022   20.1168 C   0  0  0  0  0  0
  -27.2911  -20.1409   20.5630 C   0  0  2  0  0  0
  -27.2036  -12.5937   20.5769 N   0  0  0  0  0  0
  -27.6213  -15.5115   21.5567 N   0  0  0  0  0  0
  -26.9992  -18.2221   20.0830 N   0  0  0  0  0  0
  -31.1288  -14.3552   22.1467 N   0  0  0  0  0  0
  -32.1547  -12.8291   18.6775 H   0  0  0  0  0  0
  -31.1620  -11.4837   19.1030 H   0  0  0  0  0  0
  -30.1368  -12.2197   17.0626 H   0  0  0  0  0  0
  -30.5979  -13.8605   17.3616 H   0  0  0  0  0  0
  -28.3085  -12.3819   18.1861 H   0  0  0  0  0  0
  -28.3329  -13.9544   17.4453 H   0  0  0  0  0  0
  -28.9712  -15.1787   19.6441 H   0  0  0  0  0  0
  -29.3003  -11.9810   19.9857 H   0  0  0  0  0  0
  -29.5841  -12.5387   21.3111 H   0  0  0  0  0  0
  -25.2308   -9.8511   22.5794 H   0  0  0  0  0  0
  -24.0921   -7.6501   22.7699 H   0  0  0  0  0  0
  -21.2006   -8.9107   19.8473 H   0  0  0  0  0  0
  -22.3469  -11.0566   19.6323 H   0  0  0  0  0  0
  -21.2571   -7.6446   23.9771 H   0  0  0  0  0  0
  -21.1600   -6.0693   25.8990 H   0  0  0  0  0  0
  -22.0318   -2.7806   23.2661 H   0  0  0  0  0  0
  -22.2789  -12.0655   22.4301 H   0  0  0  0  0  0
  -20.7952  -12.9624   22.2896 H   0  0  0  0  0  0
  -23.3363  -16.1324   20.4602 H   0  0  0  0  0  0
  -24.8747  -16.4868   21.0356 H   0  0  0  0  0  0
  -26.7805  -32.4391   23.0534 H   0  0  0  0  0  0
  -24.9994  -33.8938   24.9645 H   0  0  0  0  0  0
  -22.9221  -31.2020   21.2825 H   0  0  0  0  0  0
  -23.3796  -35.9302   23.3206 H   0  0  0  0  0  0
  -24.3557  -36.8838   22.2104 H   0  0  0  0  0  0
  -23.7241  -37.6118   23.6881 H   0  0  0  0  0  0
  -26.4570  -30.9071   20.6830 H   0  0  0  0  0  0
  -26.9773  -30.2581   22.1731 H   0  0  0  0  0  0
  -27.9422  -27.6078   21.4919 H   0  0  0  0  0  0
  -25.4302  -25.4047   18.8365 H   0  0  0  0  0  0
  -23.9723  -27.2671   18.7283 H   0  0  0  0  0  0
  -24.0790  -30.3887   19.3783 H   0  0  0  0  0  0
  -22.8962  -29.1803   19.7606 H   0  0  0  0  0  0
  -25.1418  -36.1365   25.0720 H   0  0  0  0  0  0
  -21.0088  -28.3467   24.1198 H   0  0  0  0  0  0
  -20.5617  -26.2452   23.3723 H   0  0  0  0  0  0
  -21.6650  -26.7296   22.1263 H   0  0  0  0  0  0
  -19.6907  -25.6222   21.1344 H   0  0  0  0  0  0
  -19.6722  -27.3090   20.6715 H   0  0  0  0  0  0
  -17.4232  -26.6736   21.4013 H   0  0  0  0  0  0
  -18.0301  -26.0129   22.9030 H   0  0  0  0  0  0
  -19.8002  -30.7390   24.2093 H   0  0  0  0  0  0
  -17.5054  -31.6272   24.5180 H   0  0  0  0  0  0
  -15.5393  -30.2943   23.7742 H   0  0  0  0  0  0
  -15.8745  -28.0792   22.7136 H   0  0  0  0  0  0
  -24.5812  -30.7272   25.7469 H   0  0  0  0  0  0
  -24.8741  -32.3231   26.4236 H   0  0  0  0  0  0
  -25.7595  -30.9335   27.0240 H   0  0  0  0  0  0
  -26.3459  -29.6061   24.2381 H   0  0  0  0  0  0
  -27.4132  -29.7522   25.6048 H   0  0  0  0  0  0
  -27.9458  -30.3674   24.0675 H   0  0  0  0  0  0
  -27.2507  -33.3930   26.1625 H   0  0  0  0  0  0
  -28.4031  -32.6763   25.0470 H   0  0  0  0  0  0
  -28.0478  -31.8931   26.5793 H   0  0  0  0  0  0
  -28.2475  -38.0030   24.7513 H   0  0  0  0  0  0
  -28.1128  -36.2543   24.6270 H   0  0  0  0  0  0
  -27.2258  -37.1262   25.8852 H   0  0  0  0  0  0
  -20.9910  -29.8605   21.6321 H   0  0  0  0  0  0
  -26.0014  -38.2537   24.1423 H   0  0  0  0  0  0
  -26.0577  -15.6405   18.1156 H   0  0  0  0  0  0
  -26.0400  -12.7264   18.3218 H   0  0  0  0  0  0
  -27.0897  -21.0954   22.5023 H   0  0  0  0  0  0
  -27.1682  -19.3388   22.5939 H   0  0  0  0  0  0
  -25.6928  -20.1337   22.0282 H   0  0  0  0  0  0
  -28.8356  -12.5055   23.2352 H   0  0  0  0  0  0
  -28.0401  -13.8510   23.9505 H   0  0  0  0  0  0
  -29.6930  -15.4985   23.1388 H   0  0  0  0  0  0
  -30.4243  -14.2670   24.0868 H   0  0  0  0  0  0
  -25.9644  -22.4773   20.2284 H   0  0  0  0  0  0
  -27.1905  -22.3787   19.0363 H   0  0  0  0  0  0
  -28.3806  -20.1011   20.6157 H   0  0  0  0  0  0
  -26.5618  -18.3166   19.1701 H   0  0  0  0  0  0
  -31.9161  -14.8683   22.5187 H   0  0  0  0  0  0
  1 25  1  0  0  0
  1 30  2  0  0  0
  1 83  1  0  0  0
  2  3  1  0  0  0
  2 25  1  0  0  0
  2 84  1  0  0  0
  2 85  1  0  0  0
  3  4  1  0  0  0
  3 86  1  0  0  0
  3 87  1  0  0  0
  4  5  1  0  0  0
  4 88  1  0  0  0
  4 89  1  0  0  0
  5  6  1  0  0  0
  5 26  1  0  0  0
  5 90  1  0  0  0
  6 25  1  0  0  0
  6 91  1  0  0  0
  6 92  1  0  0  0
  7  8  2  0  0  0
  7 26  1  0  0  0
  7 29  1  0  0  0
  8  9  1  0  0  0
  8 22  1  0  0  0
  9 10  1  0  0  0
  9 27  2  0  0  0
 10 11  2  0  0  0
 10 15  1  0  0  0
 11 12  1  0  0  0
 11 93  1  0  0  0
 12 13  2  0  0  0
 12 94  1  0  0  0
 13 14  1  0  0  0
 13 31  1  0  0  0
 14 15  2  0  0  0
 14 95  1  0  0  0
 15 96  1  0  0  0
 16 17  2  0  0  0
 16 21  1  0  0  0
 16 31  1  0  0  0
 17 18  1  0  0  0
 17 97  1  0  0  0
 18 19  2  0  0  0
 18 98  1  0  0  0
 19 20  1  0  0  0
 19 24  1  0  0  0
 20 21  2  0  0  0
 20 99  1  0  0  0
 21 23  1  0  0  0
 22 28  1  0  0  0
 22 32  2  0  0  0
 26 27  1  0  0  0
 28100  1  0  0  0
 28101  1  0  0  0
 29102  1  0  0  0
 29103  1  0  0  0
 33 34  1  0  0  0
 33 66  1  0  0  0
 33 70  2  0  0  0
 34 36  1  0  0  0
 34 59  1  0  0  0
 34104  1  0  0  0
 35 44  2  0  0  0
 35 45  1  0  0  0
 35 68  1  0  0  0
 36 56  1  0  0  0
 36105  1  0  0  0
 37 39  1  0  0  0
 37 47  1  0  0  0
 37 66  1  0  0  0
 37106  1  0  0  0
 38 43  2  0  0  0
 38 46  1  0  0  0
 38 47  1  0  0  0
 39 64  1  0  0  0
 39 67  2  0  0  0
 40 52  1  0  0  0
 40 53  2  0  0  0
 40 58  1  0  0  0
 41107  1  0  0  0
 41108  1  0  0  0
 41109  1  0  0  0
 41 48  1  0  0  0
 42 43  1  0  0  0
 42 66  1  0  0  0
 42110  1  0  0  0
 42111  1  0  0  0
 43 44  1  0  0  0
 44112  1  0  0  0
 45 46  2  0  0  0
 45113  1  0  0  0
 46114  1  0  0  0
 47115  1  0  0  0
 47116  1  0  0  0
 48 56  1  0  0  0
 48 65  1  0  0  0
 48117  1  0  0  0
 49 50  1  0  0  0
 49 53  1  0  0  0
 49 64  1  0  0  0
 49118  1  0  0  0
 50 51  1  0  0  0
 50119  1  0  0  0
 50120  1  0  0  0
 51 52  1  0  0  0
 51121  1  0  0  0
 51122  1  0  0  0
 52123  1  0  0  0
 52124  1  0  0  0
 53 54  1  0  0  0
 54 55  2  0  0  0
 54125  1  0  0  0
 55 57  1  0  0  0
 55126  1  0  0  0
 56 69  2  0  0  0
 57 58  2  0  0  0
 57127  1  0  0  0
 58128  1  0  0  0
 59 60  1  0  0  0
 59 61  1  0  0  0
 59 62  1  0  0  0
 60129  1  0  0  0
 60130  1  0  0  0
 60131  1  0  0  0
 61132  1  0  0  0
 61133  1  0  0  0
 61134  1  0  0  0
 62135  1  0  0  0
 62136  1  0  0  0
 62137  1  0  0  0
 63 65  1  0  0  0
 63138  1  0  0  0
 63139  1  0  0  0
 63140  1  0  0  0
 64141  1  0  0  0
 65142  1  0  0  0
 68 78  1  0  0  0
 71 72  2  0  0  0
 71 73  1  0  0  0
 71143  1  0  0  0
 72 80  1  0  0  0
 72144  1  0  0  0
 73 81  2  0  0  0
 73 82  1  0  0  0
 74 76  1  0  0  0
 74 80  2  0  0  0
 74 81  1  0  0  0
 75145  1  0  0  0
 75146  1  0  0  0
 75147  1  0  0  0
 75 79  1  0  0  0
 76 77  1  0  0  0
 76148  1  0  0  0
 76149  1  0  0  0
 77 83  1  0  0  0
 77150  1  0  0  0
 77151  1  0  0  0
 78 79  1  0  0  0
 78152  1  0  0  0
 78153  1  0  0  0
 79 82  1  0  0  0
 79154  1  0  0  0
 82155  1  0  0  0
 83156  1  0  0  0
M  ISO  4   1 100  68 101  78 101  83 100
M  END
> <chiral flag>
0

> <version>
0

> <s_m_source_file>
/data/baiqing/PycharmProjects/Reinvent-master-3.2/result/LINK_invent/BTK/process_docking_weight1_custom_product_contain_oxygen_bond_distance_aromatic_linkinvent_7_9_3/rearranged_h_0196.sdf

> <i_m_source_file_index>
70

> <r_mmod_Potential_Energy-OPLS-2005>
15174.935546875

> <r_mmod_Stretch_Energy-OPLS-2005>
8445.7138671875

> <r_mmod_Bend_Energy-OPLS-2005>
1355.32080078125

> <r_mmod_Torsional_Energy-OPLS-2005>
443.465606689453

> <r_mmod_Improper_Torsional_Energy-OPLS-2005>
53.0278129577637

> <r_mmod_Van_der_Waal_Energy-OPLS-2005>
2805.63159179688

> <r_mmod_Electrostatic_Energy-OPLS-2005>
-716.3603515625

> <r_mmod_Solvation_Energy-OPLS-2005>
-251.442779541016

> <b_mmod_Minimization_Converged-OPLS-2005>
0

> <r_mmod_RMS_Derivative-OPLS-2005>
3.91937351226807

$$$$
70
                    3D
 Structure written by MMmdl.
155163  0  0  1  0            999 V2000
  -30.5907  -14.7710   20.3734 C   0  0  0  0  0  0
  -30.4354  -12.4407   19.4741 C   0  0  0  0  0  0
  -29.5092  -12.4377   18.2374 C   0  0  0  0  0  0
  -28.0432  -12.2523   18.6742 C   0  0  0  0  0  0
  -27.6354  -13.2137   19.8207 C   0  0  2  0  0  0
  -28.6790  -13.1987   20.9574 C   0  0  0  0  0  0
  -25.2498  -13.8144   20.5555 C   0  0  0  0  0  0
  -24.1839  -13.0424   20.9212 C   0  0  0  0  0  0
  -24.6406  -11.6891   20.8797 C   0  0  0  0  0  0
  -23.9086  -10.4273   21.0464 C   0  0  0  0  0  0
  -24.3636   -9.4169   21.9220 C   0  0  0  0  0  0
  -23.6309   -8.2210   22.0762 C   0  0  0  0  0  0
  -22.4283   -8.0265   21.3551 C   0  0  0  0  0  0
  -21.9952   -9.0248   20.4646 C   0  0  0  0  0  0
  -22.7287  -10.2123   20.3086 C   0  0  0  0  0  0
  -21.6818   -6.0743   22.5304 C   0  0  0  0  0  0
  -21.3965   -6.5658   23.8219 C   0  0  0  0  0  0
  -21.3656   -5.6820   24.9192 C   0  0  0  0  0  0
  -21.6046   -4.3080   24.7243 C   0  0  0  0  0  0
  -21.8807   -3.8172   23.4367 C   0  0  0  0  0  0
  -21.9176   -4.6988   22.3419 C   0  0  0  0  0  0
  -22.7848  -13.5200   21.1917 C   0  0  0  0  0  0
  -22.1659   -4.2164   21.1000 F   0  0  0  0  0  0
  -21.5632   -3.4576   25.7758 F   0  0  0  0  0  0
  -29.9811  -13.5350   20.3655 N   0  0  0  0  0  0
  -26.2903  -12.9323   20.3144 N   0  0  0  0  0  0
  -25.9307  -11.6491   20.5761 N   0  0  0  0  0  0
  -22.0529  -12.8175   22.0458 N   0  0  0  0  0  0
  -25.4147  -15.1842   20.3660 N   0  0  0  0  0  0
  -31.7932  -14.8697   20.1165 O   0  0  0  0  0  0
  -21.6618   -6.8906   21.4250 O   0  0  0  0  0  0
  -22.3553  -14.5543   20.6811 O   0  0  0  0  0  0
  -24.6424  -31.8539   23.1971 C   0  0  0  0  0  0
  -25.9200  -32.4719   23.8367 C   0  0  1  0  0  0
  -27.1681  -27.1952   20.0760 C   0  0  0  0  0  0
  -25.6001  -33.8532   24.2316 N   0  0  0  0  0  0
  -23.4388  -30.4839   21.5446 C   0  0  2  0  0  0
  -24.8655  -28.9351   20.1022 C   0  0  0  0  0  0
  -22.7519  -29.4630   22.4894 C   0  0  0  0  0  0
  -18.0297  -28.1313   22.8547 C   0  0  0  0  0  0
  -24.1499  -36.7222   23.2635 C   0  0  0  0  0  0
  -25.9984  -30.7373   21.3924 C   0  0  0  0  0  0
  -26.0509  -29.3636   20.7117 C   0  0  0  0  0  0
  -27.2082  -28.5038   20.6870 C   0  0  0  0  0  0
  -25.9554  -26.8743   19.4262 C   0  0  0  0  0  0
  -24.8227  -27.6965   19.4555 C   0  0  0  0  0  0
  -23.6485  -29.8333   20.1576 C   0  0  0  0  0  0
  -25.4132  -36.3064   24.0354 C   0  0  1  0  0  0
  -20.5936  -28.3615   23.1124 C   0  0  2  0  0  0
  -20.6825  -26.9335   22.5267 C   0  0  0  0  0  0
  -19.5581  -26.6010   21.5382 C   0  0  0  0  0  0
  -18.1877  -26.7695   22.1987 C   0  0  0  0  0  0
  -19.1612  -28.8802   23.2788 C   0  0  0  0  0  0
  -18.9571  -30.1412   23.8810 C   0  0  0  0  0  0
  -17.6599  -30.6522   24.0659 C   0  0  0  0  0  0
  -25.9048  -34.9418   23.5139 C   0  0  0  0  0  0
  -16.5447  -29.9050   23.6489 C   0  0  0  0  0  0
  -16.7293  -28.6496   23.0471 C   0  0  0  0  0  0
  -26.4501  -31.6535   25.0781 C   0  0  0  0  0  0
  -25.3681  -31.3583   26.1422 C   0  0  0  0  0  0
  -27.0441  -30.3011   24.6262 C   0  0  0  0  0  0
  -27.6026  -32.4278   25.7607 C   0  0  0  0  0  0
  -27.5566  -37.1783   24.8486 C   0  0  0  0  0  0
  -21.4247  -29.2932   22.3460 N   0  0  0  0  0  0
  -26.4323  -37.3729   23.9357 N   0  0  0  0  0  0
  -24.7148  -31.0463   22.0953 N   0  0  0  0  0  0
  -23.4163  -28.8267   23.3092 O   0  0  0  0  0  0
  -28.2015  -26.2068   20.1139 O   0  0  0  0  0  0
  -26.5584  -34.8862   22.4700 O   0  0  0  0  0  0
  -23.5553  -32.1399   23.7206 O   0  0  0  0  0  0
  -27.7543  -18.4081   20.5553 C   0  0  0  0  0  0
  -29.0904  -18.6084   20.1575 C   0  0  0  0  0  0
  -26.8947  -19.5108   20.5382 C   0  0  0  0  0  0
  -28.5626  -20.9240   19.8387 C   0  0  0  0  0  0
  -26.7806  -24.1695   20.7274 C   0  0  0  0  0  0
  -30.1018  -17.3673   20.1203 C   0  0  0  0  0  0
  -29.0607  -23.5980   19.8166 C   0  0  0  0  0  0
  -27.8917  -24.7324   19.8057 C   0  0  2  0  0  0
  -29.4568  -19.8943   19.7636 N   0  0  0  0  0  0
  -27.2980  -20.7521   20.2076 N   0  0  0  0  0  0
  -25.5453  -19.3582   20.8351 N   0  0  0  0  0  0
  -28.8662  -22.1932   19.2435 N   0  0  0  0  0  0
  -29.7841  -15.8969   20.4191 N   0  0  0  0  0  0
  -31.4749  -12.5614   19.1689 H   0  0  0  0  0  0
  -30.3869  -11.4814   19.9917 H   0  0  0  0  0  0
  -29.7975  -11.6334   17.5580 H   0  0  0  0  0  0
  -29.6181  -13.3678   17.6790 H   0  0  0  0  0  0
  -27.9532  -11.2233   19.0281 H   0  0  0  0  0  0
  -27.3669  -12.3378   17.8215 H   0  0  0  0  0  0
  -27.6236  -14.2132   19.3817 H   0  0  0  0  0  0
  -28.7148  -12.2245   21.4453 H   0  0  0  0  0  0
  -28.4015  -13.9156   21.7306 H   0  0  0  0  0  0
  -25.2788   -9.5596   22.4812 H   0  0  0  0  0  0
  -24.0001   -7.4578   22.7472 H   0  0  0  0  0  0
  -21.0901   -8.8765   19.8953 H   0  0  0  0  0  0
  -22.3783  -10.9664   19.6191 H   0  0  0  0  0  0
  -21.1920   -7.6160   23.9728 H   0  0  0  0  0  0
  -21.1498   -6.0554   25.9098 H   0  0  0  0  0  0
  -22.0589   -2.7644   23.2865 H   0  0  0  0  0  0
  -22.4156  -11.9770   22.4725 H   0  0  0  0  0  0
  -21.1143  -13.1169   22.2695 H   0  0  0  0  0  0
  -24.5758  -15.7524   20.3147 H   0  0  0  0  0  0
  -26.1467  -15.5291   19.7598 H   0  0  0  0  0  0
  -26.7289  -32.5336   23.1129 H   0  0  0  0  0  0
  -25.0330  -33.9660   25.0576 H   0  0  0  0  0  0
  -22.7387  -31.3112   21.4046 H   0  0  0  0  0  0
  -23.3757  -35.9549   23.3377 H   0  0  0  0  0  0
  -24.3589  -36.8730   22.2018 H   0  0  0  0  0  0
  -23.7235  -37.6456   23.6574 H   0  0  0  0  0  0
  -26.1729  -31.5054   20.6370 H   0  0  0  0  0  0
  -26.8660  -30.7608   22.0406 H   0  0  0  0  0  0
  -28.1199  -28.8179   21.1736 H   0  0  0  0  0  0
  -25.8226  -25.9371   18.9157 H   0  0  0  0  0  0
  -23.9104  -27.3617   18.9809 H   0  0  0  0  0  0
  -23.7735  -30.6125   19.4042 H   0  0  0  0  0  0
  -22.7641  -29.2739   19.8520 H   0  0  0  0  0  0
  -25.1298  -36.1946   25.0851 H   0  0  0  0  0  0
  -21.0042  -28.3169   24.1237 H   0  0  0  0  0  0
  -20.6051  -26.2286   23.3566 H   0  0  0  0  0  0
  -21.6617  -26.7440   22.0799 H   0  0  0  0  0  0
  -19.6365  -27.2455   20.6634 H   0  0  0  0  0  0
  -19.6699  -25.5755   21.1854 H   0  0  0  0  0  0
  -17.3939  -26.6100   21.4658 H   0  0  0  0  0  0
  -18.0552  -26.0098   22.9725 H   0  0  0  0  0  0
  -19.8087  -30.7224   24.2172 H   0  0  0  0  0  0
  -17.5194  -31.6093   24.5471 H   0  0  0  0  0  0
  -15.5491  -30.2947   23.7965 H   0  0  0  0  0  0
  -15.8630  -28.0785   22.7351 H   0  0  0  0  0  0
  -24.5916  -30.6914   25.7656 H   0  0  0  0  0  0
  -24.8784  -32.2673   26.4902 H   0  0  0  0  0  0
  -25.7962  -30.8677   27.0177 H   0  0  0  0  0  0
  -26.3069  -29.6658   24.1342 H   0  0  0  0  0  0
  -27.4248  -29.7331   25.4747 H   0  0  0  0  0  0
  -27.8872  -30.4370   23.9504 H   0  0  0  0  0  0
  -27.2703  -33.3701   26.1975 H   0  0  0  0  0  0
  -28.3980  -32.6612   25.0528 H   0  0  0  0  0  0
  -28.0496  -31.8494   26.5682 H   0  0  0  0  0  0
  -28.2678  -37.9987   24.7444 H   0  0  0  0  0  0
  -28.0997  -36.2518   24.6505 H   0  0  0  0  0  0
  -27.2254  -37.1650   25.8892 H   0  0  0  0  0  0
  -20.9562  -29.8379   21.6335 H   0  0  0  0  0  0
  -26.0219  -38.2837   24.1272 H   0  0  0  0  0  0
  -27.3967  -17.4198   20.8211 H   0  0  0  0  0  0
  -26.3707  -23.2524   20.2984 H   0  0  0  0  0  0
  -25.9329  -24.8289   20.8961 H   0  0  0  0  0  0
  -27.1727  -23.9144   21.7105 H   0  0  0  0  0  0
  -29.4779  -17.1112   19.2635 H   0  0  0  0  0  0
  -29.9922  -17.4213   21.2033 H   0  0  0  0  0  0
  -29.8576  -24.0108   19.1921 H   0  0  0  0  0  0
  -29.4951  -23.4936   20.8066 H   0  0  0  0  0  0
  -27.5315  -24.7362   18.7735 H   0  0  0  0  0  0
  -25.1585  -18.4532   21.0831 H   0  0  0  0  0  0
  -24.8704  -20.0030   20.4364 H   0  0  0  0  0  0
  -29.6140  -22.0484   18.5760 H   0  0  0  0  0  0
  -28.8055  -15.7187   20.5727 H   0  0  0  0  0  0
  1 25  1  0  0  0
  1 30  2  0  0  0
  1 83  1  0  0  0
  2  3  1  0  0  0
  2 25  1  0  0  0
  2 84  1  0  0  0
  2 85  1  0  0  0
  3  4  1  0  0  0
  3 86  1  0  0  0
  3 87  1  0  0  0
  4  5  1  0  0  0
  4 88  1  0  0  0
  4 89  1  0  0  0
  5  6  1  0  0  0
  5 26  1  0  0  0
  5 90  1  0  0  0
  6 25  1  0  0  0
  6 91  1  0  0  0
  6 92  1  0  0  0
  7  8  2  0  0  0
  7 26  1  0  0  0
  7 29  1  0  0  0
  8  9  1  0  0  0
  8 22  1  0  0  0
  9 10  1  0  0  0
  9 27  2  0  0  0
 10 11  2  0  0  0
 10 15  1  0  0  0
 11 12  1  0  0  0
 11 93  1  0  0  0
 12 13  2  0  0  0
 12 94  1  0  0  0
 13 14  1  0  0  0
 13 31  1  0  0  0
 14 15  2  0  0  0
 14 95  1  0  0  0
 15 96  1  0  0  0
 16 17  2  0  0  0
 16 21  1  0  0  0
 16 31  1  0  0  0
 17 18  1  0  0  0
 17 97  1  0  0  0
 18 19  2  0  0  0
 18 98  1  0  0  0
 19 20  1  0  0  0
 19 24  1  0  0  0
 20 21  2  0  0  0
 20 99  1  0  0  0
 21 23  1  0  0  0
 22 28  1  0  0  0
 22 32  2  0  0  0
 26 27  1  0  0  0
 28100  1  0  0  0
 28101  1  0  0  0
 29102  1  0  0  0
 29103  1  0  0  0
 33 34  1  0  0  0
 33 66  1  0  0  0
 33 70  2  0  0  0
 34 36  1  0  0  0
 34 59  1  0  0  0
 34104  1  0  0  0
 35 44  2  0  0  0
 35 45  1  0  0  0
 35 68  1  0  0  0
 36 56  1  0  0  0
 36105  1  0  0  0
 37 39  1  0  0  0
 37 47  1  0  0  0
 37 66  1  0  0  0
 37106  1  0  0  0
 38 43  2  0  0  0
 38 46  1  0  0  0
 38 47  1  0  0  0
 39 64  1  0  0  0
 39 67  2  0  0  0
 40 52  1  0  0  0
 40 53  2  0  0  0
 40 58  1  0  0  0
 41107  1  0  0  0
 41108  1  0  0  0
 41109  1  0  0  0
 41 48  1  0  0  0
 42 43  1  0  0  0
 42 66  1  0  0  0
 42110  1  0  0  0
 42111  1  0  0  0
 43 44  1  0  0  0
 44112  1  0  0  0
 45 46  2  0  0  0
 45113  1  0  0  0
 46114  1  0  0  0
 47115  1  0  0  0
 47116  1  0  0  0
 48 56  1  0  0  0
 48 65  1  0  0  0
 48117  1  0  0  0
 49 50  1  0  0  0
 49 53  1  0  0  0
 49 64  1  0  0  0
 49118  1  0  0  0
 50 51  1  0  0  0
 50119  1  0  0  0
 50120  1  0  0  0
 51 52  1  0  0  0
 51121  1  0  0  0
 51122  1  0  0  0
 52123  1  0  0  0
 52124  1  0  0  0
 53 54  1  0  0  0
 54 55  2  0  0  0
 54125  1  0  0  0
 55 57  1  0  0  0
 55126  1  0  0  0
 56 69  2  0  0  0
 57 58  2  0  0  0
 57127  1  0  0  0
 58128  1  0  0  0
 59 60  1  0  0  0
 59 61  1  0  0  0
 59 62  1  0  0  0
 60129  1  0  0  0
 60130  1  0  0  0
 60131  1  0  0  0
 61132  1  0  0  0
 61133  1  0  0  0
 61134  1  0  0  0
 62135  1  0  0  0
 62136  1  0  0  0
 62137  1  0  0  0
 63 65  1  0  0  0
 63138  1  0  0  0
 63139  1  0  0  0
 63140  1  0  0  0
 64141  1  0  0  0
 65142  1  0  0  0
 68 78  1  0  0  0
 71 72  2  0  0  0
 71 73  1  0  0  0
 71143  1  0  0  0
 72 76  1  0  0  0
 72 79  1  0  0  0
 73 80  2  0  0  0
 73 81  1  0  0  0
 74 79  2  0  0  0
 74 80  1  0  0  0
 74 82  1  0  0  0
 75144  1  0  0  0
 75145  1  0  0  0
 75146  1  0  0  0
 75 78  1  0  0  0
 76 83  1  0  0  0
 76147  1  0  0  0
 76148  1  0  0  0
 77 78  1  0  0  0
 77 82  1  0  0  0
 77149  1  0  0  0
 77150  1  0  0  0
 78151  1  0  0  0
 81152  1  0  0  0
 81153  1  0  0  0
 82154  1  0  0  0
 83155  1  0  0  0
M  ISO  4   1 100  68 101  78 101  83 100
M  END
> <chiral flag>
0

> <version>
0

> <s_m_source_file>
/data/baiqing/PycharmProjects/Reinvent-master-3.2/result/LINK_invent/BTK/process_docking_weight1_custom_product_contain_oxygen_bond_distance_aromatic_linkinvent_7_9_3/rearranged_h_0196.sdf

> <i_m_source_file_index>
71

> <r_mmod_Potential_Energy-OPLS-2005>
-386.473846435547

> <r_mmod_Stretch_Energy-OPLS-2005>
137.227737426758

> <r_mmod_Bend_Energy-OPLS-2005>
393.157470703125

> <r_mmod_Torsional_Energy-OPLS-2005>
230.610321044922

> <r_mmod_Improper_Torsional_Energy-OPLS-2005>
16.6490440368652

> <r_mmod_Van_der_Waal_Energy-OPLS-2005>
149.725646972656

> <r_mmod_Electrostatic_Energy-OPLS-2005>
-1180.89782714844

> <r_mmod_Solvation_Energy-OPLS-2005>
-261.562072753906

> <b_mmod_Minimization_Converged-OPLS-2005>
0

> <r_mmod_RMS_Derivative-OPLS-2005>
7.77132797241211

$$$$
71
                    3D
 Structure written by MMmdl.
168176  0  0  1  0            999 V2000
  -30.6825  -14.4658   20.5555 C   0  0  0  0  0  0
  -30.4207  -12.2943   19.4150 C   0  0  0  0  0  0
  -29.4941  -12.5084   18.1998 C   0  0  0  0  0  0
  -28.0123  -12.3750   18.6060 C   0  0  0  0  0  0
  -27.6593  -13.2035   19.8712 C   0  0  2  0  0  0
  -28.7003  -12.9652   20.9889 C   0  0  0  0  0  0
  -25.2588  -13.8160   20.5682 C   0  0  0  0  0  0
  -24.1842  -13.0427   20.9177 C   0  0  0  0  0  0
  -24.6389  -11.6901   20.8717 C   0  0  0  0  0  0
  -23.9057  -10.4298   21.0400 C   0  0  0  0  0  0
  -24.3620   -9.4213   21.9171 C   0  0  0  0  0  0
  -23.6305   -8.2244   22.0746 C   0  0  0  0  0  0
  -22.4285   -8.0282   21.3541 C   0  0  0  0  0  0
  -21.9917   -9.0253   20.4637 C   0  0  0  0  0  0
  -22.7236  -10.2134   20.3049 C   0  0  0  0  0  0
  -21.6868   -6.0741   22.5298 C   0  0  0  0  0  0
  -21.4010   -6.5642   23.8225 C   0  0  0  0  0  0
  -21.3656   -5.6792   24.9191 C   0  0  0  0  0  0
  -21.6056   -4.3058   24.7239 C   0  0  0  0  0  0
  -21.8819   -3.8148   23.4359 C   0  0  0  0  0  0
  -21.9195   -4.6970   22.3413 C   0  0  0  0  0  0
  -22.7867  -13.5218   21.1873 C   0  0  0  0  0  0
  -22.1666   -4.2155   21.0994 F   0  0  0  0  0  0
  -21.5631   -3.4535   25.7744 F   0  0  0  0  0  0
  -30.0340  -13.2744   20.4430 N   0  0  0  0  0  0
  -26.3001  -12.9313   20.3325 N   0  0  0  0  0  0
  -25.9303  -11.6474   20.5721 N   0  0  0  0  0  0
  -22.0521  -12.8186   22.0428 N   0  0  0  0  0  0
  -25.4321  -15.1891   20.4157 N   0  0  0  0  0  0
  -31.8166  -14.6512   20.1038 O   0  0  0  0  0  0
  -21.6643   -6.8884   21.4256 O   0  0  0  0  0  0
  -22.3540  -14.5528   20.6743 O   0  0  0  0  0  0
  -24.6180  -31.8665   23.2119 C   0  0  0  0  0  0
  -25.9058  -32.4808   23.8427 C   0  0  1  0  0  0
  -27.2341  -27.4158   20.0722 C   0  0  0  0  0  0
  -25.5901  -33.8613   24.2355 N   0  0  0  0  0  0
  -23.4079  -30.4925   21.5526 C   0  0  2  0  0  0
  -24.8511  -28.9533   20.1210 C   0  0  0  0  0  0
  -22.7434  -29.4662   22.4986 C   0  0  0  0  0  0
  -18.0271  -28.1369   22.8496 C   0  0  0  0  0  0
  -24.1480  -36.7311   23.2642 C   0  0  0  0  0  0
  -25.9421  -30.8165   21.3760 C   0  0  0  0  0  0
  -26.0148  -29.4489   20.7230 C   0  0  0  0  0  0
  -27.2055  -28.6806   20.7097 C   0  0  0  0  0  0
  -26.0410  -26.9304   19.4891 C   0  0  0  0  0  0
  -24.8584  -27.6893   19.5095 C   0  0  0  0  0  0
  -23.6194  -29.8288   20.1667 C   0  0  0  0  0  0
  -25.4101  -36.3118   24.0350 C   0  0  1  0  0  0
  -20.5863  -28.3677   23.1310 C   0  0  2  0  0  0
  -20.6759  -26.9406   22.5423 C   0  0  0  0  0  0
  -19.5743  -26.6378   21.5215 C   0  0  0  0  0  0
  -18.1919  -26.7921   22.1619 C   0  0  0  0  0  0
  -19.1520  -28.8837   23.2897 C   0  0  0  0  0  0
  -18.9445  -30.1436   23.8916 C   0  0  0  0  0  0
  -17.6446  -30.6577   24.0563 C   0  0  0  0  0  0
  -25.9034  -34.9472   23.5155 C   0  0  0  0  0  0
  -16.5336  -29.9085   23.6311 C   0  0  0  0  0  0
  -16.7261  -28.6493   23.0354 C   0  0  0  0  0  0
  -26.4469  -31.6588   25.0764 C   0  0  0  0  0  0
  -25.3736  -31.3679   26.1519 C   0  0  0  0  0  0
  -27.0321  -30.3039   24.6157 C   0  0  0  0  0  0
  -27.6070  -32.4294   25.7496 C   0  0  0  0  0  0
  -27.5591  -37.1806   24.8466 C   0  0  0  0  0  0
  -21.4156  -29.3044   22.3725 N   0  0  0  0  0  0
  -26.4292  -37.3802   23.9421 N   0  0  0  0  0  0
  -24.6741  -31.0746   22.1042 N   0  0  0  0  0  0
  -23.4192  -28.8197   23.3038 O   0  0  0  0  0  0
  -28.3983  -26.6635   20.0444 O   0  0  0  0  0  0
  -26.5599  -34.8920   22.4720 O   0  0  0  0  0  0
  -23.5366  -32.1432   23.7483 O   0  0  0  0  0  0
  -31.2460  -17.5438   20.2643 C   0  0  0  0  0  0
  -29.2379  -17.8733   21.1543 C   0  0  0  0  0  0
  -30.1318  -16.8791   20.8550 C   0  0  0  0  0  0
  -28.6124  -20.8033   19.3238 C   0  0  0  0  0  0
  -31.6768  -22.1567   19.0524 C   0  0  0  0  0  0
  -30.1543  -26.5048   18.4124 C   0  0  0  0  0  0
  -27.3183  -19.9749   17.3138 C   0  0  0  0  0  0
  -29.2019  -20.4141   20.6706 C   0  0  0  0  0  0
  -30.7880  -23.3518   18.6769 C   0  0  0  0  0  0
  -28.4507  -24.4876   18.6359 C   0  0  0  0  0  0
  -29.3328  -23.3192   19.2098 C   0  0  1  0  0  0
  -28.7497  -26.0260   18.7985 C   0  0  1  0  0  0
  -31.0234  -18.8499   20.1618 N   0  0  0  0  0  0
  -29.7894  -19.0623   20.6915 N   0  0  0  0  0  0
  -29.9396  -15.4728   21.0615 N   0  0  0  0  0  0
  -28.7002  -22.0449   18.7714 N   0  0  0  0  0  0
  -27.9448  -19.8481   18.6383 N   0  3  0  0  0  0
  -31.4648  -12.3925   19.1155 H   0  0  0  0  0  0
  -30.3155  -11.2779   19.7996 H   0  0  0  0  0  0
  -29.7335  -11.7961   17.4092 H   0  0  0  0  0  0
  -29.6705  -13.5002   17.7804 H   0  0  0  0  0  0
  -27.8106  -11.3184   18.7865 H   0  0  0  0  0  0
  -27.3701  -12.6674   17.7743 H   0  0  0  0  0  0
  -27.7071  -14.2535   19.5809 H   0  0  0  0  0  0
  -28.6704  -11.9222   21.3088 H   0  0  0  0  0  0
  -28.4660  -13.5477   21.8799 H   0  0  0  0  0  0
  -25.2784   -9.5683   22.4718 H   0  0  0  0  0  0
  -24.0039   -7.4630   22.7445 H   0  0  0  0  0  0
  -21.0848   -8.8753   19.8926 H   0  0  0  0  0  0
  -22.3704  -10.9662   19.6142 H   0  0  0  0  0  0
  -21.1987   -7.6145   23.9727 H   0  0  0  0  0  0
  -21.1485   -6.0526   25.9094 H   0  0  0  0  0  0
  -22.0596   -2.7611   23.2865 H   0  0  0  0  0  0
  -22.4161  -11.9848   22.4785 H   0  0  0  0  0  0
  -21.1134  -13.1175   22.2634 H   0  0  0  0  0  0
  -24.6641  -15.8434   20.5307 H   0  0  0  0  0  0
  -26.2848  -15.6301   20.0962 H   0  0  0  0  0  0
  -26.7135  -32.5511   23.1191 H   0  0  0  0  0  0
  -25.0051  -33.9776   25.0507 H   0  0  0  0  0  0
  -22.6990  -31.3109   21.4141 H   0  0  0  0  0  0
  -23.3748  -35.9636   23.3292 H   0  0  0  0  0  0
  -24.3583  -36.8935   22.2061 H   0  0  0  0  0  0
  -23.7207  -37.6505   23.6655 H   0  0  0  0  0  0
  -26.0682  -31.5774   20.6043 H   0  0  0  0  0  0
  -26.8260  -30.8651   22.0001 H   0  0  0  0  0  0
  -28.1054  -29.0589   21.1749 H   0  0  0  0  0  0
  -26.0069  -25.9598   19.0170 H   0  0  0  0  0  0
  -23.9600  -27.2955   19.0533 H   0  0  0  0  0  0
  -23.7424  -30.6064   19.4126 H   0  0  0  0  0  0
  -22.7390  -29.2606   19.8628 H   0  0  0  0  0  0
  -25.1263  -36.2001   25.0842 H   0  0  0  0  0  0
  -20.9953  -28.3235   24.1429 H   0  0  0  0  0  0
  -20.5656  -26.2285   23.3616 H   0  0  0  0  0  0
  -21.6638  -26.7440   22.1223 H   0  0  0  0  0  0
  -19.6912  -25.6292   21.1239 H   0  0  0  0  0  0
  -19.6679  -27.3196   20.6753 H   0  0  0  0  0  0
  -17.4197  -26.6681   21.4007 H   0  0  0  0  0  0
  -18.0306  -26.0041   22.8997 H   0  0  0  0  0  0
  -19.7916  -30.7242   24.2313 H   0  0  0  0  0  0
  -17.4996  -31.6261   24.5166 H   0  0  0  0  0  0
  -15.5342  -30.3000   23.7604 H   0  0  0  0  0  0
  -15.8659  -28.0813   22.7073 H   0  0  0  0  0  0
  -24.5909  -30.7020   25.7863 H   0  0  0  0  0  0
  -24.8911  -32.2816   26.5007 H   0  0  0  0  0  0
  -25.8094  -30.8831   27.0265 H   0  0  0  0  0  0
  -26.2895  -29.6772   24.1204 H   0  0  0  0  0  0
  -27.4096  -29.7295   25.4629 H   0  0  0  0  0  0
  -27.8723  -30.4374   23.9335 H   0  0  0  0  0  0
  -27.2746  -33.3614   26.2076 H   0  0  0  0  0  0
  -28.3860  -32.6803   25.0284 H   0  0  0  0  0  0
  -28.0750  -31.8396   26.5388 H   0  0  0  0  0  0
  -28.2599  -38.0116   24.7543 H   0  0  0  0  0  0
  -28.1091  -36.2649   24.6241 H   0  0  0  0  0  0
  -27.2318  -37.1413   25.8872 H   0  0  0  0  0  0
  -20.9327  -29.8788   21.6956 H   0  0  0  0  0  0
  -26.0182  -38.2881   24.1426 H   0  0  0  0  0  0
  -32.1749  -17.1419   19.8872 H   0  0  0  0  0  0
  -28.2593  -17.8422   21.6134 H   0  0  0  0  0  0
  -32.6717  -22.2758   18.6225 H   0  0  0  0  0  0
  -31.2805  -21.2130   18.6780 H   0  0  0  0  0  0
  -31.8062  -22.0770   20.1315 H   0  0  0  0  0  0
  -30.4904  -26.0442   17.4826 H   0  0  0  0  0  0
  -30.8867  -26.3065   19.1921 H   0  0  0  0  0  0
  -30.1551  -27.5832   18.2543 H   0  0  0  0  0  0
  -26.8205  -19.0422   17.0468 H   0  0  0  0  0  0
  -28.0724  -20.1842   16.5538 H   0  0  0  0  0  0
  -26.5721  -20.7709   17.3052 H   0  0  0  0  0  0
  -28.4141  -20.4601   21.4231 H   0  0  0  0  0  0
  -29.9593  -21.1295   20.9832 H   0  0  0  0  0  0
  -30.7859  -23.4689   17.5927 H   0  0  0  0  0  0
  -31.2958  -24.2210   19.0798 H   0  0  0  0  0  0
  -27.4263  -24.3091   18.9623 H   0  0  0  0  0  0
  -28.4150  -24.3231   17.5567 H   0  0  0  0  0  0
  -29.3302  -23.3670   20.2985 H   0  0  0  0  0  0
  -28.1341  -26.4862   18.0232 H   0  0  0  0  0  0
  -29.0450  -15.1888   21.4329 H   0  0  0  0  0  0
  -28.3326  -22.1148   17.8330 H   0  0  0  0  0  0
  -27.8805  -18.9257   19.0481 H   0  0  0  0  0  0
  1 25  1  0  0  0
  1 30  2  0  0  0
  1 85  1  0  0  0
  2  3  1  0  0  0
  2 25  1  0  0  0
  2 88  1  0  0  0
  2 89  1  0  0  0
  3  4  1  0  0  0
  3 90  1  0  0  0
  3 91  1  0  0  0
  4  5  1  0  0  0
  4 92  1  0  0  0
  4 93  1  0  0  0
  5  6  1  0  0  0
  5 26  1  0  0  0
  5 94  1  0  0  0
  6 25  1  0  0  0
  6 95  1  0  0  0
  6 96  1  0  0  0
  7  8  2  0  0  0
  7 26  1  0  0  0
  7 29  1  0  0  0
  8  9  1  0  0  0
  8 22  1  0  0  0
  9 10  1  0  0  0
  9 27  2  0  0  0
 10 11  2  0  0  0
 10 15  1  0  0  0
 11 12  1  0  0  0
 11 97  1  0  0  0
 12 13  2  0  0  0
 12 98  1  0  0  0
 13 14  1  0  0  0
 13 31  1  0  0  0
 14 15  2  0  0  0
 14 99  1  0  0  0
 15100  1  0  0  0
 16 17  2  0  0  0
 16 21  1  0  0  0
 16 31  1  0  0  0
 17 18  1  0  0  0
 17101  1  0  0  0
 18 19  2  0  0  0
 18102  1  0  0  0
 19 20  1  0  0  0
 19 24  1  0  0  0
 20 21  2  0  0  0
 20103  1  0  0  0
 21 23  1  0  0  0
 22 28  1  0  0  0
 22 32  2  0  0  0
 26 27  1  0  0  0
 28104  1  0  0  0
 28105  1  0  0  0
 29106  1  0  0  0
 29107  1  0  0  0
 33 34  1  0  0  0
 33 66  1  0  0  0
 33 70  2  0  0  0
 34 36  1  0  0  0
 34 59  1  0  0  0
 34108  1  0  0  0
 35 44  2  0  0  0
 35 45  1  0  0  0
 35 68  1  0  0  0
 36 56  1  0  0  0
 36109  1  0  0  0
 37 39  1  0  0  0
 37 47  1  0  0  0
 37 66  1  0  0  0
 37110  1  0  0  0
 38 43  2  0  0  0
 38 46  1  0  0  0
 38 47  1  0  0  0
 39 64  1  0  0  0
 39 67  2  0  0  0
 40 52  1  0  0  0
 40 53  2  0  0  0
 40 58  1  0  0  0
 41111  1  0  0  0
 41112  1  0  0  0
 41113  1  0  0  0
 41 48  1  0  0  0
 42 43  1  0  0  0
 42 66  1  0  0  0
 42114  1  0  0  0
 42115  1  0  0  0
 43 44  1  0  0  0
 44116  1  0  0  0
 45 46  2  0  0  0
 45117  1  0  0  0
 46118  1  0  0  0
 47119  1  0  0  0
 47120  1  0  0  0
 48 56  1  0  0  0
 48 65  1  0  0  0
 48121  1  0  0  0
 49 50  1  0  0  0
 49 53  1  0  0  0
 49 64  1  0  0  0
 49122  1  0  0  0
 50 51  1  0  0  0
 50123  1  0  0  0
 50124  1  0  0  0
 51 52  1  0  0  0
 51125  1  0  0  0
 51126  1  0  0  0
 52127  1  0  0  0
 52128  1  0  0  0
 53 54  1  0  0  0
 54 55  2  0  0  0
 54129  1  0  0  0
 55 57  1  0  0  0
 55130  1  0  0  0
 56 69  2  0  0  0
 57 58  2  0  0  0
 57131  1  0  0  0
 58132  1  0  0  0
 59 60  1  0  0  0
 59 61  1  0  0  0
 59 62  1  0  0  0
 60133  1  0  0  0
 60134  1  0  0  0
 60135  1  0  0  0
 61136  1  0  0  0
 61137  1  0  0  0
 61138  1  0  0  0
 62139  1  0  0  0
 62140  1  0  0  0
 62141  1  0  0  0
 63 65  1  0  0  0
 63142  1  0  0  0
 63143  1  0  0  0
 63144  1  0  0  0
 64145  1  0  0  0
 65146  1  0  0  0
 68 82  1  0  0  0
 71 73  1  0  0  0
 71 83  2  0  0  0
 71147  1  0  0  0
 72 73  2  0  0  0
 72 84  1  0  0  0
 72148  1  0  0  0
 73 85  1  0  0  0
 74 78  1  0  0  0
 74 86  1  0  0  0
 74 87  2  0  0  0
 75 79  1  0  0  0
 75149  1  0  0  0
 75150  1  0  0  0
 75151  1  0  0  0
 76152  1  0  0  0
 76153  1  0  0  0
 76154  1  0  0  0
 76 82  1  0  0  0
 77 87  1  0  0  0
 77155  1  0  0  0
 77156  1  0  0  0
 77157  1  0  0  0
 78 84  1  0  0  0
 78158  1  0  0  0
 78159  1  0  0  0
 79160  1  0  0  0
 79161  1  0  0  0
 79 81  1  0  0  0
 80 81  1  0  0  0
 80 82  1  0  0  0
 80162  1  0  0  0
 80163  1  0  0  0
 81 86  1  0  0  0
 81164  1  0  0  0
 82165  1  0  0  0
 83 84  1  0  0  0
 85166  1  0  0  0
 86167  1  0  0  0
 87168  1  0  0  0
M  CHG  1  87   1
M  ISO  4   1 100  68 101  82 101  85 100
M  END
> <chiral flag>
0

> <version>
0

> <s_m_source_file>
/data/baiqing/PycharmProjects/Reinvent-master-3.2/result/LINK_invent/BTK/process_docking_weight1_custom_product_contain_oxygen_bond_distance_aromatic_linkinvent_7_9_3/rearranged_h_0196.sdf

> <i_m_source_file_index>
72

> <r_mmod_Potential_Energy-OPLS-2005>
-5.87540483474731

> <r_mmod_Stretch_Energy-OPLS-2005>
44.6539154052734

> <r_mmod_Bend_Energy-OPLS-2005>
150.469680786133

> <r_mmod_Torsional_Energy-OPLS-2005>
241.914077758789

> <r_mmod_Improper_Torsional_Energy-OPLS-2005>
4.24381637573242

> <r_mmod_Van_der_Waal_Energy-OPLS-2005>
131.080001831055

> <r_mmod_Electrostatic_Energy-OPLS-2005>
-156.776962280273

> <r_mmod_Solvation_Energy-OPLS-2005>
-435.155090332031

> <b_mmod_Minimization_Converged-OPLS-2005>
0

> <r_mmod_RMS_Derivative-OPLS-2005>
2.51481485366821

$$$$
72
                    3D
 Structure written by MMmdl.
157165  0  0  1  0            999 V2000
  -30.7062  -14.4508   20.5932 C   0  0  0  0  0  0
  -30.4187  -12.2974   19.4218 C   0  0  0  0  0  0
  -29.4902  -12.5122   18.2090 C   0  0  0  0  0  0
  -28.0118  -12.3686   18.6198 C   0  0  0  0  0  0
  -27.6603  -13.2041   19.8799 C   0  0  2  0  0  0
  -28.7000  -12.9701   20.9996 C   0  0  0  0  0  0
  -25.2570  -13.8163   20.5699 C   0  0  0  0  0  0
  -24.1820  -13.0447   20.9193 C   0  0  0  0  0  0
  -24.6372  -11.6910   20.8754 C   0  0  0  0  0  0
  -23.9044  -10.4294   21.0427 C   0  0  0  0  0  0
  -24.3607   -9.4200   21.9193 C   0  0  0  0  0  0
  -23.6288   -8.2233   22.0757 C   0  0  0  0  0  0
  -22.4267   -8.0277   21.3549 C   0  0  0  0  0  0
  -21.9907   -9.0249   20.4649 C   0  0  0  0  0  0
  -22.7230  -10.2131   20.3065 C   0  0  0  0  0  0
  -21.6842   -6.0736   22.5286 C   0  0  0  0  0  0
  -21.4009   -6.5643   23.8218 C   0  0  0  0  0  0
  -21.3662   -5.6798   24.9179 C   0  0  0  0  0  0
  -21.6048   -4.3059   24.7229 C   0  0  0  0  0  0
  -21.8815   -3.8149   23.4349 C   0  0  0  0  0  0
  -21.9189   -4.6966   22.3403 C   0  0  0  0  0  0
  -22.7844  -13.5238   21.1873 C   0  0  0  0  0  0
  -22.1661   -4.2152   21.0980 F   0  0  0  0  0  0
  -21.5636   -3.4544   25.7737 F   0  0  0  0  0  0
  -30.0375  -13.2730   20.4548 N   0  0  0  0  0  0
  -26.3004  -12.9326   20.3388 N   0  0  0  0  0  0
  -25.9290  -11.6486   20.5782 N   0  0  0  0  0  0
  -22.0493  -12.8216   22.0420 N   0  0  0  0  0  0
  -25.4306  -15.1885   20.4101 N   0  0  0  0  0  0
  -31.8210  -14.6434   20.0951 O   0  0  0  0  0  0
  -21.6635   -6.8881   21.4245 O   0  0  0  0  0  0
  -22.3528  -14.5553   20.6727 O   0  0  0  0  0  0
  -24.6177  -31.8692   23.2092 C   0  0  0  0  0  0
  -25.9084  -32.4811   23.8383 C   0  0  1  0  0  0
  -27.2297  -27.4383   20.0788 C   0  0  0  0  0  0
  -25.5941  -33.8607   24.2334 N   0  0  0  0  0  0
  -23.4013  -30.4968   21.5514 C   0  0  2  0  0  0
  -24.8412  -28.9609   20.1131 C   0  0  0  0  0  0
  -22.7410  -29.4696   22.4990 C   0  0  0  0  0  0
  -18.0278  -28.1378   22.8490 C   0  0  0  0  0  0
  -24.1492  -36.7332   23.2635 C   0  0  0  0  0  0
  -25.9307  -30.8341   21.3593 C   0  0  0  0  0  0
  -26.0022  -29.4687   20.7065 C   0  0  0  0  0  0
  -27.1956  -28.7137   20.6879 C   0  0  0  0  0  0
  -26.0449  -26.9411   19.4876 C   0  0  0  0  0  0
  -24.8568  -27.6948   19.5041 C   0  0  0  0  0  0
  -23.6064  -29.8320   20.1643 C   0  0  0  0  0  0
  -25.4107  -36.3113   24.0339 C   0  0  1  0  0  0
  -20.5869  -28.3682   23.1306 C   0  0  2  0  0  0
  -20.6785  -26.9418   22.5415 C   0  0  0  0  0  0
  -19.5767  -26.6394   21.5213 C   0  0  0  0  0  0
  -18.1936  -26.7932   22.1607 C   0  0  0  0  0  0
  -19.1524  -28.8842   23.2894 C   0  0  0  0  0  0
  -18.9458  -30.1444   23.8905 C   0  0  0  0  0  0
  -17.6461  -30.6579   24.0574 C   0  0  0  0  0  0
  -25.9040  -34.9474   23.5130 C   0  0  0  0  0  0
  -16.5351  -29.9085   23.6322 C   0  0  0  0  0  0
  -16.7269  -28.6505   23.0340 C   0  0  0  0  0  0
  -26.4508  -31.6578   25.0713 C   0  0  0  0  0  0
  -25.3781  -31.3692   26.1473 C   0  0  0  0  0  0
  -27.0357  -30.3020   24.6092 C   0  0  0  0  0  0
  -27.6082  -32.4287   25.7486 C   0  0  0  0  0  0
  -27.5582  -37.1821   24.8462 C   0  0  0  0  0  0
  -21.4140  -29.3050   22.3709 N   0  0  0  0  0  0
  -26.4296  -37.3793   23.9404 N   0  0  0  0  0  0
  -24.6686  -31.0811   22.0981 N   0  0  0  0  0  0
  -23.4182  -28.8246   23.3039 O   0  0  0  0  0  0
  -28.4250  -26.7470   20.0885 O   0  0  0  0  0  0
  -26.5588  -34.8927   22.4682 O   0  0  0  0  0  0
  -23.5376  -32.1454   23.7497 O   0  0  0  0  0  0
  -29.0031  -17.5965   21.3743 C   0  0  0  0  0  0
  -31.3393  -18.8066   20.8364 C   0  0  0  0  0  0
  -30.1741  -16.8248   21.1542 C   0  0  0  0  0  0
  -30.1570  -19.5635   21.0337 C   0  0  0  0  0  0
  -28.6840  -22.0993   22.5245 C   0  0  0  0  0  0
  -29.2789  -23.1616   20.2616 C   0  0  0  0  0  0
  -28.5513  -25.4884   19.4140 C   0  0  0  0  0  0
  -29.0257  -21.8423   21.0465 C   0  0  1  0  0  0
  -28.1725  -24.2540   20.2853 C   0  0  1  0  0  0
  -31.3521  -17.4517   20.8941 N   0  0  0  0  0  0
  -28.9828  -18.9520   21.3108 N   0  0  0  0  0  0
  -30.0117  -15.4131   21.2261 N   0  0  0  0  0  0
  -30.1971  -20.9645   20.9334 N   0  0  0  0  0  0
  -26.9451  -23.7026   19.8293 O   0  0  0  0  0  0
  -31.4634  -12.3892   19.1213 H   0  0  0  0  0  0
  -30.3121  -11.2840   19.8117 H   0  0  0  0  0  0
  -29.7296  -11.7992   17.4187 H   0  0  0  0  0  0
  -29.6564  -13.5050   17.7879 H   0  0  0  0  0  0
  -27.8221  -11.3124   18.8139 H   0  0  0  0  0  0
  -27.3610  -12.6467   17.7905 H   0  0  0  0  0  0
  -27.7087  -14.2537   19.5883 H   0  0  0  0  0  0
  -28.6688  -11.9307   21.3294 H   0  0  0  0  0  0
  -28.4545  -13.5549   21.8873 H   0  0  0  0  0  0
  -25.2761   -9.5676   22.4753 H   0  0  0  0  0  0
  -24.0014   -7.4614   22.7458 H   0  0  0  0  0  0
  -21.0854   -8.8761   19.8929 H   0  0  0  0  0  0
  -22.3706  -10.9671   19.6169 H   0  0  0  0  0  0
  -21.1996   -7.6150   23.9723 H   0  0  0  0  0  0
  -21.1498   -6.0531   25.9087 H   0  0  0  0  0  0
  -22.0591   -2.7610   23.2846 H   0  0  0  0  0  0
  -22.4123  -11.9865   22.4777 H   0  0  0  0  0  0
  -21.1113  -13.1220   22.2650 H   0  0  0  0  0  0
  -24.6595  -15.8411   20.4991 H   0  0  0  0  0  0
  -26.2723  -15.6192   20.0507 H   0  0  0  0  0  0
  -26.7163  -32.5524   23.1151 H   0  0  0  0  0  0
  -25.0147  -33.9761   25.0518 H   0  0  0  0  0  0
  -22.6918  -31.3154   21.4150 H   0  0  0  0  0  0
  -23.3735  -35.9685   23.3309 H   0  0  0  0  0  0
  -24.3595  -36.8936   22.2049 H   0  0  0  0  0  0
  -23.7264  -37.6550   23.6639 H   0  0  0  0  0  0
  -26.0447  -31.5982   20.5889 H   0  0  0  0  0  0
  -26.8202  -30.8857   21.9751 H   0  0  0  0  0  0
  -28.0963  -29.1105   21.1350 H   0  0  0  0  0  0
  -26.0103  -25.9753   19.0086 H   0  0  0  0  0  0
  -23.9640  -27.2965   19.0424 H   0  0  0  0  0  0
  -23.7200  -30.6114   19.4099 H   0  0  0  0  0  0
  -22.7268  -29.2610   19.8626 H   0  0  0  0  0  0
  -25.1276  -36.1989   25.0830 H   0  0  0  0  0  0
  -20.9962  -28.3271   24.1428 H   0  0  0  0  0  0
  -20.5722  -26.2294   23.3609 H   0  0  0  0  0  0
  -21.6655  -26.7495   22.1191 H   0  0  0  0  0  0
  -19.6944  -25.6312   21.1231 H   0  0  0  0  0  0
  -19.6705  -27.3216   20.6755 H   0  0  0  0  0  0
  -17.4222  -26.6696   21.3987 H   0  0  0  0  0  0
  -18.0312  -26.0051   22.8975 H   0  0  0  0  0  0
  -19.7935  -30.7253   24.2278 H   0  0  0  0  0  0
  -17.5019  -31.6258   24.5190 H   0  0  0  0  0  0
  -15.5352  -30.2997   23.7637 H   0  0  0  0  0  0
  -15.8670  -28.0835   22.7038 H   0  0  0  0  0  0
  -24.5915  -30.7080   25.7822 H   0  0  0  0  0  0
  -24.9026  -32.2859   26.4966 H   0  0  0  0  0  0
  -25.8144  -30.8824   27.0204 H   0  0  0  0  0  0
  -26.2908  -29.6731   24.1200 H   0  0  0  0  0  0
  -27.4201  -29.7296   25.4547 H   0  0  0  0  0  0
  -27.8703  -30.4347   23.9201 H   0  0  0  0  0  0
  -27.2696  -33.3551   26.2130 H   0  0  0  0  0  0
  -28.3868  -32.6891   25.0305 H   0  0  0  0  0  0
  -28.0780  -31.8368   26.5352 H   0  0  0  0  0  0
  -28.2606  -38.0110   24.7493 H   0  0  0  0  0  0
  -28.1071  -36.2643   24.6298 H   0  0  0  0  0  0
  -27.2309  -37.1490   25.8867 H   0  0  0  0  0  0
  -20.9305  -29.8755   21.6913 H   0  0  0  0  0  0
  -26.0194  -38.2882   24.1366 H   0  0  0  0  0  0
  -28.0575  -17.1177   21.5799 H   0  0  0  0  0  0
  -32.2822  -19.2885   20.6214 H   0  0  0  0  0  0
  -27.7570  -22.6662   22.6177 H   0  0  0  0  0  0
  -29.4697  -22.6643   23.0273 H   0  0  0  0  0  0
  -28.5338  -21.1697   23.0738 H   0  0  0  0  0  0
  -29.4953  -22.9118   19.2216 H   0  0  0  0  0  0
  -30.1924  -23.6207   20.6459 H   0  0  0  0  0  0
  -28.0607  -25.4818   18.4398 H   0  0  0  0  0  0
  -29.6108  -25.4215   19.1660 H   0  0  0  0  0  0
  -28.1755  -21.3370   20.5858 H   0  0  0  0  0  0
  -28.0361  -24.5857   21.3148 H   0  0  0  0  0  0
  -29.1290  -15.1022   21.5992 H   0  0  0  0  0  0
  -31.0841  -21.3809   20.6650 H   0  0  0  0  0  0
  -27.0567  -23.4340   18.9224 H   0  0  0  0  0  0
  1 25  1  0  0  0
  1 30  2  0  0  0
  1 82  1  0  0  0
  2  3  1  0  0  0
  2 25  1  0  0  0
  2 85  1  0  0  0
  2 86  1  0  0  0
  3  4  1  0  0  0
  3 87  1  0  0  0
  3 88  1  0  0  0
  4  5  1  0  0  0
  4 89  1  0  0  0
  4 90  1  0  0  0
  5  6  1  0  0  0
  5 26  1  0  0  0
  5 91  1  0  0  0
  6 25  1  0  0  0
  6 92  1  0  0  0
  6 93  1  0  0  0
  7  8  2  0  0  0
  7 26  1  0  0  0
  7 29  1  0  0  0
  8  9  1  0  0  0
  8 22  1  0  0  0
  9 10  1  0  0  0
  9 27  2  0  0  0
 10 11  2  0  0  0
 10 15  1  0  0  0
 11 12  1  0  0  0
 11 94  1  0  0  0
 12 13  2  0  0  0
 12 95  1  0  0  0
 13 14  1  0  0  0
 13 31  1  0  0  0
 14 15  2  0  0  0
 14 96  1  0  0  0
 15 97  1  0  0  0
 16 17  2  0  0  0
 16 21  1  0  0  0
 16 31  1  0  0  0
 17 18  1  0  0  0
 17 98  1  0  0  0
 18 19  2  0  0  0
 18 99  1  0  0  0
 19 20  1  0  0  0
 19 24  1  0  0  0
 20 21  2  0  0  0
 20100  1  0  0  0
 21 23  1  0  0  0
 22 28  1  0  0  0
 22 32  2  0  0  0
 26 27  1  0  0  0
 28101  1  0  0  0
 28102  1  0  0  0
 29103  1  0  0  0
 29104  1  0  0  0
 33 34  1  0  0  0
 33 66  1  0  0  0
 33 70  2  0  0  0
 34 36  1  0  0  0
 34 59  1  0  0  0
 34105  1  0  0  0
 35 44  2  0  0  0
 35 45  1  0  0  0
 35 68  1  0  0  0
 36 56  1  0  0  0
 36106  1  0  0  0
 37 39  1  0  0  0
 37 47  1  0  0  0
 37 66  1  0  0  0
 37107  1  0  0  0
 38 43  2  0  0  0
 38 46  1  0  0  0
 38 47  1  0  0  0
 39 64  1  0  0  0
 39 67  2  0  0  0
 40 52  1  0  0  0
 40 53  2  0  0  0
 40 58  1  0  0  0
 41108  1  0  0  0
 41109  1  0  0  0
 41110  1  0  0  0
 41 48  1  0  0  0
 42 43  1  0  0  0
 42 66  1  0  0  0
 42111  1  0  0  0
 42112  1  0  0  0
 43 44  1  0  0  0
 44113  1  0  0  0
 45 46  2  0  0  0
 45114  1  0  0  0
 46115  1  0  0  0
 47116  1  0  0  0
 47117  1  0  0  0
 48 56  1  0  0  0
 48 65  1  0  0  0
 48118  1  0  0  0
 49 50  1  0  0  0
 49 53  1  0  0  0
 49 64  1  0  0  0
 49119  1  0  0  0
 50 51  1  0  0  0
 50120  1  0  0  0
 50121  1  0  0  0
 51 52  1  0  0  0
 51122  1  0  0  0
 51123  1  0  0  0
 52124  1  0  0  0
 52125  1  0  0  0
 53 54  1  0  0  0
 54 55  2  0  0  0
 54126  1  0  0  0
 55 57  1  0  0  0
 55127  1  0  0  0
 56 69  2  0  0  0
 57 58  2  0  0  0
 57128  1  0  0  0
 58129  1  0  0  0
 59 60  1  0  0  0
 59 61  1  0  0  0
 59 62  1  0  0  0
 60130  1  0  0  0
 60131  1  0  0  0
 60132  1  0  0  0
 61133  1  0  0  0
 61134  1  0  0  0
 61135  1  0  0  0
 62136  1  0  0  0
 62137  1  0  0  0
 62138  1  0  0  0
 63 65  1  0  0  0
 63139  1  0  0  0
 63140  1  0  0  0
 63141  1  0  0  0
 64142  1  0  0  0
 65143  1  0  0  0
 68 77  1  0  0  0
 71 73  2  0  0  0
 71 81  1  0  0  0
 71144  1  0  0  0
 72 74  1  0  0  0
 72 80  2  0  0  0
 72145  1  0  0  0
 73 80  1  0  0  0
 73 82  1  0  0  0
 74 81  2  0  0  0
 74 83  1  0  0  0
 75146  1  0  0  0
 75147  1  0  0  0
 75148  1  0  0  0
 75 78  1  0  0  0
 76 78  1  0  0  0
 76 79  1  0  0  0
 76149  1  0  0  0
 76150  1  0  0  0
 77 79  1  0  0  0
 77151  1  0  0  0
 77152  1  0  0  0
 78 83  1  0  0  0
 78153  1  0  0  0
 79 84  1  0  0  0
 79154  1  0  0  0
 82155  1  0  0  0
 83156  1  0  0  0
 84157  1  0  0  0
M  ISO  4   1 100  68 101  77 101  82 100
M  END
> <chiral flag>
0

> <version>
0

> <s_m_source_file>
/data/baiqing/PycharmProjects/Reinvent-master-3.2/result/LINK_invent/BTK/process_docking_weight1_custom_product_contain_oxygen_bond_distance_aromatic_linkinvent_7_9_3/rearranged_h_0196.sdf

> <i_m_source_file_index>
73

> <r_mmod_Potential_Energy-OPLS-2005>
-53.1161804199219

> <r_mmod_Stretch_Energy-OPLS-2005>
39.1594848632812

> <r_mmod_Bend_Energy-OPLS-2005>
122.689910888672

> <r_mmod_Torsional_Energy-OPLS-2005>
192.242782592773

> <r_mmod_Improper_Torsional_Energy-OPLS-2005>
3.58345746994019

> <r_mmod_Van_der_Waal_Energy-OPLS-2005>
161.688461303711

> <r_mmod_Electrostatic_Energy-OPLS-2005>
-323.346740722656

> <r_mmod_Solvation_Energy-OPLS-2005>
-260.224945068359

> <b_mmod_Minimization_Converged-OPLS-2005>
0

> <r_mmod_RMS_Derivative-OPLS-2005>
1.66012418270111

$$$$
73
                    3D
 Structure written by MMmdl.
155163  0  0  1  0            999 V2000
  -30.5769  -14.7401   20.4981 C   0  0  0  0  0  0
  -30.4440  -12.4625   19.4411 C   0  0  0  0  0  0
  -29.4976  -12.4920   18.2181 C   0  0  0  0  0  0
  -28.0283  -12.3055   18.6491 C   0  0  0  0  0  0
  -27.6357  -13.2078   19.8463 C   0  0  2  0  0  0
  -28.6895  -13.1222   20.9734 C   0  0  0  0  0  0
  -25.2509  -13.8123   20.5709 C   0  0  0  0  0  0
  -24.1796  -13.0401   20.9244 C   0  0  0  0  0  0
  -24.6361  -11.6884   20.8765 C   0  0  0  0  0  0
  -23.9034  -10.4280   21.0434 C   0  0  0  0  0  0
  -24.3591   -9.4202   21.9213 C   0  0  0  0  0  0
  -23.6276   -8.2233   22.0776 C   0  0  0  0  0  0
  -22.4267   -8.0263   21.3553 C   0  0  0  0  0  0
  -21.9901   -9.0235   20.4655 C   0  0  0  0  0  0
  -22.7218  -10.2120   20.3076 C   0  0  0  0  0  0
  -21.6856   -6.0734   22.5277 C   0  0  0  0  0  0
  -21.4027   -6.5646   23.8211 C   0  0  0  0  0  0
  -21.3658   -5.6795   24.9164 C   0  0  0  0  0  0
  -21.6035   -4.3057   24.7219 C   0  0  0  0  0  0
  -21.8819   -3.8153   23.4346 C   0  0  0  0  0  0
  -21.9195   -4.6966   22.3399 C   0  0  0  0  0  0
  -22.7825  -13.5223   21.1854 C   0  0  0  0  0  0
  -22.1664   -4.2161   21.0973 F   0  0  0  0  0  0
  -21.5616   -3.4537   25.7732 F   0  0  0  0  0  0
  -29.9803  -13.5031   20.3849 N   0  0  0  0  0  0
  -26.2896  -12.9279   20.3271 N   0  0  0  0  0  0
  -25.9273  -11.6455   20.5787 N   0  0  0  0  0  0
  -22.0447  -12.8217   22.0394 N   0  0  0  0  0  0
  -25.4144  -15.1844   20.4077 N   0  0  0  0  0  0
  -31.7892  -14.8615   20.2711 O   0  0  0  0  0  0
  -21.6633   -6.8863   21.4240 O   0  0  0  0  0  0
  -22.3551  -14.5541   20.6694 O   0  0  0  0  0  0
  -24.6321  -31.8542   23.2012 C   0  0  0  0  0  0
  -25.9150  -32.4756   23.8346 C   0  0  1  0  0  0
  -27.2195  -27.2599   20.1333 C   0  0  0  0  0  0
  -25.5968  -33.8563   24.2285 N   0  0  0  0  0  0
  -23.4280  -30.4770   21.5432 C   0  0  2  0  0  0
  -24.8796  -28.9295   20.1053 C   0  0  0  0  0  0
  -22.7492  -29.4598   22.4923 C   0  0  0  0  0  0
  -18.0263  -28.1417   22.8404 C   0  0  0  0  0  0
  -24.1482  -36.7239   23.2642 C   0  0  0  0  0  0
  -25.9737  -30.7660   21.3851 C   0  0  0  0  0  0
  -26.0493  -29.3900   20.7238 C   0  0  0  0  0  0
  -27.2245  -28.5697   20.7233 C   0  0  0  0  0  0
  -26.0369  -26.8823   19.4598 C   0  0  0  0  0  0
  -24.8800  -27.6855   19.4573 C   0  0  0  0  0  0
  -23.6472  -29.8139   20.1587 C   0  0  0  0  0  0
  -25.4112  -36.3061   24.0334 C   0  0  1  0  0  0
  -20.5886  -28.3621   23.1185 C   0  0  2  0  0  0
  -20.6748  -26.9362   22.5241 C   0  0  0  0  0  0
  -19.5659  -26.6266   21.5128 C   0  0  0  0  0  0
  -18.1802  -26.7996   22.1425 C   0  0  0  0  0  0
  -19.1555  -28.8827   23.2813 C   0  0  0  0  0  0
  -18.9514  -30.1388   23.8917 C   0  0  0  0  0  0
  -17.6527  -30.6538   24.0663 C   0  0  0  0  0  0
  -25.9067  -34.9439   23.5092 C   0  0  0  0  0  0
  -16.5385  -29.9069   23.6471 C   0  0  0  0  0  0
  -16.7278  -28.6526   23.0404 C   0  0  0  0  0  0
  -26.4523  -31.6583   25.0736 C   0  0  0  0  0  0
  -25.3748  -31.3703   26.1453 C   0  0  0  0  0  0
  -27.0405  -30.3014   24.6213 C   0  0  0  0  0  0
  -27.6078  -32.4328   25.7516 C   0  0  0  0  0  0
  -27.5559  -37.1782   24.8486 C   0  0  0  0  0  0
  -21.4201  -29.3018   22.3638 N   0  0  0  0  0  0
  -26.4288  -37.3761   23.9420 N   0  0  0  0  0  0
  -24.6965  -31.0496   22.1003 N   0  0  0  0  0  0
  -23.4194  -28.8123   23.3014 O   0  0  0  0  0  0
  -28.3025  -26.3508   20.1744 O   0  0  0  0  0  0
  -26.5602  -34.8921   22.4642 O   0  0  0  0  0  0
  -23.5486  -32.1370   23.7295 O   0  0  0  0  0  0
  -29.2430  -19.7063   22.3503 C   0  0  0  0  0  0
  -29.6258  -18.4268   20.3323 C   0  0  0  0  0  0
  -29.3977  -19.7251   20.9427 C   0  0  0  0  0  0
  -29.3321  -18.4950   23.0718 C   0  0  0  0  0  0
  -29.7263  -17.1889   21.0897 C   0  0  0  0  0  0
  -28.4311  -22.1512   20.5081 C   0  0  0  0  0  0
  -28.0235  -24.9273   20.5966 C   0  0  0  0  0  0
  -28.9674  -23.6525   20.2333 C   0  0  1  0  0  0
  -29.5775  -17.3273   22.4392 N   0  3  0  0  0  0
  -29.1484  -18.4335   24.4526 N   0  0  0  0  0  0
  -29.3617  -20.9869   20.2209 N   0  0  0  0  0  0
  -29.7094  -15.8266   20.5074 N   0  0  0  0  0  0
  -30.1166  -23.6529   21.0519 O   0  0  0  0  0  0
  -31.4715  -12.6325   19.1162 H   0  0  0  0  0  0
  -30.4346  -11.4799   19.9148 H   0  0  0  0  0  0
  -29.7752  -11.7109   17.5083 H   0  0  0  0  0  0
  -29.6060  -13.4387   17.6869 H   0  0  0  0  0  0
  -27.8955  -11.2584   18.9220 H   0  0  0  0  0  0
  -27.3582  -12.4812   17.8076 H   0  0  0  0  0  0
  -27.6250  -14.2264   19.4613 H   0  0  0  0  0  0
  -28.7427  -12.1115   21.3822 H   0  0  0  0  0  0
  -28.4193  -13.7699   21.8093 H   0  0  0  0  0  0
  -25.2728   -9.5690   22.4802 H   0  0  0  0  0  0
  -23.9986   -7.4638   22.7506 H   0  0  0  0  0  0
  -21.0839   -8.8740   19.8953 H   0  0  0  0  0  0
  -22.3675  -10.9654   19.6201 H   0  0  0  0  0  0
  -21.2034   -7.6158   23.9713 H   0  0  0  0  0  0
  -21.1473   -6.0528   25.9062 H   0  0  0  0  0  0
  -22.0597   -2.7622   23.2837 H   0  0  0  0  0  0
  -22.4052  -11.9871   22.4779 H   0  0  0  0  0  0
  -21.1071  -13.1264   22.2567 H   0  0  0  0  0  0
  -24.6179  -15.8057   20.5013 H   0  0  0  0  0  0
  -26.1955  -15.6263   19.9470 H   0  0  0  0  0  0
  -26.7217  -32.5438   23.1099 H   0  0  0  0  0  0
  -25.0219  -33.9712   25.0499 H   0  0  0  0  0  0
  -22.7246  -31.3007   21.3993 H   0  0  0  0  0  0
  -23.3778  -35.9545   23.3331 H   0  0  0  0  0  0
  -24.3558  -36.8830   22.2048 H   0  0  0  0  0  0
  -23.7214  -37.6433   23.6659 H   0  0  0  0  0  0
  -26.1153  -31.5326   20.6221 H   0  0  0  0  0  0
  -26.8511  -30.8126   22.0200 H   0  0  0  0  0  0
  -28.1200  -28.9115   21.2240 H   0  0  0  0  0  0
  -25.9951  -25.9464   18.9210 H   0  0  0  0  0  0
  -23.9916  -27.3455   18.9433 H   0  0  0  0  0  0
  -23.7737  -30.5940   19.4075 H   0  0  0  0  0  0
  -22.7651  -29.2487   19.8501 H   0  0  0  0  0  0
  -25.1309  -36.1885   25.0833 H   0  0  0  0  0  0
  -20.9982  -28.3071   24.1298 H   0  0  0  0  0  0
  -20.5861  -26.2150   23.3381 H   0  0  0  0  0  0
  -21.6558  -26.7528   22.0833 H   0  0  0  0  0  0
  -19.6703  -25.6088   21.1326 H   0  0  0  0  0  0
  -19.6681  -27.2889   20.6525 H   0  0  0  0  0  0
  -17.4169  -26.7076   21.3681 H   0  0  0  0  0  0
  -17.9866  -26.0038   22.8623 H   0  0  0  0  0  0
  -19.8035  -30.7102   24.2332 H   0  0  0  0  0  0
  -17.5140  -31.6154   24.5406 H   0  0  0  0  0  0
  -15.5381  -30.2906   23.7943 H   0  0  0  0  0  0
  -15.8650  -28.0846   22.7215 H   0  0  0  0  0  0
  -24.5914  -30.7085   25.7731 H   0  0  0  0  0  0
  -24.8972  -32.2871   26.4925 H   0  0  0  0  0  0
  -25.8052  -30.8816   27.0203 H   0  0  0  0  0  0
  -26.2978  -29.6684   24.1336 H   0  0  0  0  0  0
  -27.4218  -29.7356   25.4721 H   0  0  0  0  0  0
  -27.8802  -30.4314   23.9384 H   0  0  0  0  0  0
  -27.2696  -33.3629   26.2103 H   0  0  0  0  0  0
  -28.3891  -32.6869   25.0341 H   0  0  0  0  0  0
  -28.0753  -31.8452   26.5426 H   0  0  0  0  0  0
  -28.2623  -38.0033   24.7527 H   0  0  0  0  0  0
  -28.1020  -36.2573   24.6367 H   0  0  0  0  0  0
  -27.2279  -37.1494   25.8892 H   0  0  0  0  0  0
  -20.9396  -29.8744   21.6845 H   0  0  0  0  0  0
  -26.0154  -38.2837   24.1441 H   0  0  0  0  0  0
  -29.0778  -20.6270   22.8903 H   0  0  0  0  0  0
  -29.7008  -18.3710   19.2560 H   0  0  0  0  0  0
  -28.0499  -22.0769   21.5268 H   0  0  0  0  0  0
  -27.5566  -22.0053   19.8682 H   0  0  0  0  0  0
  -27.9144  -24.9500   21.6818 H   0  0  0  0  0  0
  -27.0362  -24.6447   20.2373 H   0  0  0  0  0  0
  -29.2729  -23.7297   19.1890 H   0  0  0  0  0  0
  -29.6097  -16.4863   23.0215 H   0  0  0  0  0  0
  -28.8845  -19.2603   24.9780 H   0  0  0  0  0  0
  -28.9522  -17.5615   24.9330 H   0  0  0  0  0  0
  -29.6195  -20.9028   19.2401 H   0  0  0  0  0  0
  -28.7865  -15.5364   20.2413 H   0  0  0  0  0  0
  -30.4908  -22.7817   20.9288 H   0  0  0  0  0  0
  1 25  1  0  0  0
  1 30  2  0  0  0
  1 82  1  0  0  0
  2  3  1  0  0  0
  2 25  1  0  0  0
  2 84  1  0  0  0
  2 85  1  0  0  0
  3  4  1  0  0  0
  3 86  1  0  0  0
  3 87  1  0  0  0
  4  5  1  0  0  0
  4 88  1  0  0  0
  4 89  1  0  0  0
  5  6  1  0  0  0
  5 26  1  0  0  0
  5 90  1  0  0  0
  6 25  1  0  0  0
  6 91  1  0  0  0
  6 92  1  0  0  0
  7  8  2  0  0  0
  7 26  1  0  0  0
  7 29  1  0  0  0
  8  9  1  0  0  0
  8 22  1  0  0  0
  9 10  1  0  0  0
  9 27  2  0  0  0
 10 11  2  0  0  0
 10 15  1  0  0  0
 11 12  1  0  0  0
 11 93  1  0  0  0
 12 13  2  0  0  0
 12 94  1  0  0  0
 13 14  1  0  0  0
 13 31  1  0  0  0
 14 15  2  0  0  0
 14 95  1  0  0  0
 15 96  1  0  0  0
 16 17  2  0  0  0
 16 21  1  0  0  0
 16 31  1  0  0  0
 17 18  1  0  0  0
 17 97  1  0  0  0
 18 19  2  0  0  0
 18 98  1  0  0  0
 19 20  1  0  0  0
 19 24  1  0  0  0
 20 21  2  0  0  0
 20 99  1  0  0  0
 21 23  1  0  0  0
 22 28  1  0  0  0
 22 32  2  0  0  0
 26 27  1  0  0  0
 28100  1  0  0  0
 28101  1  0  0  0
 29102  1  0  0  0
 29103  1  0  0  0
 33 34  1  0  0  0
 33 66  1  0  0  0
 33 70  2  0  0  0
 34 36  1  0  0  0
 34 59  1  0  0  0
 34104  1  0  0  0
 35 44  2  0  0  0
 35 45  1  0  0  0
 35 68  1  0  0  0
 36 56  1  0  0  0
 36105  1  0  0  0
 37 39  1  0  0  0
 37 47  1  0  0  0
 37 66  1  0  0  0
 37106  1  0  0  0
 38 43  2  0  0  0
 38 46  1  0  0  0
 38 47  1  0  0  0
 39 64  1  0  0  0
 39 67  2  0  0  0
 40 52  1  0  0  0
 40 53  2  0  0  0
 40 58  1  0  0  0
 41107  1  0  0  0
 41108  1  0  0  0
 41109  1  0  0  0
 41 48  1  0  0  0
 42 43  1  0  0  0
 42 66  1  0  0  0
 42110  1  0  0  0
 42111  1  0  0  0
 43 44  1  0  0  0
 44112  1  0  0  0
 45 46  2  0  0  0
 45113  1  0  0  0
 46114  1  0  0  0
 47115  1  0  0  0
 47116  1  0  0  0
 48 56  1  0  0  0
 48 65  1  0  0  0
 48117  1  0  0  0
 49 50  1  0  0  0
 49 53  1  0  0  0
 49 64  1  0  0  0
 49118  1  0  0  0
 50 51  1  0  0  0
 50119  1  0  0  0
 50120  1  0  0  0
 51 52  1  0  0  0
 51121  1  0  0  0
 51122  1  0  0  0
 52123  1  0  0  0
 52124  1  0  0  0
 53 54  1  0  0  0
 54 55  2  0  0  0
 54125  1  0  0  0
 55 57  1  0  0  0
 55126  1  0  0  0
 56 69  2  0  0  0
 57 58  2  0  0  0
 57127  1  0  0  0
 58128  1  0  0  0
 59 60  1  0  0  0
 59 61  1  0  0  0
 59 62  1  0  0  0
 60129  1  0  0  0
 60130  1  0  0  0
 60131  1  0  0  0
 61132  1  0  0  0
 61133  1  0  0  0
 61134  1  0  0  0
 62135  1  0  0  0
 62136  1  0  0  0
 62137  1  0  0  0
 63 65  1  0  0  0
 63138  1  0  0  0
 63139  1  0  0  0
 63140  1  0  0  0
 64141  1  0  0  0
 65142  1  0  0  0
 68 77  1  0  0  0
 71 73  2  0  0  0
 71 74  1  0  0  0
 71143  1  0  0  0
 72 73  1  0  0  0
 72 75  2  0  0  0
 72144  1  0  0  0
 73 81  1  0  0  0
 74 79  2  0  0  0
 74 80  1  0  0  0
 75 79  1  0  0  0
 75 82  1  0  0  0
 76 78  1  0  0  0
 76 81  1  0  0  0
 76145  1  0  0  0
 76146  1  0  0  0
 77 78  1  0  0  0
 77147  1  0  0  0
 77148  1  0  0  0
 78 83  1  0  0  0
 78149  1  0  0  0
 79150  1  0  0  0
 80151  1  0  0  0
 80152  1  0  0  0
 81153  1  0  0  0
 82154  1  0  0  0
 83155  1  0  0  0
M  CHG  1  79   1
M  ISO  4   1 100  68 101  77 101  82 100
M  END
> <chiral flag>
0

> <version>
0

> <s_m_source_file>
/data/baiqing/PycharmProjects/Reinvent-master-3.2/result/LINK_invent/BTK/process_docking_weight1_custom_product_contain_oxygen_bond_distance_aromatic_linkinvent_7_9_3/rearranged_h_0196.sdf

> <i_m_source_file_index>
74

> <r_mmod_Potential_Energy-OPLS-2005>
127.1142578125

> <r_mmod_Stretch_Energy-OPLS-2005>
120.386589050293

> <r_mmod_Bend_Energy-OPLS-2005>
178.715133666992

> <r_mmod_Torsional_Energy-OPLS-2005>
296.896179199219

> <r_mmod_Improper_Torsional_Energy-OPLS-2005>
15.9806203842163

> <r_mmod_Van_der_Waal_Energy-OPLS-2005>
135.604476928711

> <r_mmod_Electrostatic_Energy-OPLS-2005>
-219.685958862305

> <r_mmod_Solvation_Energy-OPLS-2005>
-489.601531982422

> <b_mmod_Minimization_Converged-OPLS-2005>
0

> <r_mmod_RMS_Derivative-OPLS-2005>
4.39769411087036

$$$$
74
                    3D
 Structure written by MMmdl.
159167  0  0  1  0            999 V2000
  -30.6199  -14.5949   20.5317 C   0  0  0  0  0  0
  -30.4425  -12.3811   19.4193 C   0  0  0  0  0  0
  -29.4961  -12.5017   18.2040 C   0  0  0  0  0  0
  -28.0191  -12.3421   18.6243 C   0  0  0  0  0  0
  -27.6516  -13.2045   19.8607 C   0  0  2  0  0  0
  -28.7003  -13.0257   20.9789 C   0  0  0  0  0  0
  -25.2559  -13.8144   20.5695 C   0  0  0  0  0  0
  -24.1823  -13.0421   20.9217 C   0  0  0  0  0  0
  -24.6377  -11.6889   20.8751 C   0  0  0  0  0  0
  -23.9043  -10.4274   21.0414 C   0  0  0  0  0  0
  -24.3597   -9.4198   21.9184 C   0  0  0  0  0  0
  -23.6283   -8.2229   22.0739 C   0  0  0  0  0  0
  -22.4260   -8.0266   21.3538 C   0  0  0  0  0  0
  -21.9904   -9.0241   20.4634 C   0  0  0  0  0  0
  -22.7226  -10.2127   20.3059 C   0  0  0  0  0  0
  -21.6855   -6.0739   22.5276 C   0  0  0  0  0  0
  -21.4018   -6.5635   23.8212 C   0  0  0  0  0  0
  -21.3646   -5.6783   24.9165 C   0  0  0  0  0  0
  -21.6042   -4.3052   24.7220 C   0  0  0  0  0  0
  -21.8821   -3.8149   23.4345 C   0  0  0  0  0  0
  -21.9197   -4.6966   22.3404 C   0  0  0  0  0  0
  -22.7847  -13.5215   21.1884 C   0  0  0  0  0  0
  -22.1663   -4.2151   21.0980 F   0  0  0  0  0  0
  -21.5627   -3.4530   25.7737 F   0  0  0  0  0  0
  -30.0108  -13.3786   20.4099 N   0  0  0  0  0  0
  -26.2971  -12.9298   20.3324 N   0  0  0  0  0  0
  -25.9302  -11.6469   20.5763 N   0  0  0  0  0  0
  -22.0497  -12.8195   22.0438 N   0  0  0  0  0  0
  -25.4277  -15.1864   20.4063 N   0  0  0  0  0  0
  -31.7950  -14.7757   20.2043 O   0  0  0  0  0  0
  -21.6634   -6.8872   21.4235 O   0  0  0  0  0  0
  -22.3528  -14.5516   20.6718 O   0  0  0  0  0  0
  -24.6188  -31.8634   23.2056 C   0  0  0  0  0  0
  -25.9049  -32.4794   23.8370 C   0  0  1  0  0  0
  -27.2378  -27.3783   20.1120 C   0  0  0  0  0  0
  -25.5904  -33.8592   24.2301 N   0  0  0  0  0  0
  -23.4110  -30.4870   21.5464 C   0  0  2  0  0  0
  -24.8597  -28.9382   20.1164 C   0  0  0  0  0  0
  -22.7424  -29.4665   22.4958 C   0  0  0  0  0  0
  -18.0274  -28.1380   22.8465 C   0  0  0  0  0  0
  -24.1506  -36.7294   23.2631 C   0  0  0  0  0  0
  -25.9425  -30.8156   21.3617 C   0  0  0  0  0  0
  -26.0221  -29.4435   20.7106 C   0  0  0  0  0  0
  -27.2151  -28.6750   20.6954 C   0  0  0  0  0  0
  -26.0556  -26.8967   19.5124 C   0  0  0  0  0  0
  -24.8746  -27.6667   19.5124 C   0  0  0  0  0  0
  -23.6229  -29.8126   20.1638 C   0  0  0  0  0  0
  -25.4123  -36.3070   24.0326 C   0  0  1  0  0  0
  -20.5864  -28.3682   23.1287 C   0  0  2  0  0  0
  -20.6784  -26.9419   22.5409 C   0  0  0  0  0  0
  -19.5756  -26.6386   21.5215 C   0  0  0  0  0  0
  -18.1921  -26.7920   22.1601 C   0  0  0  0  0  0
  -19.1519  -28.8837   23.2882 C   0  0  0  0  0  0
  -18.9453  -30.1439   23.8904 C   0  0  0  0  0  0
  -17.6462  -30.6588   24.0538 C   0  0  0  0  0  0
  -25.9071  -34.9448   23.5113 C   0  0  0  0  0  0
  -16.5360  -29.9076   23.6325 C   0  0  0  0  0  0
  -16.7264  -28.6493   23.0348 C   0  0  0  0  0  0
  -26.4498  -31.6552   25.0688 C   0  0  0  0  0  0
  -25.3757  -31.3630   26.1407 C   0  0  0  0  0  0
  -27.0348  -30.3007   24.6066 C   0  0  0  0  0  0
  -27.6097  -32.4260   25.7432 C   0  0  0  0  0  0
  -27.5581  -37.1783   24.8455 C   0  0  0  0  0  0
  -21.4141  -29.3052   22.3688 N   0  0  0  0  0  0
  -26.4282  -37.3767   23.9419 N   0  0  0  0  0  0
  -24.6774  -31.0707   22.0969 N   0  0  0  0  0  0
  -23.4166  -28.8221   23.3039 O   0  0  0  0  0  0
  -28.3958  -26.6130   20.0807 O   0  0  0  0  0  0
  -26.5635  -34.8899   22.4682 O   0  0  0  0  0  0
  -23.5380  -32.1390   23.7455 O   0  0  0  0  0  0
  -29.3198  -19.3425   20.4590 C   0  0  0  0  0  0
  -30.0817  -18.1424   20.3266 C   0  0  0  0  0  0
  -29.5180  -20.3513   19.4865 C   0  0  0  0  0  0
  -31.0895  -19.0244   18.4811 C   0  0  0  0  0  0
  -33.0012  -17.8223   17.3949 C   0  0  0  0  0  0
  -30.0819  -16.9895   21.3557 C   0  0  0  0  0  0
  -28.6924  -22.6196   20.3661 C   0  0  0  0  0  0
  -28.3816  -25.2778   20.6759 C   0  0  0  0  0  0
  -28.5324  -24.0479   19.6992 C   0  0  1  0  0  0
  -30.9609  -18.0089   19.3182 N   0  0  0  0  0  0
  -30.4134  -20.1642   18.5037 N   0  0  0  0  0  0
  -28.7722  -21.5473   19.3496 N   0  0  0  0  0  0
  -32.0348  -18.9110   17.4895 N   0  0  0  0  0  0
  -29.7935  -15.6064   20.8980 N   0  0  0  0  0  0
  -29.7192  -24.2275   18.9381 O   0  0  0  0  0  0
  -31.4761  -12.5359   19.1039 H   0  0  0  0  0  0
  -30.4027  -11.3783   19.8471 H   0  0  0  0  0  0
  -29.7519  -11.7530   17.4532 H   0  0  0  0  0  0
  -29.6321  -13.4729   17.7245 H   0  0  0  0  0  0
  -27.8505  -11.2880   18.8463 H   0  0  0  0  0  0
  -27.3589  -12.5819   17.7895 H   0  0  0  0  0  0
  -27.6755  -14.2431   19.5320 H   0  0  0  0  0  0
  -28.7147  -11.9911   21.3246 H   0  0  0  0  0  0
  -28.4504  -13.6271   21.8542 H   0  0  0  0  0  0
  -25.2743   -9.5679   22.4755 H   0  0  0  0  0  0
  -23.9999   -7.4617   22.7448 H   0  0  0  0  0  0
  -21.0847   -8.8749   19.8942 H   0  0  0  0  0  0
  -22.3676  -10.9656   19.6165 H   0  0  0  0  0  0
  -21.2004   -7.6146   23.9715 H   0  0  0  0  0  0
  -21.1466   -6.0514   25.9064 H   0  0  0  0  0  0
  -22.0616   -2.7617   23.2842 H   0  0  0  0  0  0
  -22.4107  -11.9832   22.4796 H   0  0  0  0  0  0
  -21.1116  -13.1207   22.2650 H   0  0  0  0  0  0
  -24.6545  -15.8361   20.4944 H   0  0  0  0  0  0
  -26.2618  -15.6216   20.0330 H   0  0  0  0  0  0
  -26.7073  -32.5500   23.1090 H   0  0  0  0  0  0
  -25.0088  -33.9800   25.0467 H   0  0  0  0  0  0
  -22.7031  -31.3053   21.3982 H   0  0  0  0  0  0
  -23.3763  -35.9633   23.3285 H   0  0  0  0  0  0
  -24.3592  -36.8946   22.2047 H   0  0  0  0  0  0
  -23.7283  -37.6493   23.6684 H   0  0  0  0  0  0
  -26.0543  -31.5750   20.5871 H   0  0  0  0  0  0
  -26.8289  -30.8770   21.9802 H   0  0  0  0  0  0
  -28.1152  -29.0648   21.1500 H   0  0  0  0  0  0
  -26.0507  -25.9267   19.0424 H   0  0  0  0  0  0
  -23.9811  -27.2751   19.0504 H   0  0  0  0  0  0
  -23.7291  -30.5837   19.3994 H   0  0  0  0  0  0
  -22.7479  -29.2326   19.8736 H   0  0  0  0  0  0
  -25.1313  -36.1891   25.0814 H   0  0  0  0  0  0
  -20.9942  -28.3234   24.1416 H   0  0  0  0  0  0
  -20.5710  -26.2312   23.3617 H   0  0  0  0  0  0
  -21.6653  -26.7498   22.1179 H   0  0  0  0  0  0
  -19.6948  -25.6309   21.1224 H   0  0  0  0  0  0
  -19.6673  -27.3220   20.6758 H   0  0  0  0  0  0
  -17.4221  -26.6674   21.3982 H   0  0  0  0  0  0
  -18.0277  -26.0082   22.9004 H   0  0  0  0  0  0
  -19.7951  -30.7226   24.2293 H   0  0  0  0  0  0
  -17.5034  -31.6272   24.5132 H   0  0  0  0  0  0
  -15.5360  -30.2967   23.7693 H   0  0  0  0  0  0
  -15.8657  -28.0811   22.7085 H   0  0  0  0  0  0
  -24.5986  -30.6933   25.7675 H   0  0  0  0  0  0
  -24.8891  -32.2774   26.4812 H   0  0  0  0  0  0
  -25.8070  -30.8786   27.0171 H   0  0  0  0  0  0
  -26.2867  -29.6710   24.1224 H   0  0  0  0  0  0
  -27.4226  -29.7295   25.4504 H   0  0  0  0  0  0
  -27.8649  -30.4338   23.9122 H   0  0  0  0  0  0
  -27.2766  -33.3594   26.1977 H   0  0  0  0  0  0
  -28.3897  -32.6757   25.0221 H   0  0  0  0  0  0
  -28.0752  -31.8376   26.5352 H   0  0  0  0  0  0
  -28.2552  -38.0123   24.7556 H   0  0  0  0  0  0
  -28.1116  -36.2656   24.6200 H   0  0  0  0  0  0
  -27.2301  -37.1321   25.8852 H   0  0  0  0  0  0
  -20.9318  -29.8724   21.6858 H   0  0  0  0  0  0
  -26.0151  -38.2823   24.1445 H   0  0  0  0  0  0
  -28.6006  -19.4690   21.2564 H   0  0  0  0  0  0
  -33.6254  -17.9403   16.5092 H   0  0  0  0  0  0
  -32.4954  -16.8583   17.3251 H   0  0  0  0  0  0
  -33.6540  -17.8049   18.2690 H   0  0  0  0  0  0
  -29.3359  -17.2338   22.1124 H   0  0  0  0  0  0
  -31.0414  -16.9960   21.8773 H   0  0  0  0  0  0
  -27.8377  -22.4222   21.0175 H   0  0  0  0  0  0
  -29.5738  -22.5918   21.0079 H   0  0  0  0  0  0
  -29.1985  -25.2543   21.3972 H   0  0  0  0  0  0
  -27.4770  -25.1482   21.2728 H   0  0  0  0  0  0
  -27.6701  -24.0377   19.0288 H   0  0  0  0  0  0
  -28.9860  -21.9798   18.4566 H   0  0  0  0  0  0
  -32.1725  -19.7283   16.9081 H   0  0  0  0  0  0
  -28.8329  -15.3314   21.0134 H   0  0  0  0  0  0
  -30.4313  -24.3797   19.5539 H   0  0  0  0  0  0
  1 25  1  0  0  0
  1 30  2  0  0  0
  1 84  1  0  0  0
  2  3  1  0  0  0
  2 25  1  0  0  0
  2 86  1  0  0  0
  2 87  1  0  0  0
  3  4  1  0  0  0
  3 88  1  0  0  0
  3 89  1  0  0  0
  4  5  1  0  0  0
  4 90  1  0  0  0
  4 91  1  0  0  0
  5  6  1  0  0  0
  5 26  1  0  0  0
  5 92  1  0  0  0
  6 25  1  0  0  0
  6 93  1  0  0  0
  6 94  1  0  0  0
  7  8  2  0  0  0
  7 26  1  0  0  0
  7 29  1  0  0  0
  8  9  1  0  0  0
  8 22  1  0  0  0
  9 10  1  0  0  0
  9 27  2  0  0  0
 10 11  2  0  0  0
 10 15  1  0  0  0
 11 12  1  0  0  0
 11 95  1  0  0  0
 12 13  2  0  0  0
 12 96  1  0  0  0
 13 14  1  0  0  0
 13 31  1  0  0  0
 14 15  2  0  0  0
 14 97  1  0  0  0
 15 98  1  0  0  0
 16 17  2  0  0  0
 16 21  1  0  0  0
 16 31  1  0  0  0
 17 18  1  0  0  0
 17 99  1  0  0  0
 18 19  2  0  0  0
 18100  1  0  0  0
 19 20  1  0  0  0
 19 24  1  0  0  0
 20 21  2  0  0  0
 20101  1  0  0  0
 21 23  1  0  0  0
 22 28  1  0  0  0
 22 32  2  0  0  0
 26 27  1  0  0  0
 28102  1  0  0  0
 28103  1  0  0  0
 29104  1  0  0  0
 29105  1  0  0  0
 33 34  1  0  0  0
 33 66  1  0  0  0
 33 70  2  0  0  0
 34 36  1  0  0  0
 34 59  1  0  0  0
 34106  1  0  0  0
 35 44  2  0  0  0
 35 45  1  0  0  0
 35 68  1  0  0  0
 36 56  1  0  0  0
 36107  1  0  0  0
 37 39  1  0  0  0
 37 47  1  0  0  0
 37 66  1  0  0  0
 37108  1  0  0  0
 38 43  2  0  0  0
 38 46  1  0  0  0
 38 47  1  0  0  0
 39 64  1  0  0  0
 39 67  2  0  0  0
 40 52  1  0  0  0
 40 53  2  0  0  0
 40 58  1  0  0  0
 41109  1  0  0  0
 41110  1  0  0  0
 41111  1  0  0  0
 41 48  1  0  0  0
 42 43  1  0  0  0
 42 66  1  0  0  0
 42112  1  0  0  0
 42113  1  0  0  0
 43 44  1  0  0  0
 44114  1  0  0  0
 45 46  2  0  0  0
 45115  1  0  0  0
 46116  1  0  0  0
 47117  1  0  0  0
 47118  1  0  0  0
 48 56  1  0  0  0
 48 65  1  0  0  0
 48119  1  0  0  0
 49 50  1  0  0  0
 49 53  1  0  0  0
 49 64  1  0  0  0
 49120  1  0  0  0
 50 51  1  0  0  0
 50121  1  0  0  0
 50122  1  0  0  0
 51 52  1  0  0  0
 51123  1  0  0  0
 51124  1  0  0  0
 52125  1  0  0  0
 52126  1  0  0  0
 53 54  1  0  0  0
 54 55  2  0  0  0
 54127  1  0  0  0
 55 57  1  0  0  0
 55128  1  0  0  0
 56 69  2  0  0  0
 57 58  2  0  0  0
 57129  1  0  0  0
 58130  1  0  0  0
 59 60  1  0  0  0
 59 61  1  0  0  0
 59 62  1  0  0  0
 60131  1  0  0  0
 60132  1  0  0  0
 60133  1  0  0  0
 61134  1  0  0  0
 61135  1  0  0  0
 61136  1  0  0  0
 62137  1  0  0  0
 62138  1  0  0  0
 62139  1  0  0  0
 63 65  1  0  0  0
 63140  1  0  0  0
 63141  1  0  0  0
 63142  1  0  0  0
 64143  1  0  0  0
 65144  1  0  0  0
 68 78  1  0  0  0
 71 72  2  0  0  0
 71 73  1  0  0  0
 71145  1  0  0  0
 72 76  1  0  0  0
 72 80  1  0  0  0
 73 81  2  0  0  0
 73 82  1  0  0  0
 74 80  2  0  0  0
 74 81  1  0  0  0
 74 83  1  0  0  0
 75 83  1  0  0  0
 75146  1  0  0  0
 75147  1  0  0  0
 75148  1  0  0  0
 76 84  1  0  0  0
 76149  1  0  0  0
 76150  1  0  0  0
 77 79  1  0  0  0
 77 82  1  0  0  0
 77151  1  0  0  0
 77152  1  0  0  0
 78 79  1  0  0  0
 78153  1  0  0  0
 78154  1  0  0  0
 79 85  1  0  0  0
 79155  1  0  0  0
 82156  1  0  0  0
 83157  1  0  0  0
 84158  1  0  0  0
 85159  1  0  0  0
M  ISO  4   1 100  68 101  78 101  84 100
M  END
> <chiral flag>
0

> <version>
0

> <s_m_source_file>
/data/baiqing/PycharmProjects/Reinvent-master-3.2/result/LINK_invent/BTK/process_docking_weight1_custom_product_contain_oxygen_bond_distance_aromatic_linkinvent_7_9_3/rearranged_h_0196.sdf

> <i_m_source_file_index>
75

> <r_mmod_Potential_Energy-OPLS-2005>
-845.963989257812

> <r_mmod_Stretch_Energy-OPLS-2005>
51.3640670776367

> <r_mmod_Bend_Energy-OPLS-2005>
139.227600097656

> <r_mmod_Torsional_Energy-OPLS-2005>
253.177108764648

> <r_mmod_Improper_Torsional_Energy-OPLS-2005>
9.55820846557617

> <r_mmod_Van_der_Waal_Energy-OPLS-2005>
148.498321533203

> <r_mmod_Electrostatic_Energy-OPLS-2005>
-1187.53759765625

> <r_mmod_Solvation_Energy-OPLS-2005>
-291.046661376953

> <b_mmod_Minimization_Converged-OPLS-2005>
0

> <r_mmod_RMS_Derivative-OPLS-2005>
3.66183400154114

$$$$
75
                    3D
 Structure written by MMmdl.
157165  0  0  1  0            999 V2000
  -30.6795  -14.5048   20.5746 C   0  0  0  0  0  0
  -30.4241  -12.3294   19.4302 C   0  0  0  0  0  0
  -29.4968  -12.5270   18.2110 C   0  0  0  0  0  0
  -28.0195  -12.3770   18.6238 C   0  0  0  0  0  0
  -27.6614  -13.2158   19.8790 C   0  0  2  0  0  0
  -28.6981  -13.0017   21.0056 C   0  0  0  0  0  0
  -25.2574  -13.8192   20.5692 C   0  0  0  0  0  0
  -24.1830  -13.0457   20.9184 C   0  0  0  0  0  0
  -24.6388  -11.6924   20.8721 C   0  0  0  0  0  0
  -23.9056  -10.4300   21.0382 C   0  0  0  0  0  0
  -24.3613   -9.4232   21.9177 C   0  0  0  0  0  0
  -23.6298   -8.2262   22.0746 C   0  0  0  0  0  0
  -22.4286   -8.0276   21.3524 C   0  0  0  0  0  0
  -21.9898   -9.0247   20.4630 C   0  0  0  0  0  0
  -22.7219  -10.2136   20.3039 C   0  0  0  0  0  0
  -21.6863   -6.0729   22.5277 C   0  0  0  0  0  0
  -21.4018   -6.5633   23.8210 C   0  0  0  0  0  0
  -21.3660   -5.6789   24.9177 C   0  0  0  0  0  0
  -21.6038   -4.3048   24.7225 C   0  0  0  0  0  0
  -21.8827   -3.8139   23.4347 C   0  0  0  0  0  0
  -21.9194   -4.6954   22.3401 C   0  0  0  0  0  0
  -22.7851  -13.5249   21.1844 C   0  0  0  0  0  0
  -22.1664   -4.2136   21.0976 F   0  0  0  0  0  0
  -21.5620   -3.4531   25.7740 F   0  0  0  0  0  0
  -30.0336  -13.3077   20.4652 N   0  0  0  0  0  0
  -26.3008  -12.9370   20.3364 N   0  0  0  0  0  0
  -25.9316  -11.6521   20.5744 N   0  0  0  0  0  0
  -22.0483  -12.8241   22.0396 N   0  0  0  0  0  0
  -25.4363  -15.1911   20.4128 N   0  0  0  0  0  0
  -31.7956  -14.6962   20.0777 O   0  0  0  0  0  0
  -21.6644   -6.8874   21.4237 O   0  0  0  0  0  0
  -22.3542  -14.5571   20.6717 O   0  0  0  0  0  0
  -24.6138  -31.8627   23.2050 C   0  0  0  0  0  0
  -25.9044  -32.4787   23.8357 C   0  0  1  0  0  0
  -27.2602  -27.4022   20.1355 C   0  0  0  0  0  0
  -25.5869  -33.8577   24.2298 N   0  0  0  0  0  0
  -23.4081  -30.4766   21.5440 C   0  0  2  0  0  0
  -24.8694  -28.9294   20.1227 C   0  0  0  0  0  0
  -22.7401  -29.4609   22.4991 C   0  0  0  0  0  0
  -18.0233  -28.1391   22.8512 C   0  0  0  0  0  0
  -24.1450  -36.7263   23.2643 C   0  0  0  0  0  0
  -25.9383  -30.8152   21.3717 C   0  0  0  0  0  0
  -26.0217  -29.4439   20.7282 C   0  0  0  0  0  0
  -27.2228  -28.6896   20.7269 C   0  0  0  0  0  0
  -26.0966  -26.9083   19.5154 C   0  0  0  0  0  0
  -24.9032  -27.6641   19.5058 C   0  0  0  0  0  0
  -23.6246  -29.7927   20.1648 C   0  0  0  0  0  0
  -25.4082  -36.3090   24.0337 C   0  0  1  0  0  0
  -20.5830  -28.3655   23.1319 C   0  0  2  0  0  0
  -20.6688  -26.9380   22.5423 C   0  0  0  0  0  0
  -19.5675  -26.6397   21.5198 C   0  0  0  0  0  0
  -18.1873  -26.7937   22.1643 C   0  0  0  0  0  0
  -19.1493  -28.8846   23.2908 C   0  0  0  0  0  0
  -18.9437  -30.1456   23.8918 C   0  0  0  0  0  0
  -17.6450  -30.6611   24.0564 C   0  0  0  0  0  0
  -25.9021  -34.9453   23.5123 C   0  0  0  0  0  0
  -16.5333  -29.9119   23.6342 C   0  0  0  0  0  0
  -16.7232  -28.6526   23.0381 C   0  0  0  0  0  0
  -26.4474  -31.6573   25.0692 C   0  0  0  0  0  0
  -25.3752  -31.3666   26.1447 C   0  0  0  0  0  0
  -27.0287  -30.2990   24.6118 C   0  0  0  0  0  0
  -27.6041  -32.4300   25.7466 C   0  0  0  0  0  0
  -27.5550  -37.1770   24.8483 C   0  0  0  0  0  0
  -21.4133  -29.2995   22.3714 N   0  0  0  0  0  0
  -26.4266  -37.3780   23.9428 N   0  0  0  0  0  0
  -24.6692  -31.0691   22.0980 N   0  0  0  0  0  0
  -23.4146  -28.8178   23.3077 O   0  0  0  0  0  0
  -28.4402  -26.6769   20.0757 O   0  0  0  0  0  0
  -26.5601  -34.8931   22.4700 O   0  0  0  0  0  0
  -23.5319  -32.1401   23.7428 O   0  0  0  0  0  0
  -29.5031  -19.0456   20.8101 C   0  0  0  0  0  0
  -29.8440  -16.8249   20.6833 C   0  0  0  0  0  0
  -30.9723  -23.2474   21.0276 C   0  0  0  0  0  0
  -27.8729  -25.6035   22.2793 C   0  0  0  0  0  0
  -29.3871  -20.4625   21.4182 C   0  0  0  0  0  0
  -28.6752  -24.1432   20.2730 C   0  0  0  0  0  0
  -29.4506  -22.9740   21.0087 C   0  0  1  0  0  0
  -28.6913  -25.5556   20.9717 C   0  0  2  0  0  0
  -29.6843  -17.8959   21.4994 N   0  0  0  0  0  0
  -29.7491  -17.0371   19.3581 N   0  0  0  0  0  0
  -30.0059  -15.5002   21.1957 N   0  0  0  0  0  0
  -29.1987  -21.5982   20.4529 N   0  3  0  0  0  0
  -29.4608  -18.6814   19.0989 S   0  0  0  0  0  0
  -31.4699  -12.4334   19.1282 H   0  0  0  0  0  0
  -30.3246  -11.3165   19.8211 H   0  0  0  0  0  0
  -29.7342  -11.8078   17.4261 H   0  0  0  0  0  0
  -29.6593  -13.5168   17.7813 H   0  0  0  0  0  0
  -27.8379  -11.3204   18.8223 H   0  0  0  0  0  0
  -27.3642  -12.6433   17.7928 H   0  0  0  0  0  0
  -27.7031  -14.2647   19.5815 H   0  0  0  0  0  0
  -28.6733  -11.9672   21.3491 H   0  0  0  0  0  0
  -28.4479  -13.6056   21.8805 H   0  0  0  0  0  0
  -25.2759   -9.5710   22.4755 H   0  0  0  0  0  0
  -23.9989   -7.4652   22.7486 H   0  0  0  0  0  0
  -21.0809   -8.8773   19.8959 H   0  0  0  0  0  0
  -22.3662  -10.9671   19.6149 H   0  0  0  0  0  0
  -21.2027   -7.6140   23.9710 H   0  0  0  0  0  0
  -21.1467   -6.0516   25.9076 H   0  0  0  0  0  0
  -22.0603   -2.7594   23.2856 H   0  0  0  0  0  0
  -22.4077  -11.9875   22.4745 H   0  0  0  0  0  0
  -21.1105  -13.1281   22.2597 H   0  0  0  0  0  0
  -24.6848  -15.8612   20.5374 H   0  0  0  0  0  0
  -26.2893  -15.6142   20.0701 H   0  0  0  0  0  0
  -26.7115  -32.5517   23.1114 H   0  0  0  0  0  0
  -24.9984  -33.9728   25.0421 H   0  0  0  0  0  0
  -22.6980  -31.2917   21.3901 H   0  0  0  0  0  0
  -23.3728  -35.9580   23.3359 H   0  0  0  0  0  0
  -24.3521  -36.8834   22.2046 H   0  0  0  0  0  0
  -23.7197  -37.6469   23.6647 H   0  0  0  0  0  0
  -26.0614  -31.5788   20.6030 H   0  0  0  0  0  0
  -26.8178  -30.8696   21.9995 H   0  0  0  0  0  0
  -28.1170  -29.0864   21.1891 H   0  0  0  0  0  0
  -26.1223  -25.9432   19.0308 H   0  0  0  0  0  0
  -24.0254  -27.2666   19.0161 H   0  0  0  0  0  0
  -23.7257  -30.5575   19.3931 H   0  0  0  0  0  0
  -22.7550  -29.1966   19.8832 H   0  0  0  0  0  0
  -25.1259  -36.1928   25.0824 H   0  0  0  0  0  0
  -20.9917  -28.3231   24.1444 H   0  0  0  0  0  0
  -20.5524  -26.2269   23.3612 H   0  0  0  0  0  0
  -21.6558  -26.7359   22.1251 H   0  0  0  0  0  0
  -19.6807  -25.6315   21.1195 H   0  0  0  0  0  0
  -19.6619  -27.3241   20.6751 H   0  0  0  0  0  0
  -17.4102  -26.6681   21.4085 H   0  0  0  0  0  0
  -18.0306  -26.0074   22.9039 H   0  0  0  0  0  0
  -19.7927  -30.7244   24.2314 H   0  0  0  0  0  0
  -17.5022  -31.6304   24.5141 H   0  0  0  0  0  0
  -15.5343  -30.3038   23.7669 H   0  0  0  0  0  0
  -15.8617  -28.0856   22.7121 H   0  0  0  0  0  0
  -24.5941  -30.6989   25.7805 H   0  0  0  0  0  0
  -24.8914  -32.2794   26.4935 H   0  0  0  0  0  0
  -25.8119  -30.8820   27.0188 H   0  0  0  0  0  0
  -26.2829  -29.6761   24.1155 H   0  0  0  0  0  0
  -27.4006  -29.7240   25.4617 H   0  0  0  0  0  0
  -27.8712  -30.4255   23.9307 H   0  0  0  0  0  0
  -27.2651  -33.3597   26.2059 H   0  0  0  0  0  0
  -28.3841  -32.6877   25.0285 H   0  0  0  0  0  0
  -28.0721  -31.8402   26.5366 H   0  0  0  0  0  0
  -28.2597  -38.0038   24.7504 H   0  0  0  0  0  0
  -28.1005  -36.2567   24.6333 H   0  0  0  0  0  0
  -27.2258  -37.1464   25.8885 H   0  0  0  0  0  0
  -20.9325  -29.8682   21.6893 H   0  0  0  0  0  0
  -26.0145  -38.2839   24.1485 H   0  0  0  0  0  0
  -31.5410  -22.3936   21.3922 H   0  0  0  0  0  0
  -31.2262  -24.0847   21.6783 H   0  0  0  0  0  0
  -31.3519  -23.4736   20.0300 H   0  0  0  0  0  0
  -26.8089  -25.4558   22.0942 H   0  0  0  0  0  0
  -27.9910  -26.5608   22.7876 H   0  0  0  0  0  0
  -28.1959  -24.8351   22.9821 H   0  0  0  0  0  0
  -30.2944  -20.6223   22.0020 H   0  0  0  0  0  0
  -28.5683  -20.4707   22.1389 H   0  0  0  0  0  0
  -27.6357  -23.8533   20.1194 H   0  0  0  0  0  0
  -29.0949  -24.2587   19.2706 H   0  0  0  0  0  0
  -29.0997  -22.9466   22.0396 H   0  0  0  0  0  0
  -29.7242  -25.7346   21.2655 H   0  0  0  0  0  0
  -29.2949  -15.2071   21.8454 H   0  0  0  0  0  0
  -29.8177  -21.4563   19.6728 H   0  0  0  0  0  0
  -28.2543  -21.5361   20.1090 H   0  0  0  0  0  0
  1 25  1  0  0  0
  1 30  2  0  0  0
  1 81  1  0  0  0
  2  3  1  0  0  0
  2 25  1  0  0  0
  2 84  1  0  0  0
  2 85  1  0  0  0
  3  4  1  0  0  0
  3 86  1  0  0  0
  3 87  1  0  0  0
  4  5  1  0  0  0
  4 88  1  0  0  0
  4 89  1  0  0  0
  5  6  1  0  0  0
  5 26  1  0  0  0
  5 90  1  0  0  0
  6 25  1  0  0  0
  6 91  1  0  0  0
  6 92  1  0  0  0
  7  8  2  0  0  0
  7 26  1  0  0  0
  7 29  1  0  0  0
  8  9  1  0  0  0
  8 22  1  0  0  0
  9 10  1  0  0  0
  9 27  2  0  0  0
 10 11  2  0  0  0
 10 15  1  0  0  0
 11 12  1  0  0  0
 11 93  1  0  0  0
 12 13  2  0  0  0
 12 94  1  0  0  0
 13 14  1  0  0  0
 13 31  1  0  0  0
 14 15  2  0  0  0
 14 95  1  0  0  0
 15 96  1  0  0  0
 16 17  2  0  0  0
 16 21  1  0  0  0
 16 31  1  0  0  0
 17 18  1  0  0  0
 17 97  1  0  0  0
 18 19  2  0  0  0
 18 98  1  0  0  0
 19 20  1  0  0  0
 19 24  1  0  0  0
 20 21  2  0  0  0
 20 99  1  0  0  0
 21 23  1  0  0  0
 22 28  1  0  0  0
 22 32  2  0  0  0
 26 27  1  0  0  0
 28100  1  0  0  0
 28101  1  0  0  0
 29102  1  0  0  0
 29103  1  0  0  0
 33 34  1  0  0  0
 33 66  1  0  0  0
 33 70  2  0  0  0
 34 36  1  0  0  0
 34 59  1  0  0  0
 34104  1  0  0  0
 35 44  2  0  0  0
 35 45  1  0  0  0
 35 68  1  0  0  0
 36 56  1  0  0  0
 36105  1  0  0  0
 37 39  1  0  0  0
 37 47  1  0  0  0
 37 66  1  0  0  0
 37106  1  0  0  0
 38 43  2  0  0  0
 38 46  1  0  0  0
 38 47  1  0  0  0
 39 64  1  0  0  0
 39 67  2  0  0  0
 40 52  1  0  0  0
 40 53  2  0  0  0
 40 58  1  0  0  0
 41107  1  0  0  0
 41108  1  0  0  0
 41109  1  0  0  0
 41 48  1  0  0  0
 42 43  1  0  0  0
 42 66  1  0  0  0
 42110  1  0  0  0
 42111  1  0  0  0
 43 44  1  0  0  0
 44112  1  0  0  0
 45 46  2  0  0  0
 45113  1  0  0  0
 46114  1  0  0  0
 47115  1  0  0  0
 47116  1  0  0  0
 48 56  1  0  0  0
 48 65  1  0  0  0
 48117  1  0  0  0
 49 50  1  0  0  0
 49 53  1  0  0  0
 49 64  1  0  0  0
 49118  1  0  0  0
 50 51  1  0  0  0
 50119  1  0  0  0
 50120  1  0  0  0
 51 52  1  0  0  0
 51121  1  0  0  0
 51122  1  0  0  0
 52123  1  0  0  0
 52124  1  0  0  0
 53 54  1  0  0  0
 54 55  2  0  0  0
 54125  1  0  0  0
 55 57  1  0  0  0
 55126  1  0  0  0
 56 69  2  0  0  0
 57 58  2  0  0  0
 57127  1  0  0  0
 58128  1  0  0  0
 59 60  1  0  0  0
 59 61  1  0  0  0
 59 62  1  0  0  0
 60129  1  0  0  0
 60130  1  0  0  0
 60131  1  0  0  0
 61132  1  0  0  0
 61133  1  0  0  0
 61134  1  0  0  0
 62135  1  0  0  0
 62136  1  0  0  0
 62137  1  0  0  0
 63 65  1  0  0  0
 63138  1  0  0  0
 63139  1  0  0  0
 63140  1  0  0  0
 64141  1  0  0  0
 65142  1  0  0  0
 68 78  1  0  0  0
 71 75  1  0  0  0
 71 79  2  0  0  0
 71 83  1  0  0  0
 72 79  1  0  0  0
 72 80  2  0  0  0
 72 81  1  0  0  0
 73143  1  0  0  0
 73144  1  0  0  0
 73145  1  0  0  0
 73 77  1  0  0  0
 74146  1  0  0  0
 74147  1  0  0  0
 74148  1  0  0  0
 74 78  1  0  0  0
 75 82  1  0  0  0
 75149  1  0  0  0
 75150  1  0  0  0
 76 77  1  0  0  0
 76 78  1  0  0  0
 76151  1  0  0  0
 76152  1  0  0  0
 77 82  1  0  0  0
 77153  1  0  0  0
 78154  1  0  0  0
 80 83  1  0  0  0
 81155  1  0  0  0
 82156  1  0  0  0
 82157  1  0  0  0
M  CHG  1  82   1
M  ISO  4   1 100  68 101  78 101  81 100
M  END
> <chiral flag>
0

> <version>
0

> <s_m_source_file>
/data/baiqing/PycharmProjects/Reinvent-master-3.2/result/LINK_invent/BTK/process_docking_weight1_custom_product_contain_oxygen_bond_distance_aromatic_linkinvent_7_9_3/rearranged_h_0196.sdf

> <i_m_source_file_index>
76

> <r_mmod_Potential_Energy-OPLS-2005>
-275.374755859375

> <r_mmod_Stretch_Energy-OPLS-2005>
51.4836616516113

> <r_mmod_Bend_Energy-OPLS-2005>
123.856796264648

> <r_mmod_Torsional_Energy-OPLS-2005>
263.895690917969

> <r_mmod_Improper_Torsional_Energy-OPLS-2005>
4.44030046463013

> <r_mmod_Van_der_Waal_Energy-OPLS-2005>
119.950325012207

> <r_mmod_Electrostatic_Energy-OPLS-2005>
-356.064178466797

> <r_mmod_Solvation_Energy-OPLS-2005>
-498.517547607422

> <b_mmod_Minimization_Converged-OPLS-2005>
0

> <r_mmod_RMS_Derivative-OPLS-2005>
3.65467500686646

$$$$
76
                    3D
 Structure written by MMmdl.
171179  0  0  1  0            999 V2000
  -30.7157  -14.3889   20.6868 C   0  0  0  0  0  0
  -30.4330  -12.3019   19.3857 C   0  0  0  0  0  0
  -29.4918  -12.5308   18.1860 C   0  0  0  0  0  0
  -28.0121  -12.3899   18.5971 C   0  0  0  0  0  0
  -27.6698  -13.1958   19.8775 C   0  0  2  0  0  0
  -28.7031  -12.9029   20.9837 C   0  0  0  0  0  0
  -25.2619  -13.8144   20.5645 C   0  0  0  0  0  0
  -24.1855  -13.0419   20.9152 C   0  0  0  0  0  0
  -24.6402  -11.6898   20.8694 C   0  0  0  0  0  0
  -23.9050  -10.4292   21.0369 C   0  0  0  0  0  0
  -24.3608   -9.4217   21.9161 C   0  0  0  0  0  0
  -23.6293   -8.2243   22.0739 C   0  0  0  0  0  0
  -22.4274   -8.0271   21.3522 C   0  0  0  0  0  0
  -21.9887   -9.0250   20.4622 C   0  0  0  0  0  0
  -22.7214  -10.2142   20.3028 C   0  0  0  0  0  0
  -21.6856   -6.0729   22.5287 C   0  0  0  0  0  0
  -21.4016   -6.5635   23.8228 C   0  0  0  0  0  0
  -21.3656   -5.6782   24.9185 C   0  0  0  0  0  0
  -21.6039   -4.3047   24.7225 C   0  0  0  0  0  0
  -21.8826   -3.8137   23.4351 C   0  0  0  0  0  0
  -21.9204   -4.6956   22.3406 C   0  0  0  0  0  0
  -22.7877  -13.5216   21.1837 C   0  0  0  0  0  0
  -22.1662   -4.2140   21.0980 F   0  0  0  0  0  0
  -21.5630   -3.4527   25.7733 F   0  0  0  0  0  0
  -30.0483  -13.2248   20.4635 N   0  0  0  0  0  0
  -26.3057  -12.9291   20.3321 N   0  0  0  0  0  0
  -25.9324  -11.6462   20.5713 N   0  0  0  0  0  0
  -22.0513  -12.8226   22.0407 N   0  0  0  0  0  0
  -25.4331  -15.1856   20.4031 N   0  0  0  0  0  0
  -31.7369  -14.7121   20.0641 O   0  0  0  0  0  0
  -21.6632   -6.8869   21.4241 O   0  0  0  0  0  0
  -22.3561  -14.5522   20.6693 O   0  0  0  0  0  0
  -24.6117  -31.8688   23.2109 C   0  0  0  0  0  0
  -25.9024  -32.4822   23.8397 C   0  0  1  0  0  0
  -27.2431  -27.4546   20.0648 C   0  0  0  0  0  0
  -25.5902  -33.8631   24.2325 N   0  0  0  0  0  0
  -23.3981  -30.4919   21.5502 C   0  0  2  0  0  0
  -24.8436  -28.9544   20.1166 C   0  0  0  0  0  0
  -22.7391  -29.4668   22.4998 C   0  0  0  0  0  0
  -18.0272  -28.1358   22.8495 C   0  0  0  0  0  0
  -24.1498  -36.7311   23.2639 C   0  0  0  0  0  0
  -25.9263  -30.8318   21.3671 C   0  0  0  0  0  0
  -26.0004  -29.4696   20.7103 C   0  0  0  0  0  0
  -27.1979  -28.7242   20.6840 C   0  0  0  0  0  0
  -26.0650  -26.9445   19.4738 C   0  0  0  0  0  0
  -24.8684  -27.6891   19.5032 C   0  0  0  0  0  0
  -23.6062  -29.8200   20.1662 C   0  0  0  0  0  0
  -25.4121  -36.3114   24.0337 C   0  0  1  0  0  0
  -20.5859  -28.3655   23.1321 C   0  0  2  0  0  0
  -20.6768  -26.9397   22.5414 C   0  0  0  0  0  0
  -19.5754  -26.6373   21.5208 C   0  0  0  0  0  0
  -18.1924  -26.7910   22.1619 C   0  0  0  0  0  0
  -19.1517  -28.8826   23.2904 C   0  0  0  0  0  0
  -18.9457  -30.1430   23.8913 C   0  0  0  0  0  0
  -17.6459  -30.6573   24.0563 C   0  0  0  0  0  0
  -25.9044  -34.9476   23.5124 C   0  0  0  0  0  0
  -16.5348  -29.9078   23.6318 C   0  0  0  0  0  0
  -16.7263  -28.6492   23.0348 C   0  0  0  0  0  0
  -26.4459  -31.6615   25.0735 C   0  0  0  0  0  0
  -25.3709  -31.3724   26.1471 C   0  0  0  0  0  0
  -27.0302  -30.3061   24.6133 C   0  0  0  0  0  0
  -27.6061  -32.4321   25.7464 C   0  0  0  0  0  0
  -27.5587  -37.1815   24.8461 C   0  0  0  0  0  0
  -21.4123  -29.3032   22.3730 N   0  0  0  0  0  0
  -26.4309  -37.3797   23.9397 N   0  0  0  0  0  0
  -24.6628  -31.0792   22.1001 N   0  0  0  0  0  0
  -23.4173  -28.8200   23.3018 O   0  0  0  0  0  0
  -28.4541  -26.7976   20.0650 O   0  0  0  0  0  0
  -26.5610  -34.8918   22.4685 O   0  0  0  0  0  0
  -23.5316  -32.1443   23.7523 O   0  0  0  0  0  0
  -29.9634  -18.1554   23.7357 C   0  0  0  0  0  0
  -29.9793  -16.8088   23.3332 C   0  0  0  0  0  0
  -30.2630  -19.1470   22.7885 C   0  0  0  0  0  0
  -30.5692  -18.7478   21.4712 C   0  0  0  0  0  0
  -30.2897  -16.4783   22.0008 C   0  0  0  0  0  0
  -31.5353  -24.9823   16.0027 C   0  0  0  0  0  0
  -29.4872  -23.6270   15.4248 C   0  0  0  0  0  0
  -31.0036  -19.7832   20.4362 C   0  0  0  0  0  0
  -29.8816  -20.6677   19.8402 C   0  0  0  0  0  0
  -30.4719  -21.8283   18.9989 C   0  0  0  0  0  0
  -28.5870  -25.4294   19.6474 C   0  0  0  0  0  0
  -30.5802  -23.8712   16.4815 C   0  0  0  0  0  0
  -30.0367  -24.0644   17.9424 C   0  0  1  0  0  0
  -29.0899  -25.2994   18.1824 C   0  0  2  0  0  0
  -30.5670  -17.4453   21.0841 N   0  0  0  0  0  0
  -30.2195  -15.0970   21.7139 N   0  0  0  0  0  0
  -29.4639  -22.7877   18.4683 N   0  3  0  0  0  0
  -29.8404  -26.4860   17.9806 O   0  0  0  0  0  0
  -30.2726  -20.4533   23.1464 F   0  0  0  0  0  0
  -31.4709  -12.4356   19.0749 H   0  0  0  0  0  0
  -30.3623  -11.2699   19.7353 H   0  0  0  0  0  0
  -29.7236  -11.8289   17.3819 H   0  0  0  0  0  0
  -29.6612  -13.5276   17.7758 H   0  0  0  0  0  0
  -27.8115  -11.3311   18.7593 H   0  0  0  0  0  0
  -27.3644  -12.6951   17.7736 H   0  0  0  0  0  0
  -27.7375  -14.2556   19.6287 H   0  0  0  0  0  0
  -28.6703  -11.8458   21.2480 H   0  0  0  0  0  0
  -28.4279  -13.4258   21.9006 H   0  0  0  0  0  0
  -25.2764   -9.5703   22.4719 H   0  0  0  0  0  0
  -24.0015   -7.4629   22.7463 H   0  0  0  0  0  0
  -21.0813   -8.8750   19.8931 H   0  0  0  0  0  0
  -22.3653  -10.9667   19.6124 H   0  0  0  0  0  0
  -21.2002   -7.6140   23.9723 H   0  0  0  0  0  0
  -21.1468   -6.0510   25.9090 H   0  0  0  0  0  0
  -22.0609   -2.7594   23.2856 H   0  0  0  0  0  0
  -22.4104  -11.9921   22.4865 H   0  0  0  0  0  0
  -21.1106  -13.1250   22.2516 H   0  0  0  0  0  0
  -24.6669  -15.8389   20.5215 H   0  0  0  0  0  0
  -26.2888  -15.6305   20.0950 H   0  0  0  0  0  0
  -26.7086  -32.5528   23.1147 H   0  0  0  0  0  0
  -25.0059  -33.9806   25.0473 H   0  0  0  0  0  0
  -22.6863  -31.3080   21.4099 H   0  0  0  0  0  0
  -23.3767  -35.9635   23.3302 H   0  0  0  0  0  0
  -24.3574  -36.8922   22.2048 H   0  0  0  0  0  0
  -23.7245  -37.6517   23.6650 H   0  0  0  0  0  0
  -26.0461  -31.6029   20.6045 H   0  0  0  0  0  0
  -26.8112  -30.8778   21.9905 H   0  0  0  0  0  0
  -28.0945  -29.1238   21.1380 H   0  0  0  0  0  0
  -26.0507  -25.9886   18.9713 H   0  0  0  0  0  0
  -23.9756  -27.2890   19.0410 H   0  0  0  0  0  0
  -23.7151  -30.5919   19.4046 H   0  0  0  0  0  0
  -22.7312  -29.2396   19.8710 H   0  0  0  0  0  0
  -25.1294  -36.1979   25.0836 H   0  0  0  0  0  0
  -20.9960  -28.3217   24.1437 H   0  0  0  0  0  0
  -20.5667  -26.2268   23.3592 H   0  0  0  0  0  0
  -21.6635  -26.7434   22.1202 H   0  0  0  0  0  0
  -19.6914  -25.6285   21.1230 H   0  0  0  0  0  0
  -19.6687  -27.3193   20.6744 H   0  0  0  0  0  0
  -17.4195  -26.6667   21.4011 H   0  0  0  0  0  0
  -18.0324  -26.0025   22.8996 H   0  0  0  0  0  0
  -19.7932  -30.7242   24.2285 H   0  0  0  0  0  0
  -17.5020  -31.6259   24.5160 H   0  0  0  0  0  0
  -15.5354  -30.3000   23.7630 H   0  0  0  0  0  0
  -15.8658  -28.0823   22.7061 H   0  0  0  0  0  0
  -24.5882  -30.7080   25.7780 H   0  0  0  0  0  0
  -24.8902  -32.2888   26.4922 H   0  0  0  0  0  0
  -25.8040  -30.8870   27.0227 H   0  0  0  0  0  0
  -26.2862  -29.6812   24.1188 H   0  0  0  0  0  0
  -27.4064  -29.7315   25.4608 H   0  0  0  0  0  0
  -27.8688  -30.4371   23.9286 H   0  0  0  0  0  0
  -27.2722  -33.3620   26.2069 H   0  0  0  0  0  0
  -28.3840  -32.6885   25.0259 H   0  0  0  0  0  0
  -28.0763  -31.8427   26.5342 H   0  0  0  0  0  0
  -28.2621  -38.0104   24.7516 H   0  0  0  0  0  0
  -28.1074  -36.2640   24.6282 H   0  0  0  0  0  0
  -27.2294  -37.1437   25.8864 H   0  0  0  0  0  0
  -20.9286  -29.8765   21.6960 H   0  0  0  0  0  0
  -26.0201  -38.2877   24.1401 H   0  0  0  0  0  0
  -29.7387  -18.4224   24.7575 H   0  0  0  0  0  0
  -29.7625  -16.0409   24.0633 H   0  0  0  0  0  0
  -32.0341  -24.7030   15.0738 H   0  0  0  0  0  0
  -32.3121  -25.1869   16.7394 H   0  0  0  0  0  0
  -31.0092  -25.9144   15.8011 H   0  0  0  0  0  0
  -29.9295  -23.4854   14.4363 H   0  0  0  0  0  0
  -28.8010  -24.4698   15.3489 H   0  0  0  0  0  0
  -28.9039  -22.7322   15.6393 H   0  0  0  0  0  0
  -31.5390  -19.2813   19.6299 H   0  0  0  0  0  0
  -31.7433  -20.4213   20.9241 H   0  0  0  0  0  0
  -29.2909  -21.0849   20.6559 H   0  0  0  0  0  0
  -29.2019  -20.0589   19.2464 H   0  0  0  0  0  0
  -31.0459  -21.4172   18.1675 H   0  0  0  0  0  0
  -31.1835  -22.3687   19.6265 H   0  0  0  0  0  0
  -29.3332  -25.0047   20.3198 H   0  0  0  0  0  0
  -27.6854  -24.8398   19.8182 H   0  0  0  0  0  0
  -31.2029  -22.9759   16.4889 H   0  0  0  0  0  0
  -30.9089  -24.2706   18.5622 H   0  0  0  0  0  0
  -28.2370  -25.3030   17.5023 H   0  0  0  0  0  0
  -29.5568  -14.5853   22.2739 H   0  0  0  0  0  0
  -28.8372  -23.0144   19.2206 H   0  0  0  0  0  0
  -28.9144  -22.3415   17.7501 H   0  0  0  0  0  0
  -29.4563  -27.1373   18.5643 H   0  0  0  0  0  0
  1 25  1  0  0  0
  1 30  2  0  0  0
  1 86  1  0  0  0
  2  3  1  0  0  0
  2 25  1  0  0  0
  2 90  1  0  0  0
  2 91  1  0  0  0
  3  4  1  0  0  0
  3 92  1  0  0  0
  3 93  1  0  0  0
  4  5  1  0  0  0
  4 94  1  0  0  0
  4 95  1  0  0  0
  5  6  1  0  0  0
  5 26  1  0  0  0
  5 96  1  0  0  0
  6 25  1  0  0  0
  6 97  1  0  0  0
  6 98  1  0  0  0
  7  8  2  0  0  0
  7 26  1  0  0  0
  7 29  1  0  0  0
  8  9  1  0  0  0
  8 22  1  0  0  0
  9 10  1  0  0  0
  9 27  2  0  0  0
 10 11  2  0  0  0
 10 15  1  0  0  0
 11 12  1  0  0  0
 11 99  1  0  0  0
 12 13  2  0  0  0
 12100  1  0  0  0
 13 14  1  0  0  0
 13 31  1  0  0  0
 14 15  2  0  0  0
 14101  1  0  0  0
 15102  1  0  0  0
 16 17  2  0  0  0
 16 21  1  0  0  0
 16 31  1  0  0  0
 17 18  1  0  0  0
 17103  1  0  0  0
 18 19  2  0  0  0
 18104  1  0  0  0
 19 20  1  0  0  0
 19 24  1  0  0  0
 20 21  2  0  0  0
 20105  1  0  0  0
 21 23  1  0  0  0
 22 28  1  0  0  0
 22 32  2  0  0  0
 26 27  1  0  0  0
 28106  1  0  0  0
 28107  1  0  0  0
 29108  1  0  0  0
 29109  1  0  0  0
 33 34  1  0  0  0
 33 66  1  0  0  0
 33 70  2  0  0  0
 34 36  1  0  0  0
 34 59  1  0  0  0
 34110  1  0  0  0
 35 44  2  0  0  0
 35 45  1  0  0  0
 35 68  1  0  0  0
 36 56  1  0  0  0
 36111  1  0  0  0
 37 39  1  0  0  0
 37 47  1  0  0  0
 37 66  1  0  0  0
 37112  1  0  0  0
 38 43  2  0  0  0
 38 46  1  0  0  0
 38 47  1  0  0  0
 39 64  1  0  0  0
 39 67  2  0  0  0
 40 52  1  0  0  0
 40 53  2  0  0  0
 40 58  1  0  0  0
 41113  1  0  0  0
 41114  1  0  0  0
 41115  1  0  0  0
 41 48  1  0  0  0
 42 43  1  0  0  0
 42 66  1  0  0  0
 42116  1  0  0  0
 42117  1  0  0  0
 43 44  1  0  0  0
 44118  1  0  0  0
 45 46  2  0  0  0
 45119  1  0  0  0
 46120  1  0  0  0
 47121  1  0  0  0
 47122  1  0  0  0
 48 56  1  0  0  0
 48 65  1  0  0  0
 48123  1  0  0  0
 49 50  1  0  0  0
 49 53  1  0  0  0
 49 64  1  0  0  0
 49124  1  0  0  0
 50 51  1  0  0  0
 50125  1  0  0  0
 50126  1  0  0  0
 51 52  1  0  0  0
 51127  1  0  0  0
 51128  1  0  0  0
 52129  1  0  0  0
 52130  1  0  0  0
 53 54  1  0  0  0
 54 55  2  0  0  0
 54131  1  0  0  0
 55 57  1  0  0  0
 55132  1  0  0  0
 56 69  2  0  0  0
 57 58  2  0  0  0
 57133  1  0  0  0
 58134  1  0  0  0
 59 60  1  0  0  0
 59 61  1  0  0  0
 59 62  1  0  0  0
 60135  1  0  0  0
 60136  1  0  0  0
 60137  1  0  0  0
 61138  1  0  0  0
 61139  1  0  0  0
 61140  1  0  0  0
 62141  1  0  0  0
 62142  1  0  0  0
 62143  1  0  0  0
 63 65  1  0  0  0
 63144  1  0  0  0
 63145  1  0  0  0
 63146  1  0  0  0
 64147  1  0  0  0
 65148  1  0  0  0
 68 81  1  0  0  0
 71 72  2  0  0  0
 71 73  1  0  0  0
 71149  1  0  0  0
 72 75  1  0  0  0
 72150  1  0  0  0
 73 74  2  0  0  0
 73 89  1  0  0  0
 74 78  1  0  0  0
 74 85  1  0  0  0
 75 85  2  0  0  0
 75 86  1  0  0  0
 76151  1  0  0  0
 76152  1  0  0  0
 76153  1  0  0  0
 76 82  1  0  0  0
 77 82  1  0  0  0
 77154  1  0  0  0
 77155  1  0  0  0
 77156  1  0  0  0
 78 79  1  0  0  0
 78157  1  0  0  0
 78158  1  0  0  0
 79 80  1  0  0  0
 79159  1  0  0  0
 79160  1  0  0  0
 80 87  1  0  0  0
 80161  1  0  0  0
 80162  1  0  0  0
 81 84  1  0  0  0
 81163  1  0  0  0
 81164  1  0  0  0
 82 83  1  0  0  0
 82165  1  0  0  0
 83 84  1  0  0  0
 83 87  1  0  0  0
 83166  1  0  0  0
 84 88  1  0  0  0
 84167  1  0  0  0
 86168  1  0  0  0
 87169  1  0  0  0
 87170  1  0  0  0
 88171  1  0  0  0
M  CHG  1  87   1
M  ISO  4   1 100  68 101  81 101  86 100
M  END
> <chiral flag>
0

> <version>
0

> <s_m_source_file>
/data/baiqing/PycharmProjects/Reinvent-master-3.2/result/LINK_invent/BTK/process_docking_weight1_custom_product_contain_oxygen_bond_distance_aromatic_linkinvent_7_9_3/rearranged_h_0196.sdf

> <i_m_source_file_index>
77

> <r_mmod_Potential_Energy-OPLS-2005>
-275.971130371094

> <r_mmod_Stretch_Energy-OPLS-2005>
41.6674728393555

> <r_mmod_Bend_Energy-OPLS-2005>
124.508239746094

> <r_mmod_Torsional_Energy-OPLS-2005>
257.193481445312

> <r_mmod_Improper_Torsional_Energy-OPLS-2005>
3.12913918495178

> <r_mmod_Van_der_Waal_Energy-OPLS-2005>
160.98713684082

> <r_mmod_Electrostatic_Energy-OPLS-2005>
-391.698364257812

> <r_mmod_Solvation_Energy-OPLS-2005>
-481.197601318359

> <b_mmod_Minimization_Converged-OPLS-2005>
0

> <r_mmod_RMS_Derivative-OPLS-2005>
3.12776923179626

$$$$
77
                    3D
 Structure written by MMmdl.
160168  0  0  1  0            999 V2000
  -30.6216  -14.5969   20.4930 C   0  0  0  0  0  0
  -30.4371  -12.3721   19.4479 C   0  0  0  0  0  0
  -29.5133  -12.5060   18.2157 C   0  0  0  0  0  0
  -28.0317  -12.3373   18.6178 C   0  0  0  0  0  0
  -27.6486  -13.2010   19.8514 C   0  0  2  0  0  0
  -28.6875  -13.0087   20.9713 C   0  0  0  0  0  0
  -25.2576  -13.8120   20.5644 C   0  0  0  0  0  0
  -24.1830  -13.0401   20.9193 C   0  0  0  0  0  0
  -24.6365  -11.6864   20.8681 C   0  0  0  0  0  0
  -23.9017  -10.4269   21.0353 C   0  0  0  0  0  0
  -24.3586   -9.4205   21.9139 C   0  0  0  0  0  0
  -23.6284   -8.2222   22.0726 C   0  0  0  0  0  0
  -22.4270   -8.0250   21.3526 C   0  0  0  0  0  0
  -21.9877   -9.0210   20.4624 C   0  0  0  0  0  0
  -22.7180  -10.2108   20.3005 C   0  0  0  0  0  0
  -21.6834   -6.0719   22.5288 C   0  0  0  0  0  0
  -21.4007   -6.5629   23.8232 C   0  0  0  0  0  0
  -21.3666   -5.6778   24.9195 C   0  0  0  0  0  0
  -21.6030   -4.3046   24.7219 C   0  0  0  0  0  0
  -21.8817   -3.8143   23.4347 C   0  0  0  0  0  0
  -21.9199   -4.6956   22.3413 C   0  0  0  0  0  0
  -22.7866  -13.5218   21.1872 C   0  0  0  0  0  0
  -22.1652   -4.2154   21.0983 F   0  0  0  0  0  0
  -21.5643   -3.4528   25.7732 F   0  0  0  0  0  0
  -29.9925  -13.3851   20.4210 N   0  0  0  0  0  0
  -26.2954  -12.9265   20.3203 N   0  0  0  0  0  0
  -25.9274  -11.6447   20.5626 N   0  0  0  0  0  0
  -22.0489  -12.8222   22.0443 N   0  0  0  0  0  0
  -25.4303  -15.1840   20.4136 N   0  0  0  0  0  0
  -31.8221  -14.7050   20.2319 O   0  0  0  0  0  0
  -21.6637   -6.8851   21.4238 O   0  0  0  0  0  0
  -22.3535  -14.5507   20.6718 O   0  0  0  0  0  0
  -24.6194  -31.8652   23.2035 C   0  0  0  0  0  0
  -25.9058  -32.4807   23.8336 C   0  0  1  0  0  0
  -27.2232  -27.3824   20.1099 C   0  0  0  0  0  0
  -25.5897  -33.8607   24.2287 N   0  0  0  0  0  0
  -23.4100  -30.4874   21.5460 C   0  0  2  0  0  0
  -24.8553  -28.9441   20.1140 C   0  0  0  0  0  0
  -22.7427  -29.4663   22.4951 C   0  0  0  0  0  0
  -18.0281  -28.1417   22.8480 C   0  0  0  0  0  0
  -24.1498  -36.7291   23.2637 C   0  0  0  0  0  0
  -25.9425  -30.8167   21.3612 C   0  0  0  0  0  0
  -26.0190  -29.4460   20.7090 C   0  0  0  0  0  0
  -27.2107  -28.6747   20.6971 C   0  0  0  0  0  0
  -26.0418  -26.9080   19.5039 C   0  0  0  0  0  0
  -24.8627  -27.6762   19.5055 C   0  0  0  0  0  0
  -23.6191  -29.8139   20.1627 C   0  0  0  0  0  0
  -25.4119  -36.3098   24.0339 C   0  0  1  0  0  0
  -20.5870  -28.3714   23.1295 C   0  0  2  0  0  0
  -20.6783  -26.9445   22.5418 C   0  0  0  0  0  0
  -19.5756  -26.6410   21.5216 C   0  0  0  0  0  0
  -18.1928  -26.7953   22.1620 C   0  0  0  0  0  0
  -19.1531  -28.8875   23.2891 C   0  0  0  0  0  0
  -18.9454  -30.1471   23.8916 C   0  0  0  0  0  0
  -17.6461  -30.6609   24.0579 C   0  0  0  0  0  0
  -25.9056  -34.9472   23.5121 C   0  0  0  0  0  0
  -16.5353  -29.9117   23.6330 C   0  0  0  0  0  0
  -16.7268  -28.6542   23.0339 C   0  0  0  0  0  0
  -26.4465  -31.6596   25.0683 C   0  0  0  0  0  0
  -25.3734  -31.3723   26.1438 C   0  0  0  0  0  0
  -27.0287  -30.3028   24.6086 C   0  0  0  0  0  0
  -27.6053  -32.4312   25.7440 C   0  0  0  0  0  0
  -27.5594  -37.1787   24.8457 C   0  0  0  0  0  0
  -21.4153  -29.3065   22.3683 N   0  0  0  0  0  0
  -26.4299  -37.3791   23.9426 N   0  0  0  0  0  0
  -24.6759  -31.0713   22.0945 N   0  0  0  0  0  0
  -23.4170  -28.8221   23.3021 O   0  0  0  0  0  0
  -28.3540  -26.5817   20.1079 O   0  0  0  0  0  0
  -26.5619  -34.8935   22.4682 O   0  0  0  0  0  0
  -23.5381  -32.1407   23.7418 O   0  0  0  0  0  0
  -27.5304  -17.1344   23.0232 C   0  0  0  0  0  0
  -27.4919  -18.0007   21.9686 C   0  0  0  0  0  0
  -28.5113  -17.7275   20.9855 C   0  0  0  0  0  0
  -29.0871  -16.4601   21.1790 C   0  0  0  0  0  0
  -28.5868  -21.3232   19.8456 C   0  0  0  0  0  0
  -26.4659  -19.1003   21.9189 C   0  0  0  0  0  0
  -28.8180  -18.7571   19.8858 C   0  0  0  0  0  0
  -28.5552  -24.0105   19.8964 C   0  0  0  0  0  0
  -28.2251  -25.2841   20.7579 C   0  0  0  0  0  0
  -28.6594  -22.6440   20.6953 C   0  0  2  0  0  0
  -29.8561  -15.7184   20.3151 N   0  0  0  0  0  0
  -28.9415  -20.1433   20.4216 N   0  0  0  0  0  0
  -29.8444  -22.6319   21.5794 N   0  3  0  0  0  0
  -28.2058  -21.3643   18.6749 O   0  0  0  0  0  0
  -28.7299  -15.9120   22.8047 S   0  0  0  0  0  0
  -31.4809  -12.4989   19.1581 H   0  0  0  0  0  0
  -30.3677  -11.3700   19.8788 H   0  0  0  0  0  0
  -29.7845  -11.7772   17.4514 H   0  0  0  0  0  0
  -29.6563  -13.4880   17.7561 H   0  0  0  0  0  0
  -27.8670  -11.2817   18.8386 H   0  0  0  0  0  0
  -27.3860  -12.5728   17.7721 H   0  0  0  0  0  0
  -27.6739  -14.2425   19.5383 H   0  0  0  0  0  0
  -28.7066  -11.9634   21.2792 H   0  0  0  0  0  0
  -28.4188  -13.5492   21.8672 H   0  0  0  0  0  0
  -25.2700   -9.5724   22.4762 H   0  0  0  0  0  0
  -24.0001   -7.4596   22.7439 H   0  0  0  0  0  0
  -21.0807   -8.8682   19.8938 H   0  0  0  0  0  0
  -22.3560  -10.9640   19.6145 H   0  0  0  0  0  0
  -21.1974   -7.6131   23.9747 H   0  0  0  0  0  0
  -21.1498   -6.0493   25.9101 H   0  0  0  0  0  0
  -22.0603   -2.7603   23.2834 H   0  0  0  0  0  0
  -22.3981  -11.9881   22.4918 H   0  0  0  0  0  0
  -21.1066  -13.1252   22.2489 H   0  0  0  0  0  0
  -24.6996  -15.8491   20.6423 H   0  0  0  0  0  0
  -26.3194  -15.6322   20.2274 H   0  0  0  0  0  0
  -26.7129  -32.5515   23.1103 H   0  0  0  0  0  0
  -25.0026  -33.9742   25.0414 H   0  0  0  0  0  0
  -22.7034  -31.3085   21.4008 H   0  0  0  0  0  0
  -23.3777  -35.9603   23.3281 H   0  0  0  0  0  0
  -24.3593  -36.8930   22.2054 H   0  0  0  0  0  0
  -23.7231  -37.6488   23.6649 H   0  0  0  0  0  0
  -26.0616  -31.5822   20.5930 H   0  0  0  0  0  0
  -26.8277  -30.8697   21.9833 H   0  0  0  0  0  0
  -28.1107  -29.0569   21.1577 H   0  0  0  0  0  0
  -26.0348  -25.9341   19.0352 H   0  0  0  0  0  0
  -23.9684  -27.2865   19.0384 H   0  0  0  0  0  0
  -23.7264  -30.5856   19.3983 H   0  0  0  0  0  0
  -22.7432  -29.2333   19.8677 H   0  0  0  0  0  0
  -25.1299  -36.1942   25.0828 H   0  0  0  0  0  0
  -20.9962  -28.3303   24.1415 H   0  0  0  0  0  0
  -20.5700  -26.2324   23.3618 H   0  0  0  0  0  0
  -21.6651  -26.7514   22.1194 H   0  0  0  0  0  0
  -19.6937  -25.6321   21.1246 H   0  0  0  0  0  0
  -19.6712  -27.3227   20.6745 H   0  0  0  0  0  0
  -17.4213  -26.6705   21.4024 H   0  0  0  0  0  0
  -18.0338  -26.0109   22.9023 H   0  0  0  0  0  0
  -19.7940  -30.7276   24.2306 H   0  0  0  0  0  0
  -17.5026  -31.6287   24.5198 H   0  0  0  0  0  0
  -15.5357  -30.3035   23.7662 H   0  0  0  0  0  0
  -15.8661  -28.0884   22.7033 H   0  0  0  0  0  0
  -24.5872  -30.7119   25.7755 H   0  0  0  0  0  0
  -24.8965  -32.2898   26.4895 H   0  0  0  0  0  0
  -25.8062  -30.8855   27.0188 H   0  0  0  0  0  0
  -26.2809  -29.6798   24.1165 H   0  0  0  0  0  0
  -27.4066  -29.7261   25.4541 H   0  0  0  0  0  0
  -27.8644  -30.4332   23.9212 H   0  0  0  0  0  0
  -27.2657  -33.3578   26.2071 H   0  0  0  0  0  0
  -28.3802  -32.6942   25.0227 H   0  0  0  0  0  0
  -28.0779  -31.8418   26.5309 H   0  0  0  0  0  0
  -28.2584  -38.0112   24.7557 H   0  0  0  0  0  0
  -28.1125  -36.2656   24.6209 H   0  0  0  0  0  0
  -27.2324  -37.1334   25.8860 H   0  0  0  0  0  0
  -20.9323  -29.8738   21.6864 H   0  0  0  0  0  0
  -26.0191  -38.2864   24.1465 H   0  0  0  0  0  0
  -26.9212  -17.1448   23.9198 H   0  0  0  0  0  0
  -25.4654  -18.7171   22.1306 H   0  0  0  0  0  0
  -26.3957  -19.5610   20.9351 H   0  0  0  0  0  0
  -26.6744  -19.8863   22.6436 H   0  0  0  0  0  0
  -28.0407  -18.7243   19.1209 H   0  0  0  0  0  0
  -29.7445  -18.5033   19.3687 H   0  0  0  0  0  0
  -29.4921  -24.1762   19.3632 H   0  0  0  0  0  0
  -27.7902  -23.9267   19.1230 H   0  0  0  0  0  0
  -28.9108  -25.3180   21.6052 H   0  0  0  0  0  0
  -27.2389  -25.1636   21.2102 H   0  0  0  0  0  0
  -27.7826  -22.6015   21.3457 H   0  0  0  0  0  0
  -30.2311  -16.2755   19.5619 H   0  0  0  0  0  0
  -29.2294  -20.1657   21.3877 H   0  0  0  0  0  0
  -30.6695  -22.4479   21.0350 H   0  0  0  0  0  0
  -29.7612  -21.9218   22.2844 H   0  0  0  0  0  0
  -29.9576  -23.5116   22.0464 H   0  0  0  0  0  0
  1 25  1  0  0  0
  1 30  2  0  0  0
  1 81  1  0  0  0
  2  3  1  0  0  0
  2 25  1  0  0  0
  2 86  1  0  0  0
  2 87  1  0  0  0
  3  4  1  0  0  0
  3 88  1  0  0  0
  3 89  1  0  0  0
  4  5  1  0  0  0
  4 90  1  0  0  0
  4 91  1  0  0  0
  5  6  1  0  0  0
  5 26  1  0  0  0
  5 92  1  0  0  0
  6 25  1  0  0  0
  6 93  1  0  0  0
  6 94  1  0  0  0
  7  8  2  0  0  0
  7 26  1  0  0  0
  7 29  1  0  0  0
  8  9  1  0  0  0
  8 22  1  0  0  0
  9 10  1  0  0  0
  9 27  2  0  0  0
 10 11  2  0  0  0
 10 15  1  0  0  0
 11 12  1  0  0  0
 11 95  1  0  0  0
 12 13  2  0  0  0
 12 96  1  0  0  0
 13 14  1  0  0  0
 13 31  1  0  0  0
 14 15  2  0  0  0
 14 97  1  0  0  0
 15 98  1  0  0  0
 16 17  2  0  0  0
 16 21  1  0  0  0
 16 31  1  0  0  0
 17 18  1  0  0  0
 17 99  1  0  0  0
 18 19  2  0  0  0
 18100  1  0  0  0
 19 20  1  0  0  0
 19 24  1  0  0  0
 20 21  2  0  0  0
 20101  1  0  0  0
 21 23  1  0  0  0
 22 28  1  0  0  0
 22 32  2  0  0  0
 26 27  1  0  0  0
 28102  1  0  0  0
 28103  1  0  0  0
 29104  1  0  0  0
 29105  1  0  0  0
 33 34  1  0  0  0
 33 66  1  0  0  0
 33 70  2  0  0  0
 34 36  1  0  0  0
 34 59  1  0  0  0
 34106  1  0  0  0
 35 44  2  0  0  0
 35 45  1  0  0  0
 35 68  1  0  0  0
 36 56  1  0  0  0
 36107  1  0  0  0
 37 39  1  0  0  0
 37 47  1  0  0  0
 37 66  1  0  0  0
 37108  1  0  0  0
 38 43  2  0  0  0
 38 46  1  0  0  0
 38 47  1  0  0  0
 39 64  1  0  0  0
 39 67  2  0  0  0
 40 52  1  0  0  0
 40 53  2  0  0  0
 40 58  1  0  0  0
 41109  1  0  0  0
 41110  1  0  0  0
 41111  1  0  0  0
 41 48  1  0  0  0
 42 43  1  0  0  0
 42 66  1  0  0  0
 42112  1  0  0  0
 42113  1  0  0  0
 43 44  1  0  0  0
 44114  1  0  0  0
 45 46  2  0  0  0
 45115  1  0  0  0
 46116  1  0  0  0
 47117  1  0  0  0
 47118  1  0  0  0
 48 56  1  0  0  0
 48 65  1  0  0  0
 48119  1  0  0  0
 49 50  1  0  0  0
 49 53  1  0  0  0
 49 64  1  0  0  0
 49120  1  0  0  0
 50 51  1  0  0  0
 50121  1  0  0  0
 50122  1  0  0  0
 51 52  1  0  0  0
 51123  1  0  0  0
 51124  1  0  0  0
 52125  1  0  0  0
 52126  1  0  0  0
 53 54  1  0  0  0
 54 55  2  0  0  0
 54127  1  0  0  0
 55 57  1  0  0  0
 55128  1  0  0  0
 56 69  2  0  0  0
 57 58  2  0  0  0
 57129  1  0  0  0
 58130  1  0  0  0
 59 60  1  0  0  0
 59 61  1  0  0  0
 59 62  1  0  0  0
 60131  1  0  0  0
 60132  1  0  0  0
 60133  1  0  0  0
 61134  1  0  0  0
 61135  1  0  0  0
 61136  1  0  0  0
 62137  1  0  0  0
 62138  1  0  0  0
 62139  1  0  0  0
 63 65  1  0  0  0
 63140  1  0  0  0
 63141  1  0  0  0
 63142  1  0  0  0
 64143  1  0  0  0
 65144  1  0  0  0
 68 79  1  0  0  0
 71 72  2  0  0  0
 71 85  1  0  0  0
 71145  1  0  0  0
 72 73  1  0  0  0
 72 76  1  0  0  0
 73 74  2  0  0  0
 73 77  1  0  0  0
 74 81  1  0  0  0
 74 85  1  0  0  0
 75 80  1  0  0  0
 75 82  1  0  0  0
 75 84  2  0  0  0
 76146  1  0  0  0
 76147  1  0  0  0
 76148  1  0  0  0
 77 82  1  0  0  0
 77149  1  0  0  0
 77150  1  0  0  0
 78 79  1  0  0  0
 78 80  1  0  0  0
 78151  1  0  0  0
 78152  1  0  0  0
 79153  1  0  0  0
 79154  1  0  0  0
 80 83  1  0  0  0
 80155  1  0  0  0
 81156  1  0  0  0
 82157  1  0  0  0
 83158  1  0  0  0
 83159  1  0  0  0
 83160  1  0  0  0
M  CHG  1  83   1
M  ISO  4   1 100  68 101  79 101  81 100
M  END
> <chiral flag>
0

> <version>
0

> <s_m_source_file>
/data/baiqing/PycharmProjects/Reinvent-master-3.2/result/LINK_invent/BTK/process_docking_weight1_custom_product_contain_oxygen_bond_distance_aromatic_linkinvent_7_9_3/rearranged_h_0196.sdf

> <i_m_source_file_index>
78

> <r_mmod_Potential_Energy-OPLS-2005>
-339.5390625

> <r_mmod_Stretch_Energy-OPLS-2005>
57.9622077941895

> <r_mmod_Bend_Energy-OPLS-2005>
136.550567626953

> <r_mmod_Torsional_Energy-OPLS-2005>
291.681549072266

> <r_mmod_Improper_Torsional_Energy-OPLS-2005>
19.9250736236572

> <r_mmod_Van_der_Waal_Energy-OPLS-2005>
118.82625579834

> <r_mmod_Electrostatic_Energy-OPLS-2005>
-447.351745605469

> <r_mmod_Solvation_Energy-OPLS-2005>
-551.460205078125

> <b_mmod_Minimization_Converged-OPLS-2005>
0

> <r_mmod_RMS_Derivative-OPLS-2005>
4.38414335250854

$$$$
78
                    3D
 Structure written by MMmdl.
154162  0  0  1  0            999 V2000
  -30.6571  -14.7391   20.4546 C   0  0  0  0  0  0
  -30.4182  -12.4501   19.4841 C   0  0  0  0  0  0
  -29.5038  -12.4904   18.2416 C   0  0  0  0  0  0
  -28.0339  -12.3138   18.6615 C   0  0  0  0  0  0
  -27.6370  -13.2344   19.8460 C   0  0  2  0  0  0
  -28.6810  -13.2057   20.9849 C   0  0  0  0  0  0
  -25.2503  -13.8211   20.5711 C   0  0  0  0  0  0
  -24.1801  -13.0454   20.9226 C   0  0  0  0  0  0
  -24.6395  -11.6930   20.8773 C   0  0  0  0  0  0
  -23.9082  -10.4304   21.0432 C   0  0  0  0  0  0
  -24.3631   -9.4215   21.9205 C   0  0  0  0  0  0
  -23.6303   -8.2250   22.0767 C   0  0  0  0  0  0
  -22.4289   -8.0291   21.3550 C   0  0  0  0  0  0
  -21.9928   -9.0273   20.4653 C   0  0  0  0  0  0
  -22.7260  -10.2149   20.3071 C   0  0  0  0  0  0
  -21.6852   -6.0747   22.5281 C   0  0  0  0  0  0
  -21.4012   -6.5648   23.8217 C   0  0  0  0  0  0
  -21.3656   -5.6799   24.9178 C   0  0  0  0  0  0
  -21.6039   -4.3061   24.7229 C   0  0  0  0  0  0
  -21.8818   -3.8156   23.4349 C   0  0  0  0  0  0
  -21.9195   -4.6973   22.3403 C   0  0  0  0  0  0
  -22.7820  -13.5234   21.1868 C   0  0  0  0  0  0
  -22.1662   -4.2158   21.0981 F   0  0  0  0  0  0
  -21.5627   -3.4543   25.7743 F   0  0  0  0  0  0
  -29.9824  -13.5376   20.3950 N   0  0  0  0  0  0
  -26.2919  -12.9423   20.3287 N   0  0  0  0  0  0
  -25.9325  -11.6562   20.5791 N   0  0  0  0  0  0
  -22.0459  -12.8226   22.0419 N   0  0  0  0  0  0
  -25.4193  -15.1935   20.4110 N   0  0  0  0  0  0
  -31.8566  -14.7273   20.1583 O   0  0  0  0  0  0
  -21.6641   -6.8895   21.4248 O   0  0  0  0  0  0
  -22.3512  -14.5541   20.6714 O   0  0  0  0  0  0
  -24.6312  -31.8544   23.1989 C   0  0  0  0  0  0
  -25.9140  -32.4754   23.8320 C   0  0  1  0  0  0
  -27.2152  -27.2561   20.1272 C   0  0  0  0  0  0
  -25.5936  -33.8555   24.2256 N   0  0  0  0  0  0
  -23.4274  -30.4773   21.5424 C   0  0  2  0  0  0
  -24.8719  -28.9253   20.1089 C   0  0  0  0  0  0
  -22.7494  -29.4586   22.4914 C   0  0  0  0  0  0
  -18.0287  -28.1378   22.8466 C   0  0  0  0  0  0
  -24.1494  -36.7293   23.2637 C   0  0  0  0  0  0
  -25.9713  -30.7654   21.3778 C   0  0  0  0  0  0
  -26.0422  -29.3876   20.7219 C   0  0  0  0  0  0
  -27.2125  -28.5633   20.7231 C   0  0  0  0  0  0
  -26.0199  -26.8657   19.4794 C   0  0  0  0  0  0
  -24.8667  -27.6732   19.4782 C   0  0  0  0  0  0
  -23.6434  -29.8123   20.1578 C   0  0  0  0  0  0
  -25.4121  -36.3074   24.0322 C   0  0  1  0  0  0
  -20.5887  -28.3688   23.1262 C   0  0  2  0  0  0
  -20.6772  -26.9403   22.5399 C   0  0  0  0  0  0
  -19.5757  -26.6378   21.5195 C   0  0  0  0  0  0
  -18.1936  -26.7924   22.1608 C   0  0  0  0  0  0
  -19.1536  -28.8850   23.2861 C   0  0  0  0  0  0
  -18.9463  -30.1445   23.8889 C   0  0  0  0  0  0
  -17.6466  -30.6582   24.0551 C   0  0  0  0  0  0
  -25.9056  -34.9439   23.5097 C   0  0  0  0  0  0
  -16.5354  -29.9073   23.6328 C   0  0  0  0  0  0
  -16.7274  -28.6493   23.0351 C   0  0  0  0  0  0
  -26.4512  -31.6585   25.0712 C   0  0  0  0  0  0
  -25.3739  -31.3719   26.1437 C   0  0  0  0  0  0
  -27.0357  -30.3004   24.6180 C   0  0  0  0  0  0
  -27.6074  -32.4320   25.7486 C   0  0  0  0  0  0
  -27.5584  -37.1794   24.8460 C   0  0  0  0  0  0
  -21.4198  -29.3044   22.3661 N   0  0  0  0  0  0
  -26.4304  -37.3763   23.9401 N   0  0  0  0  0  0
  -24.6957  -31.0502   22.0968 N   0  0  0  0  0  0
  -23.4194  -28.8106   23.2994 O   0  0  0  0  0  0
  -28.3332  -26.3924   20.2223 O   0  0  0  0  0  0
  -26.5622  -34.8910   22.4661 O   0  0  0  0  0  0
  -23.5471  -32.1374   23.7301 O   0  0  0  0  0  0
  -32.0534  -18.8061   20.1402 C   0  0  0  0  0  0
  -31.2352  -19.9239   20.3659 C   0  0  0  0  0  0
  -29.8725  -19.6781   20.6428 C   0  0  0  0  0  0
  -30.3338  -17.3144   20.5333 C   0  0  0  0  0  0
  -28.9341  -20.9120   21.0145 C   0  0  0  0  0  0
  -28.8036  -22.2271   20.0679 C   0  0  0  0  0  0
  -28.3733  -24.9703   19.7271 C   0  0  0  0  0  0
  -28.7273  -23.7217   20.6971 C   0  0  2  0  0  0
  -31.6056  -17.5475   20.2325 N   0  0  0  0  0  0
  -29.4491  -18.3502   20.7296 N   0  0  0  0  0  0
  -31.7985  -21.2061   20.3648 N   0  0  0  0  0  0
  -29.9491  -15.9312   20.6424 N   0  0  0  0  0  0
  -30.0193  -23.9679   21.2259 O   0  0  0  0  0  0
  -31.4619  -12.5432   19.1781 H   0  0  0  0  0  0
  -30.3456  -11.4852   19.9879 H   0  0  0  0  0  0
  -29.7881  -11.7047   17.5396 H   0  0  0  0  0  0
  -29.6278  -13.4366   17.7134 H   0  0  0  0  0  0
  -27.9049  -11.2697   18.9499 H   0  0  0  0  0  0
  -27.3703  -12.4758   17.8114 H   0  0  0  0  0  0
  -27.6229  -14.2469   19.4423 H   0  0  0  0  0  0
  -28.7164  -12.2246   21.4605 H   0  0  0  0  0  0
  -28.4154  -13.9164   21.7691 H   0  0  0  0  0  0
  -25.2771   -9.5685   22.4789 H   0  0  0  0  0  0
  -24.0002   -7.4642   22.7487 H   0  0  0  0  0  0
  -21.0863   -8.8807   19.8958 H   0  0  0  0  0  0
  -22.3731  -10.9700   19.6186 H   0  0  0  0  0  0
  -21.2001   -7.6156   23.9725 H   0  0  0  0  0  0
  -21.1472   -6.0527   25.9080 H   0  0  0  0  0  0
  -22.0597   -2.7620   23.2848 H   0  0  0  0  0  0
  -22.4064  -11.9870   22.4786 H   0  0  0  0  0  0
  -21.1082  -13.1264   22.2626 H   0  0  0  0  0  0
  -24.6511  -15.8465   20.5230 H   0  0  0  0  0  0
  -26.2603  -15.6339   20.0613 H   0  0  0  0  0  0
  -26.7201  -32.5404   23.1054 H   0  0  0  0  0  0
  -25.0081  -33.9674   25.0400 H   0  0  0  0  0  0
  -22.7254  -31.2997   21.3987 H   0  0  0  0  0  0
  -23.3756  -35.9624   23.3297 H   0  0  0  0  0  0
  -24.3586  -36.8928   22.2051 H   0  0  0  0  0  0
  -23.7246  -37.6489   23.6672 H   0  0  0  0  0  0
  -26.1033  -31.5227   20.6042 H   0  0  0  0  0  0
  -26.8516  -30.8199   22.0062 H   0  0  0  0  0  0
  -28.1081  -28.9082   21.2217 H   0  0  0  0  0  0
  -25.9147  -25.9195   18.9776 H   0  0  0  0  0  0
  -23.9706  -27.3128   18.9919 H   0  0  0  0  0  0
  -23.7659  -30.5880   19.4008 H   0  0  0  0  0  0
  -22.7615  -29.2441   19.8567 H   0  0  0  0  0  0
  -25.1304  -36.1928   25.0816 H   0  0  0  0  0  0
  -20.9976  -28.3275   24.1382 H   0  0  0  0  0  0
  -20.5671  -26.2289   23.3601 H   0  0  0  0  0  0
  -21.6644  -26.7428   22.1195 H   0  0  0  0  0  0
  -19.6926  -25.6285   21.1233 H   0  0  0  0  0  0
  -19.6713  -27.3179   20.6721 H   0  0  0  0  0  0
  -17.4198  -26.6653   21.4012 H   0  0  0  0  0  0
  -18.0342  -26.0069   22.9013 H   0  0  0  0  0  0
  -19.7946  -30.7236   24.2280 H   0  0  0  0  0  0
  -17.5029  -31.6271   24.5134 H   0  0  0  0  0  0
  -15.5353  -30.2970   23.7673 H   0  0  0  0  0  0
  -15.8675  -28.0809   22.7081 H   0  0  0  0  0  0
  -24.5925  -30.7056   25.7756 H   0  0  0  0  0  0
  -24.8908  -32.2872   26.4863 H   0  0  0  0  0  0
  -25.8066  -30.8892   27.0211 H   0  0  0  0  0  0
  -26.2921  -29.6738   24.1238 H   0  0  0  0  0  0
  -27.4080  -29.7288   25.4696 H   0  0  0  0  0  0
  -27.8792  -30.4290   23.9397 H   0  0  0  0  0  0
  -27.2705  -33.3658   26.2014 H   0  0  0  0  0  0
  -28.3914  -32.6817   25.0319 H   0  0  0  0  0  0
  -28.0705  -31.8459   26.5439 H   0  0  0  0  0  0
  -28.2584  -38.0105   24.7511 H   0  0  0  0  0  0
  -28.1095  -36.2627   24.6295 H   0  0  0  0  0  0
  -27.2286  -37.1451   25.8857 H   0  0  0  0  0  0
  -20.9388  -29.8798   21.6884 H   0  0  0  0  0  0
  -26.0190  -38.2837   24.1419 H   0  0  0  0  0  0
  -33.1046  -18.9206   19.9194 H   0  0  0  0  0  0
  -29.2905  -21.2503   21.9879 H   0  0  0  0  0  0
  -27.9331  -20.5283   21.2108 H   0  0  0  0  0  0
  -27.9151  -22.0795   19.4533 H   0  0  0  0  0  0
  -29.6143  -22.2162   19.3412 H   0  0  0  0  0  0
  -27.4583  -24.6860   19.2204 H   0  0  0  0  0  0
  -29.1139  -24.9728   18.9269 H   0  0  0  0  0  0
  -28.0085  -23.7131   21.5180 H   0  0  0  0  0  0
  -32.8098  -21.3042   20.4213 H   0  0  0  0  0  0
  -31.2950  -21.9634   20.8249 H   0  0  0  0  0  0
  -28.9737  -15.7997   20.8449 H   0  0  0  0  0  0
  -30.5724  -24.2671   20.5094 H   0  0  0  0  0  0
  1 25  1  0  0  0
  1 30  2  0  0  0
  1 82  1  0  0  0
  2  3  1  0  0  0
  2 25  1  0  0  0
  2 84  1  0  0  0
  2 85  1  0  0  0
  3  4  1  0  0  0
  3 86  1  0  0  0
  3 87  1  0  0  0
  4  5  1  0  0  0
  4 88  1  0  0  0
  4 89  1  0  0  0
  5  6  1  0  0  0
  5 26  1  0  0  0
  5 90  1  0  0  0
  6 25  1  0  0  0
  6 91  1  0  0  0
  6 92  1  0  0  0
  7  8  2  0  0  0
  7 26  1  0  0  0
  7 29  1  0  0  0
  8  9  1  0  0  0
  8 22  1  0  0  0
  9 10  1  0  0  0
  9 27  2  0  0  0
 10 11  2  0  0  0
 10 15  1  0  0  0
 11 12  1  0  0  0
 11 93  1  0  0  0
 12 13  2  0  0  0
 12 94  1  0  0  0
 13 14  1  0  0  0
 13 31  1  0  0  0
 14 15  2  0  0  0
 14 95  1  0  0  0
 15 96  1  0  0  0
 16 17  2  0  0  0
 16 21  1  0  0  0
 16 31  1  0  0  0
 17 18  1  0  0  0
 17 97  1  0  0  0
 18 19  2  0  0  0
 18 98  1  0  0  0
 19 20  1  0  0  0
 19 24  1  0  0  0
 20 21  2  0  0  0
 20 99  1  0  0  0
 21 23  1  0  0  0
 22 28  1  0  0  0
 22 32  2  0  0  0
 26 27  1  0  0  0
 28100  1  0  0  0
 28101  1  0  0  0
 29102  1  0  0  0
 29103  1  0  0  0
 33 34  1  0  0  0
 33 66  1  0  0  0
 33 70  2  0  0  0
 34 36  1  0  0  0
 34 59  1  0  0  0
 34104  1  0  0  0
 35 44  2  0  0  0
 35 45  1  0  0  0
 35 68  1  0  0  0
 36 56  1  0  0  0
 36105  1  0  0  0
 37 39  1  0  0  0
 37 47  1  0  0  0
 37 66  1  0  0  0
 37106  1  0  0  0
 38 43  2  0  0  0
 38 46  1  0  0  0
 38 47  1  0  0  0
 39 64  1  0  0  0
 39 67  2  0  0  0
 40 52  1  0  0  0
 40 53  2  0  0  0
 40 58  1  0  0  0
 41107  1  0  0  0
 41108  1  0  0  0
 41109  1  0  0  0
 41 48  1  0  0  0
 42 43  1  0  0  0
 42 66  1  0  0  0
 42110  1  0  0  0
 42111  1  0  0  0
 43 44  1  0  0  0
 44112  1  0  0  0
 45 46  2  0  0  0
 45113  1  0  0  0
 46114  1  0  0  0
 47115  1  0  0  0
 47116  1  0  0  0
 48 56  1  0  0  0
 48 65  1  0  0  0
 48117  1  0  0  0
 49 50  1  0  0  0
 49 53  1  0  0  0
 49 64  1  0  0  0
 49118  1  0  0  0
 50 51  1  0  0  0
 50119  1  0  0  0
 50120  1  0  0  0
 51 52  1  0  0  0
 51121  1  0  0  0
 51122  1  0  0  0
 52123  1  0  0  0
 52124  1  0  0  0
 53 54  1  0  0  0
 54 55  2  0  0  0
 54125  1  0  0  0
 55 57  1  0  0  0
 55126  1  0  0  0
 56 69  2  0  0  0
 57 58  2  0  0  0
 57127  1  0  0  0
 58128  1  0  0  0
 59 60  1  0  0  0
 59 61  1  0  0  0
 59 62  1  0  0  0
 60129  1  0  0  0
 60130  1  0  0  0
 60131  1  0  0  0
 61132  1  0  0  0
 61133  1  0  0  0
 61134  1  0  0  0
 62135  1  0  0  0
 62136  1  0  0  0
 62137  1  0  0  0
 63 65  1  0  0  0
 63138  1  0  0  0
 63139  1  0  0  0
 63140  1  0  0  0
 64141  1  0  0  0
 65142  1  0  0  0
 68 77  1  0  0  0
 71 72  2  0  0  0
 71 79  1  0  0  0
 71143  1  0  0  0
 72 73  1  0  0  0
 72 81  1  0  0  0
 73 75  1  0  0  0
 73 80  2  0  0  0
 74 79  2  0  0  0
 74 80  1  0  0  0
 74 82  1  0  0  0
 75 76  1  0  0  0
 75144  1  0  0  0
 75145  1  0  0  0
 76 78  1  0  0  0
 76146  1  0  0  0
 76147  1  0  0  0
 77 78  1  0  0  0
 77148  1  0  0  0
 77149  1  0  0  0
 78 83  1  0  0  0
 78150  1  0  0  0
 81151  1  0  0  0
 81152  1  0  0  0
 82153  1  0  0  0
 83154  1  0  0  0
M  ISO  4   1 100  68 101  77 101  82 100
M  END
> <chiral flag>
0

> <version>
0

> <s_m_source_file>
/data/baiqing/PycharmProjects/Reinvent-master-3.2/result/LINK_invent/BTK/process_docking_weight1_custom_product_contain_oxygen_bond_distance_aromatic_linkinvent_7_9_3/rearranged_h_0196.sdf

> <i_m_source_file_index>
79

> <r_mmod_Potential_Energy-OPLS-2005>
-180.85188293457

> <r_mmod_Stretch_Energy-OPLS-2005>
126.910140991211

> <r_mmod_Bend_Energy-OPLS-2005>
185.512145996094

> <r_mmod_Torsional_Energy-OPLS-2005>
223.430725097656

> <r_mmod_Improper_Torsional_Energy-OPLS-2005>
7.73421335220337

> <r_mmod_Van_der_Waal_Energy-OPLS-2005>
155.693344116211

> <r_mmod_Electrostatic_Energy-OPLS-2005>
-703.678039550781

> <r_mmod_Solvation_Energy-OPLS-2005>
-262.507781982422

> <b_mmod_Minimization_Converged-OPLS-2005>
0

> <r_mmod_RMS_Derivative-OPLS-2005>
1.55484759807587

$$$$
79
                    3D
 Structure written by MMmdl.
157165  0  0  1  0            999 V2000
  -30.6881  -14.5394   20.5824 C   0  0  0  0  0  0
  -30.4355  -12.3551   19.4342 C   0  0  0  0  0  0
  -29.5009  -12.5095   18.2143 C   0  0  0  0  0  0
  -28.0245  -12.3564   18.6290 C   0  0  0  0  0  0
  -27.6617  -13.2086   19.8734 C   0  0  2  0  0  0
  -28.7039  -13.0161   20.9966 C   0  0  0  0  0  0
  -25.2599  -13.8149   20.5682 C   0  0  0  0  0  0
  -24.1853  -13.0431   20.9174 C   0  0  0  0  0  0
  -24.6408  -11.6893   20.8742 C   0  0  0  0  0  0
  -23.9072  -10.4285   21.0404 C   0  0  0  0  0  0
  -24.3615   -9.4205   21.9189 C   0  0  0  0  0  0
  -23.6281   -8.2248   22.0759 C   0  0  0  0  0  0
  -22.4263   -8.0285   21.3541 C   0  0  0  0  0  0
  -21.9910   -9.0260   20.4648 C   0  0  0  0  0  0
  -22.7245  -10.2139   20.3055 C   0  0  0  0  0  0
  -21.6852   -6.0740   22.5271 C   0  0  0  0  0  0
  -21.4004   -6.5644   23.8200 C   0  0  0  0  0  0
  -21.3647   -5.6799   24.9162 C   0  0  0  0  0  0
  -21.6044   -4.3057   24.7225 C   0  0  0  0  0  0
  -21.8831   -3.8151   23.4346 C   0  0  0  0  0  0
  -21.9185   -4.6965   22.3397 C   0  0  0  0  0  0
  -22.7872  -13.5232   21.1822 C   0  0  0  0  0  0
  -22.1669   -4.2160   21.0972 F   0  0  0  0  0  0
  -21.5615   -3.4539   25.7735 F   0  0  0  0  0  0
  -30.0285  -13.3484   20.4466 N   0  0  0  0  0  0
  -26.3035  -12.9332   20.3368 N   0  0  0  0  0  0
  -25.9343  -11.6488   20.5779 N   0  0  0  0  0  0
  -22.0511  -12.8229   22.0372 N   0  0  0  0  0  0
  -25.4312  -15.1870   20.4094 N   0  0  0  0  0  0
  -31.7980  -14.7287   20.0771 O   0  0  0  0  0  0
  -21.6620   -6.8895   21.4238 O   0  0  0  0  0  0
  -22.3568  -14.5543   20.6677 O   0  0  0  0  0  0
  -24.6209  -31.8630   23.2070 C   0  0  0  0  0  0
  -25.9060  -32.4807   23.8408 C   0  0  1  0  0  0
  -27.2375  -27.3693   20.1172 C   0  0  0  0  0  0
  -25.5881  -33.8603   24.2333 N   0  0  0  0  0  0
  -23.4139  -30.4885   21.5476 C   0  0  2  0  0  0
  -24.8649  -28.9494   20.1191 C   0  0  0  0  0  0
  -22.7453  -29.4647   22.4957 C   0  0  0  0  0  0
  -18.0277  -28.1383   22.8492 C   0  0  0  0  0  0
  -24.1459  -36.7292   23.2631 C   0  0  0  0  0  0
  -25.9515  -30.8130   21.3698 C   0  0  0  0  0  0
  -26.0316  -29.4439   20.7156 C   0  0  0  0  0  0
  -27.2226  -28.6655   20.7027 C   0  0  0  0  0  0
  -26.0429  -26.9124   19.5097 C   0  0  0  0  0  0
  -24.8696  -27.6864   19.5110 C   0  0  0  0  0  0
  -23.6284  -29.8212   20.1654 C   0  0  0  0  0  0
  -25.4087  -36.3111   24.0342 C   0  0  1  0  0  0
  -20.5879  -28.3685   23.1279 C   0  0  2  0  0  0
  -20.6762  -26.9411   22.5392 C   0  0  0  0  0  0
  -19.5737  -26.6393   21.5198 C   0  0  0  0  0  0
  -18.1913  -26.7933   22.1611 C   0  0  0  0  0  0
  -19.1527  -28.8851   23.2881 C   0  0  0  0  0  0
  -18.9463  -30.1451   23.8893 C   0  0  0  0  0  0
  -17.6469  -30.6583   24.0567 C   0  0  0  0  0  0
  -25.9032  -34.9469   23.5149 C   0  0  0  0  0  0
  -16.5359  -29.9092   23.6337 C   0  0  0  0  0  0
  -16.7268  -28.6504   23.0367 C   0  0  0  0  0  0
  -26.4470  -31.6610   25.0756 C   0  0  0  0  0  0
  -25.3714  -31.3686   26.1489 C   0  0  0  0  0  0
  -27.0329  -30.3061   24.6160 C   0  0  0  0  0  0
  -27.6051  -32.4339   25.7516 C   0  0  0  0  0  0
  -27.5589  -37.1783   24.8455 C   0  0  0  0  0  0
  -21.4175  -29.3043   22.3688 N   0  0  0  0  0  0
  -26.4271  -37.3812   23.9441 N   0  0  0  0  0  0
  -24.6804  -31.0702   22.0988 N   0  0  0  0  0  0
  -23.4189  -28.8160   23.3004 O   0  0  0  0  0  0
  -28.3767  -26.5627   20.1602 O   0  0  0  0  0  0
  -26.5600  -34.8918   22.4718 O   0  0  0  0  0  0
  -23.5378  -32.1412   23.7412 O   0  0  0  0  0  0
  -31.6747  -18.2015   20.4211 C   0  0  0  0  0  0
  -30.3093  -18.0677   20.4386 C   0  0  0  0  0  0
  -30.5078  -20.3805   20.5150 C   0  0  0  0  0  0
  -28.3657  -22.4080   22.0565 C   0  0  0  0  0  0
  -30.0879  -15.8184   22.5657 C   0  0  0  0  0  0
  -29.5339  -16.7504   20.3198 C   0  0  0  0  0  0
  -29.3825  -24.1755   20.4956 C   0  0  0  0  0  0
  -28.1460  -25.1221   20.2888 C   0  0  0  0  0  0
  -29.0376  -22.6439   20.6934 C   0  0  1  0  0  0
  -29.6571  -19.3322   20.5017 N   0  0  0  0  0  0
  -30.2103  -21.7580   20.5673 N   0  0  0  0  0  0
  -29.9869  -15.5756   21.1232 N   0  0  0  0  0  0
  -32.1907  -19.8694   20.4686 S   0  0  0  0  0  0
  -31.4747  -12.4781   19.1233 H   0  0  0  0  0  0
  -30.3693  -11.3470   19.8468 H   0  0  0  0  0  0
  -29.7535  -11.7697   17.4532 H   0  0  0  0  0  0
  -29.6540  -13.4865   17.7536 H   0  0  0  0  0  0
  -27.8506  -11.3014   18.8431 H   0  0  0  0  0  0
  -27.3683  -12.6067   17.7948 H   0  0  0  0  0  0
  -27.6988  -14.2533   19.5658 H   0  0  0  0  0  0
  -28.6986  -11.9841   21.3509 H   0  0  0  0  0  0
  -28.4405  -13.6221   21.8618 H   0  0  0  0  0  0
  -25.2758   -9.5667   22.4758 H   0  0  0  0  0  0
  -23.9984   -7.4636   22.7484 H   0  0  0  0  0  0
  -21.0841   -8.8789   19.8951 H   0  0  0  0  0  0
  -22.3715  -10.9673   19.6164 H   0  0  0  0  0  0
  -21.2010   -7.6154   23.9713 H   0  0  0  0  0  0
  -21.1445   -6.0513   25.9058 H   0  0  0  0  0  0
  -22.0620   -2.7619   23.2827 H   0  0  0  0  0  0
  -22.4127  -11.9886   22.4755 H   0  0  0  0  0  0
  -21.1135  -13.1267   22.2583 H   0  0  0  0  0  0
  -24.6665  -15.8430   20.5267 H   0  0  0  0  0  0
  -26.2882  -15.6269   20.0993 H   0  0  0  0  0  0
  -26.7137  -32.5527   23.1176 H   0  0  0  0  0  0
  -25.0006  -33.9756   25.0468 H   0  0  0  0  0  0
  -22.7046  -31.3063   21.4024 H   0  0  0  0  0  0
  -23.3746  -35.9596   23.3284 H   0  0  0  0  0  0
  -24.3536  -36.8937   22.2050 H   0  0  0  0  0  0
  -23.7189  -37.6478   23.6659 H   0  0  0  0  0  0
  -26.0679  -31.5744   20.5979 H   0  0  0  0  0  0
  -26.8362  -30.8716   21.9925 H   0  0  0  0  0  0
  -28.1230  -29.0410   21.1698 H   0  0  0  0  0  0
  -25.9823  -25.9476   19.0322 H   0  0  0  0  0  0
  -23.9717  -27.2971   19.0514 H   0  0  0  0  0  0
  -23.7434  -30.5927   19.4029 H   0  0  0  0  0  0
  -22.7530  -29.2419   19.8696 H   0  0  0  0  0  0
  -25.1258  -36.1960   25.0829 H   0  0  0  0  0  0
  -20.9973  -28.3259   24.1400 H   0  0  0  0  0  0
  -20.5664  -26.2287   23.3582 H   0  0  0  0  0  0
  -21.6634  -26.7422   22.1208 H   0  0  0  0  0  0
  -19.6888  -25.6303   21.1231 H   0  0  0  0  0  0
  -19.6688  -27.3183   20.6711 H   0  0  0  0  0  0
  -17.4189  -26.6675   21.4011 H   0  0  0  0  0  0
  -18.0322  -26.0065   22.8999 H   0  0  0  0  0  0
  -19.7943  -30.7255   24.2279 H   0  0  0  0  0  0
  -17.5028  -31.6272   24.5161 H   0  0  0  0  0  0
  -15.5363  -30.2988   23.7673 H   0  0  0  0  0  0
  -15.8666  -28.0821   22.7100 H   0  0  0  0  0  0
  -24.5916  -30.7013   25.7809 H   0  0  0  0  0  0
  -24.8832  -32.2799   26.4949 H   0  0  0  0  0  0
  -25.8050  -30.8859   27.0252 H   0  0  0  0  0  0
  -26.2900  -29.6798   24.1208 H   0  0  0  0  0  0
  -27.4111  -29.7333   25.4635 H   0  0  0  0  0  0
  -27.8714  -30.4417   23.9325 H   0  0  0  0  0  0
  -27.2724  -33.3681   26.2056 H   0  0  0  0  0  0
  -28.3866  -32.6842   25.0329 H   0  0  0  0  0  0
  -28.0694  -31.8470   26.5453 H   0  0  0  0  0  0
  -28.2551  -38.0143   24.7640 H   0  0  0  0  0  0
  -28.1164  -36.2693   24.6131 H   0  0  0  0  0  0
  -27.2312  -37.1248   25.8853 H   0  0  0  0  0  0
  -20.9330  -29.8795   21.6936 H   0  0  0  0  0  0
  -26.0158  -38.2867   24.1537 H   0  0  0  0  0  0
  -32.4119  -17.4123   20.3508 H   0  0  0  0  0  0
  -27.4034  -22.9149   22.1210 H   0  0  0  0  0  0
  -28.9859  -22.7762   22.8761 H   0  0  0  0  0  0
  -28.1770  -21.3485   22.2337 H   0  0  0  0  0  0
  -29.5972  -16.7484   22.8554 H   0  0  0  0  0  0
  -31.1314  -15.8832   22.8777 H   0  0  0  0  0  0
  -29.6226  -15.0158   23.1387 H   0  0  0  0  0  0
  -29.5207  -16.4514   19.2692 H   0  0  0  0  0  0
  -28.4851  -16.9213   20.5663 H   0  0  0  0  0  0
  -29.9629  -24.5272   21.3506 H   0  0  0  0  0  0
  -30.0351  -24.2815   19.6280 H   0  0  0  0  0  0
  -27.4616  -24.9786   21.1269 H   0  0  0  0  0  0
  -27.6431  -24.7475   19.3978 H   0  0  0  0  0  0
  -28.3344  -22.3498   19.9113 H   0  0  0  0  0  0
  -31.0752  -22.2905   20.5284 H   0  0  0  0  0  0
  1 25  1  0  0  0
  1 30  2  0  0  0
  1 82  1  0  0  0
  2  3  1  0  0  0
  2 25  1  0  0  0
  2 84  1  0  0  0
  2 85  1  0  0  0
  3  4  1  0  0  0
  3 86  1  0  0  0
  3 87  1  0  0  0
  4  5  1  0  0  0
  4 88  1  0  0  0
  4 89  1  0  0  0
  5  6  1  0  0  0
  5 26  1  0  0  0
  5 90  1  0  0  0
  6 25  1  0  0  0
  6 91  1  0  0  0
  6 92  1  0  0  0
  7  8  2  0  0  0
  7 26  1  0  0  0
  7 29  1  0  0  0
  8  9  1  0  0  0
  8 22  1  0  0  0
  9 10  1  0  0  0
  9 27  2  0  0  0
 10 11  2  0  0  0
 10 15  1  0  0  0
 11 12  1  0  0  0
 11 93  1  0  0  0
 12 13  2  0  0  0
 12 94  1  0  0  0
 13 14  1  0  0  0
 13 31  1  0  0  0
 14 15  2  0  0  0
 14 95  1  0  0  0
 15 96  1  0  0  0
 16 17  2  0  0  0
 16 21  1  0  0  0
 16 31  1  0  0  0
 17 18  1  0  0  0
 17 97  1  0  0  0
 18 19  2  0  0  0
 18 98  1  0  0  0
 19 20  1  0  0  0
 19 24  1  0  0  0
 20 21  2  0  0  0
 20 99  1  0  0  0
 21 23  1  0  0  0
 22 28  1  0  0  0
 22 32  2  0  0  0
 26 27  1  0  0  0
 28100  1  0  0  0
 28101  1  0  0  0
 29102  1  0  0  0
 29103  1  0  0  0
 33 34  1  0  0  0
 33 66  1  0  0  0
 33 70  2  0  0  0
 34 36  1  0  0  0
 34 59  1  0  0  0
 34104  1  0  0  0
 35 44  2  0  0  0
 35 45  1  0  0  0
 35 68  1  0  0  0
 36 56  1  0  0  0
 36105  1  0  0  0
 37 39  1  0  0  0
 37 47  1  0  0  0
 37 66  1  0  0  0
 37106  1  0  0  0
 38 43  2  0  0  0
 38 46  1  0  0  0
 38 47  1  0  0  0
 39 64  1  0  0  0
 39 67  2  0  0  0
 40 52  1  0  0  0
 40 53  2  0  0  0
 40 58  1  0  0  0
 41107  1  0  0  0
 41108  1  0  0  0
 41109  1  0  0  0
 41 48  1  0  0  0
 42 43  1  0  0  0
 42 66  1  0  0  0
 42110  1  0  0  0
 42111  1  0  0  0
 43 44  1  0  0  0
 44112  1  0  0  0
 45 46  2  0  0  0
 45113  1  0  0  0
 46114  1  0  0  0
 47115  1  0  0  0
 47116  1  0  0  0
 48 56  1  0  0  0
 48 65  1  0  0  0
 48117  1  0  0  0
 49 50  1  0  0  0
 49 53  1  0  0  0
 49 64  1  0  0  0
 49118  1  0  0  0
 50 51  1  0  0  0
 50119  1  0  0  0
 50120  1  0  0  0
 51 52  1  0  0  0
 51121  1  0  0  0
 51122  1  0  0  0
 52123  1  0  0  0
 52124  1  0  0  0
 53 54  1  0  0  0
 54 55  2  0  0  0
 54125  1  0  0  0
 55 57  1  0  0  0
 55126  1  0  0  0
 56 69  2  0  0  0
 57 58  2  0  0  0
 57127  1  0  0  0
 58128  1  0  0  0
 59 60  1  0  0  0
 59 61  1  0  0  0
 59 62  1  0  0  0
 60129  1  0  0  0
 60130  1  0  0  0
 60131  1  0  0  0
 61132  1  0  0  0
 61133  1  0  0  0
 61134  1  0  0  0
 62135  1  0  0  0
 62136  1  0  0  0
 62137  1  0  0  0
 63 65  1  0  0  0
 63138  1  0  0  0
 63139  1  0  0  0
 63140  1  0  0  0
 64141  1  0  0  0
 65142  1  0  0  0
 68 78  1  0  0  0
 71 72  2  0  0  0
 71 83  1  0  0  0
 71143  1  0  0  0
 72 76  1  0  0  0
 72 80  1  0  0  0
 73 80  2  0  0  0
 73 81  1  0  0  0
 73 83  1  0  0  0
 74144  1  0  0  0
 74145  1  0  0  0
 74146  1  0  0  0
 74 79  1  0  0  0
 75 82  1  0  0  0
 75147  1  0  0  0
 75148  1  0  0  0
 75149  1  0  0  0
 76 82  1  0  0  0
 76150  1  0  0  0
 76151  1  0  0  0
 77 78  1  0  0  0
 77 79  1  0  0  0
 77152  1  0  0  0
 77153  1  0  0  0
 78154  1  0  0  0
 78155  1  0  0  0
 79 81  1  0  0  0
 79156  1  0  0  0
 81157  1  0  0  0
M  ISO  4   1 100  68 101  78 101  82 100
M  END
> <chiral flag>
0

> <version>
0

> <s_m_source_file>
/data/baiqing/PycharmProjects/Reinvent-master-3.2/result/LINK_invent/BTK/process_docking_weight1_custom_product_contain_oxygen_bond_distance_aromatic_linkinvent_7_9_3/rearranged_h_0196.sdf

> <i_m_source_file_index>
80

> <r_mmod_Potential_Energy-OPLS-2005>
-24.5891437530518

> <r_mmod_Stretch_Energy-OPLS-2005>
54.7703094482422

> <r_mmod_Bend_Energy-OPLS-2005>
113.249008178711

> <r_mmod_Torsional_Energy-OPLS-2005>
266.913787841797

> <r_mmod_Improper_Torsional_Energy-OPLS-2005>
5.66092824935913

> <r_mmod_Van_der_Waal_Energy-OPLS-2005>
120.734519958496

> <r_mmod_Electrostatic_Energy-OPLS-2005>
-402.857513427734

> <r_mmod_Solvation_Energy-OPLS-2005>
-207.881057739258

> <b_mmod_Minimization_Converged-OPLS-2005>
0

> <r_mmod_RMS_Derivative-OPLS-2005>
2.58013439178467

$$$$
80
                    3D
 Structure written by MMmdl.
150158  0  0  1  0            999 V2000
  -30.6025  -14.8147   20.4364 C   0  0  0  0  0  0
  -30.4192  -12.5001   19.4991 C   0  0  0  0  0  0
  -29.5132  -12.5320   18.2469 C   0  0  0  0  0  0
  -28.0489  -12.3018   18.6624 C   0  0  0  0  0  0
  -27.6254  -13.2398   19.8252 C   0  0  2  0  0  0
  -28.6584  -13.2582   20.9764 C   0  0  0  0  0  0
  -25.2447  -13.8214   20.5682 C   0  0  0  0  0  0
  -24.1761  -13.0420   20.9228 C   0  0  0  0  0  0
  -24.6369  -11.6912   20.8703 C   0  0  0  0  0  0
  -23.9054  -10.4279   21.0379 C   0  0  0  0  0  0
  -24.3611   -9.4204   21.9167 C   0  0  0  0  0  0
  -23.6286   -8.2232   22.0741 C   0  0  0  0  0  0
  -22.4278   -8.0259   21.3526 C   0  0  0  0  0  0
  -21.9910   -9.0228   20.4636 C   0  0  0  0  0  0
  -22.7225  -10.2115   20.3034 C   0  0  0  0  0  0
  -21.6859   -6.0733   22.5279 C   0  0  0  0  0  0
  -21.4015   -6.5641   23.8211 C   0  0  0  0  0  0
  -21.3661   -5.6789   24.9175 C   0  0  0  0  0  0
  -21.6056   -4.3057   24.7229 C   0  0  0  0  0  0
  -21.8810   -3.8152   23.4355 C   0  0  0  0  0  0
  -21.9194   -4.6960   22.3412 C   0  0  0  0  0  0
  -22.7794  -13.5185   21.1925 C   0  0  0  0  0  0
  -22.1652   -4.2145   21.0989 F   0  0  0  0  0  0
  -21.5628   -3.4540   25.7751 F   0  0  0  0  0  0
  -29.9717  -13.5886   20.4066 N   0  0  0  0  0  0
  -26.2836  -12.9427   20.3132 N   0  0  0  0  0  0
  -25.9289  -11.6547   20.5643 N   0  0  0  0  0  0
  -22.0505  -12.8099   22.0492 N   0  0  0  0  0  0
  -25.4160  -15.1931   20.4151 N   0  0  0  0  0  0
  -31.7726  -14.9020   20.0552 O   0  0  0  0  0  0
  -21.6635   -6.8872   21.4245 O   0  0  0  0  0  0
  -22.3452  -14.5494   20.6828 O   0  0  0  0  0  0
  -24.6342  -31.8518   23.1986 C   0  0  0  0  0  0
  -25.9172  -32.4718   23.8311 C   0  0  1  0  0  0
  -27.2086  -27.2392   20.1190 C   0  0  0  0  0  0
  -25.5964  -33.8530   24.2241 N   0  0  0  0  0  0
  -23.4300  -30.4802   21.5388 C   0  0  2  0  0  0
  -24.8676  -28.9185   20.1094 C   0  0  0  0  0  0
  -22.7508  -29.4623   22.4882 C   0  0  0  0  0  0
  -18.0316  -28.1362   22.8463 C   0  0  0  0  0  0
  -24.1501  -36.7295   23.2647 C   0  0  0  0  0  0
  -25.9754  -30.7545   21.3814 C   0  0  0  0  0  0
  -26.0422  -29.3782   20.7198 C   0  0  0  0  0  0
  -27.2073  -28.5485   20.7169 C   0  0  0  0  0  0
  -26.0055  -26.8481   19.4870 C   0  0  0  0  0  0
  -24.8567  -27.6634   19.4858 C   0  0  0  0  0  0
  -23.6436  -29.8123   20.1554 C   0  0  0  0  0  0
  -25.4130  -36.3063   24.0333 C   0  0  1  0  0  0
  -20.5918  -28.3720   23.1276 C   0  0  2  0  0  0
  -20.6815  -26.9416   22.5443 C   0  0  0  0  0  0
  -19.5831  -26.6398   21.5204 C   0  0  0  0  0  0
  -18.1988  -26.7908   22.1577 C   0  0  0  0  0  0
  -19.1556  -28.8848   23.2867 C   0  0  0  0  0  0
  -18.9431  -30.1447   23.8915 C   0  0  0  0  0  0
  -17.6423  -30.6539   24.0558 C   0  0  0  0  0  0
  -25.9067  -34.9422   23.5079 C   0  0  0  0  0  0
  -16.5333  -29.9032   23.6284 C   0  0  0  0  0  0
  -16.7307  -28.6442   23.0321 C   0  0  0  0  0  0
  -26.4524  -31.6561   25.0731 C   0  0  0  0  0  0
  -25.3746  -31.3727   26.1458 C   0  0  0  0  0  0
  -27.0379  -30.2974   24.6254 C   0  0  0  0  0  0
  -27.6062  -32.4299   25.7515 C   0  0  0  0  0  0
  -27.5589  -37.1814   24.8474 C   0  0  0  0  0  0
  -21.4217  -29.3079   22.3649 N   0  0  0  0  0  0
  -26.4316  -37.3768   23.9388 N   0  0  0  0  0  0
  -24.6996  -31.0479   22.0945 N   0  0  0  0  0  0
  -23.4164  -28.8173   23.3019 O   0  0  0  0  0  0
  -28.3280  -26.3747   20.1931 O   0  0  0  0  0  0
  -26.5652  -34.8910   22.4652 O   0  0  0  0  0  0
  -23.5488  -32.1345   23.7284 O   0  0  0  0  0  0
  -29.9519  -18.8384   22.1535 C   0  0  0  0  0  0
  -29.7466  -20.0902   22.7562 C   0  0  0  0  0  0
  -29.7383  -18.7296   20.7770 C   0  0  0  0  0  0
  -29.1676  -21.0667   20.7638 C   0  0  0  0  0  0
  -30.0749  -17.3567   20.0356 C   0  0  0  0  0  0
  -28.5439  -23.6688   20.6798 C   0  0  0  0  0  0
  -28.3599  -24.9490   19.6968 C   0  0  0  0  0  0
  -29.3591  -21.1855   22.0646 N   0  0  0  0  0  0
  -29.3386  -19.8837   20.0970 N   0  0  0  0  0  0
  -28.8100  -22.2851   20.0895 N   0  0  0  0  0  0
  -29.8518  -15.9652   20.6527 N   0  0  0  0  0  0
  -31.4663  -12.6007   19.2111 H   0  0  0  0  0  0
  -30.3405  -11.5424   20.0122 H   0  0  0  0  0  0
  -29.8284  -11.7782   17.5261 H   0  0  0  0  0  0
  -29.6026  -13.4972   17.7454 H   0  0  0  0  0  0
  -27.9539  -11.2624   18.9723 H   0  0  0  0  0  0
  -27.3841  -12.4194   17.8059 H   0  0  0  0  0  0
  -27.5873  -14.2374   19.3847 H   0  0  0  0  0  0
  -28.6976  -12.2998   21.4945 H   0  0  0  0  0  0
  -28.3661  -14.0057   21.7176 H   0  0  0  0  0  0
  -25.2773   -9.5672   22.4716 H   0  0  0  0  0  0
  -24.0012   -7.4631   22.7453 H   0  0  0  0  0  0
  -21.0836   -8.8731   19.8950 H   0  0  0  0  0  0
  -22.3683  -10.9629   19.6115 H   0  0  0  0  0  0
  -21.2003   -7.6146   23.9710 H   0  0  0  0  0  0
  -21.1496   -6.0529   25.9076 H   0  0  0  0  0  0
  -22.0603   -2.7612   23.2857 H   0  0  0  0  0  0
  -22.4158  -11.9663   22.4662 H   0  0  0  0  0  0
  -21.1167  -13.1082   22.2907 H   0  0  0  0  0  0
  -24.6447  -15.8456   20.5113 H   0  0  0  0  0  0
  -26.2495  -15.6310   20.0429 H   0  0  0  0  0  0
  -26.7249  -32.5327   23.1045 H   0  0  0  0  0  0
  -25.0067  -33.9655   25.0364 H   0  0  0  0  0  0
  -22.7306  -31.3059   21.3953 H   0  0  0  0  0  0
  -23.3750  -35.9639   23.3304 H   0  0  0  0  0  0
  -24.3627  -36.8921   22.2068 H   0  0  0  0  0  0
  -23.7265  -37.6508   23.6660 H   0  0  0  0  0  0
  -26.1264  -31.5157   20.6158 H   0  0  0  0  0  0
  -26.8506  -30.7932   22.0187 H   0  0  0  0  0  0
  -28.1055  -28.8883   21.2115 H   0  0  0  0  0  0
  -25.8936  -25.8921   19.0015 H   0  0  0  0  0  0
  -23.9557  -27.3005   19.0074 H   0  0  0  0  0  0
  -23.7732  -30.5870   19.3991 H   0  0  0  0  0  0
  -22.7551  -29.2533   19.8514 H   0  0  0  0  0  0
  -25.1300  -36.1929   25.0838 H   0  0  0  0  0  0
  -21.0040  -28.3359   24.1391 H   0  0  0  0  0  0
  -20.5671  -26.2300   23.3629 H   0  0  0  0  0  0
  -21.6714  -26.7467   22.1299 H   0  0  0  0  0  0
  -19.7060  -25.6321   21.1224 H   0  0  0  0  0  0
  -19.6785  -27.3207   20.6735 H   0  0  0  0  0  0
  -17.4286  -26.6673   21.3949 H   0  0  0  0  0  0
  -18.0352  -26.0021   22.8950 H   0  0  0  0  0  0
  -19.7909  -30.7269   24.2301 H   0  0  0  0  0  0
  -17.4973  -31.6226   24.5162 H   0  0  0  0  0  0
  -15.5343  -30.2918   23.7618 H   0  0  0  0  0  0
  -15.8715  -28.0775   22.7009 H   0  0  0  0  0  0
  -24.5903  -30.7094   25.7792 H   0  0  0  0  0  0
  -24.8965  -32.2902   26.4890 H   0  0  0  0  0  0
  -25.8073  -30.8895   27.0227 H   0  0  0  0  0  0
  -26.2977  -29.6719   24.1247 H   0  0  0  0  0  0
  -27.4017  -29.7246   25.4788 H   0  0  0  0  0  0
  -27.8866  -30.4246   23.9531 H   0  0  0  0  0  0
  -27.2654  -33.3581   26.2120 H   0  0  0  0  0  0
  -28.3869  -32.6899   25.0348 H   0  0  0  0  0  0
  -28.0738  -31.8411   26.5423 H   0  0  0  0  0  0
  -28.2600  -38.0109   24.7470 H   0  0  0  0  0  0
  -28.1076  -36.2627   24.6323 H   0  0  0  0  0  0
  -27.2312  -37.1505   25.8886 H   0  0  0  0  0  0
  -20.9402  -29.8754   21.6824 H   0  0  0  0  0  0
  -26.0186  -38.2848   24.1349 H   0  0  0  0  0  0
  -30.3036  -17.9989   22.7371 H   0  0  0  0  0  0
  -29.9156  -20.2195   23.8163 H   0  0  0  0  0  0
  -29.5255  -17.3662   19.0933 H   0  0  0  0  0  0
  -31.1258  -17.4370   19.7488 H   0  0  0  0  0  0
  -29.3631  -23.8916   21.3594 H   0  0  0  0  0  0
  -27.6511  -23.6002   21.3035 H   0  0  0  0  0  0
  -29.2344  -24.9287   19.0464 H   0  0  0  0  0  0
  -27.5477  -24.7412   19.0085 H   0  0  0  0  0  0
  -28.6810  -22.1973   19.0883 H   0  0  0  0  0  0
  -28.9344  -15.8273   21.0430 H   0  0  0  0  0  0
  1 25  1  0  0  0
  1 30  2  0  0  0
  1 81  1  0  0  0
  2  3  1  0  0  0
  2 25  1  0  0  0
  2 82  1  0  0  0
  2 83  1  0  0  0
  3  4  1  0  0  0
  3 84  1  0  0  0
  3 85  1  0  0  0
  4  5  1  0  0  0
  4 86  1  0  0  0
  4 87  1  0  0  0
  5  6  1  0  0  0
  5 26  1  0  0  0
  5 88  1  0  0  0
  6 25  1  0  0  0
  6 89  1  0  0  0
  6 90  1  0  0  0
  7  8  2  0  0  0
  7 26  1  0  0  0
  7 29  1  0  0  0
  8  9  1  0  0  0
  8 22  1  0  0  0
  9 10  1  0  0  0
  9 27  2  0  0  0
 10 11  2  0  0  0
 10 15  1  0  0  0
 11 12  1  0  0  0
 11 91  1  0  0  0
 12 13  2  0  0  0
 12 92  1  0  0  0
 13 14  1  0  0  0
 13 31  1  0  0  0
 14 15  2  0  0  0
 14 93  1  0  0  0
 15 94  1  0  0  0
 16 17  2  0  0  0
 16 21  1  0  0  0
 16 31  1  0  0  0
 17 18  1  0  0  0
 17 95  1  0  0  0
 18 19  2  0  0  0
 18 96  1  0  0  0
 19 20  1  0  0  0
 19 24  1  0  0  0
 20 21  2  0  0  0
 20 97  1  0  0  0
 21 23  1  0  0  0
 22 28  1  0  0  0
 22 32  2  0  0  0
 26 27  1  0  0  0
 28 98  1  0  0  0
 28 99  1  0  0  0
 29100  1  0  0  0
 29101  1  0  0  0
 33 34  1  0  0  0
 33 66  1  0  0  0
 33 70  2  0  0  0
 34 36  1  0  0  0
 34 59  1  0  0  0
 34102  1  0  0  0
 35 44  2  0  0  0
 35 45  1  0  0  0
 35 68  1  0  0  0
 36 56  1  0  0  0
 36103  1  0  0  0
 37 39  1  0  0  0
 37 47  1  0  0  0
 37 66  1  0  0  0
 37104  1  0  0  0
 38 43  2  0  0  0
 38 46  1  0  0  0
 38 47  1  0  0  0
 39 64  1  0  0  0
 39 67  2  0  0  0
 40 52  1  0  0  0
 40 53  2  0  0  0
 40 58  1  0  0  0
 41105  1  0  0  0
 41106  1  0  0  0
 41107  1  0  0  0
 41 48  1  0  0  0
 42 43  1  0  0  0
 42 66  1  0  0  0
 42108  1  0  0  0
 42109  1  0  0  0
 43 44  1  0  0  0
 44110  1  0  0  0
 45 46  2  0  0  0
 45111  1  0  0  0
 46112  1  0  0  0
 47113  1  0  0  0
 47114  1  0  0  0
 48 56  1  0  0  0
 48 65  1  0  0  0
 48115  1  0  0  0
 49 50  1  0  0  0
 49 53  1  0  0  0
 49 64  1  0  0  0
 49116  1  0  0  0
 50 51  1  0  0  0
 50117  1  0  0  0
 50118  1  0  0  0
 51 52  1  0  0  0
 51119  1  0  0  0
 51120  1  0  0  0
 52121  1  0  0  0
 52122  1  0  0  0
 53 54  1  0  0  0
 54 55  2  0  0  0
 54123  1  0  0  0
 55 57  1  0  0  0
 55124  1  0  0  0
 56 69  2  0  0  0
 57 58  2  0  0  0
 57125  1  0  0  0
 58126  1  0  0  0
 59 60  1  0  0  0
 59 61  1  0  0  0
 59 62  1  0  0  0
 60127  1  0  0  0
 60128  1  0  0  0
 60129  1  0  0  0
 61130  1  0  0  0
 61131  1  0  0  0
 61132  1  0  0  0
 62133  1  0  0  0
 62134  1  0  0  0
 62135  1  0  0  0
 63 65  1  0  0  0
 63136  1  0  0  0
 63137  1  0  0  0
 63138  1  0  0  0
 64139  1  0  0  0
 65140  1  0  0  0
 68 77  1  0  0  0
 71 72  2  0  0  0
 71 73  1  0  0  0
 71141  1  0  0  0
 72 78  1  0  0  0
 72142  1  0  0  0
 73 75  1  0  0  0
 73 79  2  0  0  0
 74 78  2  0  0  0
 74 79  1  0  0  0
 74 80  1  0  0  0
 75 81  1  0  0  0
 75143  1  0  0  0
 75144  1  0  0  0
 76 77  1  0  0  0
 76 80  1  0  0  0
 76145  1  0  0  0
 76146  1  0  0  0
 77147  1  0  0  0
 77148  1  0  0  0
 80149  1  0  0  0
 81150  1  0  0  0
M  ISO  4   1 100  68 101  77 101  81 100
M  END
> <chiral flag>
0

> <version>
0

> <s_m_source_file>
/data/baiqing/PycharmProjects/Reinvent-master-3.2/result/LINK_invent/BTK/process_docking_weight1_custom_product_contain_oxygen_bond_distance_aromatic_linkinvent_7_9_3/rearranged_h_0196.sdf

> <i_m_source_file_index>
81

> <r_mmod_Potential_Energy-OPLS-2005>
-559.912902832031

> <r_mmod_Stretch_Energy-OPLS-2005>
124.226570129395

> <r_mmod_Bend_Energy-OPLS-2005>
184.921432495117

> <r_mmod_Torsional_Energy-OPLS-2005>
191.717437744141

> <r_mmod_Improper_Torsional_Energy-OPLS-2005>
7.0594744682312

> <r_mmod_Van_der_Waal_Energy-OPLS-2005>
147.724761962891

> <r_mmod_Electrostatic_Energy-OPLS-2005>
-1069.33154296875

> <r_mmod_Solvation_Energy-OPLS-2005>
-257.717864990234

> <b_mmod_Minimization_Converged-OPLS-2005>
0

> <r_mmod_RMS_Derivative-OPLS-2005>
6.18890810012817

$$$$
81
                    3D
 Structure written by MMmdl.
152160  0  0  1  0            999 V2000
  -30.6712  -14.5388   20.5146 C   0  0  0  0  0  0
  -30.4183  -12.3283   19.4483 C   0  0  0  0  0  0
  -29.4973  -12.4891   18.2200 C   0  0  0  0  0  0
  -28.0188  -12.3417   18.6322 C   0  0  0  0  0  0
  -27.6519  -13.2106   19.8657 C   0  0  2  0  0  0
  -28.6935  -13.0465   20.9963 C   0  0  0  0  0  0
  -25.2549  -13.8183   20.5681 C   0  0  0  0  0  0
  -24.1810  -13.0443   20.9193 C   0  0  0  0  0  0
  -24.6370  -11.6918   20.8738 C   0  0  0  0  0  0
  -23.9044  -10.4293   21.0404 C   0  0  0  0  0  0
  -24.3604   -9.4203   21.9175 C   0  0  0  0  0  0
  -23.6282   -8.2240   22.0744 C   0  0  0  0  0  0
  -22.4262   -8.0271   21.3542 C   0  0  0  0  0  0
  -21.9893   -9.0242   20.4644 C   0  0  0  0  0  0
  -22.7222  -10.2122   20.3050 C   0  0  0  0  0  0
  -21.6847   -6.0720   22.5279 C   0  0  0  0  0  0
  -21.4019   -6.5631   23.8210 C   0  0  0  0  0  0
  -21.3662   -5.6789   24.9177 C   0  0  0  0  0  0
  -21.6041   -4.3048   24.7231 C   0  0  0  0  0  0
  -21.8828   -3.8134   23.4355 C   0  0  0  0  0  0
  -21.9197   -4.6949   22.3408 C   0  0  0  0  0  0
  -22.7835  -13.5230   21.1865 C   0  0  0  0  0  0
  -22.1659   -4.2130   21.0985 F   0  0  0  0  0  0
  -21.5632   -3.4538   25.7750 F   0  0  0  0  0  0
  -30.0156  -13.3482   20.4322 N   0  0  0  0  0  0
  -26.2961  -12.9343   20.3343 N   0  0  0  0  0  0
  -25.9291  -11.6498   20.5768 N   0  0  0  0  0  0
  -22.0490  -12.8198   22.0426 N   0  0  0  0  0  0
  -25.4270  -15.1902   20.4091 N   0  0  0  0  0  0
  -31.8343  -14.6711   20.1241 O   0  0  0  0  0  0
  -21.6639   -6.8858   21.4236 O   0  0  0  0  0  0
  -22.3513  -14.5539   20.6719 O   0  0  0  0  0  0
  -24.6169  -31.8639   23.2060 C   0  0  0  0  0  0
  -25.9053  -32.4789   23.8371 C   0  0  1  0  0  0
  -27.2338  -27.3787   20.1046 C   0  0  0  0  0  0
  -25.5894  -33.8592   24.2301 N   0  0  0  0  0  0
  -23.4083  -30.4867   21.5453 C   0  0  2  0  0  0
  -24.8570  -28.9444   20.1084 C   0  0  0  0  0  0
  -22.7411  -29.4654   22.4943 C   0  0  0  0  0  0
  -18.0277  -28.1382   22.8503 C   0  0  0  0  0  0
  -24.1487  -36.7306   23.2641 C   0  0  0  0  0  0
  -25.9422  -30.8092   21.3710 C   0  0  0  0  0  0
  -26.0172  -29.4407   20.7139 C   0  0  0  0  0  0
  -27.2036  -28.6640   20.7094 C   0  0  0  0  0  0
  -26.0510  -26.9093   19.4882 C   0  0  0  0  0  0
  -24.8731  -27.6829   19.4889 C   0  0  0  0  0  0
  -23.6195  -29.8158   20.1599 C   0  0  0  0  0  0
  -25.4110  -36.3098   24.0332 C   0  0  1  0  0  0
  -20.5865  -28.3699   23.1296 C   0  0  2  0  0  0
  -20.6769  -26.9416   22.5458 C   0  0  0  0  0  0
  -19.5745  -26.6353   21.5279 C   0  0  0  0  0  0
  -18.1919  -26.7913   22.1673 C   0  0  0  0  0  0
  -19.1525  -28.8868   23.2881 C   0  0  0  0  0  0
  -18.9443  -30.1474   23.8882 C   0  0  0  0  0  0
  -17.6438  -30.6600   24.0547 C   0  0  0  0  0  0
  -25.9043  -34.9461   23.5119 C   0  0  0  0  0  0
  -16.5336  -29.9088   23.6332 C   0  0  0  0  0  0
  -16.7266  -28.6494   23.0369 C   0  0  0  0  0  0
  -26.4471  -31.6597   25.0723 C   0  0  0  0  0  0
  -25.3720  -31.3718   26.1460 C   0  0  0  0  0  0
  -27.0313  -30.3026   24.6163 C   0  0  0  0  0  0
  -27.6041  -32.4327   25.7474 C   0  0  0  0  0  0
  -27.5580  -37.1810   24.8463 C   0  0  0  0  0  0
  -21.4134  -29.3045   22.3670 N   0  0  0  0  0  0
  -26.4299  -37.3781   23.9396 N   0  0  0  0  0  0
  -24.6733  -31.0696   22.0980 N   0  0  0  0  0  0
  -23.4162  -28.8217   23.3019 O   0  0  0  0  0  0
  -28.4027  -26.6281   20.1659 O   0  0  0  0  0  0
  -26.5611  -34.8915   22.4686 O   0  0  0  0  0  0
  -23.5347  -32.1422   23.7427 O   0  0  0  0  0  0
  -28.3063  -18.2211   21.5655 C   0  0  0  0  0  0
  -29.4662  -18.1899   20.8284 C   0  0  0  0  0  0
  -28.9551  -20.4533   20.7042 C   0  0  0  0  0  0
  -30.4024  -17.0112   20.5533 C   0  0  0  0  0  0
  -28.7286  -23.0848   21.0438 C   0  0  0  0  0  0
  -28.5191  -25.3266   19.5277 C   0  0  0  0  0  0
  -27.8391  -24.0810   20.2139 C   0  0  1  0  0  0
  -29.7918  -19.4739   20.3234 N   0  0  0  0  0  0
  -29.1098  -21.8133   20.3708 N   0  0  0  0  0  0
  -29.9286  -15.6302   20.8206 N   0  0  0  0  0  0
  -27.2618  -23.2406   19.2380 O   0  0  0  0  0  0
  -27.6474  -19.8424   21.7122 S   0  0  0  0  0  0
  -31.4653  -12.4165   19.1526 H   0  0  0  0  0  0
  -30.3118  -11.3317   19.8808 H   0  0  0  0  0  0
  -29.7486  -11.7495   17.4589 H   0  0  0  0  0  0
  -29.6586  -13.4666   17.7619 H   0  0  0  0  0  0
  -27.8461  -11.2887   18.8591 H   0  0  0  0  0  0
  -27.3655  -12.5790   17.7915 H   0  0  0  0  0  0
  -27.6792  -14.2476   19.5321 H   0  0  0  0  0  0
  -28.6803  -12.0270   21.3857 H   0  0  0  0  0  0
  -28.4592  -13.6940   21.8424 H   0  0  0  0  0  0
  -25.2752   -9.5684   22.4738 H   0  0  0  0  0  0
  -23.9993   -7.4639   22.7459 H   0  0  0  0  0  0
  -21.0827   -8.8760   19.8954 H   0  0  0  0  0  0
  -22.3677  -10.9652   19.6157 H   0  0  0  0  0  0
  -21.2009   -7.6138   23.9712 H   0  0  0  0  0  0
  -21.1476   -6.0517   25.9082 H   0  0  0  0  0  0
  -22.0604   -2.7591   23.2872 H   0  0  0  0  0  0
  -22.4101  -11.9845   22.4779 H   0  0  0  0  0  0
  -21.1120  -13.1224   22.2677 H   0  0  0  0  0  0
  -24.6553  -15.8418   20.4992 H   0  0  0  0  0  0
  -26.2719  -15.6261   20.0627 H   0  0  0  0  0  0
  -26.7108  -32.5490   23.1116 H   0  0  0  0  0  0
  -25.0023  -33.9753   25.0432 H   0  0  0  0  0  0
  -22.7008  -31.3065   21.4030 H   0  0  0  0  0  0
  -23.3748  -35.9643   23.3315 H   0  0  0  0  0  0
  -24.3585  -36.8919   22.2057 H   0  0  0  0  0  0
  -23.7251  -37.6516   23.6653 H   0  0  0  0  0  0
  -26.0705  -31.5763   20.6061 H   0  0  0  0  0  0
  -26.8241  -30.8557   21.9985 H   0  0  0  0  0  0
  -28.0979  -29.0384   21.1880 H   0  0  0  0  0  0
  -26.0136  -25.9400   19.0139 H   0  0  0  0  0  0
  -23.9819  -27.2996   19.0122 H   0  0  0  0  0  0
  -23.7221  -30.5885   19.3971 H   0  0  0  0  0  0
  -22.7430  -29.2330   19.8690 H   0  0  0  0  0  0
  -25.1298  -36.1970   25.0827 H   0  0  0  0  0  0
  -20.9970  -28.3304   24.1421 H   0  0  0  0  0  0
  -20.5696  -26.2333   23.3688 H   0  0  0  0  0  0
  -21.6631  -26.7441   22.1243 H   0  0  0  0  0  0
  -19.6913  -25.6245   21.1358 H   0  0  0  0  0  0
  -19.6698  -27.3138   20.6778 H   0  0  0  0  0  0
  -17.4184  -26.6601   21.4083 H   0  0  0  0  0  0
  -18.0337  -26.0090   22.9114 H   0  0  0  0  0  0
  -19.7918  -30.7319   24.2208 H   0  0  0  0  0  0
  -17.4971  -31.6298   24.5108 H   0  0  0  0  0  0
  -15.5323  -30.2969   23.7629 H   0  0  0  0  0  0
  -15.8673  -28.0792   22.7101 H   0  0  0  0  0  0
  -24.5895  -30.7071   25.7784 H   0  0  0  0  0  0
  -24.8905  -32.2870   26.4900 H   0  0  0  0  0  0
  -25.8052  -30.8882   27.0225 H   0  0  0  0  0  0
  -26.2874  -29.6763   24.1224 H   0  0  0  0  0  0
  -27.4058  -29.7298   25.4663 H   0  0  0  0  0  0
  -27.8718  -30.4313   23.9340 H   0  0  0  0  0  0
  -27.2662  -33.3616   26.2071 H   0  0  0  0  0  0
  -28.3821  -32.6913   25.0283 H   0  0  0  0  0  0
  -28.0740  -31.8454   26.5374 H   0  0  0  0  0  0
  -28.2611  -38.0095   24.7504 H   0  0  0  0  0  0
  -28.1068  -36.2634   24.6302 H   0  0  0  0  0  0
  -27.2296  -37.1469   25.8866 H   0  0  0  0  0  0
  -20.9301  -29.8734   21.6859 H   0  0  0  0  0  0
  -26.0195  -38.2864   24.1389 H   0  0  0  0  0  0
  -27.8097  -17.4000   22.0657 H   0  0  0  0  0  0
  -31.3212  -17.1621   21.1224 H   0  0  0  0  0  0
  -30.7072  -17.0477   19.5052 H   0  0  0  0  0  0
  -28.1819  -22.8167   21.9499 H   0  0  0  0  0  0
  -29.6274  -23.5931   21.3966 H   0  0  0  0  0  0
  -28.1680  -25.4342   18.5011 H   0  0  0  0  0  0
  -29.5831  -25.1135   19.4166 H   0  0  0  0  0  0
  -27.0337  -24.4505   20.8515 H   0  0  0  0  0  0
  -29.9292  -21.9398   19.7832 H   0  0  0  0  0  0
  -28.9662  -15.4983   21.0898 H   0  0  0  0  0  0
  -27.8104  -22.4533   19.3038 H   0  0  0  0  0  0
  1 25  1  0  0  0
  1 30  2  0  0  0
  1 80  1  0  0  0
  2  3  1  0  0  0
  2 25  1  0  0  0
  2 83  1  0  0  0
  2 84  1  0  0  0
  3  4  1  0  0  0
  3 85  1  0  0  0
  3 86  1  0  0  0
  4  5  1  0  0  0
  4 87  1  0  0  0
  4 88  1  0  0  0
  5  6  1  0  0  0
  5 26  1  0  0  0
  5 89  1  0  0  0
  6 25  1  0  0  0
  6 90  1  0  0  0
  6 91  1  0  0  0
  7  8  2  0  0  0
  7 26  1  0  0  0
  7 29  1  0  0  0
  8  9  1  0  0  0
  8 22  1  0  0  0
  9 10  1  0  0  0
  9 27  2  0  0  0
 10 11  2  0  0  0
 10 15  1  0  0  0
 11 12  1  0  0  0
 11 92  1  0  0  0
 12 13  2  0  0  0
 12 93  1  0  0  0
 13 14  1  0  0  0
 13 31  1  0  0  0
 14 15  2  0  0  0
 14 94  1  0  0  0
 15 95  1  0  0  0
 16 17  2  0  0  0
 16 21  1  0  0  0
 16 31  1  0  0  0
 17 18  1  0  0  0
 17 96  1  0  0  0
 18 19  2  0  0  0
 18 97  1  0  0  0
 19 20  1  0  0  0
 19 24  1  0  0  0
 20 21  2  0  0  0
 20 98  1  0  0  0
 21 23  1  0  0  0
 22 28  1  0  0  0
 22 32  2  0  0  0
 26 27  1  0  0  0
 28 99  1  0  0  0
 28100  1  0  0  0
 29101  1  0  0  0
 29102  1  0  0  0
 33 34  1  0  0  0
 33 66  1  0  0  0
 33 70  2  0  0  0
 34 36  1  0  0  0
 34 59  1  0  0  0
 34103  1  0  0  0
 35 44  2  0  0  0
 35 45  1  0  0  0
 35 68  1  0  0  0
 36 56  1  0  0  0
 36104  1  0  0  0
 37 39  1  0  0  0
 37 47  1  0  0  0
 37 66  1  0  0  0
 37105  1  0  0  0
 38 43  2  0  0  0
 38 46  1  0  0  0
 38 47  1  0  0  0
 39 64  1  0  0  0
 39 67  2  0  0  0
 40 52  1  0  0  0
 40 53  2  0  0  0
 40 58  1  0  0  0
 41106  1  0  0  0
 41107  1  0  0  0
 41108  1  0  0  0
 41 48  1  0  0  0
 42 43  1  0  0  0
 42 66  1  0  0  0
 42109  1  0  0  0
 42110  1  0  0  0
 43 44  1  0  0  0
 44111  1  0  0  0
 45 46  2  0  0  0
 45112  1  0  0  0
 46113  1  0  0  0
 47114  1  0  0  0
 47115  1  0  0  0
 48 56  1  0  0  0
 48 65  1  0  0  0
 48116  1  0  0  0
 49 50  1  0  0  0
 49 53  1  0  0  0
 49 64  1  0  0  0
 49117  1  0  0  0
 50 51  1  0  0  0
 50118  1  0  0  0
 50119  1  0  0  0
 51 52  1  0  0  0
 51120  1  0  0  0
 51121  1  0  0  0
 52122  1  0  0  0
 52123  1  0  0  0
 53 54  1  0  0  0
 54 55  2  0  0  0
 54124  1  0  0  0
 55 57  1  0  0  0
 55125  1  0  0  0
 56 69  2  0  0  0
 57 58  2  0  0  0
 57126  1  0  0  0
 58127  1  0  0  0
 59 60  1  0  0  0
 59 61  1  0  0  0
 59 62  1  0  0  0
 60128  1  0  0  0
 60129  1  0  0  0
 60130  1  0  0  0
 61131  1  0  0  0
 61132  1  0  0  0
 61133  1  0  0  0
 62134  1  0  0  0
 62135  1  0  0  0
 62136  1  0  0  0
 63 65  1  0  0  0
 63137  1  0  0  0
 63138  1  0  0  0
 63139  1  0  0  0
 64140  1  0  0  0
 65141  1  0  0  0
 68 76  1  0  0  0
 71 72  2  0  0  0
 71 82  1  0  0  0
 71142  1  0  0  0
 72 74  1  0  0  0
 72 78  1  0  0  0
 73 78  2  0  0  0
 73 79  1  0  0  0
 73 82  1  0  0  0
 74 80  1  0  0  0
 74143  1  0  0  0
 74144  1  0  0  0
 75 77  1  0  0  0
 75 79  1  0  0  0
 75145  1  0  0  0
 75146  1  0  0  0
 76 77  1  0  0  0
 76147  1  0  0  0
 76148  1  0  0  0
 77 81  1  0  0  0
 77149  1  0  0  0
 79150  1  0  0  0
 80151  1  0  0  0
 81152  1  0  0  0
M  ISO  4   1 100  68 101  76 101  80 100
M  END
> <chiral flag>
0

> <version>
0

> <s_m_source_file>
/data/baiqing/PycharmProjects/Reinvent-master-3.2/result/LINK_invent/BTK/process_docking_weight1_custom_product_contain_oxygen_bond_distance_aromatic_linkinvent_7_9_3/rearranged_h_0196.sdf

> <i_m_source_file_index>
82

> <r_mmod_Potential_Energy-OPLS-2005>
-256.595001220703

> <r_mmod_Stretch_Energy-OPLS-2005>
48.977783203125

> <r_mmod_Bend_Energy-OPLS-2005>
123.672454833984

> <r_mmod_Torsional_Energy-OPLS-2005>
239.216522216797

> <r_mmod_Improper_Torsional_Energy-OPLS-2005>
7.51880645751953

> <r_mmod_Van_der_Waal_Energy-OPLS-2005>
133.392349243164

> <r_mmod_Electrostatic_Energy-OPLS-2005>
-595.460571289062

> <r_mmod_Solvation_Energy-OPLS-2005>
-239.425247192383

> <b_mmod_Minimization_Converged-OPLS-2005>
0

> <r_mmod_RMS_Derivative-OPLS-2005>
2.39066386222839

$$$$
82
                    3D
 Structure written by MMmdl.
159167  0  0  1  0            999 V2000
  -30.6790  -14.5139   20.5373 C   0  0  0  0  0  0
  -30.4272  -12.3212   19.4335 C   0  0  0  0  0  0
  -29.5026  -12.5091   18.2120 C   0  0  0  0  0  0
  -28.0209  -12.3704   18.6170 C   0  0  0  0  0  0
  -27.6614  -13.2110   19.8721 C   0  0  2  0  0  0
  -28.7025  -13.0078   20.9965 C   0  0  0  0  0  0
  -25.2601  -13.8166   20.5685 C   0  0  0  0  0  0
  -24.1853  -13.0443   20.9186 C   0  0  0  0  0  0
  -24.6406  -11.6907   20.8738 C   0  0  0  0  0  0
  -23.9054  -10.4298   21.0413 C   0  0  0  0  0  0
  -24.3607   -9.4214   21.9186 C   0  0  0  0  0  0
  -23.6294   -8.2239   22.0750 C   0  0  0  0  0  0
  -22.4273   -8.0271   21.3538 C   0  0  0  0  0  0
  -21.9906   -9.0247   20.4644 C   0  0  0  0  0  0
  -22.7227  -10.2134   20.3061 C   0  0  0  0  0  0
  -21.6853   -6.0742   22.5279 C   0  0  0  0  0  0
  -21.4013   -6.5646   23.8212 C   0  0  0  0  0  0
  -21.3661   -5.6798   24.9173 C   0  0  0  0  0  0
  -21.6045   -4.3061   24.7224 C   0  0  0  0  0  0
  -21.8816   -3.8152   23.4345 C   0  0  0  0  0  0
  -21.9194   -4.6971   22.3406 C   0  0  0  0  0  0
  -22.7869  -13.5246   21.1836 C   0  0  0  0  0  0
  -22.1665   -4.2154   21.0983 F   0  0  0  0  0  0
  -21.5630   -3.4541   25.7738 F   0  0  0  0  0  0
  -30.0334  -13.3151   20.4465 N   0  0  0  0  0  0
  -26.3026  -12.9338   20.3333 N   0  0  0  0  0  0
  -25.9332  -11.6498   20.5752 N   0  0  0  0  0  0
  -22.0498  -12.8250   22.0394 N   0  0  0  0  0  0
  -25.4344  -15.1882   20.4099 N   0  0  0  0  0  0
  -31.8199  -14.6792   20.0929 O   0  0  0  0  0  0
  -21.6632   -6.8870   21.4231 O   0  0  0  0  0  0
  -22.3565  -14.5556   20.6679 O   0  0  0  0  0  0
  -24.6176  -31.8656   23.2098 C   0  0  0  0  0  0
  -25.9068  -32.4805   23.8384 C   0  0  1  0  0  0
  -27.2249  -27.4084   20.1014 C   0  0  0  0  0  0
  -25.5919  -33.8603   24.2317 N   0  0  0  0  0  0
  -23.4047  -30.4934   21.5496 C   0  0  2  0  0  0
  -24.8513  -28.9590   20.1123 C   0  0  0  0  0  0
  -22.7416  -29.4667   22.4965 C   0  0  0  0  0  0
  -18.0271  -28.1397   22.8495 C   0  0  0  0  0  0
  -24.1483  -36.7298   23.2637 C   0  0  0  0  0  0
  -25.9387  -30.8248   21.3674 C   0  0  0  0  0  0
  -26.0150  -29.4585   20.7121 C   0  0  0  0  0  0
  -27.2081  -28.6943   20.6989 C   0  0  0  0  0  0
  -26.0443  -26.9366   19.4860 C   0  0  0  0  0  0
  -24.8634  -27.6988   19.4925 C   0  0  0  0  0  0
  -23.6150  -29.8290   20.1628 C   0  0  0  0  0  0
  -25.4108  -36.3101   24.0333 C   0  0  1  0  0  0
  -20.5867  -28.3683   23.1301 C   0  0  2  0  0  0
  -20.6767  -26.9417   22.5415 C   0  0  0  0  0  0
  -19.5744  -26.6404   21.5207 C   0  0  0  0  0  0
  -18.1920  -26.7949   22.1621 C   0  0  0  0  0  0
  -19.1529  -28.8857   23.2900 C   0  0  0  0  0  0
  -18.9457  -30.1462   23.8921 C   0  0  0  0  0  0
  -17.6462  -30.6607   24.0573 C   0  0  0  0  0  0
  -25.9030  -34.9465   23.5116 C   0  0  0  0  0  0
  -16.5347  -29.9110   23.6342 C   0  0  0  0  0  0
  -16.7263  -28.6526   23.0362 C   0  0  0  0  0  0
  -26.4493  -31.6603   25.0722 C   0  0  0  0  0  0
  -25.3766  -31.3716   26.1476 C   0  0  0  0  0  0
  -27.0328  -30.3042   24.6119 C   0  0  0  0  0  0
  -27.6068  -32.4321   25.7493 C   0  0  0  0  0  0
  -27.5573  -37.1809   24.8469 C   0  0  0  0  0  0
  -21.4143  -29.3043   22.3702 N   0  0  0  0  0  0
  -26.4290  -37.3789   23.9407 N   0  0  0  0  0  0
  -24.6715  -31.0759   22.0998 N   0  0  0  0  0  0
  -23.4185  -28.8208   23.3006 O   0  0  0  0  0  0
  -28.3713  -26.6324   20.1069 O   0  0  0  0  0  0
  -26.5584  -34.8924   22.4675 O   0  0  0  0  0  0
  -23.5371  -32.1414   23.7498 O   0  0  0  0  0  0
  -29.0912  -17.7833   21.4126 C   0  0  0  0  0  0
  -29.7375  -19.6249   20.1528 C   0  0  0  0  0  0
  -29.9808  -16.9253   20.7096 C   0  0  0  0  0  0
  -30.6443  -18.7811   19.4513 C   0  0  0  0  0  0
  -30.9496  -22.8486   21.9055 C   0  0  0  0  0  0
  -29.5555  -21.1160   19.7947 C   0  0  0  0  0  0
  -29.4840  -24.4083   20.4725 C   0  0  0  0  0  0
  -28.1900  -25.2645   20.5501 C   0  0  0  0  0  0
  -29.5215  -23.1361   21.3927 C   0  0  1  0  0  0
  -28.9672  -19.1153   21.1499 N   0  0  0  0  0  0
  -30.7612  -17.4594   19.7287 N   0  0  0  0  0  0
  -31.4626  -19.2298   18.4201 N   0  0  0  0  0  0
  -29.9461  -15.5291   21.0474 N   0  0  0  0  0  0
  -28.8654  -21.9031   20.8494 N   0  3  0  0  0  0
  -31.4726  -12.4164   19.1353 H   0  0  0  0  0  0
  -30.3261  -11.3133   19.8395 H   0  0  0  0  0  0
  -29.7493  -11.7817   17.4376 H   0  0  0  0  0  0
  -29.6706  -13.4935   17.7712 H   0  0  0  0  0  0
  -27.8262  -11.3138   18.8100 H   0  0  0  0  0  0
  -27.3759  -12.6506   17.7829 H   0  0  0  0  0  0
  -27.7006  -14.2567   19.5657 H   0  0  0  0  0  0
  -28.6829  -11.9761   21.3500 H   0  0  0  0  0  0
  -28.4589  -13.6183   21.8667 H   0  0  0  0  0  0
  -25.2757   -9.5700   22.4752 H   0  0  0  0  0  0
  -24.0019   -7.4633   22.7468 H   0  0  0  0  0  0
  -21.0836   -8.8760   19.8952 H   0  0  0  0  0  0
  -22.3682  -10.9668   19.6168 H   0  0  0  0  0  0
  -21.1999   -7.6151   23.9719 H   0  0  0  0  0  0
  -21.1490   -6.0526   25.9078 H   0  0  0  0  0  0
  -22.0595   -2.7609   23.2844 H   0  0  0  0  0  0
  -22.4101  -11.9922   22.4812 H   0  0  0  0  0  0
  -21.1108  -13.1270   22.2563 H   0  0  0  0  0  0
  -24.6644  -15.8415   20.5036 H   0  0  0  0  0  0
  -26.2753  -15.6168   20.0455 H   0  0  0  0  0  0
  -26.7142  -32.5517   23.1144 H   0  0  0  0  0  0
  -25.0119  -33.9762   25.0497 H   0  0  0  0  0  0
  -22.6934  -31.3117   21.4118 H   0  0  0  0  0  0
  -23.3736  -35.9638   23.3319 H   0  0  0  0  0  0
  -24.3571  -36.8891   22.2045 H   0  0  0  0  0  0
  -23.7244  -37.6511   23.6643 H   0  0  0  0  0  0
  -26.0569  -31.5914   20.6005 H   0  0  0  0  0  0
  -26.8239  -30.8742   21.9901 H   0  0  0  0  0  0
  -28.1073  -29.0761   21.1638 H   0  0  0  0  0  0
  -26.0225  -25.9826   18.9816 H   0  0  0  0  0  0
  -23.9746  -27.3109   19.0141 H   0  0  0  0  0  0
  -23.7263  -30.6052   19.4053 H   0  0  0  0  0  0
  -22.7366  -29.2536   19.8632 H   0  0  0  0  0  0
  -25.1292  -36.1952   25.0825 H   0  0  0  0  0  0
  -20.9961  -28.3264   24.1421 H   0  0  0  0  0  0
  -20.5662  -26.2293   23.3608 H   0  0  0  0  0  0
  -21.6634  -26.7467   22.1202 H   0  0  0  0  0  0
  -19.6890  -25.6313   21.1240 H   0  0  0  0  0  0
  -19.6682  -27.3214   20.6737 H   0  0  0  0  0  0
  -17.4182  -26.6696   21.4029 H   0  0  0  0  0  0
  -18.0323  -26.0097   22.9028 H   0  0  0  0  0  0
  -19.7932  -30.7270   24.2298 H   0  0  0  0  0  0
  -17.5020  -31.6288   24.5168 H   0  0  0  0  0  0
  -15.5351  -30.3021   23.7661 H   0  0  0  0  0  0
  -15.8659  -28.0850   22.7076 H   0  0  0  0  0  0
  -24.5932  -30.7060   25.7827 H   0  0  0  0  0  0
  -24.8966  -32.2877   26.4936 H   0  0  0  0  0  0
  -25.8134  -30.8887   27.0228 H   0  0  0  0  0  0
  -26.2875  -29.6790   24.1180 H   0  0  0  0  0  0
  -27.4090  -29.7294   25.4595 H   0  0  0  0  0  0
  -27.8727  -30.4338   23.9284 H   0  0  0  0  0  0
  -27.2678  -33.3605   26.2108 H   0  0  0  0  0  0
  -28.3879  -32.6902   25.0327 H   0  0  0  0  0  0
  -28.0741  -31.8416   26.5386 H   0  0  0  0  0  0
  -28.2615  -38.0084   24.7504 H   0  0  0  0  0  0
  -28.1045  -36.2618   24.6322 H   0  0  0  0  0  0
  -27.2287  -37.1497   25.8871 H   0  0  0  0  0  0
  -20.9295  -29.8780   21.6944 H   0  0  0  0  0  0
  -26.0169  -38.2859   24.1421 H   0  0  0  0  0  0
  -28.4514  -17.3936   22.1923 H   0  0  0  0  0  0
  -30.9649  -21.9996   22.5898 H   0  0  0  0  0  0
  -31.3379  -23.7061   22.4557 H   0  0  0  0  0  0
  -31.6532  -22.6491   21.0988 H   0  0  0  0  0  0
  -28.9579  -21.1706   18.8846 H   0  0  0  0  0  0
  -30.5178  -21.5535   19.5386 H   0  0  0  0  0  0
  -30.2953  -25.0668   20.7845 H   0  0  0  0  0  0
  -29.7152  -24.1508   19.4397 H   0  0  0  0  0  0
  -27.8465  -25.3102   21.5851 H   0  0  0  0  0  0
  -27.4158  -24.7430   19.9898 H   0  0  0  0  0  0
  -28.9436  -23.3869   22.2836 H   0  0  0  0  0  0
  -32.1280  -18.6080   17.9764 H   0  0  0  0  0  0
  -31.5090  -20.1960   18.1176 H   0  0  0  0  0  0
  -29.1279  -15.2383   21.5589 H   0  0  0  0  0  0
  -28.7502  -21.2386   21.6007 H   0  0  0  0  0  0
  -27.9343  -22.1108   20.5284 H   0  0  0  0  0  0
  1 25  1  0  0  0
  1 30  2  0  0  0
  1 83  1  0  0  0
  2  3  1  0  0  0
  2 25  1  0  0  0
  2 85  1  0  0  0
  2 86  1  0  0  0
  3  4  1  0  0  0
  3 87  1  0  0  0
  3 88  1  0  0  0
  4  5  1  0  0  0
  4 89  1  0  0  0
  4 90  1  0  0  0
  5  6  1  0  0  0
  5 26  1  0  0  0
  5 91  1  0  0  0
  6 25  1  0  0  0
  6 92  1  0  0  0
  6 93  1  0  0  0
  7  8  2  0  0  0
  7 26  1  0  0  0
  7 29  1  0  0  0
  8  9  1  0  0  0
  8 22  1  0  0  0
  9 10  1  0  0  0
  9 27  2  0  0  0
 10 11  2  0  0  0
 10 15  1  0  0  0
 11 12  1  0  0  0
 11 94  1  0  0  0
 12 13  2  0  0  0
 12 95  1  0  0  0
 13 14  1  0  0  0
 13 31  1  0  0  0
 14 15  2  0  0  0
 14 96  1  0  0  0
 15 97  1  0  0  0
 16 17  2  0  0  0
 16 21  1  0  0  0
 16 31  1  0  0  0
 17 18  1  0  0  0
 17 98  1  0  0  0
 18 19  2  0  0  0
 18 99  1  0  0  0
 19 20  1  0  0  0
 19 24  1  0  0  0
 20 21  2  0  0  0
 20100  1  0  0  0
 21 23  1  0  0  0
 22 28  1  0  0  0
 22 32  2  0  0  0
 26 27  1  0  0  0
 28101  1  0  0  0
 28102  1  0  0  0
 29103  1  0  0  0
 29104  1  0  0  0
 33 34  1  0  0  0
 33 66  1  0  0  0
 33 70  2  0  0  0
 34 36  1  0  0  0
 34 59  1  0  0  0
 34105  1  0  0  0
 35 44  2  0  0  0
 35 45  1  0  0  0
 35 68  1  0  0  0
 36 56  1  0  0  0
 36106  1  0  0  0
 37 39  1  0  0  0
 37 47  1  0  0  0
 37 66  1  0  0  0
 37107  1  0  0  0
 38 43  2  0  0  0
 38 46  1  0  0  0
 38 47  1  0  0  0
 39 64  1  0  0  0
 39 67  2  0  0  0
 40 52  1  0  0  0
 40 53  2  0  0  0
 40 58  1  0  0  0
 41108  1  0  0  0
 41109  1  0  0  0
 41110  1  0  0  0
 41 48  1  0  0  0
 42 43  1  0  0  0
 42 66  1  0  0  0
 42111  1  0  0  0
 42112  1  0  0  0
 43 44  1  0  0  0
 44113  1  0  0  0
 45 46  2  0  0  0
 45114  1  0  0  0
 46115  1  0  0  0
 47116  1  0  0  0
 47117  1  0  0  0
 48 56  1  0  0  0
 48 65  1  0  0  0
 48118  1  0  0  0
 49 50  1  0  0  0
 49 53  1  0  0  0
 49 64  1  0  0  0
 49119  1  0  0  0
 50 51  1  0  0  0
 50120  1  0  0  0
 50121  1  0  0  0
 51 52  1  0  0  0
 51122  1  0  0  0
 51123  1  0  0  0
 52124  1  0  0  0
 52125  1  0  0  0
 53 54  1  0  0  0
 54 55  2  0  0  0
 54126  1  0  0  0
 55 57  1  0  0  0
 55127  1  0  0  0
 56 69  2  0  0  0
 57 58  2  0  0  0
 57128  1  0  0  0
 58129  1  0  0  0
 59 60  1  0  0  0
 59 61  1  0  0  0
 59 62  1  0  0  0
 60130  1  0  0  0
 60131  1  0  0  0
 60132  1  0  0  0
 61133  1  0  0  0
 61134  1  0  0  0
 61135  1  0  0  0
 62136  1  0  0  0
 62137  1  0  0  0
 62138  1  0  0  0
 63 65  1  0  0  0
 63139  1  0  0  0
 63140  1  0  0  0
 63141  1  0  0  0
 64142  1  0  0  0
 65143  1  0  0  0
 68 78  1  0  0  0
 71 73  2  0  0  0
 71 80  1  0  0  0
 71144  1  0  0  0
 72 74  1  0  0  0
 72 76  1  0  0  0
 72 80  2  0  0  0
 73 81  1  0  0  0
 73 83  1  0  0  0
 74 81  2  0  0  0
 74 82  1  0  0  0
 75145  1  0  0  0
 75146  1  0  0  0
 75147  1  0  0  0
 75 79  1  0  0  0
 76 84  1  0  0  0
 76148  1  0  0  0
 76149  1  0  0  0
 77 78  1  0  0  0
 77 79  1  0  0  0
 77150  1  0  0  0
 77151  1  0  0  0
 78152  1  0  0  0
 78153  1  0  0  0
 79 84  1  0  0  0
 79154  1  0  0  0
 82155  1  0  0  0
 82156  1  0  0  0
 83157  1  0  0  0
 84158  1  0  0  0
 84159  1  0  0  0
M  CHG  1  84   1
M  ISO  4   1 100  68 101  78 101  83 100
M  END
> <chiral flag>
0

> <version>
0

> <s_m_source_file>
/data/baiqing/PycharmProjects/Reinvent-master-3.2/result/LINK_invent/BTK/process_docking_weight1_custom_product_contain_oxygen_bond_distance_aromatic_linkinvent_7_9_3/rearranged_h_0196.sdf

> <i_m_source_file_index>
83

> <r_mmod_Potential_Energy-OPLS-2005>
-235.55712890625

> <r_mmod_Stretch_Energy-OPLS-2005>
47.2685623168945

> <r_mmod_Bend_Energy-OPLS-2005>
119.381187438965

> <r_mmod_Torsional_Energy-OPLS-2005>
245.356307983398

> <r_mmod_Improper_Torsional_Energy-OPLS-2005>
3.8526828289032

> <r_mmod_Van_der_Waal_Energy-OPLS-2005>
158.054962158203

> <r_mmod_Electrostatic_Energy-OPLS-2005>
-329.744903564453

> <r_mmod_Solvation_Energy-OPLS-2005>
-497.600311279297

> <b_mmod_Minimization_Converged-OPLS-2005>
0

> <r_mmod_RMS_Derivative-OPLS-2005>
1.89211225509644

$$$$
83
                    3D
 Structure written by MMmdl.
155163  0  0  1  0            999 V2000
  -30.6880  -14.4249   20.6090 C   0  0  0  0  0  0
  -30.4326  -12.2909   19.4141 C   0  0  0  0  0  0
  -29.5024  -12.5291   18.2046 C   0  0  0  0  0  0
  -28.0176  -12.3937   18.6068 C   0  0  0  0  0  0
  -27.6699  -13.2019   19.8860 C   0  0  2  0  0  0
  -28.7038  -12.9237   21.0010 C   0  0  0  0  0  0
  -25.2600  -13.8150   20.5672 C   0  0  0  0  0  0
  -24.1835  -13.0427   20.9136 C   0  0  0  0  0  0
  -24.6387  -11.6891   20.8685 C   0  0  0  0  0  0
  -23.9053  -10.4273   21.0365 C   0  0  0  0  0  0
  -24.3608   -9.4204   21.9161 C   0  0  0  0  0  0
  -23.6278   -8.2250   22.0761 C   0  0  0  0  0  0
  -22.4264   -8.0276   21.3549 C   0  0  0  0  0  0
  -21.9881   -9.0236   20.4648 C   0  0  0  0  0  0
  -22.7215  -10.2105   20.3033 C   0  0  0  0  0  0
  -21.6859   -6.0723   22.5266 C   0  0  0  0  0  0
  -21.4026   -6.5625   23.8198 C   0  0  0  0  0  0
  -21.3659   -5.6786   24.9165 C   0  0  0  0  0  0
  -21.6045   -4.3051   24.7225 C   0  0  0  0  0  0
  -21.8813   -3.8133   23.4349 C   0  0  0  0  0  0
  -21.9182   -4.6949   22.3399 C   0  0  0  0  0  0
  -22.7848  -13.5227   21.1793 C   0  0  0  0  0  0
  -22.1649   -4.2138   21.0980 F   0  0  0  0  0  0
  -21.5624   -3.4536   25.7736 F   0  0  0  0  0  0
  -30.0466  -13.2346   20.4727 N   0  0  0  0  0  0
  -26.3050  -12.9316   20.3380 N   0  0  0  0  0  0
  -25.9311  -11.6480   20.5719 N   0  0  0  0  0  0
  -22.0481  -12.8240   22.0371 N   0  0  0  0  0  0
  -25.4314  -15.1871   20.4074 N   0  0  0  0  0  0
  -31.7717  -14.6827   20.0770 O   0  0  0  0  0  0
  -21.6655   -6.8859   21.4227 O   0  0  0  0  0  0
  -22.3521  -14.5521   20.6628 O   0  0  0  0  0  0
  -24.6124  -31.8671   23.2084 C   0  0  0  0  0  0
  -25.9022  -32.4814   23.8377 C   0  0  1  0  0  0
  -27.2394  -27.4475   20.1019 C   0  0  0  0  0  0
  -25.5869  -33.8610   24.2309 N   0  0  0  0  0  0
  -23.3991  -30.4893   21.5478 C   0  0  2  0  0  0
  -24.8502  -28.9521   20.1147 C   0  0  0  0  0  0
  -22.7388  -29.4661   22.4983 C   0  0  0  0  0  0
  -18.0268  -28.1371   22.8497 C   0  0  0  0  0  0
  -24.1482  -36.7335   23.2639 C   0  0  0  0  0  0
  -25.9250  -30.8356   21.3608 C   0  0  0  0  0  0
  -26.0035  -29.4674   20.7182 C   0  0  0  0  0  0
  -27.2004  -28.7175   20.7204 C   0  0  0  0  0  0
  -26.0789  -26.9476   19.4801 C   0  0  0  0  0  0
  -24.8806  -27.6889   19.4951 C   0  0  0  0  0  0
  -23.6060  -29.8118   20.1653 C   0  0  0  0  0  0
  -25.4097  -36.3108   24.0336 C   0  0  1  0  0  0
  -20.5859  -28.3663   23.1321 C   0  0  2  0  0  0
  -20.6756  -26.9399   22.5425 C   0  0  0  0  0  0
  -19.5731  -26.6382   21.5217 C   0  0  0  0  0  0
  -18.1909  -26.7923   22.1631 C   0  0  0  0  0  0
  -19.1519  -28.8832   23.2912 C   0  0  0  0  0  0
  -18.9449  -30.1436   23.8924 C   0  0  0  0  0  0
  -17.6451  -30.6585   24.0571 C   0  0  0  0  0  0
  -25.9018  -34.9472   23.5126 C   0  0  0  0  0  0
  -16.5342  -29.9089   23.6320 C   0  0  0  0  0  0
  -16.7257  -28.6503   23.0346 C   0  0  0  0  0  0
  -26.4455  -31.6589   25.0706 C   0  0  0  0  0  0
  -25.3739  -31.3714   26.1471 C   0  0  0  0  0  0
  -27.0281  -30.3025   24.6080 C   0  0  0  0  0  0
  -27.6013  -32.4329   25.7483 C   0  0  0  0  0  0
  -27.5575  -37.1820   24.8458 C   0  0  0  0  0  0
  -21.4121  -29.3028   22.3720 N   0  0  0  0  0  0
  -26.4287  -37.3789   23.9404 N   0  0  0  0  0  0
  -24.6633  -31.0790   22.0976 N   0  0  0  0  0  0
  -23.4163  -28.8213   23.3029 O   0  0  0  0  0  0
  -28.3786  -26.6778   20.0796 O   0  0  0  0  0  0
  -26.5596  -34.8926   22.4696 O   0  0  0  0  0  0
  -23.5320  -32.1416   23.7499 O   0  0  0  0  0  0
  -29.9949  -19.7064   20.1929 C   0  0  0  0  0  0
  -30.5205  -19.1793   21.3464 C   0  0  0  0  0  0
  -30.3622  -21.6700   21.3192 C   0  0  0  0  0  0
  -29.8671  -23.8966   21.0193 C   0  0  0  0  0  0
  -31.1747  -25.9876   20.4592 C   0  0  0  0  0  0
  -30.7282  -17.7311   21.7006 C   0  0  0  0  0  0
  -29.9179  -16.7771   20.8075 C   0  0  0  0  0  0
  -28.7774  -26.2134   21.3706 C   0  0  0  0  0  0
  -30.0763  -25.3716   21.3455 C   0  0  1  0  0  0
  -29.9081  -21.1036   20.1940 N   0  0  0  0  0  0
  -30.4767  -22.9787   21.6630 N   0  0  0  0  0  0
  -29.9553  -15.3721   21.2137 N   0  0  0  0  0  0
  -30.9282  -20.4517   22.4689 S   0  0  0  0  0  0
  -31.4801  -12.3957   19.1221 H   0  0  0  0  0  0
  -30.3282  -11.2677   19.7791 H   0  0  0  0  0  0
  -29.7385  -11.8247   17.4051 H   0  0  0  0  0  0
  -29.6801  -13.5261   17.7941 H   0  0  0  0  0  0
  -27.8094  -11.3343   18.7665 H   0  0  0  0  0  0
  -27.3727  -12.7072   17.7842 H   0  0  0  0  0  0
  -27.7317  -14.2610   19.6282 H   0  0  0  0  0  0
  -28.6651  -11.8740   21.2962 H   0  0  0  0  0  0
  -28.4623  -13.4757   21.9106 H   0  0  0  0  0  0
  -25.2748   -9.5692   22.4748 H   0  0  0  0  0  0
  -23.9974   -7.4648   22.7488 H   0  0  0  0  0  0
  -21.0815   -8.8750   19.8965 H   0  0  0  0  0  0
  -22.3674  -10.9632   19.6143 H   0  0  0  0  0  0
  -21.2058   -7.6134   23.9701 H   0  0  0  0  0  0
  -21.1486   -6.0523   25.9067 H   0  0  0  0  0  0
  -22.0602   -2.7592   23.2857 H   0  0  0  0  0  0
  -22.4095  -11.9926   22.4794 H   0  0  0  0  0  0
  -21.1089  -13.1266   22.2552 H   0  0  0  0  0  0
  -24.6659  -15.8438   20.5204 H   0  0  0  0  0  0
  -26.2860  -15.6231   20.0867 H   0  0  0  0  0  0
  -26.7105  -32.5544   23.1154 H   0  0  0  0  0  0
  -25.0009  -33.9767   25.0444 H   0  0  0  0  0  0
  -22.6873  -31.3058   21.4056 H   0  0  0  0  0  0
  -23.3715  -35.9700   23.3306 H   0  0  0  0  0  0
  -24.3583  -36.8948   22.2054 H   0  0  0  0  0  0
  -23.7267  -37.6556   23.6653 H   0  0  0  0  0  0
  -26.0306  -31.5930   20.5828 H   0  0  0  0  0  0
  -26.8163  -30.8994   21.9728 H   0  0  0  0  0  0
  -28.0885  -29.1113   21.1928 H   0  0  0  0  0  0
  -26.0990  -25.9794   18.9992 H   0  0  0  0  0  0
  -23.9959  -27.2841   19.0243 H   0  0  0  0  0  0
  -23.7018  -30.5799   19.3968 H   0  0  0  0  0  0
  -22.7331  -29.2204   19.8809 H   0  0  0  0  0  0
  -25.1270  -36.1978   25.0829 H   0  0  0  0  0  0
  -20.9957  -28.3240   24.1436 H   0  0  0  0  0  0
  -20.5653  -26.2268   23.3610 H   0  0  0  0  0  0
  -21.6626  -26.7442   22.1216 H   0  0  0  0  0  0
  -19.6891  -25.6294   21.1233 H   0  0  0  0  0  0
  -19.6666  -27.3205   20.6754 H   0  0  0  0  0  0
  -17.4174  -26.6673   21.4033 H   0  0  0  0  0  0
  -18.0315  -26.0065   22.9027 H   0  0  0  0  0  0
  -19.7926  -30.7246   24.2297 H   0  0  0  0  0  0
  -17.5011  -31.6270   24.5169 H   0  0  0  0  0  0
  -15.5343  -30.3003   23.7627 H   0  0  0  0  0  0
  -15.8656  -28.0833   22.7042 H   0  0  0  0  0  0
  -24.5874  -30.7091   25.7822 H   0  0  0  0  0  0
  -24.8980  -32.2891   26.4941 H   0  0  0  0  0  0
  -25.8106  -30.8864   27.0211 H   0  0  0  0  0  0
  -26.2823  -29.6804   24.1111 H   0  0  0  0  0  0
  -27.4007  -29.7235   25.4538 H   0  0  0  0  0  0
  -27.8675  -30.4307   23.9243 H   0  0  0  0  0  0
  -27.2576  -33.3593   26.2091 H   0  0  0  0  0  0
  -28.3807  -32.6952   25.0322 H   0  0  0  0  0  0
  -28.0695  -31.8453   26.5388 H   0  0  0  0  0  0
  -28.2590  -38.0113   24.7487 H   0  0  0  0  0  0
  -28.1069  -36.2646   24.6288 H   0  0  0  0  0  0
  -27.2305  -37.1484   25.8864 H   0  0  0  0  0  0
  -20.9260  -29.8738   21.6947 H   0  0  0  0  0  0
  -26.0174  -38.2873   24.1384 H   0  0  0  0  0  0
  -29.6457  -19.1611   19.3276 H   0  0  0  0  0  0
  -29.1766  -23.6969   20.1928 H   0  0  0  0  0  0
  -32.1228  -25.4650   20.5953 H   0  0  0  0  0  0
  -31.3386  -27.0354   20.7084 H   0  0  0  0  0  0
  -30.9087  -25.9314   19.4025 H   0  0  0  0  0  0
  -30.4458  -17.5761   22.7428 H   0  0  0  0  0  0
  -31.7881  -17.4863   21.6280 H   0  0  0  0  0  0
  -30.2469  -16.8705   19.7710 H   0  0  0  0  0  0
  -28.8704  -17.0839   20.8106 H   0  0  0  0  0  0
  -28.9478  -27.0764   22.0157 H   0  0  0  0  0  0
  -27.9671  -25.6425   21.8305 H   0  0  0  0  0  0
  -30.4469  -25.3967   22.3708 H   0  0  0  0  0  0
  -29.1334  -15.0336   21.6930 H   0  0  0  0  0  0
  1 25  1  0  0  0
  1 30  2  0  0  0
  1 82  1  0  0  0
  2  3  1  0  0  0
  2 25  1  0  0  0
  2 84  1  0  0  0
  2 85  1  0  0  0
  3  4  1  0  0  0
  3 86  1  0  0  0
  3 87  1  0  0  0
  4  5  1  0  0  0
  4 88  1  0  0  0
  4 89  1  0  0  0
  5  6  1  0  0  0
  5 26  1  0  0  0
  5 90  1  0  0  0
  6 25  1  0  0  0
  6 91  1  0  0  0
  6 92  1  0  0  0
  7  8  2  0  0  0
  7 26  1  0  0  0
  7 29  1  0  0  0
  8  9  1  0  0  0
  8 22  1  0  0  0
  9 10  1  0  0  0
  9 27  2  0  0  0
 10 11  2  0  0  0
 10 15  1  0  0  0
 11 12  1  0  0  0
 11 93  1  0  0  0
 12 13  2  0  0  0
 12 94  1  0  0  0
 13 14  1  0  0  0
 13 31  1  0  0  0
 14 15  2  0  0  0
 14 95  1  0  0  0
 15 96  1  0  0  0
 16 17  2  0  0  0
 16 21  1  0  0  0
 16 31  1  0  0  0
 17 18  1  0  0  0
 17 97  1  0  0  0
 18 19  2  0  0  0
 18 98  1  0  0  0
 19 20  1  0  0  0
 19 24  1  0  0  0
 20 21  2  0  0  0
 20 99  1  0  0  0
 21 23  1  0  0  0
 22 28  1  0  0  0
 22 32  2  0  0  0
 26 27  1  0  0  0
 28100  1  0  0  0
 28101  1  0  0  0
 29102  1  0  0  0
 29103  1  0  0  0
 33 34  1  0  0  0
 33 66  1  0  0  0
 33 70  2  0  0  0
 34 36  1  0  0  0
 34 59  1  0  0  0
 34104  1  0  0  0
 35 44  2  0  0  0
 35 45  1  0  0  0
 35 68  1  0  0  0
 36 56  1  0  0  0
 36105  1  0  0  0
 37 39  1  0  0  0
 37 47  1  0  0  0
 37 66  1  0  0  0
 37106  1  0  0  0
 38 43  2  0  0  0
 38 46  1  0  0  0
 38 47  1  0  0  0
 39 64  1  0  0  0
 39 67  2  0  0  0
 40 52  1  0  0  0
 40 53  2  0  0  0
 40 58  1  0  0  0
 41107  1  0  0  0
 41108  1  0  0  0
 41109  1  0  0  0
 41 48  1  0  0  0
 42 43  1  0  0  0
 42 66  1  0  0  0
 42110  1  0  0  0
 42111  1  0  0  0
 43 44  1  0  0  0
 44112  1  0  0  0
 45 46  2  0  0  0
 45113  1  0  0  0
 46114  1  0  0  0
 47115  1  0  0  0
 47116  1  0  0  0
 48 56  1  0  0  0
 48 65  1  0  0  0
 48117  1  0  0  0
 49 50  1  0  0  0
 49 53  1  0  0  0
 49 64  1  0  0  0
 49118  1  0  0  0
 50 51  1  0  0  0
 50119  1  0  0  0
 50120  1  0  0  0
 51 52  1  0  0  0
 51121  1  0  0  0
 51122  1  0  0  0
 52123  1  0  0  0
 52124  1  0  0  0
 53 54  1  0  0  0
 54 55  2  0  0  0
 54125  1  0  0  0
 55 57  1  0  0  0
 55126  1  0  0  0
 56 69  2  0  0  0
 57 58  2  0  0  0
 57127  1  0  0  0
 58128  1  0  0  0
 59 60  1  0  0  0
 59 61  1  0  0  0
 59 62  1  0  0  0
 60129  1  0  0  0
 60130  1  0  0  0
 60131  1  0  0  0
 61132  1  0  0  0
 61133  1  0  0  0
 61134  1  0  0  0
 62135  1  0  0  0
 62136  1  0  0  0
 62137  1  0  0  0
 63 65  1  0  0  0
 63138  1  0  0  0
 63139  1  0  0  0
 63140  1  0  0  0
 64141  1  0  0  0
 65142  1  0  0  0
 68 78  1  0  0  0
 71 72  2  0  0  0
 71 80  1  0  0  0
 71143  1  0  0  0
 72 76  1  0  0  0
 72 83  1  0  0  0
 73 80  2  0  0  0
 73 81  1  0  0  0
 73 83  1  0  0  0
 74 79  1  0  0  0
 74 81  2  0  0  0
 74144  1  0  0  0
 75145  1  0  0  0
 75146  1  0  0  0
 75147  1  0  0  0
 75 79  1  0  0  0
 76 77  1  0  0  0
 76148  1  0  0  0
 76149  1  0  0  0
 77 82  1  0  0  0
 77150  1  0  0  0
 77151  1  0  0  0
 78 79  1  0  0  0
 78152  1  0  0  0
 78153  1  0  0  0
 79154  1  0  0  0
 82155  1  0  0  0
M  ISO  4   1 100  68 101  78 101  82 100
M  END
> <chiral flag>
0

> <version>
0

> <s_m_source_file>
/data/baiqing/PycharmProjects/Reinvent-master-3.2/result/LINK_invent/BTK/process_docking_weight1_custom_product_contain_oxygen_bond_distance_aromatic_linkinvent_7_9_3/rearranged_h_0196.sdf

> <i_m_source_file_index>
84

> <r_mmod_Potential_Energy-OPLS-2005>
-119.475830078125

> <r_mmod_Stretch_Energy-OPLS-2005>
32.4165458679199

> <r_mmod_Bend_Energy-OPLS-2005>
100.164352416992

> <r_mmod_Torsional_Energy-OPLS-2005>
232.888809204102

> <r_mmod_Improper_Torsional_Energy-OPLS-2005>
6.01049852371216

> <r_mmod_Van_der_Waal_Energy-OPLS-2005>
134.281341552734

> <r_mmod_Electrostatic_Energy-OPLS-2005>
-414.748748779297

> <r_mmod_Solvation_Energy-OPLS-2005>
-219.466567993164

> <b_mmod_Minimization_Converged-OPLS-2005>
0

> <r_mmod_RMS_Derivative-OPLS-2005>
3.14203286170959

$$$$
84
                    3D
 Structure written by MMmdl.
170178  0  0  1  0            999 V2000
  -30.5998  -14.5375   20.6641 C   0  0  0  0  0  0
  -30.4640  -12.3754   19.4244 C   0  0  0  0  0  0
  -29.5114  -12.5219   18.2145 C   0  0  0  0  0  0
  -28.0324  -12.3582   18.6266 C   0  0  0  0  0  0
  -27.6702  -13.1863   19.8879 C   0  0  2  0  0  0
  -28.7038  -12.9123   20.9990 C   0  0  0  0  0  0
  -25.2649  -13.8115   20.5653 C   0  0  0  0  0  0
  -24.1879  -13.0459   20.9152 C   0  0  0  0  0  0
  -24.6386  -11.6884   20.8736 C   0  0  0  0  0  0
  -23.9031  -10.4303   21.0418 C   0  0  0  0  0  0
  -24.3577   -9.4211   21.9191 C   0  0  0  0  0  0
  -23.6257   -8.2247   22.0754 C   0  0  0  0  0  0
  -22.4246   -8.0280   21.3542 C   0  0  0  0  0  0
  -21.9875   -9.0252   20.4643 C   0  0  0  0  0  0
  -22.7203  -10.2134   20.3066 C   0  0  0  0  0  0
  -21.6852   -6.0715   22.5276 C   0  0  0  0  0  0
  -21.4001   -6.5620   23.8201 C   0  0  0  0  0  0
  -21.3659   -5.6778   24.9172 C   0  0  0  0  0  0
  -21.6055   -4.3041   24.7227 C   0  0  0  0  0  0
  -21.8827   -3.8127   23.4352 C   0  0  0  0  0  0
  -21.9189   -4.6943   22.3406 C   0  0  0  0  0  0
  -22.7908  -13.5280   21.1829 C   0  0  0  0  0  0
  -22.1668   -4.2121   21.0985 F   0  0  0  0  0  0
  -21.5638   -3.4532   25.7744 F   0  0  0  0  0  0
  -30.0290  -13.3079   20.4811 N   0  0  0  0  0  0
  -26.3050  -12.9227   20.3365 N   0  0  0  0  0  0
  -25.9295  -11.6414   20.5738 N   0  0  0  0  0  0
  -22.0512  -12.8288   22.0352 N   0  0  0  0  0  0
  -25.4515  -15.1827   20.4084 N   0  0  0  0  0  0
  -31.6606  -14.8582   20.1064 O   0  0  0  0  0  0
  -21.6643   -6.8855   21.4230 O   0  0  0  0  0  0
  -22.3627  -14.5622   20.6690 O   0  0  0  0  0  0
  -24.6203  -31.8624   23.2111 C   0  0  0  0  0  0
  -25.9067  -32.4817   23.8408 C   0  0  1  0  0  0
  -27.2117  -27.3590   20.1071 C   0  0  0  0  0  0
  -25.5923  -33.8625   24.2326 N   0  0  0  0  0  0
  -23.4099  -30.4916   21.5491 C   0  0  2  0  0  0
  -24.8519  -28.9550   20.1086 C   0  0  0  0  0  0
  -22.7441  -29.4624   22.4926 C   0  0  0  0  0  0
  -18.0283  -28.1404   22.8511 C   0  0  0  0  0  0
  -24.1479  -36.7282   23.2641 C   0  0  0  0  0  0
  -25.9466  -30.8087   21.3722 C   0  0  0  0  0  0
  -26.0165  -29.4402   20.7145 C   0  0  0  0  0  0
  -27.1939  -28.6474   20.7085 C   0  0  0  0  0  0
  -26.0235  -26.9150   19.4801 C   0  0  0  0  0  0
  -24.8550  -27.6991   19.4851 C   0  0  0  0  0  0
  -23.6233  -29.8356   20.1598 C   0  0  0  0  0  0
  -25.4100  -36.3082   24.0346 C   0  0  1  0  0  0
  -20.5875  -28.3672   23.1343 C   0  0  2  0  0  0
  -20.6753  -26.9403   22.5437 C   0  0  0  0  0  0
  -19.5738  -26.6407   21.5231 C   0  0  0  0  0  0
  -18.1908  -26.7975   22.1612 C   0  0  0  0  0  0
  -19.1530  -28.8853   23.2931 C   0  0  0  0  0  0
  -18.9459  -30.1459   23.8943 C   0  0  0  0  0  0
  -17.6458  -30.6604   24.0593 C   0  0  0  0  0  0
  -25.9045  -34.9465   23.5121 C   0  0  0  0  0  0
  -16.5353  -29.9111   23.6344 C   0  0  0  0  0  0
  -16.7264  -28.6531   23.0358 C   0  0  0  0  0  0
  -26.4474  -31.6613   25.0750 C   0  0  0  0  0  0
  -25.3723  -31.3749   26.1475 C   0  0  0  0  0  0
  -27.0271  -30.3051   24.6129 C   0  0  0  0  0  0
  -27.6045  -32.4329   25.7516 C   0  0  0  0  0  0
  -27.5571  -37.1783   24.8469 C   0  0  0  0  0  0
  -21.4145  -29.3045   22.3742 N   0  0  0  0  0  0
  -26.4280  -37.3774   23.9432 N   0  0  0  0  0  0
  -24.6783  -31.0686   22.1037 N   0  0  0  0  0  0
  -23.4214  -28.8103   23.2917 O   0  0  0  0  0  0
  -28.3781  -26.5962   20.1666 O   0  0  0  0  0  0
  -26.5576  -34.8912   22.4668 O   0  0  0  0  0  0
  -23.5374  -32.1378   23.7468 O   0  0  0  0  0  0
  -28.6410  -17.1221   22.6228 C   0  0  0  0  0  0
  -29.5566  -16.7109   21.6138 C   0  0  0  0  0  0
  -28.4073  -18.4495   22.3786 C   0  0  0  0  0  0
  -31.5237  -24.2507   19.9447 C   0  0  0  0  0  0
  -31.3654  -23.4050   22.2754 C   0  0  0  0  0  0
  -31.8905  -21.8642   20.4035 C   0  0  0  0  0  0
  -27.1586  -19.1142   24.4010 C   0  0  0  0  0  0
  -28.9595  -21.4777   21.2445 C   0  0  0  0  0  0
  -28.5969  -24.1112   20.8852 C   0  0  0  0  0  0
  -29.1874  -20.0956   20.4930 C   0  0  0  0  0  0
  -28.4401  -25.1977   19.7499 C   0  0  0  0  0  0
  -29.4780  -22.8194   20.5594 C   0  0  1  0  0  0
  -31.0246  -23.0755   20.8037 C   0  0  0  0  0  0
  -29.8711  -17.7305   20.8050 N   0  0  0  0  0  0
  -29.1630  -18.8224   21.2693 N   0  0  0  0  0  0
  -29.9199  -15.3165   21.5471 N   0  0  0  0  0  0
  -27.5684  -19.3546   23.0237 N   0  0  0  0  0  0
  -31.4949  -12.5605   19.1156 H   0  0  0  0  0  0
  -30.4552  -11.3504   19.8002 H   0  0  0  0  0  0
  -29.7662  -11.7839   17.4533 H   0  0  0  0  0  0
  -29.6526  -13.4993   17.7498 H   0  0  0  0  0  0
  -27.8653  -11.2975   18.8236 H   0  0  0  0  0  0
  -27.3733  -12.6209   17.7987 H   0  0  0  0  0  0
  -27.7331  -14.2417   19.6191 H   0  0  0  0  0  0
  -28.7106  -11.8478   21.2463 H   0  0  0  0  0  0
  -28.4219  -13.4080   21.9280 H   0  0  0  0  0  0
  -25.2721   -9.5703   22.4763 H   0  0  0  0  0  0
  -23.9973   -7.4650   22.7484 H   0  0  0  0  0  0
  -21.0796   -8.8751   19.8951 H   0  0  0  0  0  0
  -22.3649  -10.9655   19.6170 H   0  0  0  0  0  0
  -21.1985   -7.6125   23.9690 H   0  0  0  0  0  0
  -21.1475   -6.0515   25.9066 H   0  0  0  0  0  0
  -22.0608   -2.7583   23.2867 H   0  0  0  0  0  0
  -22.4057  -11.9909   22.4727 H   0  0  0  0  0  0
  -21.1143  -13.1341   22.2579 H   0  0  0  0  0  0
  -24.7052  -15.8555   20.5434 H   0  0  0  0  0  0
  -26.3169  -15.5995   20.0900 H   0  0  0  0  0  0
  -26.7159  -32.5472   23.1176 H   0  0  0  0  0  0
  -25.0157  -33.9850   25.0522 H   0  0  0  0  0  0
  -22.7013  -31.3106   21.4126 H   0  0  0  0  0  0
  -23.3744  -35.9610   23.3294 H   0  0  0  0  0  0
  -24.3592  -36.8878   22.2058 H   0  0  0  0  0  0
  -23.7208  -37.6483   23.6649 H   0  0  0  0  0  0
  -26.0661  -31.5788   20.6074 H   0  0  0  0  0  0
  -26.8358  -30.8613   21.9918 H   0  0  0  0  0  0
  -28.0907  -29.0070   21.1908 H   0  0  0  0  0  0
  -25.9453  -25.9643   18.9798 H   0  0  0  0  0  0
  -23.9560  -27.3345   19.0041 H   0  0  0  0  0  0
  -23.7453  -30.6157   19.4097 H   0  0  0  0  0  0
  -22.7409  -29.2734   19.8463 H   0  0  0  0  0  0
  -25.1254  -36.1967   25.0843 H   0  0  0  0  0  0
  -20.9998  -28.3236   24.1452 H   0  0  0  0  0  0
  -20.5659  -26.2266   23.3614 H   0  0  0  0  0  0
  -21.6617  -26.7422   22.1215 H   0  0  0  0  0  0
  -19.6906  -25.6322   21.1248 H   0  0  0  0  0  0
  -19.6740  -27.3223   20.6777 H   0  0  0  0  0  0
  -17.4198  -26.6823   21.3978 H   0  0  0  0  0  0
  -18.0234  -26.0085   22.8958 H   0  0  0  0  0  0
  -19.7925  -30.7282   24.2319 H   0  0  0  0  0  0
  -17.5008  -31.6287   24.5178 H   0  0  0  0  0  0
  -15.5351  -30.3030   23.7652 H   0  0  0  0  0  0
  -15.8658  -28.0876   22.7043 H   0  0  0  0  0  0
  -24.6125  -30.6795   25.7897 H   0  0  0  0  0  0
  -24.8641  -32.2863   26.4621 H   0  0  0  0  0  0
  -25.8114  -30.9274   27.0398 H   0  0  0  0  0  0
  -26.2810  -29.6884   24.1119 H   0  0  0  0  0  0
  -27.3941  -29.7221   25.4570 H   0  0  0  0  0  0
  -27.8677  -30.4324   23.9319 H   0  0  0  0  0  0
  -27.2718  -33.3719   26.1938 H   0  0  0  0  0  0
  -28.3956  -32.6719   25.0407 H   0  0  0  0  0  0
  -28.0573  -31.8530   26.5560 H   0  0  0  0  0  0
  -28.2551  -38.0101   24.7481 H   0  0  0  0  0  0
  -28.1085  -36.2620   24.6303 H   0  0  0  0  0  0
  -27.2305  -37.1426   25.8875 H   0  0  0  0  0  0
  -20.9285  -29.8898   21.7083 H   0  0  0  0  0  0
  -26.0154  -38.2837   24.1497 H   0  0  0  0  0  0
  -28.1814  -16.5153   23.3904 H   0  0  0  0  0  0
  -32.6020  -24.3850   20.0117 H   0  0  0  0  0  0
  -31.0941  -25.2004   20.2616 H   0  0  0  0  0  0
  -31.2850  -24.0959   18.8915 H   0  0  0  0  0  0
  -32.4480  -23.4175   22.4219 H   0  0  0  0  0  0
  -30.9726  -22.6756   22.9806 H   0  0  0  0  0  0
  -31.0041  -24.3863   22.5821 H   0  0  0  0  0  0
  -32.9572  -22.0804   20.4884 H   0  0  0  0  0  0
  -31.7076  -21.5665   19.3685 H   0  0  0  0  0  0
  -31.7240  -21.0101   21.0602 H   0  0  0  0  0  0
  -26.3705  -19.8137   24.6830 H   0  0  0  0  0  0
  -27.9943  -19.2719   25.0829 H   0  0  0  0  0  0
  -26.7776  -18.1010   24.5476 H   0  0  0  0  0  0
  -27.8787  -21.5795   21.3490 H   0  0  0  0  0  0
  -29.3343  -21.4128   22.2650 H   0  0  0  0  0  0
  -27.5814  -23.8142   21.1550 H   0  0  0  0  0  0
  -28.9757  -24.5910   21.7864 H   0  0  0  0  0  0
  -30.1197  -20.0919   19.9411 H   0  0  0  0  0  0
  -28.4305  -20.0043   19.7163 H   0  0  0  0  0  0
  -27.6470  -24.8940   19.0750 H   0  0  0  0  0  0
  -29.2980  -25.1466   19.0902 H   0  0  0  0  0  0
  -29.3282  -22.6487   19.4923 H   0  0  0  0  0  0
  -29.2976  -14.7449   22.1000 H   0  0  0  0  0  0
  -27.6183  -20.3236   22.7278 H   0  0  0  0  0  0
  1 25  1  0  0  0
  1 30  2  0  0  0
  1 86  1  0  0  0
  2  3  1  0  0  0
  2 25  1  0  0  0
  2 88  1  0  0  0
  2 89  1  0  0  0
  3  4  1  0  0  0
  3 90  1  0  0  0
  3 91  1  0  0  0
  4  5  1  0  0  0
  4 92  1  0  0  0
  4 93  1  0  0  0
  5  6  1  0  0  0
  5 26  1  0  0  0
  5 94  1  0  0  0
  6 25  1  0  0  0
  6 95  1  0  0  0
  6 96  1  0  0  0
  7  8  2  0  0  0
  7 26  1  0  0  0
  7 29  1  0  0  0
  8  9  1  0  0  0
  8 22  1  0  0  0
  9 10  1  0  0  0
  9 27  2  0  0  0
 10 11  2  0  0  0
 10 15  1  0  0  0
 11 12  1  0  0  0
 11 97  1  0  0  0
 12 13  2  0  0  0
 12 98  1  0  0  0
 13 14  1  0  0  0
 13 31  1  0  0  0
 14 15  2  0  0  0
 14 99  1  0  0  0
 15100  1  0  0  0
 16 17  2  0  0  0
 16 21  1  0  0  0
 16 31  1  0  0  0
 17 18  1  0  0  0
 17101  1  0  0  0
 18 19  2  0  0  0
 18102  1  0  0  0
 19 20  1  0  0  0
 19 24  1  0  0  0
 20 21  2  0  0  0
 20103  1  0  0  0
 21 23  1  0  0  0
 22 28  1  0  0  0
 22 32  2  0  0  0
 26 27  1  0  0  0
 28104  1  0  0  0
 28105  1  0  0  0
 29106  1  0  0  0
 29107  1  0  0  0
 33 34  1  0  0  0
 33 66  1  0  0  0
 33 70  2  0  0  0
 34 36  1  0  0  0
 34 59  1  0  0  0
 34108  1  0  0  0
 35 44  2  0  0  0
 35 45  1  0  0  0
 35 68  1  0  0  0
 36 56  1  0  0  0
 36109  1  0  0  0
 37 39  1  0  0  0
 37 47  1  0  0  0
 37 66  1  0  0  0
 37110  1  0  0  0
 38 43  2  0  0  0
 38 46  1  0  0  0
 38 47  1  0  0  0
 39 64  1  0  0  0
 39 67  2  0  0  0
 40 52  1  0  0  0
 40 53  2  0  0  0
 40 58  1  0  0  0
 41111  1  0  0  0
 41112  1  0  0  0
 41113  1  0  0  0
 41 48  1  0  0  0
 42 43  1  0  0  0
 42 66  1  0  0  0
 42114  1  0  0  0
 42115  1  0  0  0
 43 44  1  0  0  0
 44116  1  0  0  0
 45 46  2  0  0  0
 45117  1  0  0  0
 46118  1  0  0  0
 47119  1  0  0  0
 47120  1  0  0  0
 48 56  1  0  0  0
 48 65  1  0  0  0
 48121  1  0  0  0
 49 50  1  0  0  0
 49 53  1  0  0  0
 49 64  1  0  0  0
 49122  1  0  0  0
 50 51  1  0  0  0
 50123  1  0  0  0
 50124  1  0  0  0
 51 52  1  0  0  0
 51125  1  0  0  0
 51126  1  0  0  0
 52127  1  0  0  0
 52128  1  0  0  0
 53 54  1  0  0  0
 54 55  2  0  0  0
 54129  1  0  0  0
 55 57  1  0  0  0
 55130  1  0  0  0
 56 69  2  0  0  0
 57 58  2  0  0  0
 57131  1  0  0  0
 58132  1  0  0  0
 59 60  1  0  0  0
 59 61  1  0  0  0
 59 62  1  0  0  0
 60133  1  0  0  0
 60134  1  0  0  0
 60135  1  0  0  0
 61136  1  0  0  0
 61137  1  0  0  0
 61138  1  0  0  0
 62139  1  0  0  0
 62140  1  0  0  0
 62141  1  0  0  0
 63 65  1  0  0  0
 63142  1  0  0  0
 63143  1  0  0  0
 63144  1  0  0  0
 64145  1  0  0  0
 65146  1  0  0  0
 68 81  1  0  0  0
 71 72  1  0  0  0
 71 73  2  0  0  0
 71147  1  0  0  0
 72 84  2  0  0  0
 72 86  1  0  0  0
 73 85  1  0  0  0
 73 87  1  0  0  0
 74148  1  0  0  0
 74149  1  0  0  0
 74150  1  0  0  0
 74 83  1  0  0  0
 75 83  1  0  0  0
 75151  1  0  0  0
 75152  1  0  0  0
 75153  1  0  0  0
 76 83  1  0  0  0
 76154  1  0  0  0
 76155  1  0  0  0
 76156  1  0  0  0
 77 87  1  0  0  0
 77157  1  0  0  0
 77158  1  0  0  0
 77159  1  0  0  0
 78 80  1  0  0  0
 78160  1  0  0  0
 78161  1  0  0  0
 78 82  1  0  0  0
 79 81  1  0  0  0
 79 82  1  0  0  0
 79162  1  0  0  0
 79163  1  0  0  0
 80 85  1  0  0  0
 80164  1  0  0  0
 80165  1  0  0  0
 81166  1  0  0  0
 81167  1  0  0  0
 82 83  1  0  0  0
 82168  1  0  0  0
 84 85  1  0  0  0
 86169  1  0  0  0
 87170  1  0  0  0
M  ISO  4   1 100  68 101  81 101  86 100
M  END
> <chiral flag>
0

> <version>
0

> <s_m_source_file>
/data/baiqing/PycharmProjects/Reinvent-master-3.2/result/LINK_invent/BTK/process_docking_weight1_custom_product_contain_oxygen_bond_distance_aromatic_linkinvent_7_9_3/rearranged_h_0196.sdf

> <i_m_source_file_index>
85

> <r_mmod_Potential_Energy-OPLS-2005>
54.204216003418

> <r_mmod_Stretch_Energy-OPLS-2005>
68.5517730712891

> <r_mmod_Bend_Energy-OPLS-2005>
171.680648803711

> <r_mmod_Torsional_Energy-OPLS-2005>
250.892929077148

> <r_mmod_Improper_Torsional_Energy-OPLS-2005>
6.20233488082886

> <r_mmod_Van_der_Waal_Energy-OPLS-2005>
142.256439208984

> <r_mmod_Electrostatic_Energy-OPLS-2005>
-391.638946533203

> <r_mmod_Solvation_Energy-OPLS-2005>
-225.032730102539

> <b_mmod_Minimization_Converged-OPLS-2005>
0

> <r_mmod_RMS_Derivative-OPLS-2005>
4.55511569976807

$$$$
85
                    3D
 Structure written by MMmdl.
172180  0  0  1  0            999 V2000
  -30.7361  -14.3926   20.6444 C   0  0  0  0  0  0
  -30.4170  -12.2823   19.4050 C   0  0  0  0  0  0
  -29.4904  -12.5115   18.1964 C   0  0  0  0  0  0
  -28.0122  -12.3728   18.6128 C   0  0  0  0  0  0
  -27.6662  -13.2048   19.8770 C   0  0  2  0  0  0
  -28.7017  -12.9487   20.9935 C   0  0  0  0  0  0
  -25.2610  -13.8154   20.5658 C   0  0  0  0  0  0
  -24.1858  -13.0430   20.9152 C   0  0  0  0  0  0
  -24.6405  -11.6893   20.8732 C   0  0  0  0  0  0
  -23.9042  -10.4291   21.0399 C   0  0  0  0  0  0
  -24.3590   -9.4203   21.9181 C   0  0  0  0  0  0
  -23.6274   -8.2229   22.0750 C   0  0  0  0  0  0
  -22.4261   -8.0264   21.3538 C   0  0  0  0  0  0
  -21.9886   -9.0236   20.4642 C   0  0  0  0  0  0
  -22.7205  -10.2126   20.3048 C   0  0  0  0  0  0
  -21.6844   -6.0714   22.5280 C   0  0  0  0  0  0
  -21.4013   -6.5630   23.8202 C   0  0  0  0  0  0
  -21.3676   -5.6792   24.9177 C   0  0  0  0  0  0
  -21.6034   -4.3053   24.7243 C   0  0  0  0  0  0
  -21.8820   -3.8132   23.4372 C   0  0  0  0  0  0
  -21.9199   -4.6935   22.3415 C   0  0  0  0  0  0
  -22.7890  -13.5237   21.1826 C   0  0  0  0  0  0
  -22.1663   -4.2111   21.0995 F   0  0  0  0  0  0
  -21.5620   -3.4546   25.7763 F   0  0  0  0  0  0
  -30.0425  -13.2417   20.4534 N   0  0  0  0  0  0
  -26.3054  -12.9322   20.3380 N   0  0  0  0  0  0
  -25.9334  -11.6484   20.5791 N   0  0  0  0  0  0
  -22.0511  -12.8245   22.0390 N   0  0  0  0  0  0
  -25.4354  -15.1858   20.4054 N   0  0  0  0  0  0
  -31.7949  -14.6499   20.0614 O   0  0  0  0  0  0
  -21.6629   -6.8859   21.4238 O   0  0  0  0  0  0
  -22.3578  -14.5558   20.6697 O   0  0  0  0  0  0
  -24.6120  -31.8702   23.2107 C   0  0  0  0  0  0
  -25.9023  -32.4822   23.8405 C   0  0  1  0  0  0
  -27.2266  -27.4592   20.0989 C   0  0  0  0  0  0
  -25.5897  -33.8625   24.2347 N   0  0  0  0  0  0
  -23.3985  -30.4949   21.5484 C   0  0  2  0  0  0
  -24.8437  -28.9600   20.1138 C   0  0  0  0  0  0
  -22.7371  -29.4695   22.4982 C   0  0  0  0  0  0
  -18.0261  -28.1354   22.8474 C   0  0  0  0  0  0
  -24.1490  -36.7324   23.2631 C   0  0  0  0  0  0
  -25.9232  -30.8454   21.3548 C   0  0  0  0  0  0
  -26.0015  -29.4789   20.7076 C   0  0  0  0  0  0
  -27.1999  -28.7351   20.6987 C   0  0  0  0  0  0
  -26.0594  -26.9488   19.4938 C   0  0  0  0  0  0
  -24.8655  -27.6928   19.5053 C   0  0  0  0  0  0
  -23.6039  -29.8222   20.1642 C   0  0  0  0  0  0
  -25.4100  -36.3113   24.0345 C   0  0  1  0  0  0
  -20.5848  -28.3654   23.1302 C   0  0  2  0  0  0
  -20.6754  -26.9391   22.5410 C   0  0  0  0  0  0
  -19.5744  -26.6393   21.5177 C   0  0  0  0  0  0
  -18.1910  -26.7915   22.1574 C   0  0  0  0  0  0
  -19.1504  -28.8818   23.2890 C   0  0  0  0  0  0
  -18.9427  -30.1406   23.8928 C   0  0  0  0  0  0
  -17.6425  -30.6542   24.0590 C   0  0  0  0  0  0
  -25.9019  -34.9470   23.5134 C   0  0  0  0  0  0
  -16.5330  -29.9051   23.6301 C   0  0  0  0  0  0
  -16.7254  -28.6468   23.0330 C   0  0  0  0  0  0
  -26.4472  -31.6573   25.0708 C   0  0  0  0  0  0
  -25.3767  -31.3640   26.1474 C   0  0  0  0  0  0
  -27.0273  -30.3026   24.5998 C   0  0  0  0  0  0
  -27.6058  -32.4268   25.7487 C   0  0  0  0  0  0
  -27.5581  -37.1818   24.8467 C   0  0  0  0  0  0
  -21.4109  -29.3029   22.3698 N   0  0  0  0  0  0
  -26.4287  -37.3791   23.9407 N   0  0  0  0  0  0
  -24.6631  -31.0828   22.0979 N   0  0  0  0  0  0
  -23.4159  -28.8267   23.3033 O   0  0  0  0  0  0
  -28.3711  -26.7063   20.1041 O   0  0  0  0  0  0
  -26.5577  -34.8921   22.4692 O   0  0  0  0  0  0
  -23.5319  -32.1441   23.7519 O   0  0  0  0  0  0
  -29.5748  -19.6356   19.8676 C   0  0  0  0  0  0
  -28.9383  -19.7488   21.0428 C   0  0  0  0  0  0
  -29.0791  -18.5390   21.8502 C   0  0  0  0  0  0
  -25.1459  -19.0427   24.2397 C   0  0  0  0  0  0
  -28.3050  -20.1751   24.5388 C   0  0  0  0  0  0
  -26.6523  -22.6056   20.7716 C   0  0  0  0  0  0
  -26.2849  -19.1275   23.2120 C   0  0  0  0  0  0
  -29.1122  -23.1862   21.3931 C   0  0  0  0  0  0
  -28.3324  -25.6408   21.0559 C   0  0  0  0  0  0
  -30.6927  -16.5774   21.8542 C   0  0  0  0  0  0
  -27.6811  -18.9397   23.8563 C   0  0  1  0  0  0
  -28.1288  -22.1775   20.7445 C   0  0  1  0  0  0
  -29.3288  -24.5319   20.6528 C   0  0  1  0  0  0
  -28.6056  -18.1962   23.0141 N   0  0  0  0  0  0
  -29.9008  -17.6175   21.1910 N   0  0  0  0  0  0
  -28.2508  -20.8908   21.4199 N   0  0  0  0  0  0
  -30.1729  -15.2608   21.4919 N   0  0  0  0  0  0
  -30.6319  -24.9971   20.9836 O   0  0  0  0  0  0
  -30.3701  -18.1103   19.6127 S   0  0  0  0  0  0
  -31.4644  -12.3709   19.1091 H   0  0  0  0  0  0
  -30.3041  -11.2638   19.7786 H   0  0  0  0  0  0
  -29.7246  -11.8011   17.4005 H   0  0  0  0  0  0
  -29.6680  -13.5061   17.7832 H   0  0  0  0  0  0
  -27.8221  -11.3181   18.8117 H   0  0  0  0  0  0
  -27.3595  -12.6482   17.7848 H   0  0  0  0  0  0
  -27.7245  -14.2576   19.5971 H   0  0  0  0  0  0
  -28.6627  -11.9056   21.3074 H   0  0  0  0  0  0
  -28.4546  -13.5229   21.8865 H   0  0  0  0  0  0
  -25.2715   -9.5702   22.4774 H   0  0  0  0  0  0
  -23.9968   -7.4639   22.7501 H   0  0  0  0  0  0
  -21.0789   -8.8767   19.8986 H   0  0  0  0  0  0
  -22.3635  -10.9667   19.6177 H   0  0  0  0  0  0
  -21.2003   -7.6135   23.9702 H   0  0  0  0  0  0
  -21.1495   -6.0523   25.9078 H   0  0  0  0  0  0
  -22.0588   -2.7588   23.2890 H   0  0  0  0  0  0
  -22.4076  -11.9875   22.4758 H   0  0  0  0  0  0
  -21.1160  -13.1342   22.2637 H   0  0  0  0  0  0
  -24.6781  -15.8480   20.5256 H   0  0  0  0  0  0
  -26.3022  -15.6242   20.1193 H   0  0  0  0  0  0
  -26.7088  -32.5534   23.1176 H   0  0  0  0  0  0
  -25.0116  -33.9790   25.0535 H   0  0  0  0  0  0
  -22.6897  -31.3123   21.4064 H   0  0  0  0  0  0
  -23.3737  -35.9672   23.3296 H   0  0  0  0  0  0
  -24.3599  -36.8925   22.2048 H   0  0  0  0  0  0
  -23.7267  -37.6550   23.6626 H   0  0  0  0  0  0
  -26.0214  -31.6076   20.5800 H   0  0  0  0  0  0
  -26.8174  -30.9063   21.9627 H   0  0  0  0  0  0
  -28.0940  -29.1278   21.1641 H   0  0  0  0  0  0
  -26.0740  -25.9747   19.0241 H   0  0  0  0  0  0
  -23.9746  -27.2871   19.0449 H   0  0  0  0  0  0
  -23.7048  -30.5935   19.3989 H   0  0  0  0  0  0
  -22.7316  -29.2339   19.8746 H   0  0  0  0  0  0
  -25.1280  -36.1994   25.0846 H   0  0  0  0  0  0
  -20.9960  -28.3234   24.1423 H   0  0  0  0  0  0
  -20.5648  -26.2273   23.3596 H   0  0  0  0  0  0
  -21.6638  -26.7417   22.1219 H   0  0  0  0  0  0
  -19.6917  -25.6333   21.1124 H   0  0  0  0  0  0
  -19.6644  -27.3222   20.6719 H   0  0  0  0  0  0
  -17.4195  -26.6731   21.3956 H   0  0  0  0  0  0
  -18.0252  -26.0018   22.8910 H   0  0  0  0  0  0
  -19.7881  -30.7210   24.2348 H   0  0  0  0  0  0
  -17.4934  -31.6202   24.5215 H   0  0  0  0  0  0
  -15.5323  -30.2951   23.7566 H   0  0  0  0  0  0
  -15.8670  -28.0766   22.7038 H   0  0  0  0  0  0
  -24.5970  -30.6931   25.7840 H   0  0  0  0  0  0
  -24.8917  -32.2784   26.4911 H   0  0  0  0  0  0
  -25.8152  -30.8844   27.0235 H   0  0  0  0  0  0
  -26.2719  -29.6807   24.1179 H   0  0  0  0  0  0
  -27.4190  -29.7265   25.4392 H   0  0  0  0  0  0
  -27.8520  -30.4343   23.8987 H   0  0  0  0  0  0
  -27.2668  -33.3557   26.2090 H   0  0  0  0  0  0
  -28.3876  -32.6845   25.0332 H   0  0  0  0  0  0
  -28.0705  -31.8362   26.5398 H   0  0  0  0  0  0
  -28.2607  -38.0105   24.7492 H   0  0  0  0  0  0
  -28.1077  -36.2644   24.6310 H   0  0  0  0  0  0
  -27.2302  -37.1477   25.8871 H   0  0  0  0  0  0
  -20.9251  -29.8655   21.6851 H   0  0  0  0  0  0
  -26.0184  -38.2874   24.1391 H   0  0  0  0  0  0
  -29.6255  -20.3831   19.0909 H   0  0  0  0  0  0
  -25.1893  -19.8622   24.9582 H   0  0  0  0  0  0
  -25.1889  -18.1069   24.8007 H   0  0  0  0  0  0
  -24.1723  -19.0816   23.7501 H   0  0  0  0  0  0
  -27.5959  -20.6249   25.2357 H   0  0  0  0  0  0
  -28.6163  -20.9624   23.8599 H   0  0  0  0  0  0
  -29.1838  -19.8988   25.1228 H   0  0  0  0  0  0
  -26.0007  -21.7999   20.4265 H   0  0  0  0  0  0
  -26.4622  -23.4519   20.1121 H   0  0  0  0  0  0
  -26.3290  -22.8835   21.7755 H   0  0  0  0  0  0
  -26.2098  -20.0737   22.6800 H   0  0  0  0  0  0
  -26.1106  -18.3528   22.4652 H   0  0  0  0  0  0
  -30.0758  -22.6748   21.4273 H   0  0  0  0  0  0
  -28.8468  -23.3630   22.4366 H   0  0  0  0  0  0
  -28.5572  -26.0323   22.0501 H   0  0  0  0  0  0
  -27.3278  -25.2258   21.1278 H   0  0  0  0  0  0
  -30.6679  -16.6696   22.9408 H   0  0  0  0  0  0
  -31.7411  -16.6925   21.5740 H   0  0  0  0  0  0
  -27.5047  -18.2577   24.6905 H   0  0  0  0  0  0
  -28.4051  -22.0535   19.6973 H   0  0  0  0  0  0
  -29.2863  -24.3650   19.5762 H   0  0  0  0  0  0
  -27.8256  -20.8430   22.3384 H   0  0  0  0  0  0
  -29.3123  -14.9741   21.9367 H   0  0  0  0  0  0
  -30.6218  -25.2722   21.8960 H   0  0  0  0  0  0
  1 25  1  0  0  0
  1 30  2  0  0  0
  1 87  1  0  0  0
  2  3  1  0  0  0
  2 25  1  0  0  0
  2 90  1  0  0  0
  2 91  1  0  0  0
  3  4  1  0  0  0
  3 92  1  0  0  0
  3 93  1  0  0  0
  4  5  1  0  0  0
  4 94  1  0  0  0
  4 95  1  0  0  0
  5  6  1  0  0  0
  5 26  1  0  0  0
  5 96  1  0  0  0
  6 25  1  0  0  0
  6 97  1  0  0  0
  6 98  1  0  0  0
  7  8  2  0  0  0
  7 26  1  0  0  0
  7 29  1  0  0  0
  8  9  1  0  0  0
  8 22  1  0  0  0
  9 10  1  0  0  0
  9 27  2  0  0  0
 10 11  2  0  0  0
 10 15  1  0  0  0
 11 12  1  0  0  0
 11 99  1  0  0  0
 12 13  2  0  0  0
 12100  1  0  0  0
 13 14  1  0  0  0
 13 31  1  0  0  0
 14 15  2  0  0  0
 14101  1  0  0  0
 15102  1  0  0  0
 16 17  2  0  0  0
 16 21  1  0  0  0
 16 31  1  0  0  0
 17 18  1  0  0  0
 17103  1  0  0  0
 18 19  2  0  0  0
 18104  1  0  0  0
 19 20  1  0  0  0
 19 24  1  0  0  0
 20 21  2  0  0  0
 20105  1  0  0  0
 21 23  1  0  0  0
 22 28  1  0  0  0
 22 32  2  0  0  0
 26 27  1  0  0  0
 28106  1  0  0  0
 28107  1  0  0  0
 29108  1  0  0  0
 29109  1  0  0  0
 33 34  1  0  0  0
 33 66  1  0  0  0
 33 70  2  0  0  0
 34 36  1  0  0  0
 34 59  1  0  0  0
 34110  1  0  0  0
 35 44  2  0  0  0
 35 45  1  0  0  0
 35 68  1  0  0  0
 36 56  1  0  0  0
 36111  1  0  0  0
 37 39  1  0  0  0
 37 47  1  0  0  0
 37 66  1  0  0  0
 37112  1  0  0  0
 38 43  2  0  0  0
 38 46  1  0  0  0
 38 47  1  0  0  0
 39 64  1  0  0  0
 39 67  2  0  0  0
 40 52  1  0  0  0
 40 53  2  0  0  0
 40 58  1  0  0  0
 41113  1  0  0  0
 41114  1  0  0  0
 41115  1  0  0  0
 41 48  1  0  0  0
 42 43  1  0  0  0
 42 66  1  0  0  0
 42116  1  0  0  0
 42117  1  0  0  0
 43 44  1  0  0  0
 44118  1  0  0  0
 45 46  2  0  0  0
 45119  1  0  0  0
 46120  1  0  0  0
 47121  1  0  0  0
 47122  1  0  0  0
 48 56  1  0  0  0
 48 65  1  0  0  0
 48123  1  0  0  0
 49 50  1  0  0  0
 49 53  1  0  0  0
 49 64  1  0  0  0
 49124  1  0  0  0
 50 51  1  0  0  0
 50125  1  0  0  0
 50126  1  0  0  0
 51 52  1  0  0  0
 51127  1  0  0  0
 51128  1  0  0  0
 52129  1  0  0  0
 52130  1  0  0  0
 53 54  1  0  0  0
 54 55  2  0  0  0
 54131  1  0  0  0
 55 57  1  0  0  0
 55132  1  0  0  0
 56 69  2  0  0  0
 57 58  2  0  0  0
 57133  1  0  0  0
 58134  1  0  0  0
 59 60  1  0  0  0
 59 61  1  0  0  0
 59 62  1  0  0  0
 60135  1  0  0  0
 60136  1  0  0  0
 60137  1  0  0  0
 61138  1  0  0  0
 61139  1  0  0  0
 61140  1  0  0  0
 62141  1  0  0  0
 62142  1  0  0  0
 62143  1  0  0  0
 63 65  1  0  0  0
 63144  1  0  0  0
 63145  1  0  0  0
 63146  1  0  0  0
 64147  1  0  0  0
 65148  1  0  0  0
 68 79  1  0  0  0
 71 72  2  0  0  0
 71 89  1  0  0  0
 71149  1  0  0  0
 72 73  1  0  0  0
 72 86  1  0  0  0
 73 84  2  0  0  0
 73 85  1  0  0  0
 74 77  1  0  0  0
 74150  1  0  0  0
 74151  1  0  0  0
 74152  1  0  0  0
 75153  1  0  0  0
 75154  1  0  0  0
 75155  1  0  0  0
 75 81  1  0  0  0
 76156  1  0  0  0
 76157  1  0  0  0
 76158  1  0  0  0
 76 82  1  0  0  0
 77 81  1  0  0  0
 77159  1  0  0  0
 77160  1  0  0  0
 78 82  1  0  0  0
 78 83  1  0  0  0
 78161  1  0  0  0
 78162  1  0  0  0
 79 83  1  0  0  0
 79163  1  0  0  0
 79164  1  0  0  0
 80 85  1  0  0  0
 80 87  1  0  0  0
 80165  1  0  0  0
 80166  1  0  0  0
 81 84  1  0  0  0
 81167  1  0  0  0
 82 86  1  0  0  0
 82168  1  0  0  0
 83 88  1  0  0  0
 83169  1  0  0  0
 85 89  1  0  0  0
 86170  1  0  0  0
 87171  1  0  0  0
 88172  1  0  0  0
M  ISO  4   1 100  68 101  79 101  87 100
M  END
> <chiral flag>
0

> <version>
0

> <s_m_source_file>
/data/baiqing/PycharmProjects/Reinvent-master-3.2/result/LINK_invent/BTK/process_docking_weight1_custom_product_contain_oxygen_bond_distance_aromatic_linkinvent_7_9_3/rearranged_h_0196.sdf

> <i_m_source_file_index>
86

> <r_mmod_Potential_Energy-OPLS-2005>
-74.5192184448242

> <r_mmod_Stretch_Energy-OPLS-2005>
36.8247528076172

> <r_mmod_Bend_Energy-OPLS-2005>
164.461196899414

> <r_mmod_Torsional_Energy-OPLS-2005>
216.923721313477

> <r_mmod_Improper_Torsional_Energy-OPLS-2005>
2.88722252845764

> <r_mmod_Van_der_Waal_Energy-OPLS-2005>
129.379730224609

> <r_mmod_Electrostatic_Energy-OPLS-2005>
-412.031005859375

> <r_mmod_Solvation_Energy-OPLS-2005>
-220.683639526367

> <b_mmod_Minimization_Converged-OPLS-2005>
0

> <r_mmod_RMS_Derivative-OPLS-2005>
3.17700862884521

$$$$
86
                    3D
 Structure written by MMmdl.
155163  0  0  1  0            999 V2000
  -30.7280  -14.4234   20.5976 C   0  0  0  0  0  0
  -30.4085  -12.2919   19.4053 C   0  0  0  0  0  0
  -29.4797  -12.5096   18.1951 C   0  0  0  0  0  0
  -28.0031  -12.3777   18.6122 C   0  0  0  0  0  0
  -27.6587  -13.2079   19.8781 C   0  0  2  0  0  0
  -28.7004  -12.9735   20.9938 C   0  0  0  0  0  0
  -25.2576  -13.8157   20.5694 C   0  0  0  0  0  0
  -24.1844  -13.0436   20.9192 C   0  0  0  0  0  0
  -24.6406  -11.6903   20.8760 C   0  0  0  0  0  0
  -23.9078  -10.4290   21.0415 C   0  0  0  0  0  0
  -24.3633   -9.4204   21.9187 C   0  0  0  0  0  0
  -23.6303   -8.2248   22.0770 C   0  0  0  0  0  0
  -22.4285   -8.0294   21.3563 C   0  0  0  0  0  0
  -21.9920   -9.0261   20.4659 C   0  0  0  0  0  0
  -22.7252  -10.2134   20.3061 C   0  0  0  0  0  0
  -21.6860   -6.0739   22.5275 C   0  0  0  0  0  0
  -21.4015   -6.5644   23.8202 C   0  0  0  0  0  0
  -21.3660   -5.6802   24.9172 C   0  0  0  0  0  0
  -21.6045   -4.3062   24.7230 C   0  0  0  0  0  0
  -21.8817   -3.8151   23.4351 C   0  0  0  0  0  0
  -21.9199   -4.6966   22.3401 C   0  0  0  0  0  0
  -22.7864  -13.5229   21.1835 C   0  0  0  0  0  0
  -22.1664   -4.2153   21.0981 F   0  0  0  0  0  0
  -21.5628   -3.4545   25.7741 F   0  0  0  0  0  0
  -30.0294  -13.2691   20.4348 N   0  0  0  0  0  0
  -26.3017  -12.9340   20.3408 N   0  0  0  0  0  0
  -25.9325  -11.6497   20.5797 N   0  0  0  0  0  0
  -22.0515  -12.8234   22.0400 N   0  0  0  0  0  0
  -25.4283  -15.1884   20.4111 N   0  0  0  0  0  0
  -31.8448  -14.5997   20.0967 O   0  0  0  0  0  0
  -21.6651   -6.8894   21.4247 O   0  0  0  0  0  0
  -22.3548  -14.5535   20.6670 O   0  0  0  0  0  0
  -24.6139  -31.8697   23.2125 C   0  0  0  0  0  0
  -25.9035  -32.4838   23.8414 C   0  0  1  0  0  0
  -27.2284  -27.4451   20.0694 C   0  0  0  0  0  0
  -25.5891  -33.8631   24.2343 N   0  0  0  0  0  0
  -23.3997  -30.4958   21.5550 C   0  0  2  0  0  0
  -24.8411  -28.9648   20.1142 C   0  0  0  0  0  0
  -22.7407  -29.4666   22.5007 C   0  0  0  0  0  0
  -18.0272  -28.1376   22.8506 C   0  0  0  0  0  0
  -24.1475  -36.7316   23.2639 C   0  0  0  0  0  0
  -25.9290  -30.8347   21.3668 C   0  0  0  0  0  0
  -26.0021  -29.4709   20.7108 C   0  0  0  0  0  0
  -27.1945  -28.7128   20.6950 C   0  0  0  0  0  0
  -26.0386  -26.9422   19.4931 C   0  0  0  0  0  0
  -24.8522  -27.6973   19.5090 C   0  0  0  0  0  0
  -23.6052  -29.8333   20.1672 C   0  0  0  0  0  0
  -25.4099  -36.3119   24.0341 C   0  0  1  0  0  0
  -20.5861  -28.3657   23.1334 C   0  0  2  0  0  0
  -20.6756  -26.9393   22.5429 C   0  0  0  0  0  0
  -19.5733  -26.6381   21.5225 C   0  0  0  0  0  0
  -18.1911  -26.7928   22.1627 C   0  0  0  0  0  0
  -19.1520  -28.8836   23.2916 C   0  0  0  0  0  0
  -18.9446  -30.1446   23.8919 C   0  0  0  0  0  0
  -17.6447  -30.6584   24.0568 C   0  0  0  0  0  0
  -25.9032  -34.9483   23.5143 C   0  0  0  0  0  0
  -16.5341  -29.9088   23.6323 C   0  0  0  0  0  0
  -16.7262  -28.6502   23.0356 C   0  0  0  0  0  0
  -26.4450  -31.6623   25.0749 C   0  0  0  0  0  0
  -25.3713  -31.3726   26.1499 C   0  0  0  0  0  0
  -27.0276  -30.3062   24.6131 C   0  0  0  0  0  0
  -27.6038  -32.4328   25.7508 C   0  0  0  0  0  0
  -27.5584  -37.1803   24.8456 C   0  0  0  0  0  0
  -21.4134  -29.3029   22.3747 N   0  0  0  0  0  0
  -26.4285  -37.3809   23.9420 N   0  0  0  0  0  0
  -24.6661  -31.0804   22.1030 N   0  0  0  0  0  0
  -23.4188  -28.8199   23.3038 O   0  0  0  0  0  0
  -28.4043  -26.7236   20.0896 O   0  0  0  0  0  0
  -26.5595  -34.8933   22.4706 O   0  0  0  0  0  0
  -23.5336  -32.1448   23.7526 O   0  0  0  0  0  0
  -31.8333  -16.8054   22.2098 C   0  0  0  0  0  0
  -30.6318  -16.6824   21.5554 C   0  0  0  0  0  0
  -30.7619  -18.9420   21.6637 C   0  0  0  0  0  0
  -29.7201  -24.7998   19.3836 C   0  0  0  0  0  0
  -29.0554  -23.5045   19.9109 C   0  0  0  0  0  0
  -29.4659  -21.0995   20.8299 C   0  0  0  0  0  0
  -28.7337  -25.9042   18.9640 C   0  0  0  0  0  0
  -30.0713  -22.4692   20.4448 C   0  0  1  0  0  0
  -29.9978  -17.9089   21.2832 N   0  0  0  0  0  0
  -30.0754  -15.4199   21.2252 N   0  0  0  0  0  0
  -30.4857  -20.2872   21.4807 N   0  0  0  0  0  0
  -31.0485  -22.2062   19.4529 O   0  0  0  0  0  0
  -32.2600  -18.4713   22.4574 S   0  0  0  0  0  0
  -31.4533  -12.3807   19.0988 H   0  0  0  0  0  0
  -30.3008  -11.2791   19.7957 H   0  0  0  0  0  0
  -29.7070  -11.7911   17.4066 H   0  0  0  0  0  0
  -29.6549  -13.5000   17.7675 H   0  0  0  0  0  0
  -27.8029  -11.3218   18.7955 H   0  0  0  0  0  0
  -27.3520  -12.6682   17.7878 H   0  0  0  0  0  0
  -27.7064  -14.2596   19.5938 H   0  0  0  0  0  0
  -28.6697  -11.9348   21.3278 H   0  0  0  0  0  0
  -28.4719  -13.5689   21.8781 H   0  0  0  0  0  0
  -25.2776   -9.5680   22.4763 H   0  0  0  0  0  0
  -24.0002   -7.4651   22.7501 H   0  0  0  0  0  0
  -21.0851   -8.8810   19.8961 H   0  0  0  0  0  0
  -22.3730  -10.9695   19.6187 H   0  0  0  0  0  0
  -21.2011   -7.6153   23.9706 H   0  0  0  0  0  0
  -21.1473   -6.0537   25.9073 H   0  0  0  0  0  0
  -22.0594   -2.7610   23.2857 H   0  0  0  0  0  0
  -22.4137  -11.9880   22.4770 H   0  0  0  0  0  0
  -21.1140  -13.1273   22.2617 H   0  0  0  0  0  0
  -24.6585  -15.8417   20.5120 H   0  0  0  0  0  0
  -26.2799  -15.6282   20.0837 H   0  0  0  0  0  0
  -26.7112  -32.5547   23.1188 H   0  0  0  0  0  0
  -25.0023  -33.9800   25.0473 H   0  0  0  0  0  0
  -22.6879  -31.3117   21.4204 H   0  0  0  0  0  0
  -23.3757  -35.9626   23.3267 H   0  0  0  0  0  0
  -24.3568  -36.8972   22.2059 H   0  0  0  0  0  0
  -23.7187  -37.6493   23.6677 H   0  0  0  0  0  0
  -26.0447  -31.6020   20.6006 H   0  0  0  0  0  0
  -26.8164  -30.8831   21.9863 H   0  0  0  0  0  0
  -28.0921  -29.0998   21.1572 H   0  0  0  0  0  0
  -25.9891  -25.9587   19.0516 H   0  0  0  0  0  0
  -23.9529  -27.2949   19.0634 H   0  0  0  0  0  0
  -23.7145  -30.6121   19.4109 H   0  0  0  0  0  0
  -22.7269  -29.2567   19.8697 H   0  0  0  0  0  0
  -25.1265  -36.1992   25.0832 H   0  0  0  0  0  0
  -20.9951  -28.3216   24.1452 H   0  0  0  0  0  0
  -20.5660  -26.2265   23.3615 H   0  0  0  0  0  0
  -21.6629  -26.7431   22.1222 H   0  0  0  0  0  0
  -19.6888  -25.6294   21.1245 H   0  0  0  0  0  0
  -19.6675  -27.3201   20.6760 H   0  0  0  0  0  0
  -17.4188  -26.6718   21.4010 H   0  0  0  0  0  0
  -18.0274  -26.0054   22.8998 H   0  0  0  0  0  0
  -19.7920  -30.7261   24.2298 H   0  0  0  0  0  0
  -17.4999  -31.6263   24.5164 H   0  0  0  0  0  0
  -15.5344  -30.2997   23.7618 H   0  0  0  0  0  0
  -15.8666  -28.0820   22.7062 H   0  0  0  0  0  0
  -24.5890  -30.7066   25.7830 H   0  0  0  0  0  0
  -24.8903  -32.2888   26.4941 H   0  0  0  0  0  0
  -25.8067  -30.8896   27.0264 H   0  0  0  0  0  0
  -26.2829  -29.6841   24.1156 H   0  0  0  0  0  0
  -27.4004  -29.7271   25.4593 H   0  0  0  0  0  0
  -27.8680  -30.4364   23.9310 H   0  0  0  0  0  0
  -27.2675  -33.3629   26.2096 H   0  0  0  0  0  0
  -28.3847  -32.6881   25.0334 H   0  0  0  0  0  0
  -28.0709  -31.8446   26.5421 H   0  0  0  0  0  0
  -28.2582  -38.0122   24.7557 H   0  0  0  0  0  0
  -28.1106  -36.2662   24.6213 H   0  0  0  0  0  0
  -27.2320  -37.1373   25.8863 H   0  0  0  0  0  0
  -20.9293  -29.8773   21.6988 H   0  0  0  0  0  0
  -26.0180  -38.2882   24.1456 H   0  0  0  0  0  0
  -32.5042  -16.0252   22.5430 H   0  0  0  0  0  0
  -30.3207  -24.5441   18.5098 H   0  0  0  0  0  0
  -30.4221  -25.1954   20.1186 H   0  0  0  0  0  0
  -28.4477  -23.0593   19.1230 H   0  0  0  0  0  0
  -28.3605  -23.7635   20.7124 H   0  0  0  0  0  0
  -29.0623  -20.5807   19.9588 H   0  0  0  0  0  0
  -28.6378  -21.2424   21.5253 H   0  0  0  0  0  0
  -27.8906  -25.4443   18.4536 H   0  0  0  0  0  0
  -29.2114  -26.5529   18.2292 H   0  0  0  0  0  0
  -30.5669  -22.9065   21.3144 H   0  0  0  0  0  0
  -29.0986  -15.2730   21.4268 H   0  0  0  0  0  0
  -31.2725  -20.8628   21.7677 H   0  0  0  0  0  0
  -30.6330  -21.6917   18.7683 H   0  0  0  0  0  0
  1 25  1  0  0  0
  1 30  2  0  0  0
  1 80  1  0  0  0
  2  3  1  0  0  0
  2 25  1  0  0  0
  2 84  1  0  0  0
  2 85  1  0  0  0
  3  4  1  0  0  0
  3 86  1  0  0  0
  3 87  1  0  0  0
  4  5  1  0  0  0
  4 88  1  0  0  0
  4 89  1  0  0  0
  5  6  1  0  0  0
  5 26  1  0  0  0
  5 90  1  0  0  0
  6 25  1  0  0  0
  6 91  1  0  0  0
  6 92  1  0  0  0
  7  8  2  0  0  0
  7 26  1  0  0  0
  7 29  1  0  0  0
  8  9  1  0  0  0
  8 22  1  0  0  0
  9 10  1  0  0  0
  9 27  2  0  0  0
 10 11  2  0  0  0
 10 15  1  0  0  0
 11 12  1  0  0  0
 11 93  1  0  0  0
 12 13  2  0  0  0
 12 94  1  0  0  0
 13 14  1  0  0  0
 13 31  1  0  0  0
 14 15  2  0  0  0
 14 95  1  0  0  0
 15 96  1  0  0  0
 16 17  2  0  0  0
 16 21  1  0  0  0
 16 31  1  0  0  0
 17 18  1  0  0  0
 17 97  1  0  0  0
 18 19  2  0  0  0
 18 98  1  0  0  0
 19 20  1  0  0  0
 19 24  1  0  0  0
 20 21  2  0  0  0
 20 99  1  0  0  0
 21 23  1  0  0  0
 22 28  1  0  0  0
 22 32  2  0  0  0
 26 27  1  0  0  0
 28100  1  0  0  0
 28101  1  0  0  0
 29102  1  0  0  0
 29103  1  0  0  0
 33 34  1  0  0  0
 33 66  1  0  0  0
 33 70  2  0  0  0
 34 36  1  0  0  0
 34 59  1  0  0  0
 34104  1  0  0  0
 35 44  2  0  0  0
 35 45  1  0  0  0
 35 68  1  0  0  0
 36 56  1  0  0  0
 36105  1  0  0  0
 37 39  1  0  0  0
 37 47  1  0  0  0
 37 66  1  0  0  0
 37106  1  0  0  0
 38 43  2  0  0  0
 38 46  1  0  0  0
 38 47  1  0  0  0
 39 64  1  0  0  0
 39 67  2  0  0  0
 40 52  1  0  0  0
 40 53  2  0  0  0
 40 58  1  0  0  0
 41107  1  0  0  0
 41108  1  0  0  0
 41109  1  0  0  0
 41 48  1  0  0  0
 42 43  1  0  0  0
 42 66  1  0  0  0
 42110  1  0  0  0
 42111  1  0  0  0
 43 44  1  0  0  0
 44112  1  0  0  0
 45 46  2  0  0  0
 45113  1  0  0  0
 46114  1  0  0  0
 47115  1  0  0  0
 47116  1  0  0  0
 48 56  1  0  0  0
 48 65  1  0  0  0
 48117  1  0  0  0
 49 50  1  0  0  0
 49 53  1  0  0  0
 49 64  1  0  0  0
 49118  1  0  0  0
 50 51  1  0  0  0
 50119  1  0  0  0
 50120  1  0  0  0
 51 52  1  0  0  0
 51121  1  0  0  0
 51122  1  0  0  0
 52123  1  0  0  0
 52124  1  0  0  0
 53 54  1  0  0  0
 54 55  2  0  0  0
 54125  1  0  0  0
 55 57  1  0  0  0
 55126  1  0  0  0
 56 69  2  0  0  0
 57 58  2  0  0  0
 57127  1  0  0  0
 58128  1  0  0  0
 59 60  1  0  0  0
 59 61  1  0  0  0
 59 62  1  0  0  0
 60129  1  0  0  0
 60130  1  0  0  0
 60131  1  0  0  0
 61132  1  0  0  0
 61133  1  0  0  0
 61134  1  0  0  0
 62135  1  0  0  0
 62136  1  0  0  0
 62137  1  0  0  0
 63 65  1  0  0  0
 63138  1  0  0  0
 63139  1  0  0  0
 63140  1  0  0  0
 64141  1  0  0  0
 65142  1  0  0  0
 68 77  1  0  0  0
 71 72  2  0  0  0
 71 83  1  0  0  0
 71143  1  0  0  0
 72 79  1  0  0  0
 72 80  1  0  0  0
 73 79  2  0  0  0
 73 81  1  0  0  0
 73 83  1  0  0  0
 74 75  1  0  0  0
 74 77  1  0  0  0
 74144  1  0  0  0
 74145  1  0  0  0
 75 78  1  0  0  0
 75146  1  0  0  0
 75147  1  0  0  0
 76 78  1  0  0  0
 76 81  1  0  0  0
 76148  1  0  0  0
 76149  1  0  0  0
 77150  1  0  0  0
 77151  1  0  0  0
 78 82  1  0  0  0
 78152  1  0  0  0
 80153  1  0  0  0
 81154  1  0  0  0
 82155  1  0  0  0
M  ISO  4   1 100  68 101  77 101  80 100
M  END
> <chiral flag>
0

> <version>
0

> <s_m_source_file>
/data/baiqing/PycharmProjects/Reinvent-master-3.2/result/LINK_invent/BTK/process_docking_weight1_custom_product_contain_oxygen_bond_distance_aromatic_linkinvent_7_9_3/rearranged_h_0196.sdf

> <i_m_source_file_index>
87

> <r_mmod_Potential_Energy-OPLS-2005>
-204.621627807617

> <r_mmod_Stretch_Energy-OPLS-2005>
31.9744186401367

> <r_mmod_Bend_Energy-OPLS-2005>
100.27490234375

> <r_mmod_Torsional_Energy-OPLS-2005>
243.02294921875

> <r_mmod_Improper_Torsional_Energy-OPLS-2005>
3.31717967987061

> <r_mmod_Van_der_Waal_Energy-OPLS-2005>
136.765533447266

> <r_mmod_Electrostatic_Energy-OPLS-2005>
-493.654998779297

> <r_mmod_Solvation_Energy-OPLS-2005>
-237.079071044922

> <b_mmod_Minimization_Converged-OPLS-2005>
0

> <r_mmod_RMS_Derivative-OPLS-2005>
2.27344584465027

$$$$
87
                    3D
 Structure written by MMmdl.
166174  0  0  1  0            999 V2000
  -30.6386  -15.0165   20.4695 C   0  0  0  0  0  0
  -30.4399  -12.6301   19.5709 C   0  0  0  0  0  0
  -29.5521  -12.5736   18.3020 C   0  0  0  0  0  0
  -28.0793  -12.3604   18.6894 C   0  0  0  0  0  0
  -27.6432  -13.2798   19.8615 C   0  0  2  0  0  0
  -28.6852  -13.3669   21.0144 C   0  0  0  0  0  0
  -25.2510  -13.8268   20.5782 C   0  0  0  0  0  0
  -24.1789  -13.0428   20.9201 C   0  0  0  0  0  0
  -24.6449  -11.6952   20.8710 C   0  0  0  0  0  0
  -23.9121  -10.4290   21.0339 C   0  0  0  0  0  0
  -24.3629   -9.4200   21.9144 C   0  0  0  0  0  0
  -23.6296   -8.2242   22.0752 C   0  0  0  0  0  0
  -22.4292   -8.0299   21.3537 C   0  0  0  0  0  0
  -21.9931   -9.0274   20.4632 C   0  0  0  0  0  0
  -22.7270  -10.2135   20.3019 C   0  0  0  0  0  0
  -21.6850   -6.0742   22.5283 C   0  0  0  0  0  0
  -21.4023   -6.5640   23.8217 C   0  0  0  0  0  0
  -21.3660   -5.6780   24.9163 C   0  0  0  0  0  0
  -21.6053   -4.3045   24.7203 C   0  0  0  0  0  0
  -21.8812   -3.8147   23.4314 C   0  0  0  0  0  0
  -21.9178   -4.6970   22.3384 C   0  0  0  0  0  0
  -22.7818  -13.5169   21.1841 C   0  0  0  0  0  0
  -22.1633   -4.2158   21.0963 F   0  0  0  0  0  0
  -21.5613   -3.4511   25.7716 F   0  0  0  0  0  0
  -29.9857  -13.7634   20.4467 N   0  0  0  0  0  0
  -26.3004  -12.9536   20.3380 N   0  0  0  0  0  0
  -25.9433  -11.6627   20.5736 N   0  0  0  0  0  0
  -22.0480  -12.8199   22.0425 N   0  0  0  0  0  0
  -25.4122  -15.2000   20.4290 N   0  0  0  0  0  0
  -31.7462  -15.0463   19.9190 O   0  0  0  0  0  0
  -21.6635   -6.8897   21.4272 O   0  0  0  0  0  0
  -22.3498  -14.5434   20.6678 O   0  0  0  0  0  0
  -24.6484  -31.8461   23.1844 C   0  0  0  0  0  0
  -25.9241  -32.4707   23.8236 C   0  0  1  0  0  0
  -27.2360  -27.1423   20.1151 C   0  0  0  0  0  0
  -25.5990  -33.8497   24.2169 N   0  0  0  0  0  0
  -23.4495  -30.4650   21.5326 C   0  0  2  0  0  0
  -24.8942  -28.8915   20.1010 C   0  0  0  0  0  0
  -22.7648  -29.4515   22.4861 C   0  0  0  0  0  0
  -18.0290  -28.1421   22.8475 C   0  0  0  0  0  0
  -24.1501  -36.7287   23.2620 C   0  0  0  0  0  0
  -26.0027  -30.7156   21.3802 C   0  0  0  0  0  0
  -26.0751  -29.3265   20.7211 C   0  0  0  0  0  0
  -27.2457  -28.4730   20.7055 C   0  0  0  0  0  0
  -26.0273  -26.8161   19.4579 C   0  0  0  0  0  0
  -24.8859  -27.6543   19.4452 C   0  0  0  0  0  0
  -23.6742  -29.8027   20.1465 C   0  0  0  0  0  0
  -25.4106  -36.2994   24.0302 C   0  0  1  0  0  0
  -20.5926  -28.3688   23.1236 C   0  0  2  0  0  0
  -20.6764  -26.9394   22.5427 C   0  0  0  0  0  0
  -19.5688  -26.6296   21.5293 C   0  0  0  0  0  0
  -18.1913  -26.7893   22.1727 C   0  0  0  0  0  0
  -19.1582  -28.8884   23.2819 C   0  0  0  0  0  0
  -18.9494  -30.1490   23.8807 C   0  0  0  0  0  0
  -17.6500  -30.6615   24.0530 C   0  0  0  0  0  0
  -25.9085  -34.9404   23.5029 C   0  0  0  0  0  0
  -16.5383  -29.9136   23.6301 C   0  0  0  0  0  0
  -16.7269  -28.6564   23.0310 C   0  0  0  0  0  0
  -26.4543  -31.6503   25.0660 C   0  0  0  0  0  0
  -25.3748  -31.3701   26.1379 C   0  0  0  0  0  0
  -27.0368  -30.2872   24.6203 C   0  0  0  0  0  0
  -27.6054  -32.4295   25.7472 C   0  0  0  0  0  0
  -27.5549  -37.1822   24.8436 C   0  0  0  0  0  0
  -21.4332  -29.3034   22.3644 N   0  0  0  0  0  0
  -26.4246  -37.3734   23.9402 N   0  0  0  0  0  0
  -24.7200  -31.0310   22.0881 N   0  0  0  0  0  0
  -23.4311  -28.8055   23.2979 O   0  0  0  0  0  0
  -28.3089  -26.1676   20.1363 O   0  0  0  0  0  0
  -26.5676  -34.8920   22.4589 O   0  0  0  0  0  0
  -23.5605  -32.1288   23.7106 O   0  0  0  0  0  0
  -31.8766  -17.2171   22.4231 C   0  0  0  0  0  0
  -30.8094  -16.3409   22.4716 C   0  0  0  0  0  0
  -30.5388  -17.7380   20.7872 C   0  0  0  0  0  0
  -29.6036  -19.0508   20.9353 C   0  0  0  0  0  0
  -24.7041  -21.8440   19.9748 C   0  0  0  0  0  0
  -25.6435  -19.8699   21.1342 C   0  0  0  0  0  0
  -26.0212  -22.1756   22.0473 C   0  0  0  0  0  0
  -29.0753  -23.2813   20.0993 C   0  0  0  0  0  0
  -27.2098  -21.4128   19.8313 C   0  0  0  0  0  0
  -28.0389  -24.6317   20.2272 C   0  0  0  0  0  0
  -28.6371  -21.6574   20.4428 C   0  0  1  0  0  0
  -25.9377  -21.3339   20.7549 C   0  0  0  0  0  0
  -31.7457  -18.0381   21.2938 N   0  0  0  0  0  0
  -30.2302  -16.3723   21.1950 N   0  0  0  0  0  0
  -28.8304  -19.0314   22.0266 N   0  0  0  0  0  0
  -29.5654  -20.3345   20.2632 N   0  3  0  0  0  0
  -31.4887  -12.7246   19.2933 H   0  0  0  0  0  0
  -30.3702  -11.6943   20.1291 H   0  0  0  0  0  0
  -29.8831  -11.7736   17.6375 H   0  0  0  0  0  0
  -29.6486  -13.5037   17.7433 H   0  0  0  0  0  0
  -27.9541  -11.3171   18.9767 H   0  0  0  0  0  0
  -27.4337  -12.5167   17.8235 H   0  0  0  0  0  0
  -27.5775  -14.2739   19.4241 H   0  0  0  0  0  0
  -28.7723  -12.4147   21.5396 H   0  0  0  0  0  0
  -28.3682  -14.1040   21.7560 H   0  0  0  0  0  0
  -25.2734   -9.5697   22.4761 H   0  0  0  0  0  0
  -24.0006   -7.4612   22.7497 H   0  0  0  0  0  0
  -21.0857   -8.8787   19.8936 H   0  0  0  0  0  0
  -22.3702  -10.9687   19.6163 H   0  0  0  0  0  0
  -21.2059   -7.6146   23.9722 H   0  0  0  0  0  0
  -21.1487   -6.0498   25.9061 H   0  0  0  0  0  0
  -22.0606   -2.7626   23.2807 H   0  0  0  0  0  0
  -22.4042  -11.9875   22.4870 H   0  0  0  0  0  0
  -21.1142  -13.1329   22.2539 H   0  0  0  0  0  0
  -24.6441  -15.8510   20.5405 H   0  0  0  0  0  0
  -26.2637  -15.6616   20.1298 H   0  0  0  0  0  0
  -26.7337  -32.5306   23.1004 H   0  0  0  0  0  0
  -25.0144  -33.9599   25.0325 H   0  0  0  0  0  0
  -22.7493  -31.2891   21.3903 H   0  0  0  0  0  0
  -23.3738  -35.9651   23.3233 H   0  0  0  0  0  0
  -24.3553  -36.8955   22.2025 H   0  0  0  0  0  0
  -23.7333  -37.6496   23.6713 H   0  0  0  0  0  0
  -26.1552  -31.4654   20.6046 H   0  0  0  0  0  0
  -26.8776  -30.7718   22.0137 H   0  0  0  0  0  0
  -28.1499  -28.8129   21.1914 H   0  0  0  0  0  0
  -25.9265  -25.8900   18.9201 H   0  0  0  0  0  0
  -24.0032  -27.3309   18.9076 H   0  0  0  0  0  0
  -23.8165  -30.5866   19.4026 H   0  0  0  0  0  0
  -22.7859  -29.2583   19.8242 H   0  0  0  0  0  0
  -25.1332  -36.1759   25.0813 H   0  0  0  0  0  0
  -21.0000  -28.3265   24.1355 H   0  0  0  0  0  0
  -20.5718  -26.2343   23.3669 H   0  0  0  0  0  0
  -21.6625  -26.7410   22.1203 H   0  0  0  0  0  0
  -19.6775  -25.6161   21.1445 H   0  0  0  0  0  0
  -19.6528  -27.3018   20.6762 H   0  0  0  0  0  0
  -17.4176  -26.6642   21.4143 H   0  0  0  0  0  0
  -18.0226  -26.0111   22.9189 H   0  0  0  0  0  0
  -19.7995  -30.7307   24.2114 H   0  0  0  0  0  0
  -17.5096  -31.6270   24.5182 H   0  0  0  0  0  0
  -15.5403  -30.3060   23.7648 H   0  0  0  0  0  0
  -15.8651  -28.0901   22.7016 H   0  0  0  0  0  0
  -24.5970  -30.6998   25.7721 H   0  0  0  0  0  0
  -24.8934  -32.2899   26.4715 H   0  0  0  0  0  0
  -25.8070  -30.8937   27.0184 H   0  0  0  0  0  0
  -26.2921  -29.6650   24.1236 H   0  0  0  0  0  0
  -27.3978  -29.7118   25.4728 H   0  0  0  0  0  0
  -27.8851  -30.4056   23.9469 H   0  0  0  0  0  0
  -27.2587  -33.3624   26.1936 H   0  0  0  0  0  0
  -28.3914  -32.6814   25.0351 H   0  0  0  0  0  0
  -28.0661  -31.8495   26.5461 H   0  0  0  0  0  0
  -28.2580  -38.0125   24.7491 H   0  0  0  0  0  0
  -28.1088  -36.2664   24.6283 H   0  0  0  0  0  0
  -27.2299  -37.1448   25.8858 H   0  0  0  0  0  0
  -20.9521  -29.8851   21.6947 H   0  0  0  0  0  0
  -26.0082  -38.2805   24.1405 H   0  0  0  0  0  0
  -32.7081  -17.3252   23.1204 H   0  0  0  0  0  0
  -30.6938  -15.4879   23.1372 H   0  0  0  0  0  0
  -23.8080  -21.8047   20.5952 H   0  0  0  0  0  0
  -24.5008  -21.2536   19.0793 H   0  0  0  0  0  0
  -24.8202  -22.8841   19.6682 H   0  0  0  0  0  0
  -24.7638  -19.7791   21.7702 H   0  0  0  0  0  0
  -26.4610  -19.4098   21.6714 H   0  0  0  0  0  0
  -25.4488  -19.2658   20.2485 H   0  0  0  0  0  0
  -25.1051  -22.0832   22.6326 H   0  0  0  0  0  0
  -26.1097  -23.2329   21.8264 H   0  0  0  0  0  0
  -26.8318  -21.8811   22.7103 H   0  0  0  0  0  0
  -29.9293  -23.5131   20.7355 H   0  0  0  0  0  0
  -29.4830  -23.3004   19.0839 H   0  0  0  0  0  0
  -27.2236  -20.4980   19.2400 H   0  0  0  0  0  0
  -27.0308  -22.1805   19.0813 H   0  0  0  0  0  0
  -27.6049  -24.5544   21.2201 H   0  0  0  0  0  0
  -27.2410  -24.4165   19.5245 H   0  0  0  0  0  0
  -28.5301  -21.6745   21.5193 H   0  0  0  0  0  0
  -28.9829  -18.3200   22.7207 H   0  0  0  0  0  0
  -28.3476  -19.8571   22.3244 H   0  0  0  0  0  0
  -30.1617  -20.3614   19.4415 H   0  0  0  0  0  0
  1 25  1  0  0  0
  1 30  2  0  0  0
  1 84  1  0  0  0
  2  3  1  0  0  0
  2 25  1  0  0  0
  2 87  1  0  0  0
  2 88  1  0  0  0
  3  4  1  0  0  0
  3 89  1  0  0  0
  3 90  1  0  0  0
  4  5  1  0  0  0
  4 91  1  0  0  0
  4 92  1  0  0  0
  5  6  1  0  0  0
  5 26  1  0  0  0
  5 93  1  0  0  0
  6 25  1  0  0  0
  6 94  1  0  0  0
  6 95  1  0  0  0
  7  8  2  0  0  0
  7 26  1  0  0  0
  7 29  1  0  0  0
  8  9  1  0  0  0
  8 22  1  0  0  0
  9 10  1  0  0  0
  9 27  2  0  0  0
 10 11  2  0  0  0
 10 15  1  0  0  0
 11 12  1  0  0  0
 11 96  1  0  0  0
 12 13  2  0  0  0
 12 97  1  0  0  0
 13 14  1  0  0  0
 13 31  1  0  0  0
 14 15  2  0  0  0
 14 98  1  0  0  0
 15 99  1  0  0  0
 16 17  2  0  0  0
 16 21  1  0  0  0
 16 31  1  0  0  0
 17 18  1  0  0  0
 17100  1  0  0  0
 18 19  2  0  0  0
 18101  1  0  0  0
 19 20  1  0  0  0
 19 24  1  0  0  0
 20 21  2  0  0  0
 20102  1  0  0  0
 21 23  1  0  0  0
 22 28  1  0  0  0
 22 32  2  0  0  0
 26 27  1  0  0  0
 28103  1  0  0  0
 28104  1  0  0  0
 29105  1  0  0  0
 29106  1  0  0  0
 33 34  1  0  0  0
 33 66  1  0  0  0
 33 70  2  0  0  0
 34 36  1  0  0  0
 34 59  1  0  0  0
 34107  1  0  0  0
 35 44  2  0  0  0
 35 45  1  0  0  0
 35 68  1  0  0  0
 36 56  1  0  0  0
 36108  1  0  0  0
 37 39  1  0  0  0
 37 47  1  0  0  0
 37 66  1  0  0  0
 37109  1  0  0  0
 38 43  2  0  0  0
 38 46  1  0  0  0
 38 47  1  0  0  0
 39 64  1  0  0  0
 39 67  2  0  0  0
 40 52  1  0  0  0
 40 53  2  0  0  0
 40 58  1  0  0  0
 41110  1  0  0  0
 41111  1  0  0  0
 41112  1  0  0  0
 41 48  1  0  0  0
 42 43  1  0  0  0
 42 66  1  0  0  0
 42113  1  0  0  0
 42114  1  0  0  0
 43 44  1  0  0  0
 44115  1  0  0  0
 45 46  2  0  0  0
 45116  1  0  0  0
 46117  1  0  0  0
 47118  1  0  0  0
 47119  1  0  0  0
 48 56  1  0  0  0
 48 65  1  0  0  0
 48120  1  0  0  0
 49 50  1  0  0  0
 49 53  1  0  0  0
 49 64  1  0  0  0
 49121  1  0  0  0
 50 51  1  0  0  0
 50122  1  0  0  0
 50123  1  0  0  0
 51 52  1  0  0  0
 51124  1  0  0  0
 51125  1  0  0  0
 52126  1  0  0  0
 52127  1  0  0  0
 53 54  1  0  0  0
 54 55  2  0  0  0
 54128  1  0  0  0
 55 57  1  0  0  0
 55129  1  0  0  0
 56 69  2  0  0  0
 57 58  2  0  0  0
 57130  1  0  0  0
 58131  1  0  0  0
 59 60  1  0  0  0
 59 61  1  0  0  0
 59 62  1  0  0  0
 60132  1  0  0  0
 60133  1  0  0  0
 60134  1  0  0  0
 61135  1  0  0  0
 61136  1  0  0  0
 61137  1  0  0  0
 62138  1  0  0  0
 62139  1  0  0  0
 62140  1  0  0  0
 63 65  1  0  0  0
 63141  1  0  0  0
 63142  1  0  0  0
 63143  1  0  0  0
 64144  1  0  0  0
 65145  1  0  0  0
 68 80  1  0  0  0
 71 72  2  0  0  0
 71 83  1  0  0  0
 71146  1  0  0  0
 72 84  1  0  0  0
 72147  1  0  0  0
 73 74  1  0  0  0
 73 83  2  0  0  0
 73 84  1  0  0  0
 74 85  1  0  0  0
 74 86  2  0  0  0
 75148  1  0  0  0
 75149  1  0  0  0
 75150  1  0  0  0
 75 82  1  0  0  0
 76 82  1  0  0  0
 76151  1  0  0  0
 76152  1  0  0  0
 76153  1  0  0  0
 77 82  1  0  0  0
 77154  1  0  0  0
 77155  1  0  0  0
 77156  1  0  0  0
 78 80  1  0  0  0
 78157  1  0  0  0
 78158  1  0  0  0
 78 81  1  0  0  0
 79 81  1  0  0  0
 79 82  1  0  0  0
 79159  1  0  0  0
 79160  1  0  0  0
 80161  1  0  0  0
 80162  1  0  0  0
 81 86  1  0  0  0
 81163  1  0  0  0
 85164  1  0  0  0
 85165  1  0  0  0
 86166  1  0  0  0
M  CHG  1  86   1
M  ISO  4   1 100  68 101  80 101  84 100
M  END
> <chiral flag>
0

> <version>
0

> <s_m_source_file>
/data/baiqing/PycharmProjects/Reinvent-master-3.2/result/LINK_invent/BTK/process_docking_weight1_custom_product_contain_oxygen_bond_distance_aromatic_linkinvent_7_9_3/rearranged_h_0196.sdf

> <i_m_source_file_index>
88

> <r_mmod_Potential_Energy-OPLS-2005>
864.236267089844

> <r_mmod_Stretch_Energy-OPLS-2005>
353.040557861328

> <r_mmod_Bend_Energy-OPLS-2005>
378.676483154297

> <r_mmod_Torsional_Energy-OPLS-2005>
425.772155761719

> <r_mmod_Improper_Torsional_Energy-OPLS-2005>
53.3295783996582

> <r_mmod_Van_der_Waal_Energy-OPLS-2005>
122.296691894531

> <r_mmod_Electrostatic_Energy-OPLS-2005>
-229.287155151367

> <r_mmod_Solvation_Energy-OPLS-2005>
-452.256225585938

> <b_mmod_Minimization_Converged-OPLS-2005>
0

> <r_mmod_RMS_Derivative-OPLS-2005>
10.2779817581177

$$$$
88
                    3D
 Structure written by MMmdl.
152160  0  0  1  0            999 V2000
  -30.5867  -14.7047   20.4797 C   0  0  0  0  0  0
  -30.4385  -12.4277   19.4611 C   0  0  0  0  0  0
  -29.5081  -12.5115   18.2292 C   0  0  0  0  0  0
  -28.0317  -12.3399   18.6407 C   0  0  0  0  0  0
  -27.6463  -13.2221   19.8572 C   0  0  2  0  0  0
  -28.6904  -13.0999   20.9893 C   0  0  0  0  0  0
  -25.2518  -13.8191   20.5673 C   0  0  0  0  0  0
  -24.1805  -13.0446   20.9218 C   0  0  0  0  0  0
  -24.6383  -11.6922   20.8765 C   0  0  0  0  0  0
  -23.9064  -10.4292   21.0421 C   0  0  0  0  0  0
  -24.3615   -9.4197   21.9186 C   0  0  0  0  0  0
  -23.6290   -8.2230   22.0744 C   0  0  0  0  0  0
  -22.4272   -8.0274   21.3536 C   0  0  0  0  0  0
  -21.9910   -9.0255   20.4640 C   0  0  0  0  0  0
  -22.7243  -10.2134   20.3058 C   0  0  0  0  0  0
  -21.6850   -6.0733   22.5288 C   0  0  0  0  0  0
  -21.4007   -6.5636   23.8222 C   0  0  0  0  0  0
  -21.3658   -5.6790   24.9182 C   0  0  0  0  0  0
  -21.6047   -4.3055   24.7233 C   0  0  0  0  0  0
  -21.8815   -3.8146   23.4356 C   0  0  0  0  0  0
  -21.9187   -4.6962   22.3411 C   0  0  0  0  0  0
  -22.7822  -13.5221   21.1896 C   0  0  0  0  0  0
  -22.1657   -4.2148   21.0989 F   0  0  0  0  0  0
  -21.5632   -3.4536   25.7744 F   0  0  0  0  0  0
  -30.0007  -13.4607   20.4263 N   0  0  0  0  0  0
  -26.2943  -12.9376   20.3289 N   0  0  0  0  0  0
  -25.9309  -11.6530   20.5764 N   0  0  0  0  0  0
  -22.0463  -12.8202   22.0451 N   0  0  0  0  0  0
  -25.4213  -15.1908   20.4025 N   0  0  0  0  0  0
  -31.7550  -14.8570   20.1016 O   0  0  0  0  0  0
  -21.6634   -6.8876   21.4247 O   0  0  0  0  0  0
  -22.3506  -14.5524   20.6747 O   0  0  0  0  0  0
  -24.6289  -31.8565   23.1991 C   0  0  0  0  0  0
  -25.9122  -32.4762   23.8330 C   0  0  1  0  0  0
  -27.2064  -27.2687   20.1264 C   0  0  0  0  0  0
  -25.5916  -33.8565   24.2261 N   0  0  0  0  0  0
  -23.4229  -30.4824   21.5401 C   0  0  2  0  0  0
  -24.8689  -28.9356   20.1032 C   0  0  0  0  0  0
  -22.7476  -29.4613   22.4874 C   0  0  0  0  0  0
  -18.0289  -28.1390   22.8464 C   0  0  0  0  0  0
  -24.1496  -36.7281   23.2640 C   0  0  0  0  0  0
  -25.9699  -30.7723   21.3777 C   0  0  0  0  0  0
  -26.0392  -29.3961   20.7193 C   0  0  0  0  0  0
  -27.2094  -28.5726   20.7248 C   0  0  0  0  0  0
  -26.0211  -26.8875   19.4569 C   0  0  0  0  0  0
  -24.8653  -27.6896   19.4601 C   0  0  0  0  0  0
  -23.6405  -29.8225   20.1535 C   0  0  0  0  0  0
  -25.4114  -36.3066   24.0331 C   0  0  1  0  0  0
  -20.5897  -28.3698   23.1260 C   0  0  2  0  0  0
  -20.6781  -26.9413   22.5405 C   0  0  0  0  0  0
  -19.5756  -26.6393   21.5198 C   0  0  0  0  0  0
  -18.1936  -26.7928   22.1619 C   0  0  0  0  0  0
  -19.1546  -28.8851   23.2863 C   0  0  0  0  0  0
  -18.9474  -30.1451   23.8887 C   0  0  0  0  0  0
  -17.6480  -30.6586   24.0563 C   0  0  0  0  0  0
  -25.9054  -34.9435   23.5098 C   0  0  0  0  0  0
  -16.5364  -29.9091   23.6331 C   0  0  0  0  0  0
  -16.7279  -28.6514   23.0330 C   0  0  0  0  0  0
  -26.4506  -31.6562   25.0701 C   0  0  0  0  0  0
  -25.3739  -31.3699   26.1430 C   0  0  0  0  0  0
  -27.0343  -30.2985   24.6150 C   0  0  0  0  0  0
  -27.6068  -32.4279   25.7469 C   0  0  0  0  0  0
  -27.5575  -37.1787   24.8466 C   0  0  0  0  0  0
  -21.4182  -29.3045   22.3636 N   0  0  0  0  0  0
  -26.4287  -37.3764   23.9417 N   0  0  0  0  0  0
  -24.6930  -31.0546   22.0956 N   0  0  0  0  0  0
  -23.4186  -28.8139   23.2958 O   0  0  0  0  0  0
  -28.2975  -26.3763   20.2185 O   0  0  0  0  0  0
  -26.5637  -34.8910   22.4681 O   0  0  0  0  0  0
  -23.5439  -32.1380   23.7291 O   0  0  0  0  0  0
  -30.4723  -19.3333   19.9425 C   0  0  0  0  0  0
  -29.4234  -19.7913   20.7238 C   0  0  0  0  0  0
  -29.8156  -17.2211   20.6796 C   0  0  0  0  0  0
  -29.0214  -21.1881   21.1308 C   0  0  0  0  0  0
  -30.3512  -24.3408   21.0998 C   0  0  0  0  0  0
  -28.1127  -24.9033   19.9664 C   0  0  0  0  0  0
  -28.9325  -23.8221   20.8338 C   0  0  1  0  0  0
  -30.6861  -17.9182   19.9252 N   0  0  0  0  0  0
  -28.6514  -21.3169   22.4134 N   0  0  0  0  0  0
  -29.7649  -15.7541   20.8383 N   0  0  0  0  0  0
  -29.0182  -22.3522   20.3661 N   0  3  0  0  0  0
  -28.6350  -18.3503   21.4258 S   0  0  0  0  0  0
  -31.4768  -12.5630   19.1560 H   0  0  0  0  0  0
  -30.3877  -11.4371   19.9160 H   0  0  0  0  0  0
  -29.7810  -11.7514   17.4955 H   0  0  0  0  0  0
  -29.6397  -13.4742   17.7342 H   0  0  0  0  0  0
  -27.8792  -11.2896   18.8898 H   0  0  0  0  0  0
  -27.3744  -12.5496   17.7957 H   0  0  0  0  0  0
  -27.6563  -14.2519   19.5005 H   0  0  0  0  0  0
  -28.7137  -12.0814   21.3798 H   0  0  0  0  0  0
  -28.4252  -13.7348   21.8349 H   0  0  0  0  0  0
  -25.2757   -9.5672   22.4760 H   0  0  0  0  0  0
  -24.0003   -7.4616   22.7450 H   0  0  0  0  0  0
  -21.0844   -8.8784   19.8940 H   0  0  0  0  0  0
  -22.3711  -10.9675   19.6168 H   0  0  0  0  0  0
  -21.1995   -7.6142   23.9728 H   0  0  0  0  0  0
  -21.1485   -6.0516   25.9086 H   0  0  0  0  0  0
  -22.0593   -2.7608   23.2861 H   0  0  0  0  0  0
  -22.4066  -11.9864   22.4852 H   0  0  0  0  0  0
  -21.1073  -13.1218   22.2646 H   0  0  0  0  0  0
  -24.6449  -15.8382   20.4837 H   0  0  0  0  0  0
  -26.2509  -15.6196   20.0146 H   0  0  0  0  0  0
  -26.7182  -32.5421   23.1055 H   0  0  0  0  0  0
  -25.0031  -33.9705   25.0383 H   0  0  0  0  0  0
  -22.7190  -31.3050   21.3955 H   0  0  0  0  0  0
  -23.3748  -35.9626   23.3315 H   0  0  0  0  0  0
  -24.3590  -36.8893   22.2054 H   0  0  0  0  0  0
  -23.7273  -37.6492   23.6662 H   0  0  0  0  0  0
  -26.1097  -31.5314   20.6069 H   0  0  0  0  0  0
  -26.8488  -30.8226   22.0089 H   0  0  0  0  0  0
  -28.1015  -28.9126   21.2323 H   0  0  0  0  0  0
  -25.9505  -25.9486   18.9288 H   0  0  0  0  0  0
  -23.9727  -27.3378   18.9610 H   0  0  0  0  0  0
  -23.7656  -30.6019   19.4009 H   0  0  0  0  0  0
  -22.7575  -29.2588   19.8462 H   0  0  0  0  0  0
  -25.1299  -36.1902   25.0823 H   0  0  0  0  0  0
  -21.0017  -28.3291   24.1371 H   0  0  0  0  0  0
  -20.5663  -26.2310   23.3614 H   0  0  0  0  0  0
  -21.6654  -26.7424   22.1204 H   0  0  0  0  0  0
  -19.6933  -25.6304   21.1221 H   0  0  0  0  0  0
  -19.6708  -27.3206   20.6725 H   0  0  0  0  0  0
  -17.4210  -26.6648   21.4027 H   0  0  0  0  0  0
  -18.0346  -26.0085   22.9032 H   0  0  0  0  0  0
  -19.7957  -30.7259   24.2255 H   0  0  0  0  0  0
  -17.5047  -31.6263   24.5172 H   0  0  0  0  0  0
  -15.5369  -30.3003   23.7670 H   0  0  0  0  0  0
  -15.8672  -28.0856   22.7032 H   0  0  0  0  0  0
  -24.5943  -30.7008   25.7774 H   0  0  0  0  0  0
  -24.8895  -32.2854   26.4829 H   0  0  0  0  0  0
  -25.8076  -30.8910   27.0215 H   0  0  0  0  0  0
  -26.2906  -29.6736   24.1190 H   0  0  0  0  0  0
  -27.4082  -29.7255   25.4644 H   0  0  0  0  0  0
  -27.8770  -30.4265   23.9357 H   0  0  0  0  0  0
  -27.2693  -33.3586   26.2026 H   0  0  0  0  0  0
  -28.3879  -32.6818   25.0295 H   0  0  0  0  0  0
  -28.0722  -31.8408   26.5394 H   0  0  0  0  0  0
  -28.2569  -38.0101   24.7523 H   0  0  0  0  0  0
  -28.1091  -36.2634   24.6271 H   0  0  0  0  0  0
  -27.2295  -37.1401   25.8867 H   0  0  0  0  0  0
  -20.9354  -29.8821   21.6892 H   0  0  0  0  0  0
  -26.0163  -38.2835   24.1435 H   0  0  0  0  0  0
  -31.1750  -19.9580   19.4096 H   0  0  0  0  0  0
  -30.3396  -25.1112   21.8715 H   0  0  0  0  0  0
  -30.7827  -24.7788   20.2004 H   0  0  0  0  0  0
  -31.0155  -23.5463   21.4398 H   0  0  0  0  0  0
  -28.2899  -24.7235   18.9063 H   0  0  0  0  0  0
  -27.0717  -24.6353   20.1403 H   0  0  0  0  0  0
  -28.4340  -23.7954   21.8027 H   0  0  0  0  0  0
  -28.6580  -20.5083   23.0168 H   0  0  0  0  0  0
  -28.3356  -22.1832   22.8152 H   0  0  0  0  0  0
  -28.8939  -15.4317   21.2288 H   0  0  0  0  0  0
  -29.2460  -22.2380   19.3873 H   0  0  0  0  0  0
  1 25  1  0  0  0
  1 30  2  0  0  0
  1 80  1  0  0  0
  2  3  1  0  0  0
  2 25  1  0  0  0
  2 83  1  0  0  0
  2 84  1  0  0  0
  3  4  1  0  0  0
  3 85  1  0  0  0
  3 86  1  0  0  0
  4  5  1  0  0  0
  4 87  1  0  0  0
  4 88  1  0  0  0
  5  6  1  0  0  0
  5 26  1  0  0  0
  5 89  1  0  0  0
  6 25  1  0  0  0
  6 90  1  0  0  0
  6 91  1  0  0  0
  7  8  2  0  0  0
  7 26  1  0  0  0
  7 29  1  0  0  0
  8  9  1  0  0  0
  8 22  1  0  0  0
  9 10  1  0  0  0
  9 27  2  0  0  0
 10 11  2  0  0  0
 10 15  1  0  0  0
 11 12  1  0  0  0
 11 92  1  0  0  0
 12 13  2  0  0  0
 12 93  1  0  0  0
 13 14  1  0  0  0
 13 31  1  0  0  0
 14 15  2  0  0  0
 14 94  1  0  0  0
 15 95  1  0  0  0
 16 17  2  0  0  0
 16 21  1  0  0  0
 16 31  1  0  0  0
 17 18  1  0  0  0
 17 96  1  0  0  0
 18 19  2  0  0  0
 18 97  1  0  0  0
 19 20  1  0  0  0
 19 24  1  0  0  0
 20 21  2  0  0  0
 20 98  1  0  0  0
 21 23  1  0  0  0
 22 28  1  0  0  0
 22 32  2  0  0  0
 26 27  1  0  0  0
 28 99  1  0  0  0
 28100  1  0  0  0
 29101  1  0  0  0
 29102  1  0  0  0
 33 34  1  0  0  0
 33 66  1  0  0  0
 33 70  2  0  0  0
 34 36  1  0  0  0
 34 59  1  0  0  0
 34103  1  0  0  0
 35 44  2  0  0  0
 35 45  1  0  0  0
 35 68  1  0  0  0
 36 56  1  0  0  0
 36104  1  0  0  0
 37 39  1  0  0  0
 37 47  1  0  0  0
 37 66  1  0  0  0
 37105  1  0  0  0
 38 43  2  0  0  0
 38 46  1  0  0  0
 38 47  1  0  0  0
 39 64  1  0  0  0
 39 67  2  0  0  0
 40 52  1  0  0  0
 40 53  2  0  0  0
 40 58  1  0  0  0
 41106  1  0  0  0
 41107  1  0  0  0
 41108  1  0  0  0
 41 48  1  0  0  0
 42 43  1  0  0  0
 42 66  1  0  0  0
 42109  1  0  0  0
 42110  1  0  0  0
 43 44  1  0  0  0
 44111  1  0  0  0
 45 46  2  0  0  0
 45112  1  0  0  0
 46113  1  0  0  0
 47114  1  0  0  0
 47115  1  0  0  0
 48 56  1  0  0  0
 48 65  1  0  0  0
 48116  1  0  0  0
 49 50  1  0  0  0
 49 53  1  0  0  0
 49 64  1  0  0  0
 49117  1  0  0  0
 50 51  1  0  0  0
 50118  1  0  0  0
 50119  1  0  0  0
 51 52  1  0  0  0
 51120  1  0  0  0
 51121  1  0  0  0
 52122  1  0  0  0
 52123  1  0  0  0
 53 54  1  0  0  0
 54 55  2  0  0  0
 54124  1  0  0  0
 55 57  1  0  0  0
 55125  1  0  0  0
 56 69  2  0  0  0
 57 58  2  0  0  0
 57126  1  0  0  0
 58127  1  0  0  0
 59 60  1  0  0  0
 59 61  1  0  0  0
 59 62  1  0  0  0
 60128  1  0  0  0
 60129  1  0  0  0
 60130  1  0  0  0
 61131  1  0  0  0
 61132  1  0  0  0
 61133  1  0  0  0
 62134  1  0  0  0
 62135  1  0  0  0
 62136  1  0  0  0
 63 65  1  0  0  0
 63137  1  0  0  0
 63138  1  0  0  0
 63139  1  0  0  0
 64140  1  0  0  0
 65141  1  0  0  0
 68 76  1  0  0  0
 71 72  2  0  0  0
 71 78  1  0  0  0
 71142  1  0  0  0
 72 74  1  0  0  0
 72 82  1  0  0  0
 73 78  2  0  0  0
 73 80  1  0  0  0
 73 82  1  0  0  0
 74 79  1  0  0  0
 74 81  2  0  0  0
 75143  1  0  0  0
 75144  1  0  0  0
 75145  1  0  0  0
 75 77  1  0  0  0
 76 77  1  0  0  0
 76146  1  0  0  0
 76147  1  0  0  0
 77 81  1  0  0  0
 77148  1  0  0  0
 79149  1  0  0  0
 79150  1  0  0  0
 80151  1  0  0  0
 81152  1  0  0  0
M  CHG  1  81   1
M  ISO  4   1 100  68 101  76 101  80 100
M  END
> <chiral flag>
0

> <version>
0

> <s_m_source_file>
/data/baiqing/PycharmProjects/Reinvent-master-3.2/result/LINK_invent/BTK/process_docking_weight1_custom_product_contain_oxygen_bond_distance_aromatic_linkinvent_7_9_3/rearranged_h_0196.sdf

> <i_m_source_file_index>
89

> <r_mmod_Potential_Energy-OPLS-2005>
-102.36727142334

> <r_mmod_Stretch_Energy-OPLS-2005>
103.305503845215

> <r_mmod_Bend_Energy-OPLS-2005>
162.619018554688

> <r_mmod_Torsional_Energy-OPLS-2005>
210.318420410156

> <r_mmod_Improper_Torsional_Energy-OPLS-2005>
4.53076457977295

> <r_mmod_Van_der_Waal_Energy-OPLS-2005>
124.677558898926

> <r_mmod_Electrostatic_Energy-OPLS-2005>
-294.98046875

> <r_mmod_Solvation_Energy-OPLS-2005>
-487.958831787109

> <b_mmod_Minimization_Converged-OPLS-2005>
0

> <r_mmod_RMS_Derivative-OPLS-2005>
2.02603101730347

$$$$
89
                    3D
 Structure written by MMmdl.
157165  0  0  1  0            999 V2000
  -30.5803  -14.6562   20.5160 C   0  0  0  0  0  0
  -30.4431  -12.4042   19.4570 C   0  0  0  0  0  0
  -29.5149  -12.5221   18.2265 C   0  0  0  0  0  0
  -28.0361  -12.3558   18.6322 C   0  0  0  0  0  0
  -27.6551  -13.2155   19.8664 C   0  0  2  0  0  0
  -28.6940  -13.0455   20.9974 C   0  0  0  0  0  0
  -25.2573  -13.8179   20.5659 C   0  0  0  0  0  0
  -24.1839  -13.0457   20.9193 C   0  0  0  0  0  0
  -24.6407  -11.6928   20.8746 C   0  0  0  0  0  0
  -23.9092  -10.4307   21.0410 C   0  0  0  0  0  0
  -24.3654   -9.4219   21.9183 C   0  0  0  0  0  0
  -23.6327   -8.2254   22.0746 C   0  0  0  0  0  0
  -22.4300   -8.0298   21.3555 C   0  0  0  0  0  0
  -21.9949   -9.0272   20.4649 C   0  0  0  0  0  0
  -22.7275  -10.2148   20.3048 C   0  0  0  0  0  0
  -21.6865   -6.0762   22.5298 C   0  0  0  0  0  0
  -21.4018   -6.5653   23.8234 C   0  0  0  0  0  0
  -21.3643   -5.6788   24.9184 C   0  0  0  0  0  0
  -21.6043   -4.3063   24.7217 C   0  0  0  0  0  0
  -21.8817   -3.8161   23.4337 C   0  0  0  0  0  0
  -21.9194   -4.6995   22.3400 C   0  0  0  0  0  0
  -22.7866  -13.5261   21.1864 C   0  0  0  0  0  0
  -22.1661   -4.2188   21.0982 F   0  0  0  0  0  0
  -21.5623   -3.4530   25.7721 F   0  0  0  0  0  0
  -30.0079  -13.4104   20.4483 N   0  0  0  0  0  0
  -26.2995  -12.9350   20.3292 N   0  0  0  0  0  0
  -25.9332  -11.6521   20.5751 N   0  0  0  0  0  0
  -22.0497  -12.8236   22.0399 N   0  0  0  0  0  0
  -25.4296  -15.1910   20.4080 N   0  0  0  0  0  0
  -31.7276  -14.8516   20.0983 O   0  0  0  0  0  0
  -21.6647   -6.8910   21.4259 O   0  0  0  0  0  0
  -22.3553  -14.5566   20.6705 O   0  0  0  0  0  0
  -24.6258  -31.8604   23.2001 C   0  0  0  0  0  0
  -25.9092  -32.4795   23.8362 C   0  0  1  0  0  0
  -27.2290  -27.3291   20.1371 C   0  0  0  0  0  0
  -25.5915  -33.8599   24.2298 N   0  0  0  0  0  0
  -23.4218  -30.4800   21.5417 C   0  0  2  0  0  0
  -24.8700  -28.9251   20.1194 C   0  0  0  0  0  0
  -22.7487  -29.4626   22.4932 C   0  0  0  0  0  0
  -18.0286  -28.1380   22.8481 C   0  0  0  0  0  0
  -24.1494  -36.7311   23.2641 C   0  0  0  0  0  0
  -25.9588  -30.7963   21.3651 C   0  0  0  0  0  0
  -26.0368  -29.4200   20.7176 C   0  0  0  0  0  0
  -27.2241  -28.6352   20.7103 C   0  0  0  0  0  0
  -26.0442  -26.8712   19.5267 C   0  0  0  0  0  0
  -24.8742  -27.6557   19.5143 C   0  0  0  0  0  0
  -23.6396  -29.8067   20.1598 C   0  0  0  0  0  0
  -25.4111  -36.3103   24.0343 C   0  0  1  0  0  0
  -20.5889  -28.3693   23.1278 C   0  0  2  0  0  0
  -20.6777  -26.9418   22.5405 C   0  0  0  0  0  0
  -19.5758  -26.6378   21.5205 C   0  0  0  0  0  0
  -18.1935  -26.7924   22.1611 C   0  0  0  0  0  0
  -19.1541  -28.8857   23.2876 C   0  0  0  0  0  0
  -18.9454  -30.1450   23.8907 C   0  0  0  0  0  0
  -17.6455  -30.6588   24.0557 C   0  0  0  0  0  0
  -25.9032  -34.9466   23.5116 C   0  0  0  0  0  0
  -16.5347  -29.9085   23.6315 C   0  0  0  0  0  0
  -16.7272  -28.6496   23.0349 C   0  0  0  0  0  0
  -26.4463  -31.6609   25.0743 C   0  0  0  0  0  0
  -25.3704  -31.3737   26.1484 C   0  0  0  0  0  0
  -27.0282  -30.3046   24.6149 C   0  0  0  0  0  0
  -27.6036  -32.4346   25.7503 C   0  0  0  0  0  0
  -27.5586  -37.1815   24.8457 C   0  0  0  0  0  0
  -21.4200  -29.3057   22.3686 N   0  0  0  0  0  0
  -26.4288  -37.3795   23.9418 N   0  0  0  0  0  0
  -24.6881  -31.0623   22.0938 N   0  0  0  0  0  0
  -23.4204  -28.8177   23.3026 O   0  0  0  0  0  0
  -28.3530  -26.5040   20.1309 O   0  0  0  0  0  0
  -26.5586  -34.8929   22.4675 O   0  0  0  0  0  0
  -23.5422  -32.1389   23.7336 O   0  0  0  0  0  0
  -29.1896  -17.5402   19.4711 C   0  0  0  0  0  0
  -29.6313  -19.3574   21.4621 C   0  0  0  0  0  0
  -28.9088  -18.9164   19.2352 C   0  0  0  0  0  0
  -29.1471  -19.9013   20.2370 C   0  0  0  0  0  0
  -29.7035  -17.0915   20.7103 C   0  0  0  0  0  0
  -28.2951  -19.3183   17.9035 C   0  0  0  0  0  0
  -30.3419  -22.7291   21.3739 C   0  0  0  0  0  0
  -28.4881  -23.8498   20.0123 C   0  0  0  0  0  0
  -28.2723  -25.2040   20.8256 C   0  0  0  0  0  0
  -28.9307  -22.5167   20.7932 C   0  0  1  0  0  0
  -29.8880  -18.0264   21.6857 N   0  0  0  0  0  0
  -28.8811  -21.2893   19.9381 N   0  0  0  0  0  0
  -29.7617  -15.6588   20.9799 N   0  0  0  0  0  0
  -31.4859  -12.5379   19.1629 H   0  0  0  0  0  0
  -30.3796  -11.4023   19.8833 H   0  0  0  0  0  0
  -29.7879  -11.7763   17.4801 H   0  0  0  0  0  0
  -29.6566  -13.4937   17.7497 H   0  0  0  0  0  0
  -27.8774  -11.3015   18.8614 H   0  0  0  0  0  0
  -27.3804  -12.5840   17.7906 H   0  0  0  0  0  0
  -27.6810  -14.2558   19.5410 H   0  0  0  0  0  0
  -28.7079  -12.0120   21.3468 H   0  0  0  0  0  0
  -28.4320  -13.6488   21.8689 H   0  0  0  0  0  0
  -25.2801   -9.5705   22.4748 H   0  0  0  0  0  0
  -24.0051   -7.4648   22.7454 H   0  0  0  0  0  0
  -21.0884   -8.8800   19.8962 H   0  0  0  0  0  0
  -22.3742  -10.9693   19.6151 H   0  0  0  0  0  0
  -21.2009   -7.6159   23.9767 H   0  0  0  0  0  0
  -21.1462   -6.0498   25.9093 H   0  0  0  0  0  0
  -22.0607   -2.7628   23.2814 H   0  0  0  0  0  0
  -22.4092  -11.9886   22.4790 H   0  0  0  0  0  0
  -21.1119  -13.1278   22.2609 H   0  0  0  0  0  0
  -24.6644  -15.8474   20.5164 H   0  0  0  0  0  0
  -26.2732  -15.6259   20.0565 H   0  0  0  0  0  0
  -26.7176  -32.5467   23.1130 H   0  0  0  0  0  0
  -25.0110  -33.9740   25.0477 H   0  0  0  0  0  0
  -22.7161  -31.2993   21.3925 H   0  0  0  0  0  0
  -23.3761  -35.9631   23.3274 H   0  0  0  0  0  0
  -24.3592  -36.8957   22.2058 H   0  0  0  0  0  0
  -23.7227  -37.6509   23.6660 H   0  0  0  0  0  0
  -26.0765  -31.5516   20.5874 H   0  0  0  0  0  0
  -26.8467  -30.8586   21.9837 H   0  0  0  0  0  0
  -28.1274  -29.0120   21.1701 H   0  0  0  0  0  0
  -26.0264  -25.8930   19.0657 H   0  0  0  0  0  0
  -23.9793  -27.2674   19.0477 H   0  0  0  0  0  0
  -23.7659  -30.5786   19.3995 H   0  0  0  0  0  0
  -22.7615  -29.2359   19.8542 H   0  0  0  0  0  0
  -25.1285  -36.1964   25.0834 H   0  0  0  0  0  0
  -20.9968  -28.3257   24.1406 H   0  0  0  0  0  0
  -20.5678  -26.2303   23.3603 H   0  0  0  0  0  0
  -21.6640  -26.7459   22.1198 H   0  0  0  0  0  0
  -19.6910  -25.6285   21.1248 H   0  0  0  0  0  0
  -19.6689  -27.3173   20.6725 H   0  0  0  0  0  0
  -17.4207  -26.6680   21.4010 H   0  0  0  0  0  0
  -18.0333  -26.0069   22.9017 H   0  0  0  0  0  0
  -19.7928  -30.7258   24.2298 H   0  0  0  0  0  0
  -17.5006  -31.6264   24.5162 H   0  0  0  0  0  0
  -15.5347  -30.2990   23.7631 H   0  0  0  0  0  0
  -15.8667  -28.0809   22.7068 H   0  0  0  0  0  0
  -24.5863  -30.7098   25.7824 H   0  0  0  0  0  0
  -24.8900  -32.2894   26.4950 H   0  0  0  0  0  0
  -25.8047  -30.8896   27.0241 H   0  0  0  0  0  0
  -26.2820  -29.6845   24.1165 H   0  0  0  0  0  0
  -27.3992  -29.7269   25.4623 H   0  0  0  0  0  0
  -27.8691  -30.4372   23.9337 H   0  0  0  0  0  0
  -27.2645  -33.3646   26.2080 H   0  0  0  0  0  0
  -28.3827  -32.6917   25.0315 H   0  0  0  0  0  0
  -28.0708  -31.8472   26.5417 H   0  0  0  0  0  0
  -28.2591  -38.0130   24.7535 H   0  0  0  0  0  0
  -28.1104  -36.2666   24.6238 H   0  0  0  0  0  0
  -27.2312  -37.1411   25.8863 H   0  0  0  0  0  0
  -20.9383  -29.8794   21.6906 H   0  0  0  0  0  0
  -26.0181  -38.2878   24.1419 H   0  0  0  0  0  0
  -28.9635  -16.8180   18.7004 H   0  0  0  0  0  0
  -29.8004  -19.9970   22.3137 H   0  0  0  0  0  0
  -28.1597  -18.4565   17.2493 H   0  0  0  0  0  0
  -28.9216  -20.0449   17.3862 H   0  0  0  0  0  0
  -27.3146  -19.7657   18.0667 H   0  0  0  0  0  0
  -30.3172  -23.4526   22.1895 H   0  0  0  0  0  0
  -31.0322  -23.1084   20.6193 H   0  0  0  0  0  0
  -30.7840  -21.8264   21.7850 H   0  0  0  0  0  0
  -29.2269  -24.0446   19.2340 H   0  0  0  0  0  0
  -27.5607  -23.6571   19.4714 H   0  0  0  0  0  0
  -29.0421  -25.2632   21.5938 H   0  0  0  0  0  0
  -27.3372  -25.1299   21.3836 H   0  0  0  0  0  0
  -28.2377  -22.3515   21.6210 H   0  0  0  0  0  0
  -28.4870  -21.4556   19.0152 H   0  0  0  0  0  0
  -28.9124  -15.2964   21.3831 H   0  0  0  0  0  0
  1 25  1  0  0  0
  1 30  2  0  0  0
  1 83  1  0  0  0
  2  3  1  0  0  0
  2 25  1  0  0  0
  2 84  1  0  0  0
  2 85  1  0  0  0
  3  4  1  0  0  0
  3 86  1  0  0  0
  3 87  1  0  0  0
  4  5  1  0  0  0
  4 88  1  0  0  0
  4 89  1  0  0  0
  5  6  1  0  0  0
  5 26  1  0  0  0
  5 90  1  0  0  0
  6 25  1  0  0  0
  6 91  1  0  0  0
  6 92  1  0  0  0
  7  8  2  0  0  0
  7 26  1  0  0  0
  7 29  1  0  0  0
  8  9  1  0  0  0
  8 22  1  0  0  0
  9 10  1  0  0  0
  9 27  2  0  0  0
 10 11  2  0  0  0
 10 15  1  0  0  0
 11 12  1  0  0  0
 11 93  1  0  0  0
 12 13  2  0  0  0
 12 94  1  0  0  0
 13 14  1  0  0  0
 13 31  1  0  0  0
 14 15  2  0  0  0
 14 95  1  0  0  0
 15 96  1  0  0  0
 16 17  2  0  0  0
 16 21  1  0  0  0
 16 31  1  0  0  0
 17 18  1  0  0  0
 17 97  1  0  0  0
 18 19  2  0  0  0
 18 98  1  0  0  0
 19 20  1  0  0  0
 19 24  1  0  0  0
 20 21  2  0  0  0
 20 99  1  0  0  0
 21 23  1  0  0  0
 22 28  1  0  0  0
 22 32  2  0  0  0
 26 27  1  0  0  0
 28100  1  0  0  0
 28101  1  0  0  0
 29102  1  0  0  0
 29103  1  0  0  0
 33 34  1  0  0  0
 33 66  1  0  0  0
 33 70  2  0  0  0
 34 36  1  0  0  0
 34 59  1  0  0  0
 34104  1  0  0  0
 35 44  2  0  0  0
 35 45  1  0  0  0
 35 68  1  0  0  0
 36 56  1  0  0  0
 36105  1  0  0  0
 37 39  1  0  0  0
 37 47  1  0  0  0
 37 66  1  0  0  0
 37106  1  0  0  0
 38 43  2  0  0  0
 38 46  1  0  0  0
 38 47  1  0  0  0
 39 64  1  0  0  0
 39 67  2  0  0  0
 40 52  1  0  0  0
 40 53  2  0  0  0
 40 58  1  0  0  0
 41107  1  0  0  0
 41108  1  0  0  0
 41109  1  0  0  0
 41 48  1  0  0  0
 42 43  1  0  0  0
 42 66  1  0  0  0
 42110  1  0  0  0
 42111  1  0  0  0
 43 44  1  0  0  0
 44112  1  0  0  0
 45 46  2  0  0  0
 45113  1  0  0  0
 46114  1  0  0  0
 47115  1  0  0  0
 47116  1  0  0  0
 48 56  1  0  0  0
 48 65  1  0  0  0
 48117  1  0  0  0
 49 50  1  0  0  0
 49 53  1  0  0  0
 49 64  1  0  0  0
 49118  1  0  0  0
 50 51  1  0  0  0
 50119  1  0  0  0
 50120  1  0  0  0
 51 52  1  0  0  0
 51121  1  0  0  0
 51122  1  0  0  0
 52123  1  0  0  0
 52124  1  0  0  0
 53 54  1  0  0  0
 54 55  2  0  0  0
 54125  1  0  0  0
 55 57  1  0  0  0
 55126  1  0  0  0
 56 69  2  0  0  0
 57 58  2  0  0  0
 57127  1  0  0  0
 58128  1  0  0  0
 59 60  1  0  0  0
 59 61  1  0  0  0
 59 62  1  0  0  0
 60129  1  0  0  0
 60130  1  0  0  0
 60131  1  0  0  0
 61132  1  0  0  0
 61133  1  0  0  0
 61134  1  0  0  0
 62135  1  0  0  0
 62136  1  0  0  0
 62137  1  0  0  0
 63 65  1  0  0  0
 63138  1  0  0  0
 63139  1  0  0  0
 63140  1  0  0  0
 64141  1  0  0  0
 65142  1  0  0  0
 68 79  1  0  0  0
 71 73  2  0  0  0
 71 75  1  0  0  0
 71143  1  0  0  0
 72 74  2  0  0  0
 72 81  1  0  0  0
 72144  1  0  0  0
 73 74  1  0  0  0
 73 76  1  0  0  0
 74 82  1  0  0  0
 75 81  2  0  0  0
 75 83  1  0  0  0
 76145  1  0  0  0
 76146  1  0  0  0
 76147  1  0  0  0
 77148  1  0  0  0
 77149  1  0  0  0
 77150  1  0  0  0
 77 80  1  0  0  0
 78 79  1  0  0  0
 78 80  1  0  0  0
 78151  1  0  0  0
 78152  1  0  0  0
 79153  1  0  0  0
 79154  1  0  0  0
 80 82  1  0  0  0
 80155  1  0  0  0
 82156  1  0  0  0
 83157  1  0  0  0
M  ISO  4   1 100  68 101  79 101  83 100
M  END
> <chiral flag>
0

> <version>
0

> <s_m_source_file>
/data/baiqing/PycharmProjects/Reinvent-master-3.2/result/LINK_invent/BTK/process_docking_weight1_custom_product_contain_oxygen_bond_distance_aromatic_linkinvent_7_9_3/rearranged_h_0196.sdf

> <i_m_source_file_index>
90

> <r_mmod_Potential_Energy-OPLS-2005>
-26.5471878051758

> <r_mmod_Stretch_Energy-OPLS-2005>
78.4851837158203

> <r_mmod_Bend_Energy-OPLS-2005>
160.352355957031

> <r_mmod_Torsional_Energy-OPLS-2005>
254.585571289062

> <r_mmod_Improper_Torsional_Energy-OPLS-2005>
5.45915937423706

> <r_mmod_Van_der_Waal_Energy-OPLS-2005>
139.352203369141

> <r_mmod_Electrostatic_Energy-OPLS-2005>
-484.231964111328

> <r_mmod_Solvation_Energy-OPLS-2005>
-228.880310058594

> <b_mmod_Minimization_Converged-OPLS-2005>
0

> <r_mmod_RMS_Derivative-OPLS-2005>
2.6436870098114

$$$$
90
                    3D
 Structure written by MMmdl.
158166  0  0  1  0            999 V2000
  -30.7245  -14.4801   20.5584 C   0  0  0  0  0  0
  -30.4059  -12.3114   19.4265 C   0  0  0  0  0  0
  -29.4850  -12.4962   18.2054 C   0  0  0  0  0  0
  -28.0082  -12.3577   18.6209 C   0  0  0  0  0  0
  -27.6511  -13.2133   19.8667 C   0  0  2  0  0  0
  -28.6952  -13.0355   20.9916 C   0  0  0  0  0  0
  -25.2537  -13.8174   20.5692 C   0  0  0  0  0  0
  -24.1807  -13.0440   20.9202 C   0  0  0  0  0  0
  -24.6366  -11.6906   20.8745 C   0  0  0  0  0  0
  -23.9037  -10.4289   21.0408 C   0  0  0  0  0  0
  -24.3600   -9.4209   21.9181 C   0  0  0  0  0  0
  -23.6287   -8.2240   22.0743 C   0  0  0  0  0  0
  -22.4273   -8.0268   21.3533 C   0  0  0  0  0  0
  -21.9896   -9.0234   20.4636 C   0  0  0  0  0  0
  -22.7212  -10.2121   20.3054 C   0  0  0  0  0  0
  -21.6847   -6.0725   22.5274 C   0  0  0  0  0  0
  -21.4011   -6.5633   23.8203 C   0  0  0  0  0  0
  -21.3666   -5.6791   24.9168 C   0  0  0  0  0  0
  -21.6048   -4.3051   24.7229 C   0  0  0  0  0  0
  -21.8818   -3.8140   23.4350 C   0  0  0  0  0  0
  -21.9192   -4.6953   22.3403 C   0  0  0  0  0  0
  -22.7834  -13.5227   21.1866 C   0  0  0  0  0  0
  -22.1663   -4.2138   21.0983 F   0  0  0  0  0  0
  -21.5630   -3.4540   25.7744 F   0  0  0  0  0  0
  -30.0178  -13.3252   20.4209 N   0  0  0  0  0  0
  -26.2964  -12.9353   20.3351 N   0  0  0  0  0  0
  -25.9293  -11.6505   20.5770 N   0  0  0  0  0  0
  -22.0487  -12.8202   22.0422 N   0  0  0  0  0  0
  -25.4248  -15.1892   20.4106 N   0  0  0  0  0  0
  -31.8850  -14.5668   20.1442 O   0  0  0  0  0  0
  -21.6639   -6.8866   21.4232 O   0  0  0  0  0  0
  -22.3518  -14.5536   20.6716 O   0  0  0  0  0  0
  -24.6149  -31.8681   23.2098 C   0  0  0  0  0  0
  -25.9036  -32.4828   23.8400 C   0  0  1  0  0  0
  -27.2286  -27.4142   20.0936 C   0  0  0  0  0  0
  -25.5896  -33.8631   24.2329 N   0  0  0  0  0  0
  -23.4030  -30.4920   21.5512 C   0  0  2  0  0  0
  -24.8468  -28.9551   20.1161 C   0  0  0  0  0  0
  -22.7403  -29.4660   22.4992 C   0  0  0  0  0  0
  -18.0268  -28.1366   22.8520 C   0  0  0  0  0  0
  -24.1492  -36.7320   23.2638 C   0  0  0  0  0  0
  -25.9338  -30.8259   21.3653 C   0  0  0  0  0  0
  -26.0081  -29.4585   20.7137 C   0  0  0  0  0  0
  -27.1986  -28.6947   20.7000 C   0  0  0  0  0  0
  -26.0413  -26.9260   19.4990 C   0  0  0  0  0  0
  -24.8590  -27.6893   19.5078 C   0  0  0  0  0  0
  -23.6107  -29.8245   20.1658 C   0  0  0  0  0  0
  -25.4116  -36.3118   24.0336 C   0  0  1  0  0  0
  -20.5863  -28.3668   23.1330 C   0  0  2  0  0  0
  -20.6780  -26.9409   22.5424 C   0  0  0  0  0  0
  -19.5747  -26.6385   21.5235 C   0  0  0  0  0  0
  -18.1921  -26.7923   22.1638 C   0  0  0  0  0  0
  -19.1516  -28.8832   23.2930 C   0  0  0  0  0  0
  -18.9443  -30.1440   23.8940 C   0  0  0  0  0  0
  -17.6446  -30.6591   24.0568 C   0  0  0  0  0  0
  -25.9033  -34.9483   23.5129 C   0  0  0  0  0  0
  -16.5340  -29.9090   23.6325 C   0  0  0  0  0  0
  -16.7257  -28.6491   23.0376 C   0  0  0  0  0  0
  -26.4463  -31.6610   25.0733 C   0  0  0  0  0  0
  -25.3717  -31.3712   26.1474 C   0  0  0  0  0  0
  -27.0288  -30.3050   24.6110 C   0  0  0  0  0  0
  -27.6043  -32.4333   25.7481 C   0  0  0  0  0  0
  -27.5587  -37.1816   24.8462 C   0  0  0  0  0  0
  -21.4129  -29.3038   22.3735 N   0  0  0  0  0  0
  -26.4307  -37.3797   23.9399 N   0  0  0  0  0  0
  -24.6691  -31.0768   22.1002 N   0  0  0  0  0  0
  -23.4184  -28.8202   23.3034 O   0  0  0  0  0  0
  -28.4129  -26.6975   20.1104 O   0  0  0  0  0  0
  -26.5588  -34.8930   22.4687 O   0  0  0  0  0  0
  -23.5337  -32.1434   23.7486 O   0  0  0  0  0  0
  -28.3344  -19.6109   22.0869 C   0  0  0  0  0  0
  -29.6557  -17.9984   21.0677 C   0  0  0  0  0  0
  -29.7536  -18.8491   19.9262 C   0  0  0  0  0  0
  -28.4759  -20.4789   20.9707 C   0  0  0  0  0  0
  -30.5540  -16.7877   21.2091 C   0  0  0  0  0  0
  -30.5467  -18.4612   18.6890 C   0  0  0  0  0  0
  -27.2669  -22.5324   18.7304 C   0  0  0  0  0  0
  -27.9986  -24.2377   20.4970 C   0  0  0  0  0  0
  -28.4847  -25.3722   19.5463 C   0  0  0  0  0  0
  -28.1763  -22.7869   19.9470 C   0  0  1  0  0  0
  -28.9193  -18.3848   22.1434 N   0  0  0  0  0  0
  -29.1679  -20.0760   19.8791 N   0  0  0  0  0  0
  -27.9216  -21.7760   20.9867 N   0  0  0  0  0  0
  -30.0269  -15.5674   20.9619 N   0  0  0  0  0  0
  -31.7361  -16.9878   21.5203 O   0  0  0  0  0  0
  -31.4512  -12.3868   19.1229 H   0  0  0  0  0  0
  -30.2917  -11.3102   19.8462 H   0  0  0  0  0  0
  -29.7262  -11.7614   17.4367 H   0  0  0  0  0  0
  -29.6530  -13.4764   17.7568 H   0  0  0  0  0  0
  -27.8230  -11.3032   18.8298 H   0  0  0  0  0  0
  -27.3561  -12.6187   17.7866 H   0  0  0  0  0  0
  -27.6816  -14.2549   19.5465 H   0  0  0  0  0  0
  -28.6749  -12.0139   21.3743 H   0  0  0  0  0  0
  -28.4655  -13.6769   21.8441 H   0  0  0  0  0  0
  -25.2745   -9.5691   22.4754 H   0  0  0  0  0  0
  -23.9998   -7.4630   22.7459 H   0  0  0  0  0  0
  -21.0827   -8.8739   19.8945 H   0  0  0  0  0  0
  -22.3656  -10.9654   19.6166 H   0  0  0  0  0  0
  -21.1999   -7.6142   23.9700 H   0  0  0  0  0  0
  -21.1493   -6.0528   25.9069 H   0  0  0  0  0  0
  -22.0594   -2.7603   23.2854 H   0  0  0  0  0  0
  -22.4120  -11.9872   22.4809 H   0  0  0  0  0  0
  -21.1098  -13.1195   22.2639 H   0  0  0  0  0  0
  -24.6526  -15.8388   20.5142 H   0  0  0  0  0  0
  -26.2651  -15.6281   20.0576 H   0  0  0  0  0  0
  -26.7100  -32.5548   23.1159 H   0  0  0  0  0  0
  -25.0083  -33.9804   25.0498 H   0  0  0  0  0  0
  -22.6929  -31.3103   21.4131 H   0  0  0  0  0  0
  -23.3755  -35.9651   23.3315 H   0  0  0  0  0  0
  -24.3584  -36.8930   22.2048 H   0  0  0  0  0  0
  -23.7238  -37.6531   23.6642 H   0  0  0  0  0  0
  -26.0485  -31.5889   20.5947 H   0  0  0  0  0  0
  -26.8208  -30.8792   21.9847 H   0  0  0  0  0  0
  -28.0979  -29.0813   21.1589 H   0  0  0  0  0  0
  -25.9991  -25.9558   19.0293 H   0  0  0  0  0  0
  -23.9641  -27.2961   19.0472 H   0  0  0  0  0  0
  -23.7202  -30.5999   19.4072 H   0  0  0  0  0  0
  -22.7350  -29.2446   19.8691 H   0  0  0  0  0  0
  -25.1285  -36.1996   25.0826 H   0  0  0  0  0  0
  -20.9957  -28.3241   24.1448 H   0  0  0  0  0  0
  -20.5729  -26.2266   23.3608 H   0  0  0  0  0  0
  -21.6645  -26.7491   22.1182 H   0  0  0  0  0  0
  -19.6926  -25.6300   21.1251 H   0  0  0  0  0  0
  -19.6690  -27.3212   20.6779 H   0  0  0  0  0  0
  -17.4206  -26.6703   21.4019 H   0  0  0  0  0  0
  -18.0311  -26.0035   22.8997 H   0  0  0  0  0  0
  -19.7913  -30.7251   24.2333 H   0  0  0  0  0  0
  -17.4994  -31.6276   24.5155 H   0  0  0  0  0  0
  -15.5342  -30.3009   23.7617 H   0  0  0  0  0  0
  -15.8653  -28.0808   22.7100 H   0  0  0  0  0  0
  -24.5894  -30.7055   25.7807 H   0  0  0  0  0  0
  -24.8899  -32.2861   26.4926 H   0  0  0  0  0  0
  -25.8059  -30.8873   27.0228 H   0  0  0  0  0  0
  -26.2818  -29.6842   24.1150 H   0  0  0  0  0  0
  -27.4033  -29.7270   25.4571 H   0  0  0  0  0  0
  -27.8668  -30.4376   23.9266 H   0  0  0  0  0  0
  -27.2664  -33.3631   26.2068 H   0  0  0  0  0  0
  -28.3832  -32.6908   25.0289 H   0  0  0  0  0  0
  -28.0721  -31.8449   26.5384 H   0  0  0  0  0  0
  -28.2606  -38.0113   24.7515 H   0  0  0  0  0  0
  -28.1079  -36.2643   24.6278 H   0  0  0  0  0  0
  -27.2297  -37.1463   25.8863 H   0  0  0  0  0  0
  -20.9290  -29.8733   21.6935 H   0  0  0  0  0  0
  -26.0206  -38.2882   24.1391 H   0  0  0  0  0  0
  -27.7748  -19.9146   22.9596 H   0  0  0  0  0  0
  -31.5957  -18.2908   18.9336 H   0  0  0  0  0  0
  -30.5073  -19.2398   17.9265 H   0  0  0  0  0  0
  -30.1416  -17.5461   18.2547 H   0  0  0  0  0  0
  -27.5016  -23.2045   17.9052 H   0  0  0  0  0  0
  -26.2145  -22.6727   18.9812 H   0  0  0  0  0  0
  -27.3806  -21.5184   18.3460 H   0  0  0  0  0  0
  -26.9549  -24.4042   20.7645 H   0  0  0  0  0  0
  -28.5618  -24.3309   21.4261 H   0  0  0  0  0  0
  -27.9913  -25.3335   18.5761 H   0  0  0  0  0  0
  -29.5370  -25.1959   19.3230 H   0  0  0  0  0  0
  -29.2152  -22.6794   19.6282 H   0  0  0  0  0  0
  -27.4520  -22.0692   21.8387 H   0  0  0  0  0  0
  -29.0248  -15.4957   20.9891 H   0  0  0  0  0  0
  1 25  1  0  0  0
  1 30  2  0  0  0
  1 84  1  0  0  0
  2  3  1  0  0  0
  2 25  1  0  0  0
  2 86  1  0  0  0
  2 87  1  0  0  0
  3  4  1  0  0  0
  3 88  1  0  0  0
  3 89  1  0  0  0
  4  5  1  0  0  0
  4 90  1  0  0  0
  4 91  1  0  0  0
  5  6  1  0  0  0
  5 26  1  0  0  0
  5 92  1  0  0  0
  6 25  1  0  0  0
  6 93  1  0  0  0
  6 94  1  0  0  0
  7  8  2  0  0  0
  7 26  1  0  0  0
  7 29  1  0  0  0
  8  9  1  0  0  0
  8 22  1  0  0  0
  9 10  1  0  0  0
  9 27  2  0  0  0
 10 11  2  0  0  0
 10 15  1  0  0  0
 11 12  1  0  0  0
 11 95  1  0  0  0
 12 13  2  0  0  0
 12 96  1  0  0  0
 13 14  1  0  0  0
 13 31  1  0  0  0
 14 15  2  0  0  0
 14 97  1  0  0  0
 15 98  1  0  0  0
 16 17  2  0  0  0
 16 21  1  0  0  0
 16 31  1  0  0  0
 17 18  1  0  0  0
 17 99  1  0  0  0
 18 19  2  0  0  0
 18100  1  0  0  0
 19 20  1  0  0  0
 19 24  1  0  0  0
 20 21  2  0  0  0
 20101  1  0  0  0
 21 23  1  0  0  0
 22 28  1  0  0  0
 22 32  2  0  0  0
 26 27  1  0  0  0
 28102  1  0  0  0
 28103  1  0  0  0
 29104  1  0  0  0
 29105  1  0  0  0
 33 34  1  0  0  0
 33 66  1  0  0  0
 33 70  2  0  0  0
 34 36  1  0  0  0
 34 59  1  0  0  0
 34106  1  0  0  0
 35 44  2  0  0  0
 35 45  1  0  0  0
 35 68  1  0  0  0
 36 56  1  0  0  0
 36107  1  0  0  0
 37 39  1  0  0  0
 37 47  1  0  0  0
 37 66  1  0  0  0
 37108  1  0  0  0
 38 43  2  0  0  0
 38 46  1  0  0  0
 38 47  1  0  0  0
 39 64  1  0  0  0
 39 67  2  0  0  0
 40 52  1  0  0  0
 40 53  2  0  0  0
 40 58  1  0  0  0
 41109  1  0  0  0
 41110  1  0  0  0
 41111  1  0  0  0
 41 48  1  0  0  0
 42 43  1  0  0  0
 42 66  1  0  0  0
 42112  1  0  0  0
 42113  1  0  0  0
 43 44  1  0  0  0
 44114  1  0  0  0
 45 46  2  0  0  0
 45115  1  0  0  0
 46116  1  0  0  0
 47117  1  0  0  0
 47118  1  0  0  0
 48 56  1  0  0  0
 48 65  1  0  0  0
 48119  1  0  0  0
 49 50  1  0  0  0
 49 53  1  0  0  0
 49 64  1  0  0  0
 49120  1  0  0  0
 50 51  1  0  0  0
 50121  1  0  0  0
 50122  1  0  0  0
 51 52  1  0  0  0
 51123  1  0  0  0
 51124  1  0  0  0
 52125  1  0  0  0
 52126  1  0  0  0
 53 54  1  0  0  0
 54 55  2  0  0  0
 54127  1  0  0  0
 55 57  1  0  0  0
 55128  1  0  0  0
 56 69  2  0  0  0
 57 58  2  0  0  0
 57129  1  0  0  0
 58130  1  0  0  0
 59 60  1  0  0  0
 59 61  1  0  0  0
 59 62  1  0  0  0
 60131  1  0  0  0
 60132  1  0  0  0
 60133  1  0  0  0
 61134  1  0  0  0
 61135  1  0  0  0
 61136  1  0  0  0
 62137  1  0  0  0
 62138  1  0  0  0
 62139  1  0  0  0
 63 65  1  0  0  0
 63140  1  0  0  0
 63141  1  0  0  0
 63142  1  0  0  0
 64143  1  0  0  0
 65144  1  0  0  0
 68 79  1  0  0  0
 71 74  2  0  0  0
 71 81  1  0  0  0
 71145  1  0  0  0
 72 73  1  0  0  0
 72 75  1  0  0  0
 72 81  2  0  0  0
 73 76  1  0  0  0
 73 82  2  0  0  0
 74 82  1  0  0  0
 74 83  1  0  0  0
 75 84  1  0  0  0
 75 85  2  0  0  0
 76146  1  0  0  0
 76147  1  0  0  0
 76148  1  0  0  0
 77149  1  0  0  0
 77150  1  0  0  0
 77151  1  0  0  0
 77 80  1  0  0  0
 78 79  1  0  0  0
 78 80  1  0  0  0
 78152  1  0  0  0
 78153  1  0  0  0
 79154  1  0  0  0
 79155  1  0  0  0
 80 83  1  0  0  0
 80156  1  0  0  0
 83157  1  0  0  0
 84158  1  0  0  0
M  ISO  4   1 100  68 101  79 101  84 100
M  END
> <chiral flag>
0

> <version>
0

> <s_m_source_file>
/data/baiqing/PycharmProjects/Reinvent-master-3.2/result/LINK_invent/BTK/process_docking_weight1_custom_product_contain_oxygen_bond_distance_aromatic_linkinvent_7_9_3/rearranged_h_0196.sdf

> <i_m_source_file_index>
91

> <r_mmod_Potential_Energy-OPLS-2005>
-3.21058773994446

> <r_mmod_Stretch_Energy-OPLS-2005>
43.5160140991211

> <r_mmod_Bend_Energy-OPLS-2005>
117.804779052734

> <r_mmod_Torsional_Energy-OPLS-2005>
228.606338500977

> <r_mmod_Improper_Torsional_Energy-OPLS-2005>
6.34578657150269

> <r_mmod_Van_der_Waal_Energy-OPLS-2005>
163.748977661133

> <r_mmod_Electrostatic_Energy-OPLS-2005>
-345.284576416016

> <r_mmod_Solvation_Energy-OPLS-2005>
-235.970108032227

> <b_mmod_Minimization_Converged-OPLS-2005>
0

> <r_mmod_RMS_Derivative-OPLS-2005>
1.39969623088837

$$$$
91
                    3D
 Structure written by MMmdl.
155163  0  0  1  0            999 V2000
  -30.6423  -14.5778   20.4872 C   0  0  0  0  0  0
  -30.4220  -12.3472   19.4470 C   0  0  0  0  0  0
  -29.4970  -12.4815   18.2169 C   0  0  0  0  0  0
  -28.0179  -12.3309   18.6250 C   0  0  0  0  0  0
  -27.6419  -13.2120   19.8466 C   0  0  2  0  0  0
  -28.6810  -13.0668   20.9808 C   0  0  0  0  0  0
  -25.2500  -13.8177   20.5665 C   0  0  0  0  0  0
  -24.1768  -13.0440   20.9193 C   0  0  0  0  0  0
  -24.6323  -11.6912   20.8722 C   0  0  0  0  0  0
  -23.9009  -10.4298   21.0410 C   0  0  0  0  0  0
  -24.3578   -9.4212   21.9187 C   0  0  0  0  0  0
  -23.6266   -8.2239   22.0766 C   0  0  0  0  0  0
  -22.4255   -8.0256   21.3549 C   0  0  0  0  0  0
  -21.9865   -9.0225   20.4659 C   0  0  0  0  0  0
  -22.7182  -10.2113   20.3059 C   0  0  0  0  0  0
  -21.6842   -6.0715   22.5286 C   0  0  0  0  0  0
  -21.4005   -6.5627   23.8214 C   0  0  0  0  0  0
  -21.3665   -5.6790   24.9181 C   0  0  0  0  0  0
  -21.6041   -4.3050   24.7238 C   0  0  0  0  0  0
  -21.8815   -3.8135   23.4361 C   0  0  0  0  0  0
  -21.9187   -4.6945   22.3412 C   0  0  0  0  0  0
  -22.7786  -13.5229   21.1852 C   0  0  0  0  0  0
  -22.1656   -4.2118   21.0994 F   0  0  0  0  0  0
  -21.5633   -3.4545   25.7761 F   0  0  0  0  0  0
  -30.0039  -13.3759   20.4188 N   0  0  0  0  0  0
  -26.2895  -12.9346   20.3207 N   0  0  0  0  0  0
  -25.9239  -11.6508   20.5694 N   0  0  0  0  0  0
  -22.0427  -12.8243   22.0430 N   0  0  0  0  0  0
  -25.4204  -15.1901   20.4099 N   0  0  0  0  0  0
  -31.8163  -14.7152   20.1326 O   0  0  0  0  0  0
  -21.6626   -6.8846   21.4243 O   0  0  0  0  0  0
  -22.3479  -14.5534   20.6694 O   0  0  0  0  0  0
  -24.6167  -31.8635   23.2040 C   0  0  0  0  0  0
  -25.9057  -32.4805   23.8363 C   0  0  1  0  0  0
  -27.2392  -27.3783   20.1251 C   0  0  0  0  0  0
  -25.5906  -33.8604   24.2304 N   0  0  0  0  0  0
  -23.4103  -30.4850   21.5436 C   0  0  2  0  0  0
  -24.8592  -28.9305   20.1251 C   0  0  0  0  0  0
  -22.7399  -29.4701   22.4970 C   0  0  0  0  0  0
  -18.0256  -28.1472   22.8460 C   0  0  0  0  0  0
  -24.1489  -36.7311   23.2641 C   0  0  0  0  0  0
  -25.9414  -30.8109   21.3668 C   0  0  0  0  0  0
  -26.0204  -29.4377   20.7227 C   0  0  0  0  0  0
  -27.2136  -28.6728   20.7120 C   0  0  0  0  0  0
  -26.0619  -26.8928   19.5252 C   0  0  0  0  0  0
  -24.8769  -27.6565   19.5257 C   0  0  0  0  0  0
  -23.6246  -29.8048   20.1647 C   0  0  0  0  0  0
  -25.4118  -36.3113   24.0336 C   0  0  1  0  0  0
  -20.5829  -28.3774   23.1295 C   0  0  2  0  0  0
  -20.6702  -26.9563   22.5322 C   0  0  0  0  0  0
  -19.5708  -26.6710   21.5042 C   0  0  0  0  0  0
  -18.1914  -26.8037   22.1546 C   0  0  0  0  0  0
  -19.1493  -28.8928   23.2937 C   0  0  0  0  0  0
  -18.9407  -30.1468   23.9091 C   0  0  0  0  0  0
  -17.6397  -30.6599   24.0737 C   0  0  0  0  0  0
  -25.9041  -34.9476   23.5108 C   0  0  0  0  0  0
  -16.5313  -29.9159   23.6331 C   0  0  0  0  0  0
  -16.7237  -28.6609   23.0301 C   0  0  0  0  0  0
  -26.4481  -31.6592   25.0702 C   0  0  0  0  0  0
  -25.3727  -31.3705   26.1424 C   0  0  0  0  0  0
  -27.0331  -30.3032   24.6123 C   0  0  0  0  0  0
  -27.6063  -32.4311   25.7457 C   0  0  0  0  0  0
  -27.5589  -37.1806   24.8467 C   0  0  0  0  0  0
  -21.4122  -29.3102   22.3666 N   0  0  0  0  0  0
  -26.4309  -37.3799   23.9398 N   0  0  0  0  0  0
  -24.6741  -31.0699   22.0974 N   0  0  0  0  0  0
  -23.4126  -28.8276   23.3077 O   0  0  0  0  0  0
  -28.4190  -26.6540   20.0732 O   0  0  0  0  0  0
  -26.5618  -34.8927   22.4684 O   0  0  0  0  0  0
  -23.5356  -32.1427   23.7392 O   0  0  0  0  0  0
  -29.3235  -18.2026   20.9588 C   0  0  0  0  0  0
  -28.4255  -18.1633   22.0016 C   0  0  0  0  0  0
  -28.5253  -20.3865   20.9060 C   0  0  0  0  0  0
  -28.1495  -17.0433   22.9521 C   0  0  0  0  0  0
  -30.2817  -17.0800   20.5248 C   0  0  0  0  0  0
  -28.9291  -22.7329   19.6640 C   0  0  0  0  0  0
  -28.4777  -25.2619   20.5187 C   0  0  0  0  0  0
  -28.1685  -24.1159   19.4843 C   0  0  1  0  0  0
  -29.3667  -19.4917   20.3512 N   0  0  0  0  0  0
  -28.3413  -21.7470   20.5823 N   0  0  0  0  0  0
  -29.8633  -15.6636   20.7267 N   0  0  0  0  0  0
  -28.5987  -24.5775   18.2169 O   0  0  0  0  0  0
  -27.5843  -19.6835   22.2092 S   0  0  0  0  0  0
  -31.4696  -12.4512   19.1529 H   0  0  0  0  0  0
  -30.3372  -11.3548   19.8883 H   0  0  0  0  0  0
  -29.7534  -11.7318   17.4665 H   0  0  0  0  0  0
  -29.6469  -13.4520   17.7445 H   0  0  0  0  0  0
  -27.8463  -11.2798   18.8583 H   0  0  0  0  0  0
  -27.3659  -12.5556   17.7792 H   0  0  0  0  0  0
  -27.6589  -14.2435   19.4952 H   0  0  0  0  0  0
  -28.6664  -12.0519   21.3769 H   0  0  0  0  0  0
  -28.4345  -13.7209   21.8195 H   0  0  0  0  0  0
  -25.2718   -9.5687   22.4758 H   0  0  0  0  0  0
  -23.9970   -7.4633   22.7488 H   0  0  0  0  0  0
  -21.0792   -8.8724   19.8974 H   0  0  0  0  0  0
  -22.3628  -10.9635   19.6162 H   0  0  0  0  0  0
  -21.1998   -7.6136   23.9701 H   0  0  0  0  0  0
  -21.1492   -6.0533   25.9080 H   0  0  0  0  0  0
  -22.0590   -2.7591   23.2883 H   0  0  0  0  0  0
  -22.4032  -11.9905   22.4829 H   0  0  0  0  0  0
  -21.1048  -13.1290   22.2638 H   0  0  0  0  0  0
  -24.6467  -15.8374   20.5090 H   0  0  0  0  0  0
  -26.2580  -15.6311   20.0542 H   0  0  0  0  0  0
  -26.7130  -32.5506   23.1122 H   0  0  0  0  0  0
  -25.0048  -33.9756   25.0443 H   0  0  0  0  0  0
  -22.7050  -31.3059   21.3906 H   0  0  0  0  0  0
  -23.3755  -35.9637   23.3307 H   0  0  0  0  0  0
  -24.3585  -36.8918   22.2056 H   0  0  0  0  0  0
  -23.7218  -37.6508   23.6649 H   0  0  0  0  0  0
  -26.0587  -31.5706   20.5931 H   0  0  0  0  0  0
  -26.8266  -30.8696   21.9886 H   0  0  0  0  0  0
  -28.1144  -29.0633   21.1647 H   0  0  0  0  0  0
  -26.0616  -25.9333   19.0311 H   0  0  0  0  0  0
  -23.9903  -27.2521   19.0560 H   0  0  0  0  0  0
  -23.7430  -30.5722   19.4000 H   0  0  0  0  0  0
  -22.7483  -29.2266   19.8670 H   0  0  0  0  0  0
  -25.1286  -36.1995   25.0835 H   0  0  0  0  0  0
  -20.9972  -28.3330   24.1390 H   0  0  0  0  0  0
  -20.5507  -26.2398   23.3451 H   0  0  0  0  0  0
  -21.6614  -26.7655   22.1165 H   0  0  0  0  0  0
  -19.7003  -25.6786   21.0725 H   0  0  0  0  0  0
  -19.6531  -27.3811   20.6790 H   0  0  0  0  0  0
  -18.0460  -26.0137   22.8941 H   0  0  0  0  0  0
  -17.4146  -26.6789   21.3986 H   0  0  0  0  0  0
  -19.7840  -30.7236   24.2650 H   0  0  0  0  0  0
  -17.4971  -31.6195   24.5517 H   0  0  0  0  0  0
  -15.5314  -30.3130   23.7605 H   0  0  0  0  0  0
  -15.8663  -28.0930   22.6944 H   0  0  0  0  0  0
  -24.5907  -30.7065   25.7723 H   0  0  0  0  0  0
  -24.8906  -32.2856   26.4871 H   0  0  0  0  0  0
  -25.8039  -30.8847   27.0184 H   0  0  0  0  0  0
  -26.2892  -29.6761   24.1195 H   0  0  0  0  0  0
  -27.4108  -29.7308   25.4610 H   0  0  0  0  0  0
  -27.8724  -30.4342   23.9289 H   0  0  0  0  0  0
  -27.2716  -33.3614   26.2062 H   0  0  0  0  0  0
  -28.3854  -32.6868   25.0262 H   0  0  0  0  0  0
  -28.0767  -31.8418   26.5335 H   0  0  0  0  0  0
  -28.2615  -38.0100   24.7525 H   0  0  0  0  0  0
  -28.1079  -36.2628   24.6283 H   0  0  0  0  0  0
  -27.2307  -37.1446   25.8873 H   0  0  0  0  0  0
  -20.9333  -29.8656   21.6708 H   0  0  0  0  0  0
  -26.0203  -38.2887   24.1379 H   0  0  0  0  0  0
  -29.0711  -16.5222   23.2097 H   0  0  0  0  0  0
  -27.7287  -17.4226   23.8833 H   0  0  0  0  0  0
  -27.4502  -16.3249   22.5222 H   0  0  0  0  0  0
  -30.5321  -17.2081   19.4699 H   0  0  0  0  0  0
  -31.2181  -17.2166   21.0655 H   0  0  0  0  0  0
  -28.9749  -22.2218   18.6980 H   0  0  0  0  0  0
  -29.9685  -22.9065   19.9487 H   0  0  0  0  0  0
  -29.5049  -25.1228   20.8538 H   0  0  0  0  0  0
  -27.8733  -25.1286   21.4182 H   0  0  0  0  0  0
  -27.0913  -23.9502   19.4229 H   0  0  0  0  0  0
  -27.6463  -22.1655   21.1935 H   0  0  0  0  0  0
  -28.8946  -15.5017   20.9422 H   0  0  0  0  0  0
  -28.3001  -23.9479   17.5694 H   0  0  0  0  0  0
  1 25  1  0  0  0
  1 30  2  0  0  0
  1 81  1  0  0  0
  2  3  1  0  0  0
  2 25  1  0  0  0
  2 84  1  0  0  0
  2 85  1  0  0  0
  3  4  1  0  0  0
  3 86  1  0  0  0
  3 87  1  0  0  0
  4  5  1  0  0  0
  4 88  1  0  0  0
  4 89  1  0  0  0
  5  6  1  0  0  0
  5 26  1  0  0  0
  5 90  1  0  0  0
  6 25  1  0  0  0
  6 91  1  0  0  0
  6 92  1  0  0  0
  7  8  2  0  0  0
  7 26  1  0  0  0
  7 29  1  0  0  0
  8  9  1  0  0  0
  8 22  1  0  0  0
  9 10  1  0  0  0
  9 27  2  0  0  0
 10 11  2  0  0  0
 10 15  1  0  0  0
 11 12  1  0  0  0
 11 93  1  0  0  0
 12 13  2  0  0  0
 12 94  1  0  0  0
 13 14  1  0  0  0
 13 31  1  0  0  0
 14 15  2  0  0  0
 14 95  1  0  0  0
 15 96  1  0  0  0
 16 17  2  0  0  0
 16 21  1  0  0  0
 16 31  1  0  0  0
 17 18  1  0  0  0
 17 97  1  0  0  0
 18 19  2  0  0  0
 18 98  1  0  0  0
 19 20  1  0  0  0
 19 24  1  0  0  0
 20 21  2  0  0  0
 20 99  1  0  0  0
 21 23  1  0  0  0
 22 28  1  0  0  0
 22 32  2  0  0  0
 26 27  1  0  0  0
 28100  1  0  0  0
 28101  1  0  0  0
 29102  1  0  0  0
 29103  1  0  0  0
 33 34  1  0  0  0
 33 66  1  0  0  0
 33 70  2  0  0  0
 34 36  1  0  0  0
 34 59  1  0  0  0
 34104  1  0  0  0
 35 44  2  0  0  0
 35 45  1  0  0  0
 35 68  1  0  0  0
 36 56  1  0  0  0
 36105  1  0  0  0
 37 39  1  0  0  0
 37 47  1  0  0  0
 37 66  1  0  0  0
 37106  1  0  0  0
 38 43  2  0  0  0
 38 46  1  0  0  0
 38 47  1  0  0  0
 39 64  1  0  0  0
 39 67  2  0  0  0
 40 52  1  0  0  0
 40 53  2  0  0  0
 40 58  1  0  0  0
 41107  1  0  0  0
 41108  1  0  0  0
 41109  1  0  0  0
 41 48  1  0  0  0
 42 43  1  0  0  0
 42 66  1  0  0  0
 42110  1  0  0  0
 42111  1  0  0  0
 43 44  1  0  0  0
 44112  1  0  0  0
 45 46  2  0  0  0
 45113  1  0  0  0
 46114  1  0  0  0
 47115  1  0  0  0
 47116  1  0  0  0
 48 56  1  0  0  0
 48 65  1  0  0  0
 48117  1  0  0  0
 49 50  1  0  0  0
 49 53  1  0  0  0
 49 64  1  0  0  0
 49118  1  0  0  0
 50 51  1  0  0  0
 50119  1  0  0  0
 50120  1  0  0  0
 51 52  1  0  0  0
 51121  1  0  0  0
 51122  1  0  0  0
 52123  1  0  0  0
 52124  1  0  0  0
 53 54  1  0  0  0
 54 55  2  0  0  0
 54125  1  0  0  0
 55 57  1  0  0  0
 55126  1  0  0  0
 56 69  2  0  0  0
 57 58  2  0  0  0
 57127  1  0  0  0
 58128  1  0  0  0
 59 60  1  0  0  0
 59 61  1  0  0  0
 59 62  1  0  0  0
 60129  1  0  0  0
 60130  1  0  0  0
 60131  1  0  0  0
 61132  1  0  0  0
 61133  1  0  0  0
 61134  1  0  0  0
 62135  1  0  0  0
 62136  1  0  0  0
 62137  1  0  0  0
 63 65  1  0  0  0
 63138  1  0  0  0
 63139  1  0  0  0
 63140  1  0  0  0
 64141  1  0  0  0
 65142  1  0  0  0
 68 77  1  0  0  0
 71 72  2  0  0  0
 71 75  1  0  0  0
 71 79  1  0  0  0
 72 74  1  0  0  0
 72 83  1  0  0  0
 73 79  2  0  0  0
 73 80  1  0  0  0
 73 83  1  0  0  0
 74143  1  0  0  0
 74144  1  0  0  0
 74145  1  0  0  0
 75 81  1  0  0  0
 75146  1  0  0  0
 75147  1  0  0  0
 76 78  1  0  0  0
 76 80  1  0  0  0
 76148  1  0  0  0
 76149  1  0  0  0
 77 78  1  0  0  0
 77150  1  0  0  0
 77151  1  0  0  0
 78 82  1  0  0  0
 78152  1  0  0  0
 80153  1  0  0  0
 81154  1  0  0  0
 82155  1  0  0  0
M  ISO  4   1 100  68 101  77 101  81 100
M  END
> <chiral flag>
0

> <version>
0

> <s_m_source_file>
/data/baiqing/PycharmProjects/Reinvent-master-3.2/result/LINK_invent/BTK/process_docking_weight1_custom_product_contain_oxygen_bond_distance_aromatic_linkinvent_7_9_3/rearranged_h_0196.sdf

> <i_m_source_file_index>
92

> <r_mmod_Potential_Energy-OPLS-2005>
-174.035659790039

> <r_mmod_Stretch_Energy-OPLS-2005>
52.121410369873

> <r_mmod_Bend_Energy-OPLS-2005>
123.017753601074

> <r_mmod_Torsional_Energy-OPLS-2005>
237.652969360352

> <r_mmod_Improper_Torsional_Energy-OPLS-2005>
6.39590787887573

> <r_mmod_Van_der_Waal_Energy-OPLS-2005>
113.567100524902

> <r_mmod_Electrostatic_Energy-OPLS-2005>
-483.815490722656

> <r_mmod_Solvation_Energy-OPLS-2005>
-251.834533691406

> <b_mmod_Minimization_Converged-OPLS-2005>
0

> <r_mmod_RMS_Derivative-OPLS-2005>
4.35505294799805

$$$$
92
                    3D
 Structure written by MMmdl.
164172  0  0  1  0            999 V2000
  -30.7106  -14.4731   20.5526 C   0  0  0  0  0  0
  -30.4225  -12.3032   19.4122 C   0  0  0  0  0  0
  -29.4901  -12.4883   18.1981 C   0  0  0  0  0  0
  -28.0117  -12.3617   18.6155 C   0  0  0  0  0  0
  -27.6604  -13.2032   19.8716 C   0  0  2  0  0  0
  -28.7094  -12.9922   20.9882 C   0  0  0  0  0  0
  -25.2607  -13.8119   20.5675 C   0  0  0  0  0  0
  -24.1864  -13.0411   20.9154 C   0  0  0  0  0  0
  -24.6411  -11.6887   20.8724 C   0  0  0  0  0  0
  -23.9083  -10.4278   21.0387 C   0  0  0  0  0  0
  -24.3627   -9.4213   21.9181 C   0  0  0  0  0  0
  -23.6299   -8.2252   22.0758 C   0  0  0  0  0  0
  -22.4298   -8.0276   21.3530 C   0  0  0  0  0  0
  -21.9913   -9.0267   20.4644 C   0  0  0  0  0  0
  -22.7236  -10.2137   20.3061 C   0  0  0  0  0  0
  -21.6852   -6.0744   22.5285 C   0  0  0  0  0  0
  -21.4001   -6.5649   23.8211 C   0  0  0  0  0  0
  -21.3645   -5.6792   24.9176 C   0  0  0  0  0  0
  -21.6043   -4.3054   24.7216 C   0  0  0  0  0  0
  -21.8831   -3.8156   23.4337 C   0  0  0  0  0  0
  -21.9200   -4.6977   22.3396 C   0  0  0  0  0  0
  -22.7904  -13.5233   21.1798 C   0  0  0  0  0  0
  -22.1660   -4.2165   21.0969 F   0  0  0  0  0  0
  -21.5626   -3.4526   25.7726 F   0  0  0  0  0  0
  -30.0355  -13.2961   20.4259 N   0  0  0  0  0  0
  -26.3027  -12.9290   20.3358 N   0  0  0  0  0  0
  -25.9335  -11.6458   20.5762 N   0  0  0  0  0  0
  -22.0559  -12.8243   22.0369 N   0  0  0  0  0  0
  -25.4291  -15.1848   20.4134 N   0  0  0  0  0  0
  -31.8518  -14.6338   20.1056 O   0  0  0  0  0  0
  -21.6672   -6.8881   21.4241 O   0  0  0  0  0  0
  -22.3606  -14.5567   20.6675 O   0  0  0  0  0  0
  -24.6157  -31.8678   23.2151 C   0  0  0  0  0  0
  -25.9063  -32.4786   23.8427 C   0  0  1  0  0  0
  -27.2360  -27.4397   20.0559 C   0  0  0  0  0  0
  -25.5939  -33.8590   24.2357 N   0  0  0  0  0  0
  -23.4025  -30.5001   21.5508 C   0  0  2  0  0  0
  -24.8471  -28.9693   20.1117 C   0  0  0  0  0  0
  -22.7400  -29.4687   22.4920 C   0  0  0  0  0  0
  -18.0287  -28.1408   22.8471 C   0  0  0  0  0  0
  -24.1477  -36.7296   23.2636 C   0  0  0  0  0  0
  -25.9352  -30.8285   21.3739 C   0  0  0  0  0  0
  -26.0067  -29.4651   20.7155 C   0  0  0  0  0  0
  -27.1972  -28.6991   20.7017 C   0  0  0  0  0  0
  -26.0514  -26.9588   19.4551 C   0  0  0  0  0  0
  -24.8642  -27.7117   19.4843 C   0  0  0  0  0  0
  -23.6137  -29.8431   20.1616 C   0  0  0  0  0  0
  -25.4092  -36.3078   24.0338 C   0  0  1  0  0  0
  -20.5876  -28.3705   23.1271 C   0  0  2  0  0  0
  -20.6772  -26.9431   22.5390 C   0  0  0  0  0  0
  -19.5749  -26.6403   21.5185 C   0  0  0  0  0  0
  -18.1932  -26.7947   22.1609 C   0  0  0  0  0  0
  -19.1534  -28.8867   23.2884 C   0  0  0  0  0  0
  -18.9468  -30.1474   23.8901 C   0  0  0  0  0  0
  -17.6470  -30.6596   24.0578 C   0  0  0  0  0  0
  -25.9027  -34.9438   23.5124 C   0  0  0  0  0  0
  -16.5365  -29.9108   23.6328 C   0  0  0  0  0  0
  -16.7279  -28.6536   23.0320 C   0  0  0  0  0  0
  -26.4506  -31.6540   25.0732 C   0  0  0  0  0  0
  -25.3778  -31.3615   26.1485 C   0  0  0  0  0  0
  -27.0342  -30.2989   24.6068 C   0  0  0  0  0  0
  -27.6080  -32.4254   25.7463 C   0  0  0  0  0  0
  -27.5559  -37.1801   24.8472 C   0  0  0  0  0  0
  -21.4123  -29.3072   22.3650 N   0  0  0  0  0  0
  -26.4278  -37.3774   23.9404 N   0  0  0  0  0  0
  -24.6685  -31.0810   22.1042 N   0  0  0  0  0  0
  -23.4162  -28.8223   23.2963 O   0  0  0  0  0  0
  -28.4143  -26.7159   20.0678 O   0  0  0  0  0  0
  -26.5566  -34.8897   22.4666 O   0  0  0  0  0  0
  -23.5347  -32.1435   23.7549 O   0  0  0  0  0  0
  -31.2664  -17.1980   22.2104 C   0  0  0  0  0  0
  -31.5928  -18.5471   22.3733 C   0  0  0  0  0  0
  -30.3972  -16.8482   21.1683 C   0  0  0  0  0  0
  -30.2398  -19.0975   20.6138 C   0  0  0  0  0  0
  -28.1459  -20.0128   19.4759 C   0  0  0  0  0  0
  -31.8396  -22.4697   19.2122 C   0  0  0  0  0  0
  -29.4849  -23.3263   18.6862 C   0  0  0  0  0  0
  -28.7328  -25.8270   18.9809 C   0  0  0  0  0  0
  -29.6521  -20.2184   19.7333 C   0  0  1  0  0  0
  -30.4208  -22.7087   19.7692 C   0  0  1  0  0  0
  -28.3779  -24.3137   19.1774 C   0  0  1  0  0  0
  -31.0660  -19.4999   21.5815 N   0  0  0  0  0  0
  -29.8912  -17.8274   20.3792 N   0  0  0  0  0  0
  -29.9922  -15.4927   21.0582 N   0  0  0  0  0  0
  -29.8777  -21.4954   20.4569 N   0  3  0  0  0  0
  -27.2292  -24.0084   18.4020 O   0  0  0  0  0  0
  -31.4667  -12.3948   19.1061 H   0  0  0  0  0  0
  -30.3233  -11.2962   19.8215 H   0  0  0  0  0  0
  -29.7231  -11.7465   17.4332 H   0  0  0  0  0  0
  -29.6616  -13.4641   17.7404 H   0  0  0  0  0  0
  -27.8221  -11.3064   18.8186 H   0  0  0  0  0  0
  -27.3590  -12.6351   17.7865 H   0  0  0  0  0  0
  -27.6946  -14.2498   19.5708 H   0  0  0  0  0  0
  -28.6909  -11.9588   21.3357 H   0  0  0  0  0  0
  -28.4775  -13.5907   21.8684 H   0  0  0  0  0  0
  -25.2777   -9.5708   22.4757 H   0  0  0  0  0  0
  -24.0041   -7.4654   22.7499 H   0  0  0  0  0  0
  -21.0842   -8.8782   19.8949 H   0  0  0  0  0  0
  -22.3705  -10.9702   19.6191 H   0  0  0  0  0  0
  -21.1984   -7.6157   23.9707 H   0  0  0  0  0  0
  -21.1447   -6.0528   25.9076 H   0  0  0  0  0  0
  -22.0628   -2.7631   23.2845 H   0  0  0  0  0  0
  -22.4194  -11.9900   22.4742 H   0  0  0  0  0  0
  -21.1178  -13.1269   22.2568 H   0  0  0  0  0  0
  -24.6570  -15.8289   20.5426 H   0  0  0  0  0  0
  -26.2685  -15.6371   20.0725 H   0  0  0  0  0  0
  -26.7117  -32.5493   23.1169 H   0  0  0  0  0  0
  -25.0134  -33.9786   25.0534 H   0  0  0  0  0  0
  -22.6896  -31.3167   21.4163 H   0  0  0  0  0  0
  -23.3729  -35.9651   23.3305 H   0  0  0  0  0  0
  -24.3575  -36.8887   22.2052 H   0  0  0  0  0  0
  -23.7253  -37.6506   23.6647 H   0  0  0  0  0  0
  -26.0585  -31.5955   20.6100 H   0  0  0  0  0  0
  -26.8189  -30.8742   21.9968 H   0  0  0  0  0  0
  -28.0935  -29.0816   21.1703 H   0  0  0  0  0  0
  -26.0185  -26.0038   18.9599 H   0  0  0  0  0  0
  -23.9712  -27.3270   19.0122 H   0  0  0  0  0  0
  -23.7368  -30.6311   19.4167 H   0  0  0  0  0  0
  -22.7338  -29.2777   19.8485 H   0  0  0  0  0  0
  -25.1272  -36.1913   25.0840 H   0  0  0  0  0  0
  -21.0017  -28.3319   24.1372 H   0  0  0  0  0  0
  -20.5645  -26.2342   23.3608 H   0  0  0  0  0  0
  -21.6650  -26.7459   22.1196 H   0  0  0  0  0  0
  -19.6929  -25.6309   21.1224 H   0  0  0  0  0  0
  -19.6691  -27.3212   20.6709 H   0  0  0  0  0  0
  -17.4197  -26.6684   21.4022 H   0  0  0  0  0  0
  -18.0368  -26.0096   22.9014 H   0  0  0  0  0  0
  -19.7952  -30.7286   24.2251 H   0  0  0  0  0  0
  -17.5038  -31.6267   24.5191 H   0  0  0  0  0  0
  -15.5370  -30.3014   23.7646 H   0  0  0  0  0  0
  -15.8689  -28.0878   22.6988 H   0  0  0  0  0  0
  -24.6013  -30.6890   25.7828 H   0  0  0  0  0  0
  -24.8934  -32.2762   26.4911 H   0  0  0  0  0  0
  -25.8182  -30.8820   27.0244 H   0  0  0  0  0  0
  -26.2899  -29.6724   24.1168 H   0  0  0  0  0  0
  -27.4175  -29.7222   25.4487 H   0  0  0  0  0  0
  -27.8692  -30.4295   23.9190 H   0  0  0  0  0  0
  -27.2720  -33.3568   26.2032 H   0  0  0  0  0  0
  -28.3900  -32.6772   25.0284 H   0  0  0  0  0  0
  -28.0754  -31.8381   26.5377 H   0  0  0  0  0  0
  -28.2580  -38.0089   24.7503 H   0  0  0  0  0  0
  -28.1042  -36.2618   24.6319 H   0  0  0  0  0  0
  -27.2287  -37.1479   25.8880 H   0  0  0  0  0  0
  -20.9262  -29.8796   21.6881 H   0  0  0  0  0  0
  -26.0134  -38.2830   24.1447 H   0  0  0  0  0  0
  -31.6776  -16.4565   22.8797 H   0  0  0  0  0  0
  -32.2583  -18.8716   23.1601 H   0  0  0  0  0  0
  -27.9779  -19.0926   18.9183 H   0  0  0  0  0  0
  -27.7174  -20.8249   18.8908 H   0  0  0  0  0  0
  -27.5864  -19.9336   20.4078 H   0  0  0  0  0  0
  -32.2849  -23.4106   18.8882 H   0  0  0  0  0  0
  -31.8368  -21.8098   18.3440 H   0  0  0  0  0  0
  -32.5076  -22.0462   19.9631 H   0  0  0  0  0  0
  -29.0618  -22.5168   18.0925 H   0  0  0  0  0  0
  -30.0967  -23.8663   17.9633 H   0  0  0  0  0  0
  -28.3721  -26.2140   18.0255 H   0  0  0  0  0  0
  -29.8173  -25.9100   18.9075 H   0  0  0  0  0  0
  -30.1931  -20.2135   18.7868 H   0  0  0  0  0  0
  -30.5360  -23.4597   20.5526 H   0  0  0  0  0  0
  -28.1437  -24.1196   20.2245 H   0  0  0  0  0  0
  -29.0379  -15.2895   21.2997 H   0  0  0  0  0  0
  -30.5820  -21.1452   21.1073 H   0  0  0  0  0  0
  -29.0717  -21.7010   21.0209 H   0  0  0  0  0  0
  -27.4201  -24.2222   17.4928 H   0  0  0  0  0  0
  1 25  1  0  0  0
  1 30  2  0  0  0
  1 84  1  0  0  0
  2  3  1  0  0  0
  2 25  1  0  0  0
  2 87  1  0  0  0
  2 88  1  0  0  0
  3  4  1  0  0  0
  3 89  1  0  0  0
  3 90  1  0  0  0
  4  5  1  0  0  0
  4 91  1  0  0  0
  4 92  1  0  0  0
  5  6  1  0  0  0
  5 26  1  0  0  0
  5 93  1  0  0  0
  6 25  1  0  0  0
  6 94  1  0  0  0
  6 95  1  0  0  0
  7  8  2  0  0  0
  7 26  1  0  0  0
  7 29  1  0  0  0
  8  9  1  0  0  0
  8 22  1  0  0  0
  9 10  1  0  0  0
  9 27  2  0  0  0
 10 11  2  0  0  0
 10 15  1  0  0  0
 11 12  1  0  0  0
 11 96  1  0  0  0
 12 13  2  0  0  0
 12 97  1  0  0  0
 13 14  1  0  0  0
 13 31  1  0  0  0
 14 15  2  0  0  0
 14 98  1  0  0  0
 15 99  1  0  0  0
 16 17  2  0  0  0
 16 21  1  0  0  0
 16 31  1  0  0  0
 17 18  1  0  0  0
 17100  1  0  0  0
 18 19  2  0  0  0
 18101  1  0  0  0
 19 20  1  0  0  0
 19 24  1  0  0  0
 20 21  2  0  0  0
 20102  1  0  0  0
 21 23  1  0  0  0
 22 28  1  0  0  0
 22 32  2  0  0  0
 26 27  1  0  0  0
 28103  1  0  0  0
 28104  1  0  0  0
 29105  1  0  0  0
 29106  1  0  0  0
 33 34  1  0  0  0
 33 66  1  0  0  0
 33 70  2  0  0  0
 34 36  1  0  0  0
 34 59  1  0  0  0
 34107  1  0  0  0
 35 44  2  0  0  0
 35 45  1  0  0  0
 35 68  1  0  0  0
 36 56  1  0  0  0
 36108  1  0  0  0
 37 39  1  0  0  0
 37 47  1  0  0  0
 37 66  1  0  0  0
 37109  1  0  0  0
 38 43  2  0  0  0
 38 46  1  0  0  0
 38 47  1  0  0  0
 39 64  1  0  0  0
 39 67  2  0  0  0
 40 52  1  0  0  0
 40 53  2  0  0  0
 40 58  1  0  0  0
 41110  1  0  0  0
 41111  1  0  0  0
 41112  1  0  0  0
 41 48  1  0  0  0
 42 43  1  0  0  0
 42 66  1  0  0  0
 42113  1  0  0  0
 42114  1  0  0  0
 43 44  1  0  0  0
 44115  1  0  0  0
 45 46  2  0  0  0
 45116  1  0  0  0
 46117  1  0  0  0
 47118  1  0  0  0
 47119  1  0  0  0
 48 56  1  0  0  0
 48 65  1  0  0  0
 48120  1  0  0  0
 49 50  1  0  0  0
 49 53  1  0  0  0
 49 64  1  0  0  0
 49121  1  0  0  0
 50 51  1  0  0  0
 50122  1  0  0  0
 50123  1  0  0  0
 51 52  1  0  0  0
 51124  1  0  0  0
 51125  1  0  0  0
 52126  1  0  0  0
 52127  1  0  0  0
 53 54  1  0  0  0
 54 55  2  0  0  0
 54128  1  0  0  0
 55 57  1  0  0  0
 55129  1  0  0  0
 56 69  2  0  0  0
 57 58  2  0  0  0
 57130  1  0  0  0
 58131  1  0  0  0
 59 60  1  0  0  0
 59 61  1  0  0  0
 59 62  1  0  0  0
 60132  1  0  0  0
 60133  1  0  0  0
 60134  1  0  0  0
 61135  1  0  0  0
 61136  1  0  0  0
 61137  1  0  0  0
 62138  1  0  0  0
 62139  1  0  0  0
 62140  1  0  0  0
 63 65  1  0  0  0
 63141  1  0  0  0
 63142  1  0  0  0
 63143  1  0  0  0
 64144  1  0  0  0
 65145  1  0  0  0
 68 78  1  0  0  0
 71 72  2  0  0  0
 71 73  1  0  0  0
 71146  1  0  0  0
 72 82  1  0  0  0
 72147  1  0  0  0
 73 83  2  0  0  0
 73 84  1  0  0  0
 74 79  1  0  0  0
 74 82  2  0  0  0
 74 83  1  0  0  0
 75148  1  0  0  0
 75149  1  0  0  0
 75150  1  0  0  0
 75 79  1  0  0  0
 76151  1  0  0  0
 76152  1  0  0  0
 76153  1  0  0  0
 76 80  1  0  0  0
 77 80  1  0  0  0
 77 81  1  0  0  0
 77154  1  0  0  0
 77155  1  0  0  0
 78 81  1  0  0  0
 78156  1  0  0  0
 78157  1  0  0  0
 79 85  1  0  0  0
 79158  1  0  0  0
 80 85  1  0  0  0
 80159  1  0  0  0
 81 86  1  0  0  0
 81160  1  0  0  0
 84161  1  0  0  0
 85162  1  0  0  0
 85163  1  0  0  0
 86164  1  0  0  0
M  CHG  1  85   1
M  ISO  4   1 100  68 101  78 101  84 100
M  END
> <chiral flag>
0

> <version>
0

> <s_m_source_file>
/data/baiqing/PycharmProjects/Reinvent-master-3.2/result/LINK_invent/BTK/process_docking_weight1_custom_product_contain_oxygen_bond_distance_aromatic_linkinvent_7_9_3/rearranged_h_0196.sdf

> <i_m_source_file_index>
93

> <r_mmod_Potential_Energy-OPLS-2005>
-715.629699707031

> <r_mmod_Stretch_Energy-OPLS-2005>
40.4967727661133

> <r_mmod_Bend_Energy-OPLS-2005>
128.772537231445

> <r_mmod_Torsional_Energy-OPLS-2005>
265.735412597656

> <r_mmod_Improper_Torsional_Energy-OPLS-2005>
3.75302338600159

> <r_mmod_Van_der_Waal_Energy-OPLS-2005>
172.056198120117

> <r_mmod_Electrostatic_Energy-OPLS-2005>
-878.508361816406

> <r_mmod_Solvation_Energy-OPLS-2005>
-461.762115478516

> <b_mmod_Minimization_Converged-OPLS-2005>
0

> <r_mmod_RMS_Derivative-OPLS-2005>
3.69993686676025

$$$$
93
                    3D
 Structure written by MMmdl.
154162  0  0  1  0            999 V2000
  -30.6153  -14.6584   20.4985 C   0  0  0  0  0  0
  -30.4371  -12.4051   19.4539 C   0  0  0  0  0  0
  -29.5076  -12.5128   18.2241 C   0  0  0  0  0  0
  -28.0301  -12.3452   18.6339 C   0  0  0  0  0  0
  -27.6494  -13.2166   19.8606 C   0  0  2  0  0  0
  -28.6948  -13.0816   20.9910 C   0  0  0  0  0  0
  -25.2543  -13.8160   20.5676 C   0  0  0  0  0  0
  -24.1822  -13.0426   20.9208 C   0  0  0  0  0  0
  -24.6393  -11.6899   20.8748 C   0  0  0  0  0  0
  -23.9070  -10.4281   21.0407 C   0  0  0  0  0  0
  -24.3623   -9.4198   21.9183 C   0  0  0  0  0  0
  -23.6298   -8.2237   22.0756 C   0  0  0  0  0  0
  -22.4280   -8.0276   21.3546 C   0  0  0  0  0  0
  -21.9915   -9.0249   20.4649 C   0  0  0  0  0  0
  -22.7244  -10.2127   20.3058 C   0  0  0  0  0  0
  -21.6851   -6.0732   22.5286 C   0  0  0  0  0  0
  -21.4012   -6.5639   23.8218 C   0  0  0  0  0  0
  -21.3661   -5.6796   24.9183 C   0  0  0  0  0  0
  -21.6045   -4.3059   24.7232 C   0  0  0  0  0  0
  -21.8820   -3.8151   23.4354 C   0  0  0  0  0  0
  -21.9192   -4.6961   22.3405 C   0  0  0  0  0  0
  -22.7847  -13.5222   21.1862 C   0  0  0  0  0  0
  -22.1660   -4.2148   21.0978 F   0  0  0  0  0  0
  -21.5632   -3.4543   25.7743 F   0  0  0  0  0  0
  -30.0069  -13.4307   20.4256 N   0  0  0  0  0  0
  -26.2966  -12.9338   20.3300 N   0  0  0  0  0  0
  -25.9318  -11.6494   20.5756 N   0  0  0  0  0  0
  -22.0487  -12.8210   22.0414 N   0  0  0  0  0  0
  -25.4225  -15.1882   20.4043 N   0  0  0  0  0  0
  -31.7892  -14.8032   20.1420 O   0  0  0  0  0  0
  -21.6640   -6.8876   21.4247 O   0  0  0  0  0  0
  -22.3533  -14.5528   20.6709 O   0  0  0  0  0  0
  -24.6269  -31.8606   23.2033 C   0  0  0  0  0  0
  -25.9113  -32.4785   23.8363 C   0  0  1  0  0  0
  -27.2209  -27.3138   20.1161 C   0  0  0  0  0  0
  -25.5916  -33.8586   24.2286 N   0  0  0  0  0  0
  -23.4200  -30.4861   21.5469 C   0  0  2  0  0  0
  -24.8652  -28.9435   20.1122 C   0  0  0  0  0  0
  -22.7472  -29.4640   22.4943 C   0  0  0  0  0  0
  -18.0284  -28.1394   22.8495 C   0  0  0  0  0  0
  -24.1484  -36.7299   23.2638 C   0  0  0  0  0  0
  -25.9625  -30.7916   21.3732 C   0  0  0  0  0  0
  -26.0369  -29.4190   20.7147 C   0  0  0  0  0  0
  -27.2182  -28.6176   20.7040 C   0  0  0  0  0  0
  -26.0225  -26.8963   19.4890 C   0  0  0  0  0  0
  -24.8610  -27.6881   19.4894 C   0  0  0  0  0  0
  -23.6337  -29.8235   20.1620 C   0  0  0  0  0  0
  -25.4111  -36.3093   24.0331 C   0  0  1  0  0  0
  -20.5887  -28.3702   23.1282 C   0  0  2  0  0  0
  -20.6774  -26.9424   22.5412 C   0  0  0  0  0  0
  -19.5747  -26.6392   21.5217 C   0  0  0  0  0  0
  -18.1928  -26.7940   22.1630 C   0  0  0  0  0  0
  -19.1539  -28.8868   23.2882 C   0  0  0  0  0  0
  -18.9459  -30.1466   23.8909 C   0  0  0  0  0  0
  -17.6458  -30.6596   24.0571 C   0  0  0  0  0  0
  -25.9048  -34.9461   23.5114 C   0  0  0  0  0  0
  -16.5349  -29.9097   23.6329 C   0  0  0  0  0  0
  -16.7273  -28.6514   23.0354 C   0  0  0  0  0  0
  -26.4487  -31.6592   25.0736 C   0  0  0  0  0  0
  -25.3715  -31.3729   26.1459 C   0  0  0  0  0  0
  -27.0316  -30.3011   24.6189 C   0  0  0  0  0  0
  -27.6049  -32.4320   25.7511 C   0  0  0  0  0  0
  -27.5580  -37.1811   24.8464 C   0  0  0  0  0  0
  -21.4186  -29.3054   22.3676 N   0  0  0  0  0  0
  -26.4294  -37.3784   23.9409 N   0  0  0  0  0  0
  -24.6891  -31.0623   22.0982 N   0  0  0  0  0  0
  -23.4191  -28.8169   23.3017 O   0  0  0  0  0  0
  -28.3324  -26.4521   20.1626 O   0  0  0  0  0  0
  -26.5624  -34.8930   22.4687 O   0  0  0  0  0  0
  -23.5433  -32.1400   23.7360 O   0  0  0  0  0  0
  -28.7535  -17.9636   20.6813 C   0  0  0  0  0  0
  -31.1193  -19.2058   20.5993 C   0  0  0  0  0  0
  -29.9425  -17.1662   20.6977 C   0  0  0  0  0  0
  -29.9218  -19.9890   20.5729 C   0  0  0  0  0  0
  -32.4843  -19.8663   20.5636 C   0  0  0  0  0  0
  -28.8264  -22.3841   20.4057 C   0  0  0  0  0  0
  -28.0535  -24.9923   20.2056 C   0  0  0  0  0  0
  -29.2293  -23.9366   20.4169 C   0  0  1  0  0  0
  -28.7325  -19.3358   20.6089 N   0  0  0  0  0  0
  -31.1294  -17.8352   20.6525 N   0  0  0  0  0  0
  -29.7881  -15.7143   20.7906 N   0  0  0  0  0  0
  -29.9638  -21.4208   20.5129 N   0  0  0  0  0  0
  -29.7857  -24.1711   21.6977 O   0  0  0  0  0  0
  -31.4785  -12.5330   19.1528 H   0  0  0  0  0  0
  -30.3751  -11.4114   19.9001 H   0  0  0  0  0  0
  -29.7762  -11.7619   17.4799 H   0  0  0  0  0  0
  -29.6457  -13.4829   17.7438 H   0  0  0  0  0  0
  -27.8704  -11.2910   18.8640 H   0  0  0  0  0  0
  -27.3774  -12.5754   17.7909 H   0  0  0  0  0  0
  -27.6625  -14.2494   19.5135 H   0  0  0  0  0  0
  -28.7117  -12.0611   21.3773 H   0  0  0  0  0  0
  -28.4387  -13.7167   21.8402 H   0  0  0  0  0  0
  -25.2766   -9.5673   22.4757 H   0  0  0  0  0  0
  -24.0007   -7.4628   22.7481 H   0  0  0  0  0  0
  -21.0848   -8.8769   19.8956 H   0  0  0  0  0  0
  -22.3707  -10.9666   19.6166 H   0  0  0  0  0  0
  -21.2001   -7.6146   23.9721 H   0  0  0  0  0  0
  -21.1480   -6.0525   25.9083 H   0  0  0  0  0  0
  -22.0594   -2.7614   23.2858 H   0  0  0  0  0  0
  -22.4101  -11.9870   22.4799 H   0  0  0  0  0  0
  -21.1108  -13.1230   22.2618 H   0  0  0  0  0  0
  -24.6427  -15.8310   20.4938 H   0  0  0  0  0  0
  -26.2392  -15.6195   19.9936 H   0  0  0  0  0  0
  -26.7186  -32.5458   23.1117 H   0  0  0  0  0  0
  -25.0045  -33.9732   25.0419 H   0  0  0  0  0  0
  -22.7153  -31.3078   21.4050 H   0  0  0  0  0  0
  -23.3753  -35.9626   23.3308 H   0  0  0  0  0  0
  -24.3565  -36.8908   22.2048 H   0  0  0  0  0  0
  -23.7235  -37.6505   23.6655 H   0  0  0  0  0  0
  -26.0916  -31.5546   20.6044 H   0  0  0  0  0  0
  -26.8440  -30.8411   22.0008 H   0  0  0  0  0  0
  -28.1168  -28.9794   21.1837 H   0  0  0  0  0  0
  -25.9442  -25.9416   18.9935 H   0  0  0  0  0  0
  -23.9640  -27.3194   19.0104 H   0  0  0  0  0  0
  -23.7511  -30.6003   19.4056 H   0  0  0  0  0  0
  -22.7536  -29.2527   19.8601 H   0  0  0  0  0  0
  -25.1290  -36.1950   25.0826 H   0  0  0  0  0  0
  -20.9982  -28.3282   24.1401 H   0  0  0  0  0  0
  -20.5672  -26.2317   23.3615 H   0  0  0  0  0  0
  -21.6642  -26.7449   22.1207 H   0  0  0  0  0  0
  -19.6906  -25.6300   21.1246 H   0  0  0  0  0  0
  -19.6681  -27.3208   20.6746 H   0  0  0  0  0  0
  -17.4192  -26.6695   21.4032 H   0  0  0  0  0  0
  -18.0324  -26.0082   22.9025 H   0  0  0  0  0  0
  -19.7935  -30.7283   24.2281 H   0  0  0  0  0  0
  -17.5012  -31.6274   24.5177 H   0  0  0  0  0  0
  -15.5356  -30.3005   23.7647 H   0  0  0  0  0  0
  -15.8671  -28.0833   22.7072 H   0  0  0  0  0  0
  -24.5900  -30.7063   25.7785 H   0  0  0  0  0  0
  -24.8896  -32.2892   26.4881 H   0  0  0  0  0  0
  -25.8034  -30.8912   27.0238 H   0  0  0  0  0  0
  -26.2883  -29.6784   24.1194 H   0  0  0  0  0  0
  -27.3976  -29.7248   25.4697 H   0  0  0  0  0  0
  -27.8771  -30.4293   23.9427 H   0  0  0  0  0  0
  -27.2663  -33.3623   26.2087 H   0  0  0  0  0  0
  -28.3864  -32.6869   25.0341 H   0  0  0  0  0  0
  -28.0709  -31.8439   26.5430 H   0  0  0  0  0  0
  -28.2604  -38.0103   24.7510 H   0  0  0  0  0  0
  -28.1073  -36.2638   24.6293 H   0  0  0  0  0  0
  -27.2296  -37.1459   25.8865 H   0  0  0  0  0  0
  -20.9366  -29.8781   21.6888 H   0  0  0  0  0  0
  -26.0180  -38.2859   24.1412 H   0  0  0  0  0  0
  -27.7840  -17.4893   20.7213 H   0  0  0  0  0  0
  -32.6198  -20.3965   19.6208 H   0  0  0  0  0  0
  -33.2881  -19.1364   20.6606 H   0  0  0  0  0  0
  -32.5819  -20.5827   21.3794 H   0  0  0  0  0  0
  -28.2910  -22.1667   19.4805 H   0  0  0  0  0  0
  -28.1215  -22.1832   21.2138 H   0  0  0  0  0  0
  -27.2856  -24.8103   20.9603 H   0  0  0  0  0  0
  -27.6135  -24.7132   19.2483 H   0  0  0  0  0  0
  -29.9894  -24.1180   19.6553 H   0  0  0  0  0  0
  -28.8509  -15.4195   21.0124 H   0  0  0  0  0  0
  -30.8775  -21.8525   20.6081 H   0  0  0  0  0  0
  -30.0134  -25.0960   21.7324 H   0  0  0  0  0  0
  1 25  1  0  0  0
  1 30  2  0  0  0
  1 81  1  0  0  0
  2  3  1  0  0  0
  2 25  1  0  0  0
  2 84  1  0  0  0
  2 85  1  0  0  0
  3  4  1  0  0  0
  3 86  1  0  0  0
  3 87  1  0  0  0
  4  5  1  0  0  0
  4 88  1  0  0  0
  4 89  1  0  0  0
  5  6  1  0  0  0
  5 26  1  0  0  0
  5 90  1  0  0  0
  6 25  1  0  0  0
  6 91  1  0  0  0
  6 92  1  0  0  0
  7  8  2  0  0  0
  7 26  1  0  0  0
  7 29  1  0  0  0
  8  9  1  0  0  0
  8 22  1  0  0  0
  9 10  1  0  0  0
  9 27  2  0  0  0
 10 11  2  0  0  0
 10 15  1  0  0  0
 11 12  1  0  0  0
 11 93  1  0  0  0
 12 13  2  0  0  0
 12 94  1  0  0  0
 13 14  1  0  0  0
 13 31  1  0  0  0
 14 15  2  0  0  0
 14 95  1  0  0  0
 15 96  1  0  0  0
 16 17  2  0  0  0
 16 21  1  0  0  0
 16 31  1  0  0  0
 17 18  1  0  0  0
 17 97  1  0  0  0
 18 19  2  0  0  0
 18 98  1  0  0  0
 19 20  1  0  0  0
 19 24  1  0  0  0
 20 21  2  0  0  0
 20 99  1  0  0  0
 21 23  1  0  0  0
 22 28  1  0  0  0
 22 32  2  0  0  0
 26 27  1  0  0  0
 28100  1  0  0  0
 28101  1  0  0  0
 29102  1  0  0  0
 29103  1  0  0  0
 33 34  1  0  0  0
 33 66  1  0  0  0
 33 70  2  0  0  0
 34 36  1  0  0  0
 34 59  1  0  0  0
 34104  1  0  0  0
 35 44  2  0  0  0
 35 45  1  0  0  0
 35 68  1  0  0  0
 36 56  1  0  0  0
 36105  1  0  0  0
 37 39  1  0  0  0
 37 47  1  0  0  0
 37 66  1  0  0  0
 37106  1  0  0  0
 38 43  2  0  0  0
 38 46  1  0  0  0
 38 47  1  0  0  0
 39 64  1  0  0  0
 39 67  2  0  0  0
 40 52  1  0  0  0
 40 53  2  0  0  0
 40 58  1  0  0  0
 41107  1  0  0  0
 41108  1  0  0  0
 41109  1  0  0  0
 41 48  1  0  0  0
 42 43  1  0  0  0
 42 66  1  0  0  0
 42110  1  0  0  0
 42111  1  0  0  0
 43 44  1  0  0  0
 44112  1  0  0  0
 45 46  2  0  0  0
 45113  1  0  0  0
 46114  1  0  0  0
 47115  1  0  0  0
 47116  1  0  0  0
 48 56  1  0  0  0
 48 65  1  0  0  0
 48117  1  0  0  0
 49 50  1  0  0  0
 49 53  1  0  0  0
 49 64  1  0  0  0
 49118  1  0  0  0
 50 51  1  0  0  0
 50119  1  0  0  0
 50120  1  0  0  0
 51 52  1  0  0  0
 51121  1  0  0  0
 51122  1  0  0  0
 52123  1  0  0  0
 52124  1  0  0  0
 53 54  1  0  0  0
 54 55  2  0  0  0
 54125  1  0  0  0
 55 57  1  0  0  0
 55126  1  0  0  0
 56 69  2  0  0  0
 57 58  2  0  0  0
 57127  1  0  0  0
 58128  1  0  0  0
 59 60  1  0  0  0
 59 61  1  0  0  0
 59 62  1  0  0  0
 60129  1  0  0  0
 60130  1  0  0  0
 60131  1  0  0  0
 61132  1  0  0  0
 61133  1  0  0  0
 61134  1  0  0  0
 62135  1  0  0  0
 62136  1  0  0  0
 62137  1  0  0  0
 63 65  1  0  0  0
 63138  1  0  0  0
 63139  1  0  0  0
 63140  1  0  0  0
 64141  1  0  0  0
 65142  1  0  0  0
 68 77  1  0  0  0
 71 73  2  0  0  0
 71 79  1  0  0  0
 71143  1  0  0  0
 72 74  1  0  0  0
 72 75  1  0  0  0
 72 80  2  0  0  0
 73 80  1  0  0  0
 73 81  1  0  0  0
 74 79  2  0  0  0
 74 82  1  0  0  0
 75144  1  0  0  0
 75145  1  0  0  0
 75146  1  0  0  0
 76 78  1  0  0  0
 76 82  1  0  0  0
 76147  1  0  0  0
 76148  1  0  0  0
 77 78  1  0  0  0
 77149  1  0  0  0
 77150  1  0  0  0
 78 83  1  0  0  0
 78151  1  0  0  0
 81152  1  0  0  0
 82153  1  0  0  0
 83154  1  0  0  0
M  ISO  4   1 100  68 101  77 101  81 100
M  END
> <chiral flag>
0

> <version>
0

> <s_m_source_file>
/data/baiqing/PycharmProjects/Reinvent-master-3.2/result/LINK_invent/BTK/process_docking_weight1_custom_product_contain_oxygen_bond_distance_aromatic_linkinvent_7_9_3/rearranged_h_0196.sdf

> <i_m_source_file_index>
94

> <r_mmod_Potential_Energy-OPLS-2005>
-30.3211078643799

> <r_mmod_Stretch_Energy-OPLS-2005>
82.9078674316406

> <r_mmod_Bend_Energy-OPLS-2005>
147.831344604492

> <r_mmod_Torsional_Energy-OPLS-2005>
226.32487487793

> <r_mmod_Improper_Torsional_Energy-OPLS-2005>
5.06587362289429

> <r_mmod_Van_der_Waal_Energy-OPLS-2005>
149.278778076172

> <r_mmod_Electrostatic_Energy-OPLS-2005>
-433.749908447266

> <r_mmod_Solvation_Energy-OPLS-2005>
-261.162994384766

> <b_mmod_Minimization_Converged-OPLS-2005>
0

> <r_mmod_RMS_Derivative-OPLS-2005>
1.06713676452637

$$$$
94
                    3D
 Structure written by MMmdl.
170178  0  0  1  0            999 V2000
  -30.6031  -14.5954   20.5202 C   0  0  0  0  0  0
  -30.4516  -12.3715   19.4252 C   0  0  0  0  0  0
  -29.5055  -12.5009   18.2094 C   0  0  0  0  0  0
  -28.0274  -12.3383   18.6244 C   0  0  0  0  0  0
  -27.6559  -13.1958   19.8623 C   0  0  2  0  0  0
  -28.7051  -13.0115   20.9841 C   0  0  0  0  0  0
  -25.2594  -13.8117   20.5667 C   0  0  0  0  0  0
  -24.1843  -13.0417   20.9192 C   0  0  0  0  0  0
  -24.6385  -11.6879   20.8740 C   0  0  0  0  0  0
  -23.9045  -10.4279   21.0411 C   0  0  0  0  0  0
  -24.3605   -9.4199   21.9184 C   0  0  0  0  0  0
  -23.6281   -8.2230   22.0757 C   0  0  0  0  0  0
  -22.4264   -8.0271   21.3544 C   0  0  0  0  0  0
  -21.9895   -9.0247   20.4646 C   0  0  0  0  0  0
  -22.7219  -10.2125   20.3057 C   0  0  0  0  0  0
  -21.6850   -6.0727   22.5272 C   0  0  0  0  0  0
  -21.4013   -6.5635   23.8208 C   0  0  0  0  0  0
  -21.3657   -5.6788   24.9168 C   0  0  0  0  0  0
  -21.6048   -4.3048   24.7217 C   0  0  0  0  0  0
  -21.8821   -3.8144   23.4341 C   0  0  0  0  0  0
  -21.9195   -4.6960   22.3398 C   0  0  0  0  0  0
  -22.7871  -13.5233   21.1849 C   0  0  0  0  0  0
  -22.1662   -4.2145   21.0975 F   0  0  0  0  0  0
  -21.5631   -3.4537   25.7733 F   0  0  0  0  0  0
  -30.0219  -13.3631   20.4224 N   0  0  0  0  0  0
  -26.2998  -12.9249   20.3299 N   0  0  0  0  0  0
  -25.9300  -11.6433   20.5743 N   0  0  0  0  0  0
  -22.0502  -12.8236   22.0402 N   0  0  0  0  0  0
  -25.4317  -15.1838   20.4055 N   0  0  0  0  0  0
  -31.7775  -14.8063   20.1976 O   0  0  0  0  0  0
  -21.6635   -6.8870   21.4234 O   0  0  0  0  0  0
  -22.3571  -14.5543   20.6693 O   0  0  0  0  0  0
  -24.6207  -31.8633   23.2036 C   0  0  0  0  0  0
  -25.9063  -32.4812   23.8357 C   0  0  1  0  0  0
  -27.2332  -27.3701   20.1174 C   0  0  0  0  0  0
  -25.5903  -33.8610   24.2300 N   0  0  0  0  0  0
  -23.4131  -30.4853   21.5451 C   0  0  2  0  0  0
  -24.8617  -28.9387   20.1182 C   0  0  0  0  0  0
  -22.7451  -29.4631   22.4945 C   0  0  0  0  0  0
  -18.0285  -28.1399   22.8491 C   0  0  0  0  0  0
  -24.1488  -36.7283   23.2636 C   0  0  0  0  0  0
  -25.9483  -30.8099   21.3665 C   0  0  0  0  0  0
  -26.0259  -29.4383   20.7155 C   0  0  0  0  0  0
  -27.2187  -28.6656   20.7037 C   0  0  0  0  0  0
  -26.0504  -26.9010   19.5094 C   0  0  0  0  0  0
  -24.8707  -27.6722   19.5098 C   0  0  0  0  0  0
  -23.6269  -29.8144   20.1622 C   0  0  0  0  0  0
  -25.4114  -36.3099   24.0336 C   0  0  1  0  0  0
  -20.5879  -28.3683   23.1301 C   0  0  2  0  0  0
  -20.6776  -26.9409   22.5424 C   0  0  0  0  0  0
  -19.5755  -26.6394   21.5223 C   0  0  0  0  0  0
  -18.1932  -26.7942   22.1628 C   0  0  0  0  0  0
  -19.1536  -28.8856   23.2896 C   0  0  0  0  0  0
  -18.9463  -30.1461   23.8912 C   0  0  0  0  0  0
  -17.6461  -30.6600   24.0566 C   0  0  0  0  0  0
  -25.9042  -34.9470   23.5111 C   0  0  0  0  0  0
  -16.5352  -29.9104   23.6331 C   0  0  0  0  0  0
  -16.7271  -28.6514   23.0356 C   0  0  0  0  0  0
  -26.4468  -31.6611   25.0706 C   0  0  0  0  0  0
  -25.3722  -31.3740   26.1451 C   0  0  0  0  0  0
  -27.0278  -30.3043   24.6098 C   0  0  0  0  0  0
  -27.6037  -32.4335   25.7469 C   0  0  0  0  0  0
  -27.5580  -37.1807   24.8469 C   0  0  0  0  0  0
  -21.4166  -29.3038   22.3689 N   0  0  0  0  0  0
  -26.4295  -37.3791   23.9404 N   0  0  0  0  0  0
  -24.6787  -31.0689   22.0959 N   0  0  0  0  0  0
  -23.4189  -28.8190   23.3020 O   0  0  0  0  0  0
  -28.3707  -26.5707   20.0991 O   0  0  0  0  0  0
  -26.5609  -34.8930   22.4677 O   0  0  0  0  0  0
  -23.5386  -32.1394   23.7408 O   0  0  0  0  0  0
  -29.8472  -19.2190   21.4156 C   0  0  0  0  0  0
  -28.9934  -18.9368   22.4655 C   0  0  0  0  0  0
  -29.7095  -16.8986   21.2532 C   0  0  0  0  0  0
  -32.9757  -21.5949   22.8816 C   0  0  0  0  0  0
  -32.7820  -19.0935   22.6962 C   0  0  0  0  0  0
  -34.3960  -20.3438   21.2703 C   0  0  0  0  0  0
  -31.9450  -20.5871   20.7546 C   0  0  0  0  0  0
  -28.8759  -22.6789   20.8690 C   0  0  0  0  0  0
  -28.2874  -25.2815   20.7875 C   0  0  0  0  0  0
  -30.4358  -20.6254   21.1394 C   0  0  1  0  0  0
  -28.9259  -24.0316   20.0583 C   0  0  1  0  0  0
  -32.9911  -20.4003   21.9028 C   0  0  0  0  0  0
  -30.1898  -18.0352   20.6859 N   0  0  0  0  0  0
  -28.4043  -19.8008   23.3860 N   0  0  0  0  0  0
  -29.6820  -15.5788   20.6893 N   0  0  0  0  0  0
  -29.6556  -21.5509   20.2399 N   0  3  0  0  0  0
  -30.3050  -24.2932   19.8525 O   0  0  0  0  0  0
  -28.6829  -17.2283   22.6374 S   0  0  0  0  0  0
  -31.4873  -12.5267   19.1162 H   0  0  0  0  0  0
  -30.4085  -11.3667   19.8472 H   0  0  0  0  0  0
  -29.7629  -11.7577   17.4535 H   0  0  0  0  0  0
  -29.6462  -13.4751   17.7382 H   0  0  0  0  0  0
  -27.8585  -11.2832   18.8435 H   0  0  0  0  0  0
  -27.3719  -12.5824   17.7874 H   0  0  0  0  0  0
  -27.6769  -14.2328   19.5295 H   0  0  0  0  0  0
  -28.7133  -11.9777   21.3326 H   0  0  0  0  0  0
  -28.4581  -13.6142   21.8600 H   0  0  0  0  0  0
  -25.2754   -9.5674   22.4752 H   0  0  0  0  0  0
  -23.9994   -7.4626   22.7477 H   0  0  0  0  0  0
  -21.0827   -8.8760   19.8954 H   0  0  0  0  0  0
  -22.3679  -10.9663   19.6165 H   0  0  0  0  0  0
  -21.2003   -7.6143   23.9704 H   0  0  0  0  0  0
  -21.1477   -6.0520   25.9069 H   0  0  0  0  0  0
  -22.0604   -2.7607   23.2838 H   0  0  0  0  0  0
  -22.4107  -11.9894   22.4789 H   0  0  0  0  0  0
  -21.1120  -13.1268   22.2597 H   0  0  0  0  0  0
  -24.6553  -15.8285   20.5078 H   0  0  0  0  0  0
  -26.2542  -15.6209   20.0116 H   0  0  0  0  0  0
  -26.7130  -32.5493   23.1113 H   0  0  0  0  0  0
  -25.0111  -33.9770   25.0486 H   0  0  0  0  0  0
  -22.7044  -31.3033   21.4006 H   0  0  0  0  0  0
  -23.3766  -35.9600   23.3327 H   0  0  0  0  0  0
  -24.3579  -36.8878   22.2047 H   0  0  0  0  0  0
  -23.7234  -37.6492   23.6626 H   0  0  0  0  0  0
  -26.0707  -31.5710   20.5949 H   0  0  0  0  0  0
  -26.8331  -30.8659   21.9892 H   0  0  0  0  0  0
  -28.1178  -29.0476   21.1658 H   0  0  0  0  0  0
  -26.0388  -25.9308   19.0328 H   0  0  0  0  0  0
  -23.9756  -27.2833   19.0435 H   0  0  0  0  0  0
  -23.7452  -30.5866   19.4003 H   0  0  0  0  0  0
  -22.7481  -29.2393   19.8627 H   0  0  0  0  0  0
  -25.1308  -36.1963   25.0834 H   0  0  0  0  0  0
  -20.9990  -28.3271   24.1414 H   0  0  0  0  0  0
  -20.5711  -26.2285   23.3622 H   0  0  0  0  0  0
  -21.6646  -26.7469   22.1196 H   0  0  0  0  0  0
  -19.6915  -25.6310   21.1244 H   0  0  0  0  0  0
  -19.6702  -27.3210   20.6762 H   0  0  0  0  0  0
  -17.4206  -26.6695   21.4025 H   0  0  0  0  0  0
  -18.0320  -26.0096   22.9037 H   0  0  0  0  0  0
  -19.7941  -30.7273   24.2297 H   0  0  0  0  0  0
  -17.5019  -31.6282   24.5170 H   0  0  0  0  0  0
  -15.5358  -30.3015   23.7644 H   0  0  0  0  0  0
  -15.8670  -28.0843   22.7075 H   0  0  0  0  0  0
  -24.5901  -30.7078   25.7795 H   0  0  0  0  0  0
  -24.8899  -32.2904   26.4863 H   0  0  0  0  0  0
  -25.8086  -30.8943   27.0224 H   0  0  0  0  0  0
  -26.2809  -29.6847   24.1117 H   0  0  0  0  0  0
  -27.4000  -29.7256   25.4560 H   0  0  0  0  0  0
  -27.8678  -30.4356   23.9273 H   0  0  0  0  0  0
  -27.2654  -33.3646   26.2030 H   0  0  0  0  0  0
  -28.3852  -32.6896   25.0299 H   0  0  0  0  0  0
  -28.0677  -31.8462   26.5406 H   0  0  0  0  0  0
  -28.2628  -38.0077   24.7518 H   0  0  0  0  0  0
  -28.1064  -36.2624   24.6320 H   0  0  0  0  0  0
  -27.2293  -37.1490   25.8871 H   0  0  0  0  0  0
  -20.9334  -29.8761   21.6907 H   0  0  0  0  0  0
  -26.0193  -38.2871   24.1416 H   0  0  0  0  0  0
  -33.7772  -21.5110   23.6174 H   0  0  0  0  0  0
  -32.0483  -21.6661   23.4494 H   0  0  0  0  0  0
  -33.1166  -22.5430   22.3610 H   0  0  0  0  0  0
  -33.5922  -18.9328   23.4089 H   0  0  0  0  0  0
  -32.7526  -18.2211   22.0415 H   0  0  0  0  0  0
  -31.8601  -19.1070   23.2775 H   0  0  0  0  0  0
  -35.1700  -20.2042   22.0277 H   0  0  0  0  0  0
  -34.6330  -21.2638   20.7345 H   0  0  0  0  0  0
  -34.4860  -19.5193   20.5616 H   0  0  0  0  0  0
  -32.1923  -21.5292   20.2629 H   0  0  0  0  0  0
  -32.0957  -19.8307   19.9829 H   0  0  0  0  0  0
  -27.8434  -22.3577   21.0109 H   0  0  0  0  0  0
  -29.2595  -22.8915   21.8671 H   0  0  0  0  0  0
  -28.7640  -25.4112   21.7599 H   0  0  0  0  0  0
  -27.2478  -25.0424   21.0178 H   0  0  0  0  0  0
  -30.4264  -21.1302   22.1000 H   0  0  0  0  0  0
  -28.4412  -23.8977   19.0907 H   0  0  0  0  0  0
  -28.5586  -20.8007   23.4664 H   0  0  0  0  0  0
  -27.8217  -19.4539   24.1431 H   0  0  0  0  0  0
  -28.7791  -15.1465   20.7970 H   0  0  0  0  0  0
  -30.3472  -22.0475   19.6984 H   0  0  0  0  0  0
  -29.0889  -21.0270   19.5958 H   0  0  0  0  0  0
  -30.3633  -25.1632   19.4648 H   0  0  0  0  0  0
  1 25  1  0  0  0
  1 30  2  0  0  0
  1 85  1  0  0  0
  2  3  1  0  0  0
  2 25  1  0  0  0
  2 89  1  0  0  0
  2 90  1  0  0  0
  3  4  1  0  0  0
  3 91  1  0  0  0
  3 92  1  0  0  0
  4  5  1  0  0  0
  4 93  1  0  0  0
  4 94  1  0  0  0
  5  6  1  0  0  0
  5 26  1  0  0  0
  5 95  1  0  0  0
  6 25  1  0  0  0
  6 96  1  0  0  0
  6 97  1  0  0  0
  7  8  2  0  0  0
  7 26  1  0  0  0
  7 29  1  0  0  0
  8  9  1  0  0  0
  8 22  1  0  0  0
  9 10  1  0  0  0
  9 27  2  0  0  0
 10 11  2  0  0  0
 10 15  1  0  0  0
 11 12  1  0  0  0
 11 98  1  0  0  0
 12 13  2  0  0  0
 12 99  1  0  0  0
 13 14  1  0  0  0
 13 31  1  0  0  0
 14 15  2  0  0  0
 14100  1  0  0  0
 15101  1  0  0  0
 16 17  2  0  0  0
 16 21  1  0  0  0
 16 31  1  0  0  0
 17 18  1  0  0  0
 17102  1  0  0  0
 18 19  2  0  0  0
 18103  1  0  0  0
 19 20  1  0  0  0
 19 24  1  0  0  0
 20 21  2  0  0  0
 20104  1  0  0  0
 21 23  1  0  0  0
 22 28  1  0  0  0
 22 32  2  0  0  0
 26 27  1  0  0  0
 28105  1  0  0  0
 28106  1  0  0  0
 29107  1  0  0  0
 29108  1  0  0  0
 33 34  1  0  0  0
 33 66  1  0  0  0
 33 70  2  0  0  0
 34 36  1  0  0  0
 34 59  1  0  0  0
 34109  1  0  0  0
 35 44  2  0  0  0
 35 45  1  0  0  0
 35 68  1  0  0  0
 36 56  1  0  0  0
 36110  1  0  0  0
 37 39  1  0  0  0
 37 47  1  0  0  0
 37 66  1  0  0  0
 37111  1  0  0  0
 38 43  2  0  0  0
 38 46  1  0  0  0
 38 47  1  0  0  0
 39 64  1  0  0  0
 39 67  2  0  0  0
 40 52  1  0  0  0
 40 53  2  0  0  0
 40 58  1  0  0  0
 41112  1  0  0  0
 41113  1  0  0  0
 41114  1  0  0  0
 41 48  1  0  0  0
 42 43  1  0  0  0
 42 66  1  0  0  0
 42115  1  0  0  0
 42116  1  0  0  0
 43 44  1  0  0  0
 44117  1  0  0  0
 45 46  2  0  0  0
 45118  1  0  0  0
 46119  1  0  0  0
 47120  1  0  0  0
 47121  1  0  0  0
 48 56  1  0  0  0
 48 65  1  0  0  0
 48122  1  0  0  0
 49 50  1  0  0  0
 49 53  1  0  0  0
 49 64  1  0  0  0
 49123  1  0  0  0
 50 51  1  0  0  0
 50124  1  0  0  0
 50125  1  0  0  0
 51 52  1  0  0  0
 51126  1  0  0  0
 51127  1  0  0  0
 52128  1  0  0  0
 52129  1  0  0  0
 53 54  1  0  0  0
 54 55  2  0  0  0
 54130  1  0  0  0
 55 57  1  0  0  0
 55131  1  0  0  0
 56 69  2  0  0  0
 57 58  2  0  0  0
 57132  1  0  0  0
 58133  1  0  0  0
 59 60  1  0  0  0
 59 61  1  0  0  0
 59 62  1  0  0  0
 60134  1  0  0  0
 60135  1  0  0  0
 60136  1  0  0  0
 61137  1  0  0  0
 61138  1  0  0  0
 61139  1  0  0  0
 62140  1  0  0  0
 62141  1  0  0  0
 62142  1  0  0  0
 63 65  1  0  0  0
 63143  1  0  0  0
 63144  1  0  0  0
 63145  1  0  0  0
 64146  1  0  0  0
 65147  1  0  0  0
 68 79  1  0  0  0
 71 72  2  0  0  0
 71 80  1  0  0  0
 71 83  1  0  0  0
 72 84  1  0  0  0
 72 88  1  0  0  0
 73 83  2  0  0  0
 73 85  1  0  0  0
 73 88  1  0  0  0
 74148  1  0  0  0
 74149  1  0  0  0
 74150  1  0  0  0
 74 82  1  0  0  0
 75 82  1  0  0  0
 75151  1  0  0  0
 75152  1  0  0  0
 75153  1  0  0  0
 76 82  1  0  0  0
 76154  1  0  0  0
 76155  1  0  0  0
 76156  1  0  0  0
 77 82  1  0  0  0
 77157  1  0  0  0
 77158  1  0  0  0
 77 80  1  0  0  0
 78 81  1  0  0  0
 78 86  1  0  0  0
 78159  1  0  0  0
 78160  1  0  0  0
 79 81  1  0  0  0
 79161  1  0  0  0
 79162  1  0  0  0
 80 86  1  0  0  0
 80163  1  0  0  0
 81 87  1  0  0  0
 81164  1  0  0  0
 84165  1  0  0  0
 84166  1  0  0  0
 85167  1  0  0  0
 86168  1  0  0  0
 86169  1  0  0  0
 87170  1  0  0  0
M  CHG  1  86   1
M  ISO  4   1 100  68 101  79 101  85 100
M  END
> <chiral flag>
0

> <version>
0

> <s_m_source_file>
/data/baiqing/PycharmProjects/Reinvent-master-3.2/result/LINK_invent/BTK/process_docking_weight1_custom_product_contain_oxygen_bond_distance_aromatic_linkinvent_7_9_3/rearranged_h_0196.sdf

> <i_m_source_file_index>
95

> <r_mmod_Potential_Energy-OPLS-2005>
-151.227111816406

> <r_mmod_Stretch_Energy-OPLS-2005>
60.883861541748

> <r_mmod_Bend_Energy-OPLS-2005>
156.3642578125

> <r_mmod_Torsional_Energy-OPLS-2005>
293.944427490234

> <r_mmod_Improper_Torsional_Energy-OPLS-2005>
12.6206312179565

> <r_mmod_Van_der_Waal_Energy-OPLS-2005>
116.404853820801

> <r_mmod_Electrostatic_Energy-OPLS-2005>
-367.312042236328

> <r_mmod_Solvation_Energy-OPLS-2005>
-457.899536132812

> <b_mmod_Minimization_Converged-OPLS-2005>
0

> <r_mmod_RMS_Derivative-OPLS-2005>
1.77808845043182

$$$$
95
                    3D
 Structure written by MMmdl.
153161  0  0  1  0            999 V2000
  -30.5997  -14.7603   20.4567 C   0  0  0  0  0  0
  -30.4366  -12.4568   19.4951 C   0  0  0  0  0  0
  -29.5228  -12.5170   18.2500 C   0  0  0  0  0  0
  -28.0462  -12.3398   18.6517 C   0  0  0  0  0  0
  -27.6445  -13.2339   19.8553 C   0  0  2  0  0  0
  -28.6841  -13.1654   20.9973 C   0  0  0  0  0  0
  -25.2508  -13.8202   20.5676 C   0  0  0  0  0  0
  -24.1812  -13.0431   20.9211 C   0  0  0  0  0  0
  -24.6418  -11.6924   20.8747 C   0  0  0  0  0  0
  -23.9090  -10.4304   21.0378 C   0  0  0  0  0  0
  -24.3622   -9.4209   21.9155 C   0  0  0  0  0  0
  -23.6290   -8.2245   22.0749 C   0  0  0  0  0  0
  -22.4276   -8.0280   21.3537 C   0  0  0  0  0  0
  -21.9923   -9.0268   20.4648 C   0  0  0  0  0  0
  -22.7255  -10.2145   20.3030 C   0  0  0  0  0  0
  -21.6861   -6.0734   22.5282 C   0  0  0  0  0  0
  -21.4029   -6.5638   23.8218 C   0  0  0  0  0  0
  -21.3662   -5.6780   24.9173 C   0  0  0  0  0  0
  -21.6024   -4.3039   24.7230 C   0  0  0  0  0  0
  -21.8809   -3.8147   23.4349 C   0  0  0  0  0  0
  -21.9208   -4.6965   22.3408 C   0  0  0  0  0  0
  -22.7836  -13.5212   21.1873 C   0  0  0  0  0  0
  -22.1649   -4.2154   21.0979 F   0  0  0  0  0  0
  -21.5648   -3.4520   25.7742 F   0  0  0  0  0  0
  -29.9925  -13.5215   20.4289 N   0  0  0  0  0  0
  -26.2944  -12.9409   20.3260 N   0  0  0  0  0  0
  -25.9344  -11.6553   20.5742 N   0  0  0  0  0  0
  -22.0443  -12.8241   22.0428 N   0  0  0  0  0  0
  -25.4189  -15.1930   20.4130 N   0  0  0  0  0  0
  -31.7702  -14.8748   20.0823 O   0  0  0  0  0  0
  -21.6629   -6.8879   21.4238 O   0  0  0  0  0  0
  -22.3535  -14.5503   20.6696 O   0  0  0  0  0  0
  -24.6329  -31.8522   23.1968 C   0  0  0  0  0  0
  -25.9154  -32.4716   23.8308 C   0  0  1  0  0  0
  -27.2126  -27.2375   20.1194 C   0  0  0  0  0  0
  -25.5936  -33.8534   24.2226 N   0  0  0  0  0  0
  -23.4310  -30.4751   21.5389 C   0  0  2  0  0  0
  -24.8762  -28.9250   20.1042 C   0  0  0  0  0  0
  -22.7513  -29.4591   22.4904 C   0  0  0  0  0  0
  -18.0301  -28.1386   22.8476 C   0  0  0  0  0  0
  -24.1501  -36.7294   23.2639 C   0  0  0  0  0  0
  -25.9803  -30.7530   21.3857 C   0  0  0  0  0  0
  -26.0475  -29.3762   20.7239 C   0  0  0  0  0  0
  -27.2132  -28.5427   20.7265 C   0  0  0  0  0  0
  -26.0215  -26.8750   19.4481 C   0  0  0  0  0  0
  -24.8697  -27.6835   19.4550 C   0  0  0  0  0  0
  -23.6503  -29.8160   20.1542 C   0  0  0  0  0  0
  -25.4123  -36.3060   24.0310 C   0  0  1  0  0  0
  -20.5904  -28.3705   23.1259 C   0  0  2  0  0  0
  -20.6780  -26.9419   22.5406 C   0  0  0  0  0  0
  -19.5754  -26.6383   21.5203 C   0  0  0  0  0  0
  -18.1935  -26.7930   22.1609 C   0  0  0  0  0  0
  -19.1557  -28.8857   23.2858 C   0  0  0  0  0  0
  -18.9467  -30.1461   23.8877 C   0  0  0  0  0  0
  -17.6462  -30.6582   24.0559 C   0  0  0  0  0  0
  -25.9065  -34.9428   23.5082 C   0  0  0  0  0  0
  -16.5357  -29.9085   23.6326 C   0  0  0  0  0  0
  -16.7284  -28.6504   23.0335 C   0  0  0  0  0  0
  -26.4498  -31.6574   25.0730 C   0  0  0  0  0  0
  -25.3713  -31.3772   26.1450 C   0  0  0  0  0  0
  -27.0329  -30.2959   24.6281 C   0  0  0  0  0  0
  -27.6058  -32.4335   25.7500 C   0  0  0  0  0  0
  -27.5564  -37.1805   24.8455 C   0  0  0  0  0  0
  -21.4203  -29.3040   22.3648 N   0  0  0  0  0  0
  -26.4291  -37.3749   23.9395 N   0  0  0  0  0  0
  -24.7003  -31.0474   22.0961 N   0  0  0  0  0  0
  -23.4206  -28.8107   23.2999 O   0  0  0  0  0  0
  -28.3127  -26.3433   20.2069 O   0  0  0  0  0  0
  -26.5629  -34.8909   22.4657 O   0  0  0  0  0  0
  -23.5470  -32.1370   23.7230 O   0  0  0  0  0  0
  -30.3100  -18.7985   22.1345 C   0  0  0  0  0  0
  -29.9071  -21.0954   22.1451 C   0  0  0  0  0  0
  -29.8043  -18.6709   20.8191 C   0  0  0  0  0  0
  -29.3454  -21.0616   20.8406 C   0  0  0  0  0  0
  -27.7582  -23.6802   22.0029 C   0  0  0  0  0  0
  -29.9507  -17.2816   20.0391 C   0  0  0  0  0  0
  -28.2503  -24.8821   19.8074 C   0  0  0  0  0  0
  -28.7217  -23.6763   20.7978 C   0  0  2  0  0  0
  -30.3611  -19.9882   22.7877 N   0  0  0  0  0  0
  -29.3122  -19.8238   20.1890 N   0  0  0  0  0  0
  -28.8337  -22.2667   20.2084 N   0  0  0  0  0  0
  -29.8175  -15.8879   20.6722 N   0  0  0  0  0  0
  -31.4793  -12.5810   19.2001 H   0  0  0  0  0  0
  -30.3762  -11.4772   19.9724 H   0  0  0  0  0  0
  -29.8124  -11.7532   17.5288 H   0  0  0  0  0  0
  -29.6573  -13.4749   17.7426 H   0  0  0  0  0  0
  -27.9045  -11.2926   18.9098 H   0  0  0  0  0  0
  -27.3975  -12.5314   17.7955 H   0  0  0  0  0  0
  -27.6381  -14.2558   19.4756 H   0  0  0  0  0  0
  -28.7159  -12.1634   21.4278 H   0  0  0  0  0  0
  -28.4140  -13.8415   21.8097 H   0  0  0  0  0  0
  -25.2751   -9.5703   22.4739 H   0  0  0  0  0  0
  -24.0008   -7.4647   22.7473 H   0  0  0  0  0  0
  -21.0861   -8.8787   19.8964 H   0  0  0  0  0  0
  -22.3694  -10.9680   19.6152 H   0  0  0  0  0  0
  -21.1989   -7.6147   23.9733 H   0  0  0  0  0  0
  -21.1493   -6.0502   25.9079 H   0  0  0  0  0  0
  -22.0588   -2.7614   23.2843 H   0  0  0  0  0  0
  -22.4047  -11.9914   22.4863 H   0  0  0  0  0  0
  -21.1040  -13.1294   22.2556 H   0  0  0  0  0  0
  -24.6499  -15.8429   20.5362 H   0  0  0  0  0  0
  -26.2633  -15.6417   20.0844 H   0  0  0  0  0  0
  -26.7241  -32.5348   23.1058 H   0  0  0  0  0  0
  -25.0068  -33.9697   25.0348 H   0  0  0  0  0  0
  -22.7286  -31.2986   21.3941 H   0  0  0  0  0  0
  -23.3738  -35.9647   23.3301 H   0  0  0  0  0  0
  -24.3595  -36.8911   22.2053 H   0  0  0  0  0  0
  -23.7282  -37.6505   23.6671 H   0  0  0  0  0  0
  -26.1342  -31.5159   20.6217 H   0  0  0  0  0  0
  -26.8525  -30.7907   22.0252 H   0  0  0  0  0  0
  -28.1055  -28.8804   21.2354 H   0  0  0  0  0  0
  -25.9242  -25.9557   18.8955 H   0  0  0  0  0  0
  -23.9790  -27.3417   18.9447 H   0  0  0  0  0  0
  -23.7791  -30.5939   19.4019 H   0  0  0  0  0  0
  -22.7681  -29.2522   19.8426 H   0  0  0  0  0  0
  -25.1316  -36.1878   25.0788 H   0  0  0  0  0  0
  -20.9988  -28.3273   24.1374 H   0  0  0  0  0  0
  -20.5660  -26.2308   23.3611 H   0  0  0  0  0  0
  -21.6647  -26.7423   22.1190 H   0  0  0  0  0  0
  -19.6905  -25.6280   21.1248 H   0  0  0  0  0  0
  -19.6686  -27.3180   20.6721 H   0  0  0  0  0  0
  -17.4200  -26.6668   21.4023 H   0  0  0  0  0  0
  -18.0339  -26.0092   22.9025 H   0  0  0  0  0  0
  -19.7947  -30.7285   24.2227 H   0  0  0  0  0  0
  -17.5021  -31.6248   24.5174 H   0  0  0  0  0  0
  -15.5357  -30.2962   23.7675 H   0  0  0  0  0  0
  -15.8684  -28.0824   22.7038 H   0  0  0  0  0  0
  -24.5874  -30.7118   25.7812 H   0  0  0  0  0  0
  -24.8922  -32.2962   26.4839 H   0  0  0  0  0  0
  -25.8019  -30.8984   27.0254 H   0  0  0  0  0  0
  -26.2903  -29.6702   24.1299 H   0  0  0  0  0  0
  -27.3947  -29.7247   25.4845 H   0  0  0  0  0  0
  -27.8832  -30.4188   23.9573 H   0  0  0  0  0  0
  -27.2680  -33.3699   26.1962 H   0  0  0  0  0  0
  -28.3922  -32.6770   25.0346 H   0  0  0  0  0  0
  -28.0641  -31.8508   26.5495 H   0  0  0  0  0  0
  -28.2585  -38.0099   24.7485 H   0  0  0  0  0  0
  -28.1064  -36.2627   24.6312 H   0  0  0  0  0  0
  -27.2292  -37.1486   25.8862 H   0  0  0  0  0  0
  -20.9390  -29.8816   21.6891 H   0  0  0  0  0  0
  -26.0153  -38.2815   24.1376 H   0  0  0  0  0  0
  -30.7187  -17.9435   22.6557 H   0  0  0  0  0  0
  -30.0071  -22.0150   22.7022 H   0  0  0  0  0  0
  -26.7580  -23.3427   21.7209 H   0  0  0  0  0  0
  -27.6471  -24.6849   22.4113 H   0  0  0  0  0  0
  -28.0929  -23.0569   22.8294 H   0  0  0  0  0  0
  -29.2102  -17.3080   19.2399 H   0  0  0  0  0  0
  -30.9138  -17.3301   19.5277 H   0  0  0  0  0  0
  -27.2507  -24.5886   19.4922 H   0  0  0  0  0  0
  -28.8458  -24.8100   18.8941 H   0  0  0  0  0  0
  -29.7188  -23.9401   21.1578 H   0  0  0  0  0  0
  -28.4790  -22.1493   19.2653 H   0  0  0  0  0  0
  -28.9001  -15.6924   21.0435 H   0  0  0  0  0  0
  1 25  1  0  0  0
  1 30  2  0  0  0
  1 82  1  0  0  0
  2  3  1  0  0  0
  2 25  1  0  0  0
  2 83  1  0  0  0
  2 84  1  0  0  0
  3  4  1  0  0  0
  3 85  1  0  0  0
  3 86  1  0  0  0
  4  5  1  0  0  0
  4 87  1  0  0  0
  4 88  1  0  0  0
  5  6  1  0  0  0
  5 26  1  0  0  0
  5 89  1  0  0  0
  6 25  1  0  0  0
  6 90  1  0  0  0
  6 91  1  0  0  0
  7  8  2  0  0  0
  7 26  1  0  0  0
  7 29  1  0  0  0
  8  9  1  0  0  0
  8 22  1  0  0  0
  9 10  1  0  0  0
  9 27  2  0  0  0
 10 11  2  0  0  0
 10 15  1  0  0  0
 11 12  1  0  0  0
 11 92  1  0  0  0
 12 13  2  0  0  0
 12 93  1  0  0  0
 13 14  1  0  0  0
 13 31  1  0  0  0
 14 15  2  0  0  0
 14 94  1  0  0  0
 15 95  1  0  0  0
 16 17  2  0  0  0
 16 21  1  0  0  0
 16 31  1  0  0  0
 17 18  1  0  0  0
 17 96  1  0  0  0
 18 19  2  0  0  0
 18 97  1  0  0  0
 19 20  1  0  0  0
 19 24  1  0  0  0
 20 21  2  0  0  0
 20 98  1  0  0  0
 21 23  1  0  0  0
 22 28  1  0  0  0
 22 32  2  0  0  0
 26 27  1  0  0  0
 28 99  1  0  0  0
 28100  1  0  0  0
 29101  1  0  0  0
 29102  1  0  0  0
 33 34  1  0  0  0
 33 66  1  0  0  0
 33 70  2  0  0  0
 34 36  1  0  0  0
 34 59  1  0  0  0
 34103  1  0  0  0
 35 44  2  0  0  0
 35 45  1  0  0  0
 35 68  1  0  0  0
 36 56  1  0  0  0
 36104  1  0  0  0
 37 39  1  0  0  0
 37 47  1  0  0  0
 37 66  1  0  0  0
 37105  1  0  0  0
 38 43  2  0  0  0
 38 46  1  0  0  0
 38 47  1  0  0  0
 39 64  1  0  0  0
 39 67  2  0  0  0
 40 52  1  0  0  0
 40 53  2  0  0  0
 40 58  1  0  0  0
 41106  1  0  0  0
 41107  1  0  0  0
 41108  1  0  0  0
 41 48  1  0  0  0
 42 43  1  0  0  0
 42 66  1  0  0  0
 42109  1  0  0  0
 42110  1  0  0  0
 43 44  1  0  0  0
 44111  1  0  0  0
 45 46  2  0  0  0
 45112  1  0  0  0
 46113  1  0  0  0
 47114  1  0  0  0
 47115  1  0  0  0
 48 56  1  0  0  0
 48 65  1  0  0  0
 48116  1  0  0  0
 49 50  1  0  0  0
 49 53  1  0  0  0
 49 64  1  0  0  0
 49117  1  0  0  0
 50 51  1  0  0  0
 50118  1  0  0  0
 50119  1  0  0  0
 51 52  1  0  0  0
 51120  1  0  0  0
 51121  1  0  0  0
 52122  1  0  0  0
 52123  1  0  0  0
 53 54  1  0  0  0
 54 55  2  0  0  0
 54124  1  0  0  0
 55 57  1  0  0  0
 55125  1  0  0  0
 56 69  2  0  0  0
 57 58  2  0  0  0
 57126  1  0  0  0
 58127  1  0  0  0
 59 60  1  0  0  0
 59 61  1  0  0  0
 59 62  1  0  0  0
 60128  1  0  0  0
 60129  1  0  0  0
 60130  1  0  0  0
 61131  1  0  0  0
 61132  1  0  0  0
 61133  1  0  0  0
 62134  1  0  0  0
 62135  1  0  0  0
 62136  1  0  0  0
 63 65  1  0  0  0
 63137  1  0  0  0
 63138  1  0  0  0
 63139  1  0  0  0
 64140  1  0  0  0
 65141  1  0  0  0
 68 77  1  0  0  0
 71 73  2  0  0  0
 71 79  1  0  0  0
 71142  1  0  0  0
 72 74  1  0  0  0
 72 79  2  0  0  0
 72143  1  0  0  0
 73 76  1  0  0  0
 73 80  1  0  0  0
 74 80  2  0  0  0
 74 81  1  0  0  0
 75144  1  0  0  0
 75145  1  0  0  0
 75146  1  0  0  0
 75 78  1  0  0  0
 76 82  1  0  0  0
 76147  1  0  0  0
 76148  1  0  0  0
 77 78  1  0  0  0
 77149  1  0  0  0
 77150  1  0  0  0
 78 81  1  0  0  0
 78151  1  0  0  0
 81152  1  0  0  0
 82153  1  0  0  0
M  ISO  4   1 100  68 101  77 101  82 100
M  END
> <chiral flag>
0

> <version>
0

> <s_m_source_file>
/data/baiqing/PycharmProjects/Reinvent-master-3.2/result/LINK_invent/BTK/process_docking_weight1_custom_product_contain_oxygen_bond_distance_aromatic_linkinvent_7_9_3/rearranged_h_0196.sdf

> <i_m_source_file_index>
96

> <r_mmod_Potential_Energy-OPLS-2005>
152.710723876953

> <r_mmod_Stretch_Energy-OPLS-2005>
137.08561706543

> <r_mmod_Bend_Energy-OPLS-2005>
191.593780517578

> <r_mmod_Torsional_Energy-OPLS-2005>
197.953216552734

> <r_mmod_Improper_Torsional_Energy-OPLS-2005>
7.13474369049072

> <r_mmod_Van_der_Waal_Energy-OPLS-2005>
141.841415405273

> <r_mmod_Electrostatic_Energy-OPLS-2005>
-383.089904785156

> <r_mmod_Solvation_Energy-OPLS-2005>
-234.958068847656

> <b_mmod_Minimization_Converged-OPLS-2005>
0

> <r_mmod_RMS_Derivative-OPLS-2005>
3.50641751289368

$$$$
96
                    3D
 Structure written by MMmdl.
147155  0  0  1  0            999 V2000
  -30.6080  -14.7777   20.4495 C   0  0  0  0  0  0
  -30.4342  -12.4781   19.4749 C   0  0  0  0  0  0
  -29.5090  -12.4927   18.2385 C   0  0  0  0  0  0
  -28.0391  -12.3101   18.6610 C   0  0  0  0  0  0
  -27.6379  -13.2299   19.8442 C   0  0  2  0  0  0
  -28.6832  -13.1941   20.9794 C   0  0  0  0  0  0
  -25.2505  -13.8189   20.5703 C   0  0  0  0  0  0
  -24.1798  -13.0441   20.9223 C   0  0  0  0  0  0
  -24.6382  -11.6917   20.8760 C   0  0  0  0  0  0
  -23.9060  -10.4293   21.0413 C   0  0  0  0  0  0
  -24.3615   -9.4210   21.9187 C   0  0  0  0  0  0
  -23.6293   -8.2242   22.0752 C   0  0  0  0  0  0
  -22.4274   -8.0277   21.3542 C   0  0  0  0  0  0
  -21.9910   -9.0253   20.4646 C   0  0  0  0  0  0
  -22.7235  -10.2132   20.3061 C   0  0  0  0  0  0
  -21.6852   -6.0734   22.5279 C   0  0  0  0  0  0
  -21.4009   -6.5639   23.8211 C   0  0  0  0  0  0
  -21.3658   -5.6792   24.9174 C   0  0  0  0  0  0
  -21.6043   -4.3054   24.7225 C   0  0  0  0  0  0
  -21.8823   -3.8147   23.4346 C   0  0  0  0  0  0
  -21.9197   -4.6963   22.3404 C   0  0  0  0  0  0
  -22.7822  -13.5226   21.1881 C   0  0  0  0  0  0
  -22.1666   -4.2149   21.0981 F   0  0  0  0  0  0
  -21.5631   -3.4538   25.7738 F   0  0  0  0  0  0
  -29.9764  -13.5533   20.3868 N   0  0  0  0  0  0
  -26.2917  -12.9387   20.3267 N   0  0  0  0  0  0
  -25.9309  -11.6534   20.5764 N   0  0  0  0  0  0
  -22.0469  -12.8214   22.0429 N   0  0  0  0  0  0
  -25.4208  -15.1914   20.4110 N   0  0  0  0  0  0
  -31.8060  -14.8517   20.1637 O   0  0  0  0  0  0
  -21.6640   -6.8874   21.4236 O   0  0  0  0  0  0
  -22.3513  -14.5535   20.6729 O   0  0  0  0  0  0
  -24.6315  -31.8528   23.1937 C   0  0  0  0  0  0
  -25.9141  -32.4736   23.8283 C   0  0  1  0  0  0
  -27.2200  -27.2496   20.1433 C   0  0  0  0  0  0
  -25.5941  -33.8540   24.2215 N   0  0  0  0  0  0
  -23.4283  -30.4726   21.5372 C   0  0  2  0  0  0
  -24.8765  -28.9114   20.1131 C   0  0  0  0  0  0
  -22.7500  -29.4585   22.4902 C   0  0  0  0  0  0
  -18.0295  -28.1385   22.8496 C   0  0  0  0  0  0
  -24.1489  -36.7258   23.2638 C   0  0  0  0  0  0
  -25.9727  -30.7663   21.3702 C   0  0  0  0  0  0
  -26.0481  -29.3841   20.7187 C   0  0  0  0  0  0
  -27.2259  -28.5691   20.7150 C   0  0  0  0  0  0
  -26.0256  -26.8377   19.5199 C   0  0  0  0  0  0
  -24.8707  -27.6467   19.5006 C   0  0  0  0  0  0
  -23.6464  -29.7986   20.1560 C   0  0  0  0  0  0
  -25.4120  -36.3049   24.0315 C   0  0  1  0  0  0
  -20.5896  -28.3687   23.1277 C   0  0  2  0  0  0
  -20.6771  -26.9402   22.5410 C   0  0  0  0  0  0
  -19.5744  -26.6384   21.5213 C   0  0  0  0  0  0
  -18.1930  -26.7929   22.1630 C   0  0  0  0  0  0
  -19.1550  -28.8855   23.2879 C   0  0  0  0  0  0
  -18.9468  -30.1459   23.8888 C   0  0  0  0  0  0
  -17.6469  -30.6584   24.0571 C   0  0  0  0  0  0
  -25.9064  -34.9426   23.5064 C   0  0  0  0  0  0
  -16.5356  -29.9079   23.6344 C   0  0  0  0  0  0
  -16.7280  -28.6502   23.0359 C   0  0  0  0  0  0
  -26.4509  -31.6572   25.0678 C   0  0  0  0  0  0
  -25.3737  -31.3749   26.1410 C   0  0  0  0  0  0
  -27.0337  -30.2977   24.6168 C   0  0  0  0  0  0
  -27.6059  -32.4314   25.7460 C   0  0  0  0  0  0
  -27.5570  -37.1781   24.8471 C   0  0  0  0  0  0
  -21.4208  -29.3027   22.3653 N   0  0  0  0  0  0
  -26.4281  -37.3755   23.9414 N   0  0  0  0  0  0
  -24.6965  -31.0491   22.0904 N   0  0  0  0  0  0
  -23.4208  -28.8136   23.3004 O   0  0  0  0  0  0
  -28.3211  -26.3633   20.1355 O   0  0  0  0  0  0
  -26.5641  -34.8920   22.4634 O   0  0  0  0  0  0
  -23.5468  -32.1336   23.7244 O   0  0  0  0  0  0
  -29.5452  -18.7094   20.3227 C   0  0  0  0  0  0
  -28.9665  -20.9658   20.2379 C   0  0  0  0  0  0
  -30.3703  -17.3851   20.7006 C   0  0  0  0  0  0
  -28.6022  -23.6003   19.8838 C   0  0  0  0  0  0
  -28.1813  -24.9628   20.6830 C   0  0  0  0  0  0
  -29.6578  -19.9622   20.8819 N   0  0  0  0  0  0
  -28.2619  -20.5785   19.1649 N   0  0  0  0  0  0
  -28.9544  -22.3456   20.6805 N   0  0  0  0  0  0
  -29.8584  -15.9376   20.6312 N   0  0  0  0  0  0
  -28.4619  -18.8870   18.9513 S   0  0  0  0  0  0
  -31.4714  -12.6125   19.1638 H   0  0  0  0  0  0
  -30.3968  -11.5107   19.9781 H   0  0  0  0  0  0
  -29.7980  -11.7015   17.5449 H   0  0  0  0  0  0
  -29.6250  -13.4332   17.6970 H   0  0  0  0  0  0
  -27.9153  -11.2667   18.9536 H   0  0  0  0  0  0
  -27.3749  -12.4683   17.8112 H   0  0  0  0  0  0
  -27.6241  -14.2433   19.4428 H   0  0  0  0  0  0
  -28.7310  -12.2056   21.4388 H   0  0  0  0  0  0
  -28.4127  -13.8904   21.7750 H   0  0  0  0  0  0
  -25.2755   -9.5691   22.4768 H   0  0  0  0  0  0
  -24.0009   -7.4629   22.7466 H   0  0  0  0  0  0
  -21.0844   -8.8766   19.8947 H   0  0  0  0  0  0
  -22.3689  -10.9674   19.6176 H   0  0  0  0  0  0
  -21.1991   -7.6146   23.9712 H   0  0  0  0  0  0
  -21.1476   -6.0523   25.9076 H   0  0  0  0  0  0
  -22.0603   -2.7609   23.2847 H   0  0  0  0  0  0
  -22.4087  -11.9875   22.4817 H   0  0  0  0  0  0
  -21.1083  -13.1231   22.2633 H   0  0  0  0  0  0
  -24.6515  -15.8440   20.5171 H   0  0  0  0  0  0
  -26.2625  -15.6274   20.0581 H   0  0  0  0  0  0
  -26.7203  -32.5397   23.1023 H   0  0  0  0  0  0
  -25.0108  -33.9666   25.0374 H   0  0  0  0  0  0
  -22.7245  -31.2935   21.3867 H   0  0  0  0  0  0
  -23.3749  -35.9596   23.3316 H   0  0  0  0  0  0
  -24.3581  -36.8870   22.2050 H   0  0  0  0  0  0
  -23.7250  -37.6463   23.6663 H   0  0  0  0  0  0
  -26.1060  -31.5251   20.5972 H   0  0  0  0  0  0
  -26.8520  -30.8208   22.0008 H   0  0  0  0  0  0
  -28.1286  -28.9315   21.1867 H   0  0  0  0  0  0
  -25.9817  -25.8647   19.0513 H   0  0  0  0  0  0
  -23.9751  -27.2789   19.0200 H   0  0  0  0  0  0
  -23.7651  -30.5688   19.3930 H   0  0  0  0  0  0
  -22.7663  -29.2264   19.8571 H   0  0  0  0  0  0
  -25.1305  -36.1864   25.0805 H   0  0  0  0  0  0
  -20.9999  -28.3258   24.1396 H   0  0  0  0  0  0
  -20.5661  -26.2291   23.3613 H   0  0  0  0  0  0
  -21.6641  -26.7415   22.1210 H   0  0  0  0  0  0
  -19.6907  -25.6300   21.1227 H   0  0  0  0  0  0
  -19.6685  -27.3214   20.6761 H   0  0  0  0  0  0
  -17.4197  -26.6689   21.4029 H   0  0  0  0  0  0
  -18.0324  -26.0061   22.9016 H   0  0  0  0  0  0
  -19.7944  -30.7281   24.2238 H   0  0  0  0  0  0
  -17.5023  -31.6267   24.5166 H   0  0  0  0  0  0
  -15.5355  -30.2979   23.7672 H   0  0  0  0  0  0
  -15.8683  -28.0820   22.7070 H   0  0  0  0  0  0
  -24.5928  -30.7066   25.7767 H   0  0  0  0  0  0
  -24.8910  -32.2927   26.4772 H   0  0  0  0  0  0
  -25.8060  -30.8991   27.0218 H   0  0  0  0  0  0
  -26.2900  -29.6735   24.1197 H   0  0  0  0  0  0
  -27.4007  -29.7240   25.4688 H   0  0  0  0  0  0
  -27.8795  -30.4230   23.9405 H   0  0  0  0  0  0
  -27.2656  -33.3622   26.2011 H   0  0  0  0  0  0
  -28.3890  -32.6856   25.0303 H   0  0  0  0  0  0
  -28.0705  -31.8450   26.5398 H   0  0  0  0  0  0
  -28.2597  -38.0066   24.7495 H   0  0  0  0  0  0
  -28.1043  -36.2590   24.6310 H   0  0  0  0  0  0
  -27.2287  -37.1454   25.8875 H   0  0  0  0  0  0
  -20.9382  -29.8745   21.6862 H   0  0  0  0  0  0
  -26.0142  -38.2815   24.1446 H   0  0  0  0  0  0
  -30.7381  -17.5323   21.7161 H   0  0  0  0  0  0
  -31.2629  -17.4317   20.0747 H   0  0  0  0  0  0
  -29.4791  -23.8327   19.2786 H   0  0  0  0  0  0
  -27.8146  -23.3560   19.1693 H   0  0  0  0  0  0
  -28.7997  -24.9859   21.5806 H   0  0  0  0  0  0
  -27.1691  -24.8289   21.0660 H   0  0  0  0  0  0
  -29.5193  -22.5140   21.5066 H   0  0  0  0  0  0
  -28.8731  -15.8097   20.8006 H   0  0  0  0  0  0
  1 25  1  0  0  0
  1 30  2  0  0  0
  1 79  1  0  0  0
  2  3  1  0  0  0
  2 25  1  0  0  0
  2 81  1  0  0  0
  2 82  1  0  0  0
  3  4  1  0  0  0
  3 83  1  0  0  0
  3 84  1  0  0  0
  4  5  1  0  0  0
  4 85  1  0  0  0
  4 86  1  0  0  0
  5  6  1  0  0  0
  5 26  1  0  0  0
  5 87  1  0  0  0
  6 25  1  0  0  0
  6 88  1  0  0  0
  6 89  1  0  0  0
  7  8  2  0  0  0
  7 26  1  0  0  0
  7 29  1  0  0  0
  8  9  1  0  0  0
  8 22  1  0  0  0
  9 10  1  0  0  0
  9 27  2  0  0  0
 10 11  2  0  0  0
 10 15  1  0  0  0
 11 12  1  0  0  0
 11 90  1  0  0  0
 12 13  2  0  0  0
 12 91  1  0  0  0
 13 14  1  0  0  0
 13 31  1  0  0  0
 14 15  2  0  0  0
 14 92  1  0  0  0
 15 93  1  0  0  0
 16 17  2  0  0  0
 16 21  1  0  0  0
 16 31  1  0  0  0
 17 18  1  0  0  0
 17 94  1  0  0  0
 18 19  2  0  0  0
 18 95  1  0  0  0
 19 20  1  0  0  0
 19 24  1  0  0  0
 20 21  2  0  0  0
 20 96  1  0  0  0
 21 23  1  0  0  0
 22 28  1  0  0  0
 22 32  2  0  0  0
 26 27  1  0  0  0
 28 97  1  0  0  0
 28 98  1  0  0  0
 29 99  1  0  0  0
 29100  1  0  0  0
 33 34  1  0  0  0
 33 66  1  0  0  0
 33 70  2  0  0  0
 34 36  1  0  0  0
 34 59  1  0  0  0
 34101  1  0  0  0
 35 44  2  0  0  0
 35 45  1  0  0  0
 35 68  1  0  0  0
 36 56  1  0  0  0
 36102  1  0  0  0
 37 39  1  0  0  0
 37 47  1  0  0  0
 37 66  1  0  0  0
 37103  1  0  0  0
 38 43  2  0  0  0
 38 46  1  0  0  0
 38 47  1  0  0  0
 39 64  1  0  0  0
 39 67  2  0  0  0
 40 52  1  0  0  0
 40 53  2  0  0  0
 40 58  1  0  0  0
 41104  1  0  0  0
 41105  1  0  0  0
 41106  1  0  0  0
 41 48  1  0  0  0
 42 43  1  0  0  0
 42 66  1  0  0  0
 42107  1  0  0  0
 42108  1  0  0  0
 43 44  1  0  0  0
 44109  1  0  0  0
 45 46  2  0  0  0
 45110  1  0  0  0
 46111  1  0  0  0
 47112  1  0  0  0
 47113  1  0  0  0
 48 56  1  0  0  0
 48 65  1  0  0  0
 48114  1  0  0  0
 49 50  1  0  0  0
 49 53  1  0  0  0
 49 64  1  0  0  0
 49115  1  0  0  0
 50 51  1  0  0  0
 50116  1  0  0  0
 50117  1  0  0  0
 51 52  1  0  0  0
 51118  1  0  0  0
 51119  1  0  0  0
 52120  1  0  0  0
 52121  1  0  0  0
 53 54  1  0  0  0
 54 55  2  0  0  0
 54122  1  0  0  0
 55 57  1  0  0  0
 55123  1  0  0  0
 56 69  2  0  0  0
 57 58  2  0  0  0
 57124  1  0  0  0
 58125  1  0  0  0
 59 60  1  0  0  0
 59 61  1  0  0  0
 59 62  1  0  0  0
 60126  1  0  0  0
 60127  1  0  0  0
 60128  1  0  0  0
 61129  1  0  0  0
 61130  1  0  0  0
 61131  1  0  0  0
 62132  1  0  0  0
 62133  1  0  0  0
 62134  1  0  0  0
 63 65  1  0  0  0
 63135  1  0  0  0
 63136  1  0  0  0
 63137  1  0  0  0
 64138  1  0  0  0
 65139  1  0  0  0
 68 75  1  0  0  0
 71 73  1  0  0  0
 71 76  2  0  0  0
 71 80  1  0  0  0
 72 76  1  0  0  0
 72 77  2  0  0  0
 72 78  1  0  0  0
 73 79  1  0  0  0
 73140  1  0  0  0
 73141  1  0  0  0
 74 75  1  0  0  0
 74 78  1  0  0  0
 74142  1  0  0  0
 74143  1  0  0  0
 75144  1  0  0  0
 75145  1  0  0  0
 77 80  1  0  0  0
 78146  1  0  0  0
 79147  1  0  0  0
M  ISO  4   1 100  68 101  75 101  79 100
M  END
> <chiral flag>
0

> <version>
0

> <s_m_source_file>
/data/baiqing/PycharmProjects/Reinvent-master-3.2/result/LINK_invent/BTK/process_docking_weight1_custom_product_contain_oxygen_bond_distance_aromatic_linkinvent_7_9_3/rearranged_h_0196.sdf

> <i_m_source_file_index>
97

> <r_mmod_Potential_Energy-OPLS-2005>
-0.160132303833961

> <r_mmod_Stretch_Energy-OPLS-2005>
124.98119354248

> <r_mmod_Bend_Energy-OPLS-2005>
197.121337890625

> <r_mmod_Torsional_Energy-OPLS-2005>
213.563262939453

> <r_mmod_Improper_Torsional_Energy-OPLS-2005>
5.93309497833252

> <r_mmod_Van_der_Waal_Energy-OPLS-2005>
112.945831298828

> <r_mmod_Electrostatic_Energy-OPLS-2005>
-514.700927734375

> <r_mmod_Solvation_Energy-OPLS-2005>
-235.567733764648

> <b_mmod_Minimization_Converged-OPLS-2005>
0

> <r_mmod_RMS_Derivative-OPLS-2005>
1.24500095844269

$$$$
