0
                    3D
 Structure written by MMmdl.
161170  0  0  1  0            999 V2000
  -30.6412  -14.6229   20.5043 C   0  0  0  0  0  0
  -30.4336  -12.3839   19.4464 C   0  0  0  0  0  0
  -29.5039  -12.4981   18.2192 C   0  0  0  0  0  0
  -28.0268  -12.3371   18.6332 C   0  0  0  0  0  0
  -27.6486  -13.2148   19.8560 C   0  0  2  0  0  0
  -28.6947  -13.0847   20.9859 C   0  0  0  0  0  0
  -25.2542  -13.8160   20.5664 C   0  0  0  0  0  0
  -24.1815  -13.0427   20.9185 C   0  0  0  0  0  0
  -24.6379  -11.6898   20.8744 C   0  0  0  0  0  0
  -23.9045  -10.4285   21.0402 C   0  0  0  0  0  0
  -24.3603   -9.4203   21.9180 C   0  0  0  0  0  0
  -23.6289   -8.2235   22.0754 C   0  0  0  0  0  0
  -22.4271   -8.0268   21.3544 C   0  0  0  0  0  0
  -21.9896   -9.0232   20.4643 C   0  0  0  0  0  0
  -22.7215  -10.2116   20.3051 C   0  0  0  0  0  0
  -21.6849   -6.0727   22.5278 C   0  0  0  0  0  0
  -21.4010   -6.5635   23.8208 C   0  0  0  0  0  0
  -21.3663   -5.6794   24.9176 C   0  0  0  0  0  0
  -21.6050   -4.3057   24.7231 C   0  0  0  0  0  0
  -21.8821   -3.8139   23.4352 C   0  0  0  0  0  0
  -21.9188   -4.6952   22.3404 C   0  0  0  0  0  0
  -22.7838  -13.5222   21.1842 C   0  0  0  0  0  0
  -22.1659   -4.2133   21.0986 F   0  0  0  0  0  0
  -21.5631   -3.4547   25.7744 F   0  0  0  0  0  0
  -30.0073  -13.4136   20.4128 N   0  0  0  0  0  0
  -26.2961  -12.9338   20.3289 N   0  0  0  0  0  0
  -25.9306  -11.6494   20.5757 N   0  0  0  0  0  0
  -22.0475  -12.8226   22.0411 N   0  0  0  0  0  0
  -25.4240  -15.1886   20.4053 N   0  0  0  0  0  0
  -31.8219  -14.7540   20.1704 O   0  0  0  0  0  0
  -21.6642   -6.8862   21.4236 O   0  0  0  0  0  0
  -22.3529  -14.5521   20.6674 O   0  0  0  0  0  0
  -24.6247  -31.8604   23.2040 C   0  0  0  0  0  0
  -25.9110  -32.4779   23.8349 C   0  0  1  0  0  0
  -27.2223  -27.3355   20.1078 C   0  0  0  0  0  0
  -25.5935  -33.8577   24.2274 N   0  0  0  0  0  0
  -23.4156  -30.4849   21.5476 C   0  0  2  0  0  0
  -24.8590  -28.9403   20.1147 C   0  0  0  0  0  0
  -22.7460  -29.4628   22.4965 C   0  0  0  0  0  0
  -18.0278  -28.1380   22.8496 C   0  0  0  0  0  0
  -24.1496  -36.7297   23.2635 C   0  0  0  0  0  0
  -25.9554  -30.7966   21.3707 C   0  0  0  0  0  0
  -26.0279  -29.4253   20.7132 C   0  0  0  0  0  0
  -27.2115  -28.6342   20.6986 C   0  0  0  0  0  0
  -26.0256  -26.8938   19.4968 C   0  0  0  0  0  0
  -24.8581  -27.6791   19.5006 C   0  0  0  0  0  0
  -23.6277  -29.8189   20.1633 C   0  0  0  0  0  0
  -25.4118  -36.3077   24.0323 C   0  0  1  0  0  0
  -20.5879  -28.3676   23.1311 C   0  0  2  0  0  0
  -20.6780  -26.9405   22.5425 C   0  0  0  0  0  0
  -19.5753  -26.6385   21.5230 C   0  0  0  0  0  0
  -18.1925  -26.7925   22.1628 C   0  0  0  0  0  0
  -19.1527  -28.8842   23.2899 C   0  0  0  0  0  0
  -18.9451  -30.1451   23.8905 C   0  0  0  0  0  0
  -17.6451  -30.6588   24.0556 C   0  0  0  0  0  0
  -25.9056  -34.9449   23.5093 C   0  0  0  0  0  0
  -16.5343  -29.9083   23.6333 C   0  0  0  0  0  0
  -16.7263  -28.6498   23.0358 C   0  0  0  0  0  0
  -26.4502  -31.6588   25.0715 C   0  0  0  0  0  0
  -25.3751  -31.3721   26.1452 C   0  0  0  0  0  0
  -27.0342  -30.3013   24.6159 C   0  0  0  0  0  0
  -27.6051  -32.4329   25.7494 C   0  0  0  0  0  0
  -27.5578  -37.1800   24.8454 C   0  0  0  0  0  0
  -21.4176  -29.3031   22.3706 N   0  0  0  0  0  0
  -26.4286  -37.3779   23.9406 N   0  0  0  0  0  0
  -24.6841  -31.0639   22.0977 N   0  0  0  0  0  0
  -23.4198  -28.8163   23.3032 O   0  0  0  0  0  0
  -28.3692  -26.5324   20.1440 O   0  0  0  0  0  0
  -26.5617  -34.8913   22.4657 O   0  0  0  0  0  0
  -23.5423  -32.1388   23.7401 O   0  0  0  0  0  0
  -31.3425  -17.5091   21.5714 C   0  0  0  0  0  0
  -31.6145  -18.8710   21.8105 C   0  0  0  0  0  0
  -29.3005  -18.1734   20.4499 C   0  0  0  0  0  0
  -29.5644  -19.5774   20.6547 C   0  0  0  0  0  0
  -30.1720  -17.1198   20.8900 C   0  0  0  0  0  0
  -30.7486  -19.8979   21.3745 C   0  0  0  0  0  0
  -29.6778  -22.9064   19.3656 C   0  0  0  0  0  0
  -30.5068  -22.3168   18.4847 C   0  0  0  0  0  0
  -29.6904  -24.4265   19.6941 C   0  0  0  0  0  0
  -27.5533  -24.2826   21.0245 C   0  0  0  0  0  0
  -28.0915  -22.8354   21.3137 C   0  0  0  0  0  0
  -28.2950  -25.0764   19.9080 C   0  0  1  0  0  0
  -28.5183  -20.6099   20.0802 C   0  0  0  0  0  0
  -29.8362  -15.7092   20.7328 N   0  0  0  0  0  0
  -28.5857  -22.1400   20.0893 N   0  3  1  0  0  0
  -31.2055  -21.5112   21.7822 Cl  0  0  0  0  0  0
  -31.4754  -12.5049   19.1432 H   0  0  0  0  0  0
  -30.3657  -11.3914   19.8939 H   0  0  0  0  0  0
  -29.7680  -11.7466   17.4736 H   0  0  0  0  0  0
  -29.6473  -13.4674   17.7406 H   0  0  0  0  0  0
  -27.8665  -11.2853   18.8712 H   0  0  0  0  0  0
  -27.3701  -12.5590   17.7909 H   0  0  0  0  0  0
  -27.6609  -14.2459   19.5036 H   0  0  0  0  0  0
  -28.7052  -12.0707   21.3881 H   0  0  0  0  0  0
  -28.4482  -13.7379   21.8245 H   0  0  0  0  0  0
  -25.2740   -9.5698   22.4759 H   0  0  0  0  0  0
  -23.9996   -7.4635   22.7486 H   0  0  0  0  0  0
  -21.0819   -8.8735   19.8963 H   0  0  0  0  0  0
  -22.3649  -10.9649   19.6166 H   0  0  0  0  0  0
  -21.2004   -7.6142   23.9708 H   0  0  0  0  0  0
  -21.1487   -6.0527   25.9080 H   0  0  0  0  0  0
  -22.0597   -2.7599   23.2855 H   0  0  0  0  0  0
  -22.4068  -11.9878   22.4804 H   0  0  0  0  0  0
  -21.1095  -13.1264   22.2613 H   0  0  0  0  0  0
  -24.6510  -15.8376   20.5052 H   0  0  0  0  0  0
  -26.2625  -15.6266   20.0476 H   0  0  0  0  0  0
  -26.7175  -32.5450   23.1094 H   0  0  0  0  0  0
  -25.0110  -33.9721   25.0436 H   0  0  0  0  0  0
  -22.7093  -31.3057   21.4071 H   0  0  0  0  0  0
  -23.3756  -35.9633   23.3285 H   0  0  0  0  0  0
  -24.3596  -36.8930   22.2054 H   0  0  0  0  0  0
  -23.7250  -37.6491   23.6674 H   0  0  0  0  0  0
  -26.0856  -31.5604   20.6032 H   0  0  0  0  0  0
  -26.8372  -30.8437   21.9982 H   0  0  0  0  0  0
  -28.1115  -29.0044   21.1691 H   0  0  0  0  0  0
  -25.9554  -25.9322   19.0147 H   0  0  0  0  0  0
  -23.9585  -27.3010   19.0347 H   0  0  0  0  0  0
  -23.7473  -30.5940   19.4060 H   0  0  0  0  0  0
  -22.7480  -29.2476   19.8618 H   0  0  0  0  0  0
  -25.1304  -36.1915   25.0815 H   0  0  0  0  0  0
  -20.9966  -28.3243   24.1434 H   0  0  0  0  0  0
  -20.5721  -26.2271   23.3614 H   0  0  0  0  0  0
  -21.6644  -26.7472   22.1185 H   0  0  0  0  0  0
  -19.6918  -25.6303   21.1243 H   0  0  0  0  0  0
  -19.6692  -27.3212   20.6776 H   0  0  0  0  0  0
  -17.4209  -26.6690   21.4015 H   0  0  0  0  0  0
  -18.0301  -26.0062   22.9012 H   0  0  0  0  0  0
  -19.7925  -30.7265   24.2282 H   0  0  0  0  0  0
  -17.5004  -31.6272   24.5147 H   0  0  0  0  0  0
  -15.5343  -30.2981   23.7667 H   0  0  0  0  0  0
  -15.8660  -28.0821   22.7079 H   0  0  0  0  0  0
  -24.5925  -30.7067   25.7788 H   0  0  0  0  0  0
  -24.8956  -32.2893   26.4885 H   0  0  0  0  0  0
  -25.8096  -30.8896   27.0219 H   0  0  0  0  0  0
  -26.2906  -29.6759   24.1207 H   0  0  0  0  0  0
  -27.4063  -29.7268   25.4651 H   0  0  0  0  0  0
  -27.8767  -30.4291   23.9359 H   0  0  0  0  0  0
  -27.2640  -33.3624   26.2069 H   0  0  0  0  0  0
  -28.3874  -32.6899   25.0339 H   0  0  0  0  0  0
  -28.0712  -31.8462   26.5420 H   0  0  0  0  0  0
  -28.2577  -38.0116   24.7530 H   0  0  0  0  0  0
  -28.1092  -36.2647   24.6250 H   0  0  0  0  0  0
  -27.2299  -37.1403   25.8856 H   0  0  0  0  0  0
  -20.9358  -29.8726   21.6892 H   0  0  0  0  0  0
  -26.0157  -38.2846   24.1433 H   0  0  0  0  0  0
  -32.0311  -16.7663   21.9490 H   0  0  0  0  0  0
  -32.5079  -19.1341   22.3582 H   0  0  0  0  0  0
  -28.3935  -17.8976   19.9309 H   0  0  0  0  0  0
  -31.2595  -22.8954   17.9684 H   0  0  0  0  0  0
  -30.4665  -21.2621   18.2568 H   0  0  0  0  0  0
  -30.1963  -24.9494   18.8814 H   0  0  0  0  0  0
  -30.3096  -24.5793   20.5797 H   0  0  0  0  0  0
  -27.5914  -24.8492   21.9557 H   0  0  0  0  0  0
  -26.4953  -24.2281   20.7672 H   0  0  0  0  0  0
  -27.3049  -22.2533   21.7941 H   0  0  0  0  0  0
  -28.9007  -22.8930   22.0400 H   0  0  0  0  0  0
  -27.7830  -24.9070   18.9605 H   0  0  0  0  0  0
  -27.5598  -20.3376   20.5230 H   0  0  0  0  0  0
  -28.4038  -20.3407   19.0300 H   0  0  0  0  0  0
  -28.8544  -15.4863   20.7847 H   0  0  0  0  0  0
  -27.7807  -22.2797   19.4962 H   0  0  0  0  0  0
  1 25  1  0  0  0
  1 30  2  0  0  0
  1 84  1  0  0  0
  2  3  1  0  0  0
  2 25  1  0  0  0
  2 87  1  0  0  0
  2 88  1  0  0  0
  3  4  1  0  0  0
  3 89  1  0  0  0
  3 90  1  0  0  0
  4  5  1  0  0  0
  4 91  1  0  0  0
  4 92  1  0  0  0
  5  6  1  0  0  0
  5 26  1  0  0  0
  5 93  1  0  0  0
  6 25  1  0  0  0
  6 94  1  0  0  0
  6 95  1  0  0  0
  7  8  2  0  0  0
  7 26  1  0  0  0
  7 29  1  0  0  0
  8  9  1  0  0  0
  8 22  1  0  0  0
  9 10  1  0  0  0
  9 27  2  0  0  0
 10 11  2  0  0  0
 10 15  1  0  0  0
 11 12  1  0  0  0
 11 96  1  0  0  0
 12 13  2  0  0  0
 12 97  1  0  0  0
 13 14  1  0  0  0
 13 31  1  0  0  0
 14 15  2  0  0  0
 14 98  1  0  0  0
 15 99  1  0  0  0
 16 17  2  0  0  0
 16 21  1  0  0  0
 16 31  1  0  0  0
 17 18  1  0  0  0
 17100  1  0  0  0
 18 19  2  0  0  0
 18101  1  0  0  0
 19 20  1  0  0  0
 19 24  1  0  0  0
 20 21  2  0  0  0
 20102  1  0  0  0
 21 23  1  0  0  0
 22 28  1  0  0  0
 22 32  2  0  0  0
 26 27  1  0  0  0
 28103  1  0  0  0
 28104  1  0  0  0
 29105  1  0  0  0
 29106  1  0  0  0
 33 34  1  0  0  0
 33 66  1  0  0  0
 33 70  2  0  0  0
 34 36  1  0  0  0
 34 59  1  0  0  0
 34107  1  0  0  0
 35 44  2  0  0  0
 35 45  1  0  0  0
 35 68  1  0  0  0
 36 56  1  0  0  0
 36108  1  0  0  0
 37 39  1  0  0  0
 37 47  1  0  0  0
 37 66  1  0  0  0
 37109  1  0  0  0
 38 43  2  0  0  0
 38 46  1  0  0  0
 38 47  1  0  0  0
 39 64  1  0  0  0
 39 67  2  0  0  0
 40 52  1  0  0  0
 40 53  2  0  0  0
 40 58  1  0  0  0
 41110  1  0  0  0
 41111  1  0  0  0
 41112  1  0  0  0
 41 48  1  0  0  0
 42 43  1  0  0  0
 42 66  1  0  0  0
 42113  1  0  0  0
 42114  1  0  0  0
 43 44  1  0  0  0
 44115  1  0  0  0
 45 46  2  0  0  0
 45116  1  0  0  0
 46117  1  0  0  0
 47118  1  0  0  0
 47119  1  0  0  0
 48 56  1  0  0  0
 48 65  1  0  0  0
 48120  1  0  0  0
 49 50  1  0  0  0
 49 53  1  0  0  0
 49 64  1  0  0  0
 49121  1  0  0  0
 50 51  1  0  0  0
 50122  1  0  0  0
 50123  1  0  0  0
 51 52  1  0  0  0
 51124  1  0  0  0
 51125  1  0  0  0
 52126  1  0  0  0
 52127  1  0  0  0
 53 54  1  0  0  0
 54 55  2  0  0  0
 54128  1  0  0  0
 55 57  1  0  0  0
 55129  1  0  0  0
 56 69  2  0  0  0
 57 58  2  0  0  0
 57130  1  0  0  0
 58131  1  0  0  0
 59 60  1  0  0  0
 59 61  1  0  0  0
 59 62  1  0  0  0
 60132  1  0  0  0
 60133  1  0  0  0
 60134  1  0  0  0
 61135  1  0  0  0
 61136  1  0  0  0
 61137  1  0  0  0
 62138  1  0  0  0
 62139  1  0  0  0
 62140  1  0  0  0
 63 65  1  0  0  0
 63141  1  0  0  0
 63142  1  0  0  0
 63143  1  0  0  0
 64144  1  0  0  0
 65145  1  0  0  0
 68 82  1  0  0  0
 71 72  2  0  0  0
 71 75  1  0  0  0
 71146  1  0  0  0
 72 76  1  0  0  0
 72147  1  0  0  0
 73 74  1  0  0  0
 73 75  2  0  0  0
 73148  1  0  0  0
 74 76  2  0  0  0
 74 83  1  0  0  0
 75 84  1  0  0  0
 76 86  1  0  0  0
 77 78  2  0  0  0
 77 79  1  0  0  0
 77 85  1  0  0  0
 78149  1  0  0  0
 78150  1  0  0  0
 79 82  1  0  0  0
 79151  1  0  0  0
 79152  1  0  0  0
 80 81  1  0  0  0
 80 82  1  0  0  0
 80153  1  0  0  0
 80154  1  0  0  0
 81 85  1  0  0  0
 81155  1  0  0  0
 81156  1  0  0  0
 82157  1  0  0  0
 83158  1  0  0  0
 83159  1  0  0  0
 83 85  1  0  0  0
 84160  1  0  0  0
 85161  1  0  0  0
M  CHG  1  85   1
M  ISO  4   1 100  68 101  82 101  84 100
M  END
> <chiral flag>
0

> <version>
0

> <s_m_source_file>
/data/baiqing/PycharmProjects/Reinvent-master-3.2/result/LINK_invent/BTK/process_docking_weight1_custom_product_contain_oxygen_bond_distance_aromatic_linkinvent_7_9_3/rearranged_h_0046.sdf

> <i_m_source_file_index>
1

> <r_mmod_Potential_Energy-OPLS-2005>
-43.7356300354004

> <r_mmod_Stretch_Energy-OPLS-2005>
77.7354202270508

> <r_mmod_Bend_Energy-OPLS-2005>
181.106033325195

> <r_mmod_Torsional_Energy-OPLS-2005>
246.381530761719

> <r_mmod_Improper_Torsional_Energy-OPLS-2005>
6.06029605865479

> <r_mmod_Van_der_Waal_Energy-OPLS-2005>
150.821105957031

> <r_mmod_Electrostatic_Energy-OPLS-2005>
-293.371551513672

> <r_mmod_Solvation_Energy-OPLS-2005>
-454.672180175781

> <b_mmod_Minimization_Converged-OPLS-2005>
0

> <r_mmod_RMS_Derivative-OPLS-2005>
1.21591436862946

$$$$
1
                    3D
 Structure written by MMmdl.
168177  0  0  1  0            999 V2000
  -30.5969  -14.9378   20.4218 C   0  0  0  0  0  0
  -30.4323  -12.5977   19.4690 C   0  0  0  0  0  0
  -29.5056  -12.5390   18.2365 C   0  0  0  0  0  0
  -28.0430  -12.3049   18.6631 C   0  0  0  0  0  0
  -27.6242  -13.2179   19.8399 C   0  0  2  0  0  0
  -28.6883  -13.2460   20.9692 C   0  0  0  0  0  0
  -25.2399  -13.8075   20.5675 C   0  0  0  0  0  0
  -24.1723  -13.0356   20.9222 C   0  0  0  0  0  0
  -24.6316  -11.6836   20.8797 C   0  0  0  0  0  0
  -23.8987  -10.4238   21.0442 C   0  0  0  0  0  0
  -24.3536   -9.4150   21.9215 C   0  0  0  0  0  0
  -23.6230   -8.2186   22.0751 C   0  0  0  0  0  0
  -22.4224   -8.0234   21.3515 C   0  0  0  0  0  0
  -21.9842   -9.0211   20.4626 C   0  0  0  0  0  0
  -22.7160  -10.2098   20.3075 C   0  0  0  0  0  0
  -21.6839   -6.0677   22.5247 C   0  0  0  0  0  0
  -21.4037   -6.5597   23.8174 C   0  0  0  0  0  0
  -21.3664   -5.6762   24.9146 C   0  0  0  0  0  0
  -21.6039   -4.3024   24.7217 C   0  0  0  0  0  0
  -21.8819   -3.8094   23.4352 C   0  0  0  0  0  0
  -21.9193   -4.6901   22.3390 C   0  0  0  0  0  0
  -22.7738  -13.5156   21.1862 C   0  0  0  0  0  0
  -22.1645   -4.2073   21.0968 F   0  0  0  0  0  0
  -21.5632   -3.4516   25.7742 F   0  0  0  0  0  0
  -29.9455  -13.6994   20.3557 N   0  0  0  0  0  0
  -26.2843  -12.9277   20.3309 N   0  0  0  0  0  0
  -25.9256  -11.6434   20.5827 N   0  0  0  0  0  0
  -22.0383  -12.8210   22.0454 N   0  0  0  0  0  0
  -25.3962  -15.1810   20.3956 N   0  0  0  0  0  0
  -31.7951  -14.8948   20.1167 O   0  0  0  0  0  0
  -21.6602   -6.8823   21.4208 O   0  0  0  0  0  0
  -22.3437  -14.5465   20.6681 O   0  0  0  0  0  0
  -24.6411  -31.8452   23.1880 C   0  0  0  0  0  0
  -25.9185  -32.4706   23.8262 C   0  0  1  0  0  0
  -27.2234  -27.1605   20.1588 C   0  0  0  0  0  0
  -25.5937  -33.8512   24.2199 N   0  0  0  0  0  0
  -23.4441  -30.4605   21.5324 C   0  0  2  0  0  0
  -24.8956  -28.8852   20.1141 C   0  0  0  0  0  0
  -22.7555  -29.4535   22.4868 C   0  0  0  0  0  0
  -18.0295  -28.1379   22.8484 C   0  0  0  0  0  0
  -24.1492  -36.7261   23.2642 C   0  0  0  0  0  0
  -25.9958  -30.7311   21.3783 C   0  0  0  0  0  0
  -26.0698  -29.3403   20.7268 C   0  0  0  0  0  0
  -27.2385  -28.4943   20.7263 C   0  0  0  0  0  0
  -26.0251  -26.7937   19.5136 C   0  0  0  0  0  0
  -24.8841  -27.6260   19.4901 C   0  0  0  0  0  0
  -23.6720  -29.7864   20.1525 C   0  0  0  0  0  0
  -25.4123  -36.3042   24.0327 C   0  0  1  0  0  0
  -20.5909  -28.3703   23.1248 C   0  0  2  0  0  0
  -20.6775  -26.9405   22.5417 C   0  0  0  0  0  0
  -19.5746  -26.6373   21.5219 C   0  0  0  0  0  0
  -18.1929  -26.7923   22.1625 C   0  0  0  0  0  0
  -19.1549  -28.8860   23.2859 C   0  0  0  0  0  0
  -18.9473  -30.1464   23.8876 C   0  0  0  0  0  0
  -17.6469  -30.6586   24.0557 C   0  0  0  0  0  0
  -25.9068  -34.9414   23.5066 C   0  0  0  0  0  0
  -16.5362  -29.9085   23.6321 C   0  0  0  0  0  0
  -16.7281  -28.6498   23.0349 C   0  0  0  0  0  0
  -26.4527  -31.6551   25.0680 C   0  0  0  0  0  0
  -25.3737  -31.3725   26.1387 C   0  0  0  0  0  0
  -27.0391  -30.2958   24.6222 C   0  0  0  0  0  0
  -27.6063  -32.4303   25.7473 C   0  0  0  0  0  0
  -27.5574  -37.1784   24.8467 C   0  0  0  0  0  0
  -21.4245  -29.3034   22.3628 N   0  0  0  0  0  0
  -26.4283  -37.3754   23.9417 N   0  0  0  0  0  0
  -24.7139  -31.0333   22.0893 N   0  0  0  0  0  0
  -23.4215  -28.8084   23.3006 O   0  0  0  0  0  0
  -28.3014  -26.2133   20.2146 O   0  0  0  0  0  0
  -26.5654  -34.8908   22.4647 O   0  0  0  0  0  0
  -23.5525  -32.1300   23.7104 O   0  0  0  0  0  0
  -32.6164  -19.5450   21.7417 C   0  0  0  0  0  0
  -32.8220  -18.2138   22.0784 C   0  0  0  0  0  0
  -31.4095  -19.9243   21.1485 C   0  0  0  0  0  0
  -31.8566  -17.2601   21.7369 C   0  0  0  0  0  0
  -30.3713  -19.0197   20.7806 C   0  0  0  0  0  0
  -30.6686  -17.5356   20.9911 C   0  0  0  0  0  0
  -28.9412  -22.3420   21.5154 C   0  0  0  0  0  0
  -29.1573  -19.7839   24.0724 C   0  0  0  0  0  0
  -28.7645  -21.8202   22.7537 C   0  0  0  0  0  0
  -28.4891  -20.4406   23.1117 C   0  0  0  0  0  0
  -29.0951  -23.9131   21.3047 C   0  0  0  0  0  0
  -28.2552  -23.7640   19.0500 C   0  0  0  0  0  0
  -28.1460  -22.1575   19.2196 C   0  0  0  0  0  0
  -28.1033  -24.6766   20.3296 C   0  0  2  0  0  0
  -28.5490  -16.4096   20.3251 C   0  0  0  0  0  0
  -29.1119  -19.8903   20.2027 C   0  0  0  0  0  0
  -29.9639  -16.2279   20.6238 N   0  0  0  0  0  0
  -29.0719  -21.4925   20.2195 N   0  3  2  0  0  0
  -31.4554  -12.7559   19.1279 H   0  0  0  0  0  0
  -30.4505  -11.6429   19.9984 H   0  0  0  0  0  0
  -29.8330  -11.7537   17.5544 H   0  0  0  0  0  0
  -29.5829  -13.4766   17.6827 H   0  0  0  0  0  0
  -27.9395  -11.2573   18.9456 H   0  0  0  0  0  0
  -27.3751  -12.4619   17.8151 H   0  0  0  0  0  0
  -27.5654  -14.1953   19.3730 H   0  0  0  0  0  0
  -28.8120  -12.2535   21.4023 H   0  0  0  0  0  0
  -28.4043  -13.8806   21.8075 H   0  0  0  0  0  0
  -25.2694   -9.5603   22.4780 H   0  0  0  0  0  0
  -23.9901   -7.4575   22.7492 H   0  0  0  0  0  0
  -21.0751   -8.8711   19.8972 H   0  0  0  0  0  0
  -22.3599  -10.9616   19.6168 H   0  0  0  0  0  0
  -21.2048   -7.6109   23.9633 H   0  0  0  0  0  0
  -21.1494   -6.0516   25.9034 H   0  0  0  0  0  0
  -22.0612   -2.7554   23.2861 H   0  0  0  0  0  0
  -22.4001  -11.9868   22.4855 H   0  0  0  0  0  0
  -21.0992  -13.1249   22.2665 H   0  0  0  0  0  0
  -24.6133  -15.8190   20.4729 H   0  0  0  0  0  0
  -26.2294  -15.6224   20.0334 H   0  0  0  0  0  0
  -26.7257  -32.5345   23.0993 H   0  0  0  0  0  0
  -25.0078  -33.9635   25.0342 H   0  0  0  0  0  0
  -22.7453  -31.2851   21.3756 H   0  0  0  0  0  0
  -23.3759  -35.9580   23.3296 H   0  0  0  0  0  0
  -24.3572  -36.8903   22.2052 H   0  0  0  0  0  0
  -23.7241  -37.6459   23.6681 H   0  0  0  0  0  0
  -26.1381  -31.4849   20.6020 H   0  0  0  0  0  0
  -26.8703  -30.7885   22.0146 H   0  0  0  0  0  0
  -28.1385  -28.8411   21.2170 H   0  0  0  0  0  0
  -25.9535  -25.8256   19.0410 H   0  0  0  0  0  0
  -23.9873  -27.2698   19.0037 H   0  0  0  0  0  0
  -23.8151  -30.5603   19.3971 H   0  0  0  0  0  0
  -22.7889  -29.2292   19.8367 H   0  0  0  0  0  0
  -25.1307  -36.1867   25.0818 H   0  0  0  0  0  0
  -20.9989  -28.3282   24.1370 H   0  0  0  0  0  0
  -20.5645  -26.2317   23.3632 H   0  0  0  0  0  0
  -21.6645  -26.7398   22.1223 H   0  0  0  0  0  0
  -19.6906  -25.6279   21.1256 H   0  0  0  0  0  0
  -19.6684  -27.3175   20.6741 H   0  0  0  0  0  0
  -17.4198  -26.6668   21.4032 H   0  0  0  0  0  0
  -18.0322  -26.0068   22.9020 H   0  0  0  0  0  0
  -19.7953  -30.7282   24.2237 H   0  0  0  0  0  0
  -17.5025  -31.6260   24.5166 H   0  0  0  0  0  0
  -15.5360  -30.2976   23.7667 H   0  0  0  0  0  0
  -15.8682  -28.0818   22.7071 H   0  0  0  0  0  0
  -24.5918  -30.7065   25.7720 H   0  0  0  0  0  0
  -24.8912  -32.2894   26.4775 H   0  0  0  0  0  0
  -25.8024  -30.8929   27.0194 H   0  0  0  0  0  0
  -26.2988  -29.6675   24.1248 H   0  0  0  0  0  0
  -27.4063  -29.7250   25.4766 H   0  0  0  0  0  0
  -27.8870  -30.4226   23.9484 H   0  0  0  0  0  0
  -27.2672  -33.3628   26.1999 H   0  0  0  0  0  0
  -28.3903  -32.6821   25.0320 H   0  0  0  0  0  0
  -28.0694  -31.8454   26.5432 H   0  0  0  0  0  0
  -28.2589  -38.0088   24.7512 H   0  0  0  0  0  0
  -28.1076  -36.2610   24.6293 H   0  0  0  0  0  0
  -27.2287  -37.1436   25.8872 H   0  0  0  0  0  0
  -20.9444  -29.8798   21.6860 H   0  0  0  0  0  0
  -26.0152  -38.2826   24.1419 H   0  0  0  0  0  0
  -33.3622  -20.2894   21.9821 H   0  0  0  0  0  0
  -33.7286  -17.9204   22.5907 H   0  0  0  0  0  0
  -31.3166  -20.9874   21.0057 H   0  0  0  0  0  0
  -32.0933  -16.2606   22.0707 H   0  0  0  0  0  0
  -28.9194  -18.7565   24.3193 H   0  0  0  0  0  0
  -29.9565  -20.2604   24.6186 H   0  0  0  0  0  0
  -28.7331  -22.5272   23.5716 H   0  0  0  0  0  0
  -27.6840  -19.9121   22.6227 H   0  0  0  0  0  0
  -30.1177  -24.1128   20.9862 H   0  0  0  0  0  0
  -29.0139  -24.3831   22.2851 H   0  0  0  0  0  0
  -27.5025  -24.0765   18.3287 H   0  0  0  0  0  0
  -29.2132  -23.9987   18.5833 H   0  0  0  0  0  0
  -28.3112  -21.6977   18.2436 H   0  0  0  0  0  0
  -27.1199  -21.8986   19.4809 H   0  0  0  0  0  0
  -27.0996  -24.5224   20.7270 H   0  0  0  0  0  0
  -28.1833  -17.3732   20.6621 H   0  0  0  0  0  0
  -27.9320  -15.7087   20.8690 H   0  0  0  0  0  0
  -28.3650  -16.3381   19.2511 H   0  0  0  0  0  0
  -28.1831  -19.5294   20.6333 H   0  0  0  0  0  0
  -29.0276  -19.5844   19.1601 H   0  0  0  0  0  0
  -29.9802  -21.7051   19.8337 H   0  0  0  0  0  0
  1 25  1  0  0  0
  1 30  2  0  0  0
  1 87  1  0  0  0
  2  3  1  0  0  0
  2 25  1  0  0  0
  2 89  1  0  0  0
  2 90  1  0  0  0
  3  4  1  0  0  0
  3 91  1  0  0  0
  3 92  1  0  0  0
  4  5  1  0  0  0
  4 93  1  0  0  0
  4 94  1  0  0  0
  5  6  1  0  0  0
  5 26  1  0  0  0
  5 95  1  0  0  0
  6 25  1  0  0  0
  6 96  1  0  0  0
  6 97  1  0  0  0
  7  8  2  0  0  0
  7 26  1  0  0  0
  7 29  1  0  0  0
  8  9  1  0  0  0
  8 22  1  0  0  0
  9 10  1  0  0  0
  9 27  2  0  0  0
 10 11  2  0  0  0
 10 15  1  0  0  0
 11 12  1  0  0  0
 11 98  1  0  0  0
 12 13  2  0  0  0
 12 99  1  0  0  0
 13 14  1  0  0  0
 13 31  1  0  0  0
 14 15  2  0  0  0
 14100  1  0  0  0
 15101  1  0  0  0
 16 17  2  0  0  0
 16 21  1  0  0  0
 16 31  1  0  0  0
 17 18  1  0  0  0
 17102  1  0  0  0
 18 19  2  0  0  0
 18103  1  0  0  0
 19 20  1  0  0  0
 19 24  1  0  0  0
 20 21  2  0  0  0
 20104  1  0  0  0
 21 23  1  0  0  0
 22 28  1  0  0  0
 22 32  2  0  0  0
 26 27  1  0  0  0
 28105  1  0  0  0
 28106  1  0  0  0
 29107  1  0  0  0
 29108  1  0  0  0
 33 34  1  0  0  0
 33 66  1  0  0  0
 33 70  2  0  0  0
 34 36  1  0  0  0
 34 59  1  0  0  0
 34109  1  0  0  0
 35 44  2  0  0  0
 35 45  1  0  0  0
 35 68  1  0  0  0
 36 56  1  0  0  0
 36110  1  0  0  0
 37 39  1  0  0  0
 37 47  1  0  0  0
 37 66  1  0  0  0
 37111  1  0  0  0
 38 43  2  0  0  0
 38 46  1  0  0  0
 38 47  1  0  0  0
 39 64  1  0  0  0
 39 67  2  0  0  0
 40 52  1  0  0  0
 40 53  2  0  0  0
 40 58  1  0  0  0
 41112  1  0  0  0
 41113  1  0  0  0
 41114  1  0  0  0
 41 48  1  0  0  0
 42 43  1  0  0  0
 42 66  1  0  0  0
 42115  1  0  0  0
 42116  1  0  0  0
 43 44  1  0  0  0
 44117  1  0  0  0
 45 46  2  0  0  0
 45118  1  0  0  0
 46119  1  0  0  0
 47120  1  0  0  0
 47121  1  0  0  0
 48 56  1  0  0  0
 48 65  1  0  0  0
 48122  1  0  0  0
 49 50  1  0  0  0
 49 53  1  0  0  0
 49 64  1  0  0  0
 49123  1  0  0  0
 50 51  1  0  0  0
 50124  1  0  0  0
 50125  1  0  0  0
 51 52  1  0  0  0
 51126  1  0  0  0
 51127  1  0  0  0
 52128  1  0  0  0
 52129  1  0  0  0
 53 54  1  0  0  0
 54 55  2  0  0  0
 54130  1  0  0  0
 55 57  1  0  0  0
 55131  1  0  0  0
 56 69  2  0  0  0
 57 58  2  0  0  0
 57132  1  0  0  0
 58133  1  0  0  0
 59 60  1  0  0  0
 59 61  1  0  0  0
 59 62  1  0  0  0
 60134  1  0  0  0
 60135  1  0  0  0
 60136  1  0  0  0
 61137  1  0  0  0
 61138  1  0  0  0
 61139  1  0  0  0
 62140  1  0  0  0
 62141  1  0  0  0
 62142  1  0  0  0
 63 65  1  0  0  0
 63143  1  0  0  0
 63144  1  0  0  0
 63145  1  0  0  0
 64146  1  0  0  0
 65147  1  0  0  0
 68 84  1  0  0  0
 71 72  2  0  0  0
 71 73  1  0  0  0
 71148  1  0  0  0
 72 74  1  0  0  0
 72149  1  0  0  0
 73 75  2  0  0  0
 73150  1  0  0  0
 74 76  2  0  0  0
 74151  1  0  0  0
 75 76  1  0  0  0
 75 86  1  0  0  0
 76 87  1  0  0  0
 77 79  2  0  0  0
 77 81  1  0  0  0
 77 88  1  0  0  0
 78 80  2  0  0  0
 78152  1  0  0  0
 78153  1  0  0  0
 79 80  1  0  0  0
 79154  1  0  0  0
 80155  1  0  0  0
 81 84  1  0  0  0
 81156  1  0  0  0
 81157  1  0  0  0
 82 83  1  0  0  0
 82 84  1  0  0  0
 82158  1  0  0  0
 82159  1  0  0  0
 83 88  1  0  0  0
 83160  1  0  0  0
 83161  1  0  0  0
 84162  1  0  0  0
 85 87  1  0  0  0
 85163  1  0  0  0
 85164  1  0  0  0
 85165  1  0  0  0
 86166  1  0  0  0
 86167  1  0  0  0
 86 88  1  0  0  0
 88168  1  0  0  0
M  CHG  1  88   1
M  ISO  4   1 100  68 101  84 101  87 100
M  END
> <chiral flag>
0

> <version>
0

> <s_m_source_file>
/data/baiqing/PycharmProjects/Reinvent-master-3.2/result/LINK_invent/BTK/process_docking_weight1_custom_product_contain_oxygen_bond_distance_aromatic_linkinvent_7_9_3/rearranged_h_0046.sdf

> <i_m_source_file_index>
2

> <r_mmod_Potential_Energy-OPLS-2005>
615.521057128906

> <r_mmod_Stretch_Energy-OPLS-2005>
259.905120849609

> <r_mmod_Bend_Energy-OPLS-2005>
322.513916015625

> <r_mmod_Torsional_Energy-OPLS-2005>
316.637054443359

> <r_mmod_Improper_Torsional_Energy-OPLS-2005>
4.55379295349121

> <r_mmod_Van_der_Waal_Energy-OPLS-2005>
167.028259277344

> <r_mmod_Electrostatic_Energy-OPLS-2005>
-186.603073120117

> <r_mmod_Solvation_Energy-OPLS-2005>
-437.867492675781

> <b_mmod_Minimization_Converged-OPLS-2005>
0

> <r_mmod_RMS_Derivative-OPLS-2005>
4.24071216583252

$$$$
2
                    3D
 Structure written by MMmdl.
167176  0  0  1  0            999 V2000
  -30.6273  -14.7340   20.4653 C   0  0  0  0  0  0
  -30.4249  -12.4483   19.4733 C   0  0  0  0  0  0
  -29.5065  -12.5100   18.2337 C   0  0  0  0  0  0
  -28.0329  -12.3355   18.6479 C   0  0  0  0  0  0
  -27.6409  -13.2335   19.8522 C   0  0  2  0  0  0
  -28.6863  -13.1701   20.9883 C   0  0  0  0  0  0
  -25.2493  -13.8180   20.5692 C   0  0  0  0  0  0
  -24.1807  -13.0432   20.9236 C   0  0  0  0  0  0
  -24.6402  -11.6911   20.8774 C   0  0  0  0  0  0
  -23.9079  -10.4292   21.0425 C   0  0  0  0  0  0
  -24.3629   -9.4200   21.9198 C   0  0  0  0  0  0
  -23.6302   -8.2234   22.0759 C   0  0  0  0  0  0
  -22.4284   -8.0281   21.3549 C   0  0  0  0  0  0
  -21.9927   -9.0256   20.4650 C   0  0  0  0  0  0
  -22.7255  -10.2135   20.3067 C   0  0  0  0  0  0
  -21.6852   -6.0744   22.5280 C   0  0  0  0  0  0
  -21.4004   -6.5642   23.8214 C   0  0  0  0  0  0
  -21.3661   -5.6797   24.9177 C   0  0  0  0  0  0
  -21.6048   -4.3059   24.7230 C   0  0  0  0  0  0
  -21.8819   -3.8153   23.4347 C   0  0  0  0  0  0
  -21.9188   -4.6970   22.3402 C   0  0  0  0  0  0
  -22.7823  -13.5208   21.1882 C   0  0  0  0  0  0
  -22.1659   -4.2152   21.0980 F   0  0  0  0  0  0
  -21.5634   -3.4543   25.7741 F   0  0  0  0  0  0
  -29.9870  -13.5160   20.4036 N   0  0  0  0  0  0
  -26.2935  -12.9410   20.3292 N   0  0  0  0  0  0
  -25.9334  -11.6555   20.5780 N   0  0  0  0  0  0
  -22.0463  -12.8203   22.0429 N   0  0  0  0  0  0
  -25.4128  -15.1897   20.4025 N   0  0  0  0  0  0
  -31.8142  -14.7954   20.1346 O   0  0  0  0  0  0
  -21.6637   -6.8886   21.4245 O   0  0  0  0  0  0
  -22.3520  -14.5525   20.6726 O   0  0  0  0  0  0
  -24.6296  -31.8552   23.1957 C   0  0  0  0  0  0
  -25.9131  -32.4731   23.8310 C   0  0  1  0  0  0
  -27.2370  -27.2790   20.1154 C   0  0  0  0  0  0
  -25.5934  -33.8533   24.2245 N   0  0  0  0  0  0
  -23.4255  -30.4758   21.5407 C   0  0  2  0  0  0
  -24.8743  -28.9198   20.1091 C   0  0  0  0  0  0
  -22.7496  -29.4605   22.4927 C   0  0  0  0  0  0
  -18.0291  -28.1376   22.8488 C   0  0  0  0  0  0
  -24.1493  -36.7280   23.2642 C   0  0  0  0  0  0
  -25.9683  -30.7709   21.3726 C   0  0  0  0  0  0
  -26.0416  -29.3935   20.7176 C   0  0  0  0  0  0
  -27.2192  -28.5842   20.7123 C   0  0  0  0  0  0
  -26.0402  -26.8612   19.4881 C   0  0  0  0  0  0
  -24.8781  -27.6619   19.4854 C   0  0  0  0  0  0
  -23.6418  -29.8033   20.1580 C   0  0  0  0  0  0
  -25.4107  -36.3051   24.0333 C   0  0  1  0  0  0
  -20.5896  -28.3703   23.1285 C   0  0  2  0  0  0
  -20.6781  -26.9425   22.5421 C   0  0  0  0  0  0
  -19.5754  -26.6387   21.5226 C   0  0  0  0  0  0
  -18.1930  -26.7917   22.1631 C   0  0  0  0  0  0
  -19.1540  -28.8856   23.2878 C   0  0  0  0  0  0
  -18.9453  -30.1451   23.8907 C   0  0  0  0  0  0
  -17.6453  -30.6587   24.0564 C   0  0  0  0  0  0
  -25.9059  -34.9427   23.5096 C   0  0  0  0  0  0
  -16.5349  -29.9081   23.6331 C   0  0  0  0  0  0
  -16.7279  -28.6493   23.0364 C   0  0  0  0  0  0
  -26.4505  -31.6536   25.0690 C   0  0  0  0  0  0
  -25.3728  -31.3671   26.1417 C   0  0  0  0  0  0
  -27.0354  -30.2951   24.6156 C   0  0  0  0  0  0
  -27.6073  -32.4271   25.7444 C   0  0  0  0  0  0
  -27.5576  -37.1783   24.8460 C   0  0  0  0  0  0
  -21.4210  -29.3044   22.3669 N   0  0  0  0  0  0
  -26.4277  -37.3751   23.9415 N   0  0  0  0  0  0
  -24.6936  -31.0520   22.0929 N   0  0  0  0  0  0
  -23.4196  -28.8164   23.3039 O   0  0  0  0  0  0
  -28.3800  -26.4506   20.1963 O   0  0  0  0  0  0
  -26.5643  -34.8909   22.4670 O   0  0  0  0  0  0
  -23.5457  -32.1393   23.7265 O   0  0  0  0  0  0
  -31.0516  -20.1077   20.7143 C   0  0  0  0  0  0
  -31.5817  -17.7136   20.7971 C   0  0  0  0  0  0
  -31.9895  -19.0625   20.8201 C   0  0  0  0  0  0
  -29.6707  -19.8501   20.5914 C   0  0  0  0  0  0
  -29.2701  -18.4411   20.5779 C   0  0  0  0  0  0
  -30.2244  -17.3332   20.6658 C   0  0  0  0  0  0
  -28.4783  -23.8328   20.6363 C   0  0  0  0  0  0
  -28.0729  -23.9485   21.9132 C   0  0  0  0  0  0
  -30.1807  -23.7200   18.1794 C   0  0  0  0  0  0
  -29.8564  -25.0536   18.8937 C   0  0  0  0  0  0
  -29.3335  -22.5181   18.6483 C   0  0  0  0  0  0
  -28.5043  -25.0648   19.6325 C   0  0  2  0  0  0
  -33.4623  -19.3863   20.9843 C   0  0  0  0  0  0
  -27.7837  -18.1311   20.4940 C   0  0  0  0  0  0
  -28.6816  -21.1109   20.5969 C   0  0  0  0  0  0
  -29.8666  -15.8819   20.6793 N   0  0  0  0  0  0
  -29.1614  -22.5010   20.1208 N   0  3  2  0  0  0
  -31.4687  -12.5578   19.1725 H   0  0  0  0  0  0
  -30.3535  -11.4728   19.9567 H   0  0  0  0  0  0
  -29.7859  -11.7387   17.5146 H   0  0  0  0  0  0
  -29.6367  -13.4659   17.7241 H   0  0  0  0  0  0
  -27.8893  -11.2865   18.9089 H   0  0  0  0  0  0
  -27.3748  -12.5289   17.7997 H   0  0  0  0  0  0
  -27.6336  -14.2549   19.4721 H   0  0  0  0  0  0
  -28.7221  -12.1736   21.4314 H   0  0  0  0  0  0
  -28.4262  -13.8563   21.7965 H   0  0  0  0  0  0
  -25.2769   -9.5670   22.4787 H   0  0  0  0  0  0
  -24.0003   -7.4624   22.7484 H   0  0  0  0  0  0
  -21.0859   -8.8792   19.8957 H   0  0  0  0  0  0
  -22.3722  -10.9689   19.6189 H   0  0  0  0  0  0
  -21.1991   -7.6149   23.9719 H   0  0  0  0  0  0
  -21.1486   -6.0527   25.9082 H   0  0  0  0  0  0
  -22.0595   -2.7614   23.2849 H   0  0  0  0  0  0
  -22.4071  -11.9852   22.4800 H   0  0  0  0  0  0
  -21.1084  -13.1237   22.2635 H   0  0  0  0  0  0
  -24.6297  -15.8290   20.4841 H   0  0  0  0  0  0
  -26.2270  -15.6136   19.9808 H   0  0  0  0  0  0
  -26.7190  -32.5387   23.1046 H   0  0  0  0  0  0
  -25.0068  -33.9648   25.0383 H   0  0  0  0  0  0
  -22.7219  -31.2976   21.3916 H   0  0  0  0  0  0
  -23.3749  -35.9613   23.3268 H   0  0  0  0  0  0
  -24.3612  -36.8948   22.2068 H   0  0  0  0  0  0
  -23.7261  -37.6474   23.6698 H   0  0  0  0  0  0
  -26.1033  -31.5285   20.5996 H   0  0  0  0  0  0
  -26.8471  -30.8250   22.0031 H   0  0  0  0  0  0
  -28.1141  -28.9477   21.1982 H   0  0  0  0  0  0
  -25.9578  -25.8985   19.0103 H   0  0  0  0  0  0
  -23.9808  -27.2948   19.0058 H   0  0  0  0  0  0
  -23.7587  -30.5770   19.3987 H   0  0  0  0  0  0
  -22.7611  -29.2322   19.8600 H   0  0  0  0  0  0
  -25.1276  -36.1892   25.0822 H   0  0  0  0  0  0
  -20.9977  -28.3288   24.1416 H   0  0  0  0  0  0
  -20.5705  -26.2318   23.3628 H   0  0  0  0  0  0
  -21.6645  -26.7464   22.1212 H   0  0  0  0  0  0
  -19.6935  -25.6304   21.1247 H   0  0  0  0  0  0
  -19.6681  -27.3208   20.6759 H   0  0  0  0  0  0
  -17.4215  -26.6704   21.4014 H   0  0  0  0  0  0
  -18.0300  -26.0036   22.8998 H   0  0  0  0  0  0
  -19.7924  -30.7254   24.2302 H   0  0  0  0  0  0
  -17.5008  -31.6269   24.5156 H   0  0  0  0  0  0
  -15.5347  -30.2982   23.7641 H   0  0  0  0  0  0
  -15.8686  -28.0807   22.7087 H   0  0  0  0  0  0
  -24.5936  -30.6974   25.7753 H   0  0  0  0  0  0
  -24.8864  -32.2823   26.4801 H   0  0  0  0  0  0
  -25.8057  -30.8897   27.0219 H   0  0  0  0  0  0
  -26.2937  -29.6670   24.1208 H   0  0  0  0  0  0
  -27.4086  -29.7225   25.4658 H   0  0  0  0  0  0
  -27.8783  -30.4208   23.9357 H   0  0  0  0  0  0
  -27.2715  -33.3604   26.1963 H   0  0  0  0  0  0
  -28.3899  -32.6768   25.0267 H   0  0  0  0  0  0
  -28.0717  -31.8423   26.5393 H   0  0  0  0  0  0
  -28.2554  -38.0114   24.7538 H   0  0  0  0  0  0
  -28.1117  -36.2651   24.6231 H   0  0  0  0  0  0
  -27.2320  -37.1374   25.8870 H   0  0  0  0  0  0
  -20.9416  -29.8735   21.6835 H   0  0  0  0  0  0
  -26.0153  -38.2822   24.1409 H   0  0  0  0  0  0
  -31.4110  -21.1259   20.7615 H   0  0  0  0  0  0
  -32.3552  -16.9704   20.9111 H   0  0  0  0  0  0
  -27.6808  -24.8879   22.2750 H   0  0  0  0  0  0
  -28.1387  -23.1425   22.6283 H   0  0  0  0  0  0
  -31.2404  -23.4935   18.3131 H   0  0  0  0  0  0
  -30.0460  -23.8394   17.1033 H   0  0  0  0  0  0
  -29.9059  -25.8761   18.1791 H   0  0  0  0  0  0
  -30.6443  -25.2577   19.6207 H   0  0  0  0  0  0
  -29.7980  -21.5928   18.3033 H   0  0  0  0  0  0
  -28.3480  -22.5524   18.1801 H   0  0  0  0  0  0
  -27.7424  -24.8866   18.8771 H   0  0  0  0  0  0
  -33.6212  -20.4419   21.2072 H   0  0  0  0  0  0
  -34.0082  -19.1463   20.0717 H   0  0  0  0  0  0
  -33.8916  -18.8067   21.8019 H   0  0  0  0  0  0
  -27.2452  -18.6321   21.3001 H   0  0  0  0  0  0
  -27.5705  -17.0676   20.5789 H   0  0  0  0  0  0
  -27.3797  -18.4771   19.5418 H   0  0  0  0  0  0
  -28.3577  -21.1983   21.6326 H   0  0  0  0  0  0
  -27.7811  -20.8636   20.0352 H   0  0  0  0  0  0
  -28.8893  -15.6862   20.8270 H   0  0  0  0  0  0
  -30.1052  -22.5306   20.4725 H   0  0  0  0  0  0
  1 25  1  0  0  0
  1 30  2  0  0  0
  1 86  1  0  0  0
  2  3  1  0  0  0
  2 25  1  0  0  0
  2 88  1  0  0  0
  2 89  1  0  0  0
  3  4  1  0  0  0
  3 90  1  0  0  0
  3 91  1  0  0  0
  4  5  1  0  0  0
  4 92  1  0  0  0
  4 93  1  0  0  0
  5  6  1  0  0  0
  5 26  1  0  0  0
  5 94  1  0  0  0
  6 25  1  0  0  0
  6 95  1  0  0  0
  6 96  1  0  0  0
  7  8  2  0  0  0
  7 26  1  0  0  0
  7 29  1  0  0  0
  8  9  1  0  0  0
  8 22  1  0  0  0
  9 10  1  0  0  0
  9 27  2  0  0  0
 10 11  2  0  0  0
 10 15  1  0  0  0
 11 12  1  0  0  0
 11 97  1  0  0  0
 12 13  2  0  0  0
 12 98  1  0  0  0
 13 14  1  0  0  0
 13 31  1  0  0  0
 14 15  2  0  0  0
 14 99  1  0  0  0
 15100  1  0  0  0
 16 17  2  0  0  0
 16 21  1  0  0  0
 16 31  1  0  0  0
 17 18  1  0  0  0
 17101  1  0  0  0
 18 19  2  0  0  0
 18102  1  0  0  0
 19 20  1  0  0  0
 19 24  1  0  0  0
 20 21  2  0  0  0
 20103  1  0  0  0
 21 23  1  0  0  0
 22 28  1  0  0  0
 22 32  2  0  0  0
 26 27  1  0  0  0
 28104  1  0  0  0
 28105  1  0  0  0
 29106  1  0  0  0
 29107  1  0  0  0
 33 34  1  0  0  0
 33 66  1  0  0  0
 33 70  2  0  0  0
 34 36  1  0  0  0
 34 59  1  0  0  0
 34108  1  0  0  0
 35 44  2  0  0  0
 35 45  1  0  0  0
 35 68  1  0  0  0
 36 56  1  0  0  0
 36109  1  0  0  0
 37 39  1  0  0  0
 37 47  1  0  0  0
 37 66  1  0  0  0
 37110  1  0  0  0
 38 43  2  0  0  0
 38 46  1  0  0  0
 38 47  1  0  0  0
 39 64  1  0  0  0
 39 67  2  0  0  0
 40 52  1  0  0  0
 40 53  2  0  0  0
 40 58  1  0  0  0
 41111  1  0  0  0
 41112  1  0  0  0
 41113  1  0  0  0
 41 48  1  0  0  0
 42 43  1  0  0  0
 42 66  1  0  0  0
 42114  1  0  0  0
 42115  1  0  0  0
 43 44  1  0  0  0
 44116  1  0  0  0
 45 46  2  0  0  0
 45117  1  0  0  0
 46118  1  0  0  0
 47119  1  0  0  0
 47120  1  0  0  0
 48 56  1  0  0  0
 48 65  1  0  0  0
 48121  1  0  0  0
 49 50  1  0  0  0
 49 53  1  0  0  0
 49 64  1  0  0  0
 49122  1  0  0  0
 50 51  1  0  0  0
 50123  1  0  0  0
 50124  1  0  0  0
 51 52  1  0  0  0
 51125  1  0  0  0
 51126  1  0  0  0
 52127  1  0  0  0
 52128  1  0  0  0
 53 54  1  0  0  0
 54 55  2  0  0  0
 54129  1  0  0  0
 55 57  1  0  0  0
 55130  1  0  0  0
 56 69  2  0  0  0
 57 58  2  0  0  0
 57131  1  0  0  0
 58132  1  0  0  0
 59 60  1  0  0  0
 59 61  1  0  0  0
 59 62  1  0  0  0
 60133  1  0  0  0
 60134  1  0  0  0
 60135  1  0  0  0
 61136  1  0  0  0
 61137  1  0  0  0
 61138  1  0  0  0
 62139  1  0  0  0
 62140  1  0  0  0
 62141  1  0  0  0
 63 65  1  0  0  0
 63142  1  0  0  0
 63143  1  0  0  0
 63144  1  0  0  0
 64145  1  0  0  0
 65146  1  0  0  0
 68 82  1  0  0  0
 71 73  2  0  0  0
 71 74  1  0  0  0
 71147  1  0  0  0
 72 73  1  0  0  0
 72 76  2  0  0  0
 72148  1  0  0  0
 73 83  1  0  0  0
 74 75  2  0  0  0
 74 85  1  0  0  0
 75 76  1  0  0  0
 75 84  1  0  0  0
 76 86  1  0  0  0
 77 78  2  0  0  0
 77 82  1  0  0  0
 77 87  1  0  0  0
 78149  1  0  0  0
 78150  1  0  0  0
 79 80  1  0  0  0
 79 81  1  0  0  0
 79151  1  0  0  0
 79152  1  0  0  0
 80 82  1  0  0  0
 80153  1  0  0  0
 80154  1  0  0  0
 81 87  1  0  0  0
 81155  1  0  0  0
 81156  1  0  0  0
 82157  1  0  0  0
 83158  1  0  0  0
 83159  1  0  0  0
 83160  1  0  0  0
 84161  1  0  0  0
 84162  1  0  0  0
 84163  1  0  0  0
 85164  1  0  0  0
 85165  1  0  0  0
 85 87  1  0  0  0
 86166  1  0  0  0
 87167  1  0  0  0
M  CHG  1  87   1
M  ISO  4   1 100  68 101  82 101  86 100
M  END
> <chiral flag>
0

> <version>
0

> <s_m_source_file>
/data/baiqing/PycharmProjects/Reinvent-master-3.2/result/LINK_invent/BTK/process_docking_weight1_custom_product_contain_oxygen_bond_distance_aromatic_linkinvent_7_9_3/rearranged_h_0046.sdf

> <i_m_source_file_index>
3

> <r_mmod_Potential_Energy-OPLS-2005>
50.8085021972656

> <r_mmod_Stretch_Energy-OPLS-2005>
133.944366455078

> <r_mmod_Bend_Energy-OPLS-2005>
175.791091918945

> <r_mmod_Torsional_Energy-OPLS-2005>
233.286926269531

> <r_mmod_Improper_Torsional_Energy-OPLS-2005>
6.0341157913208

> <r_mmod_Van_der_Waal_Energy-OPLS-2005>
146.080795288086

> <r_mmod_Electrostatic_Energy-OPLS-2005>
-287.496185302734

> <r_mmod_Solvation_Energy-OPLS-2005>
-431.344116210938

> <b_mmod_Minimization_Converged-OPLS-2005>
0

> <r_mmod_RMS_Derivative-OPLS-2005>
1.85010170936584

$$$$
3
                    3D
 Structure written by MMmdl.
169177  0  0  1  0            999 V2000
  -30.7219  -14.4183   20.4820 C   0  0  0  0  0  0
  -30.4137  -12.2474   19.4306 C   0  0  0  0  0  0
  -29.4970  -12.4579   18.2072 C   0  0  0  0  0  0
  -28.0154  -12.3439   18.6174 C   0  0  0  0  0  0
  -27.6597  -13.1999   19.8638 C   0  0  2  0  0  0
  -28.7017  -13.0116   20.9918 C   0  0  0  0  0  0
  -25.2596  -13.8148   20.5670 C   0  0  0  0  0  0
  -24.1843  -13.0445   20.9190 C   0  0  0  0  0  0
  -24.6384  -11.6911   20.8748 C   0  0  0  0  0  0
  -23.9055  -10.4302   21.0422 C   0  0  0  0  0  0
  -24.3607   -9.4214   21.9193 C   0  0  0  0  0  0
  -23.6284   -8.2251   22.0759 C   0  0  0  0  0  0
  -22.4263   -8.0294   21.3554 C   0  0  0  0  0  0
  -21.9896   -9.0269   20.4651 C   0  0  0  0  0  0
  -22.7231  -10.2147   20.3063 C   0  0  0  0  0  0
  -21.6842   -6.0741   22.5292 C   0  0  0  0  0  0
  -21.4009   -6.5637   23.8226 C   0  0  0  0  0  0
  -21.3650   -5.6780   24.9188 C   0  0  0  0  0  0
  -21.6036   -4.3045   24.7226 C   0  0  0  0  0  0
  -21.8810   -3.8147   23.4344 C   0  0  0  0  0  0
  -21.9188   -4.6975   22.3406 C   0  0  0  0  0  0
  -22.7867  -13.5265   21.1854 C   0  0  0  0  0  0
  -22.1660   -4.2164   21.0982 F   0  0  0  0  0  0
  -21.5633   -3.4523   25.7738 F   0  0  0  0  0  0
  -30.0388  -13.2523   20.4317 N   0  0  0  0  0  0
  -26.3012  -12.9298   20.3308 N   0  0  0  0  0  0
  -25.9299  -11.6472   20.5753 N   0  0  0  0  0  0
  -22.0485  -12.8275   22.0402 N   0  0  0  0  0  0
  -25.4346  -15.1863   20.4097 N   0  0  0  0  0  0
  -31.9276  -14.5155   20.2403 O   0  0  0  0  0  0
  -21.6633   -6.8895   21.4247 O   0  0  0  0  0  0
  -22.3571  -14.5576   20.6701 O   0  0  0  0  0  0
  -24.6071  -31.8719   23.2142 C   0  0  0  0  0  0
  -25.8989  -32.4851   23.8419 C   0  0  1  0  0  0
  -27.2576  -27.4899   20.1094 C   0  0  0  0  0  0
  -25.5875  -33.8647   24.2357 N   0  0  0  0  0  0
  -23.3936  -30.4922   21.5513 C   0  0  2  0  0  0
  -24.8472  -28.9621   20.1192 C   0  0  0  0  0  0
  -22.7372  -29.4667   22.5026 C   0  0  0  0  0  0
  -18.0265  -28.1365   22.8501 C   0  0  0  0  0  0
  -24.1483  -36.7332   23.2636 C   0  0  0  0  0  0
  -25.9120  -30.8578   21.3562 C   0  0  0  0  0  0
  -25.9962  -29.4906   20.7181 C   0  0  0  0  0  0
  -27.1997  -28.7622   20.7224 C   0  0  0  0  0  0
  -26.0953  -26.9672   19.5059 C   0  0  0  0  0  0
  -24.8876  -27.6933   19.5128 C   0  0  0  0  0  0
  -23.6020  -29.8179   20.1667 C   0  0  0  0  0  0
  -25.4099  -36.3134   24.0342 C   0  0  1  0  0  0
  -20.5845  -28.3640   23.1350 C   0  0  2  0  0  0
  -20.6757  -26.9388   22.5427 C   0  0  0  0  0  0
  -19.5737  -26.6387   21.5216 C   0  0  0  0  0  0
  -18.1913  -26.7918   22.1623 C   0  0  0  0  0  0
  -19.1508  -28.8823   23.2920 C   0  0  0  0  0  0
  -18.9442  -30.1432   23.8929 C   0  0  0  0  0  0
  -17.6446  -30.6575   24.0569 C   0  0  0  0  0  0
  -25.9023  -34.9496   23.5149 C   0  0  0  0  0  0
  -16.5340  -29.9081   23.6320 C   0  0  0  0  0  0
  -16.7257  -28.6494   23.0350 C   0  0  0  0  0  0
  -26.4455  -31.6609   25.0710 C   0  0  0  0  0  0
  -25.3761  -31.3684   26.1488 C   0  0  0  0  0  0
  -27.0262  -30.3065   24.6017 C   0  0  0  0  0  0
  -27.6055  -32.4304   25.7460 C   0  0  0  0  0  0
  -27.5581  -37.1814   24.8464 C   0  0  0  0  0  0
  -21.4108  -29.3014   22.3759 N   0  0  0  0  0  0
  -26.4293  -37.3809   23.9405 N   0  0  0  0  0  0
  -24.6551  -31.0872   22.1007 N   0  0  0  0  0  0
  -23.4169  -28.8227   23.3061 O   0  0  0  0  0  0
  -28.3969  -26.7240   20.0507 O   0  0  0  0  0  0
  -26.5580  -34.8934   22.4706 O   0  0  0  0  0  0
  -23.5282  -32.1456   23.7569 O   0  0  0  0  0  0
  -31.0173  -17.4139   17.3794 C   0  0  0  0  0  0
  -30.5192  -18.6893   17.6791 C   0  0  0  0  0  0
  -30.8192  -16.3637   18.2867 C   0  0  0  0  0  0
  -29.6130  -17.8561   19.8005 C   0  0  0  0  0  0
  -29.8104  -18.9133   18.8811 C   0  0  0  0  0  0
  -30.1417  -16.5768   19.5194 C   0  0  0  0  0  0
  -29.2669  -20.2452   19.1076 C   0  0  0  0  0  0
  -30.6198  -26.0495   20.7028 C   0  0  0  0  0  0
  -30.2563  -24.5642   16.9032 C   0  0  0  0  0  0
  -31.8788  -22.6979   17.1968 C   0  0  0  0  0  0
  -29.5102  -27.0925   20.8745 C   0  0  0  0  0  0
  -31.3966  -24.2369   19.1458 C   0  0  0  0  0  0
  -29.5895  -22.6123   18.3250 C   0  0  0  0  0  0
  -30.7831  -23.5199   17.9140 C   0  0  0  0  0  0
  -28.0094  -20.4094   19.5089 N   0  0  0  0  0  0
  -29.9467  -15.5116   20.4503 N   0  0  0  0  0  0
  -30.4871  -25.2620   19.6357 N   0  0  0  0  0  0
  -30.0342  -21.2996   18.8092 N   0  3  0  0  0  0
  -31.5649  -25.9697   21.4906 O   0  0  0  0  0  0
  -31.4641  -12.3145   19.1358 H   0  0  0  0  0  0
  -30.2810  -11.2454   19.8421 H   0  0  0  0  0  0
  -29.7239  -11.7196   17.4367 H   0  0  0  0  0  0
  -29.6816  -13.4327   17.7560 H   0  0  0  0  0  0
  -27.8140  -11.2923   18.8239 H   0  0  0  0  0  0
  -27.3728  -12.6175   17.7797 H   0  0  0  0  0  0
  -27.6930  -14.2385   19.5373 H   0  0  0  0  0  0
  -28.6537  -11.9973   21.3917 H   0  0  0  0  0  0
  -28.4942  -13.6799   21.8296 H   0  0  0  0  0  0
  -25.2763   -9.5668   22.4753 H   0  0  0  0  0  0
  -23.9996   -7.4612   22.7446 H   0  0  0  0  0  0
  -21.0841   -8.8780   19.8950 H   0  0  0  0  0  0
  -22.3701  -10.9680   19.6160 H   0  0  0  0  0  0
  -21.2004   -7.6140   23.9730 H   0  0  0  0  0  0
  -21.1481   -6.0524   25.9089 H   0  0  0  0  0  0
  -22.0597   -2.7613   23.2843 H   0  0  0  0  0  0
  -22.4078  -11.9946   22.4829 H   0  0  0  0  0  0
  -21.1086  -13.1317   22.2564 H   0  0  0  0  0  0
  -24.6664  -15.8409   20.5197 H   0  0  0  0  0  0
  -26.2785  -15.6215   20.0616 H   0  0  0  0  0  0
  -26.7072  -32.5611   23.1209 H   0  0  0  0  0  0
  -25.0043  -33.9827   25.0512 H   0  0  0  0  0  0
  -22.6789  -31.3059   21.4122 H   0  0  0  0  0  0
  -23.3739  -35.9674   23.3319 H   0  0  0  0  0  0
  -24.3581  -36.8919   22.2047 H   0  0  0  0  0  0
  -23.7244  -37.6547   23.6631 H   0  0  0  0  0  0
  -26.0041  -31.6181   20.5794 H   0  0  0  0  0  0
  -26.8062  -30.9286   21.9624 H   0  0  0  0  0  0
  -28.0680  -29.2008   21.1917 H   0  0  0  0  0  0
  -26.1291  -25.9946   19.0349 H   0  0  0  0  0  0
  -24.0057  -27.2749   19.0479 H   0  0  0  0  0  0
  -23.7010  -30.5898   19.4032 H   0  0  0  0  0  0
  -22.7307  -29.2276   19.8767 H   0  0  0  0  0  0
  -25.1270  -36.2010   25.0835 H   0  0  0  0  0  0
  -20.9935  -28.3201   24.1474 H   0  0  0  0  0  0
  -20.5666  -26.2245   23.3601 H   0  0  0  0  0  0
  -21.6632  -26.7450   22.1218 H   0  0  0  0  0  0
  -19.6901  -25.6308   21.1220 H   0  0  0  0  0  0
  -19.6675  -27.3221   20.6766 H   0  0  0  0  0  0
  -17.4187  -26.6681   21.4020 H   0  0  0  0  0  0
  -18.0307  -26.0050   22.9004 H   0  0  0  0  0  0
  -19.7919  -30.7242   24.2311 H   0  0  0  0  0  0
  -17.5003  -31.6260   24.5163 H   0  0  0  0  0  0
  -15.5341  -30.2996   23.7626 H   0  0  0  0  0  0
  -15.8656  -28.0825   22.7055 H   0  0  0  0  0  0
  -24.5922  -30.7040   25.7834 H   0  0  0  0  0  0
  -24.8971  -32.2831   26.4990 H   0  0  0  0  0  0
  -25.8155  -30.8820   27.0208 H   0  0  0  0  0  0
  -26.2764  -29.6838   24.1126 H   0  0  0  0  0  0
  -27.4120  -29.7279   25.4419 H   0  0  0  0  0  0
  -27.8562  -30.4399   23.9075 H   0  0  0  0  0  0
  -27.2693  -33.3583   26.2097 H   0  0  0  0  0  0
  -28.3835  -32.6897   25.0266 H   0  0  0  0  0  0
  -28.0762  -31.8393   26.5327 H   0  0  0  0  0  0
  -28.2616  -38.0102   24.7510 H   0  0  0  0  0  0
  -28.1065  -36.2632   24.6285 H   0  0  0  0  0  0
  -27.2306  -37.1465   25.8874 H   0  0  0  0  0  0
  -20.9259  -29.8728   21.6979 H   0  0  0  0  0  0
  -26.0192  -38.2891   24.1410 H   0  0  0  0  0  0
  -31.5441  -17.2345   16.4517 H   0  0  0  0  0  0
  -30.6614  -19.4864   16.9606 H   0  0  0  0  0  0
  -31.1979  -15.3915   18.0064 H   0  0  0  0  0  0
  -29.0699  -18.0359   20.7186 H   0  0  0  0  0  0
  -31.0153  -25.3116   16.6672 H   0  0  0  0  0  0
  -29.3744  -25.0904   17.2686 H   0  0  0  0  0  0
  -29.9653  -24.0918   15.9641 H   0  0  0  0  0  0
  -32.6505  -23.3484   16.7831 H   0  0  0  0  0  0
  -31.4708  -22.1143   16.3698 H   0  0  0  0  0  0
  -32.3861  -22.0087   17.8728 H   0  0  0  0  0  0
  -29.9114  -28.0618   20.5771 H   0  0  0  0  0  0
  -29.2158  -27.1424   21.9237 H   0  0  0  0  0  0
  -32.3356  -24.7210   18.8705 H   0  0  0  0  0  0
  -31.6289  -23.5252   19.9407 H   0  0  0  0  0  0
  -28.9474  -22.4369   17.4601 H   0  0  0  0  0  0
  -28.9649  -23.1025   19.0733 H   0  0  0  0  0  0
  -27.4289  -19.5966   19.6524 H   0  0  0  0  0  0
  -27.6236  -21.3153   19.7179 H   0  0  0  0  0  0
  -29.0227  -15.4206   20.8430 H   0  0  0  0  0  0
  -29.6706  -25.4634   19.0721 H   0  0  0  0  0  0
  -31.0092  -21.0891   18.6403 H   0  0  0  0  0  0
  1 25  1  0  0  0
  1 30  2  0  0  0
  1 86  1  0  0  0
  2  3  1  0  0  0
  2 25  1  0  0  0
  2 90  1  0  0  0
  2 91  1  0  0  0
  3  4  1  0  0  0
  3 92  1  0  0  0
  3 93  1  0  0  0
  4  5  1  0  0  0
  4 94  1  0  0  0
  4 95  1  0  0  0
  5  6  1  0  0  0
  5 26  1  0  0  0
  5 96  1  0  0  0
  6 25  1  0  0  0
  6 97  1  0  0  0
  6 98  1  0  0  0
  7  8  2  0  0  0
  7 26  1  0  0  0
  7 29  1  0  0  0
  8  9  1  0  0  0
  8 22  1  0  0  0
  9 10  1  0  0  0
  9 27  2  0  0  0
 10 11  2  0  0  0
 10 15  1  0  0  0
 11 12  1  0  0  0
 11 99  1  0  0  0
 12 13  2  0  0  0
 12100  1  0  0  0
 13 14  1  0  0  0
 13 31  1  0  0  0
 14 15  2  0  0  0
 14101  1  0  0  0
 15102  1  0  0  0
 16 17  2  0  0  0
 16 21  1  0  0  0
 16 31  1  0  0  0
 17 18  1  0  0  0
 17103  1  0  0  0
 18 19  2  0  0  0
 18104  1  0  0  0
 19 20  1  0  0  0
 19 24  1  0  0  0
 20 21  2  0  0  0
 20105  1  0  0  0
 21 23  1  0  0  0
 22 28  1  0  0  0
 22 32  2  0  0  0
 26 27  1  0  0  0
 28106  1  0  0  0
 28107  1  0  0  0
 29108  1  0  0  0
 29109  1  0  0  0
 33 34  1  0  0  0
 33 66  1  0  0  0
 33 70  2  0  0  0
 34 36  1  0  0  0
 34 59  1  0  0  0
 34110  1  0  0  0
 35 44  2  0  0  0
 35 45  1  0  0  0
 35 68  1  0  0  0
 36 56  1  0  0  0
 36111  1  0  0  0
 37 39  1  0  0  0
 37 47  1  0  0  0
 37 66  1  0  0  0
 37112  1  0  0  0
 38 43  2  0  0  0
 38 46  1  0  0  0
 38 47  1  0  0  0
 39 64  1  0  0  0
 39 67  2  0  0  0
 40 52  1  0  0  0
 40 53  2  0  0  0
 40 58  1  0  0  0
 41113  1  0  0  0
 41114  1  0  0  0
 41115  1  0  0  0
 41 48  1  0  0  0
 42 43  1  0  0  0
 42 66  1  0  0  0
 42116  1  0  0  0
 42117  1  0  0  0
 43 44  1  0  0  0
 44118  1  0  0  0
 45 46  2  0  0  0
 45119  1  0  0  0
 46120  1  0  0  0
 47121  1  0  0  0
 47122  1  0  0  0
 48 56  1  0  0  0
 48 65  1  0  0  0
 48123  1  0  0  0
 49 50  1  0  0  0
 49 53  1  0  0  0
 49 64  1  0  0  0
 49124  1  0  0  0
 50 51  1  0  0  0
 50125  1  0  0  0
 50126  1  0  0  0
 51 52  1  0  0  0
 51127  1  0  0  0
 51128  1  0  0  0
 52129  1  0  0  0
 52130  1  0  0  0
 53 54  1  0  0  0
 54 55  2  0  0  0
 54131  1  0  0  0
 55 57  1  0  0  0
 55132  1  0  0  0
 56 69  2  0  0  0
 57 58  2  0  0  0
 57133  1  0  0  0
 58134  1  0  0  0
 59 60  1  0  0  0
 59 61  1  0  0  0
 59 62  1  0  0  0
 60135  1  0  0  0
 60136  1  0  0  0
 60137  1  0  0  0
 61138  1  0  0  0
 61139  1  0  0  0
 61140  1  0  0  0
 62141  1  0  0  0
 62142  1  0  0  0
 62143  1  0  0  0
 63 65  1  0  0  0
 63144  1  0  0  0
 63145  1  0  0  0
 63146  1  0  0  0
 64147  1  0  0  0
 65148  1  0  0  0
 68 81  1  0  0  0
 71 72  2  0  0  0
 71 73  1  0  0  0
 71149  1  0  0  0
 72 75  1  0  0  0
 72150  1  0  0  0
 73 76  2  0  0  0
 73151  1  0  0  0
 74 75  2  0  0  0
 74 76  1  0  0  0
 74152  1  0  0  0
 75 77  1  0  0  0
 76 86  1  0  0  0
 77 85  1  0  0  0
 77 88  2  0  0  0
 78 81  1  0  0  0
 78 87  1  0  0  0
 78 89  2  0  0  0
 79153  1  0  0  0
 79154  1  0  0  0
 79155  1  0  0  0
 79 84  1  0  0  0
 80 84  1  0  0  0
 80156  1  0  0  0
 80157  1  0  0  0
 80158  1  0  0  0
 81159  1  0  0  0
 81160  1  0  0  0
 82 84  1  0  0  0
 82 87  1  0  0  0
 82161  1  0  0  0
 82162  1  0  0  0
 83 84  1  0  0  0
 83 88  1  0  0  0
 83163  1  0  0  0
 83164  1  0  0  0
 85165  1  0  0  0
 85166  1  0  0  0
 86167  1  0  0  0
 87168  1  0  0  0
 88169  1  0  0  0
M  CHG  1  88   1
M  ISO  4   1 100  68 101  81 101  86 100
M  END
> <chiral flag>
0

> <version>
0

> <s_m_source_file>
/data/baiqing/PycharmProjects/Reinvent-master-3.2/result/LINK_invent/BTK/process_docking_weight1_custom_product_contain_oxygen_bond_distance_aromatic_linkinvent_7_9_3/rearranged_h_0046.sdf

> <i_m_source_file_index>
4

> <r_mmod_Potential_Energy-OPLS-2005>
-290.431732177734

> <r_mmod_Stretch_Energy-OPLS-2005>
33.823112487793

> <r_mmod_Bend_Energy-OPLS-2005>
102.356063842773

> <r_mmod_Torsional_Energy-OPLS-2005>
290.528594970703

> <r_mmod_Improper_Torsional_Energy-OPLS-2005>
12.3563394546509

> <r_mmod_Van_der_Waal_Energy-OPLS-2005>
173.434478759766

> <r_mmod_Electrostatic_Energy-OPLS-2005>
-480.144805908203

> <r_mmod_Solvation_Energy-OPLS-2005>
-441.3466796875

> <b_mmod_Minimization_Converged-OPLS-2005>
0

> <r_mmod_RMS_Derivative-OPLS-2005>
2.52200269699097

$$$$
4
                    3D
 Structure written by MMmdl.
170179  0  0  1  0            999 V2000
  -30.6135  -14.6264   20.5211 C   0  0  0  0  0  0
  -30.4496  -12.3904   19.4397 C   0  0  0  0  0  0
  -29.5157  -12.5164   18.2173 C   0  0  0  0  0  0
  -28.0323  -12.3660   18.6191 C   0  0  0  0  0  0
  -27.6598  -13.2110   19.8667 C   0  0  2  0  0  0
  -28.7061  -13.0350   20.9906 C   0  0  0  0  0  0
  -25.2597  -13.8159   20.5650 C   0  0  0  0  0  0
  -24.1847  -13.0450   20.9168 C   0  0  0  0  0  0
  -24.6387  -11.6918   20.8716 C   0  0  0  0  0  0
  -23.9032  -10.4312   21.0385 C   0  0  0  0  0  0
  -24.3577   -9.4233   21.9174 C   0  0  0  0  0  0
  -23.6254   -8.2282   22.0761 C   0  0  0  0  0  0
  -22.4248   -8.0297   21.3548 C   0  0  0  0  0  0
  -21.9866   -9.0273   20.4652 C   0  0  0  0  0  0
  -22.7207  -10.2151   20.3047 C   0  0  0  0  0  0
  -21.6869   -6.0717   22.5253 C   0  0  0  0  0  0
  -21.4046   -6.5619   23.8191 C   0  0  0  0  0  0
  -21.3646   -5.6774   24.9149 C   0  0  0  0  0  0
  -21.6024   -4.3033   24.7206 C   0  0  0  0  0  0
  -21.8830   -3.8127   23.4326 C   0  0  0  0  0  0
  -21.9210   -4.6947   22.3375 C   0  0  0  0  0  0
  -22.7871  -13.5279   21.1811 C   0  0  0  0  0  0
  -22.1669   -4.2137   21.0953 F   0  0  0  0  0  0
  -21.5596   -3.4517   25.7709 F   0  0  0  0  0  0
  -30.0240  -13.3921   20.4351 N   0  0  0  0  0  0
  -26.3013  -12.9313   20.3290 N   0  0  0  0  0  0
  -25.9314  -11.6484   20.5718 N   0  0  0  0  0  0
  -22.0462  -12.8323   22.0348 N   0  0  0  0  0  0
  -25.4351  -15.1869   20.4015 N   0  0  0  0  0  0
  -31.7624  -14.8301   20.1204 O   0  0  0  0  0  0
  -21.6647   -6.8869   21.4221 O   0  0  0  0  0  0
  -22.3591  -14.5590   20.6646 O   0  0  0  0  0  0
  -24.6269  -31.8590   23.2061 C   0  0  0  0  0  0
  -25.9110  -32.4780   23.8382 C   0  0  1  0  0  0
  -27.2206  -27.3219   20.1140 C   0  0  0  0  0  0
  -25.5924  -33.8577   24.2298 N   0  0  0  0  0  0
  -23.4206  -30.4876   21.5473 C   0  0  2  0  0  0
  -24.8636  -28.9454   20.1110 C   0  0  0  0  0  0
  -22.7476  -29.4636   22.4930 C   0  0  0  0  0  0
  -18.0276  -28.1417   22.8469 C   0  0  0  0  0  0
  -24.1473  -36.7289   23.2637 C   0  0  0  0  0  0
  -25.9616  -30.7917   21.3763 C   0  0  0  0  0  0
  -26.0329  -29.4193   20.7192 C   0  0  0  0  0  0
  -27.2101  -28.6161   20.7175 C   0  0  0  0  0  0
  -26.0270  -26.9042   19.4769 C   0  0  0  0  0  0
  -24.8616  -27.6922   19.4813 C   0  0  0  0  0  0
  -23.6347  -29.8280   20.1605 C   0  0  0  0  0  0
  -25.4090  -36.3077   24.0330 C   0  0  1  0  0  0
  -20.5882  -28.3723   23.1265 C   0  0  2  0  0  0
  -20.6774  -26.9444   22.5397 C   0  0  0  0  0  0
  -19.5750  -26.6403   21.5197 C   0  0  0  0  0  0
  -18.1930  -26.7953   22.1605 C   0  0  0  0  0  0
  -19.1533  -28.8872   23.2874 C   0  0  0  0  0  0
  -18.9459  -30.1469   23.8926 C   0  0  0  0  0  0
  -17.6465  -30.6601   24.0569 C   0  0  0  0  0  0
  -25.9042  -34.9449   23.5115 C   0  0  0  0  0  0
  -16.5356  -29.9121   23.6315 C   0  0  0  0  0  0
  -16.7266  -28.6523   23.0353 C   0  0  0  0  0  0
  -26.4489  -31.6586   25.0749 C   0  0  0  0  0  0
  -25.3722  -31.3726   26.1478 C   0  0  0  0  0  0
  -27.0312  -30.3010   24.6177 C   0  0  0  0  0  0
  -27.6068  -32.4304   25.7503 C   0  0  0  0  0  0
  -27.5570  -37.1781   24.8445 C   0  0  0  0  0  0
  -21.4183  -29.3072   22.3659 N   0  0  0  0  0  0
  -26.4264  -37.3778   23.9422 N   0  0  0  0  0  0
  -24.6894  -31.0612   22.1003 N   0  0  0  0  0  0
  -23.4169  -28.8154   23.3006 O   0  0  0  0  0  0
  -28.3508  -26.4876   20.1794 O   0  0  0  0  0  0
  -26.5603  -34.8909   22.4674 O   0  0  0  0  0  0
  -23.5430  -32.1397   23.7383 O   0  0  0  0  0  0
  -30.8613  -17.9399   20.6530 C   0  0  0  0  0  0
  -28.5122  -17.7126   21.0941 C   0  0  0  0  0  0
  -30.7284  -19.3677   20.7111 C   0  0  0  0  0  0
  -28.3566  -19.1264   21.1413 C   0  0  0  0  0  0
  -29.4692  -20.0054   20.9685 C   0  0  0  0  0  0
  -29.7561  -17.0767   20.8710 C   0  0  0  0  0  0
  -29.2740  -24.0957   20.4603 C   0  0  0  0  0  0
  -30.1488  -24.5360   21.3858 C   0  0  0  0  0  0
  -27.9639  -24.0331   17.3613 C   0  0  0  0  0  0
  -28.6092  -22.6770   17.6423 C   0  0  0  0  0  0
  -28.5621  -25.1669   18.1980 C   0  0  0  0  0  0
  -28.2845  -22.1383   19.0447 C   0  0  0  0  0  0
  -28.2903  -25.0781   19.7189 C   0  0  2  0  0  0
  -31.9902  -20.2029   20.5509 C   0  0  0  0  0  0
  -26.9611  -19.6567   21.4477 C   0  0  0  0  0  0
  -29.3311  -21.5708   21.2225 C   0  0  0  0  0  0
  -29.7691  -15.6184   20.9378 N   0  0  0  0  0  0
  -29.2652  -22.5709   20.0741 N   0  3  2  0  0  0
  -31.4885  -12.5283   19.1362 H   0  0  0  0  0  0
  -30.3912  -11.3886   19.8660 H   0  0  0  0  0  0
  -29.7790  -11.7739   17.4622 H   0  0  0  0  0  0
  -29.6667  -13.4892   17.7479 H   0  0  0  0  0  0
  -27.8388  -11.3085   18.8085 H   0  0  0  0  0  0
  -27.3946  -12.6444   17.7789 H   0  0  0  0  0  0
  -27.6863  -14.2532   19.5465 H   0  0  0  0  0  0
  -28.7196  -12.0019   21.3407 H   0  0  0  0  0  0
  -28.4493  -13.6353   21.8649 H   0  0  0  0  0  0
  -25.2709   -9.5740   22.4755 H   0  0  0  0  0  0
  -23.9965   -7.4680   22.7490 H   0  0  0  0  0  0
  -21.0807   -8.8780   19.8960 H   0  0  0  0  0  0
  -22.3634  -10.9678   19.6158 H   0  0  0  0  0  0
  -21.2075   -7.6130   23.9686 H   0  0  0  0  0  0
  -21.1434   -6.0500   25.9046 H   0  0  0  0  0  0
  -22.0629   -2.7600   23.2833 H   0  0  0  0  0  0
  -22.4015  -11.9995   22.4795 H   0  0  0  0  0  0
  -21.1083  -13.1413   22.2476 H   0  0  0  0  0  0
  -24.6729  -15.8465   20.5025 H   0  0  0  0  0  0
  -26.2633  -15.6014   19.9927 H   0  0  0  0  0  0
  -26.7203  -32.5431   23.1151 H   0  0  0  0  0  0
  -25.0070  -33.9742   25.0443 H   0  0  0  0  0  0
  -22.7158  -31.3101   21.4082 H   0  0  0  0  0  0
  -23.3743  -35.9609   23.3245 H   0  0  0  0  0  0
  -24.3602  -36.8961   22.2068 H   0  0  0  0  0  0
  -23.7204  -37.6466   23.6693 H   0  0  0  0  0  0
  -26.0905  -31.5526   20.6064 H   0  0  0  0  0  0
  -26.8467  -30.8462   21.9987 H   0  0  0  0  0  0
  -28.1076  -28.9715   21.2058 H   0  0  0  0  0  0
  -25.9509  -25.9576   18.9670 H   0  0  0  0  0  0
  -23.9703  -27.3246   18.9932 H   0  0  0  0  0  0
  -23.7644  -30.6097   19.4114 H   0  0  0  0  0  0
  -22.7527  -29.2667   19.8481 H   0  0  0  0  0  0
  -25.1254  -36.1930   25.0824 H   0  0  0  0  0  0
  -20.9977  -28.3320   24.1383 H   0  0  0  0  0  0
  -20.5678  -26.2338   23.3605 H   0  0  0  0  0  0
  -21.6649  -26.7494   22.1195 H   0  0  0  0  0  0
  -19.6924  -25.6303   21.1254 H   0  0  0  0  0  0
  -19.6687  -27.3180   20.6700 H   0  0  0  0  0  0
  -17.4195  -26.6689   21.4020 H   0  0  0  0  0  0
  -18.0339  -26.0110   22.9012 H   0  0  0  0  0  0
  -19.7942  -30.7260   24.2345 H   0  0  0  0  0  0
  -17.5029  -31.6298   24.5158 H   0  0  0  0  0  0
  -15.5364  -30.3049   23.7634 H   0  0  0  0  0  0
  -15.8645  -28.0847   22.7104 H   0  0  0  0  0  0
  -24.5871  -30.7112   25.7795 H   0  0  0  0  0  0
  -24.8944  -32.2900   26.4928 H   0  0  0  0  0  0
  -25.8049  -30.8871   27.0238 H   0  0  0  0  0  0
  -26.2869  -29.6779   24.1211 H   0  0  0  0  0  0
  -27.4031  -29.7246   25.4659 H   0  0  0  0  0  0
  -27.8729  -30.4292   23.9366 H   0  0  0  0  0  0
  -27.2711  -33.3626   26.2059 H   0  0  0  0  0  0
  -28.3885  -32.6837   25.0324 H   0  0  0  0  0  0
  -28.0721  -31.8431   26.5434 H   0  0  0  0  0  0
  -28.2541  -38.0130   24.7565 H   0  0  0  0  0  0
  -28.1127  -36.2666   24.6164 H   0  0  0  0  0  0
  -27.2320  -37.1294   25.8860 H   0  0  0  0  0  0
  -20.9362  -29.8825   21.6889 H   0  0  0  0  0  0
  -26.0130  -38.2838   24.1486 H   0  0  0  0  0  0
  -31.8386  -17.5078   20.4817 H   0  0  0  0  0  0
  -27.6434  -17.0920   21.2684 H   0  0  0  0  0  0
  -30.1784  -25.5813   21.6589 H   0  0  0  0  0  0
  -30.8591  -23.8939   21.8846 H   0  0  0  0  0  0
  -26.8839  -23.9785   17.5136 H   0  0  0  0  0  0
  -28.1003  -24.2721   16.3054 H   0  0  0  0  0  0
  -29.6867  -22.7157   17.4698 H   0  0  0  0  0  0
  -28.2258  -21.9679   16.9071 H   0  0  0  0  0  0
  -28.1331  -26.0911   17.8098 H   0  0  0  0  0  0
  -29.6331  -25.2589   18.0105 H   0  0  0  0  0  0
  -28.3132  -21.0532   18.9551 H   0  0  0  0  0  0
  -27.2632  -22.3711   19.3474 H   0  0  0  0  0  0
  -27.2985  -24.6764   19.9223 H   0  0  0  0  0  0
  -32.8342  -19.5947   20.2212 H   0  0  0  0  0  0
  -32.2730  -20.6634   21.4996 H   0  0  0  0  0  0
  -31.8525  -20.9858   19.8062 H   0  0  0  0  0  0
  -26.2028  -18.8777   21.3557 H   0  0  0  0  0  0
  -26.6712  -20.4506   20.7621 H   0  0  0  0  0  0
  -26.9093  -20.0348   22.4695 H   0  0  0  0  0  0
  -30.1585  -21.8434   21.8736 H   0  0  0  0  0  0
  -28.4564  -21.7568   21.8432 H   0  0  0  0  0  0
  -28.8914  -15.2249   21.2332 H   0  0  0  0  0  0
  -30.1475  -22.4078   19.6139 H   0  0  0  0  0  0
  1 25  1  0  0  0
  1 30  2  0  0  0
  1 87  1  0  0  0
  2  3  1  0  0  0
  2 25  1  0  0  0
  2 89  1  0  0  0
  2 90  1  0  0  0
  3  4  1  0  0  0
  3 91  1  0  0  0
  3 92  1  0  0  0
  4  5  1  0  0  0
  4 93  1  0  0  0
  4 94  1  0  0  0
  5  6  1  0  0  0
  5 26  1  0  0  0
  5 95  1  0  0  0
  6 25  1  0  0  0
  6 96  1  0  0  0
  6 97  1  0  0  0
  7  8  2  0  0  0
  7 26  1  0  0  0
  7 29  1  0  0  0
  8  9  1  0  0  0
  8 22  1  0  0  0
  9 10  1  0  0  0
  9 27  2  0  0  0
 10 11  2  0  0  0
 10 15  1  0  0  0
 11 12  1  0  0  0
 11 98  1  0  0  0
 12 13  2  0  0  0
 12 99  1  0  0  0
 13 14  1  0  0  0
 13 31  1  0  0  0
 14 15  2  0  0  0
 14100  1  0  0  0
 15101  1  0  0  0
 16 17  2  0  0  0
 16 21  1  0  0  0
 16 31  1  0  0  0
 17 18  1  0  0  0
 17102  1  0  0  0
 18 19  2  0  0  0
 18103  1  0  0  0
 19 20  1  0  0  0
 19 24  1  0  0  0
 20 21  2  0  0  0
 20104  1  0  0  0
 21 23  1  0  0  0
 22 28  1  0  0  0
 22 32  2  0  0  0
 26 27  1  0  0  0
 28105  1  0  0  0
 28106  1  0  0  0
 29107  1  0  0  0
 29108  1  0  0  0
 33 34  1  0  0  0
 33 66  1  0  0  0
 33 70  2  0  0  0
 34 36  1  0  0  0
 34 59  1  0  0  0
 34109  1  0  0  0
 35 44  2  0  0  0
 35 45  1  0  0  0
 35 68  1  0  0  0
 36 56  1  0  0  0
 36110  1  0  0  0
 37 39  1  0  0  0
 37 47  1  0  0  0
 37 66  1  0  0  0
 37111  1  0  0  0
 38 43  2  0  0  0
 38 46  1  0  0  0
 38 47  1  0  0  0
 39 64  1  0  0  0
 39 67  2  0  0  0
 40 52  1  0  0  0
 40 53  2  0  0  0
 40 58  1  0  0  0
 41112  1  0  0  0
 41113  1  0  0  0
 41114  1  0  0  0
 41 48  1  0  0  0
 42 43  1  0  0  0
 42 66  1  0  0  0
 42115  1  0  0  0
 42116  1  0  0  0
 43 44  1  0  0  0
 44117  1  0  0  0
 45 46  2  0  0  0
 45118  1  0  0  0
 46119  1  0  0  0
 47120  1  0  0  0
 47121  1  0  0  0
 48 56  1  0  0  0
 48 65  1  0  0  0
 48122  1  0  0  0
 49 50  1  0  0  0
 49 53  1  0  0  0
 49 64  1  0  0  0
 49123  1  0  0  0
 50 51  1  0  0  0
 50124  1  0  0  0
 50125  1  0  0  0
 51 52  1  0  0  0
 51126  1  0  0  0
 51127  1  0  0  0
 52128  1  0  0  0
 52129  1  0  0  0
 53 54  1  0  0  0
 54 55  2  0  0  0
 54130  1  0  0  0
 55 57  1  0  0  0
 55131  1  0  0  0
 56 69  2  0  0  0
 57 58  2  0  0  0
 57132  1  0  0  0
 58133  1  0  0  0
 59 60  1  0  0  0
 59 61  1  0  0  0
 59 62  1  0  0  0
 60134  1  0  0  0
 60135  1  0  0  0
 60136  1  0  0  0
 61137  1  0  0  0
 61138  1  0  0  0
 61139  1  0  0  0
 62140  1  0  0  0
 62141  1  0  0  0
 62142  1  0  0  0
 63 65  1  0  0  0
 63143  1  0  0  0
 63144  1  0  0  0
 63145  1  0  0  0
 64146  1  0  0  0
 65147  1  0  0  0
 68 83  1  0  0  0
 71 73  2  0  0  0
 71 76  1  0  0  0
 71148  1  0  0  0
 72 74  1  0  0  0
 72 76  2  0  0  0
 72149  1  0  0  0
 73 75  1  0  0  0
 73 84  1  0  0  0
 74 75  2  0  0  0
 74 85  1  0  0  0
 75 86  1  0  0  0
 76 87  1  0  0  0
 77 78  2  0  0  0
 77 83  1  0  0  0
 77 88  1  0  0  0
 78150  1  0  0  0
 78151  1  0  0  0
 79 80  1  0  0  0
 79 81  1  0  0  0
 79152  1  0  0  0
 79153  1  0  0  0
 80 82  1  0  0  0
 80154  1  0  0  0
 80155  1  0  0  0
 81 83  1  0  0  0
 81156  1  0  0  0
 81157  1  0  0  0
 82 88  1  0  0  0
 82158  1  0  0  0
 82159  1  0  0  0
 83160  1  0  0  0
 84161  1  0  0  0
 84162  1  0  0  0
 84163  1  0  0  0
 85164  1  0  0  0
 85165  1  0  0  0
 85166  1  0  0  0
 86167  1  0  0  0
 86168  1  0  0  0
 86 88  1  0  0  0
 87169  1  0  0  0
 88170  1  0  0  0
M  CHG  1  88   1
M  ISO  4   1 100  68 101  83 101  87 100
M  END
> <chiral flag>
0

> <version>
0

> <s_m_source_file>
/data/baiqing/PycharmProjects/Reinvent-master-3.2/result/LINK_invent/BTK/process_docking_weight1_custom_product_contain_oxygen_bond_distance_aromatic_linkinvent_7_9_3/rearranged_h_0046.sdf

> <i_m_source_file_index>
5

> <r_mmod_Potential_Energy-OPLS-2005>
4.55987215042114

> <r_mmod_Stretch_Energy-OPLS-2005>
92.2764587402344

> <r_mmod_Bend_Energy-OPLS-2005>
169.822204589844

> <r_mmod_Torsional_Energy-OPLS-2005>
218.766174316406

> <r_mmod_Improper_Torsional_Energy-OPLS-2005>
4.98758792877197

> <r_mmod_Van_der_Waal_Energy-OPLS-2005>
149.399810791016

> <r_mmod_Electrostatic_Energy-OPLS-2005>
-255.515518188477

> <r_mmod_Solvation_Energy-OPLS-2005>
-421.091217041016

> <b_mmod_Minimization_Converged-OPLS-2005>
0

> <r_mmod_RMS_Derivative-OPLS-2005>
3.42127633094788

$$$$
5
                    3D
 Structure written by MMmdl.
159167  0  0  1  0            999 V2000
  -30.7650  -14.3466   20.6926 C   0  0  0  0  0  0
  -30.4126  -12.2844   19.3849 C   0  0  0  0  0  0
  -29.4796  -12.5264   18.1850 C   0  0  0  0  0  0
  -28.0041  -12.3808   18.6042 C   0  0  0  0  0  0
  -27.6640  -13.1990   19.8774 C   0  0  2  0  0  0
  -28.7005  -12.9264   20.9882 C   0  0  0  0  0  0
  -25.2599  -13.8155   20.5668 C   0  0  0  0  0  0
  -24.1847  -13.0439   20.9156 C   0  0  0  0  0  0
  -24.6394  -11.6904   20.8728 C   0  0  0  0  0  0
  -23.9066  -10.4293   21.0412 C   0  0  0  0  0  0
  -24.3615   -9.4210   21.9195 C   0  0  0  0  0  0
  -23.6292   -8.2242   22.0761 C   0  0  0  0  0  0
  -22.4277   -8.0283   21.3545 C   0  0  0  0  0  0
  -21.9915   -9.0258   20.4645 C   0  0  0  0  0  0
  -22.7241  -10.2138   20.3060 C   0  0  0  0  0  0
  -21.6851   -6.0745   22.5284 C   0  0  0  0  0  0
  -21.4007   -6.5645   23.8217 C   0  0  0  0  0  0
  -21.3650   -5.6797   24.9177 C   0  0  0  0  0  0
  -21.6040   -4.3061   24.7229 C   0  0  0  0  0  0
  -21.8823   -3.8156   23.4351 C   0  0  0  0  0  0
  -21.9192   -4.6971   22.3405 C   0  0  0  0  0  0
  -22.7871  -13.5237   21.1834 C   0  0  0  0  0  0
  -22.1660   -4.2161   21.0982 F   0  0  0  0  0  0
  -21.5631   -3.4546   25.7745 F   0  0  0  0  0  0
  -30.0420  -13.2245   20.4510 N   0  0  0  0  0  0
  -26.3033  -12.9317   20.3365 N   0  0  0  0  0  0
  -25.9311  -11.6482   20.5745 N   0  0  0  0  0  0
  -22.0519  -12.8240   22.0400 N   0  0  0  0  0  0
  -25.4340  -15.1869   20.4100 N   0  0  0  0  0  0
  -31.7999  -14.6322   20.0815 O   0  0  0  0  0  0
  -21.6636   -6.8886   21.4246 O   0  0  0  0  0  0
  -22.3558  -14.5546   20.6689 O   0  0  0  0  0  0
  -24.6101  -31.8707   23.2127 C   0  0  0  0  0  0
  -25.9026  -32.4830   23.8406 C   0  0  1  0  0  0
  -27.2421  -27.4854   20.0941 C   0  0  0  0  0  0
  -25.5912  -33.8622   24.2369 N   0  0  0  0  0  0
  -23.3958  -30.4927   21.5518 C   0  0  2  0  0  0
  -24.8446  -28.9620   20.1156 C   0  0  0  0  0  0
  -22.7395  -29.4665   22.5015 C   0  0  0  0  0  0
  -18.0274  -28.1368   22.8494 C   0  0  0  0  0  0
  -24.1493  -36.7311   23.2646 C   0  0  0  0  0  0
  -25.9165  -30.8526   21.3566 C   0  0  0  0  0  0
  -25.9973  -29.4883   20.7113 C   0  0  0  0  0  0
  -27.1994  -28.7555   20.7054 C   0  0  0  0  0  0
  -26.0812  -26.9637   19.4911 C   0  0  0  0  0  0
  -24.8777  -27.6957   19.5035 C   0  0  0  0  0  0
  -23.6013  -29.8195   20.1673 C   0  0  0  0  0  0
  -25.4107  -36.3110   24.0351 C   0  0  1  0  0  0
  -20.5860  -28.3639   23.1337 C   0  0  2  0  0  0
  -20.6753  -26.9382   22.5405 C   0  0  0  0  0  0
  -19.5732  -26.6368   21.5205 C   0  0  0  0  0  0
  -18.1921  -26.7920   22.1622 C   0  0  0  0  0  0
  -19.1523  -28.8827   23.2910 C   0  0  0  0  0  0
  -18.9440  -30.1448   23.8890 C   0  0  0  0  0  0
  -17.6436  -30.6567   24.0560 C   0  0  0  0  0  0
  -25.9021  -34.9472   23.5146 C   0  0  0  0  0  0
  -16.5335  -29.9054   23.6335 C   0  0  0  0  0  0
  -16.7264  -28.6488   23.0339 C   0  0  0  0  0  0
  -26.4480  -31.6568   25.0695 C   0  0  0  0  0  0
  -25.3773  -31.3595   26.1450 C   0  0  0  0  0  0
  -27.0318  -30.3035   24.5999 C   0  0  0  0  0  0
  -27.6062  -32.4256   25.7483 C   0  0  0  0  0  0
  -27.5584  -37.1805   24.8482 C   0  0  0  0  0  0
  -21.4132  -29.3017   22.3761 N   0  0  0  0  0  0
  -26.4304  -37.3782   23.9416 N   0  0  0  0  0  0
  -24.6588  -31.0853   22.1001 N   0  0  0  0  0  0
  -23.4191  -28.8213   23.3040 O   0  0  0  0  0  0
  -28.3905  -26.7415   20.0670 O   0  0  0  0  0  0
  -26.5554  -34.8921   22.4687 O   0  0  0  0  0  0
  -23.5311  -32.1418   23.7572 O   0  0  0  0  0  0
  -32.1605  -16.4234   22.5286 C   0  0  0  0  0  0
  -32.6782  -17.6365   23.0050 C   0  0  0  0  0  0
  -30.4981  -18.7125   22.6798 C   0  0  0  0  0  0
  -30.8104  -16.3439   22.1276 C   0  0  0  0  0  0
  -31.8577  -18.7748   23.0770 C   0  0  0  0  0  0
  -29.9677  -17.4741   22.2241 C   0  0  0  0  0  0
  -28.8998  -25.0904   21.6654 C   0  0  0  0  0  0
  -28.8854  -26.3791   21.2859 C   0  0  0  0  0  0
  -29.6562  -19.9561   22.7184 C   0  0  0  0  0  0
  -29.7110  -23.2919   23.0723 C   0  0  0  0  0  0
  -29.5939  -25.5667   23.9831 C   0  0  0  0  0  0
  -29.5584  -22.3074   21.8943 C   0  0  0  0  0  0
  -30.2686  -15.1244   21.6613 N   0  0  0  0  0  0
  -30.2010  -21.0142   22.1104 N   0  0  0  0  0  0
  -29.3679  -24.5983   22.8994 N   0  0  0  0  0  0
  -28.5287  -19.9765   23.2169 O   0  0  0  0  0  0
  -30.1576  -22.8611   24.1438 O   0  0  0  0  0  0
  -32.4024  -19.9334   23.5227 F   0  0  0  0  0  0
  -28.3166  -17.3126   21.7051 Cl  0  0  0  0  0  0
  -31.4555  -12.3868   19.0797 H   0  0  0  0  0  0
  -30.3092  -11.2611   19.7489 H   0  0  0  0  0  0
  -29.7102  -11.8271   17.3801 H   0  0  0  0  0  0
  -29.6496  -13.5252   17.7807 H   0  0  0  0  0  0
  -27.8102  -11.3224   18.7838 H   0  0  0  0  0  0
  -27.3483  -12.6752   17.7835 H   0  0  0  0  0  0
  -27.7270  -14.2533   19.6089 H   0  0  0  0  0  0
  -28.6633  -11.8773   21.2872 H   0  0  0  0  0  0
  -28.4446  -13.4839   21.8885 H   0  0  0  0  0  0
  -25.2758   -9.5689   22.4776 H   0  0  0  0  0  0
  -23.9998   -7.4638   22.7491 H   0  0  0  0  0  0
  -21.0848   -8.8791   19.8947 H   0  0  0  0  0  0
  -22.3713  -10.9689   19.6172 H   0  0  0  0  0  0
  -21.1997   -7.6154   23.9723 H   0  0  0  0  0  0
  -21.1461   -6.0525   25.9077 H   0  0  0  0  0  0
  -22.0611   -2.7618   23.2853 H   0  0  0  0  0  0
  -22.4141  -11.9888   22.4771 H   0  0  0  0  0  0
  -21.1147  -13.1288   22.2634 H   0  0  0  0  0  0
  -24.6766  -15.8479   20.5429 H   0  0  0  0  0  0
  -26.3071  -15.6316   20.1546 H   0  0  0  0  0  0
  -26.7107  -32.5567   23.1187 H   0  0  0  0  0  0
  -25.0171  -33.9774   25.0594 H   0  0  0  0  0  0
  -22.6824  -31.3076   21.4118 H   0  0  0  0  0  0
  -23.3745  -35.9652   23.3304 H   0  0  0  0  0  0
  -24.3595  -36.8912   22.2059 H   0  0  0  0  0  0
  -23.7248  -37.6525   23.6640 H   0  0  0  0  0  0
  -26.0151  -31.6175   20.5855 H   0  0  0  0  0  0
  -26.8111  -30.9155   21.9635 H   0  0  0  0  0  0
  -28.0886  -29.1642   21.1625 H   0  0  0  0  0  0
  -26.1147  -25.9925   19.0188 H   0  0  0  0  0  0
  -23.9918  -27.2864   19.0383 H   0  0  0  0  0  0
  -23.6977  -30.5889   19.4004 H   0  0  0  0  0  0
  -22.7297  -29.2283   19.8817 H   0  0  0  0  0  0
  -25.1274  -36.1982   25.0845 H   0  0  0  0  0  0
  -20.9971  -28.3175   24.1452 H   0  0  0  0  0  0
  -20.5694  -26.2223   23.3567 H   0  0  0  0  0  0
  -21.6612  -26.7441   22.1174 H   0  0  0  0  0  0
  -19.6891  -25.6289   21.1208 H   0  0  0  0  0  0
  -19.6669  -27.3185   20.6743 H   0  0  0  0  0  0
  -17.4196  -26.6709   21.4018 H   0  0  0  0  0  0
  -18.0300  -26.0045   22.9001 H   0  0  0  0  0  0
  -19.7896  -30.7298   24.2240 H   0  0  0  0  0  0
  -17.4966  -31.6245   24.5160 H   0  0  0  0  0  0
  -15.5333  -30.2948   23.7655 H   0  0  0  0  0  0
  -15.8669  -28.0817   22.7021 H   0  0  0  0  0  0
  -24.5966  -30.6925   25.7779 H   0  0  0  0  0  0
  -24.8934  -32.2704   26.4973 H   0  0  0  0  0  0
  -25.8159  -30.8717   27.0162 H   0  0  0  0  0  0
  -26.2830  -29.6777   24.1127 H   0  0  0  0  0  0
  -27.4224  -29.7271   25.4398 H   0  0  0  0  0  0
  -27.8596  -30.4395   23.9035 H   0  0  0  0  0  0
  -27.2687  -33.3527   26.2127 H   0  0  0  0  0  0
  -28.3866  -32.6847   25.0314 H   0  0  0  0  0  0
  -28.0739  -31.8321   26.5352 H   0  0  0  0  0  0
  -28.2604  -38.0102   24.7537 H   0  0  0  0  0  0
  -28.1080  -36.2629   24.6307 H   0  0  0  0  0  0
  -27.2286  -37.1473   25.8884 H   0  0  0  0  0  0
  -20.9297  -29.8734   21.6977 H   0  0  0  0  0  0
  -26.0196  -38.2867   24.1392 H   0  0  0  0  0  0
  -32.8056  -15.5584   22.4752 H   0  0  0  0  0  0
  -33.7135  -17.6995   23.3064 H   0  0  0  0  0  0
  -28.4987  -24.3499   20.9906 H   0  0  0  0  0  0
  -29.2458  -27.2178   21.8663 H   0  0  0  0  0  0
  -28.7836  -26.2943   24.0328 H   0  0  0  0  0  0
  -30.5273  -26.1042   23.8168 H   0  0  0  0  0  0
  -29.6443  -25.1112   24.9729 H   0  0  0  0  0  0
  -30.0232  -22.7346   21.0058 H   0  0  0  0  0  0
  -28.4987  -22.1683   21.6727 H   0  0  0  0  0  0
  -29.3385  -14.8934   21.9754 H   0  0  0  0  0  0
  -31.1556  -20.9222   21.7957 H   0  0  0  0  0  0
  1 25  1  0  0  0
  1 30  2  0  0  0
  1 83  1  0  0  0
  2  3  1  0  0  0
  2 25  1  0  0  0
  2 90  1  0  0  0
  2 91  1  0  0  0
  3  4  1  0  0  0
  3 92  1  0  0  0
  3 93  1  0  0  0
  4  5  1  0  0  0
  4 94  1  0  0  0
  4 95  1  0  0  0
  5  6  1  0  0  0
  5 26  1  0  0  0
  5 96  1  0  0  0
  6 25  1  0  0  0
  6 97  1  0  0  0
  6 98  1  0  0  0
  7  8  2  0  0  0
  7 26  1  0  0  0
  7 29  1  0  0  0
  8  9  1  0  0  0
  8 22  1  0  0  0
  9 10  1  0  0  0
  9 27  2  0  0  0
 10 11  2  0  0  0
 10 15  1  0  0  0
 11 12  1  0  0  0
 11 99  1  0  0  0
 12 13  2  0  0  0
 12100  1  0  0  0
 13 14  1  0  0  0
 13 31  1  0  0  0
 14 15  2  0  0  0
 14101  1  0  0  0
 15102  1  0  0  0
 16 17  2  0  0  0
 16 21  1  0  0  0
 16 31  1  0  0  0
 17 18  1  0  0  0
 17103  1  0  0  0
 18 19  2  0  0  0
 18104  1  0  0  0
 19 20  1  0  0  0
 19 24  1  0  0  0
 20 21  2  0  0  0
 20105  1  0  0  0
 21 23  1  0  0  0
 22 28  1  0  0  0
 22 32  2  0  0  0
 26 27  1  0  0  0
 28106  1  0  0  0
 28107  1  0  0  0
 29108  1  0  0  0
 29109  1  0  0  0
 33 34  1  0  0  0
 33 66  1  0  0  0
 33 70  2  0  0  0
 34 36  1  0  0  0
 34 59  1  0  0  0
 34110  1  0  0  0
 35 44  2  0  0  0
 35 45  1  0  0  0
 35 68  1  0  0  0
 36 56  1  0  0  0
 36111  1  0  0  0
 37 39  1  0  0  0
 37 47  1  0  0  0
 37 66  1  0  0  0
 37112  1  0  0  0
 38 43  2  0  0  0
 38 46  1  0  0  0
 38 47  1  0  0  0
 39 64  1  0  0  0
 39 67  2  0  0  0
 40 52  1  0  0  0
 40 53  2  0  0  0
 40 58  1  0  0  0
 41113  1  0  0  0
 41114  1  0  0  0
 41115  1  0  0  0
 41 48  1  0  0  0
 42 43  1  0  0  0
 42 66  1  0  0  0
 42116  1  0  0  0
 42117  1  0  0  0
 43 44  1  0  0  0
 44118  1  0  0  0
 45 46  2  0  0  0
 45119  1  0  0  0
 46120  1  0  0  0
 47121  1  0  0  0
 47122  1  0  0  0
 48 56  1  0  0  0
 48 65  1  0  0  0
 48123  1  0  0  0
 49 50  1  0  0  0
 49 53  1  0  0  0
 49 64  1  0  0  0
 49124  1  0  0  0
 50 51  1  0  0  0
 50125  1  0  0  0
 50126  1  0  0  0
 51 52  1  0  0  0
 51127  1  0  0  0
 51128  1  0  0  0
 52129  1  0  0  0
 52130  1  0  0  0
 53 54  1  0  0  0
 54 55  2  0  0  0
 54131  1  0  0  0
 55 57  1  0  0  0
 55132  1  0  0  0
 56 69  2  0  0  0
 57 58  2  0  0  0
 57133  1  0  0  0
 58134  1  0  0  0
 59 60  1  0  0  0
 59 61  1  0  0  0
 59 62  1  0  0  0
 60135  1  0  0  0
 60136  1  0  0  0
 60137  1  0  0  0
 61138  1  0  0  0
 61139  1  0  0  0
 61140  1  0  0  0
 62141  1  0  0  0
 62142  1  0  0  0
 62143  1  0  0  0
 63 65  1  0  0  0
 63144  1  0  0  0
 63145  1  0  0  0
 63146  1  0  0  0
 64147  1  0  0  0
 65148  1  0  0  0
 68 78  1  0  0  0
 71 72  2  0  0  0
 71 74  1  0  0  0
 71149  1  0  0  0
 72 75  1  0  0  0
 72150  1  0  0  0
 73 75  2  0  0  0
 73 76  1  0  0  0
 73 79  1  0  0  0
 74 76  2  0  0  0
 74 83  1  0  0  0
 75 88  1  0  0  0
 76 89  1  0  0  0
 77 78  2  0  0  0
 77 85  1  0  0  0
 77151  1  0  0  0
 78152  1  0  0  0
 79 84  1  0  0  0
 79 86  2  0  0  0
 80 82  1  0  0  0
 80 85  1  0  0  0
 80 87  2  0  0  0
 81 85  1  0  0  0
 81153  1  0  0  0
 81154  1  0  0  0
 81155  1  0  0  0
 82 84  1  0  0  0
 82156  1  0  0  0
 82157  1  0  0  0
 83158  1  0  0  0
 84159  1  0  0  0
M  ISO  4   1 100  68 101  78 101  83 100
M  END
> <chiral flag>
0

> <version>
0

> <s_m_source_file>
/data/baiqing/PycharmProjects/Reinvent-master-3.2/result/LINK_invent/BTK/process_docking_weight1_custom_product_contain_oxygen_bond_distance_aromatic_linkinvent_7_9_3/rearranged_h_0046.sdf

> <i_m_source_file_index>
6

> <r_mmod_Potential_Energy-OPLS-2005>
-146.108520507812

> <r_mmod_Stretch_Energy-OPLS-2005>
34.652587890625

> <r_mmod_Bend_Energy-OPLS-2005>
93.4447326660156

> <r_mmod_Torsional_Energy-OPLS-2005>
253.27522277832

> <r_mmod_Improper_Torsional_Energy-OPLS-2005>
2.39276337623596

> <r_mmod_Van_der_Waal_Energy-OPLS-2005>
180.011703491211

> <r_mmod_Electrostatic_Energy-OPLS-2005>
-477.771728515625

> <r_mmod_Solvation_Energy-OPLS-2005>
-238.203552246094

> <b_mmod_Minimization_Converged-OPLS-2005>
0

> <r_mmod_RMS_Derivative-OPLS-2005>
1.66380512714386

$$$$
6
                    3D
 Structure written by MMmdl.
168177  0  0  1  0            999 V2000
  -30.8394  -14.4740   20.3873 C   0  0  0  0  0  0
  -30.4361  -12.3260   19.4041 C   0  0  0  0  0  0
  -29.4612  -12.3985   18.2111 C   0  0  0  0  0  0
  -27.9894  -12.3565   18.6580 C   0  0  0  0  0  0
  -27.6516  -13.2515   19.8824 C   0  0  2  0  0  0
  -28.7442  -13.2039   20.9793 C   0  0  0  0  0  0
  -25.2420  -13.8342   20.6112 C   0  0  0  0  0  0
  -24.1809  -13.0480   20.9444 C   0  0  0  0  0  0
  -24.6409  -11.6916   20.8899 C   0  0  0  0  0  0
  -23.9107  -10.4168   21.0472 C   0  0  0  0  0  0
  -24.3687   -9.4097   21.9266 C   0  0  0  0  0  0
  -23.6312   -8.2139   22.0799 C   0  0  0  0  0  0
  -22.4250   -8.0229   21.3650 C   0  0  0  0  0  0
  -21.9986   -9.0171   20.4713 C   0  0  0  0  0  0
  -22.7273  -10.2032   20.3164 C   0  0  0  0  0  0
  -21.6762   -6.0736   22.5334 C   0  0  0  0  0  0
  -21.3866   -6.5707   23.8220 C   0  0  0  0  0  0
  -21.3690   -5.6872   24.9232 C   0  0  0  0  0  0
  -21.6062   -4.3109   24.7284 C   0  0  0  0  0  0
  -21.8729   -3.8204   23.4379 C   0  0  0  0  0  0
  -21.9058   -4.6963   22.3479 C   0  0  0  0  0  0
  -22.7709  -13.5015   21.2016 C   0  0  0  0  0  0
  -22.1519   -4.2224   21.0990 F   0  0  0  0  0  0
  -21.5709   -3.4565   25.7762 F   0  0  0  0  0  0
  -30.0564  -13.3788   20.3481 N   0  0  0  0  0  0
  -26.2964  -12.9660   20.3751 N   0  0  0  0  0  0
  -25.9354  -11.6698   20.6005 N   0  0  0  0  0  0
  -22.0151  -12.8200   22.0618 N   0  0  0  0  0  0
  -25.3595  -15.2229   20.4807 N   0  0  0  0  0  0
  -32.0643  -14.4274   20.2822 O   0  0  0  0  0  0
  -21.6655   -6.8848   21.4212 O   0  0  0  0  0  0
  -22.3216  -14.5087   20.6450 O   0  0  0  0  0  0
  -24.6183  -31.8694   23.2215 C   0  0  0  0  0  0
  -25.9101  -32.4761   23.8431 C   0  0  1  0  0  0
  -27.1189  -27.3648   20.0213 C   0  0  0  0  0  0
  -25.6001  -33.8586   24.2326 N   0  0  0  0  0  0
  -23.3999  -30.5175   21.5705 C   0  0  2  0  0  0
  -24.8155  -29.0040   20.1059 C   0  0  0  0  0  0
  -22.7390  -29.4685   22.4975 C   0  0  0  0  0  0
  -18.0246  -28.1368   22.8462 C   0  0  0  0  0  0
  -24.1491  -36.7341   23.2600 C   0  0  0  0  0  0
  -25.9499  -30.7871   21.4017 C   0  0  0  0  0  0
  -25.9973  -29.4320   20.7256 C   0  0  0  0  0  0
  -27.1535  -28.6023   20.7188 C   0  0  0  0  0  0
  -25.9683  -27.0792   19.2704 C   0  0  0  0  0  0
  -24.7921  -27.8181   19.3840 C   0  0  0  0  0  0
  -23.6070  -29.8995   20.1707 C   0  0  0  0  0  0
  -25.4094  -36.3088   24.0276 C   0  0  1  0  0  0
  -20.5833  -28.3660   23.1270 C   0  0  2  0  0  0
  -20.6727  -26.9408   22.5373 C   0  0  0  0  0  0
  -19.5716  -26.6376   21.5163 C   0  0  0  0  0  0
  -18.1905  -26.7907   22.1597 C   0  0  0  0  0  0
  -19.1494  -28.8814   23.2884 C   0  0  0  0  0  0
  -18.9457  -30.1413   23.8918 C   0  0  0  0  0  0
  -17.6466  -30.6579   24.0567 C   0  0  0  0  0  0
  -25.9078  -34.9437   23.5098 C   0  0  0  0  0  0
  -16.5349  -29.9107   23.6305 C   0  0  0  0  0  0
  -16.7248  -28.6512   23.0345 C   0  0  0  0  0  0
  -26.4497  -31.6592   25.0791 C   0  0  0  0  0  0
  -25.3811  -31.3748   26.1592 C   0  0  0  0  0  0
  -27.0279  -30.2974   24.6226 C   0  0  0  0  0  0
  -27.5987  -32.4343   25.7606 C   0  0  0  0  0  0
  -27.5571  -37.1823   24.8454 C   0  0  0  0  0  0
  -21.4107  -29.3041   22.3684 N   0  0  0  0  0  0
  -26.4272  -37.3781   23.9422 N   0  0  0  0  0  0
  -24.6756  -31.0711   22.1200 N   0  0  0  0  0  0
  -23.4163  -28.8098   23.2923 O   0  0  0  0  0  0
  -28.1499  -26.4394   20.0264 O   0  0  0  0  0  0
  -26.5594  -34.8886   22.4634 O   0  0  0  0  0  0
  -23.5348  -32.1505   23.7588 O   0  0  0  0  0  0
  -31.2782  -19.8746   21.1049 C   0  0  0  0  0  0
  -31.5057  -18.5703   20.6548 C   0  0  0  0  0  0
  -29.3487  -20.0744   19.6602 C   0  0  0  0  0  0
  -30.1777  -20.6269   20.6556 C   0  0  0  0  0  0
  -30.6401  -18.0061   19.6819 C   0  0  0  0  0  0
  -29.5247  -18.7617   19.2008 C   0  0  0  0  0  0
  -28.9835  -24.0999   20.3881 C   0  0  0  0  0  0
  -29.2741  -17.5282   15.9796 C   0  0  0  0  0  0
  -28.6611  -17.2786   17.1590 C   0  0  0  0  0  0
  -26.2936  -22.9394   20.3855 C   0  0  0  0  0  0
  -26.6107  -24.2994   19.7702 C   0  0  0  0  0  0
  -27.4663  -22.2456   21.1110 C   0  0  0  0  0  0
  -27.7788  -25.0653   20.4643 C   0  0  2  0  0  0
  -28.4007  -18.3187   18.2386 C   0  0  0  0  0  0
  -29.9851  -22.0149   21.2299 C   0  0  0  0  0  0
  -30.9438  -16.5973   19.2250 C   0  0  0  0  0  0
  -28.8060  -22.8165   20.8253 N   0  0  0  0  0  0
  -30.2284  -15.6039   20.0322 N   0  0  0  0  0  0
  -30.0765  -24.5225   19.9833 O   0  0  0  0  0  0
  -31.4429  -12.4243   18.9888 H   0  0  0  0  0  0
  -30.4301  -11.3825   19.9484 H   0  0  0  0  0  0
  -29.6599  -11.5358   17.5806 H   0  0  0  0  0  0
  -29.6476  -13.2635   17.5703 H   0  0  0  0  0  0
  -27.7164  -11.3171   18.8816 H   0  0  0  0  0  0
  -27.3404  -12.6554   17.8286 H   0  0  0  0  0  0
  -27.6210  -14.2731   19.4954 H   0  0  0  0  0  0
  -28.7517  -12.2970   21.5954 H   0  0  0  0  0  0
  -28.5683  -14.0250   21.6853 H   0  0  0  0  0  0
  -25.2676   -9.5628   22.5063 H   0  0  0  0  0  0
  -24.0034   -7.4571   22.7576 H   0  0  0  0  0  0
  -21.0920   -8.8729   19.8981 H   0  0  0  0  0  0
  -22.3696  -10.9724   19.6555 H   0  0  0  0  0  0
  -21.1791   -7.6176   23.9831 H   0  0  0  0  0  0
  -21.1682   -6.0586   25.9191 H   0  0  0  0  0  0
  -22.0496   -2.7645   23.2871 H   0  0  0  0  0  0
  -22.3438  -12.0200   22.5778 H   0  0  0  0  0  0
  -21.0734  -13.1409   22.2254 H   0  0  0  0  0  0
  -24.5249  -15.7840   20.5419 H   0  0  0  0  0  0
  -26.1457  -15.7675   20.1727 H   0  0  0  0  0  0
  -26.7130  -32.5365   23.1148 H   0  0  0  0  0  0
  -25.0241  -33.9803   25.0522 H   0  0  0  0  0  0
  -22.6873  -31.3363   21.4570 H   0  0  0  0  0  0
  -23.3688  -35.9781   23.3312 H   0  0  0  0  0  0
  -24.3576  -36.8904   22.2029 H   0  0  0  0  0  0
  -23.7387  -37.6583   23.6603 H   0  0  0  0  0  0
  -26.0839  -31.5504   20.6335 H   0  0  0  0  0  0
  -26.8320  -30.8211   22.0282 H   0  0  0  0  0  0
  -28.0458  -28.8863   21.2587 H   0  0  0  0  0  0
  -25.9195  -26.2753   18.5553 H   0  0  0  0  0  0
  -23.9027  -27.4992   18.8520 H   0  0  0  0  0  0
  -23.7558  -30.7099   19.4528 H   0  0  0  0  0  0
  -22.7128  -29.3730   19.8272 H   0  0  0  0  0  0
  -25.1287  -36.1892   25.0755 H   0  0  0  0  0  0
  -20.9903  -28.3229   24.1413 H   0  0  0  0  0  0
  -20.5536  -26.2319   23.3588 H   0  0  0  0  0  0
  -21.6629  -26.7422   22.1242 H   0  0  0  0  0  0
  -19.6905  -25.6283   21.1215 H   0  0  0  0  0  0
  -19.6643  -27.3161   20.6673 H   0  0  0  0  0  0
  -17.4165  -26.6593   21.4034 H   0  0  0  0  0  0
  -18.0384  -26.0050   22.8992 H   0  0  0  0  0  0
  -19.7958  -30.7182   24.2335 H   0  0  0  0  0  0
  -17.5071  -31.6272   24.5183 H   0  0  0  0  0  0
  -15.5375  -30.3063   23.7601 H   0  0  0  0  0  0
  -15.8637  -28.0858   22.7069 H   0  0  0  0  0  0
  -24.5982  -30.7001   25.8125 H   0  0  0  0  0  0
  -24.9013  -32.2933   26.4964 H   0  0  0  0  0  0
  -25.8267  -30.9082   27.0402 H   0  0  0  0  0  0
  -26.2814  -29.6782   24.1209 H   0  0  0  0  0  0
  -27.3947  -29.7074   25.4651 H   0  0  0  0  0  0
  -27.8748  -30.4184   23.9454 H   0  0  0  0  0  0
  -27.2462  -33.3585   26.2182 H   0  0  0  0  0  0
  -28.3844  -32.6999   25.0543 H   0  0  0  0  0  0
  -28.0616  -31.8502   26.5570 H   0  0  0  0  0  0
  -28.2540  -38.0141   24.7468 H   0  0  0  0  0  0
  -28.1067  -36.2661   24.6277 H   0  0  0  0  0  0
  -27.2293  -37.1519   25.8846 H   0  0  0  0  0  0
  -20.9216  -29.8996   21.7144 H   0  0  0  0  0  0
  -26.0085  -38.2817   24.1450 H   0  0  0  0  0  0
  -31.9680  -20.3021   21.8135 H   0  0  0  0  0  0
  -32.3504  -18.0362   21.0920 H   0  0  0  0  0  0
  -28.5534  -20.6679   19.2330 H   0  0  0  0  0  0
  -29.4104  -16.7327   15.2621 H   0  0  0  0  0  0
  -29.6445  -18.5023   15.6890 H   0  0  0  0  0  0
  -28.3265  -16.2833   17.3808 H   0  0  0  0  0  0
  -25.9236  -22.3038   19.5825 H   0  0  0  0  0  0
  -25.4225  -23.0103   21.0438 H   0  0  0  0  0  0
  -25.6414  -24.7761   19.8307 H   0  0  0  0  0  0
  -26.8284  -24.1820   18.7051 H   0  0  0  0  0  0
  -27.3894  -21.1870   20.8373 H   0  0  0  0  0  0
  -27.3181  -22.2299   22.1970 H   0  0  0  0  0  0
  -27.5424  -25.1514   21.5251 H   0  0  0  0  0  0
  -28.0398  -19.2052   17.6910 H   0  0  0  0  0  0
  -27.5407  -18.0151   18.8534 H   0  0  0  0  0  0
  -30.9110  -22.5105   20.9414 H   0  0  0  0  0  0
  -30.0229  -21.9515   22.3244 H   0  0  0  0  0  0
  -30.6638  -16.4557   18.1819 H   0  0  0  0  0  0
  -32.0342  -16.4868   19.1853 H   0  0  0  0  0  0
  -29.2139  -15.6298   19.9516 H   0  0  0  0  0  0
  1 25  1  0  0  0
  1 30  2  0  0  0
  1 88  1  0  0  0
  2  3  1  0  0  0
  2 25  1  0  0  0
  2 90  1  0  0  0
  2 91  1  0  0  0
  3  4  1  0  0  0
  3 92  1  0  0  0
  3 93  1  0  0  0
  4  5  1  0  0  0
  4 94  1  0  0  0
  4 95  1  0  0  0
  5  6  1  0  0  0
  5 26  1  0  0  0
  5 96  1  0  0  0
  6 25  1  0  0  0
  6 97  1  0  0  0
  6 98  1  0  0  0
  7  8  2  0  0  0
  7 26  1  0  0  0
  7 29  1  0  0  0
  8  9  1  0  0  0
  8 22  1  0  0  0
  9 10  1  0  0  0
  9 27  2  0  0  0
 10 11  2  0  0  0
 10 15  1  0  0  0
 11 12  1  0  0  0
 11 99  1  0  0  0
 12 13  2  0  0  0
 12100  1  0  0  0
 13 14  1  0  0  0
 13 31  1  0  0  0
 14 15  2  0  0  0
 14101  1  0  0  0
 15102  1  0  0  0
 16 17  2  0  0  0
 16 21  1  0  0  0
 16 31  1  0  0  0
 17 18  1  0  0  0
 17103  1  0  0  0
 18 19  2  0  0  0
 18104  1  0  0  0
 19 20  1  0  0  0
 19 24  1  0  0  0
 20 21  2  0  0  0
 20105  1  0  0  0
 21 23  1  0  0  0
 22 28  1  0  0  0
 22 32  2  0  0  0
 26 27  1  0  0  0
 28106  1  0  0  0
 28107  1  0  0  0
 29108  1  0  0  0
 29109  1  0  0  0
 33 34  1  0  0  0
 33 66  1  0  0  0
 33 70  2  0  0  0
 34 36  1  0  0  0
 34 59  1  0  0  0
 34110  1  0  0  0
 35 44  2  0  0  0
 35 45  1  0  0  0
 35 68  1  0  0  0
 36 56  1  0  0  0
 36111  1  0  0  0
 37 39  1  0  0  0
 37 47  1  0  0  0
 37 66  1  0  0  0
 37112  1  0  0  0
 38 43  2  0  0  0
 38 46  1  0  0  0
 38 47  1  0  0  0
 39 64  1  0  0  0
 39 67  2  0  0  0
 40 52  1  0  0  0
 40 53  2  0  0  0
 40 58  1  0  0  0
 41113  1  0  0  0
 41114  1  0  0  0
 41115  1  0  0  0
 41 48  1  0  0  0
 42 43  1  0  0  0
 42 66  1  0  0  0
 42116  1  0  0  0
 42117  1  0  0  0
 43 44  1  0  0  0
 44118  1  0  0  0
 45 46  2  0  0  0
 45119  1  0  0  0
 46120  1  0  0  0
 47121  1  0  0  0
 47122  1  0  0  0
 48 56  1  0  0  0
 48 65  1  0  0  0
 48123  1  0  0  0
 49 50  1  0  0  0
 49 53  1  0  0  0
 49 64  1  0  0  0
 49124  1  0  0  0
 50 51  1  0  0  0
 50125  1  0  0  0
 50126  1  0  0  0
 51 52  1  0  0  0
 51127  1  0  0  0
 51128  1  0  0  0
 52129  1  0  0  0
 52130  1  0  0  0
 53 54  1  0  0  0
 54 55  2  0  0  0
 54131  1  0  0  0
 55 57  1  0  0  0
 55132  1  0  0  0
 56 69  2  0  0  0
 57 58  2  0  0  0
 57133  1  0  0  0
 58134  1  0  0  0
 59 60  1  0  0  0
 59 61  1  0  0  0
 59 62  1  0  0  0
 60135  1  0  0  0
 60136  1  0  0  0
 60137  1  0  0  0
 61138  1  0  0  0
 61139  1  0  0  0
 61140  1  0  0  0
 62141  1  0  0  0
 62142  1  0  0  0
 62143  1  0  0  0
 63 65  1  0  0  0
 63144  1  0  0  0
 63145  1  0  0  0
 63146  1  0  0  0
 64147  1  0  0  0
 65148  1  0  0  0
 68 83  1  0  0  0
 71 72  2  0  0  0
 71 74  1  0  0  0
 71149  1  0  0  0
 72 75  1  0  0  0
 72150  1  0  0  0
 73 74  2  0  0  0
 73 76  1  0  0  0
 73151  1  0  0  0
 74 85  1  0  0  0
 75 76  2  0  0  0
 75 86  1  0  0  0
 76 84  1  0  0  0
 77 83  1  0  0  0
 77 87  1  0  0  0
 77 89  2  0  0  0
 78 79  2  0  0  0
 78152  1  0  0  0
 78153  1  0  0  0
 79 84  1  0  0  0
 79154  1  0  0  0
 80 81  1  0  0  0
 80 82  1  0  0  0
 80155  1  0  0  0
 80156  1  0  0  0
 81 83  1  0  0  0
 81157  1  0  0  0
 81158  1  0  0  0
 82 87  1  0  0  0
 82159  1  0  0  0
 82160  1  0  0  0
 83161  1  0  0  0
 84162  1  0  0  0
 84163  1  0  0  0
 85 87  1  0  0  0
 85164  1  0  0  0
 85165  1  0  0  0
 86 88  1  0  0  0
 86166  1  0  0  0
 86167  1  0  0  0
 88168  1  0  0  0
M  ISO  4   1 100  68 101  83 101  88 100
M  END
> <chiral flag>
0

> <version>
0

> <s_m_source_file>
/data/baiqing/PycharmProjects/Reinvent-master-3.2/result/LINK_invent/BTK/process_docking_weight1_custom_product_contain_oxygen_bond_distance_aromatic_linkinvent_7_9_3/rearranged_h_0046.sdf

> <i_m_source_file_index>
7

> <r_mmod_Potential_Energy-OPLS-2005>
229.685256958008

> <r_mmod_Stretch_Energy-OPLS-2005>
53.8367767333984

> <r_mmod_Bend_Energy-OPLS-2005>
161.666030883789

> <r_mmod_Torsional_Energy-OPLS-2005>
310.478454589844

> <r_mmod_Improper_Torsional_Energy-OPLS-2005>
18.0511722564697

> <r_mmod_Van_der_Waal_Energy-OPLS-2005>
204.248229980469

> <r_mmod_Electrostatic_Energy-OPLS-2005>
-374.589233398438

> <r_mmod_Solvation_Energy-OPLS-2005>
-233.122650146484

> <b_mmod_Minimization_Converged-OPLS-2005>
0

> <r_mmod_RMS_Derivative-OPLS-2005>
22.1884803771973

$$$$
7
                    3D
 Structure written by MMmdl.
158166  0  0  1  0            999 V2000
  -30.7006  -14.4992   20.5451 C   0  0  0  0  0  0
  -30.4174  -12.3094   19.4358 C   0  0  0  0  0  0
  -29.4994  -12.5084   18.2118 C   0  0  0  0  0  0
  -28.0182  -12.3706   18.6169 C   0  0  0  0  0  0
  -27.6572  -13.2157   19.8681 C   0  0  2  0  0  0
  -28.6990  -13.0222   20.9916 C   0  0  0  0  0  0
  -25.2563  -13.8177   20.5667 C   0  0  0  0  0  0
  -24.1826  -13.0450   20.9170 C   0  0  0  0  0  0
  -24.6384  -11.6918   20.8727 C   0  0  0  0  0  0
  -23.9048  -10.4302   21.0382 C   0  0  0  0  0  0
  -24.3603   -9.4222   21.9167 C   0  0  0  0  0  0
  -23.6289   -8.2254   22.0743 C   0  0  0  0  0  0
  -22.4273   -8.0280   21.3534 C   0  0  0  0  0  0
  -21.9900   -9.0249   20.4636 C   0  0  0  0  0  0
  -22.7224  -10.2134   20.3039 C   0  0  0  0  0  0
  -21.6853   -6.0726   22.5271 C   0  0  0  0  0  0
  -21.4010   -6.5635   23.8202 C   0  0  0  0  0  0
  -21.3659   -5.6790   24.9167 C   0  0  0  0  0  0
  -21.6049   -4.3050   24.7219 C   0  0  0  0  0  0
  -21.8819   -3.8137   23.4344 C   0  0  0  0  0  0
  -21.9196   -4.6952   22.3399 C   0  0  0  0  0  0
  -22.7848  -13.5252   21.1843 C   0  0  0  0  0  0
  -22.1664   -4.2139   21.0980 F   0  0  0  0  0  0
  -21.5633   -3.4529   25.7728 F   0  0  0  0  0  0
  -30.0314  -13.3151   20.4396 N   0  0  0  0  0  0
  -26.3001  -12.9358   20.3328 N   0  0  0  0  0  0
  -25.9310  -11.6510   20.5732 N   0  0  0  0  0  0
  -22.0493  -12.8229   22.0382 N   0  0  0  0  0  0
  -25.4299  -15.1888   20.4050 N   0  0  0  0  0  0
  -31.8489  -14.6031   20.1015 O   0  0  0  0  0  0
  -21.6646   -6.8872   21.4233 O   0  0  0  0  0  0
  -22.3529  -14.5569   20.6716 O   0  0  0  0  0  0
  -24.6174  -31.8688   23.2122 C   0  0  0  0  0  0
  -25.9067  -32.4822   23.8413 C   0  0  1  0  0  0
  -27.2223  -27.4076   20.0915 C   0  0  0  0  0  0
  -25.5939  -33.8622   24.2354 N   0  0  0  0  0  0
  -23.4041  -30.4967   21.5536 C   0  0  2  0  0  0
  -24.8473  -28.9661   20.1128 C   0  0  0  0  0  0
  -22.7413  -29.4673   22.4976 C   0  0  0  0  0  0
  -18.0269  -28.1372   22.8487 C   0  0  0  0  0  0
  -24.1494  -36.7294   23.2637 C   0  0  0  0  0  0
  -25.9390  -30.8229   21.3727 C   0  0  0  0  0  0
  -26.0111  -29.4576   20.7157 C   0  0  0  0  0  0
  -27.2002  -28.6862   20.7056 C   0  0  0  0  0  0
  -26.0384  -26.9581   19.4525 C   0  0  0  0  0  0
  -24.8576  -27.7161   19.4789 C   0  0  0  0  0  0
  -23.6122  -29.8352   20.1671 C   0  0  0  0  0  0
  -25.4113  -36.3107   24.0350 C   0  0  1  0  0  0
  -20.5857  -28.3668   23.1295 C   0  0  2  0  0  0
  -20.6752  -26.9400   22.5400 C   0  0  0  0  0  0
  -19.5738  -26.6374   21.5197 C   0  0  0  0  0  0
  -18.1919  -26.7920   22.1607 C   0  0  0  0  0  0
  -19.1516  -28.8836   23.2885 C   0  0  0  0  0  0
  -18.9446  -30.1441   23.8894 C   0  0  0  0  0  0
  -17.6454  -30.6583   24.0549 C   0  0  0  0  0  0
  -25.9053  -34.9476   23.5141 C   0  0  0  0  0  0
  -16.5342  -29.9081   23.6327 C   0  0  0  0  0  0
  -16.7256  -28.6492   23.0358 C   0  0  0  0  0  0
  -26.4489  -31.6590   25.0739 C   0  0  0  0  0  0
  -25.3763  -31.3699   26.1499 C   0  0  0  0  0  0
  -27.0307  -30.3028   24.6118 C   0  0  0  0  0  0
  -27.6089  -32.4294   25.7478 C   0  0  0  0  0  0
  -27.5589  -37.1789   24.8458 C   0  0  0  0  0  0
  -21.4135  -29.3044   22.3711 N   0  0  0  0  0  0
  -26.4283  -37.3804   23.9435 N   0  0  0  0  0  0
  -24.6715  -31.0778   22.1035 N   0  0  0  0  0  0
  -23.4186  -28.8208   23.3011 O   0  0  0  0  0  0
  -28.3702  -26.6274   20.1415 O   0  0  0  0  0  0
  -26.5584  -34.8922   22.4690 O   0  0  0  0  0  0
  -23.5364  -32.1444   23.7514 O   0  0  0  0  0  0
  -27.4741  -19.1774   21.5101 C   0  0  0  0  0  0
  -28.2062  -17.9999   21.2778 C   0  0  0  0  0  0
  -28.0870  -20.4326   21.3557 C   0  0  0  0  0  0
  -29.5645  -18.0472   20.8955 C   0  0  0  0  0  0
  -29.4429  -20.5344   20.9765 C   0  0  0  0  0  0
  -30.1953  -19.3328   20.7760 C   0  0  0  0  0  0
  -30.2560  -16.7498   20.5896 C   0  0  0  0  0  0
  -29.2654  -24.2889   20.4264 C   0  0  0  0  0  0
  -31.6855  -19.4563   20.4506 C   0  0  0  0  0  0
  -28.5277  -22.4762   18.9093 C   0  0  0  0  0  0
  -30.0611  -21.9478   20.8088 C   0  0  0  0  0  0
  -28.2343  -25.2339   19.7601 C   0  0  0  0  0  0
  -29.9326  -15.5740   21.0116 N   0  0  0  0  0  0
  -29.2444  -22.9630   20.0981 N   0  0  0  0  0  0
  -30.0403  -24.7479   21.2738 O   0  0  0  0  0  0
  -31.4645  -12.3820   19.1387 H   0  0  0  0  0  0
  -30.2980  -11.3054   19.8455 H   0  0  0  0  0  0
  -29.7413  -11.7832   17.4346 H   0  0  0  0  0  0
  -29.6699  -13.4937   17.7753 H   0  0  0  0  0  0
  -27.8268  -11.3151   18.8155 H   0  0  0  0  0  0
  -27.3730  -12.6447   17.7812 H   0  0  0  0  0  0
  -27.6946  -14.2614   19.5613 H   0  0  0  0  0  0
  -28.6722  -11.9964   21.3627 H   0  0  0  0  0  0
  -28.4624  -13.6514   21.8505 H   0  0  0  0  0  0
  -25.2742   -9.5710   22.4748 H   0  0  0  0  0  0
  -23.9990   -7.4647   22.7471 H   0  0  0  0  0  0
  -21.0823   -8.8765   19.8958 H   0  0  0  0  0  0
  -22.3667  -10.9664   19.6149 H   0  0  0  0  0  0
  -21.1991   -7.6141   23.9705 H   0  0  0  0  0  0
  -21.1486   -6.0516   25.9074 H   0  0  0  0  0  0
  -22.0600   -2.7603   23.2835 H   0  0  0  0  0  0
  -22.4096  -11.9891   22.4778 H   0  0  0  0  0  0
  -21.1131  -13.1273   22.2625 H   0  0  0  0  0  0
  -24.6687  -15.8520   20.5022 H   0  0  0  0  0  0
  -26.2919  -15.6138   20.0888 H   0  0  0  0  0  0
  -26.7126  -32.5519   23.1161 H   0  0  0  0  0  0
  -25.0163  -33.9789   25.0548 H   0  0  0  0  0  0
  -22.6931  -31.3150   21.4181 H   0  0  0  0  0  0
  -23.3785  -35.9592   23.3254 H   0  0  0  0  0  0
  -24.3600  -36.8937   22.2057 H   0  0  0  0  0  0
  -23.7194  -37.6472   23.6667 H   0  0  0  0  0  0
  -26.0629  -31.5888   20.6049 H   0  0  0  0  0  0
  -26.8245  -30.8690   21.9956 H   0  0  0  0  0  0
  -28.0931  -29.0590   21.1884 H   0  0  0  0  0  0
  -25.9860  -26.0204   18.9194 H   0  0  0  0  0  0
  -23.9669  -27.3372   18.9974 H   0  0  0  0  0  0
  -23.7215  -30.6118   19.4101 H   0  0  0  0  0  0
  -22.7350  -29.2581   19.8687 H   0  0  0  0  0  0
  -25.1280  -36.1962   25.0845 H   0  0  0  0  0  0
  -20.9957  -28.3224   24.1412 H   0  0  0  0  0  0
  -20.5638  -26.2281   23.3595 H   0  0  0  0  0  0
  -21.6622  -26.7428   22.1200 H   0  0  0  0  0  0
  -19.6903  -25.6288   21.1221 H   0  0  0  0  0  0
  -19.6688  -27.3169   20.6720 H   0  0  0  0  0  0
  -17.4195  -26.6670   21.4008 H   0  0  0  0  0  0
  -18.0316  -26.0054   22.8990 H   0  0  0  0  0  0
  -19.7934  -30.7239   24.2266 H   0  0  0  0  0  0
  -17.5024  -31.6268   24.5140 H   0  0  0  0  0  0
  -15.5347  -30.2986   23.7678 H   0  0  0  0  0  0
  -15.8643  -28.0813   22.7097 H   0  0  0  0  0  0
  -24.5919  -30.7071   25.7824 H   0  0  0  0  0  0
  -24.8983  -32.2858   26.4988 H   0  0  0  0  0  0
  -25.8131  -30.8830   27.0226 H   0  0  0  0  0  0
  -26.2840  -29.6777   24.1214 H   0  0  0  0  0  0
  -27.4097  -29.7283   25.4572 H   0  0  0  0  0  0
  -27.8671  -30.4319   23.9251 H   0  0  0  0  0  0
  -27.2757  -33.3618   26.2041 H   0  0  0  0  0  0
  -28.3911  -32.6799   25.0299 H   0  0  0  0  0  0
  -28.0741  -31.8411   26.5393 H   0  0  0  0  0  0
  -28.2571  -38.0125   24.7582 H   0  0  0  0  0  0
  -28.1127  -36.2663   24.6198 H   0  0  0  0  0  0
  -27.2325  -37.1308   25.8860 H   0  0  0  0  0  0
  -20.9306  -29.8794   21.6945 H   0  0  0  0  0  0
  -26.0171  -38.2872   24.1479 H   0  0  0  0  0  0
  -26.4323  -19.1141   21.7940 H   0  0  0  0  0  0
  -27.7065  -17.0467   21.3822 H   0  0  0  0  0  0
  -27.5016  -21.3255   21.5276 H   0  0  0  0  0  0
  -31.0972  -16.8719   19.9012 H   0  0  0  0  0  0
  -32.2505  -18.5311   20.5314 H   0  0  0  0  0  0
  -32.1660  -20.1419   21.1496 H   0  0  0  0  0  0
  -31.8248  -19.8411   19.4400 H   0  0  0  0  0  0
  -28.7160  -23.1010   18.0362 H   0  0  0  0  0  0
  -27.4526  -22.4458   19.0926 H   0  0  0  0  0  0
  -28.8409  -21.4722   18.6208 H   0  0  0  0  0  0
  -31.0075  -21.9096   20.2729 H   0  0  0  0  0  0
  -30.3054  -22.2947   21.8148 H   0  0  0  0  0  0
  -27.2768  -24.8218   20.0792 H   0  0  0  0  0  0
  -28.2923  -25.1720   18.6742 H   0  0  0  0  0  0
  1 25  1  0  0  0
  1 30  2  0  0  0
  1 83  1  0  0  0
  2  3  1  0  0  0
  2 25  1  0  0  0
  2 86  1  0  0  0
  2 87  1  0  0  0
  3  4  1  0  0  0
  3 88  1  0  0  0
  3 89  1  0  0  0
  4  5  1  0  0  0
  4 90  1  0  0  0
  4 91  1  0  0  0
  5  6  1  0  0  0
  5 26  1  0  0  0
  5 92  1  0  0  0
  6 25  1  0  0  0
  6 93  1  0  0  0
  6 94  1  0  0  0
  7  8  2  0  0  0
  7 26  1  0  0  0
  7 29  1  0  0  0
  8  9  1  0  0  0
  8 22  1  0  0  0
  9 10  1  0  0  0
  9 27  2  0  0  0
 10 11  2  0  0  0
 10 15  1  0  0  0
 11 12  1  0  0  0
 11 95  1  0  0  0
 12 13  2  0  0  0
 12 96  1  0  0  0
 13 14  1  0  0  0
 13 31  1  0  0  0
 14 15  2  0  0  0
 14 97  1  0  0  0
 15 98  1  0  0  0
 16 17  2  0  0  0
 16 21  1  0  0  0
 16 31  1  0  0  0
 17 18  1  0  0  0
 17 99  1  0  0  0
 18 19  2  0  0  0
 18100  1  0  0  0
 19 20  1  0  0  0
 19 24  1  0  0  0
 20 21  2  0  0  0
 20101  1  0  0  0
 21 23  1  0  0  0
 22 28  1  0  0  0
 22 32  2  0  0  0
 26 27  1  0  0  0
 28102  1  0  0  0
 28103  1  0  0  0
 29104  1  0  0  0
 29105  1  0  0  0
 33 34  1  0  0  0
 33 66  1  0  0  0
 33 70  2  0  0  0
 34 36  1  0  0  0
 34 59  1  0  0  0
 34106  1  0  0  0
 35 44  2  0  0  0
 35 45  1  0  0  0
 35 68  1  0  0  0
 36 56  1  0  0  0
 36107  1  0  0  0
 37 39  1  0  0  0
 37 47  1  0  0  0
 37 66  1  0  0  0
 37108  1  0  0  0
 38 43  2  0  0  0
 38 46  1  0  0  0
 38 47  1  0  0  0
 39 64  1  0  0  0
 39 67  2  0  0  0
 40 52  1  0  0  0
 40 53  2  0  0  0
 40 58  1  0  0  0
 41109  1  0  0  0
 41110  1  0  0  0
 41111  1  0  0  0
 41 48  1  0  0  0
 42 43  1  0  0  0
 42 66  1  0  0  0
 42112  1  0  0  0
 42113  1  0  0  0
 43 44  1  0  0  0
 44114  1  0  0  0
 45 46  2  0  0  0
 45115  1  0  0  0
 46116  1  0  0  0
 47117  1  0  0  0
 47118  1  0  0  0
 48 56  1  0  0  0
 48 65  1  0  0  0
 48119  1  0  0  0
 49 50  1  0  0  0
 49 53  1  0  0  0
 49 64  1  0  0  0
 49120  1  0  0  0
 50 51  1  0  0  0
 50121  1  0  0  0
 50122  1  0  0  0
 51 52  1  0  0  0
 51123  1  0  0  0
 51124  1  0  0  0
 52125  1  0  0  0
 52126  1  0  0  0
 53 54  1  0  0  0
 54 55  2  0  0  0
 54127  1  0  0  0
 55 57  1  0  0  0
 55128  1  0  0  0
 56 69  2  0  0  0
 57 58  2  0  0  0
 57129  1  0  0  0
 58130  1  0  0  0
 59 60  1  0  0  0
 59 61  1  0  0  0
 59 62  1  0  0  0
 60131  1  0  0  0
 60132  1  0  0  0
 60133  1  0  0  0
 61134  1  0  0  0
 61135  1  0  0  0
 61136  1  0  0  0
 62137  1  0  0  0
 62138  1  0  0  0
 62139  1  0  0  0
 63 65  1  0  0  0
 63140  1  0  0  0
 63141  1  0  0  0
 63142  1  0  0  0
 64143  1  0  0  0
 65144  1  0  0  0
 68 82  1  0  0  0
 71 72  2  0  0  0
 71 73  1  0  0  0
 71145  1  0  0  0
 72 74  1  0  0  0
 72146  1  0  0  0
 73 75  2  0  0  0
 73147  1  0  0  0
 74 76  2  0  0  0
 74 77  1  0  0  0
 75 76  1  0  0  0
 75 81  1  0  0  0
 76 79  1  0  0  0
 77 83  2  0  0  0
 77148  1  0  0  0
 78 82  1  0  0  0
 78 84  1  0  0  0
 78 85  2  0  0  0
 79149  1  0  0  0
 79150  1  0  0  0
 79151  1  0  0  0
 80 84  1  0  0  0
 80152  1  0  0  0
 80153  1  0  0  0
 80154  1  0  0  0
 81 84  1  0  0  0
 81155  1  0  0  0
 81156  1  0  0  0
 82157  1  0  0  0
 82158  1  0  0  0
M  ISO  4   1 100  68 101  82 101  83 100
M  END
> <chiral flag>
0

> <version>
0

> <s_m_source_file>
/data/baiqing/PycharmProjects/Reinvent-master-3.2/result/LINK_invent/BTK/process_docking_weight1_custom_product_contain_oxygen_bond_distance_aromatic_linkinvent_7_9_3/rearranged_h_0046.sdf

> <i_m_source_file_index>
8

> <r_mmod_Potential_Energy-OPLS-2005>
27.1920776367188

> <r_mmod_Stretch_Energy-OPLS-2005>
52.867733001709

> <r_mmod_Bend_Energy-OPLS-2005>
103.443405151367

> <r_mmod_Torsional_Energy-OPLS-2005>
178.561065673828

> <r_mmod_Improper_Torsional_Energy-OPLS-2005>
4.37446784973145

> <r_mmod_Van_der_Waal_Energy-OPLS-2005>
190.405288696289

> <r_mmod_Electrostatic_Energy-OPLS-2005>
-308.089416503906

> <r_mmod_Solvation_Energy-OPLS-2005>
-213.809707641602

> <b_mmod_Minimization_Converged-OPLS-2005>
0

> <r_mmod_RMS_Derivative-OPLS-2005>
2.05248951911926

$$$$
8
                    3D
 Structure written by MMmdl.
159167  0  0  1  0            999 V2000
  -30.6191  -14.5401   20.6307 C   0  0  0  0  0  0
  -30.4563  -12.3753   19.4019 C   0  0  0  0  0  0
  -29.5029  -12.5482   18.1976 C   0  0  0  0  0  0
  -28.0221  -12.3921   18.6078 C   0  0  0  0  0  0
  -27.6698  -13.2018   19.8834 C   0  0  2  0  0  0
  -28.7177  -12.9160   20.9817 C   0  0  0  0  0  0
  -25.2606  -13.8127   20.5622 C   0  0  0  0  0  0
  -24.1863  -13.0422   20.9168 C   0  0  0  0  0  0
  -24.6417  -11.6890   20.8738 C   0  0  0  0  0  0
  -23.9072  -10.4281   21.0409 C   0  0  0  0  0  0
  -24.3621   -9.4195   21.9185 C   0  0  0  0  0  0
  -23.6298   -8.2232   22.0755 C   0  0  0  0  0  0
  -22.4287   -8.0265   21.3536 C   0  0  0  0  0  0
  -21.9912   -9.0244   20.4644 C   0  0  0  0  0  0
  -22.7247  -10.2121   20.3056 C   0  0  0  0  0  0
  -21.6850   -6.0725   22.5282 C   0  0  0  0  0  0
  -21.4012   -6.5631   23.8216 C   0  0  0  0  0  0
  -21.3664   -5.6786   24.9177 C   0  0  0  0  0  0
  -21.6049   -4.3051   24.7226 C   0  0  0  0  0  0
  -21.8821   -3.8137   23.4347 C   0  0  0  0  0  0
  -21.9197   -4.6954   22.3406 C   0  0  0  0  0  0
  -22.7888  -13.5237   21.1835 C   0  0  0  0  0  0
  -22.1665   -4.2138   21.0985 F   0  0  0  0  0  0
  -21.5630   -3.4533   25.7739 F   0  0  0  0  0  0
  -30.0407  -13.3105   20.4608 N   0  0  0  0  0  0
  -26.3072  -12.9298   20.3381 N   0  0  0  0  0  0
  -25.9349  -11.6464   20.5760 N   0  0  0  0  0  0
  -22.0500  -12.8253   22.0395 N   0  0  0  0  0  0
  -25.4278  -15.1836   20.3960 N   0  0  0  0  0  0
  -31.6655  -14.8690   20.0603 O   0  0  0  0  0  0
  -21.6641   -6.8871   21.4243 O   0  0  0  0  0  0
  -22.3586  -14.5543   20.6675 O   0  0  0  0  0  0
  -24.6188  -31.8636   23.2049 C   0  0  0  0  0  0
  -25.9051  -32.4802   23.8375 C   0  0  1  0  0  0
  -27.2446  -27.3868   20.1136 C   0  0  0  0  0  0
  -25.5886  -33.8604   24.2308 N   0  0  0  0  0  0
  -23.4118  -30.4823   21.5465 C   0  0  2  0  0  0
  -24.8618  -28.9312   20.1247 C   0  0  0  0  0  0
  -22.7435  -29.4635   22.4980 C   0  0  0  0  0  0
  -18.0272  -28.1386   22.8490 C   0  0  0  0  0  0
  -24.1486  -36.7306   23.2644 C   0  0  0  0  0  0
  -25.9450  -30.8123   21.3664 C   0  0  0  0  0  0
  -26.0241  -29.4404   20.7186 C   0  0  0  0  0  0
  -27.2205  -28.6789   20.7013 C   0  0  0  0  0  0
  -26.0623  -26.8943   19.5242 C   0  0  0  0  0  0
  -24.8777  -27.6594   19.5234 C   0  0  0  0  0  0
  -23.6267  -29.8061   20.1658 C   0  0  0  0  0  0
  -25.4110  -36.3104   24.0341 C   0  0  1  0  0  0
  -20.5872  -28.3681   23.1305 C   0  0  2  0  0  0
  -20.6773  -26.9415   22.5416 C   0  0  0  0  0  0
  -19.5755  -26.6391   21.5214 C   0  0  0  0  0  0
  -18.1929  -26.7932   22.1620 C   0  0  0  0  0  0
  -19.1524  -28.8847   23.2901 C   0  0  0  0  0  0
  -18.9456  -30.1453   23.8913 C   0  0  0  0  0  0
  -17.6456  -30.6595   24.0564 C   0  0  0  0  0  0
  -25.9033  -34.9466   23.5130 C   0  0  0  0  0  0
  -16.5346  -29.9097   23.6324 C   0  0  0  0  0  0
  -16.7259  -28.6514   23.0347 C   0  0  0  0  0  0
  -26.4456  -31.6598   25.0724 C   0  0  0  0  0  0
  -25.3697  -31.3730   26.1460 C   0  0  0  0  0  0
  -27.0306  -30.3038   24.6136 C   0  0  0  0  0  0
  -27.6034  -32.4318   25.7479 C   0  0  0  0  0  0
  -27.5582  -37.1806   24.8462 C   0  0  0  0  0  0
  -21.4156  -29.3036   22.3705 N   0  0  0  0  0  0
  -26.4293  -37.3789   23.9410 N   0  0  0  0  0  0
  -24.6767  -31.0689   22.0968 N   0  0  0  0  0  0
  -23.4176  -28.8184   23.3052 O   0  0  0  0  0  0
  -28.4122  -26.6450   20.0375 O   0  0  0  0  0  0
  -26.5608  -34.8922   22.4699 O   0  0  0  0  0  0
  -23.5361  -32.1404   23.7407 O   0  0  0  0  0  0
  -28.2593  -19.2295   21.9380 C   0  0  0  0  0  0
  -27.7217  -18.0979   22.5597 C   0  0  0  0  0  0
  -29.9951  -17.8334   20.9103 C   0  0  0  0  0  0
  -29.4029  -19.1314   21.1187 C   0  0  0  0  0  0
  -28.3228  -16.8383   22.4011 C   0  0  0  0  0  0
  -29.4615  -16.6681   21.5620 C   0  0  0  0  0  0
  -29.9701  -20.4303   20.6476 C   0  0  0  0  0  0
  -27.7128  -15.6856   23.1844 C   0  0  0  0  0  0
  -28.5466  -24.0497   20.0020 C   0  0  0  0  0  0
  -29.5767  -22.9858   20.5456 C   0  0  0  0  0  0
  -28.5050  -25.4098   20.7951 C   0  0  0  0  0  0
  -31.2882  -20.5561   20.5146 N   0  0  0  0  0  0
  -29.9817  -15.3141   21.5409 N   0  0  0  0  0  0
  -29.1869  -21.5345   20.4616 N   0  3  0  0  0  0
  -31.4894  -12.5468   19.0927 H   0  0  0  0  0  0
  -30.4217  -11.3490   19.7720 H   0  0  0  0  0  0
  -29.7507  -11.8297   17.4151 H   0  0  0  0  0  0
  -29.6530  -13.5368   17.7598 H   0  0  0  0  0  0
  -27.8323  -11.3317   18.7768 H   0  0  0  0  0  0
  -27.3707  -12.6875   17.7842 H   0  0  0  0  0  0
  -27.7247  -14.2601   19.6268 H   0  0  0  0  0  0
  -28.7233  -11.8506   21.2161 H   0  0  0  0  0  0
  -28.4612  -13.3894   21.9240 H   0  0  0  0  0  0
  -25.2749   -9.5680   22.4770 H   0  0  0  0  0  0
  -23.9996   -7.4625   22.7485 H   0  0  0  0  0  0
  -21.0831   -8.8773   19.8960 H   0  0  0  0  0  0
  -22.3698  -10.9664   19.6178 H   0  0  0  0  0  0
  -21.1996   -7.6140   23.9721 H   0  0  0  0  0  0
  -21.1494   -6.0507   25.9084 H   0  0  0  0  0  0
  -22.0602   -2.7593   23.2845 H   0  0  0  0  0  0
  -22.4074  -11.9922   22.4827 H   0  0  0  0  0  0
  -21.1110  -13.1295   22.2559 H   0  0  0  0  0  0
  -24.6564  -15.8315   20.5053 H   0  0  0  0  0  0
  -26.2765  -15.6294   20.0739 H   0  0  0  0  0  0
  -26.7128  -32.5496   23.1145 H   0  0  0  0  0  0
  -25.0024  -33.9766   25.0445 H   0  0  0  0  0  0
  -22.7038  -31.3007   21.3996 H   0  0  0  0  0  0
  -23.3746  -35.9639   23.3302 H   0  0  0  0  0  0
  -24.3584  -36.8919   22.2058 H   0  0  0  0  0  0
  -23.7233  -37.6512   23.6653 H   0  0  0  0  0  0
  -26.0651  -31.5723   20.5935 H   0  0  0  0  0  0
  -26.8295  -30.8685   21.9897 H   0  0  0  0  0  0
  -28.1238  -29.0769   21.1433 H   0  0  0  0  0  0
  -26.0645  -25.9218   19.0527 H   0  0  0  0  0  0
  -23.9849  -27.2613   19.0608 H   0  0  0  0  0  0
  -23.7447  -30.5767   19.4035 H   0  0  0  0  0  0
  -22.7498  -29.2297   19.8668 H   0  0  0  0  0  0
  -25.1288  -36.1967   25.0833 H   0  0  0  0  0  0
  -20.9960  -28.3246   24.1429 H   0  0  0  0  0  0
  -20.5691  -26.2285   23.3606 H   0  0  0  0  0  0
  -21.6642  -26.7467   22.1199 H   0  0  0  0  0  0
  -19.6920  -25.6305   21.1241 H   0  0  0  0  0  0
  -19.6697  -27.3207   20.6751 H   0  0  0  0  0  0
  -17.4204  -26.6676   21.4017 H   0  0  0  0  0  0
  -18.0331  -26.0077   22.9019 H   0  0  0  0  0  0
  -19.7938  -30.7263   24.2289 H   0  0  0  0  0  0
  -17.5019  -31.6274   24.5171 H   0  0  0  0  0  0
  -15.5356  -30.3007   23.7649 H   0  0  0  0  0  0
  -15.8656  -28.0840   22.7052 H   0  0  0  0  0  0
  -24.5847  -30.7112   25.7778 H   0  0  0  0  0  0
  -24.8914  -32.2903   26.4906 H   0  0  0  0  0  0
  -25.8012  -30.8876   27.0224 H   0  0  0  0  0  0
  -26.2884  -29.6797   24.1142 H   0  0  0  0  0  0
  -27.4027  -29.7277   25.4620 H   0  0  0  0  0  0
  -27.8730  -30.4372   23.9344 H   0  0  0  0  0  0
  -27.2660  -33.3609   26.2090 H   0  0  0  0  0  0
  -28.3810  -32.6894   25.0273 H   0  0  0  0  0  0
  -28.0737  -31.8421   26.5362 H   0  0  0  0  0  0
  -28.2595  -38.0108   24.7514 H   0  0  0  0  0  0
  -28.1083  -36.2637   24.6278 H   0  0  0  0  0  0
  -27.2303  -37.1444   25.8867 H   0  0  0  0  0  0
  -20.9330  -29.8738   21.6903 H   0  0  0  0  0  0
  -26.0179  -38.2867   24.1405 H   0  0  0  0  0  0
  -27.8009  -20.1861   22.1490 H   0  0  0  0  0  0
  -26.8585  -18.2146   23.2006 H   0  0  0  0  0  0
  -30.8832  -17.7445   20.3000 H   0  0  0  0  0  0
  -28.4755  -15.0920   23.6894 H   0  0  0  0  0  0
  -27.1276  -15.0463   22.5271 H   0  0  0  0  0  0
  -27.0357  -16.0527   23.9554 H   0  0  0  0  0  0
  -27.5423  -23.6303   19.9601 H   0  0  0  0  0  0
  -28.8144  -24.2696   18.9685 H   0  0  0  0  0  0
  -29.7565  -23.1866   21.6032 H   0  0  0  0  0  0
  -30.5378  -23.1470   20.0548 H   0  0  0  0  0  0
  -29.4351  -25.5015   21.3555 H   0  0  0  0  0  0
  -27.7242  -25.3632   21.5565 H   0  0  0  0  0  0
  -31.8837  -19.7696   20.7241 H   0  0  0  0  0  0
  -31.7170  -21.3968   20.1674 H   0  0  0  0  0  0
  -29.4138  -14.7117   22.1137 H   0  0  0  0  0  0
  -28.1908  -21.3473   20.4724 H   0  0  0  0  0  0
  1 25  1  0  0  0
  1 30  2  0  0  0
  1 83  1  0  0  0
  2  3  1  0  0  0
  2 25  1  0  0  0
  2 85  1  0  0  0
  2 86  1  0  0  0
  3  4  1  0  0  0
  3 87  1  0  0  0
  3 88  1  0  0  0
  4  5  1  0  0  0
  4 89  1  0  0  0
  4 90  1  0  0  0
  5  6  1  0  0  0
  5 26  1  0  0  0
  5 91  1  0  0  0
  6 25  1  0  0  0
  6 92  1  0  0  0
  6 93  1  0  0  0
  7  8  2  0  0  0
  7 26  1  0  0  0
  7 29  1  0  0  0
  8  9  1  0  0  0
  8 22  1  0  0  0
  9 10  1  0  0  0
  9 27  2  0  0  0
 10 11  2  0  0  0
 10 15  1  0  0  0
 11 12  1  0  0  0
 11 94  1  0  0  0
 12 13  2  0  0  0
 12 95  1  0  0  0
 13 14  1  0  0  0
 13 31  1  0  0  0
 14 15  2  0  0  0
 14 96  1  0  0  0
 15 97  1  0  0  0
 16 17  2  0  0  0
 16 21  1  0  0  0
 16 31  1  0  0  0
 17 18  1  0  0  0
 17 98  1  0  0  0
 18 19  2  0  0  0
 18 99  1  0  0  0
 19 20  1  0  0  0
 19 24  1  0  0  0
 20 21  2  0  0  0
 20100  1  0  0  0
 21 23  1  0  0  0
 22 28  1  0  0  0
 22 32  2  0  0  0
 26 27  1  0  0  0
 28101  1  0  0  0
 28102  1  0  0  0
 29103  1  0  0  0
 29104  1  0  0  0
 33 34  1  0  0  0
 33 66  1  0  0  0
 33 70  2  0  0  0
 34 36  1  0  0  0
 34 59  1  0  0  0
 34105  1  0  0  0
 35 44  2  0  0  0
 35 45  1  0  0  0
 35 68  1  0  0  0
 36 56  1  0  0  0
 36106  1  0  0  0
 37 39  1  0  0  0
 37 47  1  0  0  0
 37 66  1  0  0  0
 37107  1  0  0  0
 38 43  2  0  0  0
 38 46  1  0  0  0
 38 47  1  0  0  0
 39 64  1  0  0  0
 39 67  2  0  0  0
 40 52  1  0  0  0
 40 53  2  0  0  0
 40 58  1  0  0  0
 41108  1  0  0  0
 41109  1  0  0  0
 41110  1  0  0  0
 41 48  1  0  0  0
 42 43  1  0  0  0
 42 66  1  0  0  0
 42111  1  0  0  0
 42112  1  0  0  0
 43 44  1  0  0  0
 44113  1  0  0  0
 45 46  2  0  0  0
 45114  1  0  0  0
 46115  1  0  0  0
 47116  1  0  0  0
 47117  1  0  0  0
 48 56  1  0  0  0
 48 65  1  0  0  0
 48118  1  0  0  0
 49 50  1  0  0  0
 49 53  1  0  0  0
 49 64  1  0  0  0
 49119  1  0  0  0
 50 51  1  0  0  0
 50120  1  0  0  0
 50121  1  0  0  0
 51 52  1  0  0  0
 51122  1  0  0  0
 51123  1  0  0  0
 52124  1  0  0  0
 52125  1  0  0  0
 53 54  1  0  0  0
 54 55  2  0  0  0
 54126  1  0  0  0
 55 57  1  0  0  0
 55127  1  0  0  0
 56 69  2  0  0  0
 57 58  2  0  0  0
 57128  1  0  0  0
 58129  1  0  0  0
 59 60  1  0  0  0
 59 61  1  0  0  0
 59 62  1  0  0  0
 60130  1  0  0  0
 60131  1  0  0  0
 60132  1  0  0  0
 61133  1  0  0  0
 61134  1  0  0  0
 61135  1  0  0  0
 62136  1  0  0  0
 62137  1  0  0  0
 62138  1  0  0  0
 63 65  1  0  0  0
 63139  1  0  0  0
 63140  1  0  0  0
 63141  1  0  0  0
 64142  1  0  0  0
 65143  1  0  0  0
 68 81  1  0  0  0
 71 72  2  0  0  0
 71 74  1  0  0  0
 71144  1  0  0  0
 72 75  1  0  0  0
 72145  1  0  0  0
 73 74  2  0  0  0
 73 76  1  0  0  0
 73146  1  0  0  0
 74 77  1  0  0  0
 75 76  2  0  0  0
 75 78  1  0  0  0
 76 83  1  0  0  0
 77 82  1  0  0  0
 77 84  2  0  0  0
 78147  1  0  0  0
 78148  1  0  0  0
 78149  1  0  0  0
 79 80  1  0  0  0
 79 81  1  0  0  0
 79150  1  0  0  0
 79151  1  0  0  0
 80 84  1  0  0  0
 80152  1  0  0  0
 80153  1  0  0  0
 81154  1  0  0  0
 81155  1  0  0  0
 82156  1  0  0  0
 82157  1  0  0  0
 83158  1  0  0  0
 84159  1  0  0  0
M  CHG  1  84   1
M  ISO  4   1 100  68 101  81 101  83 100
M  END
> <chiral flag>
0

> <version>
0

> <s_m_source_file>
/data/baiqing/PycharmProjects/Reinvent-master-3.2/result/LINK_invent/BTK/process_docking_weight1_custom_product_contain_oxygen_bond_distance_aromatic_linkinvent_7_9_3/rearranged_h_0046.sdf

> <i_m_source_file_index>
9

> <r_mmod_Potential_Energy-OPLS-2005>
-184.531982421875

> <r_mmod_Stretch_Energy-OPLS-2005>
58.8062362670898

> <r_mmod_Bend_Energy-OPLS-2005>
143.1748046875

> <r_mmod_Torsional_Energy-OPLS-2005>
266.407531738281

> <r_mmod_Improper_Torsional_Energy-OPLS-2005>
7.08997678756714

> <r_mmod_Van_der_Waal_Energy-OPLS-2005>
144.172912597656

> <r_mmod_Electrostatic_Energy-OPLS-2005>
-417.059783935547

> <r_mmod_Solvation_Energy-OPLS-2005>
-411.972076416016

> <b_mmod_Minimization_Converged-OPLS-2005>
0

> <r_mmod_RMS_Derivative-OPLS-2005>
1.77672004699707

$$$$
9
                    3D
 Structure written by MMmdl.
158167  0  0  1  0            999 V2000
  -30.6392  -14.6397   20.4061 C   0  0  0  0  0  0
  -30.4276  -12.3713   19.4335 C   0  0  0  0  0  0
  -29.4926  -12.4812   18.2083 C   0  0  0  0  0  0
  -28.0158  -12.3495   18.6310 C   0  0  0  0  0  0
  -27.6539  -13.2183   19.8643 C   0  0  2  0  0  0
  -28.7135  -13.0993   20.9839 C   0  0  0  0  0  0
  -25.2619  -13.8183   20.5737 C   0  0  0  0  0  0
  -24.1859  -13.0476   20.9196 C   0  0  0  0  0  0
  -24.6397  -11.6935   20.8728 C   0  0  0  0  0  0
  -23.9042  -10.4328   21.0399 C   0  0  0  0  0  0
  -24.3600   -9.4234   21.9177 C   0  0  0  0  0  0
  -23.6296   -8.2252   22.0739 C   0  0  0  0  0  0
  -22.4281   -8.0268   21.3524 C   0  0  0  0  0  0
  -21.9913   -9.0246   20.4623 C   0  0  0  0  0  0
  -22.7217  -10.2146   20.3037 C   0  0  0  0  0  0
  -21.6852   -6.0728   22.5279 C   0  0  0  0  0  0
  -21.4022   -6.5642   23.8208 C   0  0  0  0  0  0
  -21.3673   -5.6795   24.9183 C   0  0  0  0  0  0
  -21.6050   -4.3056   24.7228 C   0  0  0  0  0  0
  -21.8811   -3.8146   23.4351 C   0  0  0  0  0  0
  -21.9211   -4.6966   22.3406 C   0  0  0  0  0  0
  -22.7884  -13.5281   21.1860 C   0  0  0  0  0  0
  -22.1672   -4.2153   21.0981 F   0  0  0  0  0  0
  -21.5648   -3.4525   25.7737 F   0  0  0  0  0  0
  -30.0226  -13.4166   20.3916 N   0  0  0  0  0  0
  -26.3035  -12.9348   20.3410 N   0  0  0  0  0  0
  -25.9347  -11.6508   20.5830 N   0  0  0  0  0  0
  -22.0525  -12.8241   22.0398 N   0  0  0  0  0  0
  -25.4409  -15.1880   20.4165 N   0  0  0  0  0  0
  -31.8323  -14.7625   20.1182 O   0  0  0  0  0  0
  -21.6641   -6.8864   21.4230 O   0  0  0  0  0  0
  -22.3553  -14.5597   20.6739 O   0  0  0  0  0  0
  -24.6296  -31.8586   23.2027 C   0  0  0  0  0  0
  -25.9129  -32.4754   23.8376 C   0  0  1  0  0  0
  -27.2422  -27.3110   20.1009 C   0  0  0  0  0  0
  -25.5981  -33.8561   24.2294 N   0  0  0  0  0  0
  -23.4242  -30.4807   21.5428 C   0  0  2  0  0  0
  -24.8736  -28.9290   20.1166 C   0  0  0  0  0  0
  -22.7457  -29.4624   22.4914 C   0  0  0  0  0  0
  -18.0302  -28.1381   22.8515 C   0  0  0  0  0  0
  -24.1476  -36.7235   23.2640 C   0  0  0  0  0  0
  -25.9703  -30.7761   21.3837 C   0  0  0  0  0  0
  -26.0414  -29.4034   20.7258 C   0  0  0  0  0  0
  -27.2281  -28.6055   20.7119 C   0  0  0  0  0  0
  -26.0469  -26.9003   19.4637 C   0  0  0  0  0  0
  -24.8747  -27.6799   19.4815 C   0  0  0  0  0  0
  -23.6407  -29.8091   20.1630 C   0  0  0  0  0  0
  -25.4103  -36.3022   24.0340 C   0  0  1  0  0  0
  -20.5914  -28.3686   23.1270 C   0  0  2  0  0  0
  -20.6783  -26.9405   22.5398 C   0  0  0  0  0  0
  -19.5745  -26.6387   21.5215 C   0  0  0  0  0  0
  -18.1925  -26.7957   22.1626 C   0  0  0  0  0  0
  -19.1560  -28.8860   23.2896 C   0  0  0  0  0  0
  -18.9487  -30.1491   23.8867 C   0  0  0  0  0  0
  -17.6473  -30.6600   24.0563 C   0  0  0  0  0  0
  -25.9069  -34.9430   23.5100 C   0  0  0  0  0  0
  -16.5364  -29.9083   23.6355 C   0  0  0  0  0  0
  -16.7280  -28.6507   23.0363 C   0  0  0  0  0  0
  -26.4521  -31.6578   25.0756 C   0  0  0  0  0  0
  -25.3768  -31.3737   26.1490 C   0  0  0  0  0  0
  -27.0385  -30.3002   24.6235 C   0  0  0  0  0  0
  -27.6091  -32.4314   25.7529 C   0  0  0  0  0  0
  -27.5581  -37.1752   24.8453 C   0  0  0  0  0  0
  -21.4183  -29.3059   22.3656 N   0  0  0  0  0  0
  -26.4237  -37.3754   23.9460 N   0  0  0  0  0  0
  -24.6921  -31.0599   22.0985 N   0  0  0  0  0  0
  -23.4160  -28.8130   23.2990 O   0  0  0  0  0  0
  -28.3700  -26.4624   20.0933 O   0  0  0  0  0  0
  -26.5558  -34.8889   22.4614 O   0  0  0  0  0  0
  -23.5458  -32.1393   23.7349 O   0  0  0  0  0  0
  -28.7933  -19.3030   19.7313 C   0  0  0  0  0  0
  -31.1732  -17.8751   20.1442 C   0  0  0  0  0  0
  -29.9968  -20.0561   19.7373 C   0  0  0  0  0  0
  -29.9558  -17.1414   20.1963 C   0  0  0  0  0  0
  -28.7768  -17.8940   19.9580 C   0  0  0  0  0  0
  -31.1888  -19.2884   19.9161 C   0  0  0  0  0  0
  -29.1745  -23.9833   19.6872 C   0  0  0  0  0  0
  -27.7704  -23.3036   22.1573 C   0  0  0  0  0  0
  -28.1843  -24.7551   21.8782 C   0  0  0  0  0  0
  -28.6187  -22.2475   21.4005 C   0  0  0  0  0  0
  -28.1751  -25.0070   20.3679 C   0  0  1  0  0  0
  -30.0554  -21.6093   19.4165 C   0  0  0  0  0  0
  -29.2050  -22.6589   20.1086 N   0  0  0  0  0  0
  -29.8035  -15.7165   20.5001 N   0  0  0  0  0  0
  -29.8874  -24.3725   18.7540 O   0  0  0  0  0  0
  -27.5921  -17.2375   19.9340 F   0  0  0  0  0  0
  -32.3917  -19.9099   19.8572 F   0  0  0  0  0  0
  -31.4697  -12.4740   19.1275 H   0  0  0  0  0  0
  -30.3442  -11.3838   19.8911 H   0  0  0  0  0  0
  -29.7378  -11.7053   17.4803 H   0  0  0  0  0  0
  -29.6480  -13.4342   17.7012 H   0  0  0  0  0  0
  -27.8338  -11.2972   18.8492 H   0  0  0  0  0  0
  -27.3570  -12.6022   17.7982 H   0  0  0  0  0  0
  -27.6624  -14.2504   19.5161 H   0  0  0  0  0  0
  -28.7244  -12.0958   21.4094 H   0  0  0  0  0  0
  -28.4841  -13.7710   21.8112 H   0  0  0  0  0  0
  -25.2745   -9.5730   22.4750 H   0  0  0  0  0  0
  -24.0037   -7.4633   22.7426 H   0  0  0  0  0  0
  -21.0868   -8.8717   19.8892 H   0  0  0  0  0  0
  -22.3652  -10.9671   19.6129 H   0  0  0  0  0  0
  -21.1971   -7.6147   23.9706 H   0  0  0  0  0  0
  -21.1521   -6.0535   25.9088 H   0  0  0  0  0  0
  -22.0576   -2.7616   23.2832 H   0  0  0  0  0  0
  -22.4200  -11.9939   22.4797 H   0  0  0  0  0  0
  -21.1104  -13.1188   22.2559 H   0  0  0  0  0  0
  -24.6832  -15.8516   20.5154 H   0  0  0  0  0  0
  -26.3170  -15.6329   20.1642 H   0  0  0  0  0  0
  -26.7196  -32.5385   23.1135 H   0  0  0  0  0  0
  -25.0327  -33.9726   25.0565 H   0  0  0  0  0  0
  -22.7236  -31.3064   21.3964 H   0  0  0  0  0  0
  -23.3766  -35.9536   23.3221 H   0  0  0  0  0  0
  -24.3622  -36.8907   22.2080 H   0  0  0  0  0  0
  -23.7174  -37.6406   23.6674 H   0  0  0  0  0  0
  -26.1191  -31.5337   20.6126 H   0  0  0  0  0  0
  -26.8513  -30.8203   22.0138 H   0  0  0  0  0  0
  -28.1208  -28.9706   21.1986 H   0  0  0  0  0  0
  -25.9974  -25.9679   18.9229 H   0  0  0  0  0  0
  -23.9827  -27.3128   18.9947 H   0  0  0  0  0  0
  -23.7555  -30.5797   19.4017 H   0  0  0  0  0  0
  -22.7651  -29.2312   19.8617 H   0  0  0  0  0  0
  -25.1273  -36.1857   25.0828 H   0  0  0  0  0  0
  -21.0065  -28.3243   24.1355 H   0  0  0  0  0  0
  -20.5689  -26.2282   23.3593 H   0  0  0  0  0  0
  -21.6646  -26.7417   22.1174 H   0  0  0  0  0  0
  -19.6856  -25.6279   21.1239 H   0  0  0  0  0  0
  -19.6686  -27.3215   20.6750 H   0  0  0  0  0  0
  -17.4214  -26.6765   21.3992 H   0  0  0  0  0  0
  -18.0290  -26.0094   22.9016 H   0  0  0  0  0  0
  -19.7951  -30.7370   24.2150 H   0  0  0  0  0  0
  -17.5006  -31.6256   24.5201 H   0  0  0  0  0  0
  -15.5359  -30.2955   23.7712 H   0  0  0  0  0  0
  -15.8681  -28.0816   22.7045 H   0  0  0  0  0  0
  -24.5979  -30.7013   25.7876 H   0  0  0  0  0  0
  -24.8936  -32.2919   26.4841 H   0  0  0  0  0  0
  -25.8160  -30.9019   27.0292 H   0  0  0  0  0  0
  -26.2973  -29.6738   24.1266 H   0  0  0  0  0  0
  -27.4089  -29.7255   25.4740 H   0  0  0  0  0  0
  -27.8831  -30.4309   23.9462 H   0  0  0  0  0  0
  -27.2708  -33.3662   26.2016 H   0  0  0  0  0  0
  -28.3960  -32.6792   25.0384 H   0  0  0  0  0  0
  -28.0668  -31.8476   26.5529 H   0  0  0  0  0  0
  -28.2487  -38.0151   24.7660 H   0  0  0  0  0  0
  -28.1160  -36.2708   24.6041 H   0  0  0  0  0  0
  -27.2341  -37.1114   25.8847 H   0  0  0  0  0  0
  -20.9330  -29.8767   21.6891 H   0  0  0  0  0  0
  -26.0081  -38.2776   24.1583 H   0  0  0  0  0  0
  -27.8563  -19.8031   19.5364 H   0  0  0  0  0  0
  -32.1148  -17.3658   20.2885 H   0  0  0  0  0  0
  -26.7230  -23.1855   21.8726 H   0  0  0  0  0  0
  -27.7966  -23.1034   23.2307 H   0  0  0  0  0  0
  -29.1720  -24.9590   22.2977 H   0  0  0  0  0  0
  -27.4856  -25.4357   22.3654 H   0  0  0  0  0  0
  -27.9886  -21.3720   21.2474 H   0  0  0  0  0  0
  -29.4416  -21.9218   22.0374 H   0  0  0  0  0  0
  -27.2082  -24.6786   19.9984 H   0  0  0  0  0  0
  -29.8738  -21.6955   18.3427 H   0  0  0  0  0  0
  -31.0917  -21.9343   19.5356 H   0  0  0  0  0  0
  -28.8445  -15.4460   20.6614 H   0  0  0  0  0  0
  1 25  1  0  0  0
  1 30  2  0  0  0
  1 84  1  0  0  0
  2  3  1  0  0  0
  2 25  1  0  0  0
  2 88  1  0  0  0
  2 89  1  0  0  0
  3  4  1  0  0  0
  3 90  1  0  0  0
  3 91  1  0  0  0
  4  5  1  0  0  0
  4 92  1  0  0  0
  4 93  1  0  0  0
  5  6  1  0  0  0
  5 26  1  0  0  0
  5 94  1  0  0  0
  6 25  1  0  0  0
  6 95  1  0  0  0
  6 96  1  0  0  0
  7  8  2  0  0  0
  7 26  1  0  0  0
  7 29  1  0  0  0
  8  9  1  0  0  0
  8 22  1  0  0  0
  9 10  1  0  0  0
  9 27  2  0  0  0
 10 11  2  0  0  0
 10 15  1  0  0  0
 11 12  1  0  0  0
 11 97  1  0  0  0
 12 13  2  0  0  0
 12 98  1  0  0  0
 13 14  1  0  0  0
 13 31  1  0  0  0
 14 15  2  0  0  0
 14 99  1  0  0  0
 15100  1  0  0  0
 16 17  2  0  0  0
 16 21  1  0  0  0
 16 31  1  0  0  0
 17 18  1  0  0  0
 17101  1  0  0  0
 18 19  2  0  0  0
 18102  1  0  0  0
 19 20  1  0  0  0
 19 24  1  0  0  0
 20 21  2  0  0  0
 20103  1  0  0  0
 21 23  1  0  0  0
 22 28  1  0  0  0
 22 32  2  0  0  0
 26 27  1  0  0  0
 28104  1  0  0  0
 28105  1  0  0  0
 29106  1  0  0  0
 29107  1  0  0  0
 33 34  1  0  0  0
 33 66  1  0  0  0
 33 70  2  0  0  0
 34 36  1  0  0  0
 34 59  1  0  0  0
 34108  1  0  0  0
 35 44  2  0  0  0
 35 45  1  0  0  0
 35 68  1  0  0  0
 36 56  1  0  0  0
 36109  1  0  0  0
 37 39  1  0  0  0
 37 47  1  0  0  0
 37 66  1  0  0  0
 37110  1  0  0  0
 38 43  2  0  0  0
 38 46  1  0  0  0
 38 47  1  0  0  0
 39 64  1  0  0  0
 39 67  2  0  0  0
 40 52  1  0  0  0
 40 53  2  0  0  0
 40 58  1  0  0  0
 41111  1  0  0  0
 41112  1  0  0  0
 41113  1  0  0  0
 41 48  1  0  0  0
 42 43  1  0  0  0
 42 66  1  0  0  0
 42114  1  0  0  0
 42115  1  0  0  0
 43 44  1  0  0  0
 44116  1  0  0  0
 45 46  2  0  0  0
 45117  1  0  0  0
 46118  1  0  0  0
 47119  1  0  0  0
 47120  1  0  0  0
 48 56  1  0  0  0
 48 65  1  0  0  0
 48121  1  0  0  0
 49 50  1  0  0  0
 49 53  1  0  0  0
 49 64  1  0  0  0
 49122  1  0  0  0
 50 51  1  0  0  0
 50123  1  0  0  0
 50124  1  0  0  0
 51 52  1  0  0  0
 51125  1  0  0  0
 51126  1  0  0  0
 52127  1  0  0  0
 52128  1  0  0  0
 53 54  1  0  0  0
 54 55  2  0  0  0
 54129  1  0  0  0
 55 57  1  0  0  0
 55130  1  0  0  0
 56 69  2  0  0  0
 57 58  2  0  0  0
 57131  1  0  0  0
 58132  1  0  0  0
 59 60  1  0  0  0
 59 61  1  0  0  0
 59 62  1  0  0  0
 60133  1  0  0  0
 60134  1  0  0  0
 60135  1  0  0  0
 61136  1  0  0  0
 61137  1  0  0  0
 61138  1  0  0  0
 62139  1  0  0  0
 62140  1  0  0  0
 62141  1  0  0  0
 63 65  1  0  0  0
 63142  1  0  0  0
 63143  1  0  0  0
 63144  1  0  0  0
 64145  1  0  0  0
 65146  1  0  0  0
 68 81  1  0  0  0
 71 73  2  0  0  0
 71 75  1  0  0  0
 71147  1  0  0  0
 72 74  1  0  0  0
 72 76  2  0  0  0
 72148  1  0  0  0
 73 76  1  0  0  0
 73 82  1  0  0  0
 74 75  2  0  0  0
 74 84  1  0  0  0
 75 86  1  0  0  0
 76 87  1  0  0  0
 77 81  1  0  0  0
 77 83  1  0  0  0
 77 85  2  0  0  0
 78 79  1  0  0  0
 78 80  1  0  0  0
 78149  1  0  0  0
 78150  1  0  0  0
 79 81  1  0  0  0
 79151  1  0  0  0
 79152  1  0  0  0
 80 83  1  0  0  0
 80153  1  0  0  0
 80154  1  0  0  0
 81155  1  0  0  0
 82 83  1  0  0  0
 82156  1  0  0  0
 82157  1  0  0  0
 84158  1  0  0  0
M  ISO  4   1 100  68 101  81 101  84 100
M  END
> <chiral flag>
0

> <version>
0

> <s_m_source_file>
/data/baiqing/PycharmProjects/Reinvent-master-3.2/result/LINK_invent/BTK/process_docking_weight1_custom_product_contain_oxygen_bond_distance_aromatic_linkinvent_7_9_3/rearranged_h_0046.sdf

> <i_m_source_file_index>
10

> <r_mmod_Potential_Energy-OPLS-2005>
107.096611022949

> <r_mmod_Stretch_Energy-OPLS-2005>
91.9918212890625

> <r_mmod_Bend_Energy-OPLS-2005>
153.135803222656

> <r_mmod_Torsional_Energy-OPLS-2005>
256.015014648438

> <r_mmod_Improper_Torsional_Energy-OPLS-2005>
7.19383811950684

> <r_mmod_Van_der_Waal_Energy-OPLS-2005>
149.025970458984

> <r_mmod_Electrostatic_Energy-OPLS-2005>
-377.496368408203

> <r_mmod_Solvation_Energy-OPLS-2005>
-225.177856445312

> <b_mmod_Minimization_Converged-OPLS-2005>
0

> <r_mmod_RMS_Derivative-OPLS-2005>
5.53822803497314

$$$$
10
                    3D
 Structure written by MMmdl.
158166  0  0  1  0            999 V2000
  -30.7198  -14.6012   20.5451 C   0  0  0  0  0  0
  -30.4121  -12.3917   19.4612 C   0  0  0  0  0  0
  -29.4998  -12.5065   18.2247 C   0  0  0  0  0  0
  -28.0248  -12.3350   18.6306 C   0  0  0  0  0  0
  -27.6414  -13.2136   19.8485 C   0  0  2  0  0  0
  -28.6851  -13.1292   20.9876 C   0  0  0  0  0  0
  -25.2533  -13.8160   20.5672 C   0  0  0  0  0  0
  -24.1807  -13.0426   20.9219 C   0  0  0  0  0  0
  -24.6384  -11.6905   20.8754 C   0  0  0  0  0  0
  -23.9052  -10.4287   21.0411 C   0  0  0  0  0  0
  -24.3618   -9.4212   21.9185 C   0  0  0  0  0  0
  -23.6304   -8.2240   22.0748 C   0  0  0  0  0  0
  -22.4277   -8.0284   21.3540 C   0  0  0  0  0  0
  -21.9913   -9.0256   20.4635 C   0  0  0  0  0  0
  -22.7231  -10.2140   20.3057 C   0  0  0  0  0  0
  -21.6848   -6.0743   22.5284 C   0  0  0  0  0  0
  -21.4005   -6.5640   23.8222 C   0  0  0  0  0  0
  -21.3658   -5.6790   24.9183 C   0  0  0  0  0  0
  -21.6055   -4.3055   24.7229 C   0  0  0  0  0  0
  -21.8815   -3.8152   23.4344 C   0  0  0  0  0  0
  -21.9197   -4.6973   22.3407 C   0  0  0  0  0  0
  -22.7828  -13.5228   21.1878 C   0  0  0  0  0  0
  -22.1662   -4.2160   21.0986 F   0  0  0  0  0  0
  -21.5633   -3.4537   25.7743 F   0  0  0  0  0  0
  -30.0031  -13.4386   20.4215 N   0  0  0  0  0  0
  -26.2926  -12.9323   20.3253 N   0  0  0  0  0  0
  -25.9309  -11.6484   20.5747 N   0  0  0  0  0  0
  -22.0470  -12.8217   22.0423 N   0  0  0  0  0  0
  -25.4196  -15.1882   20.4030 N   0  0  0  0  0  0
  -31.8669  -14.6901   20.1118 O   0  0  0  0  0  0
  -21.6637   -6.8884   21.4242 O   0  0  0  0  0  0
  -22.3510  -14.5525   20.6724 O   0  0  0  0  0  0
  -24.6233  -31.8585   23.2029 C   0  0  0  0  0  0
  -25.9088  -32.4781   23.8344 C   0  0  1  0  0  0
  -27.2234  -27.3493   20.1184 C   0  0  0  0  0  0
  -25.5925  -33.8580   24.2274 N   0  0  0  0  0  0
  -23.4177  -30.4800   21.5437 C   0  0  2  0  0  0
  -24.8692  -28.9447   20.1081 C   0  0  0  0  0  0
  -22.7470  -29.4586   22.4922 C   0  0  0  0  0  0
  -18.0293  -28.1401   22.8542 C   0  0  0  0  0  0
  -24.1494  -36.7297   23.2635 C   0  0  0  0  0  0
  -25.9567  -30.8040   21.3671 C   0  0  0  0  0  0
  -26.0369  -29.4342   20.7102 C   0  0  0  0  0  0
  -27.2231  -28.6470   20.7066 C   0  0  0  0  0  0
  -26.0437  -26.9020   19.4893 C   0  0  0  0  0  0
  -24.8741  -27.6844   19.4875 C   0  0  0  0  0  0
  -23.6341  -29.8168   20.1593 C   0  0  0  0  0  0
  -25.4121  -36.3084   24.0318 C   0  0  1  0  0  0
  -20.5891  -28.3653   23.1372 C   0  0  2  0  0  0
  -20.6747  -26.9364   22.5503 C   0  0  0  0  0  0
  -19.5719  -26.6401   21.5299 C   0  0  0  0  0  0
  -18.1910  -26.7908   22.1758 C   0  0  0  0  0  0
  -19.1541  -28.8848   23.2971 C   0  0  0  0  0  0
  -18.9460  -30.1449   23.8993 C   0  0  0  0  0  0
  -17.6453  -30.6562   24.0699 C   0  0  0  0  0  0
  -25.9042  -34.9455   23.5098 C   0  0  0  0  0  0
  -16.5352  -29.9084   23.6416 C   0  0  0  0  0  0
  -16.7268  -28.6534   23.0354 C   0  0  0  0  0  0
  -26.4489  -31.6588   25.0695 C   0  0  0  0  0  0
  -25.3731  -31.3715   26.1425 C   0  0  0  0  0  0
  -27.0319  -30.3024   24.6105 C   0  0  0  0  0  0
  -27.6052  -32.4309   25.7477 C   0  0  0  0  0  0
  -27.5580  -37.1808   24.8465 C   0  0  0  0  0  0
  -21.4173  -29.3001   22.3721 N   0  0  0  0  0  0
  -26.4299  -37.3778   23.9403 N   0  0  0  0  0  0
  -24.6849  -31.0621   22.0962 N   0  0  0  0  0  0
  -23.4220  -28.8136   23.2978 O   0  0  0  0  0  0
  -28.2940  -26.4612   20.1948 O   0  0  0  0  0  0
  -26.5600  -34.8926   22.4648 O   0  0  0  0  0  0
  -23.5405  -32.1352   23.7386 O   0  0  0  0  0  0
  -29.5795  -19.6421   18.6765 C   0  0  0  0  0  0
  -28.9043  -20.6574   19.3869 C   0  0  0  0  0  0
  -29.6839  -18.3368   19.1998 C   0  0  0  0  0  0
  -28.4126  -20.4362   20.6935 C   0  0  0  0  0  0
  -29.1635  -18.0259   20.4729 C   0  0  0  0  0  0
  -28.6152  -19.1063   21.2477 C   0  0  0  0  0  0
  -27.5161  -21.4607   21.3711 C   0  0  0  0  0  0
  -28.3546  -23.9061   20.8401 C   0  0  0  0  0  0
  -26.7295  -23.3923   22.6780 C   0  0  0  0  0  0
  -29.0121  -16.5133   20.8667 C   0  0  0  0  0  0
  -28.1259  -25.4330   21.2362 C   0  0  0  0  0  0
  -30.2092  -15.6893   21.1836 N   0  0  0  0  0  0
  -27.5817  -22.8502   21.5651 N   0  0  0  0  0  0
  -26.3986  -20.8857   21.8480 N   0  3  0  0  0  0
  -29.1552  -23.6151   19.9522 O   0  0  0  0  0  0
  -28.1570  -18.7392   22.8843 Cl  0  0  0  0  0  0
  -31.4573  -12.4794   19.1626 H   0  0  0  0  0  0
  -30.3234  -11.4070   19.9243 H   0  0  0  0  0  0
  -29.7738  -11.7543   17.4847 H   0  0  0  0  0  0
  -29.6422  -13.4772   17.7449 H   0  0  0  0  0  0
  -27.8617  -11.2819   18.8609 H   0  0  0  0  0  0
  -27.3764  -12.5681   17.7838 H   0  0  0  0  0  0
  -27.6306  -14.2274   19.4582 H   0  0  0  0  0  0
  -28.6975  -12.1325   21.4303 H   0  0  0  0  0  0
  -28.4271  -13.8181   21.7926 H   0  0  0  0  0  0
  -25.2762   -9.5706   22.4758 H   0  0  0  0  0  0
  -24.0025   -7.4626   22.7471 H   0  0  0  0  0  0
  -21.0837   -8.8769   19.8938 H   0  0  0  0  0  0
  -22.3674  -10.9687   19.6173 H   0  0  0  0  0  0
  -21.1967   -7.6143   23.9724 H   0  0  0  0  0  0
  -21.1490   -6.0520   25.9086 H   0  0  0  0  0  0
  -22.0594   -2.7615   23.2847 H   0  0  0  0  0  0
  -22.4053  -11.9886   22.4833 H   0  0  0  0  0  0
  -21.1092  -13.1255   22.2603 H   0  0  0  0  0  0
  -24.6454  -15.8366   20.5057 H   0  0  0  0  0  0
  -26.2517  -15.6203   20.0260 H   0  0  0  0  0  0
  -26.7139  -32.5484   23.1089 H   0  0  0  0  0  0
  -25.0111  -33.9714   25.0451 H   0  0  0  0  0  0
  -22.7107  -31.2981   21.3978 H   0  0  0  0  0  0
  -23.3757  -35.9628   23.3309 H   0  0  0  0  0  0
  -24.3575  -36.8915   22.2047 H   0  0  0  0  0  0
  -23.7256  -37.6507   23.6649 H   0  0  0  0  0  0
  -26.0699  -31.5693   20.5985 H   0  0  0  0  0  0
  -26.8451  -30.8638   21.9851 H   0  0  0  0  0  0
  -28.1216  -29.0082   21.1891 H   0  0  0  0  0  0
  -26.0129  -25.9247   19.0285 H   0  0  0  0  0  0
  -23.9769  -27.3063   19.0168 H   0  0  0  0  0  0
  -23.7517  -30.5945   19.4037 H   0  0  0  0  0  0
  -22.7587  -29.2408   19.8543 H   0  0  0  0  0  0
  -25.1306  -36.1928   25.0809 H   0  0  0  0  0  0
  -20.9969  -28.3207   24.1501 H   0  0  0  0  0  0
  -20.5607  -26.2254   23.3720 H   0  0  0  0  0  0
  -21.6619  -26.7408   22.1304 H   0  0  0  0  0  0
  -19.6942  -25.6329   21.1303 H   0  0  0  0  0  0
  -19.6619  -27.3230   20.6826 H   0  0  0  0  0  0
  -17.4139  -26.6546   21.4227 H   0  0  0  0  0  0
  -18.0328  -26.0172   22.9274 H   0  0  0  0  0  0
  -19.7922  -30.7249   24.2406 H   0  0  0  0  0  0
  -17.4991  -31.6158   24.5466 H   0  0  0  0  0  0
  -15.5338  -30.2920   23.7831 H   0  0  0  0  0  0
  -15.8674  -28.0876   22.7028 H   0  0  0  0  0  0
  -24.5903  -30.7067   25.7755 H   0  0  0  0  0  0
  -24.8918  -32.2881   26.4848 H   0  0  0  0  0  0
  -25.8055  -30.8891   27.0199 H   0  0  0  0  0  0
  -26.2870  -29.6787   24.1143 H   0  0  0  0  0  0
  -27.4068  -29.7256   25.4573 H   0  0  0  0  0  0
  -27.8715  -30.4343   23.9273 H   0  0  0  0  0  0
  -27.2667  -33.3607   26.2068 H   0  0  0  0  0  0
  -28.3873  -32.6879   25.0316 H   0  0  0  0  0  0
  -28.0709  -31.8419   26.5397 H   0  0  0  0  0  0
  -28.2600  -38.0102   24.7508 H   0  0  0  0  0  0
  -28.1072  -36.2633   24.6299 H   0  0  0  0  0  0
  -27.2284  -37.1468   25.8864 H   0  0  0  0  0  0
  -20.9352  -29.8587   21.6818 H   0  0  0  0  0  0
  -26.0178  -38.2847   24.1420 H   0  0  0  0  0  0
  -29.9437  -19.8495   17.6790 H   0  0  0  0  0  0
  -28.7209  -21.5860   18.8733 H   0  0  0  0  0  0
  -30.1071  -17.5523   18.5878 H   0  0  0  0  0  0
  -25.7823  -23.7726   22.2948 H   0  0  0  0  0  0
  -27.2230  -24.1741   23.2542 H   0  0  0  0  0  0
  -26.4944  -22.6701   23.4604 H   0  0  0  0  0  0
  -28.5101  -16.0609   20.0164 H   0  0  0  0  0  0
  -28.3066  -16.4006   21.6883 H   0  0  0  0  0  0
  -28.8386  -25.6573   22.0311 H   0  0  0  0  0  0
  -27.1401  -25.5803   21.6697 H   0  0  0  0  0  0
  -30.9580  -16.2759   21.5202 H   0  0  0  0  0  0
  -25.6332  -21.4180   22.2201 H   0  0  0  0  0  0
  -26.3391  -19.8779   21.8829 H   0  0  0  0  0  0
  1 25  1  0  0  0
  1 30  2  0  0  0
  1 82  1  0  0  0
  2  3  1  0  0  0
  2 25  1  0  0  0
  2 87  1  0  0  0
  2 88  1  0  0  0
  3  4  1  0  0  0
  3 89  1  0  0  0
  3 90  1  0  0  0
  4  5  1  0  0  0
  4 91  1  0  0  0
  4 92  1  0  0  0
  5  6  1  0  0  0
  5 26  1  0  0  0
  5 93  1  0  0  0
  6 25  1  0  0  0
  6 94  1  0  0  0
  6 95  1  0  0  0
  7  8  2  0  0  0
  7 26  1  0  0  0
  7 29  1  0  0  0
  8  9  1  0  0  0
  8 22  1  0  0  0
  9 10  1  0  0  0
  9 27  2  0  0  0
 10 11  2  0  0  0
 10 15  1  0  0  0
 11 12  1  0  0  0
 11 96  1  0  0  0
 12 13  2  0  0  0
 12 97  1  0  0  0
 13 14  1  0  0  0
 13 31  1  0  0  0
 14 15  2  0  0  0
 14 98  1  0  0  0
 15 99  1  0  0  0
 16 17  2  0  0  0
 16 21  1  0  0  0
 16 31  1  0  0  0
 17 18  1  0  0  0
 17100  1  0  0  0
 18 19  2  0  0  0
 18101  1  0  0  0
 19 20  1  0  0  0
 19 24  1  0  0  0
 20 21  2  0  0  0
 20102  1  0  0  0
 21 23  1  0  0  0
 22 28  1  0  0  0
 22 32  2  0  0  0
 26 27  1  0  0  0
 28103  1  0  0  0
 28104  1  0  0  0
 29105  1  0  0  0
 29106  1  0  0  0
 33 34  1  0  0  0
 33 66  1  0  0  0
 33 70  2  0  0  0
 34 36  1  0  0  0
 34 59  1  0  0  0
 34107  1  0  0  0
 35 44  2  0  0  0
 35 45  1  0  0  0
 35 68  1  0  0  0
 36 56  1  0  0  0
 36108  1  0  0  0
 37 39  1  0  0  0
 37 47  1  0  0  0
 37 66  1  0  0  0
 37109  1  0  0  0
 38 43  2  0  0  0
 38 46  1  0  0  0
 38 47  1  0  0  0
 39 64  1  0  0  0
 39 67  2  0  0  0
 40 52  1  0  0  0
 40 53  2  0  0  0
 40 58  1  0  0  0
 41110  1  0  0  0
 41111  1  0  0  0
 41112  1  0  0  0
 41 48  1  0  0  0
 42 43  1  0  0  0
 42 66  1  0  0  0
 42113  1  0  0  0
 42114  1  0  0  0
 43 44  1  0  0  0
 44115  1  0  0  0
 45 46  2  0  0  0
 45116  1  0  0  0
 46117  1  0  0  0
 47118  1  0  0  0
 47119  1  0  0  0
 48 56  1  0  0  0
 48 65  1  0  0  0
 48120  1  0  0  0
 49 50  1  0  0  0
 49 53  1  0  0  0
 49 64  1  0  0  0
 49121  1  0  0  0
 50 51  1  0  0  0
 50122  1  0  0  0
 50123  1  0  0  0
 51 52  1  0  0  0
 51124  1  0  0  0
 51125  1  0  0  0
 52126  1  0  0  0
 52127  1  0  0  0
 53 54  1  0  0  0
 54 55  2  0  0  0
 54128  1  0  0  0
 55 57  1  0  0  0
 55129  1  0  0  0
 56 69  2  0  0  0
 57 58  2  0  0  0
 57130  1  0  0  0
 58131  1  0  0  0
 59 60  1  0  0  0
 59 61  1  0  0  0
 59 62  1  0  0  0
 60132  1  0  0  0
 60133  1  0  0  0
 60134  1  0  0  0
 61135  1  0  0  0
 61136  1  0  0  0
 61137  1  0  0  0
 62138  1  0  0  0
 62139  1  0  0  0
 62140  1  0  0  0
 63 65  1  0  0  0
 63141  1  0  0  0
 63142  1  0  0  0
 63143  1  0  0  0
 64144  1  0  0  0
 65145  1  0  0  0
 68 81  1  0  0  0
 71 72  2  0  0  0
 71 73  1  0  0  0
 71146  1  0  0  0
 72 74  1  0  0  0
 72147  1  0  0  0
 73 75  2  0  0  0
 73148  1  0  0  0
 74 76  2  0  0  0
 74 77  1  0  0  0
 75 76  1  0  0  0
 75 80  1  0  0  0
 76 86  1  0  0  0
 77 83  1  0  0  0
 77 84  2  0  0  0
 78 81  1  0  0  0
 78 83  1  0  0  0
 78 85  2  0  0  0
 79 83  1  0  0  0
 79149  1  0  0  0
 79150  1  0  0  0
 79151  1  0  0  0
 80 82  1  0  0  0
 80152  1  0  0  0
 80153  1  0  0  0
 81154  1  0  0  0
 81155  1  0  0  0
 82156  1  0  0  0
 84157  1  0  0  0
 84158  1  0  0  0
M  CHG  1  84   1
M  ISO  4   1 100  68 101  81 101  82 100
M  END
> <chiral flag>
0

> <version>
0

> <s_m_source_file>
/data/baiqing/PycharmProjects/Reinvent-master-3.2/result/LINK_invent/BTK/process_docking_weight1_custom_product_contain_oxygen_bond_distance_aromatic_linkinvent_7_9_3/rearranged_h_0046.sdf

> <i_m_source_file_index>
11

> <r_mmod_Potential_Energy-OPLS-2005>
51.0232734680176

> <r_mmod_Stretch_Energy-OPLS-2005>
90.3610610961914

> <r_mmod_Bend_Energy-OPLS-2005>
187.183059692383

> <r_mmod_Torsional_Energy-OPLS-2005>
330.580383300781

> <r_mmod_Improper_Torsional_Energy-OPLS-2005>
7.63951063156128

> <r_mmod_Van_der_Waal_Energy-OPLS-2005>
179.815460205078

> <r_mmod_Electrostatic_Energy-OPLS-2005>
-359.084869384766

> <r_mmod_Solvation_Energy-OPLS-2005>
-430.814331054688

> <b_mmod_Minimization_Converged-OPLS-2005>
0

> <r_mmod_RMS_Derivative-OPLS-2005>
3.98102164268494

$$$$
11
                    3D
 Structure written by MMmdl.
168177  0  0  1  0            999 V2000
  -30.6161  -14.7578   20.4266 C   0  0  0  0  0  0
  -30.4251  -12.4549   19.4853 C   0  0  0  0  0  0
  -29.5105  -12.5041   18.2419 C   0  0  0  0  0  0
  -28.0365  -12.3297   18.6532 C   0  0  0  0  0  0
  -27.6390  -13.2367   19.8488 C   0  0  2  0  0  0
  -28.6818  -13.1898   20.9869 C   0  0  0  0  0  0
  -25.2497  -13.8210   20.5702 C   0  0  0  0  0  0
  -24.1795  -13.0444   20.9215 C   0  0  0  0  0  0
  -24.6394  -11.6924   20.8751 C   0  0  0  0  0  0
  -23.9076  -10.4297   21.0410 C   0  0  0  0  0  0
  -24.3627   -9.4210   21.9185 C   0  0  0  0  0  0
  -23.6300   -8.2245   22.0755 C   0  0  0  0  0  0
  -22.4279   -8.0284   21.3547 C   0  0  0  0  0  0
  -21.9917   -9.0258   20.4647 C   0  0  0  0  0  0
  -22.7248  -10.2137   20.3057 C   0  0  0  0  0  0
  -21.6855   -6.0738   22.5279 C   0  0  0  0  0  0
  -21.4016   -6.5641   23.8213 C   0  0  0  0  0  0
  -21.3661   -5.6793   24.9176 C   0  0  0  0  0  0
  -21.6043   -4.3056   24.7225 C   0  0  0  0  0  0
  -21.8819   -3.8148   23.4346 C   0  0  0  0  0  0
  -21.9193   -4.6965   22.3403 C   0  0  0  0  0  0
  -22.7814  -13.5220   21.1874 C   0  0  0  0  0  0
  -22.1663   -4.2152   21.0981 F   0  0  0  0  0  0
  -21.5628   -3.4541   25.7738 F   0  0  0  0  0  0
  -29.9830  -13.5329   20.4030 N   0  0  0  0  0  0
  -26.2924  -12.9427   20.3279 N   0  0  0  0  0  0
  -25.9325  -11.6564   20.5756 N   0  0  0  0  0  0
  -22.0465  -12.8205   22.0427 N   0  0  0  0  0  0
  -25.4177  -15.1937   20.4126 N   0  0  0  0  0  0
  -31.8172  -14.8064   20.1469 O   0  0  0  0  0  0
  -21.6642   -6.8883   21.4243 O   0  0  0  0  0  0
  -22.3496  -14.5526   20.6724 O   0  0  0  0  0  0
  -24.6323  -31.8546   23.1984 C   0  0  0  0  0  0
  -25.9144  -32.4751   23.8333 C   0  0  1  0  0  0
  -27.2149  -27.2514   20.1309 C   0  0  0  0  0  0
  -25.5937  -33.8554   24.2254 N   0  0  0  0  0  0
  -23.4291  -30.4777   21.5426 C   0  0  2  0  0  0
  -24.8753  -28.9237   20.1123 C   0  0  0  0  0  0
  -22.7507  -29.4597   22.4914 C   0  0  0  0  0  0
  -18.0293  -28.1387   22.8482 C   0  0  0  0  0  0
  -24.1490  -36.7280   23.2640 C   0  0  0  0  0  0
  -25.9765  -30.7645   21.3801 C   0  0  0  0  0  0
  -26.0486  -29.3864   20.7217 C   0  0  0  0  0  0
  -27.2226  -28.5642   20.7168 C   0  0  0  0  0  0
  -26.0199  -26.8639   19.4848 C   0  0  0  0  0  0
  -24.8671  -27.6712   19.4823 C   0  0  0  0  0  0
  -23.6477  -29.8122   20.1590 C   0  0  0  0  0  0
  -25.4117  -36.3066   24.0326 C   0  0  1  0  0  0
  -20.5898  -28.3698   23.1268 C   0  0  2  0  0  0
  -20.6781  -26.9416   22.5407 C   0  0  0  0  0  0
  -19.5757  -26.6382   21.5211 C   0  0  0  0  0  0
  -18.1936  -26.7929   22.1622 C   0  0  0  0  0  0
  -19.1547  -28.8860   23.2868 C   0  0  0  0  0  0
  -18.9466  -30.1460   23.8889 C   0  0  0  0  0  0
  -17.6465  -30.6588   24.0562 C   0  0  0  0  0  0
  -25.9059  -34.9437   23.5093 C   0  0  0  0  0  0
  -16.5357  -29.9084   23.6333 C   0  0  0  0  0  0
  -16.7279  -28.6502   23.0354 C   0  0  0  0  0  0
  -26.4505  -31.6578   25.0727 C   0  0  0  0  0  0
  -25.3720  -31.3738   26.1442 C   0  0  0  0  0  0
  -27.0348  -30.2987   24.6224 C   0  0  0  0  0  0
  -27.6059  -32.4319   25.7498 C   0  0  0  0  0  0
  -27.5580  -37.1795   24.8464 C   0  0  0  0  0  0
  -21.4213  -29.3044   22.3658 N   0  0  0  0  0  0
  -26.4290  -37.3767   23.9408 N   0  0  0  0  0  0
  -24.6986  -31.0504   22.0965 N   0  0  0  0  0  0
  -23.4203  -28.8135   23.3014 O   0  0  0  0  0  0
  -28.3074  -26.3491   20.1739 O   0  0  0  0  0  0
  -26.5632  -34.8915   22.4663 O   0  0  0  0  0  0
  -23.5471  -32.1374   23.7273 O   0  0  0  0  0  0
  -29.3902  -18.5317   20.4255 C   0  0  0  0  0  0
  -31.0170  -17.4651   18.9826 C   0  0  0  0  0  0
  -29.5622  -19.8352   19.7706 C   0  0  0  0  0  0
  -30.4641  -19.8474   18.6644 C   0  0  0  0  0  0
  -30.0961  -17.3067   20.0406 C   0  0  0  0  0  0
  -31.1984  -18.6874   18.3155 C   0  0  0  0  0  0
  -29.2660  -23.8668   20.0907 C   0  0  0  0  0  0
  -32.7252  -24.0894   18.7787 C   0  0  0  0  0  0
  -30.4024  -24.3164   19.5194 C   0  0  0  0  0  0
  -31.6544  -23.5891   19.4138 C   0  0  0  0  0  0
  -27.4766  -23.2516   22.3160 C   0  0  0  0  0  0
  -27.6008  -24.7156   21.8619 C   0  0  0  0  0  0
  -28.8126  -22.4992   22.1672 C   0  0  0  0  0  0
  -28.0666  -24.8679   20.3986 C   0  0  1  0  0  0
  -30.6213  -21.0519   17.7400 C   0  0  0  0  0  0
  -28.6731  -21.1506   20.0623 C   0  0  0  0  0  0
  -29.8650  -15.9267   20.5838 N   0  0  0  0  0  0
  -29.2365  -22.4202   20.7490 N   0  3  1  0  0  0
  -32.3135  -18.7121   16.9918 Cl  0  0  0  0  0  0
  -31.4690  -12.5627   19.1857 H   0  0  0  0  0  0
  -30.3567  -11.4836   19.9777 H   0  0  0  0  0  0
  -29.7946  -11.7271   17.5312 H   0  0  0  0  0  0
  -29.6394  -13.4560   17.7239 H   0  0  0  0  0  0
  -27.8950  -11.2822   18.9217 H   0  0  0  0  0  0
  -27.3812  -12.5152   17.8015 H   0  0  0  0  0  0
  -27.6278  -14.2553   19.4603 H   0  0  0  0  0  0
  -28.7155  -12.1999   21.4442 H   0  0  0  0  0  0
  -28.4165  -13.8867   21.7833 H   0  0  0  0  0  0
  -25.2773   -9.5686   22.4758 H   0  0  0  0  0  0
  -24.0009   -7.4634   22.7475 H   0  0  0  0  0  0
  -21.0849   -8.8781   19.8950 H   0  0  0  0  0  0
  -22.3708  -10.9679   19.6166 H   0  0  0  0  0  0
  -21.2007   -7.6150   23.9719 H   0  0  0  0  0  0
  -21.1483   -6.0525   25.9081 H   0  0  0  0  0  0
  -22.0596   -2.7610   23.2848 H   0  0  0  0  0  0
  -22.4092  -11.9867   22.4805 H   0  0  0  0  0  0
  -21.1082  -13.1223   22.2637 H   0  0  0  0  0  0
  -24.6473  -15.8447   20.5194 H   0  0  0  0  0  0
  -26.2607  -15.6335   20.0665 H   0  0  0  0  0  0
  -26.7209  -32.5395   23.1072 H   0  0  0  0  0  0
  -25.0080  -33.9693   25.0396 H   0  0  0  0  0  0
  -22.7255  -31.3000   21.3963 H   0  0  0  0  0  0
  -23.3758  -35.9607   23.3297 H   0  0  0  0  0  0
  -24.3577  -36.8911   22.2055 H   0  0  0  0  0  0
  -23.7240  -37.6477   23.6670 H   0  0  0  0  0  0
  -26.1173  -31.5246   20.6106 H   0  0  0  0  0  0
  -26.8532  -30.8122   22.0145 H   0  0  0  0  0  0
  -28.1214  -28.9131   21.2060 H   0  0  0  0  0  0
  -25.9468  -25.9182   18.9717 H   0  0  0  0  0  0
  -23.9710  -27.3154   18.9925 H   0  0  0  0  0  0
  -23.7746  -30.5884   19.4035 H   0  0  0  0  0  0
  -22.7652  -29.2474   19.8531 H   0  0  0  0  0  0
  -25.1300  -36.1912   25.0819 H   0  0  0  0  0  0
  -20.9987  -28.3277   24.1390 H   0  0  0  0  0  0
  -20.5680  -26.2310   23.3613 H   0  0  0  0  0  0
  -21.6648  -26.7437   22.1204 H   0  0  0  0  0  0
  -19.6919  -25.6291   21.1247 H   0  0  0  0  0  0
  -19.6696  -27.3188   20.6739 H   0  0  0  0  0  0
  -17.4205  -26.6679   21.4024 H   0  0  0  0  0  0
  -18.0334  -26.0070   22.9019 H   0  0  0  0  0  0
  -19.7942  -30.7279   24.2255 H   0  0  0  0  0  0
  -17.5019  -31.6267   24.5164 H   0  0  0  0  0  0
  -15.5358  -30.2984   23.7660 H   0  0  0  0  0  0
  -15.8679  -28.0818   22.7075 H   0  0  0  0  0  0
  -24.5908  -30.7070   25.7772 H   0  0  0  0  0  0
  -24.8894  -32.2909   26.4829 H   0  0  0  0  0  0
  -25.8029  -30.8946   27.0241 H   0  0  0  0  0  0
  -26.2933  -29.6734   24.1234 H   0  0  0  0  0  0
  -27.4002  -29.7252   25.4754 H   0  0  0  0  0  0
  -27.8827  -30.4250   23.9488 H   0  0  0  0  0  0
  -27.2672  -33.3633   26.2048 H   0  0  0  0  0  0
  -28.3881  -32.6855   25.0330 H   0  0  0  0  0  0
  -28.0712  -31.8459   26.5434 H   0  0  0  0  0  0
  -28.2593  -38.0097   24.7512 H   0  0  0  0  0  0
  -28.1083  -36.2626   24.6287 H   0  0  0  0  0  0
  -27.2299  -37.1439   25.8869 H   0  0  0  0  0  0
  -20.9401  -29.8769   21.6863 H   0  0  0  0  0  0
  -26.0170  -38.2841   24.1412 H   0  0  0  0  0  0
  -28.6563  -18.4607   21.2164 H   0  0  0  0  0  0
  -31.5797  -16.6277   18.6024 H   0  0  0  0  0  0
  -33.6476  -23.5285   18.7176 H   0  0  0  0  0  0
  -32.7043  -25.0628   18.3086 H   0  0  0  0  0  0
  -30.3997  -25.3410   19.1717 H   0  0  0  0  0  0
  -31.7602  -22.6108   19.8599 H   0  0  0  0  0  0
  -26.6878  -22.7488   21.7552 H   0  0  0  0  0  0
  -27.1666  -23.2279   23.3615 H   0  0  0  0  0  0
  -28.3090  -25.2295   22.5133 H   0  0  0  0  0  0
  -26.6448  -25.2212   22.0019 H   0  0  0  0  0  0
  -28.7515  -21.5035   22.6092 H   0  0  0  0  0  0
  -29.5871  -23.0230   22.7293 H   0  0  0  0  0  0
  -27.2718  -24.5143   19.7458 H   0  0  0  0  0  0
  -30.0164  -21.9157   17.9923 H   0  0  0  0  0  0
  -30.3390  -20.7709   16.7247 H   0  0  0  0  0  0
  -31.6626  -21.3723   17.7084 H   0  0  0  0  0  0
  -27.8078  -20.8085   20.6309 H   0  0  0  0  0  0
  -28.2181  -21.4650   19.1237 H   0  0  0  0  0  0
  -28.9511  -15.7736   20.9831 H   0  0  0  0  0  0
  -30.2063  -22.1603   20.8375 H   0  0  0  0  0  0
  1 25  1  0  0  0
  1 30  2  0  0  0
  1 87  1  0  0  0
  2  3  1  0  0  0
  2 25  1  0  0  0
  2 90  1  0  0  0
  2 91  1  0  0  0
  3  4  1  0  0  0
  3 92  1  0  0  0
  3 93  1  0  0  0
  4  5  1  0  0  0
  4 94  1  0  0  0
  4 95  1  0  0  0
  5  6  1  0  0  0
  5 26  1  0  0  0
  5 96  1  0  0  0
  6 25  1  0  0  0
  6 97  1  0  0  0
  6 98  1  0  0  0
  7  8  2  0  0  0
  7 26  1  0  0  0
  7 29  1  0  0  0
  8  9  1  0  0  0
  8 22  1  0  0  0
  9 10  1  0  0  0
  9 27  2  0  0  0
 10 11  2  0  0  0
 10 15  1  0  0  0
 11 12  1  0  0  0
 11 99  1  0  0  0
 12 13  2  0  0  0
 12100  1  0  0  0
 13 14  1  0  0  0
 13 31  1  0  0  0
 14 15  2  0  0  0
 14101  1  0  0  0
 15102  1  0  0  0
 16 17  2  0  0  0
 16 21  1  0  0  0
 16 31  1  0  0  0
 17 18  1  0  0  0
 17103  1  0  0  0
 18 19  2  0  0  0
 18104  1  0  0  0
 19 20  1  0  0  0
 19 24  1  0  0  0
 20 21  2  0  0  0
 20105  1  0  0  0
 21 23  1  0  0  0
 22 28  1  0  0  0
 22 32  2  0  0  0
 26 27  1  0  0  0
 28106  1  0  0  0
 28107  1  0  0  0
 29108  1  0  0  0
 29109  1  0  0  0
 33 34  1  0  0  0
 33 66  1  0  0  0
 33 70  2  0  0  0
 34 36  1  0  0  0
 34 59  1  0  0  0
 34110  1  0  0  0
 35 44  2  0  0  0
 35 45  1  0  0  0
 35 68  1  0  0  0
 36 56  1  0  0  0
 36111  1  0  0  0
 37 39  1  0  0  0
 37 47  1  0  0  0
 37 66  1  0  0  0
 37112  1  0  0  0
 38 43  2  0  0  0
 38 46  1  0  0  0
 38 47  1  0  0  0
 39 64  1  0  0  0
 39 67  2  0  0  0
 40 52  1  0  0  0
 40 53  2  0  0  0
 40 58  1  0  0  0
 41113  1  0  0  0
 41114  1  0  0  0
 41115  1  0  0  0
 41 48  1  0  0  0
 42 43  1  0  0  0
 42 66  1  0  0  0
 42116  1  0  0  0
 42117  1  0  0  0
 43 44  1  0  0  0
 44118  1  0  0  0
 45 46  2  0  0  0
 45119  1  0  0  0
 46120  1  0  0  0
 47121  1  0  0  0
 47122  1  0  0  0
 48 56  1  0  0  0
 48 65  1  0  0  0
 48123  1  0  0  0
 49 50  1  0  0  0
 49 53  1  0  0  0
 49 64  1  0  0  0
 49124  1  0  0  0
 50 51  1  0  0  0
 50125  1  0  0  0
 50126  1  0  0  0
 51 52  1  0  0  0
 51127  1  0  0  0
 51128  1  0  0  0
 52129  1  0  0  0
 52130  1  0  0  0
 53 54  1  0  0  0
 54 55  2  0  0  0
 54131  1  0  0  0
 55 57  1  0  0  0
 55132  1  0  0  0
 56 69  2  0  0  0
 57 58  2  0  0  0
 57133  1  0  0  0
 58134  1  0  0  0
 59 60  1  0  0  0
 59 61  1  0  0  0
 59 62  1  0  0  0
 60135  1  0  0  0
 60136  1  0  0  0
 60137  1  0  0  0
 61138  1  0  0  0
 61139  1  0  0  0
 61140  1  0  0  0
 62141  1  0  0  0
 62142  1  0  0  0
 62143  1  0  0  0
 63 65  1  0  0  0
 63144  1  0  0  0
 63145  1  0  0  0
 63146  1  0  0  0
 64147  1  0  0  0
 65148  1  0  0  0
 68 84  1  0  0  0
 71 73  2  0  0  0
 71 75  1  0  0  0
 71149  1  0  0  0
 72 75  2  0  0  0
 72 76  1  0  0  0
 72150  1  0  0  0
 73 74  1  0  0  0
 73 86  1  0  0  0
 74 76  2  0  0  0
 74 85  1  0  0  0
 75 87  1  0  0  0
 76 89  1  0  0  0
 77 79  2  0  0  0
 77 84  1  0  0  0
 77 88  1  0  0  0
 78 80  2  0  0  0
 78151  1  0  0  0
 78152  1  0  0  0
 79 80  1  0  0  0
 79153  1  0  0  0
 80154  1  0  0  0
 81 82  1  0  0  0
 81 83  1  0  0  0
 81155  1  0  0  0
 81156  1  0  0  0
 82 84  1  0  0  0
 82157  1  0  0  0
 82158  1  0  0  0
 83 88  1  0  0  0
 83159  1  0  0  0
 83160  1  0  0  0
 84161  1  0  0  0
 85162  1  0  0  0
 85163  1  0  0  0
 85164  1  0  0  0
 86165  1  0  0  0
 86166  1  0  0  0
 86 88  1  0  0  0
 87167  1  0  0  0
 88168  1  0  0  0
M  CHG  1  88   1
M  ISO  4   1 100  68 101  84 101  87 100
M  END
> <chiral flag>
0

> <version>
0

> <s_m_source_file>
/data/baiqing/PycharmProjects/Reinvent-master-3.2/result/LINK_invent/BTK/process_docking_weight1_custom_product_contain_oxygen_bond_distance_aromatic_linkinvent_7_9_3/rearranged_h_0046.sdf

> <i_m_source_file_index>
12

> <r_mmod_Potential_Energy-OPLS-2005>
127.646728515625

> <r_mmod_Stretch_Energy-OPLS-2005>
152.019134521484

> <r_mmod_Bend_Energy-OPLS-2005>
187.669921875

> <r_mmod_Torsional_Energy-OPLS-2005>
247.480911254883

> <r_mmod_Improper_Torsional_Energy-OPLS-2005>
6.30358123779297

> <r_mmod_Van_der_Waal_Energy-OPLS-2005>
147.443618774414

> <r_mmod_Electrostatic_Energy-OPLS-2005>
-259.346893310547

> <r_mmod_Solvation_Energy-OPLS-2005>
-445.710327148438

> <b_mmod_Minimization_Converged-OPLS-2005>
0

> <r_mmod_RMS_Derivative-OPLS-2005>
0.582436382770538

$$$$
12
                    3D
 Structure written by MMmdl.
167176  0  0  1  0            999 V2000
  -30.6850  -14.5115   20.5329 C   0  0  0  0  0  0
  -30.4229  -12.3160   19.4405 C   0  0  0  0  0  0
  -29.4999  -12.4799   18.2152 C   0  0  0  0  0  0
  -28.0196  -12.3461   18.6235 C   0  0  0  0  0  0
  -27.6555  -13.2081   19.8626 C   0  0  2  0  0  0
  -28.6941  -13.0311   20.9915 C   0  0  0  0  0  0
  -25.2599  -13.8188   20.5707 C   0  0  0  0  0  0
  -24.1848  -13.0470   20.9199 C   0  0  0  0  0  0
  -24.6381  -11.6931   20.8730 C   0  0  0  0  0  0
  -23.9051  -10.4314   21.0405 C   0  0  0  0  0  0
  -24.3611   -9.4226   21.9178 C   0  0  0  0  0  0
  -23.6288   -8.2263   22.0750 C   0  0  0  0  0  0
  -22.4267   -8.0294   21.3551 C   0  0  0  0  0  0
  -21.9899   -9.0265   20.4659 C   0  0  0  0  0  0
  -22.7226  -10.2148   20.3056 C   0  0  0  0  0  0
  -21.6855   -6.0745   22.5282 C   0  0  0  0  0  0
  -21.4018   -6.5638   23.8220 C   0  0  0  0  0  0
  -21.3665   -5.6782   24.9178 C   0  0  0  0  0  0
  -21.6050   -4.3049   24.7222 C   0  0  0  0  0  0
  -21.8824   -3.8152   23.4335 C   0  0  0  0  0  0
  -21.9203   -4.6975   22.3399 C   0  0  0  0  0  0
  -22.7875  -13.5260   21.1856 C   0  0  0  0  0  0
  -22.1668   -4.2164   21.0978 F   0  0  0  0  0  0
  -21.5632   -3.4524   25.7730 F   0  0  0  0  0  0
  -30.0206  -13.3287   20.4310 N   0  0  0  0  0  0
  -26.2997  -12.9343   20.3301 N   0  0  0  0  0  0
  -25.9296  -11.6503   20.5716 N   0  0  0  0  0  0
  -22.0511  -12.8252   22.0412 N   0  0  0  0  0  0
  -25.4375  -15.1909   20.4176 N   0  0  0  0  0  0
  -31.8417  -14.6571   20.1289 O   0  0  0  0  0  0
  -21.6645   -6.8882   21.4236 O   0  0  0  0  0  0
  -22.3549  -14.5561   20.6704 O   0  0  0  0  0  0
  -24.6179  -31.8660   23.2095 C   0  0  0  0  0  0
  -25.9054  -32.4824   23.8393 C   0  0  1  0  0  0
  -27.2233  -27.4043   20.1016 C   0  0  0  0  0  0
  -25.5908  -33.8621   24.2337 N   0  0  0  0  0  0
  -23.4083  -30.4891   21.5512 C   0  0  2  0  0  0
  -24.8549  -28.9554   20.1110 C   0  0  0  0  0  0
  -22.7431  -29.4639   22.4980 C   0  0  0  0  0  0
  -18.0270  -28.1377   22.8498 C   0  0  0  0  0  0
  -24.1487  -36.7296   23.2644 C   0  0  0  0  0  0
  -25.9396  -30.8242   21.3650 C   0  0  0  0  0  0
  -26.0178  -29.4575   20.7096 C   0  0  0  0  0  0
  -27.2104  -28.6897   20.6999 C   0  0  0  0  0  0
  -26.0485  -26.9296   19.4847 C   0  0  0  0  0  0
  -24.8664  -27.6941   19.4917 C   0  0  0  0  0  0
  -23.6179  -29.8252   20.1650 C   0  0  0  0  0  0
  -25.4111  -36.3116   24.0353 C   0  0  1  0  0  0
  -20.5864  -28.3663   23.1324 C   0  0  2  0  0  0
  -20.6774  -26.9399   22.5428 C   0  0  0  0  0  0
  -19.5754  -26.6387   21.5223 C   0  0  0  0  0  0
  -18.1924  -26.7932   22.1616 C   0  0  0  0  0  0
  -19.1523  -28.8837   23.2908 C   0  0  0  0  0  0
  -18.9449  -30.1441   23.8919 C   0  0  0  0  0  0
  -17.6455  -30.6590   24.0567 C   0  0  0  0  0  0
  -25.9036  -34.9480   23.5141 C   0  0  0  0  0  0
  -16.5343  -29.9091   23.6331 C   0  0  0  0  0  0
  -16.7259  -28.6502   23.0359 C   0  0  0  0  0  0
  -26.4492  -31.6599   25.0709 C   0  0  0  0  0  0
  -25.3771  -31.3681   26.1464 C   0  0  0  0  0  0
  -27.0340  -30.3063   24.6053 C   0  0  0  0  0  0
  -27.6078  -32.4321   25.7447 C   0  0  0  0  0  0
  -27.5586  -37.1799   24.8472 C   0  0  0  0  0  0
  -21.4153  -29.3028   22.3733 N   0  0  0  0  0  0
  -26.4300  -37.3804   23.9420 N   0  0  0  0  0  0
  -24.6743  -31.0735   22.1014 N   0  0  0  0  0  0
  -23.4197  -28.8175   23.3028 O   0  0  0  0  0  0
  -28.3370  -26.5837   20.1389 O   0  0  0  0  0  0
  -26.5591  -34.8934   22.4694 O   0  0  0  0  0  0
  -23.5364  -32.1413   23.7471 O   0  0  0  0  0  0
  -27.1751  -19.0075   21.3181 C   0  0  0  0  0  0
  -28.0962  -17.9399   21.3731 C   0  0  0  0  0  0
  -27.5430  -20.2550   20.7690 C   0  0  0  0  0  0
  -29.7683  -19.3763   20.3382 C   0  0  0  0  0  0
  -29.4053  -18.1081   20.8722 C   0  0  0  0  0  0
  -28.8495  -20.4612   20.2750 C   0  0  0  0  0  0
  -29.8222  -22.7850   21.8279 C   0  0  0  0  0  0
  -31.0676  -22.3395   22.0689 C   0  0  0  0  0  0
  -28.7718  -23.0670   22.8870 C   0  0  0  0  0  0
  -28.7575  -24.5461   23.3123 C   0  0  0  0  0  0
  -29.0854  -25.5411   22.1823 C   0  0  0  0  0  0
  -28.2029  -24.0142   20.1913 C   0  0  0  0  0  0
  -28.1701  -25.3929   20.9599 C   0  0  2  0  0  0
  -30.4457  -16.9731   20.9280 C   0  0  0  0  0  0
  -29.2363  -21.7964   19.5883 C   0  0  0  0  0  0
  -29.9533  -15.5784   20.9295 N   0  0  0  0  0  0
  -29.3382  -23.0401   20.4278 N   0  3  2  0  0  0
  -31.4674  -12.4127   19.1397 H   0  0  0  0  0  0
  -30.3281  -11.3145   19.8643 H   0  0  0  0  0  0
  -29.7432  -11.7301   17.4615 H   0  0  0  0  0  0
  -29.6707  -13.4515   17.7480 H   0  0  0  0  0  0
  -27.8277  -11.2931   18.8343 H   0  0  0  0  0  0
  -27.3758  -12.6059   17.7825 H   0  0  0  0  0  0
  -27.6880  -14.2488   19.5382 H   0  0  0  0  0  0
  -28.6768  -12.0099   21.3751 H   0  0  0  0  0  0
  -28.4553  -13.6711   21.8426 H   0  0  0  0  0  0
  -25.2769   -9.5704   22.4735 H   0  0  0  0  0  0
  -24.0031   -7.4640   22.7433 H   0  0  0  0  0  0
  -21.0853   -8.8777   19.8925 H   0  0  0  0  0  0
  -22.3696  -10.9692   19.6159 H   0  0  0  0  0  0
  -21.1998   -7.6142   23.9732 H   0  0  0  0  0  0
  -21.1482   -6.0506   25.9082 H   0  0  0  0  0  0
  -22.0597   -2.7612   23.2834 H   0  0  0  0  0  0
  -22.4096  -11.9902   22.4808 H   0  0  0  0  0  0
  -21.1130  -13.1281   22.2602 H   0  0  0  0  0  0
  -24.6824  -15.8536   20.5596 H   0  0  0  0  0  0
  -26.2888  -15.6299   20.0910 H   0  0  0  0  0  0
  -26.7111  -32.5540   23.1143 H   0  0  0  0  0  0
  -25.0114  -33.9788   25.0519 H   0  0  0  0  0  0
  -22.6973  -31.3061   21.4124 H   0  0  0  0  0  0
  -23.3770  -35.9610   23.3324 H   0  0  0  0  0  0
  -24.3582  -36.8886   22.2055 H   0  0  0  0  0  0
  -23.7215  -37.6502   23.6631 H   0  0  0  0  0  0
  -26.0508  -31.5905   20.5966 H   0  0  0  0  0  0
  -26.8286  -30.8810   21.9819 H   0  0  0  0  0  0
  -28.1049  -29.0651   21.1757 H   0  0  0  0  0  0
  -26.0378  -25.9571   19.0119 H   0  0  0  0  0  0
  -23.9732  -27.3052   19.0234 H   0  0  0  0  0  0
  -23.7286  -30.6022   19.4083 H   0  0  0  0  0  0
  -22.7413  -29.2489   19.8663 H   0  0  0  0  0  0
  -25.1288  -36.1994   25.0852 H   0  0  0  0  0  0
  -20.9943  -28.3227   24.1450 H   0  0  0  0  0  0
  -20.5691  -26.2263   23.3612 H   0  0  0  0  0  0
  -21.6640  -26.7464   22.1207 H   0  0  0  0  0  0
  -19.6922  -25.6306   21.1237 H   0  0  0  0  0  0
  -19.6703  -27.3216   20.6773 H   0  0  0  0  0  0
  -17.4206  -26.6696   21.4002 H   0  0  0  0  0  0
  -18.0294  -26.0059   22.8989 H   0  0  0  0  0  0
  -19.7927  -30.7246   24.2299 H   0  0  0  0  0  0
  -17.5014  -31.6275   24.5162 H   0  0  0  0  0  0
  -15.5349  -30.3004   23.7655 H   0  0  0  0  0  0
  -15.8647  -28.0833   22.7077 H   0  0  0  0  0  0
  -24.5920  -30.7067   25.7781 H   0  0  0  0  0  0
  -24.8991  -32.2831   26.4974 H   0  0  0  0  0  0
  -25.8134  -30.8786   27.0180 H   0  0  0  0  0  0
  -26.2871  -29.6785   24.1181 H   0  0  0  0  0  0
  -27.4240  -29.7328   25.4471 H   0  0  0  0  0  0
  -27.8642  -30.4430   23.9120 H   0  0  0  0  0  0
  -27.2714  -33.3607   26.2068 H   0  0  0  0  0  0
  -28.3843  -32.6911   25.0234 H   0  0  0  0  0  0
  -28.0798  -31.8422   26.5315 H   0  0  0  0  0  0
  -28.2624  -38.0081   24.7536 H   0  0  0  0  0  0
  -28.1065  -36.2619   24.6283 H   0  0  0  0  0  0
  -27.2300  -37.1435   25.8875 H   0  0  0  0  0  0
  -20.9304  -29.8753   21.6960 H   0  0  0  0  0  0
  -26.0197  -38.2887   24.1434 H   0  0  0  0  0  0
  -26.1705  -18.8654   21.6920 H   0  0  0  0  0  0
  -27.7857  -16.9998   21.8076 H   0  0  0  0  0  0
  -26.8082  -21.0478   20.7156 H   0  0  0  0  0  0
  -30.7688  -19.5110   19.9515 H   0  0  0  0  0  0
  -31.4009  -22.1507   23.0793 H   0  0  0  0  0  0
  -31.7724  -22.1451   21.2731 H   0  0  0  0  0  0
  -28.9697  -22.4429   23.7592 H   0  0  0  0  0  0
  -27.7915  -22.7470   22.5334 H   0  0  0  0  0  0
  -29.4730  -24.7006   24.1211 H   0  0  0  0  0  0
  -27.7785  -24.7830   23.7343 H   0  0  0  0  0  0
  -30.1332  -25.4801   21.8857 H   0  0  0  0  0  0
  -28.9612  -26.5482   22.5825 H   0  0  0  0  0  0
  -28.1459  -24.2258   19.1237 H   0  0  0  0  0  0
  -27.2764  -23.4845   20.4143 H   0  0  0  0  0  0
  -27.1654  -25.4293   21.3903 H   0  0  0  0  0  0
  -31.0498  -17.1159   21.8247 H   0  0  0  0  0  0
  -31.1198  -17.1159   20.0811 H   0  0  0  0  0  0
  -28.5638  -21.9545   18.7444 H   0  0  0  0  0  0
  -30.2170  -21.6548   19.1331 H   0  0  0  0  0  0
  -28.9963  -15.4148   21.1978 H   0  0  0  0  0  0
  -30.1018  -23.5217   19.9750 H   0  0  0  0  0  0
  1 25  1  0  0  0
  1 30  2  0  0  0
  1 86  1  0  0  0
  2  3  1  0  0  0
  2 25  1  0  0  0
  2 88  1  0  0  0
  2 89  1  0  0  0
  3  4  1  0  0  0
  3 90  1  0  0  0
  3 91  1  0  0  0
  4  5  1  0  0  0
  4 92  1  0  0  0
  4 93  1  0  0  0
  5  6  1  0  0  0
  5 26  1  0  0  0
  5 94  1  0  0  0
  6 25  1  0  0  0
  6 95  1  0  0  0
  6 96  1  0  0  0
  7  8  2  0  0  0
  7 26  1  0  0  0
  7 29  1  0  0  0
  8  9  1  0  0  0
  8 22  1  0  0  0
  9 10  1  0  0  0
  9 27  2  0  0  0
 10 11  2  0  0  0
 10 15  1  0  0  0
 11 12  1  0  0  0
 11 97  1  0  0  0
 12 13  2  0  0  0
 12 98  1  0  0  0
 13 14  1  0  0  0
 13 31  1  0  0  0
 14 15  2  0  0  0
 14 99  1  0  0  0
 15100  1  0  0  0
 16 17  2  0  0  0
 16 21  1  0  0  0
 16 31  1  0  0  0
 17 18  1  0  0  0
 17101  1  0  0  0
 18 19  2  0  0  0
 18102  1  0  0  0
 19 20  1  0  0  0
 19 24  1  0  0  0
 20 21  2  0  0  0
 20103  1  0  0  0
 21 23  1  0  0  0
 22 28  1  0  0  0
 22 32  2  0  0  0
 26 27  1  0  0  0
 28104  1  0  0  0
 28105  1  0  0  0
 29106  1  0  0  0
 29107  1  0  0  0
 33 34  1  0  0  0
 33 66  1  0  0  0
 33 70  2  0  0  0
 34 36  1  0  0  0
 34 59  1  0  0  0
 34108  1  0  0  0
 35 44  2  0  0  0
 35 45  1  0  0  0
 35 68  1  0  0  0
 36 56  1  0  0  0
 36109  1  0  0  0
 37 39  1  0  0  0
 37 47  1  0  0  0
 37 66  1  0  0  0
 37110  1  0  0  0
 38 43  2  0  0  0
 38 46  1  0  0  0
 38 47  1  0  0  0
 39 64  1  0  0  0
 39 67  2  0  0  0
 40 52  1  0  0  0
 40 53  2  0  0  0
 40 58  1  0  0  0
 41111  1  0  0  0
 41112  1  0  0  0
 41113  1  0  0  0
 41 48  1  0  0  0
 42 43  1  0  0  0
 42 66  1  0  0  0
 42114  1  0  0  0
 42115  1  0  0  0
 43 44  1  0  0  0
 44116  1  0  0  0
 45 46  2  0  0  0
 45117  1  0  0  0
 46118  1  0  0  0
 47119  1  0  0  0
 47120  1  0  0  0
 48 56  1  0  0  0
 48 65  1  0  0  0
 48121  1  0  0  0
 49 50  1  0  0  0
 49 53  1  0  0  0
 49 64  1  0  0  0
 49122  1  0  0  0
 50 51  1  0  0  0
 50123  1  0  0  0
 50124  1  0  0  0
 51 52  1  0  0  0
 51125  1  0  0  0
 51126  1  0  0  0
 52127  1  0  0  0
 52128  1  0  0  0
 53 54  1  0  0  0
 54 55  2  0  0  0
 54129  1  0  0  0
 55 57  1  0  0  0
 55130  1  0  0  0
 56 69  2  0  0  0
 57 58  2  0  0  0
 57131  1  0  0  0
 58132  1  0  0  0
 59 60  1  0  0  0
 59 61  1  0  0  0
 59 62  1  0  0  0
 60133  1  0  0  0
 60134  1  0  0  0
 60135  1  0  0  0
 61136  1  0  0  0
 61137  1  0  0  0
 61138  1  0  0  0
 62139  1  0  0  0
 62140  1  0  0  0
 62141  1  0  0  0
 63 65  1  0  0  0
 63142  1  0  0  0
 63143  1  0  0  0
 63144  1  0  0  0
 64145  1  0  0  0
 65146  1  0  0  0
 68 83  1  0  0  0
 71 72  2  0  0  0
 71 73  1  0  0  0
 71147  1  0  0  0
 72 75  1  0  0  0
 72148  1  0  0  0
 73 76  2  0  0  0
 73149  1  0  0  0
 74 75  2  0  0  0
 74 76  1  0  0  0
 74150  1  0  0  0
 75 84  1  0  0  0
 76 85  1  0  0  0
 77 78  2  0  0  0
 77 79  1  0  0  0
 77 87  1  0  0  0
 78151  1  0  0  0
 78152  1  0  0  0
 79 80  1  0  0  0
 79153  1  0  0  0
 79154  1  0  0  0
 80 81  1  0  0  0
 80155  1  0  0  0
 80156  1  0  0  0
 81 83  1  0  0  0
 81157  1  0  0  0
 81158  1  0  0  0
 82 83  1  0  0  0
 82 87  1  0  0  0
 82159  1  0  0  0
 82160  1  0  0  0
 83161  1  0  0  0
 84 86  1  0  0  0
 84162  1  0  0  0
 84163  1  0  0  0
 85164  1  0  0  0
 85165  1  0  0  0
 85 87  1  0  0  0
 86166  1  0  0  0
 87167  1  0  0  0
M  CHG  1  87   1
M  ISO  4   1 100  68 101  83 101  86 100
M  END
> <chiral flag>
0

> <version>
0

> <s_m_source_file>
/data/baiqing/PycharmProjects/Reinvent-master-3.2/result/LINK_invent/BTK/process_docking_weight1_custom_product_contain_oxygen_bond_distance_aromatic_linkinvent_7_9_3/rearranged_h_0046.sdf

> <i_m_source_file_index>
13

> <r_mmod_Potential_Energy-OPLS-2005>
-105.761154174805

> <r_mmod_Stretch_Energy-OPLS-2005>
50.559268951416

> <r_mmod_Bend_Energy-OPLS-2005>
128.590148925781

> <r_mmod_Torsional_Energy-OPLS-2005>
259.746063232422

> <r_mmod_Improper_Torsional_Energy-OPLS-2005>
4.17280435562134

> <r_mmod_Van_der_Waal_Energy-OPLS-2005>
150.065185546875

> <r_mmod_Electrostatic_Energy-OPLS-2005>
-304.991363525391

> <r_mmod_Solvation_Energy-OPLS-2005>
-415.93505859375

> <b_mmod_Minimization_Converged-OPLS-2005>
0

> <r_mmod_RMS_Derivative-OPLS-2005>
2.36527681350708

$$$$
13
                    3D
 Structure written by MMmdl.
158167  0  0  1  0            999 V2000
  -30.6240  -14.6386   20.5166 C   0  0  0  0  0  0
  -30.4403  -12.3936   19.4545 C   0  0  0  0  0  0
  -29.5097  -12.5084   18.2263 C   0  0  0  0  0  0
  -28.0320  -12.3463   18.6367 C   0  0  0  0  0  0
  -27.6550  -13.2149   19.8663 C   0  0  2  0  0  0
  -28.6993  -13.0640   20.9964 C   0  0  0  0  0  0
  -25.2563  -13.8162   20.5681 C   0  0  0  0  0  0
  -24.1831  -13.0432   20.9196 C   0  0  0  0  0  0
  -24.6397  -11.6903   20.8742 C   0  0  0  0  0  0
  -23.9064  -10.4288   21.0405 C   0  0  0  0  0  0
  -24.3614   -9.4204   21.9184 C   0  0  0  0  0  0
  -23.6288   -8.2242   22.0755 C   0  0  0  0  0  0
  -22.4271   -8.0281   21.3547 C   0  0  0  0  0  0
  -21.9905   -9.0255   20.4652 C   0  0  0  0  0  0
  -22.7234  -10.2132   20.3058 C   0  0  0  0  0  0
  -21.6853   -6.0734   22.5279 C   0  0  0  0  0  0
  -21.4016   -6.5639   23.8212 C   0  0  0  0  0  0
  -21.3657   -5.6792   24.9175 C   0  0  0  0  0  0
  -21.6045   -4.3054   24.7224 C   0  0  0  0  0  0
  -21.8818   -3.8146   23.4345 C   0  0  0  0  0  0
  -21.9192   -4.6962   22.3402 C   0  0  0  0  0  0
  -22.7852  -13.5232   21.1852 C   0  0  0  0  0  0
  -22.1661   -4.2148   21.0977 F   0  0  0  0  0  0
  -21.5627   -3.4536   25.7735 F   0  0  0  0  0  0
  -30.0154  -13.4117   20.4361 N   0  0  0  0  0  0
  -26.2996  -12.9344   20.3326 N   0  0  0  0  0  0
  -25.9326  -11.6502   20.5761 N   0  0  0  0  0  0
  -22.0490  -12.8233   22.0409 N   0  0  0  0  0  0
  -25.4260  -15.1879   20.4064 N   0  0  0  0  0  0
  -31.7741  -14.8052   20.1031 O   0  0  0  0  0  0
  -21.6640   -6.8877   21.4241 O   0  0  0  0  0  0
  -22.3538  -14.5536   20.6689 O   0  0  0  0  0  0
  -24.6262  -31.8611   23.2044 C   0  0  0  0  0  0
  -25.9115  -32.4786   23.8366 C   0  0  1  0  0  0
  -27.2180  -27.3155   20.1106 C   0  0  0  0  0  0
  -25.5932  -33.8586   24.2288 N   0  0  0  0  0  0
  -23.4186  -30.4874   21.5475 C   0  0  2  0  0  0
  -24.8633  -28.9478   20.1091 C   0  0  0  0  0  0
  -22.7472  -29.4633   22.4936 C   0  0  0  0  0  0
  -18.0288  -28.1389   22.8484 C   0  0  0  0  0  0
  -24.1489  -36.7295   23.2637 C   0  0  0  0  0  0
  -25.9613  -30.7895   21.3781 C   0  0  0  0  0  0
  -26.0333  -29.4180   20.7180 C   0  0  0  0  0  0
  -27.2113  -28.6123   20.7133 C   0  0  0  0  0  0
  -26.0239  -26.9114   19.4642 C   0  0  0  0  0  0
  -24.8608  -27.6995   19.4745 C   0  0  0  0  0  0
  -23.6327  -29.8284   20.1609 C   0  0  0  0  0  0
  -25.4114  -36.3086   24.0329 C   0  0  1  0  0  0
  -20.5886  -28.3692   23.1282 C   0  0  2  0  0  0
  -20.6777  -26.9418   22.5409 C   0  0  0  0  0  0
  -19.5753  -26.6387   21.5212 C   0  0  0  0  0  0
  -18.1933  -26.7932   22.1625 C   0  0  0  0  0  0
  -19.1540  -28.8857   23.2878 C   0  0  0  0  0  0
  -18.9463  -30.1457   23.8898 C   0  0  0  0  0  0
  -17.6464  -30.6589   24.0564 C   0  0  0  0  0  0
  -25.9052  -34.9456   23.5107 C   0  0  0  0  0  0
  -16.5353  -29.9088   23.6332 C   0  0  0  0  0  0
  -16.7275  -28.6506   23.0352 C   0  0  0  0  0  0
  -26.4497  -31.6589   25.0733 C   0  0  0  0  0  0
  -25.3732  -31.3731   26.1460 C   0  0  0  0  0  0
  -27.0337  -30.3012   24.6188 C   0  0  0  0  0  0
  -27.6054  -32.4323   25.7508 C   0  0  0  0  0  0
  -27.5577  -37.1807   24.8467 C   0  0  0  0  0  0
  -21.4187  -29.3048   22.3679 N   0  0  0  0  0  0
  -26.4293  -37.3778   23.9404 N   0  0  0  0  0  0
  -24.6874  -31.0624   22.0999 N   0  0  0  0  0  0
  -23.4200  -28.8167   23.3007 O   0  0  0  0  0  0
  -28.3334  -26.4584   20.1829 O   0  0  0  0  0  0
  -26.5615  -34.8919   22.4670 O   0  0  0  0  0  0
  -23.5428  -32.1413   23.7373 O   0  0  0  0  0  0
  -28.7376  -19.3114   20.4607 C   0  0  0  0  0  0
  -28.7895  -17.8845   20.4174 C   0  0  0  0  0  0
  -30.9807  -19.3304   21.3082 C   0  0  0  0  0  0
  -29.8371  -20.0815   20.9171 C   0  0  0  0  0  0
  -29.9275  -17.1326   20.8297 C   0  0  0  0  0  0
  -31.0355  -17.9038   21.2873 C   0  0  0  0  0  0
  -28.9758  -23.9840   20.7413 C   0  0  0  0  0  0
  -28.2118  -23.2805   18.0318 C   0  0  0  0  0  0
  -28.4399  -24.7606   18.3651 C   0  0  0  0  0  0
  -29.1254  -22.3585   18.8638 C   0  0  0  0  0  0
  -28.1682  -25.0149   19.8555 C   0  0  2  0  0  0
  -29.7976  -21.6369   21.1979 C   0  0  0  0  0  0
  -29.1788  -22.6836   20.2998 N   0  0  0  0  0  0
  -29.8114  -15.6721   20.9032 N   0  0  0  0  0  0
  -29.3437  -24.3463   21.8638 O   0  0  0  0  0  0
  -32.4436  -17.1557   21.9545 Cl  0  0  0  0  0  0
  -31.4811  -12.5204   19.1526 H   0  0  0  0  0  0
  -30.3777  -11.3969   19.8936 H   0  0  0  0  0  0
  -29.7747  -11.7564   17.4816 H   0  0  0  0  0  0
  -29.6522  -13.4777   17.7460 H   0  0  0  0  0  0
  -27.8686  -11.2927   18.8668 H   0  0  0  0  0  0
  -27.3781  -12.5777   17.7948 H   0  0  0  0  0  0
  -27.6753  -14.2508   19.5272 H   0  0  0  0  0  0
  -28.7118  -12.0400   21.3730 H   0  0  0  0  0  0
  -28.4424  -13.6884   21.8534 H   0  0  0  0  0  0
  -25.2759   -9.5679   22.4757 H   0  0  0  0  0  0
  -23.9997   -7.4633   22.7471 H   0  0  0  0  0  0
  -21.0838   -8.8777   19.8955 H   0  0  0  0  0  0
  -22.3697  -10.9673   19.6166 H   0  0  0  0  0  0
  -21.2013   -7.6146   23.9716 H   0  0  0  0  0  0
  -21.1479   -6.0521   25.9077 H   0  0  0  0  0  0
  -22.0599   -2.7608   23.2845 H   0  0  0  0  0  0
  -22.4103  -11.9899   22.4810 H   0  0  0  0  0  0
  -21.1110  -13.1264   22.2611 H   0  0  0  0  0  0
  -24.6524  -15.8365   20.5053 H   0  0  0  0  0  0
  -26.2609  -15.6220   20.0366 H   0  0  0  0  0  0
  -26.7178  -32.5453   23.1109 H   0  0  0  0  0  0
  -25.0090  -33.9736   25.0441 H   0  0  0  0  0  0
  -22.7118  -31.3081   21.4078 H   0  0  0  0  0  0
  -23.3749  -35.9631   23.3310 H   0  0  0  0  0  0
  -24.3580  -36.8906   22.2049 H   0  0  0  0  0  0
  -23.7248  -37.6503   23.6653 H   0  0  0  0  0  0
  -26.0952  -31.5539   20.6111 H   0  0  0  0  0  0
  -26.8412  -30.8355   22.0079 H   0  0  0  0  0  0
  -28.1049  -28.9662   21.2080 H   0  0  0  0  0  0
  -25.9421  -25.9698   18.9451 H   0  0  0  0  0  0
  -23.9661  -27.3372   18.9870 H   0  0  0  0  0  0
  -23.7538  -30.6078   19.4076 H   0  0  0  0  0  0
  -22.7517  -29.2605   19.8558 H   0  0  0  0  0  0
  -25.1295  -36.1940   25.0822 H   0  0  0  0  0  0
  -20.9975  -28.3266   24.1403 H   0  0  0  0  0  0
  -20.5683  -26.2302   23.3607 H   0  0  0  0  0  0
  -21.6646  -26.7454   22.1200 H   0  0  0  0  0  0
  -19.6916  -25.6297   21.1243 H   0  0  0  0  0  0
  -19.6690  -27.3196   20.6741 H   0  0  0  0  0  0
  -17.4201  -26.6675   21.4027 H   0  0  0  0  0  0
  -18.0338  -26.0075   22.9025 H   0  0  0  0  0  0
  -19.7938  -30.7270   24.2269 H   0  0  0  0  0  0
  -17.5021  -31.6272   24.5165 H   0  0  0  0  0  0
  -15.5355  -30.2993   23.7659 H   0  0  0  0  0  0
  -15.8673  -28.0828   22.7068 H   0  0  0  0  0  0
  -24.5913  -30.7068   25.7796 H   0  0  0  0  0  0
  -24.8917  -32.2899   26.4873 H   0  0  0  0  0  0
  -25.8061  -30.8926   27.0242 H   0  0  0  0  0  0
  -26.2914  -29.6770   24.1200 H   0  0  0  0  0  0
  -27.4018  -29.7259   25.4692 H   0  0  0  0  0  0
  -27.8791  -30.4295   23.9425 H   0  0  0  0  0  0
  -27.2661  -33.3621   26.2086 H   0  0  0  0  0  0
  -28.3869  -32.6885   25.0343 H   0  0  0  0  0  0
  -28.0715  -31.8449   26.5427 H   0  0  0  0  0  0
  -28.2604  -38.0093   24.7497 H   0  0  0  0  0  0
  -28.1061  -36.2624   24.6315 H   0  0  0  0  0  0
  -27.2294  -37.1485   25.8871 H   0  0  0  0  0  0
  -20.9363  -29.8781   21.6898 H   0  0  0  0  0  0
  -26.0176  -38.2855   24.1393 H   0  0  0  0  0  0
  -27.8172  -19.8079   20.1849 H   0  0  0  0  0  0
  -27.9036  -17.3593   20.0911 H   0  0  0  0  0  0
  -31.8342  -19.8582   21.7084 H   0  0  0  0  0  0
  -28.3823  -23.1053   16.9686 H   0  0  0  0  0  0
  -27.1676  -23.0229   18.2171 H   0  0  0  0  0  0
  -27.7916  -25.3785   17.7449 H   0  0  0  0  0  0
  -29.4628  -25.0491   18.1212 H   0  0  0  0  0  0
  -30.1444  -22.4214   18.4791 H   0  0  0  0  0  0
  -28.8093  -21.3297   18.7068 H   0  0  0  0  0  0
  -27.1484  -24.7104   20.0865 H   0  0  0  0  0  0
  -30.8255  -21.9604   21.3685 H   0  0  0  0  0  0
  -29.3122  -21.7294   22.1710 H   0  0  0  0  0  0
  -28.8839  -15.3476   21.1259 H   0  0  0  0  0  0
  1 25  1  0  0  0
  1 30  2  0  0  0
  1 84  1  0  0  0
  2  3  1  0  0  0
  2 25  1  0  0  0
  2 87  1  0  0  0
  2 88  1  0  0  0
  3  4  1  0  0  0
  3 89  1  0  0  0
  3 90  1  0  0  0
  4  5  1  0  0  0
  4 91  1  0  0  0
  4 92  1  0  0  0
  5  6  1  0  0  0
  5 26  1  0  0  0
  5 93  1  0  0  0
  6 25  1  0  0  0
  6 94  1  0  0  0
  6 95  1  0  0  0
  7  8  2  0  0  0
  7 26  1  0  0  0
  7 29  1  0  0  0
  8  9  1  0  0  0
  8 22  1  0  0  0
  9 10  1  0  0  0
  9 27  2  0  0  0
 10 11  2  0  0  0
 10 15  1  0  0  0
 11 12  1  0  0  0
 11 96  1  0  0  0
 12 13  2  0  0  0
 12 97  1  0  0  0
 13 14  1  0  0  0
 13 31  1  0  0  0
 14 15  2  0  0  0
 14 98  1  0  0  0
 15 99  1  0  0  0
 16 17  2  0  0  0
 16 21  1  0  0  0
 16 31  1  0  0  0
 17 18  1  0  0  0
 17100  1  0  0  0
 18 19  2  0  0  0
 18101  1  0  0  0
 19 20  1  0  0  0
 19 24  1  0  0  0
 20 21  2  0  0  0
 20102  1  0  0  0
 21 23  1  0  0  0
 22 28  1  0  0  0
 22 32  2  0  0  0
 26 27  1  0  0  0
 28103  1  0  0  0
 28104  1  0  0  0
 29105  1  0  0  0
 29106  1  0  0  0
 33 34  1  0  0  0
 33 66  1  0  0  0
 33 70  2  0  0  0
 34 36  1  0  0  0
 34 59  1  0  0  0
 34107  1  0  0  0
 35 44  2  0  0  0
 35 45  1  0  0  0
 35 68  1  0  0  0
 36 56  1  0  0  0
 36108  1  0  0  0
 37 39  1  0  0  0
 37 47  1  0  0  0
 37 66  1  0  0  0
 37109  1  0  0  0
 38 43  2  0  0  0
 38 46  1  0  0  0
 38 47  1  0  0  0
 39 64  1  0  0  0
 39 67  2  0  0  0
 40 52  1  0  0  0
 40 53  2  0  0  0
 40 58  1  0  0  0
 41110  1  0  0  0
 41111  1  0  0  0
 41112  1  0  0  0
 41 48  1  0  0  0
 42 43  1  0  0  0
 42 66  1  0  0  0
 42113  1  0  0  0
 42114  1  0  0  0
 43 44  1  0  0  0
 44115  1  0  0  0
 45 46  2  0  0  0
 45116  1  0  0  0
 46117  1  0  0  0
 47118  1  0  0  0
 47119  1  0  0  0
 48 56  1  0  0  0
 48 65  1  0  0  0
 48120  1  0  0  0
 49 50  1  0  0  0
 49 53  1  0  0  0
 49 64  1  0  0  0
 49121  1  0  0  0
 50 51  1  0  0  0
 50122  1  0  0  0
 50123  1  0  0  0
 51 52  1  0  0  0
 51124  1  0  0  0
 51125  1  0  0  0
 52126  1  0  0  0
 52127  1  0  0  0
 53 54  1  0  0  0
 54 55  2  0  0  0
 54128  1  0  0  0
 55 57  1  0  0  0
 55129  1  0  0  0
 56 69  2  0  0  0
 57 58  2  0  0  0
 57130  1  0  0  0
 58131  1  0  0  0
 59 60  1  0  0  0
 59 61  1  0  0  0
 59 62  1  0  0  0
 60132  1  0  0  0
 60133  1  0  0  0
 60134  1  0  0  0
 61135  1  0  0  0
 61136  1  0  0  0
 61137  1  0  0  0
 62138  1  0  0  0
 62139  1  0  0  0
 62140  1  0  0  0
 63 65  1  0  0  0
 63141  1  0  0  0
 63142  1  0  0  0
 63143  1  0  0  0
 64144  1  0  0  0
 65145  1  0  0  0
 68 81  1  0  0  0
 71 72  2  0  0  0
 71 74  1  0  0  0
 71146  1  0  0  0
 72 75  1  0  0  0
 72147  1  0  0  0
 73 74  2  0  0  0
 73 76  1  0  0  0
 73148  1  0  0  0
 74 82  1  0  0  0
 75 76  2  0  0  0
 75 84  1  0  0  0
 76 86  1  0  0  0
 77 81  1  0  0  0
 77 83  1  0  0  0
 77 85  2  0  0  0
 78 79  1  0  0  0
 78 80  1  0  0  0
 78149  1  0  0  0
 78150  1  0  0  0
 79 81  1  0  0  0
 79151  1  0  0  0
 79152  1  0  0  0
 80 83  1  0  0  0
 80153  1  0  0  0
 80154  1  0  0  0
 81155  1  0  0  0
 82 83  1  0  0  0
 82156  1  0  0  0
 82157  1  0  0  0
 84158  1  0  0  0
M  ISO  4   1 100  68 101  81 101  84 100
M  END
> <chiral flag>
0

> <version>
0

> <s_m_source_file>
/data/baiqing/PycharmProjects/Reinvent-master-3.2/result/LINK_invent/BTK/process_docking_weight1_custom_product_contain_oxygen_bond_distance_aromatic_linkinvent_7_9_3/rearranged_h_0046.sdf

> <i_m_source_file_index>
14

> <r_mmod_Potential_Energy-OPLS-2005>
111.147735595703

> <r_mmod_Stretch_Energy-OPLS-2005>
86.4394226074219

> <r_mmod_Bend_Energy-OPLS-2005>
154.273040771484

> <r_mmod_Torsional_Energy-OPLS-2005>
244.592132568359

> <r_mmod_Improper_Torsional_Energy-OPLS-2005>
7.69251155853271

> <r_mmod_Van_der_Waal_Energy-OPLS-2005>
156.322402954102

> <r_mmod_Electrostatic_Energy-OPLS-2005>
-342.929504394531

> <r_mmod_Solvation_Energy-OPLS-2005>
-244.775863647461

> <b_mmod_Minimization_Converged-OPLS-2005>
0

> <r_mmod_RMS_Derivative-OPLS-2005>
0.531130790710449

$$$$
14
                    3D
 Structure written by MMmdl.
168177  0  0  1  0            999 V2000
  -30.6553  -14.6022   20.4872 C   0  0  0  0  0  0
  -30.4358  -12.3660   19.4431 C   0  0  0  0  0  0
  -29.5011  -12.4980   18.2204 C   0  0  0  0  0  0
  -28.0270  -12.3352   18.6410 C   0  0  0  0  0  0
  -27.6541  -13.2062   19.8690 C   0  0  2  0  0  0
  -28.7062  -13.0732   20.9954 C   0  0  0  0  0  0
  -25.2575  -13.8108   20.5789 C   0  0  0  0  0  0
  -24.1813  -13.0377   20.9192 C   0  0  0  0  0  0
  -24.6382  -11.6855   20.8730 C   0  0  0  0  0  0
  -23.9035  -10.4256   21.0399 C   0  0  0  0  0  0
  -24.3586   -9.4181   21.9182 C   0  0  0  0  0  0
  -23.6265   -8.2222   22.0767 C   0  0  0  0  0  0
  -22.4253   -8.0262   21.3548 C   0  0  0  0  0  0
  -21.9881   -9.0233   20.4653 C   0  0  0  0  0  0
  -22.7205  -10.2110   20.3055 C   0  0  0  0  0  0
  -21.6839   -6.0716   22.5275 C   0  0  0  0  0  0
  -21.4001   -6.5626   23.8203 C   0  0  0  0  0  0
  -21.3649   -5.6789   24.9171 C   0  0  0  0  0  0
  -21.6045   -4.3053   24.7228 C   0  0  0  0  0  0
  -21.8832   -3.8133   23.4354 C   0  0  0  0  0  0
  -21.9196   -4.6944   22.3402 C   0  0  0  0  0  0
  -22.7849  -13.5200   21.1851 C   0  0  0  0  0  0
  -22.1670   -4.2134   21.0979 F   0  0  0  0  0  0
  -21.5632   -3.4537   25.7742 F   0  0  0  0  0  0
  -30.0254  -13.3896   20.4222 N   0  0  0  0  0  0
  -26.3005  -12.9286   20.3404 N   0  0  0  0  0  0
  -25.9319  -11.6442   20.5788 N   0  0  0  0  0  0
  -22.0470  -12.8203   22.0401 N   0  0  0  0  0  0
  -25.4281  -15.1826   20.4396 N   0  0  0  0  0  0
  -31.8271  -14.7513   20.1332 O   0  0  0  0  0  0
  -21.6619   -6.8859   21.4239 O   0  0  0  0  0  0
  -22.3554  -14.5506   20.6694 O   0  0  0  0  0  0
  -24.6210  -31.8606   23.2067 C   0  0  0  0  0  0
  -25.9091  -32.4772   23.8368 C   0  0  1  0  0  0
  -27.2297  -27.3734   20.0919 C   0  0  0  0  0  0
  -25.5927  -33.8578   24.2287 N   0  0  0  0  0  0
  -23.4082  -30.4852   21.5497 C   0  0  2  0  0  0
  -24.8493  -28.9390   20.1158 C   0  0  0  0  0  0
  -22.7417  -29.4633   22.4992 C   0  0  0  0  0  0
  -18.0257  -28.1390   22.8498 C   0  0  0  0  0  0
  -24.1492  -36.7311   23.2643 C   0  0  0  0  0  0
  -25.9438  -30.8061   21.3668 C   0  0  0  0  0  0
  -26.0150  -29.4372   20.7096 C   0  0  0  0  0  0
  -27.2043  -28.6638   20.6882 C   0  0  0  0  0  0
  -26.0376  -26.8995   19.4980 C   0  0  0  0  0  0
  -24.8590  -27.6725   19.5074 C   0  0  0  0  0  0
  -23.6148  -29.8132   20.1657 C   0  0  0  0  0  0
  -25.4118  -36.3084   24.0328 C   0  0  1  0  0  0
  -20.5851  -28.3681   23.1315 C   0  0  2  0  0  0
  -20.6741  -26.9408   22.5440 C   0  0  0  0  0  0
  -19.5733  -26.6384   21.5222 C   0  0  0  0  0  0
  -18.1895  -26.7946   22.1606 C   0  0  0  0  0  0
  -19.1511  -28.8851   23.2895 C   0  0  0  0  0  0
  -18.9448  -30.1458   23.8903 C   0  0  0  0  0  0
  -17.6451  -30.6594   24.0567 C   0  0  0  0  0  0
  -25.9051  -34.9447   23.5102 C   0  0  0  0  0  0
  -16.5334  -29.9100   23.6342 C   0  0  0  0  0  0
  -16.7246  -28.6512   23.0370 C   0  0  0  0  0  0
  -26.4508  -31.6582   25.0730 C   0  0  0  0  0  0
  -25.3764  -31.3696   26.1474 C   0  0  0  0  0  0
  -27.0368  -30.3013   24.6173 C   0  0  0  0  0  0
  -27.6047  -32.4341   25.7500 C   0  0  0  0  0  0
  -27.5588  -37.1800   24.8459 C   0  0  0  0  0  0
  -21.4135  -29.3033   22.3717 N   0  0  0  0  0  0
  -26.4295  -37.3781   23.9409 N   0  0  0  0  0  0
  -24.6768  -31.0668   22.0982 N   0  0  0  0  0  0
  -23.4163  -28.8174   23.3053 O   0  0  0  0  0  0
  -28.4108  -26.6370   20.1169 O   0  0  0  0  0  0
  -26.5610  -34.8912   22.4662 O   0  0  0  0  0  0
  -23.5397  -32.1394   23.7441 O   0  0  0  0  0  0
  -31.0519  -19.2826   20.8906 C   0  0  0  0  0  0
  -30.9500  -17.8873   21.1550 C   0  0  0  0  0  0
  -29.2934  -19.1106   19.2511 C   0  0  0  0  0  0
  -30.2390  -19.9234   19.9184 C   0  0  0  0  0  0
  -29.1814  -17.7163   19.5137 C   0  0  0  0  0  0
  -30.0239  -17.0686   20.4617 C   0  0  0  0  0  0
  -30.6871  -23.8862   19.9018 C   0  0  0  0  0  0
  -33.5624  -23.2283   22.1472 C   0  0  0  0  0  0
  -31.7694  -24.0318   20.6976 C   0  0  0  0  0  0
  -32.3712  -23.0338   21.5583 C   0  0  0  0  0  0
  -29.9830  -25.0497   19.1971 C   0  0  0  0  0  0
  -28.1194  -24.1784   20.7174 C   0  0  0  0  0  0
  -28.5624  -22.6911   20.3928 C   0  0  0  0  0  0
  -28.5087  -25.2571   19.6463 C   0  0  1  0  0  0
  -28.1635  -16.9221   18.7214 C   0  0  0  0  0  0
  -30.5975  -21.3429   19.3740 C   0  0  0  0  0  0
  -29.8486  -15.6618   20.7739 N   0  0  0  0  0  0
  -29.8742  -22.6377   19.6928 N   0  3  2  0  0  0
  -31.4768  -12.4766   19.1356 H   0  0  0  0  0  0
  -30.3564  -11.3721   19.8875 H   0  0  0  0  0  0
  -29.7554  -11.7525   17.4655 H   0  0  0  0  0  0
  -29.6433  -13.4737   17.7508 H   0  0  0  0  0  0
  -27.8626  -11.2825   18.8747 H   0  0  0  0  0  0
  -27.3679  -12.5653   17.8036 H   0  0  0  0  0  0
  -27.6646  -14.2361   19.5213 H   0  0  0  0  0  0
  -28.7098  -12.0629   21.4081 H   0  0  0  0  0  0
  -28.4645  -13.7315   21.8308 H   0  0  0  0  0  0
  -25.2735   -9.5669   22.4746 H   0  0  0  0  0  0
  -23.9972   -7.4625   22.7499 H   0  0  0  0  0  0
  -21.0807   -8.8752   19.8958 H   0  0  0  0  0  0
  -22.3661  -10.9648   19.6171 H   0  0  0  0  0  0
  -21.1987   -7.6135   23.9695 H   0  0  0  0  0  0
  -21.1451   -6.0522   25.9072 H   0  0  0  0  0  0
  -22.0621   -2.7594   23.2859 H   0  0  0  0  0  0
  -22.4056  -11.9833   22.4760 H   0  0  0  0  0  0
  -21.1120  -13.1303   22.2644 H   0  0  0  0  0  0
  -24.6701  -15.8416   20.5805 H   0  0  0  0  0  0
  -26.3018  -15.6271   20.1978 H   0  0  0  0  0  0
  -26.7143  -32.5462   23.1109 H   0  0  0  0  0  0
  -25.0081  -33.9731   25.0436 H   0  0  0  0  0  0
  -22.6998  -31.3043   21.4099 H   0  0  0  0  0  0
  -23.3745  -35.9652   23.3278 H   0  0  0  0  0  0
  -24.3564  -36.8981   22.2062 H   0  0  0  0  0  0
  -23.7263  -37.6507   23.6697 H   0  0  0  0  0  0
  -26.0672  -31.5676   20.5961 H   0  0  0  0  0  0
  -26.8279  -30.8547   21.9902 H   0  0  0  0  0  0
  -28.1052  -29.0495   21.1461 H   0  0  0  0  0  0
  -25.9832  -25.9301   19.0274 H   0  0  0  0  0  0
  -23.9612  -27.2815   19.0476 H   0  0  0  0  0  0
  -23.7239  -30.5866   19.4047 H   0  0  0  0  0  0
  -22.7339  -29.2392   19.8720 H   0  0  0  0  0  0
  -25.1291  -36.1938   25.0820 H   0  0  0  0  0  0
  -20.9930  -28.3270   24.1441 H   0  0  0  0  0  0
  -20.5620  -26.2299   23.3638 H   0  0  0  0  0  0
  -21.6617  -26.7429   22.1265 H   0  0  0  0  0  0
  -19.6888  -25.6300   21.1249 H   0  0  0  0  0  0
  -19.6682  -27.3186   20.6747 H   0  0  0  0  0  0
  -17.4192  -26.6749   21.3969 H   0  0  0  0  0  0
  -18.0227  -26.0064   22.8961 H   0  0  0  0  0  0
  -19.7924  -30.7267   24.2269 H   0  0  0  0  0  0
  -17.5014  -31.6278   24.5177 H   0  0  0  0  0  0
  -15.5341  -30.3009   23.7667 H   0  0  0  0  0  0
  -15.8641  -28.0829   22.7105 H   0  0  0  0  0  0
  -24.6044  -30.6886   25.7874 H   0  0  0  0  0  0
  -24.8820  -32.2832   26.4777 H   0  0  0  0  0  0
  -25.8162  -30.9054   27.0310 H   0  0  0  0  0  0
  -26.2942  -29.6738   24.1232 H   0  0  0  0  0  0
  -27.4113  -29.7294   25.4674 H   0  0  0  0  0  0
  -27.8778  -30.4307   23.9355 H   0  0  0  0  0  0
  -27.2611  -33.3591   26.2139 H   0  0  0  0  0  0
  -28.3814  -32.6996   25.0315 H   0  0  0  0  0  0
  -28.0779  -31.8461   26.5380 H   0  0  0  0  0  0
  -28.2601  -38.0101   24.7493 H   0  0  0  0  0  0
  -28.1087  -36.2626   24.6286 H   0  0  0  0  0  0
  -27.2295  -37.1459   25.8860 H   0  0  0  0  0  0
  -20.9311  -29.8769   21.6937 H   0  0  0  0  0  0
  -26.0174  -38.2855   24.1418 H   0  0  0  0  0  0
  -31.8219  -19.8438   21.4004 H   0  0  0  0  0  0
  -31.6056  -17.4464   21.8938 H   0  0  0  0  0  0
  -28.6880  -19.5464   18.4679 H   0  0  0  0  0  0
  -33.9891  -22.4823   22.8036 H   0  0  0  0  0  0
  -34.1362  -24.1317   21.9858 H   0  0  0  0  0  0
  -32.1819  -25.0289   20.7633 H   0  0  0  0  0  0
  -31.8467  -22.1135   21.7655 H   0  0  0  0  0  0
  -30.0265  -24.8969   18.1172 H   0  0  0  0  0  0
  -30.5502  -25.9638   19.3744 H   0  0  0  0  0  0
  -28.5984  -24.4661   21.6543 H   0  0  0  0  0  0
  -27.0488  -24.2165   20.9157 H   0  0  0  0  0  0
  -27.8205  -22.2121   19.7515 H   0  0  0  0  0  0
  -28.6122  -22.1071   21.3124 H   0  0  0  0  0  0
  -27.8993  -25.1200   18.7538 H   0  0  0  0  0  0
  -27.7841  -17.4873   17.8708 H   0  0  0  0  0  0
  -27.3182  -16.6822   19.3603 H   0  0  0  0  0  0
  -28.5960  -15.9979   18.3365 H   0  0  0  0  0  0
  -30.5194  -21.2627   18.2893 H   0  0  0  0  0  0
  -31.6669  -21.4817   19.5222 H   0  0  0  0  0  0
  -28.9006  -15.3864   20.9738 H   0  0  0  0  0  0
  -29.5213  -22.7714   18.7579 H   0  0  0  0  0  0
  1 25  1  0  0  0
  1 30  2  0  0  0
  1 87  1  0  0  0
  2  3  1  0  0  0
  2 25  1  0  0  0
  2 89  1  0  0  0
  2 90  1  0  0  0
  3  4  1  0  0  0
  3 91  1  0  0  0
  3 92  1  0  0  0
  4  5  1  0  0  0
  4 93  1  0  0  0
  4 94  1  0  0  0
  5  6  1  0  0  0
  5 26  1  0  0  0
  5 95  1  0  0  0
  6 25  1  0  0  0
  6 96  1  0  0  0
  6 97  1  0  0  0
  7  8  2  0  0  0
  7 26  1  0  0  0
  7 29  1  0  0  0
  8  9  1  0  0  0
  8 22  1  0  0  0
  9 10  1  0  0  0
  9 27  2  0  0  0
 10 11  2  0  0  0
 10 15  1  0  0  0
 11 12  1  0  0  0
 11 98  1  0  0  0
 12 13  2  0  0  0
 12 99  1  0  0  0
 13 14  1  0  0  0
 13 31  1  0  0  0
 14 15  2  0  0  0
 14100  1  0  0  0
 15101  1  0  0  0
 16 17  2  0  0  0
 16 21  1  0  0  0
 16 31  1  0  0  0
 17 18  1  0  0  0
 17102  1  0  0  0
 18 19  2  0  0  0
 18103  1  0  0  0
 19 20  1  0  0  0
 19 24  1  0  0  0
 20 21  2  0  0  0
 20104  1  0  0  0
 21 23  1  0  0  0
 22 28  1  0  0  0
 22 32  2  0  0  0
 26 27  1  0  0  0
 28105  1  0  0  0
 28106  1  0  0  0
 29107  1  0  0  0
 29108  1  0  0  0
 33 34  1  0  0  0
 33 66  1  0  0  0
 33 70  2  0  0  0
 34 36  1  0  0  0
 34 59  1  0  0  0
 34109  1  0  0  0
 35 44  2  0  0  0
 35 45  1  0  0  0
 35 68  1  0  0  0
 36 56  1  0  0  0
 36110  1  0  0  0
 37 39  1  0  0  0
 37 47  1  0  0  0
 37 66  1  0  0  0
 37111  1  0  0  0
 38 43  2  0  0  0
 38 46  1  0  0  0
 38 47  1  0  0  0
 39 64  1  0  0  0
 39 67  2  0  0  0
 40 52  1  0  0  0
 40 53  2  0  0  0
 40 58  1  0  0  0
 41112  1  0  0  0
 41113  1  0  0  0
 41114  1  0  0  0
 41 48  1  0  0  0
 42 43  1  0  0  0
 42 66  1  0  0  0
 42115  1  0  0  0
 42116  1  0  0  0
 43 44  1  0  0  0
 44117  1  0  0  0
 45 46  2  0  0  0
 45118  1  0  0  0
 46119  1  0  0  0
 47120  1  0  0  0
 47121  1  0  0  0
 48 56  1  0  0  0
 48 65  1  0  0  0
 48122  1  0  0  0
 49 50  1  0  0  0
 49 53  1  0  0  0
 49 64  1  0  0  0
 49123  1  0  0  0
 50 51  1  0  0  0
 50124  1  0  0  0
 50125  1  0  0  0
 51 52  1  0  0  0
 51126  1  0  0  0
 51127  1  0  0  0
 52128  1  0  0  0
 52129  1  0  0  0
 53 54  1  0  0  0
 54 55  2  0  0  0
 54130  1  0  0  0
 55 57  1  0  0  0
 55131  1  0  0  0
 56 69  2  0  0  0
 57 58  2  0  0  0
 57132  1  0  0  0
 58133  1  0  0  0
 59 60  1  0  0  0
 59 61  1  0  0  0
 59 62  1  0  0  0
 60134  1  0  0  0
 60135  1  0  0  0
 60136  1  0  0  0
 61137  1  0  0  0
 61138  1  0  0  0
 61139  1  0  0  0
 62140  1  0  0  0
 62141  1  0  0  0
 62142  1  0  0  0
 63 65  1  0  0  0
 63143  1  0  0  0
 63144  1  0  0  0
 63145  1  0  0  0
 64146  1  0  0  0
 65147  1  0  0  0
 68 84  1  0  0  0
 71 72  2  0  0  0
 71 74  1  0  0  0
 71148  1  0  0  0
 72 76  1  0  0  0
 72149  1  0  0  0
 73 74  2  0  0  0
 73 75  1  0  0  0
 73150  1  0  0  0
 74 86  1  0  0  0
 75 76  2  0  0  0
 75 85  1  0  0  0
 76 87  1  0  0  0
 77 79  2  0  0  0
 77 81  1  0  0  0
 77 88  1  0  0  0
 78 80  2  0  0  0
 78151  1  0  0  0
 78152  1  0  0  0
 79 80  1  0  0  0
 79153  1  0  0  0
 80154  1  0  0  0
 81 84  1  0  0  0
 81155  1  0  0  0
 81156  1  0  0  0
 82 83  1  0  0  0
 82 84  1  0  0  0
 82157  1  0  0  0
 82158  1  0  0  0
 83 88  1  0  0  0
 83159  1  0  0  0
 83160  1  0  0  0
 84161  1  0  0  0
 85162  1  0  0  0
 85163  1  0  0  0
 85164  1  0  0  0
 86165  1  0  0  0
 86166  1  0  0  0
 86 88  1  0  0  0
 87167  1  0  0  0
 88168  1  0  0  0
M  CHG  1  88   1
M  ISO  4   1 100  68 101  84 101  87 100
M  END
> <chiral flag>
0

> <version>
0

> <s_m_source_file>
/data/baiqing/PycharmProjects/Reinvent-master-3.2/result/LINK_invent/BTK/process_docking_weight1_custom_product_contain_oxygen_bond_distance_aromatic_linkinvent_7_9_3/rearranged_h_0046.sdf

> <i_m_source_file_index>
15

> <r_mmod_Potential_Energy-OPLS-2005>
-29.8789253234863

> <r_mmod_Stretch_Energy-OPLS-2005>
62.5449180603027

> <r_mmod_Bend_Energy-OPLS-2005>
182.588256835938

> <r_mmod_Torsional_Energy-OPLS-2005>
271.242309570312

> <r_mmod_Improper_Torsional_Energy-OPLS-2005>
8.11861133575439

> <r_mmod_Van_der_Waal_Energy-OPLS-2005>
146.881591796875

> <r_mmod_Electrostatic_Energy-OPLS-2005>
-287.236724853516

> <r_mmod_Solvation_Energy-OPLS-2005>
-446.178802490234

> <b_mmod_Minimization_Converged-OPLS-2005>
0

> <r_mmod_RMS_Derivative-OPLS-2005>
2.28029441833496

$$$$
15
                    3D
 Structure written by MMmdl.
165174  0  0  1  0            999 V2000
  -30.6164  -14.5930   20.5139 C   0  0  0  0  0  0
  -30.4267  -12.3605   19.4539 C   0  0  0  0  0  0
  -29.5076  -12.5124   18.2200 C   0  0  0  0  0  0
  -28.0250  -12.3626   18.6192 C   0  0  0  0  0  0
  -27.6549  -13.2118   19.8648 C   0  0  2  0  0  0
  -28.6910  -13.0332   20.9966 C   0  0  0  0  0  0
  -25.2605  -13.8173   20.5665 C   0  0  0  0  0  0
  -24.1831  -13.0456   20.9140 C   0  0  0  0  0  0
  -24.6375  -11.6911   20.8687 C   0  0  0  0  0  0
  -23.9013  -10.4314   21.0350 C   0  0  0  0  0  0
  -24.3593   -9.4238   21.9134 C   0  0  0  0  0  0
  -23.6290   -8.2265   22.0718 C   0  0  0  0  0  0
  -22.4273   -8.0282   21.3524 C   0  0  0  0  0  0
  -21.9879   -9.0238   20.4620 C   0  0  0  0  0  0
  -22.7188  -10.2125   20.3012 C   0  0  0  0  0  0
  -21.6859   -6.0721   22.5260 C   0  0  0  0  0  0
  -21.4012   -6.5622   23.8198 C   0  0  0  0  0  0
  -21.3662   -5.6778   24.9158 C   0  0  0  0  0  0
  -21.6047   -4.3039   24.7211 C   0  0  0  0  0  0
  -21.8829   -3.8128   23.4325 C   0  0  0  0  0  0
  -21.9198   -4.6947   22.3391 C   0  0  0  0  0  0
  -22.7876  -13.5267   21.1792 C   0  0  0  0  0  0
  -22.1673   -4.2129   21.0971 F   0  0  0  0  0  0
  -21.5626   -3.4531   25.7720 F   0  0  0  0  0  0
  -30.0113  -13.3693   20.4509 N   0  0  0  0  0  0
  -26.2991  -12.9322   20.3294 N   0  0  0  0  0  0
  -25.9295  -11.6484   20.5688 N   0  0  0  0  0  0
  -22.0506  -12.8274   22.0373 N   0  0  0  0  0  0
  -25.4419  -15.1890   20.4142 N   0  0  0  0  0  0
  -31.7599  -14.7706   20.0827 O   0  0  0  0  0  0
  -21.6649   -6.8872   21.4231 O   0  0  0  0  0  0
  -22.3568  -14.5580   20.6640 O   0  0  0  0  0  0
  -24.6227  -31.8610   23.2034 C   0  0  0  0  0  0
  -25.9071  -32.4794   23.8365 C   0  0  1  0  0  0
  -27.2164  -27.3240   20.1215 C   0  0  0  0  0  0
  -25.5899  -33.8598   24.2294 N   0  0  0  0  0  0
  -23.4163  -30.4822   21.5469 C   0  0  2  0  0  0
  -24.8605  -28.9308   20.1188 C   0  0  0  0  0  0
  -22.7452  -29.4626   22.4972 C   0  0  0  0  0  0
  -18.0275  -28.1388   22.8479 C   0  0  0  0  0  0
  -24.1495  -36.7295   23.2632 C   0  0  0  0  0  0
  -25.9547  -30.7933   21.3728 C   0  0  0  0  0  0
  -26.0270  -29.4183   20.7188 C   0  0  0  0  0  0
  -27.2068  -28.6226   20.7147 C   0  0  0  0  0  0
  -26.0289  -26.8853   19.4965 C   0  0  0  0  0  0
  -24.8582  -27.6661   19.5094 C   0  0  0  0  0  0
  -23.6308  -29.8113   20.1644 C   0  0  0  0  0  0
  -25.4109  -36.3096   24.0348 C   0  0  1  0  0  0
  -20.5869  -28.3674   23.1302 C   0  0  2  0  0  0
  -20.6763  -26.9405   22.5421 C   0  0  0  0  0  0
  -19.5748  -26.6386   21.5212 C   0  0  0  0  0  0
  -18.1923  -26.7935   22.1617 C   0  0  0  0  0  0
  -19.1529  -28.8848   23.2889 C   0  0  0  0  0  0
  -18.9457  -30.1450   23.8906 C   0  0  0  0  0  0
  -17.6458  -30.6587   24.0562 C   0  0  0  0  0  0
  -25.9052  -34.9467   23.5121 C   0  0  0  0  0  0
  -16.5347  -29.9087   23.6338 C   0  0  0  0  0  0
  -16.7260  -28.6514   23.0344 C   0  0  0  0  0  0
  -26.4474  -31.6591   25.0710 C   0  0  0  0  0  0
  -25.3724  -31.3686   26.1444 C   0  0  0  0  0  0
  -27.0298  -30.3027   24.6116 C   0  0  0  0  0  0
  -27.6059  -32.4315   25.7441 C   0  0  0  0  0  0
  -27.5631  -37.1738   24.8415 C   0  0  0  0  0  0
  -21.4171  -29.3032   22.3712 N   0  0  0  0  0  0
  -26.4263  -37.3819   23.9478 N   0  0  0  0  0  0
  -24.6835  -31.0626   22.0978 N   0  0  0  0  0  0
  -23.4189  -28.8169   23.3049 O   0  0  0  0  0  0
  -28.3504  -26.5088   20.1871 O   0  0  0  0  0  0
  -26.5623  -34.8931   22.4688 O   0  0  0  0  0  0
  -23.5401  -32.1400   23.7371 O   0  0  0  0  0  0
  -29.5606  -18.1791   21.0367 C   0  0  0  0  0  0
  -29.2571  -19.4556   18.9829 C   0  0  0  0  0  0
  -29.5860  -17.0196   18.9046 C   0  0  0  0  0  0
  -29.3494  -19.4528   20.3929 C   0  0  0  0  0  0
  -29.7039  -16.9470   20.3096 C   0  0  0  0  0  0
  -29.3619  -18.2509   18.2538 C   0  0  0  0  0  0
  -29.8995  -23.3339   21.0199 C   0  0  0  0  0  0
  -31.0665  -23.2726   24.5518 C   0  0  0  0  0  0
  -30.4960  -23.5759   22.2108 C   0  0  0  0  0  0
  -30.4747  -22.8059   23.4408 C   0  0  0  0  0  0
  -29.7479  -24.4624   19.9771 C   0  0  0  0  0  0
  -27.3817  -24.1816   20.8267 C   0  0  0  0  0  0
  -27.5760  -22.6128   20.6886 C   0  0  0  0  0  0
  -28.3003  -25.0565   19.9000 C   0  0  1  0  0  0
  -29.3110  -20.7790   21.2364 C   0  0  0  0  0  0
  -29.8499  -15.6433   20.9459 N   0  0  0  0  0  0
  -29.0098  -22.1580   20.6362 N   0  3  2  0  0  0
  -29.2106  -18.2775   16.5354 Cl  0  0  0  0  0  0
  -31.4745  -12.4716   19.1657 H   0  0  0  0  0  0
  -30.3355  -11.3551   19.8727 H   0  0  0  0  0  0
  -29.7690  -11.7758   17.4586 H   0  0  0  0  0  0
  -29.6678  -13.4897   17.7604 H   0  0  0  0  0  0
  -27.8457  -11.3079   18.8288 H   0  0  0  0  0  0
  -27.3770  -12.6188   17.7786 H   0  0  0  0  0  0
  -27.6830  -14.2529   19.5445 H   0  0  0  0  0  0
  -28.6894  -12.0031   21.3527 H   0  0  0  0  0  0
  -28.4390  -13.6471   21.8612 H   0  0  0  0  0  0
  -25.2721   -9.5736   22.4706 H   0  0  0  0  0  0
  -23.9992   -7.4673   22.7462 H   0  0  0  0  0  0
  -21.0777   -8.8733   19.8976 H   0  0  0  0  0  0
  -22.3591  -10.9649   19.6122 H   0  0  0  0  0  0
  -21.2011   -7.6129   23.9687 H   0  0  0  0  0  0
  -21.1474   -6.0505   25.9065 H   0  0  0  0  0  0
  -22.0613   -2.7588   23.2817 H   0  0  0  0  0  0
  -22.4089  -11.9916   22.4746 H   0  0  0  0  0  0
  -21.1117  -13.1313   22.2544 H   0  0  0  0  0  0
  -24.6893  -15.8588   20.5224 H   0  0  0  0  0  0
  -26.3118  -15.6164   20.1227 H   0  0  0  0  0  0
  -26.7117  -32.5479   23.1101 H   0  0  0  0  0  0
  -25.0019  -33.9749   25.0419 H   0  0  0  0  0  0
  -22.7107  -31.3026   21.4017 H   0  0  0  0  0  0
  -23.3845  -35.9527   23.3099 H   0  0  0  0  0  0
  -24.3656  -36.9113   22.2093 H   0  0  0  0  0  0
  -23.7105  -37.6379   23.6768 H   0  0  0  0  0  0
  -26.0798  -31.5547   20.6019 H   0  0  0  0  0  0
  -26.8382  -30.8499   21.9958 H   0  0  0  0  0  0
  -28.1008  -28.9820   21.2034 H   0  0  0  0  0  0
  -25.9756  -25.9232   19.0098 H   0  0  0  0  0  0
  -23.9535  -27.2795   19.0594 H   0  0  0  0  0  0
  -23.7577  -30.5842   19.4057 H   0  0  0  0  0  0
  -22.7514  -29.2404   19.8609 H   0  0  0  0  0  0
  -25.1267  -36.1926   25.0836 H   0  0  0  0  0  0
  -20.9962  -28.3233   24.1419 H   0  0  0  0  0  0
  -20.5654  -26.2279   23.3613 H   0  0  0  0  0  0
  -21.6630  -26.7435   22.1206 H   0  0  0  0  0  0
  -19.6899  -25.6297   21.1237 H   0  0  0  0  0  0
  -19.6692  -27.3195   20.6740 H   0  0  0  0  0  0
  -17.4198  -26.6684   21.4015 H   0  0  0  0  0  0
  -18.0313  -26.0078   22.9010 H   0  0  0  0  0  0
  -19.7936  -30.7263   24.2281 H   0  0  0  0  0  0
  -17.5012  -31.6269   24.5162 H   0  0  0  0  0  0
  -15.5344  -30.2986   23.7670 H   0  0  0  0  0  0
  -15.8657  -28.0834   22.7049 H   0  0  0  0  0  0
  -24.5899  -30.7048   25.7743 H   0  0  0  0  0  0
  -24.8912  -32.2831   26.4927 H   0  0  0  0  0  0
  -25.8066  -30.8803   27.0176 H   0  0  0  0  0  0
  -26.2818  -29.6767   24.1235 H   0  0  0  0  0  0
  -27.4115  -29.7301   25.4574 H   0  0  0  0  0  0
  -27.8648  -30.4332   23.9228 H   0  0  0  0  0  0
  -27.2711  -33.3645   26.1989 H   0  0  0  0  0  0
  -28.3856  -32.6828   25.0232 H   0  0  0  0  0  0
  -28.0730  -31.8447   26.5359 H   0  0  0  0  0  0
  -28.2432  -38.0245   24.7826 H   0  0  0  0  0  0
  -28.1348  -36.2830   24.5776 H   0  0  0  0  0  0
  -27.2429  -37.0796   25.8805 H   0  0  0  0  0  0
  -20.9357  -29.8737   21.6899 H   0  0  0  0  0  0
  -26.0148  -38.2845   24.1689 H   0  0  0  0  0  0
  -29.6359  -18.1516   22.1161 H   0  0  0  0  0  0
  -29.1113  -20.3729   18.4307 H   0  0  0  0  0  0
  -29.6465  -16.1206   18.3081 H   0  0  0  0  0  0
  -31.0593  -22.7146   25.4769 H   0  0  0  0  0  0
  -31.5673  -24.2319   24.5608 H   0  0  0  0  0  0
  -30.9944  -24.5333   22.2832 H   0  0  0  0  0  0
  -29.9774  -21.8518   23.5150 H   0  0  0  0  0  0
  -30.0722  -24.0995   19.0006 H   0  0  0  0  0  0
  -30.4419  -25.2660   20.2285 H   0  0  0  0  0  0
  -27.5828  -24.4592   21.8635 H   0  0  0  0  0  0
  -26.3302  -24.4217   20.6806 H   0  0  0  0  0  0
  -27.0530  -22.2445   19.8056 H   0  0  0  0  0  0
  -27.0799  -22.1455   21.5398 H   0  0  0  0  0  0
  -27.9691  -24.9339   18.8666 H   0  0  0  0  0  0
  -30.3275  -20.8161   21.6258 H   0  0  0  0  0  0
  -28.6672  -20.6073   22.0992 H   0  0  0  0  0  0
  -29.0641  -15.3641   21.5136 H   0  0  0  0  0  0
  -29.1846  -22.0119   19.6549 H   0  0  0  0  0  0
  1 25  1  0  0  0
  1 30  2  0  0  0
  1 86  1  0  0  0
  2  3  1  0  0  0
  2 25  1  0  0  0
  2 89  1  0  0  0
  2 90  1  0  0  0
  3  4  1  0  0  0
  3 91  1  0  0  0
  3 92  1  0  0  0
  4  5  1  0  0  0
  4 93  1  0  0  0
  4 94  1  0  0  0
  5  6  1  0  0  0
  5 26  1  0  0  0
  5 95  1  0  0  0
  6 25  1  0  0  0
  6 96  1  0  0  0
  6 97  1  0  0  0
  7  8  2  0  0  0
  7 26  1  0  0  0
  7 29  1  0  0  0
  8  9  1  0  0  0
  8 22  1  0  0  0
  9 10  1  0  0  0
  9 27  2  0  0  0
 10 11  2  0  0  0
 10 15  1  0  0  0
 11 12  1  0  0  0
 11 98  1  0  0  0
 12 13  2  0  0  0
 12 99  1  0  0  0
 13 14  1  0  0  0
 13 31  1  0  0  0
 14 15  2  0  0  0
 14100  1  0  0  0
 15101  1  0  0  0
 16 17  2  0  0  0
 16 21  1  0  0  0
 16 31  1  0  0  0
 17 18  1  0  0  0
 17102  1  0  0  0
 18 19  2  0  0  0
 18103  1  0  0  0
 19 20  1  0  0  0
 19 24  1  0  0  0
 20 21  2  0  0  0
 20104  1  0  0  0
 21 23  1  0  0  0
 22 28  1  0  0  0
 22 32  2  0  0  0
 26 27  1  0  0  0
 28105  1  0  0  0
 28106  1  0  0  0
 29107  1  0  0  0
 29108  1  0  0  0
 33 34  1  0  0  0
 33 66  1  0  0  0
 33 70  2  0  0  0
 34 36  1  0  0  0
 34 59  1  0  0  0
 34109  1  0  0  0
 35 44  2  0  0  0
 35 45  1  0  0  0
 35 68  1  0  0  0
 36 56  1  0  0  0
 36110  1  0  0  0
 37 39  1  0  0  0
 37 47  1  0  0  0
 37 66  1  0  0  0
 37111  1  0  0  0
 38 43  2  0  0  0
 38 46  1  0  0  0
 38 47  1  0  0  0
 39 64  1  0  0  0
 39 67  2  0  0  0
 40 52  1  0  0  0
 40 53  2  0  0  0
 40 58  1  0  0  0
 41112  1  0  0  0
 41113  1  0  0  0
 41114  1  0  0  0
 41 48  1  0  0  0
 42 43  1  0  0  0
 42 66  1  0  0  0
 42115  1  0  0  0
 42116  1  0  0  0
 43 44  1  0  0  0
 44117  1  0  0  0
 45 46  2  0  0  0
 45118  1  0  0  0
 46119  1  0  0  0
 47120  1  0  0  0
 47121  1  0  0  0
 48 56  1  0  0  0
 48 65  1  0  0  0
 48122  1  0  0  0
 49 50  1  0  0  0
 49 53  1  0  0  0
 49 64  1  0  0  0
 49123  1  0  0  0
 50 51  1  0  0  0
 50124  1  0  0  0
 50125  1  0  0  0
 51 52  1  0  0  0
 51126  1  0  0  0
 51127  1  0  0  0
 52128  1  0  0  0
 52129  1  0  0  0
 53 54  1  0  0  0
 54 55  2  0  0  0
 54130  1  0  0  0
 55 57  1  0  0  0
 55131  1  0  0  0
 56 69  2  0  0  0
 57 58  2  0  0  0
 57132  1  0  0  0
 58133  1  0  0  0
 59 60  1  0  0  0
 59 61  1  0  0  0
 59 62  1  0  0  0
 60134  1  0  0  0
 60135  1  0  0  0
 60136  1  0  0  0
 61137  1  0  0  0
 61138  1  0  0  0
 61139  1  0  0  0
 62140  1  0  0  0
 62141  1  0  0  0
 62142  1  0  0  0
 63 65  1  0  0  0
 63143  1  0  0  0
 63144  1  0  0  0
 63145  1  0  0  0
 64146  1  0  0  0
 65147  1  0  0  0
 68 84  1  0  0  0
 71 74  2  0  0  0
 71 75  1  0  0  0
 71148  1  0  0  0
 72 74  1  0  0  0
 72 76  2  0  0  0
 72149  1  0  0  0
 73 75  2  0  0  0
 73 76  1  0  0  0
 73150  1  0  0  0
 74 85  1  0  0  0
 75 86  1  0  0  0
 76 88  1  0  0  0
 77 79  2  0  0  0
 77 81  1  0  0  0
 77 87  1  0  0  0
 78 80  2  0  0  0
 78151  1  0  0  0
 78152  1  0  0  0
 79 80  1  0  0  0
 79153  1  0  0  0
 80154  1  0  0  0
 81 84  1  0  0  0
 81155  1  0  0  0
 81156  1  0  0  0
 82 83  1  0  0  0
 82 84  1  0  0  0
 82157  1  0  0  0
 82158  1  0  0  0
 83 87  1  0  0  0
 83159  1  0  0  0
 83160  1  0  0  0
 84161  1  0  0  0
 85162  1  0  0  0
 85163  1  0  0  0
 85 87  1  0  0  0
 86164  1  0  0  0
 87165  1  0  0  0
M  CHG  1  87   1
M  ISO  4   1 100  68 101  84 101  86 100
M  END
> <chiral flag>
0

> <version>
0

> <s_m_source_file>
/data/baiqing/PycharmProjects/Reinvent-master-3.2/result/LINK_invent/BTK/process_docking_weight1_custom_product_contain_oxygen_bond_distance_aromatic_linkinvent_7_9_3/rearranged_h_0046.sdf

> <i_m_source_file_index>
16

> <r_mmod_Potential_Energy-OPLS-2005>
13.686785697937

> <r_mmod_Stretch_Energy-OPLS-2005>
81.5335845947266

> <r_mmod_Bend_Energy-OPLS-2005>
162.448959350586

> <r_mmod_Torsional_Energy-OPLS-2005>
280.873596191406

> <r_mmod_Improper_Torsional_Energy-OPLS-2005>
6.14129686355591

> <r_mmod_Van_der_Waal_Energy-OPLS-2005>
155.025436401367

> <r_mmod_Electrostatic_Energy-OPLS-2005>
-249.676940917969

> <r_mmod_Solvation_Energy-OPLS-2005>
-462.515075683594

> <b_mmod_Minimization_Converged-OPLS-2005>
0

> <r_mmod_RMS_Derivative-OPLS-2005>
3.74050855636597

$$$$
16
                    3D
 Structure written by MMmdl.
161170  0  0  1  0            999 V2000
  -30.6198  -14.6766   20.4838 C   0  0  0  0  0  0
  -30.4378  -12.4113   19.4611 C   0  0  0  0  0  0
  -29.5106  -12.5039   18.2288 C   0  0  0  0  0  0
  -28.0337  -12.3390   18.6393 C   0  0  0  0  0  0
  -27.6499  -13.2199   19.8577 C   0  0  2  0  0  0
  -28.6951  -13.1046   20.9901 C   0  0  0  0  0  0
  -25.2556  -13.8186   20.5682 C   0  0  0  0  0  0
  -24.1832  -13.0445   20.9198 C   0  0  0  0  0  0
  -24.6398  -11.6915   20.8739 C   0  0  0  0  0  0
  -23.9067  -10.4295   21.0403 C   0  0  0  0  0  0
  -24.3620   -9.4207   21.9183 C   0  0  0  0  0  0
  -23.6286   -8.2244   22.0751 C   0  0  0  0  0  0
  -22.4270   -8.0286   21.3541 C   0  0  0  0  0  0
  -21.9902   -9.0261   20.4647 C   0  0  0  0  0  0
  -22.7230  -10.2140   20.3057 C   0  0  0  0  0  0
  -21.6858   -6.0730   22.5273 C   0  0  0  0  0  0
  -21.4022   -6.5639   23.8204 C   0  0  0  0  0  0
  -21.3656   -5.6791   24.9166 C   0  0  0  0  0  0
  -21.6044   -4.3056   24.7218 C   0  0  0  0  0  0
  -21.8823   -3.8142   23.4342 C   0  0  0  0  0  0
  -21.9191   -4.6958   22.3397 C   0  0  0  0  0  0
  -22.7854  -13.5237   21.1861 C   0  0  0  0  0  0
  -22.1665   -4.2138   21.0975 F   0  0  0  0  0  0
  -21.5617   -3.4542   25.7734 F   0  0  0  0  0  0
  -30.0087  -13.4484   20.4218 N   0  0  0  0  0  0
  -26.2972  -12.9364   20.3289 N   0  0  0  0  0  0
  -25.9324  -11.6519   20.5747 N   0  0  0  0  0  0
  -22.0493  -12.8228   22.0416 N   0  0  0  0  0  0
  -25.4288  -15.1908   20.4089 N   0  0  0  0  0  0
  -31.7927  -14.8172   20.1259 O   0  0  0  0  0  0
  -21.6639   -6.8874   21.4234 O   0  0  0  0  0  0
  -22.3534  -14.5537   20.6699 O   0  0  0  0  0  0
  -24.6271  -31.8602   23.2024 C   0  0  0  0  0  0
  -25.9110  -32.4784   23.8365 C   0  0  1  0  0  0
  -27.2258  -27.3121   20.1227 C   0  0  0  0  0  0
  -25.5926  -33.8583   24.2288 N   0  0  0  0  0  0
  -23.4219  -30.4848   21.5450 C   0  0  2  0  0  0
  -24.8701  -28.9428   20.1099 C   0  0  0  0  0  0
  -22.7491  -29.4624   22.4930 C   0  0  0  0  0  0
  -18.0296  -28.1379   22.8491 C   0  0  0  0  0  0
  -24.1491  -36.7292   23.2632 C   0  0  0  0  0  0
  -25.9645  -30.7910   21.3757 C   0  0  0  0  0  0
  -26.0399  -29.4181   20.7166 C   0  0  0  0  0  0
  -27.2206  -28.6154   20.7115 C   0  0  0  0  0  0
  -26.0315  -26.8967   19.4873 C   0  0  0  0  0  0
  -24.8686  -27.6882   19.4854 C   0  0  0  0  0  0
  -23.6385  -29.8235   20.1590 C   0  0  0  0  0  0
  -25.4106  -36.3087   24.0336 C   0  0  1  0  0  0
  -20.5900  -28.3688   23.1275 C   0  0  2  0  0  0
  -20.6792  -26.9410   22.5404 C   0  0  0  0  0  0
  -19.5758  -26.6384   21.5214 C   0  0  0  0  0  0
  -18.1942  -26.7921   22.1631 C   0  0  0  0  0  0
  -19.1553  -28.8850   23.2879 C   0  0  0  0  0  0
  -18.9471  -30.1450   23.8896 C   0  0  0  0  0  0
  -17.6469  -30.6574   24.0566 C   0  0  0  0  0  0
  -25.9050  -34.9457   23.5117 C   0  0  0  0  0  0
  -16.5362  -29.9076   23.6324 C   0  0  0  0  0  0
  -16.7285  -28.6498   23.0344 C   0  0  0  0  0  0
  -26.4497  -31.6580   25.0725 C   0  0  0  0  0  0
  -25.3738  -31.3735   26.1463 C   0  0  0  0  0  0
  -27.0323  -30.2996   24.6178 C   0  0  0  0  0  0
  -27.6073  -32.4302   25.7478 C   0  0  0  0  0  0
  -27.5584  -37.1789   24.8448 C   0  0  0  0  0  0
  -21.4202  -29.3042   22.3665 N   0  0  0  0  0  0
  -26.4282  -37.3783   23.9428 N   0  0  0  0  0  0
  -24.6897  -31.0615   22.0982 N   0  0  0  0  0  0
  -23.4209  -28.8171   23.3010 O   0  0  0  0  0  0
  -28.3358  -26.4480   20.1910 O   0  0  0  0  0  0
  -26.5621  -34.8921   22.4683 O   0  0  0  0  0  0
  -23.5427  -32.1402   23.7343 O   0  0  0  0  0  0
  -31.1143  -17.9062   20.3060 C   0  0  0  0  0  0
  -28.8235  -18.0353   20.9791 C   0  0  0  0  0  0
  -31.1732  -19.3374   20.2609 C   0  0  0  0  0  0
  -28.8641  -19.4685   20.9485 C   0  0  0  0  0  0
  -30.0481  -20.1736   20.5777 C   0  0  0  0  0  0
  -29.9402  -17.2058   20.6775 C   0  0  0  0  0  0
  -29.0617  -24.0377   20.9044 C   0  0  0  0  0  0
  -28.2106  -24.3305   18.7362 C   0  0  0  0  0  0
  -28.5698  -22.8442   19.0012 C   0  0  0  0  0  0
  -28.0898  -24.9780   20.1232 C   0  0  2  0  0  0
  -32.5168  -19.9551   19.9021 C   0  0  0  0  0  0
  -27.6194  -20.2249   21.3811 C   0  0  0  0  0  0
  -30.2289  -21.7559   20.6738 C   0  0  0  0  0  0
  -29.2028  -22.8075   20.3172 N   0  0  0  0  0  0
  -29.8042  -15.7422   20.7853 N   0  0  0  0  0  0
  -29.6337  -24.3960   21.9391 O   0  0  0  0  0  0
  -31.4793  -12.5345   19.1590 H   0  0  0  0  0  0
  -30.3741  -11.4229   19.9192 H   0  0  0  0  0  0
  -29.7790  -11.7399   17.4976 H   0  0  0  0  0  0
  -29.6500  -13.4662   17.7327 H   0  0  0  0  0  0
  -27.8767  -11.2869   18.8808 H   0  0  0  0  0  0
  -27.3799  -12.5562   17.7942 H   0  0  0  0  0  0
  -27.6581  -14.2499   19.5017 H   0  0  0  0  0  0
  -28.7137  -12.0922   21.3960 H   0  0  0  0  0  0
  -28.4348  -13.7558   21.8261 H   0  0  0  0  0  0
  -25.2769   -9.5679   22.4753 H   0  0  0  0  0  0
  -23.9992   -7.4640   22.7478 H   0  0  0  0  0  0
  -21.0823   -8.8790   19.8961 H   0  0  0  0  0  0
  -22.3691  -10.9686   19.6170 H   0  0  0  0  0  0
  -21.2036   -7.6151   23.9709 H   0  0  0  0  0  0
  -21.1466   -6.0522   25.9068 H   0  0  0  0  0  0
  -22.0604   -2.7599   23.2852 H   0  0  0  0  0  0
  -22.4107  -11.9885   22.4805 H   0  0  0  0  0  0
  -21.1113  -13.1261   22.2623 H   0  0  0  0  0  0
  -24.6634  -15.8471   20.5174 H   0  0  0  0  0  0
  -26.2667  -15.6211   20.0403 H   0  0  0  0  0  0
  -26.7184  -32.5458   23.1117 H   0  0  0  0  0  0
  -25.0073  -33.9739   25.0436 H   0  0  0  0  0  0
  -22.7155  -31.3056   21.4032 H   0  0  0  0  0  0
  -23.3763  -35.9613   23.3267 H   0  0  0  0  0  0
  -24.3587  -36.8932   22.2048 H   0  0  0  0  0  0
  -23.7231  -37.6485   23.6663 H   0  0  0  0  0  0
  -26.0962  -31.5577   20.6105 H   0  0  0  0  0  0
  -26.8447  -30.8379   22.0059 H   0  0  0  0  0  0
  -28.1152  -28.9754   21.2016 H   0  0  0  0  0  0
  -25.9614  -25.9401   18.9962 H   0  0  0  0  0  0
  -23.9738  -27.3200   19.0024 H   0  0  0  0  0  0
  -23.7588  -30.6034   19.4057 H   0  0  0  0  0  0
  -22.7587  -29.2555   19.8524 H   0  0  0  0  0  0
  -25.1279  -36.1936   25.0828 H   0  0  0  0  0  0
  -20.9992  -28.3266   24.1394 H   0  0  0  0  0  0
  -20.5690  -26.2302   23.3607 H   0  0  0  0  0  0
  -21.6661  -26.7434   22.1199 H   0  0  0  0  0  0
  -19.6920  -25.6300   21.1228 H   0  0  0  0  0  0
  -19.6681  -27.3211   20.6758 H   0  0  0  0  0  0
  -17.4207  -26.6670   21.4036 H   0  0  0  0  0  0
  -18.0335  -26.0057   22.9019 H   0  0  0  0  0  0
  -19.7945  -30.7274   24.2258 H   0  0  0  0  0  0
  -17.5018  -31.6246   24.5180 H   0  0  0  0  0  0
  -15.5359  -30.2980   23.7633 H   0  0  0  0  0  0
  -15.8691  -28.0814   22.7048 H   0  0  0  0  0  0
  -24.5879  -30.7119   25.7802 H   0  0  0  0  0  0
  -24.8972  -32.2912   26.4919 H   0  0  0  0  0  0
  -25.8058  -30.8878   27.0221 H   0  0  0  0  0  0
  -26.2887  -29.6750   24.1206 H   0  0  0  0  0  0
  -27.4023  -29.7248   25.4682 H   0  0  0  0  0  0
  -27.8767  -30.4281   23.9400 H   0  0  0  0  0  0
  -27.2705  -33.3608   26.2058 H   0  0  0  0  0  0
  -28.3869  -32.6841   25.0283 H   0  0  0  0  0  0
  -28.0751  -31.8413   26.5379 H   0  0  0  0  0  0
  -28.2571  -38.0120   24.7551 H   0  0  0  0  0  0
  -28.1117  -36.2655   24.6196 H   0  0  0  0  0  0
  -27.2315  -37.1336   25.8852 H   0  0  0  0  0  0
  -20.9383  -29.8758   21.6873 H   0  0  0  0  0  0
  -26.0159  -38.2854   24.1466 H   0  0  0  0  0  0
  -32.0067  -17.3426   20.0715 H   0  0  0  0  0  0
  -27.8989  -17.5582   21.2736 H   0  0  0  0  0  0
  -27.3048  -24.4229   18.1386 H   0  0  0  0  0  0
  -29.0173  -24.8133   18.1830 H   0  0  0  0  0  0
  -29.2258  -22.4440   18.2267 H   0  0  0  0  0  0
  -27.6655  -22.2364   19.0206 H   0  0  0  0  0  0
  -27.1134  -24.7525   20.5535 H   0  0  0  0  0  0
  -33.2722  -19.1969   19.6939 H   0  0  0  0  0  0
  -32.8906  -20.5671   20.7239 H   0  0  0  0  0  0
  -32.4351  -20.5766   19.0101 H   0  0  0  0  0  0
  -26.9132  -19.5701   21.8935 H   0  0  0  0  0  0
  -27.1067  -20.6474   20.5191 H   0  0  0  0  0  0
  -27.8678  -21.0337   22.0683 H   0  0  0  0  0  0
  -31.0874  -22.0453   20.0720 H   0  0  0  0  0  0
  -30.5469  -21.9412   21.7002 H   0  0  0  0  0  0
  -28.8837  -15.4375   21.0630 H   0  0  0  0  0  0
  1 25  1  0  0  0
  1 30  2  0  0  0
  1 85  1  0  0  0
  2  3  1  0  0  0
  2 25  1  0  0  0
  2 87  1  0  0  0
  2 88  1  0  0  0
  3  4  1  0  0  0
  3 89  1  0  0  0
  3 90  1  0  0  0
  4  5  1  0  0  0
  4 91  1  0  0  0
  4 92  1  0  0  0
  5  6  1  0  0  0
  5 26  1  0  0  0
  5 93  1  0  0  0
  6 25  1  0  0  0
  6 94  1  0  0  0
  6 95  1  0  0  0
  7  8  2  0  0  0
  7 26  1  0  0  0
  7 29  1  0  0  0
  8  9  1  0  0  0
  8 22  1  0  0  0
  9 10  1  0  0  0
  9 27  2  0  0  0
 10 11  2  0  0  0
 10 15  1  0  0  0
 11 12  1  0  0  0
 11 96  1  0  0  0
 12 13  2  0  0  0
 12 97  1  0  0  0
 13 14  1  0  0  0
 13 31  1  0  0  0
 14 15  2  0  0  0
 14 98  1  0  0  0
 15 99  1  0  0  0
 16 17  2  0  0  0
 16 21  1  0  0  0
 16 31  1  0  0  0
 17 18  1  0  0  0
 17100  1  0  0  0
 18 19  2  0  0  0
 18101  1  0  0  0
 19 20  1  0  0  0
 19 24  1  0  0  0
 20 21  2  0  0  0
 20102  1  0  0  0
 21 23  1  0  0  0
 22 28  1  0  0  0
 22 32  2  0  0  0
 26 27  1  0  0  0
 28103  1  0  0  0
 28104  1  0  0  0
 29105  1  0  0  0
 29106  1  0  0  0
 33 34  1  0  0  0
 33 66  1  0  0  0
 33 70  2  0  0  0
 34 36  1  0  0  0
 34 59  1  0  0  0
 34107  1  0  0  0
 35 44  2  0  0  0
 35 45  1  0  0  0
 35 68  1  0  0  0
 36 56  1  0  0  0
 36108  1  0  0  0
 37 39  1  0  0  0
 37 47  1  0  0  0
 37 66  1  0  0  0
 37109  1  0  0  0
 38 43  2  0  0  0
 38 46  1  0  0  0
 38 47  1  0  0  0
 39 64  1  0  0  0
 39 67  2  0  0  0
 40 52  1  0  0  0
 40 53  2  0  0  0
 40 58  1  0  0  0
 41110  1  0  0  0
 41111  1  0  0  0
 41112  1  0  0  0
 41 48  1  0  0  0
 42 43  1  0  0  0
 42 66  1  0  0  0
 42113  1  0  0  0
 42114  1  0  0  0
 43 44  1  0  0  0
 44115  1  0  0  0
 45 46  2  0  0  0
 45116  1  0  0  0
 46117  1  0  0  0
 47118  1  0  0  0
 47119  1  0  0  0
 48 56  1  0  0  0
 48 65  1  0  0  0
 48120  1  0  0  0
 49 50  1  0  0  0
 49 53  1  0  0  0
 49 64  1  0  0  0
 49121  1  0  0  0
 50 51  1  0  0  0
 50122  1  0  0  0
 50123  1  0  0  0
 51 52  1  0  0  0
 51124  1  0  0  0
 51125  1  0  0  0
 52126  1  0  0  0
 52127  1  0  0  0
 53 54  1  0  0  0
 54 55  2  0  0  0
 54128  1  0  0  0
 55 57  1  0  0  0
 55129  1  0  0  0
 56 69  2  0  0  0
 57 58  2  0  0  0
 57130  1  0  0  0
 58131  1  0  0  0
 59 60  1  0  0  0
 59 61  1  0  0  0
 59 62  1  0  0  0
 60132  1  0  0  0
 60133  1  0  0  0
 60134  1  0  0  0
 61135  1  0  0  0
 61136  1  0  0  0
 61137  1  0  0  0
 62138  1  0  0  0
 62139  1  0  0  0
 62140  1  0  0  0
 63 65  1  0  0  0
 63141  1  0  0  0
 63142  1  0  0  0
 63143  1  0  0  0
 64144  1  0  0  0
 65145  1  0  0  0
 68 80  1  0  0  0
 71 73  2  0  0  0
 71 76  1  0  0  0
 71146  1  0  0  0
 72 74  1  0  0  0
 72 76  2  0  0  0
 72147  1  0  0  0
 73 75  1  0  0  0
 73 81  1  0  0  0
 74 75  2  0  0  0
 74 82  1  0  0  0
 75 83  1  0  0  0
 76 85  1  0  0  0
 77 80  1  0  0  0
 77 84  1  0  0  0
 77 86  2  0  0  0
 78 79  1  0  0  0
 78 80  1  0  0  0
 78148  1  0  0  0
 78149  1  0  0  0
 79 84  1  0  0  0
 79150  1  0  0  0
 79151  1  0  0  0
 80152  1  0  0  0
 81153  1  0  0  0
 81154  1  0  0  0
 81155  1  0  0  0
 82156  1  0  0  0
 82157  1  0  0  0
 82158  1  0  0  0
 83 84  1  0  0  0
 83159  1  0  0  0
 83160  1  0  0  0
 85161  1  0  0  0
M  ISO  4   1 100  68 101  80 101  85 100
M  END
> <chiral flag>
0

> <version>
0

> <s_m_source_file>
/data/baiqing/PycharmProjects/Reinvent-master-3.2/result/LINK_invent/BTK/process_docking_weight1_custom_product_contain_oxygen_bond_distance_aromatic_linkinvent_7_9_3/rearranged_h_0046.sdf

> <i_m_source_file_index>
17

> <r_mmod_Potential_Energy-OPLS-2005>
141.558731079102

> <r_mmod_Stretch_Energy-OPLS-2005>
89.8889083862305

> <r_mmod_Bend_Energy-OPLS-2005>
191.262664794922

> <r_mmod_Torsional_Energy-OPLS-2005>
237.815093994141

> <r_mmod_Improper_Torsional_Energy-OPLS-2005>
6.08611488342285

> <r_mmod_Van_der_Waal_Energy-OPLS-2005>
141.460433959961

> <r_mmod_Electrostatic_Energy-OPLS-2005>
-353.1650390625

> <r_mmod_Solvation_Energy-OPLS-2005>
-230.054473876953

> <b_mmod_Minimization_Converged-OPLS-2005>
0

> <r_mmod_RMS_Derivative-OPLS-2005>
1.76518762111664

$$$$
17
                    3D
 Structure written by MMmdl.
158167  0  0  1  0            999 V2000
  -30.6042  -14.7803   20.4938 C   0  0  0  0  0  0
  -30.4414  -12.4795   19.5092 C   0  0  0  0  0  0
  -29.5246  -12.4544   18.2641 C   0  0  0  0  0  0
  -28.0532  -12.2640   18.6857 C   0  0  0  0  0  0
  -27.6289  -13.2231   19.8285 C   0  0  2  0  0  0
  -28.6634  -13.2093   20.9675 C   0  0  0  0  0  0
  -25.2442  -13.8210   20.5738 C   0  0  0  0  0  0
  -24.1717  -13.0401   20.9229 C   0  0  0  0  0  0
  -24.6292  -11.6936   20.8756 C   0  0  0  0  0  0
  -23.8942  -10.4332   21.0431 C   0  0  0  0  0  0
  -24.3563   -9.4237   21.9168 C   0  0  0  0  0  0
  -23.6288   -8.2249   22.0714 C   0  0  0  0  0  0
  -22.4251   -8.0287   21.3530 C   0  0  0  0  0  0
  -21.9882   -9.0220   20.4616 C   0  0  0  0  0  0
  -22.7143  -10.2133   20.3031 C   0  0  0  0  0  0
  -21.6836   -6.0731   22.5297 C   0  0  0  0  0  0
  -21.4026   -6.5651   23.8229 C   0  0  0  0  0  0
  -21.3651   -5.6793   24.9192 C   0  0  0  0  0  0
  -21.5998   -4.3045   24.7217 C   0  0  0  0  0  0
  -21.8821   -3.8135   23.4349 C   0  0  0  0  0  0
  -21.9222   -4.6981   22.3414 C   0  0  0  0  0  0
  -22.7767  -13.5219   21.1929 C   0  0  0  0  0  0
  -22.1664   -4.2152   21.0987 F   0  0  0  0  0  0
  -21.5644   -3.4546   25.7747 F   0  0  0  0  0  0
  -29.9563  -13.5717   20.3896 N   0  0  0  0  0  0
  -26.2828  -12.9357   20.3193 N   0  0  0  0  0  0
  -25.9218  -11.6490   20.5744 N   0  0  0  0  0  0
  -22.0384  -12.8185   22.0477 N   0  0  0  0  0  0
  -25.4096  -15.1892   20.4324 N   0  0  0  0  0  0
  -31.8191  -14.8168   20.2882 O   0  0  0  0  0  0
  -21.6598   -6.8875   21.4245 O   0  0  0  0  0  0
  -22.3450  -14.5471   20.6763 O   0  0  0  0  0  0
  -24.6360  -31.8522   23.1920 C   0  0  0  0  0  0
  -25.9164  -32.4721   23.8286 C   0  0  1  0  0  0
  -27.2223  -27.2153   20.1871 C   0  0  0  0  0  0
  -25.5951  -33.8527   24.2213 N   0  0  0  0  0  0
  -23.4391  -30.4736   21.5235 C   0  0  2  0  0  0
  -24.8873  -28.9130   20.1133 C   0  0  0  0  0  0
  -22.7520  -29.4764   22.4816 C   0  0  0  0  0  0
  -18.0410  -28.1258   22.8493 C   0  0  0  0  0  0
  -24.1481  -36.7280   23.2634 C   0  0  0  0  0  0
  -25.9826  -30.7589   21.3792 C   0  0  0  0  0  0
  -26.0544  -29.3723   20.7369 C   0  0  0  0  0  0
  -27.2200  -28.5346   20.7707 C   0  0  0  0  0  0
  -26.0357  -26.8466   19.5032 C   0  0  0  0  0  0
  -24.8877  -27.6609   19.4832 C   0  0  0  0  0  0
  -23.6577  -29.8005   20.1440 C   0  0  0  0  0  0
  -25.4104  -36.3037   24.0313 C   0  0  1  0  0  0
  -20.5970  -28.3906   23.1237 C   0  0  2  0  0  0
  -20.7001  -26.9850   22.4878 C   0  0  0  0  0  0
  -19.5969  -26.7497   21.4480 C   0  0  0  0  0  0
  -18.2326  -26.7998   22.1360 C   0  0  0  0  0  0
  -19.1526  -28.8941   23.2946 C   0  0  0  0  0  0
  -18.9103  -30.1464   23.9164 C   0  0  0  0  0  0
  -17.5921  -30.6269   24.0661 C   0  0  0  0  0  0
  -25.9067  -34.9423   23.5065 C   0  0  0  0  0  0
  -16.5060  -29.8679   23.5996 C   0  0  0  0  0  0
  -16.7334  -28.6202   23.0011 C   0  0  0  0  0  0
  -26.4518  -31.6568   25.0698 C   0  0  0  0  0  0
  -25.3761  -31.3750   26.1433 C   0  0  0  0  0  0
  -27.0416  -30.2998   24.6244 C   0  0  0  0  0  0
  -27.6079  -32.4326   25.7454 C   0  0  0  0  0  0
  -27.5585  -37.1788   24.8463 C   0  0  0  0  0  0
  -21.4211  -29.3277   22.3599 N   0  0  0  0  0  0
  -26.4291  -37.3742   23.9405 N   0  0  0  0  0  0
  -24.7040  -31.0516   22.0874 N   0  0  0  0  0  0
  -23.4213  -28.8428   23.3012 O   0  0  0  0  0  0
  -28.2914  -26.2803   20.3238 O   0  0  0  0  0  0
  -26.5642  -34.8939   22.4648 O   0  0  0  0  0  0
  -23.5492  -32.1372   23.7165 O   0  0  0  0  0  0
  -27.4443  -18.0659   22.1007 C   0  0  0  0  0  0
  -27.8987  -19.3844   21.8900 C   0  0  0  0  0  0
  -28.1604  -16.9432   21.6230 C   0  0  0  0  0  0
  -29.8060  -18.4751   20.7035 C   0  0  0  0  0  0
  -29.1074  -19.6495   21.2171 C   0  0  0  0  0  0
  -29.3520  -17.1026   20.8845 C   0  0  0  0  0  0
  -28.8763  -23.6949   20.9792 C   0  0  0  0  0  0
  -27.9029  -22.9844   18.3116 C   0  0  0  0  0  0
  -28.3169  -24.4285   18.6468 C   0  0  0  0  0  0
  -28.2010  -21.9011   19.3725 C   0  0  0  0  0  0
  -28.0565  -24.7855   20.1139 C   0  0  1  0  0  0
  -29.6497  -21.1592   21.1902 C   0  0  0  0  0  0
  -28.8676  -22.3397   20.5998 N   0  0  0  0  0  0
  -29.9021  -15.9339   20.1592 N   0  0  0  0  0  0
  -29.4911  -24.0808   21.9800 O   0  0  0  0  0  0
  -31.4807  -12.6170   19.2063 H   0  0  0  0  0  0
  -30.4136  -11.5260   20.0403 H   0  0  0  0  0  0
  -29.8320  -11.6466   17.5941 H   0  0  0  0  0  0
  -29.6348  -13.3774   17.6947 H   0  0  0  0  0  0
  -27.9524  -11.2304   19.0333 H   0  0  0  0  0  0
  -27.3923  -12.3517   17.8247 H   0  0  0  0  0  0
  -27.6073  -14.2219   19.3926 H   0  0  0  0  0  0
  -28.7104  -12.2205   21.4189 H   0  0  0  0  0  0
  -28.3918  -13.9103   21.7573 H   0  0  0  0  0  0
  -25.2696   -9.5781   22.4730 H   0  0  0  0  0  0
  -23.9995   -7.4657   22.7463 H   0  0  0  0  0  0
  -21.0782   -8.8665   19.8980 H   0  0  0  0  0  0
  -22.3497  -10.9640   19.6143 H   0  0  0  0  0  0
  -21.1963   -7.6150   23.9734 H   0  0  0  0  0  0
  -21.1477   -6.0514   25.9089 H   0  0  0  0  0  0
  -22.0592   -2.7601   23.2830 H   0  0  0  0  0  0
  -22.3948  -11.9848   22.4970 H   0  0  0  0  0  0
  -21.1014  -13.1329   22.2645 H   0  0  0  0  0  0
  -24.6419  -15.8339   20.5914 H   0  0  0  0  0  0
  -26.2640  -15.6586   20.1507 H   0  0  0  0  0  0
  -26.7268  -32.5376   23.1046 H   0  0  0  0  0  0
  -25.0013  -33.9640   25.0295 H   0  0  0  0  0  0
  -22.7481  -31.2995   21.3743 H   0  0  0  0  0  0
  -23.3739  -35.9627   23.3261 H   0  0  0  0  0  0
  -24.3572  -36.8940   22.2072 H   0  0  0  0  0  0
  -23.7292  -37.6493   23.6678 H   0  0  0  0  0  0
  -26.1411  -31.5154   20.6058 H   0  0  0  0  0  0
  -26.8514  -30.8001   22.0241 H   0  0  0  0  0  0
  -28.0951  -28.8748   21.3072 H   0  0  0  0  0  0
  -25.9523  -25.8957   19.0002 H   0  0  0  0  0  0
  -24.0007  -27.3085   18.9788 H   0  0  0  0  0  0
  -23.7903  -30.5741   19.3882 H   0  0  0  0  0  0
  -22.7742  -29.2358   19.8348 H   0  0  0  0  0  0
  -25.1294  -36.1850   25.0815 H   0  0  0  0  0  0
  -21.0063  -28.3368   24.1343 H   0  0  0  0  0  0
  -21.6850  -26.8440   22.0375 H   0  0  0  0  0  0
  -20.6323  -26.2107   23.2531 H   0  0  0  0  0  0
  -19.6399  -27.5501   20.7071 H   0  0  0  0  0  0
  -19.7483  -25.8095   20.9211 H   0  0  0  0  0  0
  -18.1271  -25.9765   22.8434 H   0  0  0  0  0  0
  -17.4468  -26.6950   21.3862 H   0  0  0  0  0  0
  -19.7277  -30.7427   24.2931 H   0  0  0  0  0  0
  -17.4068  -31.5844   24.5392 H   0  0  0  0  0  0
  -15.4909  -30.2403   23.6754 H   0  0  0  0  0  0
  -15.9085  -28.0405   22.6019 H   0  0  0  0  0  0
  -24.5895  -30.7117   25.7784 H   0  0  0  0  0  0
  -24.9003  -32.2943   26.4867 H   0  0  0  0  0  0
  -25.8098  -30.8952   27.0206 H   0  0  0  0  0  0
  -26.3049  -29.6689   24.1260 H   0  0  0  0  0  0
  -27.4083  -29.7311   25.4790 H   0  0  0  0  0  0
  -27.8893  -30.4262   23.9506 H   0  0  0  0  0  0
  -27.2656  -33.3595   26.2040 H   0  0  0  0  0  0
  -28.3843  -32.6930   25.0252 H   0  0  0  0  0  0
  -28.0765  -31.8464   26.5359 H   0  0  0  0  0  0
  -28.2563  -38.0111   24.7486 H   0  0  0  0  0  0
  -28.1101  -36.2651   24.6255 H   0  0  0  0  0  0
  -27.2291  -37.1374   25.8856 H   0  0  0  0  0  0
  -20.9553  -29.8419   21.6225 H   0  0  0  0  0  0
  -26.0140  -38.2797   24.1439 H   0  0  0  0  0  0
  -26.5195  -17.9101   22.6437 H   0  0  0  0  0  0
  -27.2969  -20.1901   22.2883 H   0  0  0  0  0  0
  -27.7354  -15.9679   21.7868 H   0  0  0  0  0  0
  -30.7229  -18.6415   20.1478 H   0  0  0  0  0  0
  -28.4067  -22.6941   17.3900 H   0  0  0  0  0  0
  -26.8301  -22.9645   18.0993 H   0  0  0  0  0  0
  -27.7867  -25.1094   17.9759 H   0  0  0  0  0  0
  -29.3797  -24.5689   18.4401 H   0  0  0  0  0  0
  -28.8372  -21.1451   18.9006 H   0  0  0  0  0  0
  -27.2905  -21.3674   19.6560 H   0  0  0  0  0  0
  -27.0207  -24.5579   20.3595 H   0  0  0  0  0  0
  -30.6165  -21.1385   20.6813 H   0  0  0  0  0  0
  -29.8649  -21.4056   22.2299 H   0  0  0  0  0  0
  -30.4290  -16.3072   19.3861 H   0  0  0  0  0  0
  1 25  1  0  0  0
  1 30  2  0  0  0
  1 84  1  0  0  0
  2  3  1  0  0  0
  2 25  1  0  0  0
  2 86  1  0  0  0
  2 87  1  0  0  0
  3  4  1  0  0  0
  3 88  1  0  0  0
  3 89  1  0  0  0
  4  5  1  0  0  0
  4 90  1  0  0  0
  4 91  1  0  0  0
  5  6  1  0  0  0
  5 26  1  0  0  0
  5 92  1  0  0  0
  6 25  1  0  0  0
  6 93  1  0  0  0
  6 94  1  0  0  0
  7  8  2  0  0  0
  7 26  1  0  0  0
  7 29  1  0  0  0
  8  9  1  0  0  0
  8 22  1  0  0  0
  9 10  1  0  0  0
  9 27  2  0  0  0
 10 11  2  0  0  0
 10 15  1  0  0  0
 11 12  1  0  0  0
 11 95  1  0  0  0
 12 13  2  0  0  0
 12 96  1  0  0  0
 13 14  1  0  0  0
 13 31  1  0  0  0
 14 15  2  0  0  0
 14 97  1  0  0  0
 15 98  1  0  0  0
 16 17  2  0  0  0
 16 21  1  0  0  0
 16 31  1  0  0  0
 17 18  1  0  0  0
 17 99  1  0  0  0
 18 19  2  0  0  0
 18100  1  0  0  0
 19 20  1  0  0  0
 19 24  1  0  0  0
 20 21  2  0  0  0
 20101  1  0  0  0
 21 23  1  0  0  0
 22 28  1  0  0  0
 22 32  2  0  0  0
 26 27  1  0  0  0
 28102  1  0  0  0
 28103  1  0  0  0
 29104  1  0  0  0
 29105  1  0  0  0
 33 34  1  0  0  0
 33 66  1  0  0  0
 33 70  2  0  0  0
 34 36  1  0  0  0
 34 59  1  0  0  0
 34106  1  0  0  0
 35 44  2  0  0  0
 35 45  1  0  0  0
 35 68  1  0  0  0
 36 56  1  0  0  0
 36107  1  0  0  0
 37 39  1  0  0  0
 37 47  1  0  0  0
 37 66  1  0  0  0
 37108  1  0  0  0
 38 43  2  0  0  0
 38 46  1  0  0  0
 38 47  1  0  0  0
 39 64  1  0  0  0
 39 67  2  0  0  0
 40 52  1  0  0  0
 40 53  2  0  0  0
 40 58  1  0  0  0
 41109  1  0  0  0
 41110  1  0  0  0
 41111  1  0  0  0
 41 48  1  0  0  0
 42 43  1  0  0  0
 42 66  1  0  0  0
 42112  1  0  0  0
 42113  1  0  0  0
 43 44  1  0  0  0
 44114  1  0  0  0
 45 46  2  0  0  0
 45115  1  0  0  0
 46116  1  0  0  0
 47117  1  0  0  0
 47118  1  0  0  0
 48 56  1  0  0  0
 48 65  1  0  0  0
 48119  1  0  0  0
 49 50  1  0  0  0
 49 53  1  0  0  0
 49 64  1  0  0  0
 49120  1  0  0  0
 50 51  1  0  0  0
 50121  1  0  0  0
 50122  1  0  0  0
 51 52  1  0  0  0
 51123  1  0  0  0
 51124  1  0  0  0
 52125  1  0  0  0
 52126  1  0  0  0
 53 54  1  0  0  0
 54 55  2  0  0  0
 54127  1  0  0  0
 55 57  1  0  0  0
 55128  1  0  0  0
 56 69  2  0  0  0
 57 58  2  0  0  0
 57129  1  0  0  0
 58130  1  0  0  0
 59 60  1  0  0  0
 59 61  1  0  0  0
 59 62  1  0  0  0
 60131  1  0  0  0
 60132  1  0  0  0
 60133  1  0  0  0
 61134  1  0  0  0
 61135  1  0  0  0
 61136  1  0  0  0
 62137  1  0  0  0
 62138  1  0  0  0
 62139  1  0  0  0
 63 65  1  0  0  0
 63140  1  0  0  0
 63141  1  0  0  0
 63142  1  0  0  0
 64143  1  0  0  0
 65144  1  0  0  0
 68 81  1  0  0  0
 71 72  2  0  0  0
 71 73  1  0  0  0
 71145  1  0  0  0
 72 75  1  0  0  0
 72146  1  0  0  0
 73 76  2  0  0  0
 73147  1  0  0  0
 74 75  2  0  0  0
 74 76  1  0  0  0
 74148  1  0  0  0
 75 82  1  0  0  0
 76 84  1  0  0  0
 77 81  1  0  0  0
 77 83  1  0  0  0
 77 85  2  0  0  0
 78 79  1  0  0  0
 78 80  1  0  0  0
 78149  1  0  0  0
 78150  1  0  0  0
 79 81  1  0  0  0
 79151  1  0  0  0
 79152  1  0  0  0
 80 83  1  0  0  0
 80153  1  0  0  0
 80154  1  0  0  0
 81155  1  0  0  0
 82 83  1  0  0  0
 82156  1  0  0  0
 82157  1  0  0  0
 84158  1  0  0  0
M  ISO  4   1 100  68 101  81 101  84 100
M  END
> <chiral flag>
0

> <version>
0

> <s_m_source_file>
/data/baiqing/PycharmProjects/Reinvent-master-3.2/result/LINK_invent/BTK/process_docking_weight1_custom_product_contain_oxygen_bond_distance_aromatic_linkinvent_7_9_3/rearranged_h_0046.sdf

> <i_m_source_file_index>
18

> <r_mmod_Potential_Energy-OPLS-2005>
390.760406494141

> <r_mmod_Stretch_Energy-OPLS-2005>
141.500473022461

> <r_mmod_Bend_Energy-OPLS-2005>
210.102935791016

> <r_mmod_Torsional_Energy-OPLS-2005>
308.340240478516

> <r_mmod_Improper_Torsional_Energy-OPLS-2005>
31.4140930175781

> <r_mmod_Van_der_Waal_Energy-OPLS-2005>
140.430740356445

> <r_mmod_Electrostatic_Energy-OPLS-2005>
-344.031311035156

> <r_mmod_Solvation_Energy-OPLS-2005>
-224.844024658203

> <b_mmod_Minimization_Converged-OPLS-2005>
0

> <r_mmod_RMS_Derivative-OPLS-2005>
11.9895992279053

$$$$
18
                    3D
 Structure written by MMmdl.
154162  0  0  1  0            999 V2000
  -30.6868  -14.4303   20.5619 C   0  0  0  0  0  0
  -30.4033  -12.2812   19.3957 C   0  0  0  0  0  0
  -29.4732  -12.5154   18.1863 C   0  0  0  0  0  0
  -27.9898  -12.4015   18.5857 C   0  0  0  0  0  0
  -27.6599  -13.2012   19.8732 C   0  0  2  0  0  0
  -28.6931  -12.9337   20.9866 C   0  0  0  0  0  0
  -25.2564  -13.8193   20.5590 C   0  0  0  0  0  0
  -24.1818  -13.0448   20.9135 C   0  0  0  0  0  0
  -24.6387  -11.6919   20.8721 C   0  0  0  0  0  0
  -23.9056  -10.4300   21.0402 C   0  0  0  0  0  0
  -24.3628   -9.4222   21.9194 C   0  0  0  0  0  0
  -23.6286   -8.2260   22.0785 C   0  0  0  0  0  0
  -22.4286   -8.0299   21.3548 C   0  0  0  0  0  0
  -21.9909   -9.0266   20.4661 C   0  0  0  0  0  0
  -22.7230  -10.2147   20.3044 C   0  0  0  0  0  0
  -21.6857   -6.0732   22.5285 C   0  0  0  0  0  0
  -21.4037   -6.5648   23.8219 C   0  0  0  0  0  0
  -21.3662   -5.6787   24.9159 C   0  0  0  0  0  0
  -21.6035   -4.3054   24.7210 C   0  0  0  0  0  0
  -21.8810   -3.8164   23.4336 C   0  0  0  0  0  0
  -21.9187   -4.6963   22.3391 C   0  0  0  0  0  0
  -22.7854  -13.5252   21.1826 C   0  0  0  0  0  0
  -22.1644   -4.2156   21.0963 F   0  0  0  0  0  0
  -21.5616   -3.4550   25.7723 F   0  0  0  0  0  0
  -30.0260  -13.2458   20.4446 N   0  0  0  0  0  0
  -26.3009  -12.9335   20.3332 N   0  0  0  0  0  0
  -25.9301  -11.6504   20.5751 N   0  0  0  0  0  0
  -22.0501  -12.8220   22.0393 N   0  0  0  0  0  0
  -25.4251  -15.1882   20.3962 N   0  0  0  0  0  0
  -31.7682  -14.6364   20.0037 O   0  0  0  0  0  0
  -21.6644   -6.8902   21.4252 O   0  0  0  0  0  0
  -22.3512  -14.5511   20.6664 O   0  0  0  0  0  0
  -24.6204  -31.8733   23.2040 C   0  0  0  0  0  0
  -25.9117  -32.4818   23.8346 C   0  0  1  0  0  0
  -27.2300  -27.4079   20.1310 C   0  0  0  0  0  0
  -25.5957  -33.8621   24.2298 N   0  0  0  0  0  0
  -23.4083  -30.5043   21.5438 C   0  0  2  0  0  0
  -24.8479  -28.9441   20.1296 C   0  0  0  0  0  0
  -22.7366  -29.4899   22.5018 C   0  0  0  0  0  0
  -18.0359  -28.1352   22.8431 C   0  0  0  0  0  0
  -24.1486  -36.7281   23.2628 C   0  0  0  0  0  0
  -25.9387  -30.8341   21.3561 C   0  0  0  0  0  0
  -26.0130  -29.4617   20.7102 C   0  0  0  0  0  0
  -27.2088  -28.7011   20.7054 C   0  0  0  0  0  0
  -26.0437  -26.9025   19.5572 C   0  0  0  0  0  0
  -24.8566  -27.6581   19.5570 C   0  0  0  0  0  0
  -23.6096  -29.8102   20.1701 C   0  0  0  0  0  0
  -25.4108  -36.3082   24.0317 C   0  0  1  0  0  0
  -20.5883  -28.3795   23.1248 C   0  0  2  0  0  0
  -20.7049  -26.9753   22.4810 C   0  0  0  0  0  0
  -19.5709  -26.6349   21.5020 C   0  0  0  0  0  0
  -18.2075  -26.7742   22.1856 C   0  0  0  0  0  0
  -19.1533  -28.8854   23.2951 C   0  0  0  0  0  0
  -18.9399  -30.1409   23.9105 C   0  0  0  0  0  0
  -17.6378  -30.6519   24.0623 C   0  0  0  0  0  0
  -25.9064  -34.9469   23.5088 C   0  0  0  0  0  0
  -16.5353  -29.9091   23.6060 C   0  0  0  0  0  0
  -16.7346  -28.6555   23.0025 C   0  0  0  0  0  0
  -26.4518  -31.6593   25.0693 C   0  0  0  0  0  0
  -25.3787  -31.3728   26.1443 C   0  0  0  0  0  0
  -27.0328  -30.3011   24.6083 C   0  0  0  0  0  0
  -27.6080  -32.4292   25.7489 C   0  0  0  0  0  0
  -27.5560  -37.1799   24.8478 C   0  0  0  0  0  0
  -21.4064  -29.3544   22.3959 N   0  0  0  0  0  0
  -26.4297  -37.3778   23.9387 N   0  0  0  0  0  0
  -24.6742  -31.0825   22.0919 N   0  0  0  0  0  0
  -23.4079  -28.8211   23.2892 O   0  0  0  0  0  0
  -28.3603  -26.6133   20.1584 O   0  0  0  0  0  0
  -26.5629  -34.8954   22.4648 O   0  0  0  0  0  0
  -23.5378  -32.1485   23.7464 O   0  0  0  0  0  0
  -28.1561  -17.7656   21.4975 C   0  0  0  0  0  0
  -27.2868  -18.8728   21.5445 C   0  0  0  0  0  0
  -29.9828  -19.2864   20.9744 C   0  0  0  0  0  0
  -29.5264  -17.9658   21.2408 C   0  0  0  0  0  0
  -29.1146  -20.4160   21.0041 C   0  0  0  0  0  0
  -27.7524  -20.1846   21.3051 C   0  0  0  0  0  0
  -28.7742  -24.1379   20.2843 C   0  0  0  0  0  0
  -30.5447  -16.8129   21.3025 C   0  0  0  0  0  0
  -29.6951  -21.8127   20.6712 C   0  0  0  0  0  0
  -28.2319  -25.4156   20.9733 C   0  0  0  0  0  0
  -28.9534  -23.0393   21.0519 N   0  0  0  0  0  0
  -30.0478  -15.4184   21.2188 N   0  0  0  0  0  0
  -29.0526  -24.1539   19.0821 O   0  0  0  0  0  0
  -26.8704  -21.2053   21.3578 F   0  0  0  0  0  0
  -31.4413  -12.3930   19.0759 H   0  0  0  0  0  0
  -30.3222  -11.2515   19.7540 H   0  0  0  0  0  0
  -29.6967  -11.8032   17.3896 H   0  0  0  0  0  0
  -29.6593  -13.5033   17.7652 H   0  0  0  0  0  0
  -27.7524  -11.3491   18.7237 H   0  0  0  0  0  0
  -27.3600  -12.7513   17.7636 H   0  0  0  0  0  0
  -27.7238  -14.2568   19.6164 H   0  0  0  0  0  0
  -28.6553  -11.8859   21.2898 H   0  0  0  0  0  0
  -28.4549  -13.4989   21.8864 H   0  0  0  0  0  0
  -25.2789   -9.5668   22.4749 H   0  0  0  0  0  0
  -23.9993   -7.4652   22.7509 H   0  0  0  0  0  0
  -21.0845   -8.8765   19.8963 H   0  0  0  0  0  0
  -22.3711  -10.9663   19.6139 H   0  0  0  0  0  0
  -21.2071   -7.6170   23.9705 H   0  0  0  0  0  0
  -21.1486   -6.0543   25.9058 H   0  0  0  0  0  0
  -22.0599   -2.7631   23.2822 H   0  0  0  0  0  0
  -22.4187  -11.9880   22.4729 H   0  0  0  0  0  0
  -21.1178  -13.1275   22.2684 H   0  0  0  0  0  0
  -24.6554  -15.8428   20.4938 H   0  0  0  0  0  0
  -26.2614  -15.6218   20.0258 H   0  0  0  0  0  0
  -26.7216  -32.5522   23.1143 H   0  0  0  0  0  0
  -25.0122  -33.9764   25.0436 H   0  0  0  0  0  0
  -22.7071  -31.3281   21.3852 H   0  0  0  0  0  0
  -23.3756  -35.9614   23.3319 H   0  0  0  0  0  0
  -24.3599  -36.8856   22.2036 H   0  0  0  0  0  0
  -23.7249  -37.6495   23.6627 H   0  0  0  0  0  0
  -26.0511  -31.6011   20.5896 H   0  0  0  0  0  0
  -26.8287  -30.8862   21.9747 H   0  0  0  0  0  0
  -28.1003  -29.0833   21.1794 H   0  0  0  0  0  0
  -26.0279  -25.9018   19.1465 H   0  0  0  0  0  0
  -23.9494  -27.2250   19.1520 H   0  0  0  0  0  0
  -23.7017  -30.5639   19.3858 H   0  0  0  0  0  0
  -22.7357  -29.2161   19.8963 H   0  0  0  0  0  0
  -25.1285  -36.1935   25.0813 H   0  0  0  0  0  0
  -20.9894  -28.2997   24.1363 H   0  0  0  0  0  0
  -20.6863  -26.2352   23.2814 H   0  0  0  0  0  0
  -21.6713  -26.8447   21.9912 H   0  0  0  0  0  0
  -19.6136  -27.2899   20.6302 H   0  0  0  0  0  0
  -19.6903  -25.6178   21.1257 H   0  0  0  0  0  0
  -17.4072  -26.5855   21.4692 H   0  0  0  0  0  0
  -18.1078  -26.0095   22.9557 H   0  0  0  0  0  0
  -19.7794  -30.7145   24.2775 H   0  0  0  0  0  0
  -17.4816  -31.6099   24.5413 H   0  0  0  0  0  0
  -15.5319  -30.3034   23.7062 H   0  0  0  0  0  0
  -15.8828  -28.1014   22.6328 H   0  0  0  0  0  0
  -24.6008  -30.6999   25.7814 H   0  0  0  0  0  0
  -24.8967  -32.2905   26.4813 H   0  0  0  0  0  0
  -25.8199  -30.8994   27.0230 H   0  0  0  0  0  0
  -26.2900  -29.6823   24.1054 H   0  0  0  0  0  0
  -27.3965  -29.7179   25.4552 H   0  0  0  0  0  0
  -27.8775  -30.4265   23.9320 H   0  0  0  0  0  0
  -27.2690  -33.3591   26.2068 H   0  0  0  0  0  0
  -28.3948  -32.6851   25.0378 H   0  0  0  0  0  0
  -28.0699  -31.8418   26.5433 H   0  0  0  0  0  0
  -28.2603  -38.0069   24.7482 H   0  0  0  0  0  0
  -28.1028  -36.2594   24.6361 H   0  0  0  0  0  0
  -27.2280  -37.1506   25.8892 H   0  0  0  0  0  0
  -20.9044  -29.9841   21.7843 H   0  0  0  0  0  0
  -26.0159  -38.2843   24.1430 H   0  0  0  0  0  0
  -27.7569  -16.7764   21.6867 H   0  0  0  0  0  0
  -26.2441  -18.7148   21.7801 H   0  0  0  0  0  0
  -31.0313  -19.4424   20.7591 H   0  0  0  0  0  0
  -31.2478  -16.9846   20.4892 H   0  0  0  0  0  0
  -31.1312  -16.9389   22.2189 H   0  0  0  0  0  0
  -29.9087  -21.8168   19.6026 H   0  0  0  0  0  0
  -30.6630  -21.8841   21.1645 H   0  0  0  0  0  0
  -27.2024  -25.2305   21.2847 H   0  0  0  0  0  0
  -28.8099  -25.5809   21.8846 H   0  0  0  0  0  0
  -28.6913  -23.1270   22.0237 H   0  0  0  0  0  0
  -29.2057  -15.1697   21.7136 H   0  0  0  0  0  0
  1 25  1  0  0  0
  1 30  2  0  0  0
  1 82  1  0  0  0
  2  3  1  0  0  0
  2 25  1  0  0  0
  2 85  1  0  0  0
  2 86  1  0  0  0
  3  4  1  0  0  0
  3 87  1  0  0  0
  3 88  1  0  0  0
  4  5  1  0  0  0
  4 89  1  0  0  0
  4 90  1  0  0  0
  5  6  1  0  0  0
  5 26  1  0  0  0
  5 91  1  0  0  0
  6 25  1  0  0  0
  6 92  1  0  0  0
  6 93  1  0  0  0
  7  8  2  0  0  0
  7 26  1  0  0  0
  7 29  1  0  0  0
  8  9  1  0  0  0
  8 22  1  0  0  0
  9 10  1  0  0  0
  9 27  2  0  0  0
 10 11  2  0  0  0
 10 15  1  0  0  0
 11 12  1  0  0  0
 11 94  1  0  0  0
 12 13  2  0  0  0
 12 95  1  0  0  0
 13 14  1  0  0  0
 13 31  1  0  0  0
 14 15  2  0  0  0
 14 96  1  0  0  0
 15 97  1  0  0  0
 16 17  2  0  0  0
 16 21  1  0  0  0
 16 31  1  0  0  0
 17 18  1  0  0  0
 17 98  1  0  0  0
 18 19  2  0  0  0
 18 99  1  0  0  0
 19 20  1  0  0  0
 19 24  1  0  0  0
 20 21  2  0  0  0
 20100  1  0  0  0
 21 23  1  0  0  0
 22 28  1  0  0  0
 22 32  2  0  0  0
 26 27  1  0  0  0
 28101  1  0  0  0
 28102  1  0  0  0
 29103  1  0  0  0
 29104  1  0  0  0
 33 34  1  0  0  0
 33 66  1  0  0  0
 33 70  2  0  0  0
 34 36  1  0  0  0
 34 59  1  0  0  0
 34105  1  0  0  0
 35 44  2  0  0  0
 35 45  1  0  0  0
 35 68  1  0  0  0
 36 56  1  0  0  0
 36106  1  0  0  0
 37 39  1  0  0  0
 37 47  1  0  0  0
 37 66  1  0  0  0
 37107  1  0  0  0
 38 43  2  0  0  0
 38 46  1  0  0  0
 38 47  1  0  0  0
 39 64  1  0  0  0
 39 67  2  0  0  0
 40 52  1  0  0  0
 40 53  2  0  0  0
 40 58  1  0  0  0
 41108  1  0  0  0
 41109  1  0  0  0
 41110  1  0  0  0
 41 48  1  0  0  0
 42 43  1  0  0  0
 42 66  1  0  0  0
 42111  1  0  0  0
 42112  1  0  0  0
 43 44  1  0  0  0
 44113  1  0  0  0
 45 46  2  0  0  0
 45114  1  0  0  0
 46115  1  0  0  0
 47116  1  0  0  0
 47117  1  0  0  0
 48 56  1  0  0  0
 48 65  1  0  0  0
 48118  1  0  0  0
 49 50  1  0  0  0
 49 53  1  0  0  0
 49 64  1  0  0  0
 49119  1  0  0  0
 50 51  1  0  0  0
 50120  1  0  0  0
 50121  1  0  0  0
 51 52  1  0  0  0
 51122  1  0  0  0
 51123  1  0  0  0
 52124  1  0  0  0
 52125  1  0  0  0
 53 54  1  0  0  0
 54 55  2  0  0  0
 54126  1  0  0  0
 55 57  1  0  0  0
 55127  1  0  0  0
 56 69  2  0  0  0
 57 58  2  0  0  0
 57128  1  0  0  0
 58129  1  0  0  0
 59 60  1  0  0  0
 59 61  1  0  0  0
 59 62  1  0  0  0
 60130  1  0  0  0
 60131  1  0  0  0
 60132  1  0  0  0
 61133  1  0  0  0
 61134  1  0  0  0
 61135  1  0  0  0
 62136  1  0  0  0
 62137  1  0  0  0
 62138  1  0  0  0
 63 65  1  0  0  0
 63139  1  0  0  0
 63140  1  0  0  0
 63141  1  0  0  0
 64142  1  0  0  0
 65143  1  0  0  0
 68 80  1  0  0  0
 71 72  2  0  0  0
 71 74  1  0  0  0
 71144  1  0  0  0
 72 76  1  0  0  0
 72145  1  0  0  0
 73 74  2  0  0  0
 73 75  1  0  0  0
 73146  1  0  0  0
 74 78  1  0  0  0
 75 76  2  0  0  0
 75 79  1  0  0  0
 76 84  1  0  0  0
 77 80  1  0  0  0
 77 81  1  0  0  0
 77 83  2  0  0  0
 78 82  1  0  0  0
 78147  1  0  0  0
 78148  1  0  0  0
 79 81  1  0  0  0
 79149  1  0  0  0
 79150  1  0  0  0
 80151  1  0  0  0
 80152  1  0  0  0
 81153  1  0  0  0
 82154  1  0  0  0
M  ISO  4   1 100  68 101  80 101  82 100
M  END
> <chiral flag>
0

> <version>
0

> <s_m_source_file>
/data/baiqing/PycharmProjects/Reinvent-master-3.2/result/LINK_invent/BTK/process_docking_weight1_custom_product_contain_oxygen_bond_distance_aromatic_linkinvent_7_9_3/rearranged_h_0046.sdf

> <i_m_source_file_index>
19

> <r_mmod_Potential_Energy-OPLS-2005>
-134.815322875977

> <r_mmod_Stretch_Energy-OPLS-2005>
45.1600341796875

> <r_mmod_Bend_Energy-OPLS-2005>
103.30736541748

> <r_mmod_Torsional_Energy-OPLS-2005>
214.873153686523

> <r_mmod_Improper_Torsional_Energy-OPLS-2005>
3.81959390640259

> <r_mmod_Van_der_Waal_Energy-OPLS-2005>
149.854095458984

> <r_mmod_Electrostatic_Energy-OPLS-2005>
-430.436859130859

> <r_mmod_Solvation_Energy-OPLS-2005>
-237.986450195312

> <b_mmod_Minimization_Converged-OPLS-2005>
0

> <r_mmod_RMS_Derivative-OPLS-2005>
9.47068405151367

$$$$
19
                    3D
 Structure written by MMmdl.
161170  0  0  1  0            999 V2000
  -30.5749  -14.7714   20.4689 C   0  0  0  0  0  0
  -30.4456  -12.4741   19.4633 C   0  0  0  0  0  0
  -29.5138  -12.5020   18.2301 C   0  0  0  0  0  0
  -28.0385  -12.3202   18.6460 C   0  0  0  0  0  0
  -27.6378  -13.2238   19.8405 C   0  0  2  0  0  0
  -28.6847  -13.1608   20.9714 C   0  0  0  0  0  0
  -25.2504  -13.8179   20.5678 C   0  0  0  0  0  0
  -24.1791  -13.0433   20.9195 C   0  0  0  0  0  0
  -24.6380  -11.6911   20.8738 C   0  0  0  0  0  0
  -23.9059  -10.4292   21.0416 C   0  0  0  0  0  0
  -24.3614   -9.4204   21.9193 C   0  0  0  0  0  0
  -23.6286   -8.2242   22.0762 C   0  0  0  0  0  0
  -22.4265   -8.0286   21.3553 C   0  0  0  0  0  0
  -21.9897   -9.0257   20.4653 C   0  0  0  0  0  0
  -22.7231  -10.2134   20.3066 C   0  0  0  0  0  0
  -21.6852   -6.0738   22.5279 C   0  0  0  0  0  0
  -21.4018   -6.5644   23.8212 C   0  0  0  0  0  0
  -21.3661   -5.6792   24.9174 C   0  0  0  0  0  0
  -21.6046   -4.3053   24.7224 C   0  0  0  0  0  0
  -21.8817   -3.8145   23.4343 C   0  0  0  0  0  0
  -21.9188   -4.6965   22.3400 C   0  0  0  0  0  0
  -22.7816  -13.5225   21.1874 C   0  0  0  0  0  0
  -22.1658   -4.2156   21.0978 F   0  0  0  0  0  0
  -21.5626   -3.4538   25.7736 F   0  0  0  0  0  0
  -29.9799  -13.5321   20.3852 N   0  0  0  0  0  0
  -26.2910  -12.9366   20.3218 N   0  0  0  0  0  0
  -25.9296  -11.6515   20.5695 N   0  0  0  0  0  0
  -22.0468  -12.8207   22.0436 N   0  0  0  0  0  0
  -25.4179  -15.1914   20.4139 N   0  0  0  0  0  0
  -31.7815  -14.8977   20.2402 O   0  0  0  0  0  0
  -21.6635   -6.8879   21.4244 O   0  0  0  0  0  0
  -22.3493  -14.5528   20.6719 O   0  0  0  0  0  0
  -24.6308  -31.8544   23.1955 C   0  0  0  0  0  0
  -25.9125  -32.4752   23.8314 C   0  0  1  0  0  0
  -27.2268  -27.2639   20.1393 C   0  0  0  0  0  0
  -25.5911  -33.8555   24.2233 N   0  0  0  0  0  0
  -23.4284  -30.4723   21.5398 C   0  0  2  0  0  0
  -24.8777  -28.9094   20.1186 C   0  0  0  0  0  0
  -22.7500  -29.4590   22.4934 C   0  0  0  0  0  0
  -18.0290  -28.1375   22.8484 C   0  0  0  0  0  0
  -24.1487  -36.7297   23.2640 C   0  0  0  0  0  0
  -25.9728  -30.7674   21.3743 C   0  0  0  0  0  0
  -26.0494  -29.3869   20.7232 C   0  0  0  0  0  0
  -27.2300  -28.5778   20.7170 C   0  0  0  0  0  0
  -26.0339  -26.8437   19.5187 C   0  0  0  0  0  0
  -24.8748  -27.6454   19.5054 C   0  0  0  0  0  0
  -23.6474  -29.7958   20.1603 C   0  0  0  0  0  0
  -25.4112  -36.3074   24.0322 C   0  0  1  0  0  0
  -20.5887  -28.3689   23.1272 C   0  0  2  0  0  0
  -20.6774  -26.9404   22.5408 C   0  0  0  0  0  0
  -19.5751  -26.6375   21.5212 C   0  0  0  0  0  0
  -18.1931  -26.7919   22.1621 C   0  0  0  0  0  0
  -19.1540  -28.8849   23.2872 C   0  0  0  0  0  0
  -18.9467  -30.1447   23.8896 C   0  0  0  0  0  0
  -17.6464  -30.6582   24.0555 C   0  0  0  0  0  0
  -25.9050  -34.9442   23.5084 C   0  0  0  0  0  0
  -16.5355  -29.9078   23.6324 C   0  0  0  0  0  0
  -16.7274  -28.6487   23.0363 C   0  0  0  0  0  0
  -26.4477  -31.6586   25.0719 C   0  0  0  0  0  0
  -25.3686  -31.3758   26.1437 C   0  0  0  0  0  0
  -27.0329  -30.2998   24.6224 C   0  0  0  0  0  0
  -27.6025  -32.4333   25.7492 C   0  0  0  0  0  0
  -27.5574  -37.1801   24.8454 C   0  0  0  0  0  0
  -21.4205  -29.3037   22.3672 N   0  0  0  0  0  0
  -26.4286  -37.3775   23.9403 N   0  0  0  0  0  0
  -24.6964  -31.0503   22.0930 N   0  0  0  0  0  0
  -23.4193  -28.8147   23.3048 O   0  0  0  0  0  0
  -28.3291  -26.3864   20.1073 O   0  0  0  0  0  0
  -26.5643  -34.8917   22.4665 O   0  0  0  0  0  0
  -23.5455  -32.1370   23.7239 O   0  0  0  0  0  0
  -29.3169  -19.8344   22.2356 C   0  0  0  0  0  0
  -29.5241  -18.6767   23.0102 C   0  0  0  0  0  0
  -29.6040  -18.4785   20.2463 C   0  0  0  0  0  0
  -29.3925  -19.8045   20.8286 C   0  0  0  0  0  0
  -29.7549  -17.4086   22.4317 C   0  0  0  0  0  0
  -29.7850  -17.2501   21.0216 C   0  0  0  0  0  0
  -28.4628  -23.6920   20.0286 C   0  0  0  0  0  0
  -29.6195  -23.8615   22.6594 C   0  0  0  0  0  0
  -29.2420  -25.2081   22.0254 C   0  0  0  0  0  0
  -30.1677  -22.9176   21.5749 C   0  0  0  0  0  0
  -28.2616  -25.0772   20.8429 C   0  0  1  0  0  0
  -29.8729  -16.2181   23.3705 C   0  0  0  0  0  0
  -29.1717  -21.1594   19.9867 C   0  0  0  0  0  0
  -29.1400  -22.5922   20.5741 N   0  0  0  0  0  0
  -29.7173  -15.8675   20.4743 N   0  0  0  0  0  0
  -27.9085  -23.5963   18.9297 O   0  0  0  0  0  0
  -31.4824  -12.6276   19.1589 H   0  0  0  0  0  0
  -30.4143  -11.5008   19.9558 H   0  0  0  0  0  0
  -29.7994  -11.7231   17.5225 H   0  0  0  0  0  0
  -29.6305  -13.4501   17.7029 H   0  0  0  0  0  0
  -27.8953  -11.2723   18.9119 H   0  0  0  0  0  0
  -27.3809  -12.5090   17.7971 H   0  0  0  0  0  0
  -27.6262  -14.2407   19.4493 H   0  0  0  0  0  0
  -28.7276  -12.1616   21.4073 H   0  0  0  0  0  0
  -28.4122  -13.8373   21.7817 H   0  0  0  0  0  0
  -25.2773   -9.5671   22.4749 H   0  0  0  0  0  0
  -24.0004   -7.4623   22.7466 H   0  0  0  0  0  0
  -21.0830   -8.8777   19.8944 H   0  0  0  0  0  0
  -22.3708  -10.9669   19.6160 H   0  0  0  0  0  0
  -21.2028   -7.6154   23.9721 H   0  0  0  0  0  0
  -21.1480   -6.0522   25.9075 H   0  0  0  0  0  0
  -22.0592   -2.7610   23.2841 H   0  0  0  0  0  0
  -22.4084  -11.9863   22.4809 H   0  0  0  0  0  0
  -21.1093  -13.1230   22.2671 H   0  0  0  0  0  0
  -24.6483  -15.8396   20.5382 H   0  0  0  0  0  0
  -26.2609  -15.6418   20.0838 H   0  0  0  0  0  0
  -26.7197  -32.5403   23.1059 H   0  0  0  0  0  0
  -25.0014  -33.9691   25.0347 H   0  0  0  0  0  0
  -22.7242  -31.2932   21.3876 H   0  0  0  0  0  0
  -23.3746  -35.9631   23.3297 H   0  0  0  0  0  0
  -24.3573  -36.8939   22.2056 H   0  0  0  0  0  0
  -23.7252  -37.6495   23.6682 H   0  0  0  0  0  0
  -26.1085  -31.5241   20.6004 H   0  0  0  0  0  0
  -26.8503  -30.8207   22.0074 H   0  0  0  0  0  0
  -28.1337  -28.9430   21.1844 H   0  0  0  0  0  0
  -25.9986  -25.8724   19.0457 H   0  0  0  0  0  0
  -23.9783  -27.2743   19.0273 H   0  0  0  0  0  0
  -23.7658  -30.5640   19.3956 H   0  0  0  0  0  0
  -22.7678  -29.2222   19.8635 H   0  0  0  0  0  0
  -25.1296  -36.1912   25.0817 H   0  0  0  0  0  0
  -20.9970  -28.3268   24.1395 H   0  0  0  0  0  0
  -20.5664  -26.2298   23.3613 H   0  0  0  0  0  0
  -21.6646  -26.7422   22.1206 H   0  0  0  0  0  0
  -19.6910  -25.6288   21.1245 H   0  0  0  0  0  0
  -19.6689  -27.3178   20.6737 H   0  0  0  0  0  0
  -17.4196  -26.6662   21.4028 H   0  0  0  0  0  0
  -18.0328  -26.0064   22.9018 H   0  0  0  0  0  0
  -19.7946  -30.7260   24.2270 H   0  0  0  0  0  0
  -17.5025  -31.6265   24.5152 H   0  0  0  0  0  0
  -15.5356  -30.2981   23.7663 H   0  0  0  0  0  0
  -15.8671  -28.0806   22.7093 H   0  0  0  0  0  0
  -24.5823  -30.7160   25.7751 H   0  0  0  0  0  0
  -24.8924  -32.2946   26.4871 H   0  0  0  0  0  0
  -25.7970  -30.8902   27.0214 H   0  0  0  0  0  0
  -26.2922  -29.6757   24.1214 H   0  0  0  0  0  0
  -27.3957  -29.7259   25.4763 H   0  0  0  0  0  0
  -27.8823  -30.4262   23.9507 H   0  0  0  0  0  0
  -27.2610  -33.3618   26.2077 H   0  0  0  0  0  0
  -28.3824  -32.6927   25.0320 H   0  0  0  0  0  0
  -28.0704  -31.8465   26.5405 H   0  0  0  0  0  0
  -28.2579  -38.0109   24.7505 H   0  0  0  0  0  0
  -28.1084  -36.2641   24.6267 H   0  0  0  0  0  0
  -27.2298  -37.1430   25.8859 H   0  0  0  0  0  0
  -20.9399  -29.8739   21.6854 H   0  0  0  0  0  0
  -26.0164  -38.2850   24.1405 H   0  0  0  0  0  0
  -29.0819  -20.7516   22.7550 H   0  0  0  0  0  0
  -29.4581  -18.7717   24.0850 H   0  0  0  0  0  0
  -29.5852  -18.3980   19.1685 H   0  0  0  0  0  0
  -28.7529  -23.4129   23.1486 H   0  0  0  0  0  0
  -30.3670  -24.0182   23.4380 H   0  0  0  0  0  0
  -30.1525  -25.6953   21.6755 H   0  0  0  0  0  0
  -28.8176  -25.8704   22.7811 H   0  0  0  0  0  0
  -30.6217  -22.0386   22.0238 H   0  0  0  0  0  0
  -30.9949  -23.4075   21.0582 H   0  0  0  0  0  0
  -27.2620  -24.9854   21.2718 H   0  0  0  0  0  0
  -29.9316  -16.5368   24.4117 H   0  0  0  0  0  0
  -30.7703  -15.6375   23.1607 H   0  0  0  0  0  0
  -29.0025  -15.5699   23.2717 H   0  0  0  0  0  0
  -28.2322  -21.0168   19.4504 H   0  0  0  0  0  0
  -29.9359  -21.1688   19.2087 H   0  0  0  0  0  0
  -28.7678  -15.5658   20.3241 H   0  0  0  0  0  0
  1 25  1  0  0  0
  1 30  2  0  0  0
  1 85  1  0  0  0
  2  3  1  0  0  0
  2 25  1  0  0  0
  2 87  1  0  0  0
  2 88  1  0  0  0
  3  4  1  0  0  0
  3 89  1  0  0  0
  3 90  1  0  0  0
  4  5  1  0  0  0
  4 91  1  0  0  0
  4 92  1  0  0  0
  5  6  1  0  0  0
  5 26  1  0  0  0
  5 93  1  0  0  0
  6 25  1  0  0  0
  6 94  1  0  0  0
  6 95  1  0  0  0
  7  8  2  0  0  0
  7 26  1  0  0  0
  7 29  1  0  0  0
  8  9  1  0  0  0
  8 22  1  0  0  0
  9 10  1  0  0  0
  9 27  2  0  0  0
 10 11  2  0  0  0
 10 15  1  0  0  0
 11 12  1  0  0  0
 11 96  1  0  0  0
 12 13  2  0  0  0
 12 97  1  0  0  0
 13 14  1  0  0  0
 13 31  1  0  0  0
 14 15  2  0  0  0
 14 98  1  0  0  0
 15 99  1  0  0  0
 16 17  2  0  0  0
 16 21  1  0  0  0
 16 31  1  0  0  0
 17 18  1  0  0  0
 17100  1  0  0  0
 18 19  2  0  0  0
 18101  1  0  0  0
 19 20  1  0  0  0
 19 24  1  0  0  0
 20 21  2  0  0  0
 20102  1  0  0  0
 21 23  1  0  0  0
 22 28  1  0  0  0
 22 32  2  0  0  0
 26 27  1  0  0  0
 28103  1  0  0  0
 28104  1  0  0  0
 29105  1  0  0  0
 29106  1  0  0  0
 33 34  1  0  0  0
 33 66  1  0  0  0
 33 70  2  0  0  0
 34 36  1  0  0  0
 34 59  1  0  0  0
 34107  1  0  0  0
 35 44  2  0  0  0
 35 45  1  0  0  0
 35 68  1  0  0  0
 36 56  1  0  0  0
 36108  1  0  0  0
 37 39  1  0  0  0
 37 47  1  0  0  0
 37 66  1  0  0  0
 37109  1  0  0  0
 38 43  2  0  0  0
 38 46  1  0  0  0
 38 47  1  0  0  0
 39 64  1  0  0  0
 39 67  2  0  0  0
 40 52  1  0  0  0
 40 53  2  0  0  0
 40 58  1  0  0  0
 41110  1  0  0  0
 41111  1  0  0  0
 41112  1  0  0  0
 41 48  1  0  0  0
 42 43  1  0  0  0
 42 66  1  0  0  0
 42113  1  0  0  0
 42114  1  0  0  0
 43 44  1  0  0  0
 44115  1  0  0  0
 45 46  2  0  0  0
 45116  1  0  0  0
 46117  1  0  0  0
 47118  1  0  0  0
 47119  1  0  0  0
 48 56  1  0  0  0
 48 65  1  0  0  0
 48120  1  0  0  0
 49 50  1  0  0  0
 49 53  1  0  0  0
 49 64  1  0  0  0
 49121  1  0  0  0
 50 51  1  0  0  0
 50122  1  0  0  0
 50123  1  0  0  0
 51 52  1  0  0  0
 51124  1  0  0  0
 51125  1  0  0  0
 52126  1  0  0  0
 52127  1  0  0  0
 53 54  1  0  0  0
 54 55  2  0  0  0
 54128  1  0  0  0
 55 57  1  0  0  0
 55129  1  0  0  0
 56 69  2  0  0  0
 57 58  2  0  0  0
 57130  1  0  0  0
 58131  1  0  0  0
 59 60  1  0  0  0
 59 61  1  0  0  0
 59 62  1  0  0  0
 60132  1  0  0  0
 60133  1  0  0  0
 60134  1  0  0  0
 61135  1  0  0  0
 61136  1  0  0  0
 61137  1  0  0  0
 62138  1  0  0  0
 62139  1  0  0  0
 62140  1  0  0  0
 63 65  1  0  0  0
 63141  1  0  0  0
 63142  1  0  0  0
 63143  1  0  0  0
 64144  1  0  0  0
 65145  1  0  0  0
 68 81  1  0  0  0
 71 72  2  0  0  0
 71 74  1  0  0  0
 71146  1  0  0  0
 72 75  1  0  0  0
 72147  1  0  0  0
 73 74  2  0  0  0
 73 76  1  0  0  0
 73148  1  0  0  0
 74 83  1  0  0  0
 75 76  2  0  0  0
 75 82  1  0  0  0
 76 85  1  0  0  0
 77 81  1  0  0  0
 77 84  1  0  0  0
 77 86  2  0  0  0
 78 79  1  0  0  0
 78 80  1  0  0  0
 78149  1  0  0  0
 78150  1  0  0  0
 79 81  1  0  0  0
 79151  1  0  0  0
 79152  1  0  0  0
 80 84  1  0  0  0
 80153  1  0  0  0
 80154  1  0  0  0
 81155  1  0  0  0
 82156  1  0  0  0
 82157  1  0  0  0
 82158  1  0  0  0
 83 84  1  0  0  0
 83159  1  0  0  0
 83160  1  0  0  0
 85161  1  0  0  0
M  ISO  4   1 100  68 101  81 101  85 100
M  END
> <chiral flag>
0

> <version>
0

> <s_m_source_file>
/data/baiqing/PycharmProjects/Reinvent-master-3.2/result/LINK_invent/BTK/process_docking_weight1_custom_product_contain_oxygen_bond_distance_aromatic_linkinvent_7_9_3/rearranged_h_0046.sdf

> <i_m_source_file_index>
20

> <r_mmod_Potential_Energy-OPLS-2005>
272.948944091797

> <r_mmod_Stretch_Energy-OPLS-2005>
138.050506591797

> <r_mmod_Bend_Energy-OPLS-2005>
174.041854858398

> <r_mmod_Torsional_Energy-OPLS-2005>
298.955017089844

> <r_mmod_Improper_Torsional_Energy-OPLS-2005>
13.1792783737183

> <r_mmod_Van_der_Waal_Energy-OPLS-2005>
139.971069335938

> <r_mmod_Electrostatic_Energy-OPLS-2005>
-353.644012451172

> <r_mmod_Solvation_Energy-OPLS-2005>
-229.624710083008

> <b_mmod_Minimization_Converged-OPLS-2005>
0

> <r_mmod_RMS_Derivative-OPLS-2005>
1.78075683116913

$$$$
20
                    3D
 Structure written by MMmdl.
163172  0  0  1  0            999 V2000
  -30.7113  -14.5084   20.5507 C   0  0  0  0  0  0
  -30.4218  -12.3300   19.4290 C   0  0  0  0  0  0
  -29.4982  -12.5037   18.2065 C   0  0  0  0  0  0
  -28.0201  -12.3622   18.6208 C   0  0  0  0  0  0
  -27.6593  -13.2155   19.8665 C   0  0  2  0  0  0
  -28.7060  -13.0317   20.9910 C   0  0  0  0  0  0
  -25.2595  -13.8168   20.5695 C   0  0  0  0  0  0
  -24.1860  -13.0449   20.9169 C   0  0  0  0  0  0
  -24.6414  -11.6908   20.8750 C   0  0  0  0  0  0
  -23.9077  -10.4299   21.0409 C   0  0  0  0  0  0
  -24.3623   -9.4208   21.9177 C   0  0  0  0  0  0
  -23.6293   -8.2247   22.0758 C   0  0  0  0  0  0
  -22.4274   -8.0287   21.3548 C   0  0  0  0  0  0
  -21.9917   -9.0269   20.4645 C   0  0  0  0  0  0
  -22.7255  -10.2142   20.3049 C   0  0  0  0  0  0
  -21.6858   -6.0738   22.5291 C   0  0  0  0  0  0
  -21.4006   -6.5639   23.8217 C   0  0  0  0  0  0
  -21.3663   -5.6800   24.9186 C   0  0  0  0  0  0
  -21.6044   -4.3060   24.7243 C   0  0  0  0  0  0
  -21.8815   -3.8150   23.4360 C   0  0  0  0  0  0
  -21.9193   -4.6969   22.3410 C   0  0  0  0  0  0
  -22.7884  -13.5240   21.1847 C   0  0  0  0  0  0
  -22.1659   -4.2150   21.0994 F   0  0  0  0  0  0
  -21.5643   -3.4544   25.7752 F   0  0  0  0  0  0
  -30.0305  -13.3348   20.4282 N   0  0  0  0  0  0
  -26.3033  -12.9362   20.3330 N   0  0  0  0  0  0
  -25.9346  -11.6513   20.5757 N   0  0  0  0  0  0
  -22.0515  -12.8236   22.0385 N   0  0  0  0  0  0
  -25.4310  -15.1894   20.4183 N   0  0  0  0  0  0
  -31.8484  -14.6658   20.1010 O   0  0  0  0  0  0
  -21.6643   -6.8878   21.4237 O   0  0  0  0  0  0
  -22.3586  -14.5556   20.6698 O   0  0  0  0  0  0
  -24.6214  -31.8666   23.2094 C   0  0  0  0  0  0
  -25.9077  -32.4818   23.8410 C   0  0  1  0  0  0
  -27.2301  -27.3865   20.0852 C   0  0  0  0  0  0
  -25.5914  -33.8622   24.2346 N   0  0  0  0  0  0
  -23.4109  -30.4937   21.5522 C   0  0  2  0  0  0
  -24.8544  -28.9577   20.1175 C   0  0  0  0  0  0
  -22.7433  -29.4674   22.4977 C   0  0  0  0  0  0
  -18.0267  -28.1386   22.8507 C   0  0  0  0  0  0
  -24.1481  -36.7310   23.2643 C   0  0  0  0  0  0
  -25.9484  -30.8170   21.3714 C   0  0  0  0  0  0
  -26.0235  -29.4501   20.7107 C   0  0  0  0  0  0
  -27.2144  -28.6752   20.6880 C   0  0  0  0  0  0
  -26.0368  -26.9372   19.4687 C   0  0  0  0  0  0
  -24.8577  -27.7020   19.4957 C   0  0  0  0  0  0
  -23.6220  -29.8326   20.1668 C   0  0  0  0  0  0
  -25.4103  -36.3122   24.0350 C   0  0  1  0  0  0
  -20.5874  -28.3669   23.1282 C   0  0  2  0  0  0
  -20.6803  -26.9441   22.5305 C   0  0  0  0  0  0
  -19.5698  -26.6341   21.5218 C   0  0  0  0  0  0
  -18.1861  -26.7966   22.1557 C   0  0  0  0  0  0
  -19.1532  -28.8819   23.2936 C   0  0  0  0  0  0
  -18.9456  -30.1369   23.9047 C   0  0  0  0  0  0
  -17.6474  -30.6549   24.0651 C   0  0  0  0  0  0
  -25.9038  -34.9476   23.5142 C   0  0  0  0  0  0
  -16.5354  -29.9108   23.6347 C   0  0  0  0  0  0
  -16.7259  -28.6518   23.0377 C   0  0  0  0  0  0
  -26.4480  -31.6597   25.0745 C   0  0  0  0  0  0
  -25.3739  -31.3714   26.1494 C   0  0  0  0  0  0
  -27.0332  -30.3039   24.6151 C   0  0  0  0  0  0
  -27.6050  -32.4319   25.7506 C   0  0  0  0  0  0
  -27.5582  -37.1822   24.8476 C   0  0  0  0  0  0
  -21.4146  -29.3090   22.3737 N   0  0  0  0  0  0
  -26.4298  -37.3800   23.9409 N   0  0  0  0  0  0
  -24.6786  -31.0736   22.1012 N   0  0  0  0  0  0
  -23.4185  -28.8179   23.3006 O   0  0  0  0  0  0
  -28.3761  -26.5911   20.1145 O   0  0  0  0  0  0
  -26.5599  -34.8931   22.4708 O   0  0  0  0  0  0
  -23.5385  -32.1436   23.7441 O   0  0  0  0  0  0
  -30.2406  -19.3782   20.3446 C   0  0  0  0  0  0
  -28.8690  -17.6336   19.3371 C   0  0  0  0  0  0
  -28.6627  -19.9434   18.5731 C   0  0  0  0  0  0
  -29.8558  -18.0050   20.2737 C   0  0  0  0  0  0
  -29.6486  -20.3606   19.4981 C   0  0  0  0  0  0
  -28.2787  -18.5922   18.4919 C   0  0  0  0  0  0
  -27.3238  -23.2956   21.7904 C   0  0  0  0  0  0
  -27.5712  -24.8071   21.5979 C   0  0  0  0  0  0
  -27.9287  -22.4185   20.6777 C   0  0  0  0  0  0
  -29.4950  -24.2762   20.0474 C   0  0  0  0  0  0
  -28.1977  -25.1419   20.2287 C   0  0  2  0  0  0
  -30.4950  -16.9439   21.1961 C   0  0  0  0  0  0
  -30.0825  -21.8511   19.4969 C   0  0  0  0  0  0
  -30.0204  -15.5461   21.0614 N   0  0  0  0  0  0
  -29.3356  -22.8039   20.3929 N   0  3  2  0  0  0
  -27.0894  -18.1035   17.3407 Cl  0  0  0  0  0  0
  -31.4691  -12.4144   19.1346 H   0  0  0  0  0  0
  -30.3108  -11.3316   19.8517 H   0  0  0  0  0  0
  -29.7442  -11.7662   17.4403 H   0  0  0  0  0  0
  -29.6591  -13.4817   17.7515 H   0  0  0  0  0  0
  -27.8421  -11.3081   18.8352 H   0  0  0  0  0  0
  -27.3662  -12.6167   17.7857 H   0  0  0  0  0  0
  -27.6857  -14.2572   19.5462 H   0  0  0  0  0  0
  -28.6952  -12.0041   21.3603 H   0  0  0  0  0  0
  -28.4705  -13.6558   21.8543 H   0  0  0  0  0  0
  -25.2765   -9.5701   22.4760 H   0  0  0  0  0  0
  -24.0013   -7.4644   22.7484 H   0  0  0  0  0  0
  -21.0847   -8.8788   19.8950 H   0  0  0  0  0  0
  -22.3706  -10.9688   19.6173 H   0  0  0  0  0  0
  -21.1972   -7.6149   23.9722 H   0  0  0  0  0  0
  -21.1492   -6.0528   25.9086 H   0  0  0  0  0  0
  -22.0582   -2.7615   23.2871 H   0  0  0  0  0  0
  -22.4139  -11.9890   22.4757 H   0  0  0  0  0  0
  -21.1144  -13.1294   22.2601 H   0  0  0  0  0  0
  -24.6659  -15.8435   20.5403 H   0  0  0  0  0  0
  -26.2804  -15.6341   20.0989 H   0  0  0  0  0  0
  -26.7149  -32.5515   23.1173 H   0  0  0  0  0  0
  -25.0075  -33.9784   25.0502 H   0  0  0  0  0  0
  -22.7033  -31.3126   21.4137 H   0  0  0  0  0  0
  -23.3744  -35.9649   23.3337 H   0  0  0  0  0  0
  -24.3577  -36.8885   22.2053 H   0  0  0  0  0  0
  -23.7234  -37.6529   23.6627 H   0  0  0  0  0  0
  -26.0736  -31.5844   20.6072 H   0  0  0  0  0  0
  -26.8325  -30.8650   21.9954 H   0  0  0  0  0  0
  -28.1137  -29.0527   21.1543 H   0  0  0  0  0  0
  -25.9722  -25.9961   18.9461 H   0  0  0  0  0  0
  -23.9604  -27.3200   19.0293 H   0  0  0  0  0  0
  -23.7469  -30.6116   19.4134 H   0  0  0  0  0  0
  -22.7417  -29.2653   19.8583 H   0  0  0  0  0  0
  -25.1277  -36.2006   25.0847 H   0  0  0  0  0  0
  -20.9964  -28.3161   24.1402 H   0  0  0  0  0  0
  -20.5948  -26.2253   23.3454 H   0  0  0  0  0  0
  -21.6628  -26.7646   22.0915 H   0  0  0  0  0  0
  -19.6630  -27.3064   20.6680 H   0  0  0  0  0  0
  -19.6829  -25.6209   21.1351 H   0  0  0  0  0  0
  -17.4198  -26.6925   21.3857 H   0  0  0  0  0  0
  -18.0031  -26.0039   22.8831 H   0  0  0  0  0  0
  -19.7929  -30.7096   24.2583 H   0  0  0  0  0  0
  -17.5038  -31.6205   24.5298 H   0  0  0  0  0  0
  -15.5362  -30.3045   23.7646 H   0  0  0  0  0  0
  -15.8646  -28.0860   22.7086 H   0  0  0  0  0  0
  -24.5899  -30.7075   25.7835 H   0  0  0  0  0  0
  -24.8949  -32.2875   26.4956 H   0  0  0  0  0  0
  -25.8088  -30.8872   27.0245 H   0  0  0  0  0  0
  -26.2905  -29.6782   24.1188 H   0  0  0  0  0  0
  -27.4082  -29.7291   25.4628 H   0  0  0  0  0  0
  -27.8742  -30.4363   23.9344 H   0  0  0  0  0  0
  -27.2671  -33.3606   26.2116 H   0  0  0  0  0  0
  -28.3844  -32.6894   25.0323 H   0  0  0  0  0  0
  -28.0742  -31.8423   26.5397 H   0  0  0  0  0  0
  -28.2629  -38.0086   24.7491 H   0  0  0  0  0  0
  -28.1043  -36.2622   24.6340 H   0  0  0  0  0  0
  -27.2301  -37.1526   25.8880 H   0  0  0  0  0  0
  -20.9316  -29.8861   21.7000 H   0  0  0  0  0  0
  -26.0194  -38.2893   24.1369 H   0  0  0  0  0  0
  -31.0064  -19.6781   21.0480 H   0  0  0  0  0  0
  -28.5589  -16.6055   19.2580 H   0  0  0  0  0  0
  -28.2062  -20.6584   17.9020 H   0  0  0  0  0  0
  -26.2531  -23.0964   21.8481 H   0  0  0  0  0  0
  -27.7319  -22.9876   22.7541 H   0  0  0  0  0  0
  -28.2422  -25.1649   22.3786 H   0  0  0  0  0  0
  -26.6331  -25.3395   21.7475 H   0  0  0  0  0  0
  -27.3367  -22.4815   19.7633 H   0  0  0  0  0  0
  -27.8665  -21.3828   21.0094 H   0  0  0  0  0  0
  -30.2880  -24.6794   20.6769 H   0  0  0  0  0  0
  -29.8439  -24.3973   19.0209 H   0  0  0  0  0  0
  -27.5372  -24.8019   19.4345 H   0  0  0  0  0  0
  -31.5801  -16.9916   21.0815 H   0  0  0  0  0  0
  -30.2975  -17.2372   22.2275 H   0  0  0  0  0  0
  -29.9770  -22.1972   18.4687 H   0  0  0  0  0  0
  -31.1492  -21.9142   19.7200 H   0  0  0  0  0  0
  -29.0987  -15.3399   21.4154 H   0  0  0  0  0  0
  -29.8007  -22.6885   21.2827 H   0  0  0  0  0  0
  1 25  1  0  0  0
  1 30  2  0  0  0
  1 84  1  0  0  0
  2  3  1  0  0  0
  2 25  1  0  0  0
  2 87  1  0  0  0
  2 88  1  0  0  0
  3  4  1  0  0  0
  3 89  1  0  0  0
  3 90  1  0  0  0
  4  5  1  0  0  0
  4 91  1  0  0  0
  4 92  1  0  0  0
  5  6  1  0  0  0
  5 26  1  0  0  0
  5 93  1  0  0  0
  6 25  1  0  0  0
  6 94  1  0  0  0
  6 95  1  0  0  0
  7  8  2  0  0  0
  7 26  1  0  0  0
  7 29  1  0  0  0
  8  9  1  0  0  0
  8 22  1  0  0  0
  9 10  1  0  0  0
  9 27  2  0  0  0
 10 11  2  0  0  0
 10 15  1  0  0  0
 11 12  1  0  0  0
 11 96  1  0  0  0
 12 13  2  0  0  0
 12 97  1  0  0  0
 13 14  1  0  0  0
 13 31  1  0  0  0
 14 15  2  0  0  0
 14 98  1  0  0  0
 15 99  1  0  0  0
 16 17  2  0  0  0
 16 21  1  0  0  0
 16 31  1  0  0  0
 17 18  1  0  0  0
 17100  1  0  0  0
 18 19  2  0  0  0
 18101  1  0  0  0
 19 20  1  0  0  0
 19 24  1  0  0  0
 20 21  2  0  0  0
 20102  1  0  0  0
 21 23  1  0  0  0
 22 28  1  0  0  0
 22 32  2  0  0  0
 26 27  1  0  0  0
 28103  1  0  0  0
 28104  1  0  0  0
 29105  1  0  0  0
 29106  1  0  0  0
 33 34  1  0  0  0
 33 66  1  0  0  0
 33 70  2  0  0  0
 34 36  1  0  0  0
 34 59  1  0  0  0
 34107  1  0  0  0
 35 44  2  0  0  0
 35 45  1  0  0  0
 35 68  1  0  0  0
 36 56  1  0  0  0
 36108  1  0  0  0
 37 39  1  0  0  0
 37 47  1  0  0  0
 37 66  1  0  0  0
 37109  1  0  0  0
 38 43  2  0  0  0
 38 46  1  0  0  0
 38 47  1  0  0  0
 39 64  1  0  0  0
 39 67  2  0  0  0
 40 52  1  0  0  0
 40 53  2  0  0  0
 40 58  1  0  0  0
 41110  1  0  0  0
 41111  1  0  0  0
 41112  1  0  0  0
 41 48  1  0  0  0
 42 43  1  0  0  0
 42 66  1  0  0  0
 42113  1  0  0  0
 42114  1  0  0  0
 43 44  1  0  0  0
 44115  1  0  0  0
 45 46  2  0  0  0
 45116  1  0  0  0
 46117  1  0  0  0
 47118  1  0  0  0
 47119  1  0  0  0
 48 56  1  0  0  0
 48 65  1  0  0  0
 48120  1  0  0  0
 49 50  1  0  0  0
 49 53  1  0  0  0
 49 64  1  0  0  0
 49121  1  0  0  0
 50 51  1  0  0  0
 50122  1  0  0  0
 50123  1  0  0  0
 51 52  1  0  0  0
 51124  1  0  0  0
 51125  1  0  0  0
 52126  1  0  0  0
 52127  1  0  0  0
 53 54  1  0  0  0
 54 55  2  0  0  0
 54128  1  0  0  0
 55 57  1  0  0  0
 55129  1  0  0  0
 56 69  2  0  0  0
 57 58  2  0  0  0
 57130  1  0  0  0
 58131  1  0  0  0
 59 60  1  0  0  0
 59 61  1  0  0  0
 59 62  1  0  0  0
 60132  1  0  0  0
 60133  1  0  0  0
 60134  1  0  0  0
 61135  1  0  0  0
 61136  1  0  0  0
 61137  1  0  0  0
 62138  1  0  0  0
 62139  1  0  0  0
 62140  1  0  0  0
 63 65  1  0  0  0
 63141  1  0  0  0
 63142  1  0  0  0
 63143  1  0  0  0
 64144  1  0  0  0
 65145  1  0  0  0
 68 81  1  0  0  0
 71 74  2  0  0  0
 71 75  1  0  0  0
 71146  1  0  0  0
 72 74  1  0  0  0
 72 76  2  0  0  0
 72147  1  0  0  0
 73 75  2  0  0  0
 73 76  1  0  0  0
 73148  1  0  0  0
 74 82  1  0  0  0
 75 83  1  0  0  0
 76 86  1  0  0  0
 77 78  1  0  0  0
 77 79  1  0  0  0
 77149  1  0  0  0
 77150  1  0  0  0
 78 81  1  0  0  0
 78151  1  0  0  0
 78152  1  0  0  0
 79 85  1  0  0  0
 79153  1  0  0  0
 79154  1  0  0  0
 80 81  1  0  0  0
 80 85  1  0  0  0
 80155  1  0  0  0
 80156  1  0  0  0
 81157  1  0  0  0
 82 84  1  0  0  0
 82158  1  0  0  0
 82159  1  0  0  0
 83160  1  0  0  0
 83161  1  0  0  0
 83 85  1  0  0  0
 84162  1  0  0  0
 85163  1  0  0  0
M  CHG  1  85   1
M  ISO  4   1 100  68 101  81 101  84 100
M  END
> <chiral flag>
0

> <version>
0

> <s_m_source_file>
/data/baiqing/PycharmProjects/Reinvent-master-3.2/result/LINK_invent/BTK/process_docking_weight1_custom_product_contain_oxygen_bond_distance_aromatic_linkinvent_7_9_3/rearranged_h_0046.sdf

> <i_m_source_file_index>
21

> <r_mmod_Potential_Energy-OPLS-2005>
-138.433059692383

> <r_mmod_Stretch_Energy-OPLS-2005>
54.7482032775879

> <r_mmod_Bend_Energy-OPLS-2005>
112.334678649902

> <r_mmod_Torsional_Energy-OPLS-2005>
237.700973510742

> <r_mmod_Improper_Torsional_Energy-OPLS-2005>
3.14883828163147

> <r_mmod_Van_der_Waal_Energy-OPLS-2005>
160.817291259766

> <r_mmod_Electrostatic_Energy-OPLS-2005>
-289.450225830078

> <r_mmod_Solvation_Energy-OPLS-2005>
-438.887878417969

> <b_mmod_Minimization_Converged-OPLS-2005>
0

> <r_mmod_RMS_Derivative-OPLS-2005>
3.48047733306885

$$$$
21
                    3D
 Structure written by MMmdl.
167176  0  0  1  0            999 V2000
  -30.6151  -14.6446   20.4872 C   0  0  0  0  0  0
  -30.4365  -12.3907   19.4563 C   0  0  0  0  0  0
  -29.5083  -12.5063   18.2262 C   0  0  0  0  0  0
  -28.0301  -12.3467   18.6357 C   0  0  0  0  0  0
  -27.6524  -13.2174   19.8638 C   0  0  2  0  0  0
  -28.6960  -13.0732   20.9943 C   0  0  0  0  0  0
  -25.2551  -13.8177   20.5682 C   0  0  0  0  0  0
  -24.1824  -13.0440   20.9194 C   0  0  0  0  0  0
  -24.6395  -11.6911   20.8739 C   0  0  0  0  0  0
  -23.9063  -10.4295   21.0405 C   0  0  0  0  0  0
  -24.3615   -9.4212   21.9181 C   0  0  0  0  0  0
  -23.6294   -8.2247   22.0753 C   0  0  0  0  0  0
  -22.4275   -8.0285   21.3547 C   0  0  0  0  0  0
  -21.9907   -9.0255   20.4645 C   0  0  0  0  0  0
  -22.7235  -10.2134   20.3056 C   0  0  0  0  0  0
  -21.6852   -6.0739   22.5281 C   0  0  0  0  0  0
  -21.4013   -6.5640   23.8215 C   0  0  0  0  0  0
  -21.3662   -5.6793   24.9177 C   0  0  0  0  0  0
  -21.6044   -4.3056   24.7228 C   0  0  0  0  0  0
  -21.8820   -3.8149   23.4348 C   0  0  0  0  0  0
  -21.9192   -4.6966   22.3404 C   0  0  0  0  0  0
  -22.7846  -13.5228   21.1861 C   0  0  0  0  0  0
  -22.1659   -4.2154   21.0980 F   0  0  0  0  0  0
  -21.5633   -3.4535   25.7738 F   0  0  0  0  0  0
  -30.0114  -13.4147   20.4321 N   0  0  0  0  0  0
  -26.2981  -12.9359   20.3318 N   0  0  0  0  0  0
  -25.9323  -11.6511   20.5754 N   0  0  0  0  0  0
  -22.0491  -12.8217   22.0419 N   0  0  0  0  0  0
  -25.4252  -15.1900   20.4080 N   0  0  0  0  0  0
  -31.7801  -14.7957   20.1075 O   0  0  0  0  0  0
  -21.6642   -6.8881   21.4243 O   0  0  0  0  0  0
  -22.3528  -14.5534   20.6714 O   0  0  0  0  0  0
  -24.6250  -31.8602   23.2027 C   0  0  0  0  0  0
  -25.9101  -32.4779   23.8354 C   0  0  1  0  0  0
  -27.2227  -27.3263   20.1221 C   0  0  0  0  0  0
  -25.5920  -33.8581   24.2281 N   0  0  0  0  0  0
  -23.4185  -30.4834   21.5453 C   0  0  2  0  0  0
  -24.8656  -28.9365   20.1137 C   0  0  0  0  0  0
  -22.7466  -29.4629   22.4943 C   0  0  0  0  0  0
  -18.0285  -28.1383   22.8488 C   0  0  0  0  0  0
  -24.1490  -36.7295   23.2639 C   0  0  0  0  0  0
  -25.9584  -30.7930   21.3732 C   0  0  0  0  0  0
  -26.0337  -29.4199   20.7180 C   0  0  0  0  0  0
  -27.2183  -28.6266   20.7114 C   0  0  0  0  0  0
  -26.0379  -26.8950   19.4887 C   0  0  0  0  0  0
  -24.8685  -27.6785   19.4906 C   0  0  0  0  0  0
  -23.6333  -29.8164   20.1612 C   0  0  0  0  0  0
  -25.4115  -36.3085   24.0330 C   0  0  1  0  0  0
  -20.5884  -28.3688   23.1286 C   0  0  2  0  0  0
  -20.6776  -26.9413   22.5410 C   0  0  0  0  0  0
  -19.5752  -26.6385   21.5212 C   0  0  0  0  0  0
  -18.1931  -26.7928   22.1624 C   0  0  0  0  0  0
  -19.1536  -28.8851   23.2884 C   0  0  0  0  0  0
  -18.9460  -30.1454   23.8900 C   0  0  0  0  0  0
  -17.6461  -30.6587   24.0564 C   0  0  0  0  0  0
  -25.9050  -34.9453   23.5107 C   0  0  0  0  0  0
  -16.5353  -29.9086   23.6330 C   0  0  0  0  0  0
  -16.7273  -28.6503   23.0352 C   0  0  0  0  0  0
  -26.4489  -31.6585   25.0720 C   0  0  0  0  0  0
  -25.3727  -31.3720   26.1450 C   0  0  0  0  0  0
  -27.0332  -30.3010   24.6169 C   0  0  0  0  0  0
  -27.6053  -32.4317   25.7489 C   0  0  0  0  0  0
  -27.5581  -37.1803   24.8464 C   0  0  0  0  0  0
  -21.4182  -29.3042   22.3682 N   0  0  0  0  0  0
  -26.4293  -37.3778   23.9408 N   0  0  0  0  0  0
  -24.6861  -31.0618   22.0976 N   0  0  0  0  0  0
  -23.4193  -28.8170   23.3022 O   0  0  0  0  0  0
  -28.3371  -26.4791   20.1306 O   0  0  0  0  0  0
  -26.5619  -34.8920   22.4674 O   0  0  0  0  0  0
  -23.5416  -32.1398   23.7361 O   0  0  0  0  0  0
  -28.8252  -19.4005   20.7943 C   0  0  0  0  0  0
  -28.8467  -17.9986   21.0617 C   0  0  0  0  0  0
  -30.8759  -17.7823   19.8134 C   0  0  0  0  0  0
  -29.8275  -20.0474   20.0214 C   0  0  0  0  0  0
  -30.8619  -19.1828   19.5020 C   0  0  0  0  0  0
  -29.8725  -17.1424   20.5797 C   0  0  0  0  0  0
  -28.8652  -23.9494   19.8191 C   0  0  0  0  0  0
  -29.2048  -23.7798   22.6309 C   0  0  0  0  0  0
  -28.5039  -25.0669   22.1458 C   0  0  0  0  0  0
  -28.8014  -22.5291   21.8239 C   0  0  0  0  0  0
  -28.1458  -25.0956   20.6401 C   0  0  1  0  0  0
  -33.1377  -20.3064   19.4331 C   0  0  0  0  0  0
  -32.5550  -18.6814   17.5968 C   0  0  0  0  0  0
  -29.7705  -21.5920   19.6431 C   0  0  0  0  0  0
  -31.9945  -19.7169   18.5931 C   0  0  0  0  0  0
  -29.0613  -22.7013   20.3890 N   0  0  0  0  0  0
  -29.8074  -15.6980   20.8416 N   0  0  0  0  0  0
  -29.2151  -24.1952   18.6600 O   0  0  0  0  0  0
  -31.5399  -20.6701   17.7804 F   0  0  0  0  0  0
  -31.4780  -12.5138   19.1550 H   0  0  0  0  0  0
  -30.3699  -11.3952   19.8986 H   0  0  0  0  0  0
  -29.7725  -11.7538   17.4821 H   0  0  0  0  0  0
  -29.6538  -13.4749   17.7446 H   0  0  0  0  0  0
  -27.8640  -11.2934   18.8654 H   0  0  0  0  0  0
  -27.3775  -12.5787   17.7931 H   0  0  0  0  0  0
  -27.6698  -14.2528   19.5233 H   0  0  0  0  0  0
  -28.7066  -12.0520   21.3777 H   0  0  0  0  0  0
  -28.4418  -13.7068   21.8455 H   0  0  0  0  0  0
  -25.2763   -9.5690   22.4749 H   0  0  0  0  0  0
  -24.0010   -7.4637   22.7467 H   0  0  0  0  0  0
  -21.0842   -8.8765   19.8950 H   0  0  0  0  0  0
  -22.3691  -10.9668   19.6161 H   0  0  0  0  0  0
  -21.2002   -7.6148   23.9720 H   0  0  0  0  0  0
  -21.1482   -6.0522   25.9079 H   0  0  0  0  0  0
  -22.0597   -2.7612   23.2844 H   0  0  0  0  0  0
  -22.4099  -11.9872   22.4800 H   0  0  0  0  0  0
  -21.1109  -13.1247   22.2624 H   0  0  0  0  0  0
  -24.6536  -15.8404   20.5105 H   0  0  0  0  0  0
  -26.2663  -15.6290   20.0559 H   0  0  0  0  0  0
  -26.7170  -32.5454   23.1105 H   0  0  0  0  0  0
  -25.0059  -33.9729   25.0420 H   0  0  0  0  0  0
  -22.7120  -31.3036   21.4015 H   0  0  0  0  0  0
  -23.3753  -35.9627   23.3302 H   0  0  0  0  0  0
  -24.3582  -36.8916   22.2054 H   0  0  0  0  0  0
  -23.7243  -37.6497   23.6661 H   0  0  0  0  0  0
  -26.0885  -31.5563   20.6047 H   0  0  0  0  0  0
  -26.8392  -30.8426   22.0017 H   0  0  0  0  0  0
  -28.1170  -28.9931   21.1876 H   0  0  0  0  0  0
  -26.0082  -25.9370   18.9892 H   0  0  0  0  0  0
  -23.9749  -27.3048   19.0095 H   0  0  0  0  0  0
  -23.7523  -30.5919   19.4037 H   0  0  0  0  0  0
  -22.7534  -29.2452   19.8594 H   0  0  0  0  0  0
  -25.1298  -36.1938   25.0822 H   0  0  0  0  0  0
  -20.9976  -28.3260   24.1407 H   0  0  0  0  0  0
  -20.5678  -26.2297   23.3609 H   0  0  0  0  0  0
  -21.6645  -26.7445   22.1203 H   0  0  0  0  0  0
  -19.6915  -25.6296   21.1241 H   0  0  0  0  0  0
  -19.6690  -27.3196   20.6742 H   0  0  0  0  0  0
  -17.4201  -26.6675   21.4025 H   0  0  0  0  0  0
  -18.0333  -26.0066   22.9017 H   0  0  0  0  0  0
  -19.7938  -30.7270   24.2270 H   0  0  0  0  0  0
  -17.5017  -31.6267   24.5163 H   0  0  0  0  0  0
  -15.5354  -30.2991   23.7651 H   0  0  0  0  0  0
  -15.8671  -28.0824   22.7066 H   0  0  0  0  0  0
  -24.5895  -30.7079   25.7775 H   0  0  0  0  0  0
  -24.8926  -32.2885   26.4888 H   0  0  0  0  0  0
  -25.8051  -30.8882   27.0217 H   0  0  0  0  0  0
  -26.2904  -29.6760   24.1196 H   0  0  0  0  0  0
  -27.4036  -29.7264   25.4668 H   0  0  0  0  0  0
  -27.8770  -30.4298   23.9385 H   0  0  0  0  0  0
  -27.2665  -33.3613   26.2076 H   0  0  0  0  0  0
  -28.3856  -32.6885   25.0313 H   0  0  0  0  0  0
  -28.0729  -31.8437   26.5397 H   0  0  0  0  0  0
  -28.2599  -38.0100   24.7512 H   0  0  0  0  0  0
  -28.1077  -36.2632   24.6289 H   0  0  0  0  0  0
  -27.2299  -37.1451   25.8867 H   0  0  0  0  0  0
  -20.9357  -29.8763   21.6894 H   0  0  0  0  0  0
  -26.0176  -38.2855   24.1406 H   0  0  0  0  0  0
  -27.9962  -19.9783   21.1763 H   0  0  0  0  0  0
  -28.0381  -17.5799   21.6447 H   0  0  0  0  0  0
  -31.6698  -17.1653   19.4299 H   0  0  0  0  0  0
  -29.0073  -23.6258   23.6929 H   0  0  0  0  0  0
  -30.2850  -23.9120   22.5474 H   0  0  0  0  0  0
  -29.1348  -25.9208   22.3948 H   0  0  0  0  0  0
  -27.5844  -25.2086   22.7156 H   0  0  0  0  0  0
  -27.7434  -22.3076   21.9702 H   0  0  0  0  0  0
  -29.3613  -21.6794   22.2143 H   0  0  0  0  0  0
  -27.0955  -24.8128   20.5764 H   0  0  0  0  0  0
  -33.5848  -19.5433   20.0708 H   0  0  0  0  0  0
  -32.7985  -21.1119   20.0830 H   0  0  0  0  0  0
  -33.9267  -20.7094   18.7978 H   0  0  0  0  0  0
  -33.1250  -17.8918   18.0855 H   0  0  0  0  0  0
  -33.2371  -19.1550   16.8897 H   0  0  0  0  0  0
  -31.7570  -18.2199   17.0144 H   0  0  0  0  0  0
  -29.3938  -21.6120   18.6188 H   0  0  0  0  0  0
  -30.7933  -21.9576   19.5921 H   0  0  0  0  0  0
  -28.9305  -15.3882   21.2313 H   0  0  0  0  0  0
  1 25  1  0  0  0
  1 30  2  0  0  0
  1 87  1  0  0  0
  2  3  1  0  0  0
  2 25  1  0  0  0
  2 90  1  0  0  0
  2 91  1  0  0  0
  3  4  1  0  0  0
  3 92  1  0  0  0
  3 93  1  0  0  0
  4  5  1  0  0  0
  4 94  1  0  0  0
  4 95  1  0  0  0
  5  6  1  0  0  0
  5 26  1  0  0  0
  5 96  1  0  0  0
  6 25  1  0  0  0
  6 97  1  0  0  0
  6 98  1  0  0  0
  7  8  2  0  0  0
  7 26  1  0  0  0
  7 29  1  0  0  0
  8  9  1  0  0  0
  8 22  1  0  0  0
  9 10  1  0  0  0
  9 27  2  0  0  0
 10 11  2  0  0  0
 10 15  1  0  0  0
 11 12  1  0  0  0
 11 99  1  0  0  0
 12 13  2  0  0  0
 12100  1  0  0  0
 13 14  1  0  0  0
 13 31  1  0  0  0
 14 15  2  0  0  0
 14101  1  0  0  0
 15102  1  0  0  0
 16 17  2  0  0  0
 16 21  1  0  0  0
 16 31  1  0  0  0
 17 18  1  0  0  0
 17103  1  0  0  0
 18 19  2  0  0  0
 18104  1  0  0  0
 19 20  1  0  0  0
 19 24  1  0  0  0
 20 21  2  0  0  0
 20105  1  0  0  0
 21 23  1  0  0  0
 22 28  1  0  0  0
 22 32  2  0  0  0
 26 27  1  0  0  0
 28106  1  0  0  0
 28107  1  0  0  0
 29108  1  0  0  0
 29109  1  0  0  0
 33 34  1  0  0  0
 33 66  1  0  0  0
 33 70  2  0  0  0
 34 36  1  0  0  0
 34 59  1  0  0  0
 34110  1  0  0  0
 35 44  2  0  0  0
 35 45  1  0  0  0
 35 68  1  0  0  0
 36 56  1  0  0  0
 36111  1  0  0  0
 37 39  1  0  0  0
 37 47  1  0  0  0
 37 66  1  0  0  0
 37112  1  0  0  0
 38 43  2  0  0  0
 38 46  1  0  0  0
 38 47  1  0  0  0
 39 64  1  0  0  0
 39 67  2  0  0  0
 40 52  1  0  0  0
 40 53  2  0  0  0
 40 58  1  0  0  0
 41113  1  0  0  0
 41114  1  0  0  0
 41115  1  0  0  0
 41 48  1  0  0  0
 42 43  1  0  0  0
 42 66  1  0  0  0
 42116  1  0  0  0
 42117  1  0  0  0
 43 44  1  0  0  0
 44118  1  0  0  0
 45 46  2  0  0  0
 45119  1  0  0  0
 46120  1  0  0  0
 47121  1  0  0  0
 47122  1  0  0  0
 48 56  1  0  0  0
 48 65  1  0  0  0
 48123  1  0  0  0
 49 50  1  0  0  0
 49 53  1  0  0  0
 49 64  1  0  0  0
 49124  1  0  0  0
 50 51  1  0  0  0
 50125  1  0  0  0
 50126  1  0  0  0
 51 52  1  0  0  0
 51127  1  0  0  0
 51128  1  0  0  0
 52129  1  0  0  0
 52130  1  0  0  0
 53 54  1  0  0  0
 54 55  2  0  0  0
 54131  1  0  0  0
 55 57  1  0  0  0
 55132  1  0  0  0
 56 69  2  0  0  0
 57 58  2  0  0  0
 57133  1  0  0  0
 58134  1  0  0  0
 59 60  1  0  0  0
 59 61  1  0  0  0
 59 62  1  0  0  0
 60135  1  0  0  0
 60136  1  0  0  0
 60137  1  0  0  0
 61138  1  0  0  0
 61139  1  0  0  0
 61140  1  0  0  0
 62141  1  0  0  0
 62142  1  0  0  0
 62143  1  0  0  0
 63 65  1  0  0  0
 63144  1  0  0  0
 63145  1  0  0  0
 63146  1  0  0  0
 64147  1  0  0  0
 65148  1  0  0  0
 68 81  1  0  0  0
 71 72  2  0  0  0
 71 74  1  0  0  0
 71149  1  0  0  0
 72 76  1  0  0  0
 72150  1  0  0  0
 73 75  1  0  0  0
 73 76  2  0  0  0
 73151  1  0  0  0
 74 75  2  0  0  0
 74 84  1  0  0  0
 75 85  1  0  0  0
 76 87  1  0  0  0
 77 81  1  0  0  0
 77 86  1  0  0  0
 77 88  2  0  0  0
 78 79  1  0  0  0
 78 80  1  0  0  0
 78152  1  0  0  0
 78153  1  0  0  0
 79 81  1  0  0  0
 79154  1  0  0  0
 79155  1  0  0  0
 80 86  1  0  0  0
 80156  1  0  0  0
 80157  1  0  0  0
 81158  1  0  0  0
 82159  1  0  0  0
 82160  1  0  0  0
 82161  1  0  0  0
 82 85  1  0  0  0
 83 85  1  0  0  0
 83162  1  0  0  0
 83163  1  0  0  0
 83164  1  0  0  0
 84 86  1  0  0  0
 84165  1  0  0  0
 84166  1  0  0  0
 85 89  1  0  0  0
 87167  1  0  0  0
M  ISO  4   1 100  68 101  81 101  87 100
M  END
> <chiral flag>
0

> <version>
0

> <s_m_source_file>
/data/baiqing/PycharmProjects/Reinvent-master-3.2/result/LINK_invent/BTK/process_docking_weight1_custom_product_contain_oxygen_bond_distance_aromatic_linkinvent_7_9_3/rearranged_h_0046.sdf

> <i_m_source_file_index>
22

> <r_mmod_Potential_Energy-OPLS-2005>
136.421981811523

> <r_mmod_Stretch_Energy-OPLS-2005>
92.0714416503906

> <r_mmod_Bend_Energy-OPLS-2005>
156.363388061523

> <r_mmod_Torsional_Energy-OPLS-2005>
259.871520996094

> <r_mmod_Improper_Torsional_Energy-OPLS-2005>
4.56320095062256

> <r_mmod_Van_der_Waal_Energy-OPLS-2005>
166.442855834961

> <r_mmod_Electrostatic_Energy-OPLS-2005>
-364.790710449219

> <r_mmod_Solvation_Energy-OPLS-2005>
-225.29621887207

> <b_mmod_Minimization_Converged-OPLS-2005>
0

> <r_mmod_RMS_Derivative-OPLS-2005>
0.655078947544098

$$$$
22
                    3D
 Structure written by MMmdl.
161170  0  0  1  0            999 V2000
  -29.6444  -14.4404   19.5220 C   0  0  0  0  0  0
  -30.4195  -12.2159   19.4009 C   0  0  0  0  0  0
  -29.3496  -11.7587   18.3839 C   0  0  0  0  0  0
  -27.9718  -11.4693   19.1909 C   0  0  0  0  0  0
  -27.6501  -12.4700   20.4250 C   0  0  2  0  0  0
  -28.8824  -12.8774   21.2023 C   0  0  0  0  0  0
  -24.9705  -14.7428   20.2132 C   0  0  0  0  0  0
  -24.3352  -14.3781   20.5027 C   0  0  0  0  0  0
  -25.3945  -12.4235   21.0611 C   0  0  0  0  0  0
  -24.7047  -10.6605   21.1136 C   0  0  0  0  0  0
  -24.6600   -9.6974   22.1980 C   0  0  0  0  0  0
  -23.8100   -8.5073   22.3232 C   0  0  0  0  0  0
  -22.7475   -8.1751   21.4333 C   0  0  0  0  0  0
  -22.7001   -9.0399   20.3364 C   0  0  0  0  0  0
  -23.7253  -10.0383   20.1428 C   0  0  0  0  0  0
  -21.7872   -6.1790   22.5401 C   0  0  0  0  0  0
  -21.4631   -6.6179   23.8419 C   0  0  0  0  0  0
  -21.3764   -5.7034   24.9128 C   0  0  0  0  0  0
  -21.5979   -4.3313   24.6952 C   0  0  0  0  0  0
  -21.8714   -3.8714   23.3952 C   0  0  0  0  0  0
  -21.9513   -4.7834   22.3216 C   0  0  0  0  0  0
  -22.7062  -14.8805   20.7226 C   0  0  0  0  0  0
  -22.1852   -4.3002   21.0764 F   0  0  0  0  0  0
  -21.5449   -3.4597   25.7318 F   0  0  0  0  0  0
  -29.8151  -13.2918   20.1896 N   0  0  0  0  0  0
  -26.1525  -13.1793   20.8591 N   0  0  0  0  0  0
  -26.2526  -12.3870   21.8487 N   0  0  0  0  0  0
  -21.8127  -14.2235   21.5680 N   0  0  0  0  0  0
  -24.9524  -16.0058   19.5658 N   0  0  0  0  0  0
  -30.7227  -15.0965   19.5039 O   0  0  0  0  0  0
  -21.8590   -7.0828   21.4877 O   0  0  0  0  0  0
  -22.1655  -15.6263   19.9805 O   0  0  0  0  0  0
  -24.7078  -31.7645   23.1398 C   0  0  0  0  0  0
  -25.9576  -32.4250   23.7985 C   0  0  1  0  0  0
  -26.6918  -26.1180   20.5898 C   0  0  0  0  0  0
  -25.6064  -33.8133   24.1781 N   0  0  0  0  0  0
  -23.5300  -30.3792   21.4945 C   0  0  2  0  0  0
  -24.9209  -28.6315   20.1294 C   0  0  0  0  0  0
  -22.7771  -29.4175   22.4557 C   0  0  0  0  0  0
  -18.0316  -28.1426   22.8424 C   0  0  0  0  0  0
  -24.1492  -36.7047   23.2658 C   0  0  0  0  0  0
  -26.1070  -30.2999   21.5024 C   0  0  0  0  0  0
  -26.0673  -28.8107   20.9032 C   0  0  0  0  0  0
  -26.9554  -27.5842   21.0889 C   0  0  0  0  0  0
  -25.7007  -26.3070   19.5894 C   0  0  0  0  0  0
  -24.8311  -27.4310   19.4091 C   0  0  0  0  0  0
  -23.7988  -29.6891   20.1192 C   0  0  0  0  0  0
  -25.4167  -36.2785   24.0252 C   0  0  1  0  0  0
  -20.5961  -28.3797   23.1070 C   0  0  2  0  0  0
  -20.6775  -26.9435   22.5383 C   0  0  0  0  0  0
  -19.5761  -26.6346   21.5197 C   0  0  0  0  0  0
  -18.1942  -26.7944   22.1593 C   0  0  0  0  0  0
  -19.1590  -28.8931   23.2736 C   0  0  0  0  0  0
  -18.9511  -30.1509   23.8795 C   0  0  0  0  0  0
  -17.6510  -30.6614   24.0540 C   0  0  0  0  0  0
  -25.9175  -34.9184   23.4863 C   0  0  0  0  0  0
  -16.5393  -29.9099   23.6353 C   0  0  0  0  0  0
  -16.7299  -28.6515   23.0372 C   0  0  0  0  0  0
  -26.4656  -31.6503   25.0799 C   0  0  0  0  0  0
  -25.3650  -31.3990   26.1378 C   0  0  0  0  0  0
  -27.0691  -30.2786   24.7101 C   0  0  0  0  0  0
  -27.6001  -32.4519   25.7601 C   0  0  0  0  0  0
  -27.5555  -37.1688   24.8462 C   0  0  0  0  0  0
  -21.4403  -29.3021   22.3328 N   0  0  0  0  0  0
  -26.4253  -37.3596   23.9412 N   0  0  0  0  0  0
  -24.8131  -30.8698   22.0899 N   0  0  0  0  0  0
  -23.4110  -28.7768   23.2983 O   0  0  0  0  0  0
  -27.1684  -24.5509   20.8872 O   0  0  0  0  0  0
  -26.5845  -34.8816   22.4502 O   0  0  0  0  0  0
  -23.6060  -32.1021   23.6091 O   0  0  0  0  0  0
  -23.3433  -12.5142   20.4168 C   0  0  0  0  0  0
  -24.9900  -12.9412   18.7973 C   0  0  0  0  0  0
  -27.0758  -15.2907   20.7890 C   0  0  0  0  0  0
  -24.1789  -13.6940   22.5219 C   0  0  0  0  0  0
  -25.7937  -15.2688   22.2758 C   0  0  0  0  0  0
  -26.8021  -14.3393   19.0221 C   0  0  0  0  0  0
  -26.8172  -20.7518   21.7161 C   0  0  0  0  0  0
  -24.5565  -20.9466   20.3022 C   0  0  0  0  0  0
  -25.0035  -22.4553   20.6132 C   0  0  0  0  0  0
  -24.6826  -19.7454   21.3674 C   0  0  0  0  0  0
  -26.4088  -22.7149   21.2415 C   0  0  2  0  0  0
  -25.9120  -17.3663   22.4893 C   0  0  0  0  0  0
  -23.4807  -13.5485   23.8624 C   0  0  0  0  0  0
  -26.0331  -19.2655   21.7876 N   0  0  0  0  0  0
  -28.3786  -14.5735   18.6971 N   0  0  0  0  0  0
  -27.9889  -20.6559   22.0926 O   0  0  0  0  0  0
  -24.3498  -13.1260   24.7794 F   0  0  0  0  0  0
  -22.9738  -14.7157   24.2578 F   0  0  0  0  0  0
  -22.5007  -12.6525   23.7554 F   0  0  0  0  0  0
  -31.3298  -12.5392   18.8924 H   0  0  0  0  0  0
  -30.7066  -11.3880   20.0501 H   0  0  0  0  0  0
  -29.6793  -10.8414   17.8946 H   0  0  0  0  0  0
  -29.2095  -12.4705   17.5701 H   0  0  0  0  0  0
  -28.1253  -10.5031   19.6779 H   0  0  0  0  0  0
  -27.1373  -11.2208   18.5031 H   0  0  0  0  0  0
  -27.7985  -12.6157   19.4571 H   0  0  0  0  0  0
  -29.2714  -12.0262   21.7613 H   0  0  0  0  0  0
  -28.7041  -13.6647   21.9340 H   0  0  0  0  0  0
  -25.3123   -9.9075   23.0342 H   0  0  0  0  0  0
  -23.9468   -7.8929   23.2012 H   0  0  0  0  0  0
  -21.9898   -8.8447   19.5449 H   0  0  0  0  0  0
  -23.6609  -10.4908   19.1615 H   0  0  0  0  0  0
  -21.2949   -7.6692   24.0243 H   0  0  0  0  0  0
  -21.1486   -6.0587   25.9070 H   0  0  0  0  0  0
  -22.0200   -2.8174   23.2158 H   0  0  0  0  0  0
  -22.0644  -13.4310   22.1383 H   0  0  0  0  0  0
  -20.8478  -14.5223   21.5633 H   0  0  0  0  0  0
  -24.0879  -16.4848   19.3394 H   0  0  0  0  0  0
  -25.7802  -16.4675   19.2155 H   0  0  0  0  0  0
  -26.7658  -32.4535   23.0664 H   0  0  0  0  0  0
  -25.0165  -33.9144   24.9900 H   0  0  0  0  0  0
  -22.8802  -31.2358   21.3014 H   0  0  0  0  0  0
  -23.3807  -35.9319   23.3250 H   0  0  0  0  0  0
  -24.3533  -36.8814   22.2086 H   0  0  0  0  0  0
  -23.7191  -37.6164   23.6816 H   0  0  0  0  0  0
  -26.3965  -30.9641   20.6865 H   0  0  0  0  0  0
  -26.9431  -30.3527   22.1825 H   0  0  0  0  0  0
  -27.7717  -27.7048   21.7872 H   0  0  0  0  0  0
  -25.4381  -25.4271   19.0188 H   0  0  0  0  0  0
  -24.0061  -27.3086   18.7206 H   0  0  0  0  0  0
  -24.0708  -30.4507   19.3875 H   0  0  0  0  0  0
  -22.8801  -29.2392   19.7394 H   0  0  0  0  0  0
  -25.1395  -36.1515   25.0744 H   0  0  0  0  0  0
  -21.0055  -28.3460   24.1198 H   0  0  0  0  0  0
  -20.5601  -26.2453   23.3677 H   0  0  0  0  0  0
  -21.6647  -26.7333   22.1246 H   0  0  0  0  0  0
  -19.6951  -25.6226   21.1315 H   0  0  0  0  0  0
  -19.6732  -27.3076   20.6668 H   0  0  0  0  0  0
  -17.4220  -26.6657   21.3998 H   0  0  0  0  0  0
  -18.0347  -26.0098   22.9000 H   0  0  0  0  0  0
  -19.7997  -30.7323   24.2141 H   0  0  0  0  0  0
  -17.5075  -31.6285   24.5164 H   0  0  0  0  0  0
  -15.5400  -30.2996   23.7743 H   0  0  0  0  0  0
  -15.8675  -28.0815   22.7178 H   0  0  0  0  0  0
  -24.5809  -30.7348   25.7739 H   0  0  0  0  0  0
  -24.8892  -32.3293   26.4492 H   0  0  0  0  0  0
  -25.7785  -30.9384   27.0360 H   0  0  0  0  0  0
  -26.3478  -29.6151   24.2325 H   0  0  0  0  0  0
  -27.4100  -29.7565   25.6054 H   0  0  0  0  0  0
  -27.9477  -30.3807   24.0723 H   0  0  0  0  0  0
  -27.2426  -33.3904   26.1845 H   0  0  0  0  0  0
  -28.3955  -32.6950   25.0552 H   0  0  0  0  0  0
  -28.0510  -31.8929   26.5805 H   0  0  0  0  0  0
  -28.2516  -38.0035   24.7550 H   0  0  0  0  0  0
  -28.1110  -36.2562   24.6257 H   0  0  0  0  0  0
  -27.2269  -37.1276   25.8859 H   0  0  0  0  0  0
  -20.9726  -29.8697   21.6389 H   0  0  0  0  0  0
  -26.0053  -38.2623   24.1461 H   0  0  0  0  0  0
  -22.4164  -11.9557   20.3354 H   0  0  0  0  0  0
  -24.9135  -12.3885   17.8713 H   0  0  0  0  0  0
  -27.8446  -16.0501   20.8353 H   0  0  0  0  0  0
  -25.0584  -20.6291   19.3877 H   0  0  0  0  0  0
  -23.5009  -21.0016   20.0295 H   0  0  0  0  0  0
  -24.2564  -22.9078   21.2668 H   0  0  0  0  0  0
  -24.9431  -23.0188   19.6836 H   0  0  0  0  0  0
  -24.1583  -18.8794   20.9617 H   0  0  0  0  0  0
  -24.1343  -20.0199   22.2717 H   0  0  0  0  0  0
  -26.1667  -22.9645   22.2751 H   0  0  0  0  0  0
  -26.7892  -17.3947   23.1369 H   0  0  0  0  0  0
  -25.0864  -17.5067   23.1880 H   0  0  0  0  0  0
  -28.5139  -15.2390   17.9484 H   0  0  0  0  0  0
  1 25  1  0  0  0
  1 30  2  0  0  0
  1 85  1  0  0  0
  2  3  1  0  0  0
  2 25  1  0  0  0
  2 90  1  0  0  0
  2 91  1  0  0  0
  3  4  1  0  0  0
  3 92  1  0  0  0
  3 93  1  0  0  0
  4  5  1  0  0  0
  4 94  1  0  0  0
  4 95  1  0  0  0
  5  6  1  0  0  0
  5 26  1  0  0  0
  5 96  1  0  0  0
  6 25  1  0  0  0
  6 97  1  0  0  0
  6 98  1  0  0  0
  7  8  2  0  0  0
  7 26  1  0  0  0
  7 29  1  0  0  0
  8  9  1  0  0  0
  8 22  1  0  0  0
  9 10  1  0  0  0
  9 27  2  0  0  0
 10 11  2  0  0  0
 10 15  1  0  0  0
 11 12  1  0  0  0
 11 99  1  0  0  0
 12 13  2  0  0  0
 12100  1  0  0  0
 13 14  1  0  0  0
 13 31  1  0  0  0
 14 15  2  0  0  0
 14101  1  0  0  0
 15102  1  0  0  0
 16 17  2  0  0  0
 16 21  1  0  0  0
 16 31  1  0  0  0
 17 18  1  0  0  0
 17103  1  0  0  0
 18 19  2  0  0  0
 18104  1  0  0  0
 19 20  1  0  0  0
 19 24  1  0  0  0
 20 21  2  0  0  0
 20105  1  0  0  0
 21 23  1  0  0  0
 22 28  1  0  0  0
 22 32  2  0  0  0
 26 27  1  0  0  0
 28106  1  0  0  0
 28107  1  0  0  0
 29108  1  0  0  0
 29109  1  0  0  0
 33 34  1  0  0  0
 33 66  1  0  0  0
 33 70  2  0  0  0
 34 36  1  0  0  0
 34 59  1  0  0  0
 34110  1  0  0  0
 35 44  2  0  0  0
 35 45  1  0  0  0
 35 68  1  0  0  0
 36 56  1  0  0  0
 36111  1  0  0  0
 37 39  1  0  0  0
 37 47  1  0  0  0
 37 66  1  0  0  0
 37112  1  0  0  0
 38 43  2  0  0  0
 38 46  1  0  0  0
 38 47  1  0  0  0
 39 64  1  0  0  0
 39 67  2  0  0  0
 40 52  1  0  0  0
 40 53  2  0  0  0
 40 58  1  0  0  0
 41113  1  0  0  0
 41114  1  0  0  0
 41115  1  0  0  0
 41 48  1  0  0  0
 42 43  1  0  0  0
 42 66  1  0  0  0
 42116  1  0  0  0
 42117  1  0  0  0
 43 44  1  0  0  0
 44118  1  0  0  0
 45 46  2  0  0  0
 45119  1  0  0  0
 46120  1  0  0  0
 47121  1  0  0  0
 47122  1  0  0  0
 48 56  1  0  0  0
 48 65  1  0  0  0
 48123  1  0  0  0
 49 50  1  0  0  0
 49 53  1  0  0  0
 49 64  1  0  0  0
 49124  1  0  0  0
 50 51  1  0  0  0
 50125  1  0  0  0
 50126  1  0  0  0
 51 52  1  0  0  0
 51127  1  0  0  0
 51128  1  0  0  0
 52129  1  0  0  0
 52130  1  0  0  0
 53 54  1  0  0  0
 54 55  2  0  0  0
 54131  1  0  0  0
 55 57  1  0  0  0
 55132  1  0  0  0
 56 69  2  0  0  0
 57 58  2  0  0  0
 57133  1  0  0  0
 58134  1  0  0  0
 59 60  1  0  0  0
 59 61  1  0  0  0
 59 62  1  0  0  0
 60135  1  0  0  0
 60136  1  0  0  0
 60137  1  0  0  0
 61138  1  0  0  0
 61139  1  0  0  0
 61140  1  0  0  0
 62141  1  0  0  0
 62142  1  0  0  0
 62143  1  0  0  0
 63 65  1  0  0  0
 63144  1  0  0  0
 63145  1  0  0  0
 63146  1  0  0  0
 64147  1  0  0  0
 65148  1  0  0  0
 68 81  1  0  0  0
 71 72  2  0  0  0
 71 74  1  0  0  0
 71149  1  0  0  0
 72 76  1  0  0  0
 72150  1  0  0  0
 73 75  1  0  0  0
 73 76  2  0  0  0
 73151  1  0  0  0
 74 75  2  0  0  0
 74 83  1  0  0  0
 75 82  1  0  0  0
 76 85  1  0  0  0
 77 81  1  0  0  0
 77 84  1  0  0  0
 77 86  2  0  0  0
 78 79  1  0  0  0
 78 80  1  0  0  0
 78152  1  0  0  0
 78153  1  0  0  0
 79 81  1  0  0  0
 79154  1  0  0  0
 79155  1  0  0  0
 80 84  1  0  0  0
 80156  1  0  0  0
 80157  1  0  0  0
 81158  1  0  0  0
 82 84  1  0  0  0
 82159  1  0  0  0
 82160  1  0  0  0
 83 87  1  0  0  0
 83 88  1  0  0  0
 83 89  1  0  0  0
 85161  1  0  0  0
M  ISO  4   1 100  68 101  81 101  85 100
M  END
> <chiral flag>
0

> <version>
0

> <s_m_source_file>
/data/baiqing/PycharmProjects/Reinvent-master-3.2/result/LINK_invent/BTK/process_docking_weight1_custom_product_contain_oxygen_bond_distance_aromatic_linkinvent_7_9_3/rearranged_h_0046.sdf

> <i_m_source_file_index>
23

> <r_mmod_Potential_Energy-OPLS-2005>
26022.560546875

> <r_mmod_Stretch_Energy-OPLS-2005>
15084.47265625

> <r_mmod_Bend_Energy-OPLS-2005>
2104.03833007812

> <r_mmod_Torsional_Energy-OPLS-2005>
710.161926269531

> <r_mmod_Improper_Torsional_Energy-OPLS-2005>
52.3794822692871

> <r_mmod_Van_der_Waal_Energy-OPLS-2005>
4868.2099609375

> <r_mmod_Electrostatic_Energy-OPLS-2005>
-314.430023193359

> <r_mmod_Solvation_Energy-OPLS-2005>
-233.876724243164

> <b_mmod_Minimization_Converged-OPLS-2005>
0

> <r_mmod_RMS_Derivative-OPLS-2005>
6.2209415435791

$$$$
23
                    3D
 Structure written by MMmdl.
154162  0  0  1  0            999 V2000
  -30.6179  -14.6523   20.4798 C   0  0  0  0  0  0
  -30.4374  -12.3976   19.4499 C   0  0  0  0  0  0
  -29.5158  -12.5283   18.2186 C   0  0  0  0  0  0
  -28.0300  -12.3863   18.6145 C   0  0  0  0  0  0
  -27.6528  -13.2285   19.8652 C   0  0  2  0  0  0
  -28.7006  -13.0787   20.9919 C   0  0  0  0  0  0
  -25.2535  -13.8193   20.5699 C   0  0  0  0  0  0
  -24.1827  -13.0421   20.9222 C   0  0  0  0  0  0
  -24.6411  -11.6908   20.8727 C   0  0  0  0  0  0
  -23.9086  -10.4276   21.0389 C   0  0  0  0  0  0
  -24.3627   -9.4203   21.9184 C   0  0  0  0  0  0
  -23.6292   -8.2244   22.0770 C   0  0  0  0  0  0
  -22.4272   -8.0278   21.3566 C   0  0  0  0  0  0
  -21.9907   -9.0245   20.4670 C   0  0  0  0  0  0
  -22.7238  -10.2122   20.3056 C   0  0  0  0  0  0
  -21.6850   -6.0745   22.5286 C   0  0  0  0  0  0
  -21.4011   -6.5644   23.8219 C   0  0  0  0  0  0
  -21.3661   -5.6791   24.9174 C   0  0  0  0  0  0
  -21.6056   -4.3057   24.7219 C   0  0  0  0  0  0
  -21.8808   -3.8161   23.4327 C   0  0  0  0  0  0
  -21.9187   -4.6979   22.3394 C   0  0  0  0  0  0
  -22.7834  -13.5208   21.1890 C   0  0  0  0  0  0
  -22.1662   -4.2177   21.0964 F   0  0  0  0  0  0
  -21.5636   -3.4525   25.7726 F   0  0  0  0  0  0
  -30.0139  -13.4232   20.4234 N   0  0  0  0  0  0
  -26.2984  -12.9398   20.3290 N   0  0  0  0  0  0
  -25.9343  -11.6542   20.5715 N   0  0  0  0  0  0
  -22.0465  -12.8192   22.0451 N   0  0  0  0  0  0
  -25.4113  -15.1922   20.4097 N   0  0  0  0  0  0
  -31.7922  -14.7992   20.1265 O   0  0  0  0  0  0
  -21.6638   -6.8872   21.4249 O   0  0  0  0  0  0
  -22.3501  -14.5500   20.6730 O   0  0  0  0  0  0
  -24.6262  -31.8587   23.2056 C   0  0  0  0  0  0
  -25.9137  -32.4763   23.8342 C   0  0  1  0  0  0
  -27.2324  -27.3335   20.1167 C   0  0  0  0  0  0
  -25.5983  -33.8567   24.2289 N   0  0  0  0  0  0
  -23.4187  -30.4859   21.5463 C   0  0  2  0  0  0
  -24.8685  -28.9516   20.1097 C   0  0  0  0  0  0
  -22.7465  -29.4626   22.4927 C   0  0  0  0  0  0
  -18.0289  -28.1384   22.8488 C   0  0  0  0  0  0
  -24.1510  -36.7264   23.2636 C   0  0  0  0  0  0
  -25.9583  -30.8032   21.3706 C   0  0  0  0  0  0
  -26.0370  -29.4328   20.7099 C   0  0  0  0  0  0
  -27.2199  -28.6363   20.7037 C   0  0  0  0  0  0
  -26.0378  -26.9122   19.4823 C   0  0  0  0  0  0
  -24.8707  -27.6971   19.4848 C   0  0  0  0  0  0
  -23.6331  -29.8248   20.1602 C   0  0  0  0  0  0
  -25.4128  -36.3064   24.0332 C   0  0  1  0  0  0
  -20.5892  -28.3690   23.1295 C   0  0  2  0  0  0
  -20.6788  -26.9412   22.5436 C   0  0  0  0  0  0
  -19.5751  -26.6386   21.5238 C   0  0  0  0  0  0
  -18.1929  -26.7937   22.1618 C   0  0  0  0  0  0
  -19.1539  -28.8851   23.2889 C   0  0  0  0  0  0
  -18.9459  -30.1458   23.8895 C   0  0  0  0  0  0
  -17.6458  -30.6587   24.0560 C   0  0  0  0  0  0
  -25.9070  -34.9447   23.5099 C   0  0  0  0  0  0
  -16.5347  -29.9075   23.6341 C   0  0  0  0  0  0
  -16.7278  -28.6502   23.0352 C   0  0  0  0  0  0
  -26.4547  -31.6535   25.0678 C   0  0  0  0  0  0
  -25.3788  -31.3631   26.1391 C   0  0  0  0  0  0
  -27.0399  -30.2963   24.6099 C   0  0  0  0  0  0
  -27.6118  -32.4245   25.7444 C   0  0  0  0  0  0
  -27.5579  -37.1778   24.8452 C   0  0  0  0  0  0
  -21.4181  -29.3033   22.3666 N   0  0  0  0  0  0
  -26.4278  -37.3774   23.9425 N   0  0  0  0  0  0
  -24.6857  -31.0643   22.0977 N   0  0  0  0  0  0
  -23.4191  -28.8153   23.3002 O   0  0  0  0  0  0
  -28.3560  -26.4889   20.1862 O   0  0  0  0  0  0
  -26.5589  -34.8912   22.4631 O   0  0  0  0  0  0
  -23.5443  -32.1357   23.7430 O   0  0  0  0  0  0
  -28.9054  -19.4369   20.9429 C   0  0  0  0  0  0
  -28.8459  -18.0099   21.0145 C   0  0  0  0  0  0
  -31.0802  -17.8518   20.1419 C   0  0  0  0  0  0
  -30.0613  -20.1142   20.4796 C   0  0  0  0  0  0
  -29.9339  -17.1721   20.6352 C   0  0  0  0  0  0
  -31.1402  -19.2762   20.0688 C   0  0  0  0  0  0
  -29.2200  -24.0246   20.4449 C   0  0  0  0  0  0
  -28.3645  -22.2489   18.9583 C   0  0  0  0  0  0
  -30.2369  -21.6837   20.5556 C   0  0  0  0  0  0
  -28.1812  -25.0557   19.8406 C   0  0  0  0  0  0
  -29.7922  -15.7133   20.7588 N   0  0  0  0  0  0
  -29.2212  -22.6906   20.0605 N   0  0  0  0  0  0
  -30.0208  -24.4420   21.2866 O   0  0  0  0  0  0
  -32.2815  -19.8422   19.6063 F   0  0  0  0  0  0
  -31.4815  -12.5164   19.1563 H   0  0  0  0  0  0
  -30.3597  -11.4004   19.8859 H   0  0  0  0  0  0
  -29.7824  -11.7852   17.4664 H   0  0  0  0  0  0
  -29.6770  -13.4996   17.7479 H   0  0  0  0  0  0
  -27.8302  -11.3300   18.7945 H   0  0  0  0  0  0
  -27.3963  -12.6738   17.7738 H   0  0  0  0  0  0
  -27.6664  -14.2714   19.5474 H   0  0  0  0  0  0
  -28.7163  -12.0579   21.3786 H   0  0  0  0  0  0
  -28.4545  -13.7161   21.8445 H   0  0  0  0  0  0
  -25.2764   -9.5686   22.4775 H   0  0  0  0  0  0
  -24.0001   -7.4641   22.7487 H   0  0  0  0  0  0
  -21.0836   -8.8731   19.8996 H   0  0  0  0  0  0
  -22.3665  -10.9646   19.6164 H   0  0  0  0  0  0
  -21.2002   -7.6157   23.9709 H   0  0  0  0  0  0
  -21.1514   -6.0544   25.9071 H   0  0  0  0  0  0
  -22.0597   -2.7633   23.2819 H   0  0  0  0  0  0
  -22.4030  -11.9810   22.4798 H   0  0  0  0  0  0
  -21.1096  -13.1257   22.2673 H   0  0  0  0  0  0
  -24.6259  -15.8222   20.5289 H   0  0  0  0  0  0
  -26.2039  -15.6395   19.9669 H   0  0  0  0  0  0
  -26.7184  -32.5453   23.1072 H   0  0  0  0  0  0
  -25.0254  -33.9711   25.0518 H   0  0  0  0  0  0
  -22.7117  -31.3061   21.4046 H   0  0  0  0  0  0
  -23.3812  -35.9557   23.3247 H   0  0  0  0  0  0
  -24.3628  -36.8925   22.2062 H   0  0  0  0  0  0
  -23.7212  -37.6433   23.6675 H   0  0  0  0  0  0
  -26.0868  -31.5770   20.6122 H   0  0  0  0  0  0
  -26.8395  -30.8462   21.9996 H   0  0  0  0  0  0
  -28.1178  -29.0100   21.1763 H   0  0  0  0  0  0
  -25.9648  -25.9595   18.9819 H   0  0  0  0  0  0
  -23.9756  -27.3273   19.0050 H   0  0  0  0  0  0
  -23.7413  -30.6003   19.4002 H   0  0  0  0  0  0
  -22.7555  -29.2462   19.8662 H   0  0  0  0  0  0
  -25.1313  -36.1898   25.0820 H   0  0  0  0  0  0
  -20.9979  -28.3275   24.1421 H   0  0  0  0  0  0
  -20.5751  -26.2278   23.3636 H   0  0  0  0  0  0
  -21.6645  -26.7483   22.1182 H   0  0  0  0  0  0
  -19.6927  -25.6309   21.1239 H   0  0  0  0  0  0
  -19.6698  -27.3226   20.6794 H   0  0  0  0  0  0
  -17.4220  -26.6736   21.3983 H   0  0  0  0  0  0
  -18.0272  -26.0061   22.8987 H   0  0  0  0  0  0
  -19.7936  -30.7285   24.2245 H   0  0  0  0  0  0
  -17.5012  -31.6280   24.5145 H   0  0  0  0  0  0
  -15.5349  -30.2969   23.7686 H   0  0  0  0  0  0
  -15.8676  -28.0834   22.7045 H   0  0  0  0  0  0
  -24.6097  -30.6810   25.7727 H   0  0  0  0  0  0
  -24.8840  -32.2767   26.4681 H   0  0  0  0  0  0
  -25.8165  -30.8947   27.0212 H   0  0  0  0  0  0
  -26.2962  -29.6656   24.1209 H   0  0  0  0  0  0
  -27.4205  -29.7244   25.4569 H   0  0  0  0  0  0
  -27.8770  -30.4242   23.9240 H   0  0  0  0  0  0
  -27.2780  -33.3607   26.1913 H   0  0  0  0  0  0
  -28.3999  -32.6658   25.0302 H   0  0  0  0  0  0
  -28.0675  -31.8392   26.5433 H   0  0  0  0  0  0
  -28.2544  -38.0133   24.7618 H   0  0  0  0  0  0
  -28.1137  -36.2674   24.6156 H   0  0  0  0  0  0
  -27.2299  -37.1256   25.8849 H   0  0  0  0  0  0
  -20.9345  -29.8711   21.6846 H   0  0  0  0  0  0
  -26.0154  -38.2824   24.1506 H   0  0  0  0  0  0
  -28.0601  -20.0243   21.2762 H   0  0  0  0  0  0
  -27.9381  -17.5594   21.3920 H   0  0  0  0  0  0
  -31.9477  -17.2931   19.8260 H   0  0  0  0  0  0
  -28.6768  -22.7186   18.0236 H   0  0  0  0  0  0
  -27.3248  -22.5159   19.1460 H   0  0  0  0  0  0
  -28.3923  -21.1743   18.7926 H   0  0  0  0  0  0
  -31.1658  -21.9349   20.0433 H   0  0  0  0  0  0
  -30.4305  -21.8926   21.6094 H   0  0  0  0  0  0
  -27.2122  -24.6991   20.1891 H   0  0  0  0  0  0
  -28.1966  -24.9777   18.7536 H   0  0  0  0  0  0
  -28.8657  -15.4113   21.0218 H   0  0  0  0  0  0
  1 25  1  0  0  0
  1 30  2  0  0  0
  1 81  1  0  0  0
  2  3  1  0  0  0
  2 25  1  0  0  0
  2 85  1  0  0  0
  2 86  1  0  0  0
  3  4  1  0  0  0
  3 87  1  0  0  0
  3 88  1  0  0  0
  4  5  1  0  0  0
  4 89  1  0  0  0
  4 90  1  0  0  0
  5  6  1  0  0  0
  5 26  1  0  0  0
  5 91  1  0  0  0
  6 25  1  0  0  0
  6 92  1  0  0  0
  6 93  1  0  0  0
  7  8  2  0  0  0
  7 26  1  0  0  0
  7 29  1  0  0  0
  8  9  1  0  0  0
  8 22  1  0  0  0
  9 10  1  0  0  0
  9 27  2  0  0  0
 10 11  2  0  0  0
 10 15  1  0  0  0
 11 12  1  0  0  0
 11 94  1  0  0  0
 12 13  2  0  0  0
 12 95  1  0  0  0
 13 14  1  0  0  0
 13 31  1  0  0  0
 14 15  2  0  0  0
 14 96  1  0  0  0
 15 97  1  0  0  0
 16 17  2  0  0  0
 16 21  1  0  0  0
 16 31  1  0  0  0
 17 18  1  0  0  0
 17 98  1  0  0  0
 18 19  2  0  0  0
 18 99  1  0  0  0
 19 20  1  0  0  0
 19 24  1  0  0  0
 20 21  2  0  0  0
 20100  1  0  0  0
 21 23  1  0  0  0
 22 28  1  0  0  0
 22 32  2  0  0  0
 26 27  1  0  0  0
 28101  1  0  0  0
 28102  1  0  0  0
 29103  1  0  0  0
 29104  1  0  0  0
 33 34  1  0  0  0
 33 66  1  0  0  0
 33 70  2  0  0  0
 34 36  1  0  0  0
 34 59  1  0  0  0
 34105  1  0  0  0
 35 44  2  0  0  0
 35 45  1  0  0  0
 35 68  1  0  0  0
 36 56  1  0  0  0
 36106  1  0  0  0
 37 39  1  0  0  0
 37 47  1  0  0  0
 37 66  1  0  0  0
 37107  1  0  0  0
 38 43  2  0  0  0
 38 46  1  0  0  0
 38 47  1  0  0  0
 39 64  1  0  0  0
 39 67  2  0  0  0
 40 52  1  0  0  0
 40 53  2  0  0  0
 40 58  1  0  0  0
 41108  1  0  0  0
 41109  1  0  0  0
 41110  1  0  0  0
 41 48  1  0  0  0
 42 43  1  0  0  0
 42 66  1  0  0  0
 42111  1  0  0  0
 42112  1  0  0  0
 43 44  1  0  0  0
 44113  1  0  0  0
 45 46  2  0  0  0
 45114  1  0  0  0
 46115  1  0  0  0
 47116  1  0  0  0
 47117  1  0  0  0
 48 56  1  0  0  0
 48 65  1  0  0  0
 48118  1  0  0  0
 49 50  1  0  0  0
 49 53  1  0  0  0
 49 64  1  0  0  0
 49119  1  0  0  0
 50 51  1  0  0  0
 50120  1  0  0  0
 50121  1  0  0  0
 51 52  1  0  0  0
 51122  1  0  0  0
 51123  1  0  0  0
 52124  1  0  0  0
 52125  1  0  0  0
 53 54  1  0  0  0
 54 55  2  0  0  0
 54126  1  0  0  0
 55 57  1  0  0  0
 55127  1  0  0  0
 56 69  2  0  0  0
 57 58  2  0  0  0
 57128  1  0  0  0
 58129  1  0  0  0
 59 60  1  0  0  0
 59 61  1  0  0  0
 59 62  1  0  0  0
 60130  1  0  0  0
 60131  1  0  0  0
 60132  1  0  0  0
 61133  1  0  0  0
 61134  1  0  0  0
 61135  1  0  0  0
 62136  1  0  0  0
 62137  1  0  0  0
 62138  1  0  0  0
 63 65  1  0  0  0
 63139  1  0  0  0
 63140  1  0  0  0
 63141  1  0  0  0
 64142  1  0  0  0
 65143  1  0  0  0
 68 80  1  0  0  0
 71 72  2  0  0  0
 71 74  1  0  0  0
 71144  1  0  0  0
 72 75  1  0  0  0
 72145  1  0  0  0
 73 75  2  0  0  0
 73 76  1  0  0  0
 73146  1  0  0  0
 74 76  2  0  0  0
 74 79  1  0  0  0
 75 81  1  0  0  0
 76 84  1  0  0  0
 77 80  1  0  0  0
 77 82  1  0  0  0
 77 83  2  0  0  0
 78 82  1  0  0  0
 78147  1  0  0  0
 78148  1  0  0  0
 78149  1  0  0  0
 79 82  1  0  0  0
 79150  1  0  0  0
 79151  1  0  0  0
 80152  1  0  0  0
 80153  1  0  0  0
 81154  1  0  0  0
M  ISO  4   1 100  68 101  80 101  81 100
M  END
> <chiral flag>
0

> <version>
0

> <s_m_source_file>
/data/baiqing/PycharmProjects/Reinvent-master-3.2/result/LINK_invent/BTK/process_docking_weight1_custom_product_contain_oxygen_bond_distance_aromatic_linkinvent_7_9_3/rearranged_h_0046.sdf

> <i_m_source_file_index>
24

> <r_mmod_Potential_Energy-OPLS-2005>
91.5552597045898

> <r_mmod_Stretch_Energy-OPLS-2005>
86.0524749755859

> <r_mmod_Bend_Energy-OPLS-2005>
144.418182373047

> <r_mmod_Torsional_Energy-OPLS-2005>
223.218185424805

> <r_mmod_Improper_Torsional_Energy-OPLS-2005>
5.78272294998169

> <r_mmod_Van_der_Waal_Energy-OPLS-2005>
154.181411743164

> <r_mmod_Electrostatic_Energy-OPLS-2005>
-329.850646972656

> <r_mmod_Solvation_Energy-OPLS-2005>
-240.583358764648

> <b_mmod_Minimization_Converged-OPLS-2005>
0

> <r_mmod_RMS_Derivative-OPLS-2005>
3.8045711517334

$$$$
24
                    3D
 Structure written by MMmdl.
176185  0  0  1  0            999 V2000
  -30.7579  -14.2766   20.6890 C   0  0  0  0  0  0
  -30.3939  -12.2013   19.3728 C   0  0  0  0  0  0
  -29.4949  -12.5640   18.1791 C   0  0  0  0  0  0
  -28.0098  -12.4584   18.5606 C   0  0  0  0  0  0
  -27.6815  -13.2141   19.8763 C   0  0  2  0  0  0
  -28.7102  -12.8608   20.9756 C   0  0  0  0  0  0
  -25.2680  -13.8241   20.5683 C   0  0  0  0  0  0
  -24.1960  -13.0375   20.9218 C   0  0  0  0  0  0
  -24.6629  -11.6897   20.8718 C   0  0  0  0  0  0
  -23.9326  -10.4218   21.0372 C   0  0  0  0  0  0
  -24.3781   -9.4093   21.9161 C   0  0  0  0  0  0
  -23.6341   -8.2171   22.0710 C   0  0  0  0  0  0
  -22.4289   -8.0342   21.3530 C   0  0  0  0  0  0
  -22.0040   -9.0355   20.4630 C   0  0  0  0  0  0
  -22.7486  -10.2145   20.3024 C   0  0  0  0  0  0
  -21.6878   -6.0799   22.5318 C   0  0  0  0  0  0
  -21.4021   -6.5661   23.8263 C   0  0  0  0  0  0
  -21.3618   -5.6801   24.9231 C   0  0  0  0  0  0
  -21.6021   -4.3067   24.7234 C   0  0  0  0  0  0
  -21.8787   -3.8175   23.4340 C   0  0  0  0  0  0
  -21.9140   -4.7020   22.3422 C   0  0  0  0  0  0
  -22.7958  -13.5132   21.1769 C   0  0  0  0  0  0
  -22.1585   -4.2206   21.0978 F   0  0  0  0  0  0
  -21.5612   -3.4537   25.7739 F   0  0  0  0  0  0
  -30.0717  -13.1230   20.4701 N   0  0  0  0  0  0
  -26.3187  -12.9452   20.3275 N   0  0  0  0  0  0
  -25.9537  -11.6546   20.5655 N   0  0  0  0  0  0
  -22.0596  -12.8181   22.0407 N   0  0  0  0  0  0
  -25.4133  -15.1973   20.4084 N   0  0  0  0  0  0
  -31.7079  -14.6664   20.0061 O   0  0  0  0  0  0
  -21.6593   -6.8948   21.4272 O   0  0  0  0  0  0
  -22.3515  -14.5246   20.6465 O   0  0  0  0  0  0
  -24.6056  -31.8779   23.2301 C   0  0  0  0  0  0
  -25.8978  -32.4917   23.8560 C   0  0  1  0  0  0
  -27.1854  -27.5225   20.0347 C   0  0  0  0  0  0
  -25.5895  -33.8746   24.2459 N   0  0  0  0  0  0
  -23.3814  -30.5093   21.5827 C   0  0  2  0  0  0
  -24.8116  -29.0264   20.0962 C   0  0  0  0  0  0
  -22.7386  -29.4596   22.5169 C   0  0  0  0  0  0
  -18.0213  -28.1304   22.8594 C   0  0  0  0  0  0
  -24.1443  -36.7284   23.2648 C   0  0  0  0  0  0
  -25.9030  -30.8765   21.3577 C   0  0  0  0  0  0
  -25.9746  -29.5221   20.6950 C   0  0  0  0  0  0
  -27.1683  -28.7750   20.6733 C   0  0  0  0  0  0
  -26.0309  -27.0852   19.3415 C   0  0  0  0  0  0
  -24.8318  -27.8014   19.4208 C   0  0  0  0  0  0
  -23.5719  -29.8825   20.1785 C   0  0  0  0  0  0
  -25.4072  -36.3210   24.0389 C   0  0  1  0  0  0
  -20.5822  -28.3468   23.1505 C   0  0  2  0  0  0
  -20.6690  -26.9235   22.5492 C   0  0  0  0  0  0
  -19.5653  -26.6326   21.5288 C   0  0  0  0  0  0
  -18.1828  -26.7866   22.1699 C   0  0  0  0  0  0
  -19.1473  -28.8724   23.3040 C   0  0  0  0  0  0
  -18.9403  -30.1369   23.8985 C   0  0  0  0  0  0
  -17.6414  -30.6545   24.0555 C   0  0  0  0  0  0
  -25.9005  -34.9580   23.5196 C   0  0  0  0  0  0
  -16.5308  -29.9055   23.6321 C   0  0  0  0  0  0
  -16.7218  -28.6454   23.0411 C   0  0  0  0  0  0
  -26.4420  -31.6648   25.0803 C   0  0  0  0  0  0
  -25.3713  -31.3739   26.1561 C   0  0  0  0  0  0
  -27.0080  -30.3141   24.5876 C   0  0  0  0  0  0
  -27.6028  -32.4244   25.7561 C   0  0  0  0  0  0
  -27.5562  -37.1845   24.8494 C   0  0  0  0  0  0
  -21.4115  -29.2887   22.3970 N   0  0  0  0  0  0
  -26.4260  -37.3902   23.9458 N   0  0  0  0  0  0
  -24.6499  -31.0982   22.1175 N   0  0  0  0  0  0
  -23.4278  -28.8045   23.3020 O   0  0  0  0  0  0
  -28.3046  -26.7392   20.1398 O   0  0  0  0  0  0
  -26.5568  -34.8987   22.4757 O   0  0  0  0  0  0
  -23.5278  -32.1464   23.7793 O   0  0  0  0  0  0
  -29.5511  -20.6505   23.1670 C   0  0  0  0  0  0
  -29.7764  -19.2703   23.0083 C   0  0  0  0  0  0
  -31.4276  -21.1112   21.6816 C   0  0  0  0  0  0
  -30.3684  -21.5760   22.4804 C   0  0  0  0  0  0
  -30.8382  -18.7838   22.1993 C   0  0  0  0  0  0
  -31.6152  -19.7335   21.4711 C   0  0  0  0  0  0
  -28.0471  -22.6026   20.7773 C   0  0  0  0  0  0
  -28.2196  -21.6741   19.7989 C   0  0  0  0  0  0
  -26.7115  -23.2992   20.9828 C   0  0  0  0  0  0
  -26.8842  -24.8288   21.0862 C   0  0  0  0  0  0
  -29.3946  -24.7198   20.7152 C   0  0  0  0  0  0
  -28.0839  -25.3253   20.1738 C   0  0  2  0  0  0
  -32.6261  -19.3884   20.3922 C   0  0  0  0  0  0
  -29.5438  -21.2609   19.1997 C   0  0  0  0  0  0
  -27.0312  -21.0207   19.0861 C   0  0  0  0  0  0
  -30.0701  -23.0584   22.5037 C   0  0  0  0  0  0
  -30.0156  -16.3923   21.6874 C   0  0  0  0  0  0
  -31.1521  -17.2705   22.2490 C   0  0  0  0  0  0
  -30.2909  -14.9602   21.7281 N   0  0  0  0  0  0
  -29.0787  -23.4857   21.4668 N   0  3  2  0  0  0
  -32.3071  -16.9488   21.6719 F   0  0  0  0  0  0
  -31.3092  -16.9672   23.5367 F   0  0  0  0  0  0
  -31.4475  -12.2269   19.0952 H   0  0  0  0  0  0
  -30.1880  -11.1684   19.6761 H   0  0  0  0  0  0
  -29.7191  -11.9571   17.3020 H   0  0  0  0  0  0
  -29.7124  -13.5876   17.8833 H   0  0  0  0  0  0
  -27.7371  -11.4036   18.6464 H   0  0  0  0  0  0
  -27.4035  -12.8746   17.7538 H   0  0  0  0  0  0
  -27.7662  -14.2801   19.6644 H   0  0  0  0  0  0
  -28.6418  -11.7981   21.2215 H   0  0  0  0  0  0
  -28.4619  -13.3892   21.8953 H   0  0  0  0  0  0
  -25.2951   -9.5410   22.4765 H   0  0  0  0  0  0
  -23.9978   -7.4437   22.7373 H   0  0  0  0  0  0
  -21.0992   -8.9027   19.8889 H   0  0  0  0  0  0
  -22.4105  -10.9723   19.6088 H   0  0  0  0  0  0
  -21.2092   -7.6175   23.9835 H   0  0  0  0  0  0
  -21.1427   -6.0490   25.9138 H   0  0  0  0  0  0
  -22.0588   -2.7663   23.2816 H   0  0  0  0  0  0
  -22.4320  -11.9987   22.4978 H   0  0  0  0  0  0
  -21.1127  -13.1102   22.2303 H   0  0  0  0  0  0
  -24.6316  -15.8400   20.5225 H   0  0  0  0  0  0
  -26.2753  -15.6672   20.1449 H   0  0  0  0  0  0
  -26.7039  -32.5656   23.1337 H   0  0  0  0  0  0
  -25.0259  -33.9948   25.0744 H   0  0  0  0  0  0
  -22.6566  -31.3200   21.4836 H   0  0  0  0  0  0
  -23.3774  -35.9549   23.3372 H   0  0  0  0  0  0
  -24.3573  -36.8752   22.2037 H   0  0  0  0  0  0
  -23.7011  -37.6475   23.6547 H   0  0  0  0  0  0
  -25.9939  -31.6437   20.5856 H   0  0  0  0  0  0
  -26.8041  -30.9372   21.9548 H   0  0  0  0  0  0
  -28.0526  -29.1589   21.1634 H   0  0  0  0  0  0
  -26.0106  -26.1633   18.7758 H   0  0  0  0  0  0
  -23.9432  -27.4285   18.9329 H   0  0  0  0  0  0
  -23.6790  -30.6856   19.4455 H   0  0  0  0  0  0
  -22.6867  -29.3207   19.8742 H   0  0  0  0  0  0
  -25.1206  -36.2178   25.0887 H   0  0  0  0  0  0
  -20.9899  -28.2903   24.1655 H   0  0  0  0  0  0
  -20.5546  -26.2050   23.3637 H   0  0  0  0  0  0
  -21.6561  -26.7248   22.1301 H   0  0  0  0  0  0
  -19.6726  -25.6269   21.1230 H   0  0  0  0  0  0
  -19.6584  -27.3236   20.6919 H   0  0  0  0  0  0
  -17.4126  -26.6740   21.4050 H   0  0  0  0  0  0
  -18.0102  -25.9960   22.9031 H   0  0  0  0  0  0
  -19.7865  -30.7182   24.2384 H   0  0  0  0  0  0
  -17.4959  -31.6266   24.5061 H   0  0  0  0  0  0
  -15.5306  -30.2993   23.7561 H   0  0  0  0  0  0
  -15.8629  -28.0778   22.7123 H   0  0  0  0  0  0
  -24.6063  -30.6784   25.8058 H   0  0  0  0  0  0
  -24.8658  -32.2854   26.4815 H   0  0  0  0  0  0
  -25.8179  -30.9255   27.0446 H   0  0  0  0  0  0
  -26.2609  -29.7290   24.0487 H   0  0  0  0  0  0
  -27.3471  -29.6943   25.4183 H   0  0  0  0  0  0
  -27.8636  -30.4564   23.9242 H   0  0  0  0  0  0
  -27.2784  -33.3631   26.2101 H   0  0  0  0  0  0
  -28.4001  -32.6571   25.0477 H   0  0  0  0  0  0
  -28.0517  -31.8307   26.5550 H   0  0  0  0  0  0
  -28.2660  -38.0099   24.7675 H   0  0  0  0  0  0
  -28.0993  -36.2671   24.6198 H   0  0  0  0  0  0
  -27.2361  -37.1344   25.8926 H   0  0  0  0  0  0
  -20.9203  -29.8799   21.7425 H   0  0  0  0  0  0
  -26.0178  -38.2983   24.1557 H   0  0  0  0  0  0
  -28.7755  -20.9956   23.8419 H   0  0  0  0  0  0
  -29.1443  -18.5845   23.5593 H   0  0  0  0  0  0
  -32.0402  -21.8251   21.1450 H   0  0  0  0  0  0
  -26.1431  -22.8819   21.8178 H   0  0  0  0  0  0
  -26.1092  -23.1314   20.0892 H   0  0  0  0  0  0
  -27.0594  -25.1121   22.1256 H   0  0  0  0  0  0
  -25.9077  -25.2427   20.8588 H   0  0  0  0  0  0
  -29.8742  -25.4547   21.3717 H   0  0  0  0  0  0
  -30.0969  -24.4997   19.9102 H   0  0  0  0  0  0
  -27.9527  -24.9889   19.1429 H   0  0  0  0  0  0
  -32.6061  -18.3657   20.0463 H   0  0  0  0  0  0
  -33.6289  -19.6523   20.7336 H   0  0  0  0  0  0
  -32.3923  -19.9559   19.4859 H   0  0  0  0  0  0
  -30.3447  -21.9276   19.5076 H   0  0  0  0  0  0
  -29.5041  -21.3118   18.1132 H   0  0  0  0  0  0
  -29.7762  -20.2368   19.4810 H   0  0  0  0  0  0
  -26.1808  -20.9126   19.7557 H   0  0  0  0  0  0
  -27.2615  -20.0173   18.7280 H   0  0  0  0  0  0
  -26.6980  -21.6227   18.2382 H   0  0  0  0  0  0
  -29.7182  -23.3764   23.4889 H   0  0  0  0  0  0
  -31.0022  -23.6259   22.4125 H   0  0  0  0  0  0
  -29.1021  -16.5373   22.2681 H   0  0  0  0  0  0
  -29.7551  -16.6801   20.6674 H   0  0  0  0  0  0
  -29.6768  -14.4087   22.3028 H   0  0  0  0  0  0
  -28.4705  -23.9358   22.1368 H   0  0  0  0  0  0
  1 25  1  0  0  0
  1 30  2  0  0  0
  1 89  1  0  0  0
  2  3  1  0  0  0
  2 25  1  0  0  0
  2 93  1  0  0  0
  2 94  1  0  0  0
  3  4  1  0  0  0
  3 95  1  0  0  0
  3 96  1  0  0  0
  4  5  1  0  0  0
  4 97  1  0  0  0
  4 98  1  0  0  0
  5  6  1  0  0  0
  5 26  1  0  0  0
  5 99  1  0  0  0
  6 25  1  0  0  0
  6100  1  0  0  0
  6101  1  0  0  0
  7  8  2  0  0  0
  7 26  1  0  0  0
  7 29  1  0  0  0
  8  9  1  0  0  0
  8 22  1  0  0  0
  9 10  1  0  0  0
  9 27  2  0  0  0
 10 11  2  0  0  0
 10 15  1  0  0  0
 11 12  1  0  0  0
 11102  1  0  0  0
 12 13  2  0  0  0
 12103  1  0  0  0
 13 14  1  0  0  0
 13 31  1  0  0  0
 14 15  2  0  0  0
 14104  1  0  0  0
 15105  1  0  0  0
 16 17  2  0  0  0
 16 21  1  0  0  0
 16 31  1  0  0  0
 17 18  1  0  0  0
 17106  1  0  0  0
 18 19  2  0  0  0
 18107  1  0  0  0
 19 20  1  0  0  0
 19 24  1  0  0  0
 20 21  2  0  0  0
 20108  1  0  0  0
 21 23  1  0  0  0
 22 28  1  0  0  0
 22 32  2  0  0  0
 26 27  1  0  0  0
 28109  1  0  0  0
 28110  1  0  0  0
 29111  1  0  0  0
 29112  1  0  0  0
 33 34  1  0  0  0
 33 66  1  0  0  0
 33 70  2  0  0  0
 34 36  1  0  0  0
 34 59  1  0  0  0
 34113  1  0  0  0
 35 44  2  0  0  0
 35 45  1  0  0  0
 35 68  1  0  0  0
 36 56  1  0  0  0
 36114  1  0  0  0
 37 39  1  0  0  0
 37 47  1  0  0  0
 37 66  1  0  0  0
 37115  1  0  0  0
 38 43  2  0  0  0
 38 46  1  0  0  0
 38 47  1  0  0  0
 39 64  1  0  0  0
 39 67  2  0  0  0
 40 52  1  0  0  0
 40 53  2  0  0  0
 40 58  1  0  0  0
 41116  1  0  0  0
 41117  1  0  0  0
 41118  1  0  0  0
 41 48  1  0  0  0
 42 43  1  0  0  0
 42 66  1  0  0  0
 42119  1  0  0  0
 42120  1  0  0  0
 43 44  1  0  0  0
 44121  1  0  0  0
 45 46  2  0  0  0
 45122  1  0  0  0
 46123  1  0  0  0
 47124  1  0  0  0
 47125  1  0  0  0
 48 56  1  0  0  0
 48 65  1  0  0  0
 48126  1  0  0  0
 49 50  1  0  0  0
 49 53  1  0  0  0
 49 64  1  0  0  0
 49127  1  0  0  0
 50 51  1  0  0  0
 50128  1  0  0  0
 50129  1  0  0  0
 51 52  1  0  0  0
 51130  1  0  0  0
 51131  1  0  0  0
 52132  1  0  0  0
 52133  1  0  0  0
 53 54  1  0  0  0
 54 55  2  0  0  0
 54134  1  0  0  0
 55 57  1  0  0  0
 55135  1  0  0  0
 56 69  2  0  0  0
 57 58  2  0  0  0
 57136  1  0  0  0
 58137  1  0  0  0
 59 60  1  0  0  0
 59 61  1  0  0  0
 59 62  1  0  0  0
 60138  1  0  0  0
 60139  1  0  0  0
 60140  1  0  0  0
 61141  1  0  0  0
 61142  1  0  0  0
 61143  1  0  0  0
 62144  1  0  0  0
 62145  1  0  0  0
 62146  1  0  0  0
 63 65  1  0  0  0
 63147  1  0  0  0
 63148  1  0  0  0
 63149  1  0  0  0
 64150  1  0  0  0
 65151  1  0  0  0
 68 82  1  0  0  0
 71 72  2  0  0  0
 71 74  1  0  0  0
 71152  1  0  0  0
 72 75  1  0  0  0
 72153  1  0  0  0
 73 74  2  0  0  0
 73 76  1  0  0  0
 73154  1  0  0  0
 74 86  1  0  0  0
 75 76  2  0  0  0
 75 88  1  0  0  0
 76 83  1  0  0  0
 77 78  2  0  0  0
 77 79  1  0  0  0
 77 90  1  0  0  0
 78 84  1  0  0  0
 78 85  1  0  0  0
 79 80  1  0  0  0
 79155  1  0  0  0
 79156  1  0  0  0
 80 82  1  0  0  0
 80157  1  0  0  0
 80158  1  0  0  0
 81 82  1  0  0  0
 81 90  1  0  0  0
 81159  1  0  0  0
 81160  1  0  0  0
 82161  1  0  0  0
 83162  1  0  0  0
 83163  1  0  0  0
 83164  1  0  0  0
 84165  1  0  0  0
 84166  1  0  0  0
 84167  1  0  0  0
 85168  1  0  0  0
 85169  1  0  0  0
 85170  1  0  0  0
 86171  1  0  0  0
 86172  1  0  0  0
 86 90  1  0  0  0
 87 88  1  0  0  0
 87 89  1  0  0  0
 87173  1  0  0  0
 87174  1  0  0  0
 88 91  1  0  0  0
 88 92  1  0  0  0
 89175  1  0  0  0
 90176  1  0  0  0
M  CHG  1  90   1
M  ISO  4   1 100  68 101  82 101  89 100
M  END
> <chiral flag>
0

> <version>
0

> <s_m_source_file>
/data/baiqing/PycharmProjects/Reinvent-master-3.2/result/LINK_invent/BTK/process_docking_weight1_custom_product_contain_oxygen_bond_distance_aromatic_linkinvent_7_9_3/rearranged_h_0046.sdf

> <i_m_source_file_index>
25

> <r_mmod_Potential_Energy-OPLS-2005>
-37.6981086730957

> <r_mmod_Stretch_Energy-OPLS-2005>
44.6190910339355

> <r_mmod_Bend_Energy-OPLS-2005>
171.985076904297

> <r_mmod_Torsional_Energy-OPLS-2005>
284.458343505859

> <r_mmod_Improper_Torsional_Energy-OPLS-2005>
6.91461706161499

> <r_mmod_Van_der_Waal_Energy-OPLS-2005>
202.20671081543

> <r_mmod_Electrostatic_Energy-OPLS-2005>
-357.396667480469

> <r_mmod_Solvation_Energy-OPLS-2005>
-414.104736328125

> <b_mmod_Minimization_Converged-OPLS-2005>
0

> <r_mmod_RMS_Derivative-OPLS-2005>
12.6960029602051

$$$$
25
                    3D
 Structure written by MMmdl.
157165  0  0  1  0            999 V2000
  -30.6912  -14.4933   20.5380 C   0  0  0  0  0  0
  -30.4229  -12.3065   19.4366 C   0  0  0  0  0  0
  -29.5028  -12.5037   18.2127 C   0  0  0  0  0  0
  -28.0208  -12.3672   18.6182 C   0  0  0  0  0  0
  -27.6601  -13.2137   19.8688 C   0  0  2  0  0  0
  -28.6998  -13.0098   20.9962 C   0  0  0  0  0  0
  -25.2574  -13.8163   20.5637 C   0  0  0  0  0  0
  -24.1818  -13.0449   20.9150 C   0  0  0  0  0  0
  -24.6351  -11.6901   20.8697 C   0  0  0  0  0  0
  -23.9009  -10.4280   21.0366 C   0  0  0  0  0  0
  -24.3573   -9.4207   21.9163 C   0  0  0  0  0  0
  -23.6258   -8.2228   22.0740 C   0  0  0  0  0  0
  -22.4246   -8.0241   21.3540 C   0  0  0  0  0  0
  -21.9853   -9.0207   20.4637 C   0  0  0  0  0  0
  -22.7169  -10.2099   20.3028 C   0  0  0  0  0  0
  -21.6838   -6.0692   22.5278 C   0  0  0  0  0  0
  -21.4012   -6.5616   23.8213 C   0  0  0  0  0  0
  -21.3678   -5.6783   24.9171 C   0  0  0  0  0  0
  -21.6052   -4.3035   24.7238 C   0  0  0  0  0  0
  -21.8833   -3.8111   23.4364 C   0  0  0  0  0  0
  -21.9196   -4.6915   22.3410 C   0  0  0  0  0  0
  -22.7853  -13.5267   21.1826 C   0  0  0  0  0  0
  -22.1697   -4.2097   21.0987 F   0  0  0  0  0  0
  -21.5604   -3.4538   25.7768 F   0  0  0  0  0  0
  -30.0344  -13.3047   20.4502 N   0  0  0  0  0  0
  -26.2999  -12.9341   20.3296 N   0  0  0  0  0  0
  -25.9282  -11.6487   20.5703 N   0  0  0  0  0  0
  -22.0466  -12.8272   22.0379 N   0  0  0  0  0  0
  -25.4347  -15.1889   20.4128 N   0  0  0  0  0  0
  -31.8284  -14.6556   20.0869 O   0  0  0  0  0  0
  -21.6623   -6.8834   21.4250 O   0  0  0  0  0  0
  -22.3539  -14.5567   20.6661 O   0  0  0  0  0  0
  -24.6210  -31.8657   23.2079 C   0  0  0  0  0  0
  -25.9097  -32.4799   23.8374 C   0  0  1  0  0  0
  -27.2343  -27.3980   20.0914 C   0  0  0  0  0  0
  -25.5941  -33.8597   24.2298 N   0  0  0  0  0  0
  -23.4084  -30.4902   21.5511 C   0  0  2  0  0  0
  -24.8527  -28.9554   20.1114 C   0  0  0  0  0  0
  -22.7444  -29.4659   22.5005 C   0  0  0  0  0  0
  -18.0274  -28.1379   22.8506 C   0  0  0  0  0  0
  -24.1488  -36.7306   23.2631 C   0  0  0  0  0  0
  -25.9427  -30.8174   21.3684 C   0  0  0  0  0  0
  -26.0178  -29.4518   20.7089 C   0  0  0  0  0  0
  -27.2091  -28.6819   20.6936 C   0  0  0  0  0  0
  -26.0440  -26.9315   19.4802 C   0  0  0  0  0  0
  -24.8642  -27.6961   19.4913 C   0  0  0  0  0  0
  -23.6152  -29.8240   20.1654 C   0  0  0  0  0  0
  -25.4100  -36.3091   24.0338 C   0  0  1  0  0  0
  -20.5876  -28.3676   23.1329 C   0  0  2  0  0  0
  -20.6758  -26.9414   22.5427 C   0  0  0  0  0  0
  -19.5728  -26.6394   21.5236 C   0  0  0  0  0  0
  -18.1910  -26.7928   22.1641 C   0  0  0  0  0  0
  -19.1528  -28.8843   23.2904 C   0  0  0  0  0  0
  -18.9452  -30.1455   23.8898 C   0  0  0  0  0  0
  -17.6451  -30.6583   24.0566 C   0  0  0  0  0  0
  -25.9050  -34.9471   23.5116 C   0  0  0  0  0  0
  -16.5341  -29.9082   23.6328 C   0  0  0  0  0  0
  -16.7265  -28.6503   23.0348 C   0  0  0  0  0  0
  -26.4499  -31.6603   25.0731 C   0  0  0  0  0  0
  -25.3749  -31.3769   26.1482 C   0  0  0  0  0  0
  -27.0325  -30.3015   24.6172 C   0  0  0  0  0  0
  -27.6070  -32.4334   25.7480 C   0  0  0  0  0  0
  -27.5599  -37.1763   24.8433 C   0  0  0  0  0  0
  -21.4172  -29.3032   22.3730 N   0  0  0  0  0  0
  -26.4258  -37.3801   23.9461 N   0  0  0  0  0  0
  -24.6759  -31.0735   22.0996 N   0  0  0  0  0  0
  -23.4208  -28.8204   23.3053 O   0  0  0  0  0  0
  -28.3896  -26.6231   20.1255 O   0  0  0  0  0  0
  -26.5615  -34.8935   22.4679 O   0  0  0  0  0  0
  -23.5394  -32.1437   23.7443 O   0  0  0  0  0  0
  -29.8170  -18.0133   21.3376 C   0  0  0  0  0  0
  -30.0132  -19.5254   19.4332 C   0  0  0  0  0  0
  -30.2110  -17.1147   19.1097 C   0  0  0  0  0  0
  -29.8193  -19.3401   20.8204 C   0  0  0  0  0  0
  -30.0287  -16.8867   20.4947 C   0  0  0  0  0  0
  -30.2045  -18.4216   18.5829 C   0  0  0  0  0  0
  -28.9852  -22.8081   20.8499 C   0  0  0  0  0  0
  -31.3652  -22.1926   21.2189 C   0  0  0  0  0  0
  -29.5831  -20.5430   21.7527 C   0  0  0  0  0  0
  -29.3840  -24.2892   20.5481 C   0  0  0  0  0  0
  -28.2089  -25.1840   20.0333 C   0  0  0  0  0  0
  -29.9816  -15.5436   21.0138 N   0  0  0  0  0  0
  -29.9270  -21.8959   21.2311 N   0  0  0  0  0  0
  -27.7937  -22.4907   20.7728 O   0  0  0  0  0  0
  -30.4158  -18.6674   16.8880 Cl  0  0  0  0  0  0
  -31.4698  -12.3985   19.1348 H   0  0  0  0  0  0
  -30.3168  -11.2971   19.8378 H   0  0  0  0  0  0
  -29.7473  -11.7810   17.4331 H   0  0  0  0  0  0
  -29.6781  -13.4863   17.7739 H   0  0  0  0  0  0
  -27.8255  -11.3131   18.8156 H   0  0  0  0  0  0
  -27.3735  -12.6446   17.7863 H   0  0  0  0  0  0
  -27.6987  -14.2582   19.5554 H   0  0  0  0  0  0
  -28.6624  -11.9808   21.3566 H   0  0  0  0  0  0
  -28.4620  -13.6349   21.8574 H   0  0  0  0  0  0
  -25.2707   -9.5716   22.4749 H   0  0  0  0  0  0
  -23.9958   -7.4627   22.7470 H   0  0  0  0  0  0
  -21.0755   -8.8701   19.8987 H   0  0  0  0  0  0
  -22.3566  -10.9612   19.6127 H   0  0  0  0  0  0
  -21.2019   -7.6139   23.9698 H   0  0  0  0  0  0
  -21.1505   -6.0511   25.9077 H   0  0  0  0  0  0
  -22.0595   -2.7568   23.2850 H   0  0  0  0  0  0
  -22.4028  -11.9947   22.4816 H   0  0  0  0  0  0
  -21.1102  -13.1348   22.2605 H   0  0  0  0  0  0
  -24.6790  -15.8563   20.5260 H   0  0  0  0  0  0
  -26.3002  -15.6200   20.1125 H   0  0  0  0  0  0
  -26.7172  -32.5498   23.1130 H   0  0  0  0  0  0
  -25.0097  -33.9750   25.0454 H   0  0  0  0  0  0
  -22.6979  -31.3084   21.4147 H   0  0  0  0  0  0
  -23.3763  -35.9620   23.3216 H   0  0  0  0  0  0
  -24.3600  -36.8992   22.2057 H   0  0  0  0  0  0
  -23.7200  -37.6474   23.6692 H   0  0  0  0  0  0
  -26.0643  -31.5823   20.6003 H   0  0  0  0  0  0
  -26.8264  -30.8609   21.9938 H   0  0  0  0  0  0
  -28.1058  -29.0594   21.1646 H   0  0  0  0  0  0
  -26.0013  -25.9718   18.9862 H   0  0  0  0  0  0
  -23.9706  -27.3098   19.0191 H   0  0  0  0  0  0
  -23.7208  -30.5985   19.4051 H   0  0  0  0  0  0
  -22.7364  -29.2460   19.8724 H   0  0  0  0  0  0
  -25.1257  -36.1911   25.0818 H   0  0  0  0  0  0
  -20.9971  -28.3234   24.1448 H   0  0  0  0  0  0
  -20.5697  -26.2289   23.3625 H   0  0  0  0  0  0
  -21.6621  -26.7464   22.1200 H   0  0  0  0  0  0
  -19.6889  -25.6306   21.1258 H   0  0  0  0  0  0
  -19.6659  -27.3215   20.6772 H   0  0  0  0  0  0
  -17.4200  -26.6703   21.4019 H   0  0  0  0  0  0
  -18.0285  -26.0065   22.9029 H   0  0  0  0  0  0
  -19.7932  -30.7272   24.2258 H   0  0  0  0  0  0
  -17.5006  -31.6270   24.5170 H   0  0  0  0  0  0
  -15.5332  -30.2973   23.7661 H   0  0  0  0  0  0
  -15.8678  -28.0830   22.7036 H   0  0  0  0  0  0
  -24.5883  -30.7155   25.7824 H   0  0  0  0  0  0
  -24.9010  -32.2973   26.4920 H   0  0  0  0  0  0
  -25.8085  -30.8931   27.0248 H   0  0  0  0  0  0
  -26.2883  -29.6762   24.1228 H   0  0  0  0  0  0
  -27.4036  -29.7266   25.4669 H   0  0  0  0  0  0
  -27.8756  -30.4265   23.9369 H   0  0  0  0  0  0
  -27.2672  -33.3611   26.2101 H   0  0  0  0  0  0
  -28.3853  -32.6942   25.0297 H   0  0  0  0  0  0
  -28.0795  -31.8465   26.5365 H   0  0  0  0  0  0
  -28.2510  -38.0166   24.7655 H   0  0  0  0  0  0
  -28.1199  -36.2718   24.6006 H   0  0  0  0  0  0
  -27.2381  -37.1099   25.8841 H   0  0  0  0  0  0
  -20.9365  -29.8731   21.6912 H   0  0  0  0  0  0
  -26.0136  -38.2855   24.1552 H   0  0  0  0  0  0
  -29.6584  -17.8651   22.3968 H   0  0  0  0  0  0
  -30.0085  -20.5164   19.0017 H   0  0  0  0  0  0
  -30.3423  -16.2877   18.4278 H   0  0  0  0  0  0
  -31.5871  -23.1437   21.7041 H   0  0  0  0  0  0
  -31.7446  -22.2255   20.1956 H   0  0  0  0  0  0
  -31.9424  -21.4335   21.7497 H   0  0  0  0  0  0
  -30.1524  -20.3793   22.6699 H   0  0  0  0  0  0
  -28.5427  -20.5065   22.0808 H   0  0  0  0  0  0
  -30.2041  -24.3113   19.8295 H   0  0  0  0  0  0
  -29.7702  -24.7133   21.4745 H   0  0  0  0  0  0
  -27.3145  -24.9242   20.6013 H   0  0  0  0  0  0
  -28.0162  -24.9169   18.9932 H   0  0  0  0  0  0
  -29.1796  -15.3167   21.5811 H   0  0  0  0  0  0
  1 25  1  0  0  0
  1 30  2  0  0  0
  1 82  1  0  0  0
  2  3  1  0  0  0
  2 25  1  0  0  0
  2 86  1  0  0  0
  2 87  1  0  0  0
  3  4  1  0  0  0
  3 88  1  0  0  0
  3 89  1  0  0  0
  4  5  1  0  0  0
  4 90  1  0  0  0
  4 91  1  0  0  0
  5  6  1  0  0  0
  5 26  1  0  0  0
  5 92  1  0  0  0
  6 25  1  0  0  0
  6 93  1  0  0  0
  6 94  1  0  0  0
  7  8  2  0  0  0
  7 26  1  0  0  0
  7 29  1  0  0  0
  8  9  1  0  0  0
  8 22  1  0  0  0
  9 10  1  0  0  0
  9 27  2  0  0  0
 10 11  2  0  0  0
 10 15  1  0  0  0
 11 12  1  0  0  0
 11 95  1  0  0  0
 12 13  2  0  0  0
 12 96  1  0  0  0
 13 14  1  0  0  0
 13 31  1  0  0  0
 14 15  2  0  0  0
 14 97  1  0  0  0
 15 98  1  0  0  0
 16 17  2  0  0  0
 16 21  1  0  0  0
 16 31  1  0  0  0
 17 18  1  0  0  0
 17 99  1  0  0  0
 18 19  2  0  0  0
 18100  1  0  0  0
 19 20  1  0  0  0
 19 24  1  0  0  0
 20 21  2  0  0  0
 20101  1  0  0  0
 21 23  1  0  0  0
 22 28  1  0  0  0
 22 32  2  0  0  0
 26 27  1  0  0  0
 28102  1  0  0  0
 28103  1  0  0  0
 29104  1  0  0  0
 29105  1  0  0  0
 33 34  1  0  0  0
 33 66  1  0  0  0
 33 70  2  0  0  0
 34 36  1  0  0  0
 34 59  1  0  0  0
 34106  1  0  0  0
 35 44  2  0  0  0
 35 45  1  0  0  0
 35 68  1  0  0  0
 36 56  1  0  0  0
 36107  1  0  0  0
 37 39  1  0  0  0
 37 47  1  0  0  0
 37 66  1  0  0  0
 37108  1  0  0  0
 38 43  2  0  0  0
 38 46  1  0  0  0
 38 47  1  0  0  0
 39 64  1  0  0  0
 39 67  2  0  0  0
 40 52  1  0  0  0
 40 53  2  0  0  0
 40 58  1  0  0  0
 41109  1  0  0  0
 41110  1  0  0  0
 41111  1  0  0  0
 41 48  1  0  0  0
 42 43  1  0  0  0
 42 66  1  0  0  0
 42112  1  0  0  0
 42113  1  0  0  0
 43 44  1  0  0  0
 44114  1  0  0  0
 45 46  2  0  0  0
 45115  1  0  0  0
 46116  1  0  0  0
 47117  1  0  0  0
 47118  1  0  0  0
 48 56  1  0  0  0
 48 65  1  0  0  0
 48119  1  0  0  0
 49 50  1  0  0  0
 49 53  1  0  0  0
 49 64  1  0  0  0
 49120  1  0  0  0
 50 51  1  0  0  0
 50121  1  0  0  0
 50122  1  0  0  0
 51 52  1  0  0  0
 51123  1  0  0  0
 51124  1  0  0  0
 52125  1  0  0  0
 52126  1  0  0  0
 53 54  1  0  0  0
 54 55  2  0  0  0
 54127  1  0  0  0
 55 57  1  0  0  0
 55128  1  0  0  0
 56 69  2  0  0  0
 57 58  2  0  0  0
 57129  1  0  0  0
 58130  1  0  0  0
 59 60  1  0  0  0
 59 61  1  0  0  0
 59 62  1  0  0  0
 60131  1  0  0  0
 60132  1  0  0  0
 60133  1  0  0  0
 61134  1  0  0  0
 61135  1  0  0  0
 61136  1  0  0  0
 62137  1  0  0  0
 62138  1  0  0  0
 62139  1  0  0  0
 63 65  1  0  0  0
 63140  1  0  0  0
 63141  1  0  0  0
 63142  1  0  0  0
 64143  1  0  0  0
 65144  1  0  0  0
 68 81  1  0  0  0
 71 74  2  0  0  0
 71 75  1  0  0  0
 71145  1  0  0  0
 72 74  1  0  0  0
 72 76  2  0  0  0
 72146  1  0  0  0
 73 75  2  0  0  0
 73 76  1  0  0  0
 73147  1  0  0  0
 74 79  1  0  0  0
 75 82  1  0  0  0
 76 85  1  0  0  0
 77 80  1  0  0  0
 77 83  1  0  0  0
 77 84  2  0  0  0
 78 83  1  0  0  0
 78148  1  0  0  0
 78149  1  0  0  0
 78150  1  0  0  0
 79 83  1  0  0  0
 79151  1  0  0  0
 79152  1  0  0  0
 80 81  1  0  0  0
 80153  1  0  0  0
 80154  1  0  0  0
 81155  1  0  0  0
 81156  1  0  0  0
 82157  1  0  0  0
M  ISO  4   1 100  68 101  81 101  82 100
M  END
> <chiral flag>
0

> <version>
0

> <s_m_source_file>
/data/baiqing/PycharmProjects/Reinvent-master-3.2/result/LINK_invent/BTK/process_docking_weight1_custom_product_contain_oxygen_bond_distance_aromatic_linkinvent_7_9_3/rearranged_h_0046.sdf

> <i_m_source_file_index>
26

> <r_mmod_Potential_Energy-OPLS-2005>
-34.6003723144531

> <r_mmod_Stretch_Energy-OPLS-2005>
50.4778518676758

> <r_mmod_Bend_Energy-OPLS-2005>
99.2971649169922

> <r_mmod_Torsional_Energy-OPLS-2005>
239.221221923828

> <r_mmod_Improper_Torsional_Energy-OPLS-2005>
4.48370885848999

> <r_mmod_Van_der_Waal_Energy-OPLS-2005>
161.635360717773

> <r_mmod_Electrostatic_Energy-OPLS-2005>
-377.385772705078

> <r_mmod_Solvation_Energy-OPLS-2005>
-230.878387451172

> <b_mmod_Minimization_Converged-OPLS-2005>
0

> <r_mmod_RMS_Derivative-OPLS-2005>
3.66552472114563

$$$$
26
                    3D
 Structure written by MMmdl.
154162  0  0  1  0            999 V2000
  -30.5042  -15.0739   20.3991 C   0  0  0  0  0  0
  -30.4462  -12.6876   19.4851 C   0  0  0  0  0  0
  -29.5211  -12.5320   18.2563 C   0  0  0  0  0  0
  -28.0707  -12.2635   18.6994 C   0  0  0  0  0  0
  -27.6215  -13.2371   19.8188 C   0  0  2  0  0  0
  -28.6679  -13.3484   20.9445 C   0  0  0  0  0  0
  -25.2441  -13.8145   20.5592 C   0  0  0  0  0  0
  -24.1743  -13.0427   20.9199 C   0  0  0  0  0  0
  -24.6348  -11.6882   20.8786 C   0  0  0  0  0  0
  -23.9017  -10.4291   21.0399 C   0  0  0  0  0  0
  -24.3571   -9.4217   21.9182 C   0  0  0  0  0  0
  -23.6267   -8.2231   22.0735 C   0  0  0  0  0  0
  -22.4255   -8.0257   21.3518 C   0  0  0  0  0  0
  -21.9877   -9.0228   20.4603 C   0  0  0  0  0  0
  -22.7189  -10.2124   20.3036 C   0  0  0  0  0  0
  -21.6846   -6.0712   22.5268 C   0  0  0  0  0  0
  -21.4016   -6.5603   23.8204 C   0  0  0  0  0  0
  -21.3688   -5.6752   24.9167 C   0  0  0  0  0  0
  -21.6075   -4.3022   24.7199 C   0  0  0  0  0  0
  -21.8817   -3.8119   23.4322 C   0  0  0  0  0  0
  -21.9186   -4.6935   22.3374 C   0  0  0  0  0  0
  -22.7792  -13.5229   21.1852 C   0  0  0  0  0  0
  -22.1654   -4.2122   21.0956 F   0  0  0  0  0  0
  -21.5654   -3.4520   25.7718 F   0  0  0  0  0  0
  -29.9092  -13.8085   20.3089 N   0  0  0  0  0  0
  -26.2856  -12.9349   20.3202 N   0  0  0  0  0  0
  -25.9269  -11.6507   20.5785 N   0  0  0  0  0  0
  -22.0370  -12.8318   22.0415 N   0  0  0  0  0  0
  -25.4156  -15.1849   20.3781 N   0  0  0  0  0  0
  -31.7371  -15.0907   20.2878 O   0  0  0  0  0  0
  -21.6621   -6.8853   21.4216 O   0  0  0  0  0  0
  -22.3520  -14.5539   20.6631 O   0  0  0  0  0  0
  -24.6521  -31.8434   23.1815 C   0  0  0  0  0  0
  -25.9277  -32.4688   23.8227 C   0  0  1  0  0  0
  -27.2274  -27.0712   20.1549 C   0  0  0  0  0  0
  -25.6054  -33.8493   24.2179 N   0  0  0  0  0  0
  -23.4616  -30.4609   21.5284 C   0  0  2  0  0  0
  -24.9086  -28.8643   20.1172 C   0  0  0  0  0  0
  -22.7612  -29.4621   22.4849 C   0  0  0  0  0  0
  -18.0348  -28.1495   22.8404 C   0  0  0  0  0  0
  -24.1541  -36.7259   23.2636 C   0  0  0  0  0  0
  -26.0226  -30.6875   21.3959 C   0  0  0  0  0  0
  -26.0898  -29.2900   20.7393 C   0  0  0  0  0  0
  -27.2438  -28.4087   20.7427 C   0  0  0  0  0  0
  -26.0198  -26.7664   19.4856 C   0  0  0  0  0  0
  -24.8880  -27.6135   19.4786 C   0  0  0  0  0  0
  -23.6958  -29.7845   20.1513 C   0  0  0  0  0  0
  -25.4185  -36.3062   24.0332 C   0  0  1  0  0  0
  -20.5941  -28.3843   23.1184 C   0  0  2  0  0  0
  -20.6903  -26.9556   22.5367 C   0  0  0  0  0  0
  -19.5900  -26.6465   21.5179 C   0  0  0  0  0  0
  -18.2048  -26.8034   22.1540 C   0  0  0  0  0  0
  -19.1585  -28.8987   23.2787 C   0  0  0  0  0  0
  -18.9516  -30.1558   23.8846 C   0  0  0  0  0  0
  -17.6514  -30.6641   24.0595 C   0  0  0  0  0  0
  -25.9133  -34.9428   23.5071 C   0  0  0  0  0  0
  -16.5403  -29.9137   23.6348 C   0  0  0  0  0  0
  -16.7326  -28.6590   23.0293 C   0  0  0  0  0  0
  -26.4566  -31.6507   25.0649 C   0  0  0  0  0  0
  -25.3695  -31.3637   26.1276 C   0  0  0  0  0  0
  -27.0430  -30.2915   24.6226 C   0  0  0  0  0  0
  -27.6205  -32.4152   25.7383 C   0  0  0  0  0  0
  -27.5680  -37.1753   24.8441 C   0  0  0  0  0  0
  -21.4313  -29.3126   22.3515 N   0  0  0  0  0  0
  -26.4360  -37.3781   23.9421 N   0  0  0  0  0  0
  -24.7330  -31.0201   22.0901 N   0  0  0  0  0  0
  -23.4169  -28.8274   23.3145 O   0  0  0  0  0  0
  -28.2676  -26.0519   20.2193 O   0  0  0  0  0  0
  -26.5670  -34.8926   22.4614 O   0  0  0  0  0  0
  -23.5621  -32.1410   23.6949 O   0  0  0  0  0  0
  -30.8991  -19.3179   22.3492 C   0  0  0  0  0  0
  -30.7768  -18.0357   21.7694 C   0  0  0  0  0  0
  -29.2814  -19.0625   20.1684 C   0  0  0  0  0  0
  -30.2376  -20.4841   21.8827 C   0  0  0  0  0  0
  -29.9334  -17.7943   20.6735 C   0  0  0  0  0  0
  -29.4348  -20.4748   20.6984 C   0  0  0  0  0  0
  -29.0246  -23.2210   20.2776 C   0  0  0  0  0  0
  -30.3519  -21.6827   22.8141 C   0  0  0  0  0  0
  -27.5537  -21.4972   19.3605 C   0  0  0  0  0  0
  -27.9420  -24.5073   20.0710 C   0  0  0  0  0  0
  -29.7293  -16.2918   20.2947 N   0  0  0  0  0  0
  -28.7152  -21.7940   20.1984 N   0  0  0  0  0  0
  -30.1972  -23.5665   20.4623 O   0  0  0  0  0  0
  -31.4679  -12.8856   19.1566 H   0  0  0  0  0  0
  -30.4924  -11.7675   20.0665 H   0  0  0  0  0  0
  -29.8821  -11.7199   17.6269 H   0  0  0  0  0  0
  -29.5552  -13.4401   17.6469 H   0  0  0  0  0  0
  -28.0424  -11.2462   19.0889 H   0  0  0  0  0  0
  -27.3878  -12.2936   17.8479 H   0  0  0  0  0  0
  -27.5635  -14.2149   19.3431 H   0  0  0  0  0  0
  -28.8086  -12.3966   21.4557 H   0  0  0  0  0  0
  -28.3406  -14.0643   21.6994 H   0  0  0  0  0  0
  -25.2672   -9.5745   22.4802 H   0  0  0  0  0  0
  -23.9984   -7.4628   22.7471 H   0  0  0  0  0  0
  -21.0813   -8.8701   19.8908 H   0  0  0  0  0  0
  -22.3589  -10.9655   19.6166 H   0  0  0  0  0  0
  -21.2000   -7.6110   23.9715 H   0  0  0  0  0  0
  -21.1540   -6.0467   25.9081 H   0  0  0  0  0  0
  -22.0583   -2.7573   23.2787 H   0  0  0  0  0  0
  -22.3899  -12.0015   22.4950 H   0  0  0  0  0  0
  -21.0996  -13.1442   22.2508 H   0  0  0  0  0  0
  -24.6253  -15.8186   20.3525 H   0  0  0  0  0  0
  -26.2561  -15.5928   19.9901 H   0  0  0  0  0  0
  -26.7357  -32.5229   23.0951 H   0  0  0  0  0  0
  -25.0204  -33.9589   25.0332 H   0  0  0  0  0  0
  -22.7741  -31.2926   21.3616 H   0  0  0  0  0  0
  -23.3881  -35.9503   23.3187 H   0  0  0  0  0  0
  -24.3694  -36.8974   22.2075 H   0  0  0  0  0  0
  -23.7149  -37.6383   23.6697 H   0  0  0  0  0  0
  -26.1904  -31.4358   20.6212 H   0  0  0  0  0  0
  -26.8928  -30.7444   22.0376 H   0  0  0  0  0  0
  -28.1416  -28.7216   21.2560 H   0  0  0  0  0  0
  -25.9185  -25.8234   18.9698 H   0  0  0  0  0  0
  -23.9853  -27.2792   18.9780 H   0  0  0  0  0  0
  -23.8678  -30.5600   19.4045 H   0  0  0  0  0  0
  -22.8062  -29.2509   19.8118 H   0  0  0  0  0  0
  -25.1345  -36.1965   25.0822 H   0  0  0  0  0  0
  -20.9998  -28.3521   24.1324 H   0  0  0  0  0  0
  -20.5937  -26.2478   23.3593 H   0  0  0  0  0  0
  -21.6781  -26.7721   22.1104 H   0  0  0  0  0  0
  -19.7138  -25.6363   21.1294 H   0  0  0  0  0  0
  -19.6904  -27.3199   20.6650 H   0  0  0  0  0  0
  -17.4357  -26.6733   21.3910 H   0  0  0  0  0  0
  -18.0479  -26.0191   22.8952 H   0  0  0  0  0  0
  -19.7993  -30.7375   24.2192 H   0  0  0  0  0  0
  -17.5081  -31.6309   24.5264 H   0  0  0  0  0  0
  -15.5401  -30.3046   23.7769 H   0  0  0  0  0  0
  -15.8720  -28.0953   22.6980 H   0  0  0  0  0  0
  -24.5933  -30.7008   25.7446 H   0  0  0  0  0  0
  -24.8801  -32.2759   26.4683 H   0  0  0  0  0  0
  -25.7898  -30.8726   27.0054 H   0  0  0  0  0  0
  -26.3009  -29.6542   24.1422 H   0  0  0  0  0  0
  -27.4269  -29.7332   25.4769 H   0  0  0  0  0  0
  -27.8830  -30.4166   23.9399 H   0  0  0  0  0  0
  -27.3008  -33.3487   26.2006 H   0  0  0  0  0  0
  -28.3979  -32.6595   25.0127 H   0  0  0  0  0  0
  -28.0922  -31.8175   26.5191 H   0  0  0  0  0  0
  -28.2577  -38.0172   24.7713 H   0  0  0  0  0  0
  -28.1301  -36.2731   24.6001 H   0  0  0  0  0  0
  -27.2426  -37.1063   25.8832 H   0  0  0  0  0  0
  -20.9635  -29.8633   21.6442 H   0  0  0  0  0  0
  -26.0276  -38.2873   24.1433 H   0  0  0  0  0  0
  -31.4793  -19.3806   23.2591 H   0  0  0  0  0  0
  -31.2783  -17.2121   22.2585 H   0  0  0  0  0  0
  -28.5963  -18.9426   19.3452 H   0  0  0  0  0  0
  -30.3691  -21.3428   23.8497 H   0  0  0  0  0  0
  -29.4979  -22.3519   22.7552 H   0  0  0  0  0  0
  -31.2704  -22.2415   22.6353 H   0  0  0  0  0  0
  -26.7880  -22.2718   19.3642 H   0  0  0  0  0  0
  -27.0412  -20.5861   19.6734 H   0  0  0  0  0  0
  -27.9044  -21.3544   18.3378 H   0  0  0  0  0  0
  -27.1437  -24.3024   20.7843 H   0  0  0  0  0  0
  -27.5083  -24.3815   19.0811 H   0  0  0  0  0  0
  -28.7840  -16.0971   19.9955 H   0  0  0  0  0  0
  1 25  1  0  0  0
  1 30  2  0  0  0
  1 81  1  0  0  0
  2  3  1  0  0  0
  2 25  1  0  0  0
  2 84  1  0  0  0
  2 85  1  0  0  0
  3  4  1  0  0  0
  3 86  1  0  0  0
  3 87  1  0  0  0
  4  5  1  0  0  0
  4 88  1  0  0  0
  4 89  1  0  0  0
  5  6  1  0  0  0
  5 26  1  0  0  0
  5 90  1  0  0  0
  6 25  1  0  0  0
  6 91  1  0  0  0
  6 92  1  0  0  0
  7  8  2  0  0  0
  7 26  1  0  0  0
  7 29  1  0  0  0
  8  9  1  0  0  0
  8 22  1  0  0  0
  9 10  1  0  0  0
  9 27  2  0  0  0
 10 11  2  0  0  0
 10 15  1  0  0  0
 11 12  1  0  0  0
 11 93  1  0  0  0
 12 13  2  0  0  0
 12 94  1  0  0  0
 13 14  1  0  0  0
 13 31  1  0  0  0
 14 15  2  0  0  0
 14 95  1  0  0  0
 15 96  1  0  0  0
 16 17  2  0  0  0
 16 21  1  0  0  0
 16 31  1  0  0  0
 17 18  1  0  0  0
 17 97  1  0  0  0
 18 19  2  0  0  0
 18 98  1  0  0  0
 19 20  1  0  0  0
 19 24  1  0  0  0
 20 21  2  0  0  0
 20 99  1  0  0  0
 21 23  1  0  0  0
 22 28  1  0  0  0
 22 32  2  0  0  0
 26 27  1  0  0  0
 28100  1  0  0  0
 28101  1  0  0  0
 29102  1  0  0  0
 29103  1  0  0  0
 33 34  1  0  0  0
 33 66  1  0  0  0
 33 70  2  0  0  0
 34 36  1  0  0  0
 34 59  1  0  0  0
 34104  1  0  0  0
 35 44  2  0  0  0
 35 45  1  0  0  0
 35 68  1  0  0  0
 36 56  1  0  0  0
 36105  1  0  0  0
 37 39  1  0  0  0
 37 47  1  0  0  0
 37 66  1  0  0  0
 37106  1  0  0  0
 38 43  2  0  0  0
 38 46  1  0  0  0
 38 47  1  0  0  0
 39 64  1  0  0  0
 39 67  2  0  0  0
 40 52  1  0  0  0
 40 53  2  0  0  0
 40 58  1  0  0  0
 41107  1  0  0  0
 41108  1  0  0  0
 41109  1  0  0  0
 41 48  1  0  0  0
 42 43  1  0  0  0
 42 66  1  0  0  0
 42110  1  0  0  0
 42111  1  0  0  0
 43 44  1  0  0  0
 44112  1  0  0  0
 45 46  2  0  0  0
 45113  1  0  0  0
 46114  1  0  0  0
 47115  1  0  0  0
 47116  1  0  0  0
 48 56  1  0  0  0
 48 65  1  0  0  0
 48117  1  0  0  0
 49 50  1  0  0  0
 49 53  1  0  0  0
 49 64  1  0  0  0
 49118  1  0  0  0
 50 51  1  0  0  0
 50119  1  0  0  0
 50120  1  0  0  0
 51 52  1  0  0  0
 51121  1  0  0  0
 51122  1  0  0  0
 52123  1  0  0  0
 52124  1  0  0  0
 53 54  1  0  0  0
 54 55  2  0  0  0
 54125  1  0  0  0
 55 57  1  0  0  0
 55126  1  0  0  0
 56 69  2  0  0  0
 57 58  2  0  0  0
 57127  1  0  0  0
 58128  1  0  0  0
 59 60  1  0  0  0
 59 61  1  0  0  0
 59 62  1  0  0  0
 60129  1  0  0  0
 60130  1  0  0  0
 60131  1  0  0  0
 61132  1  0  0  0
 61133  1  0  0  0
 61134  1  0  0  0
 62135  1  0  0  0
 62136  1  0  0  0
 62137  1  0  0  0
 63 65  1  0  0  0
 63138  1  0  0  0
 63139  1  0  0  0
 63140  1  0  0  0
 64141  1  0  0  0
 65142  1  0  0  0
 68 80  1  0  0  0
 71 72  2  0  0  0
 71 74  1  0  0  0
 71143  1  0  0  0
 72 75  1  0  0  0
 72144  1  0  0  0
 73 75  2  0  0  0
 73 76  1  0  0  0
 73145  1  0  0  0
 74 76  2  0  0  0
 74 78  1  0  0  0
 75 81  1  0  0  0
 76 82  1  0  0  0
 77 80  1  0  0  0
 77 82  1  0  0  0
 77 83  2  0  0  0
 78146  1  0  0  0
 78147  1  0  0  0
 78148  1  0  0  0
 79 82  1  0  0  0
 79149  1  0  0  0
 79150  1  0  0  0
 79151  1  0  0  0
 80152  1  0  0  0
 80153  1  0  0  0
 81154  1  0  0  0
M  ISO  4   1 100  68 101  80 101  81 100
M  END
> <chiral flag>
0

> <version>
0

> <s_m_source_file>
/data/baiqing/PycharmProjects/Reinvent-master-3.2/result/LINK_invent/BTK/process_docking_weight1_custom_product_contain_oxygen_bond_distance_aromatic_linkinvent_7_9_3/rearranged_h_0046.sdf

> <i_m_source_file_index>
27

> <r_mmod_Potential_Energy-OPLS-2005>
796.378845214844

> <r_mmod_Stretch_Energy-OPLS-2005>
353.971160888672

> <r_mmod_Bend_Energy-OPLS-2005>
281.71923828125

> <r_mmod_Torsional_Energy-OPLS-2005>
278.366668701172

> <r_mmod_Improper_Torsional_Energy-OPLS-2005>
10.6253223419189

> <r_mmod_Van_der_Waal_Energy-OPLS-2005>
141.753982543945

> <r_mmod_Electrostatic_Energy-OPLS-2005>
-316.464172363281

> <r_mmod_Solvation_Energy-OPLS-2005>
-236.034439086914

> <b_mmod_Minimization_Converged-OPLS-2005>
0

> <r_mmod_RMS_Derivative-OPLS-2005>
6.63273763656616

$$$$
27
                    3D
 Structure written by MMmdl.
153161  0  0  1  0            999 V2000
  -30.6219  -14.7377   20.4525 C   0  0  0  0  0  0
  -30.4295  -12.4459   19.4837 C   0  0  0  0  0  0
  -29.5159  -12.5120   18.2404 C   0  0  0  0  0  0
  -28.0379  -12.3446   18.6450 C   0  0  0  0  0  0
  -27.6434  -13.2361   19.8541 C   0  0  2  0  0  0
  -28.6859  -13.1681   20.9921 C   0  0  0  0  0  0
  -25.2507  -13.8199   20.5684 C   0  0  0  0  0  0
  -24.1799  -13.0441   20.9196 C   0  0  0  0  0  0
  -24.6396  -11.6920   20.8735 C   0  0  0  0  0  0
  -23.9074  -10.4294   21.0393 C   0  0  0  0  0  0
  -24.3624   -9.4215   21.9176 C   0  0  0  0  0  0
  -23.6299   -8.2249   22.0750 C   0  0  0  0  0  0
  -22.4282   -8.0284   21.3546 C   0  0  0  0  0  0
  -21.9917   -9.0250   20.4642 C   0  0  0  0  0  0
  -22.7240  -10.2130   20.3044 C   0  0  0  0  0  0
  -21.6856   -6.0736   22.5276 C   0  0  0  0  0  0
  -21.4019   -6.5639   23.8210 C   0  0  0  0  0  0
  -21.3665   -5.6790   24.9172 C   0  0  0  0  0  0
  -21.6041   -4.3053   24.7224 C   0  0  0  0  0  0
  -21.8822   -3.8145   23.4346 C   0  0  0  0  0  0
  -21.9195   -4.6962   22.3400 C   0  0  0  0  0  0
  -22.7819  -13.5219   21.1859 C   0  0  0  0  0  0
  -22.1660   -4.2147   21.0978 F   0  0  0  0  0  0
  -21.5634   -3.4537   25.7735 F   0  0  0  0  0  0
  -29.9910  -13.5130   20.4142 N   0  0  0  0  0  0
  -26.2943  -12.9417   20.3275 N   0  0  0  0  0  0
  -25.9334  -11.6557   20.5740 N   0  0  0  0  0  0
  -22.0463  -12.8201   22.0406 N   0  0  0  0  0  0
  -25.4179  -15.1925   20.4094 N   0  0  0  0  0  0
  -31.8036  -14.8259   20.1089 O   0  0  0  0  0  0
  -21.6644   -6.8881   21.4235 O   0  0  0  0  0  0
  -22.3501  -14.5523   20.6708 O   0  0  0  0  0  0
  -24.6332  -31.8554   23.1981 C   0  0  0  0  0  0
  -25.9151  -32.4754   23.8322 C   0  0  1  0  0  0
  -27.2150  -27.2445   20.1219 C   0  0  0  0  0  0
  -25.5946  -33.8555   24.2249 N   0  0  0  0  0  0
  -23.4303  -30.4804   21.5421 C   0  0  2  0  0  0
  -24.8766  -28.9311   20.1049 C   0  0  0  0  0  0
  -22.7513  -29.4609   22.4902 C   0  0  0  0  0  0
  -18.0297  -28.1397   22.8492 C   0  0  0  0  0  0
  -24.1485  -36.7283   23.2643 C   0  0  0  0  0  0
  -25.9787  -30.7609   21.3828 C   0  0  0  0  0  0
  -26.0489  -29.3814   20.7265 C   0  0  0  0  0  0
  -27.2162  -28.5485   20.7318 C   0  0  0  0  0  0
  -26.0266  -26.8914   19.4368 C   0  0  0  0  0  0
  -24.8724  -27.6942   19.4495 C   0  0  0  0  0  0
  -23.6488  -29.8198   20.1559 C   0  0  0  0  0  0
  -25.4111  -36.3067   24.0329 C   0  0  1  0  0  0
  -20.5901  -28.3710   23.1267 C   0  0  2  0  0  0
  -20.6786  -26.9423   22.5412 C   0  0  0  0  0  0
  -19.5753  -26.6388   21.5218 C   0  0  0  0  0  0
  -18.1935  -26.7938   22.1631 C   0  0  0  0  0  0
  -19.1553  -28.8874   23.2878 C   0  0  0  0  0  0
  -18.9474  -30.1474   23.8888 C   0  0  0  0  0  0
  -17.6471  -30.6594   24.0571 C   0  0  0  0  0  0
  -25.9058  -34.9439   23.5091 C   0  0  0  0  0  0
  -16.5366  -29.9093   23.6329 C   0  0  0  0  0  0
  -16.7284  -28.6510   23.0347 C   0  0  0  0  0  0
  -26.4502  -31.6574   25.0713 C   0  0  0  0  0  0
  -25.3723  -31.3731   26.1433 C   0  0  0  0  0  0
  -27.0352  -30.2985   24.6209 C   0  0  0  0  0  0
  -27.6059  -32.4304   25.7498 C   0  0  0  0  0  0
  -27.5570  -37.1799   24.8470 C   0  0  0  0  0  0
  -21.4219  -29.3058   22.3658 N   0  0  0  0  0  0
  -26.4280  -37.3778   23.9421 N   0  0  0  0  0  0
  -24.6999  -31.0507   22.0969 N   0  0  0  0  0  0
  -23.4208  -28.8139   23.2991 O   0  0  0  0  0  0
  -28.2856  -26.3125   20.2157 O   0  0  0  0  0  0
  -26.5637  -34.8929   22.4665 O   0  0  0  0  0  0
  -23.5479  -32.1381   23.7270 O   0  0  0  0  0  0
  -28.9458  -18.4947   22.1121 C   0  0  0  0  0  0
  -28.3326  -19.6062   22.7222 C   0  0  0  0  0  0
  -29.4578  -19.9221   20.2085 C   0  0  0  0  0  0
  -29.5168  -18.6026   20.8332 C   0  0  0  0  0  0
  -28.8397  -21.0998   20.8126 C   0  0  0  0  0  0
  -28.2555  -20.8686   22.0941 C   0  0  0  0  0  0
  -28.7993  -23.6156   20.5019 C   0  0  0  0  0  0
  -29.6901  -23.9965   21.6681 C   0  0  0  0  0  0
  -30.2096  -17.3120   20.2030 C   0  0  0  0  0  0
  -28.0436  -24.8670   19.8300 C   0  0  0  0  0  0
  -28.6044  -22.3637   20.1078 N   0  0  0  0  0  0
  -29.8644  -15.8847   20.6399 N   0  0  0  0  0  0
  -27.3283  -22.0747   22.9212 Cl  0  0  0  0  0  0
  -31.4745  -12.5543   19.1895 H   0  0  0  0  0  0
  -30.3573  -11.4692   19.9646 H   0  0  0  0  0  0
  -29.7971  -11.7408   17.5221 H   0  0  0  0  0  0
  -29.6543  -13.4683   17.7328 H   0  0  0  0  0  0
  -27.8826  -11.2937   18.8920 H   0  0  0  0  0  0
  -27.3879  -12.5552   17.7939 H   0  0  0  0  0  0
  -27.6384  -14.2593   19.4798 H   0  0  0  0  0  0
  -28.7142  -12.1713   21.4355 H   0  0  0  0  0  0
  -28.4219  -13.8537   21.7988 H   0  0  0  0  0  0
  -25.2776   -9.5693   22.4745 H   0  0  0  0  0  0
  -24.0008   -7.4646   22.7475 H   0  0  0  0  0  0
  -21.0854   -8.8772   19.8944 H   0  0  0  0  0  0
  -22.3707  -10.9669   19.6148 H   0  0  0  0  0  0
  -21.2009   -7.6147   23.9713 H   0  0  0  0  0  0
  -21.1483   -6.0521   25.9078 H   0  0  0  0  0  0
  -22.0595   -2.7604   23.2843 H   0  0  0  0  0  0
  -22.4094  -11.9878   22.4811 H   0  0  0  0  0  0
  -21.1069  -13.1202   22.2582 H   0  0  0  0  0  0
  -24.6476  -15.8437   20.5214 H   0  0  0  0  0  0
  -26.2606  -15.6351   20.0658 H   0  0  0  0  0  0
  -26.7214  -32.5397   23.1064 H   0  0  0  0  0  0
  -25.0107  -33.9687   25.0402 H   0  0  0  0  0  0
  -22.7266  -31.3033   21.3960 H   0  0  0  0  0  0
  -23.3751  -35.9611   23.3314 H   0  0  0  0  0  0
  -24.3569  -36.8897   22.2053 H   0  0  0  0  0  0
  -23.7226  -37.6487   23.6658 H   0  0  0  0  0  0
  -26.1192  -31.5176   20.6096 H   0  0  0  0  0  0
  -26.8573  -30.8107   22.0134 H   0  0  0  0  0  0
  -28.1044  -28.8829   21.2503 H   0  0  0  0  0  0
  -25.9441  -25.9712   18.8800 H   0  0  0  0  0  0
  -23.9816  -27.3527   18.9391 H   0  0  0  0  0  0
  -23.7750  -30.5980   19.4017 H   0  0  0  0  0  0
  -22.7667  -29.2552   19.8491 H   0  0  0  0  0  0
  -25.1286  -36.1910   25.0817 H   0  0  0  0  0  0
  -21.0008  -28.3294   24.1387 H   0  0  0  0  0  0
  -20.5677  -26.2328   23.3623 H   0  0  0  0  0  0
  -21.6654  -26.7426   22.1210 H   0  0  0  0  0  0
  -19.6914  -25.6294   21.1249 H   0  0  0  0  0  0
  -19.6693  -27.3212   20.6759 H   0  0  0  0  0  0
  -17.4205  -26.6706   21.4026 H   0  0  0  0  0  0
  -18.0317  -26.0081   22.9024 H   0  0  0  0  0  0
  -19.7954  -30.7301   24.2246 H   0  0  0  0  0  0
  -17.5025  -31.6267   24.5191 H   0  0  0  0  0  0
  -15.5368  -30.2998   23.7645 H   0  0  0  0  0  0
  -15.8685  -28.0832   22.7053 H   0  0  0  0  0  0
  -24.5944  -30.7007   25.7782 H   0  0  0  0  0  0
  -24.8858  -32.2901   26.4766 H   0  0  0  0  0  0
  -25.8053  -30.9004   27.0254 H   0  0  0  0  0  0
  -26.2935  -29.6746   24.1205 H   0  0  0  0  0  0
  -27.4002  -29.7216   25.4714 H   0  0  0  0  0  0
  -27.8830  -30.4261   23.9475 H   0  0  0  0  0  0
  -27.2674  -33.3631   26.2024 H   0  0  0  0  0  0
  -28.3918  -32.6805   25.0358 H   0  0  0  0  0  0
  -28.0674  -31.8449   26.5464 H   0  0  0  0  0  0
  -28.2594  -38.0091   24.7519 H   0  0  0  0  0  0
  -28.1055  -36.2623   24.6288 H   0  0  0  0  0  0
  -27.2298  -37.1443   25.8877 H   0  0  0  0  0  0
  -20.9404  -29.8786   21.6868 H   0  0  0  0  0  0
  -26.0158  -38.2850   24.1420 H   0  0  0  0  0  0
  -28.9639  -17.5499   22.6377 H   0  0  0  0  0  0
  -27.8736  -19.4783   23.6914 H   0  0  0  0  0  0
  -29.8805  -20.0264   19.2193 H   0  0  0  0  0  0
  -29.0923  -24.3922   22.4881 H   0  0  0  0  0  0
  -30.3988  -24.7643   21.3590 H   0  0  0  0  0  0
  -30.2601  -23.1414   22.0296 H   0  0  0  0  0  0
  -31.2843  -17.4497   20.3334 H   0  0  0  0  0  0
  -30.0488  -17.3565   19.1257 H   0  0  0  0  0  0
  -27.0026  -24.6289   20.0406 H   0  0  0  0  0  0
  -28.1619  -24.7897   18.7477 H   0  0  0  0  0  0
  -28.9049  -15.7302   20.9082 H   0  0  0  0  0  0
  1 25  1  0  0  0
  1 30  2  0  0  0
  1 82  1  0  0  0
  2  3  1  0  0  0
  2 25  1  0  0  0
  2 84  1  0  0  0
  2 85  1  0  0  0
  3  4  1  0  0  0
  3 86  1  0  0  0
  3 87  1  0  0  0
  4  5  1  0  0  0
  4 88  1  0  0  0
  4 89  1  0  0  0
  5  6  1  0  0  0
  5 26  1  0  0  0
  5 90  1  0  0  0
  6 25  1  0  0  0
  6 91  1  0  0  0
  6 92  1  0  0  0
  7  8  2  0  0  0
  7 26  1  0  0  0
  7 29  1  0  0  0
  8  9  1  0  0  0
  8 22  1  0  0  0
  9 10  1  0  0  0
  9 27  2  0  0  0
 10 11  2  0  0  0
 10 15  1  0  0  0
 11 12  1  0  0  0
 11 93  1  0  0  0
 12 13  2  0  0  0
 12 94  1  0  0  0
 13 14  1  0  0  0
 13 31  1  0  0  0
 14 15  2  0  0  0
 14 95  1  0  0  0
 15 96  1  0  0  0
 16 17  2  0  0  0
 16 21  1  0  0  0
 16 31  1  0  0  0
 17 18  1  0  0  0
 17 97  1  0  0  0
 18 19  2  0  0  0
 18 98  1  0  0  0
 19 20  1  0  0  0
 19 24  1  0  0  0
 20 21  2  0  0  0
 20 99  1  0  0  0
 21 23  1  0  0  0
 22 28  1  0  0  0
 22 32  2  0  0  0
 26 27  1  0  0  0
 28100  1  0  0  0
 28101  1  0  0  0
 29102  1  0  0  0
 29103  1  0  0  0
 33 34  1  0  0  0
 33 66  1  0  0  0
 33 70  2  0  0  0
 34 36  1  0  0  0
 34 59  1  0  0  0
 34104  1  0  0  0
 35 44  2  0  0  0
 35 45  1  0  0  0
 35 68  1  0  0  0
 36 56  1  0  0  0
 36105  1  0  0  0
 37 39  1  0  0  0
 37 47  1  0  0  0
 37 66  1  0  0  0
 37106  1  0  0  0
 38 43  2  0  0  0
 38 46  1  0  0  0
 38 47  1  0  0  0
 39 64  1  0  0  0
 39 67  2  0  0  0
 40 52  1  0  0  0
 40 53  2  0  0  0
 40 58  1  0  0  0
 41107  1  0  0  0
 41108  1  0  0  0
 41109  1  0  0  0
 41 48  1  0  0  0
 42 43  1  0  0  0
 42 66  1  0  0  0
 42110  1  0  0  0
 42111  1  0  0  0
 43 44  1  0  0  0
 44112  1  0  0  0
 45 46  2  0  0  0
 45113  1  0  0  0
 46114  1  0  0  0
 47115  1  0  0  0
 47116  1  0  0  0
 48 56  1  0  0  0
 48 65  1  0  0  0
 48117  1  0  0  0
 49 50  1  0  0  0
 49 53  1  0  0  0
 49 64  1  0  0  0
 49118  1  0  0  0
 50 51  1  0  0  0
 50119  1  0  0  0
 50120  1  0  0  0
 51 52  1  0  0  0
 51121  1  0  0  0
 51122  1  0  0  0
 52123  1  0  0  0
 52124  1  0  0  0
 53 54  1  0  0  0
 54 55  2  0  0  0
 54125  1  0  0  0
 55 57  1  0  0  0
 55126  1  0  0  0
 56 69  2  0  0  0
 57 58  2  0  0  0
 57127  1  0  0  0
 58128  1  0  0  0
 59 60  1  0  0  0
 59 61  1  0  0  0
 59 62  1  0  0  0
 60129  1  0  0  0
 60130  1  0  0  0
 60131  1  0  0  0
 61132  1  0  0  0
 61133  1  0  0  0
 61134  1  0  0  0
 62135  1  0  0  0
 62136  1  0  0  0
 62137  1  0  0  0
 63 65  1  0  0  0
 63138  1  0  0  0
 63139  1  0  0  0
 63140  1  0  0  0
 64141  1  0  0  0
 65142  1  0  0  0
 68 80  1  0  0  0
 71 72  2  0  0  0
 71 74  1  0  0  0
 71143  1  0  0  0
 72 76  1  0  0  0
 72144  1  0  0  0
 73 74  2  0  0  0
 73 75  1  0  0  0
 73145  1  0  0  0
 74 79  1  0  0  0
 75 76  2  0  0  0
 75 81  1  0  0  0
 76 83  1  0  0  0
 77 78  1  0  0  0
 77 80  1  0  0  0
 77 81  2  0  0  0
 78146  1  0  0  0
 78147  1  0  0  0
 78148  1  0  0  0
 79 82  1  0  0  0
 79149  1  0  0  0
 79150  1  0  0  0
 80151  1  0  0  0
 80152  1  0  0  0
 82153  1  0  0  0
M  ISO  4   1 100  68 101  80 101  82 100
M  END
> <chiral flag>
0

> <version>
0

> <s_m_source_file>
/data/baiqing/PycharmProjects/Reinvent-master-3.2/result/LINK_invent/BTK/process_docking_weight1_custom_product_contain_oxygen_bond_distance_aromatic_linkinvent_7_9_3/rearranged_h_0046.sdf

> <i_m_source_file_index>
28

> <r_mmod_Potential_Energy-OPLS-2005>
157.612411499023

> <r_mmod_Stretch_Energy-OPLS-2005>
133.509078979492

> <r_mmod_Bend_Energy-OPLS-2005>
173.875885009766

> <r_mmod_Torsional_Energy-OPLS-2005>
226.048980712891

> <r_mmod_Improper_Torsional_Energy-OPLS-2005>
7.72909593582153

> <r_mmod_Van_der_Waal_Energy-OPLS-2005>
146.377151489258

> <r_mmod_Electrostatic_Energy-OPLS-2005>
-413.517730712891

> <r_mmod_Solvation_Energy-OPLS-2005>
-208.424194335938

> <b_mmod_Minimization_Converged-OPLS-2005>
0

> <r_mmod_RMS_Derivative-OPLS-2005>
1.90003764629364

$$$$
28
                    3D
 Structure written by MMmdl.
157166  0  0  1  0            999 V2000
  -30.5613  -14.9118   20.4255 C   0  0  0  0  0  0
  -30.4352  -12.5650   19.4855 C   0  0  0  0  0  0
  -29.5156  -12.5246   18.2450 C   0  0  0  0  0  0
  -28.0466  -12.3217   18.6639 C   0  0  0  0  0  0
  -27.6289  -13.2474   19.8377 C   0  0  2  0  0  0
  -28.6756  -13.2646   20.9714 C   0  0  0  0  0  0
  -25.2462  -13.8221   20.5716 C   0  0  0  0  0  0
  -24.1782  -13.0438   20.9231 C   0  0  0  0  0  0
  -24.6403  -11.6923   20.8756 C   0  0  0  0  0  0
  -23.9090  -10.4290   21.0403 C   0  0  0  0  0  0
  -24.3633   -9.4205   21.9180 C   0  0  0  0  0  0
  -23.6303   -8.2241   22.0748 C   0  0  0  0  0  0
  -22.4283   -8.0280   21.3543 C   0  0  0  0  0  0
  -21.9928   -9.0259   20.4641 C   0  0  0  0  0  0
  -22.7264  -10.2136   20.3049 C   0  0  0  0  0  0
  -21.6858   -6.0737   22.5278 C   0  0  0  0  0  0
  -21.4023   -6.5640   23.8215 C   0  0  0  0  0  0
  -21.3656   -5.6791   24.9172 C   0  0  0  0  0  0
  -21.6042   -4.3053   24.7224 C   0  0  0  0  0  0
  -21.8819   -3.8147   23.4346 C   0  0  0  0  0  0
  -21.9197   -4.6966   22.3402 C   0  0  0  0  0  0
  -22.7802  -13.5202   21.1887 C   0  0  0  0  0  0
  -22.1662   -4.2151   21.0979 F   0  0  0  0  0  0
  -21.5625   -3.4533   25.7735 F   0  0  0  0  0  0
  -29.9499  -13.6648   20.3631 N   0  0  0  0  0  0
  -26.2882  -12.9455   20.3251 N   0  0  0  0  0  0
  -25.9335  -11.6581   20.5743 N   0  0  0  0  0  0
  -22.0464  -12.8176   22.0441 N   0  0  0  0  0  0
  -25.4115  -15.1952   20.4141 N   0  0  0  0  0  0
  -31.7726  -14.9573   20.1873 O   0  0  0  0  0  0
  -21.6643   -6.8883   21.4241 O   0  0  0  0  0  0
  -22.3483  -14.5507   20.6736 O   0  0  0  0  0  0
  -24.6403  -31.8467   23.1860 C   0  0  0  0  0  0
  -25.9191  -32.4706   23.8245 C   0  0  1  0  0  0
  -27.2209  -27.1510   20.1452 C   0  0  0  0  0  0
  -25.5949  -33.8509   24.2170 N   0  0  0  0  0  0
  -23.4414  -30.4650   21.5314 C   0  0  2  0  0  0
  -24.8899  -28.8886   20.1087 C   0  0  0  0  0  0
  -22.7550  -29.4569   22.4855 C   0  0  0  0  0  0
  -18.0306  -28.1378   22.8498 C   0  0  0  0  0  0
  -24.1486  -36.7258   23.2651 C   0  0  0  0  0  0
  -25.9953  -30.7242   21.3799 C   0  0  0  0  0  0
  -26.0661  -29.3355   20.7226 C   0  0  0  0  0  0
  -27.2309  -28.4841   20.7200 C   0  0  0  0  0  0
  -26.0160  -26.7931   19.5030 C   0  0  0  0  0  0
  -24.8775  -27.6310   19.4840 C   0  0  0  0  0  0
  -23.6657  -29.7910   20.1509 C   0  0  0  0  0  0
  -25.4127  -36.3044   24.0323 C   0  0  1  0  0  0
  -20.5921  -28.3705   23.1242 C   0  0  2  0  0  0
  -20.6789  -26.9412   22.5399 C   0  0  0  0  0  0
  -19.5763  -26.6377   21.5203 C   0  0  0  0  0  0
  -18.1946  -26.7927   22.1620 C   0  0  0  0  0  0
  -19.1565  -28.8861   23.2865 C   0  0  0  0  0  0
  -18.9486  -30.1464   23.8881 C   0  0  0  0  0  0
  -17.6484  -30.6584   24.0562 C   0  0  0  0  0  0
  -25.9078  -34.9422   23.5058 C   0  0  0  0  0  0
  -16.5374  -29.9078   23.6329 C   0  0  0  0  0  0
  -16.7295  -28.6489   23.0366 C   0  0  0  0  0  0
  -26.4507  -31.6569   25.0680 C   0  0  0  0  0  0
  -25.3692  -31.3765   26.1378 C   0  0  0  0  0  0
  -27.0366  -30.2971   24.6242 C   0  0  0  0  0  0
  -27.6044  -32.4312   25.7471 C   0  0  0  0  0  0
  -27.5577  -37.1792   24.8477 C   0  0  0  0  0  0
  -21.4244  -29.3050   22.3621 N   0  0  0  0  0  0
  -26.4289  -37.3757   23.9416 N   0  0  0  0  0  0
  -24.7117  -31.0340   22.0875 N   0  0  0  0  0  0
  -23.4226  -28.8129   23.2987 O   0  0  0  0  0  0
  -28.3117  -26.2149   20.2097 O   0  0  0  0  0  0
  -26.5669  -34.8930   22.4634 O   0  0  0  0  0  0
  -23.5527  -32.1313   23.7109 O   0  0  0  0  0  0
  -31.3720  -17.8736   21.2598 C   0  0  0  0  0  0
  -31.7747  -19.1949   21.5296 C   0  0  0  0  0  0
  -29.7083  -20.2057   20.5965 C   0  0  0  0  0  0
  -30.1320  -17.5818   20.6570 C   0  0  0  0  0  0
  -30.9836  -20.3197   21.2184 C   0  0  0  0  0  0
  -29.3097  -18.7866   20.3353 C   0  0  0  0  0  0
  -27.9514  -22.1093   21.0604 C   0  0  0  0  0  0
  -27.1087  -21.3386   21.7681 C   0  0  0  0  0  0
  -27.7457  -23.7021   21.1180 C   0  0  0  0  0  0
  -29.6048  -23.9840   19.6124 C   0  0  0  0  0  0
  -29.5804  -22.4142   19.2856 C   0  0  0  0  0  0
  -28.2392  -24.6782   19.9623 C   0  0  1  0  0  0
  -29.0034  -21.4989   20.3142 N   0  0  0  0  0  0
  -29.7825  -16.0997   20.4904 N   0  0  0  0  0  0
  -31.6346  -21.8589   21.6767 Cl  0  0  0  0  0  0
  -27.7794  -18.4957   19.5871 Cl  0  0  0  0  0  0
  -31.4713  -12.7107   19.1775 H   0  0  0  0  0  0
  -30.4129  -11.6117   20.0157 H   0  0  0  0  0  0
  -29.8252  -11.7271   17.5674 H   0  0  0  0  0  0
  -29.6134  -13.4565   17.6863 H   0  0  0  0  0  0
  -27.9308  -11.2789   18.9590 H   0  0  0  0  0  0
  -27.3838  -12.4694   17.8103 H   0  0  0  0  0  0
  -27.5942  -14.2519   19.4163 H   0  0  0  0  0  0
  -28.7577  -12.2874   21.4477 H   0  0  0  0  0  0
  -28.3867  -13.9681   21.7548 H   0  0  0  0  0  0
  -25.2780   -9.5677   22.4754 H   0  0  0  0  0  0
  -24.0009   -7.4634   22.7466 H   0  0  0  0  0  0
  -21.0861   -8.8786   19.8947 H   0  0  0  0  0  0
  -22.3728  -10.9674   19.6154 H   0  0  0  0  0  0
  -21.2021   -7.6147   23.9723 H   0  0  0  0  0  0
  -21.1475   -6.0514   25.9076 H   0  0  0  0  0  0
  -22.0604   -2.7609   23.2843 H   0  0  0  0  0  0
  -22.4095  -11.9835   22.4811 H   0  0  0  0  0  0
  -21.1076  -13.1180   22.2652 H   0  0  0  0  0  0
  -24.6395  -15.8425   20.5314 H   0  0  0  0  0  0
  -26.2444  -15.6422   20.0564 H   0  0  0  0  0  0
  -26.7253  -32.5331   23.0978 H   0  0  0  0  0  0
  -25.0074  -33.9611   25.0303 H   0  0  0  0  0  0
  -22.7410  -31.2895   21.3783 H   0  0  0  0  0  0
  -23.3758  -35.9578   23.3304 H   0  0  0  0  0  0
  -24.3575  -36.8890   22.2069 H   0  0  0  0  0  0
  -23.7221  -37.6452   23.6673 H   0  0  0  0  0  0
  -26.1487  -31.4767   20.6053 H   0  0  0  0  0  0
  -26.8663  -30.7756   22.0217 H   0  0  0  0  0  0
  -28.1318  -28.8276   21.2084 H   0  0  0  0  0  0
  -25.9230  -25.8314   19.0239 H   0  0  0  0  0  0
  -23.9803  -27.2828   18.9917 H   0  0  0  0  0  0
  -23.8005  -30.5640   19.3929 H   0  0  0  0  0  0
  -22.7792  -29.2348   19.8415 H   0  0  0  0  0  0
  -25.1305  -36.1875   25.0814 H   0  0  0  0  0  0
  -21.0023  -28.3281   24.1357 H   0  0  0  0  0  0
  -20.5655  -26.2316   23.3608 H   0  0  0  0  0  0
  -21.6657  -26.7403   22.1212 H   0  0  0  0  0  0
  -19.6915  -25.6280   21.1247 H   0  0  0  0  0  0
  -19.6698  -27.3171   20.6720 H   0  0  0  0  0  0
  -17.4216  -26.6690   21.4025 H   0  0  0  0  0  0
  -18.0350  -26.0050   22.8994 H   0  0  0  0  0  0
  -19.7961  -30.7289   24.2235 H   0  0  0  0  0  0
  -17.5035  -31.6262   24.5162 H   0  0  0  0  0  0
  -15.5375  -30.2978   23.7649 H   0  0  0  0  0  0
  -15.8696  -28.0793   22.7097 H   0  0  0  0  0  0
  -24.5901  -30.7069   25.7713 H   0  0  0  0  0  0
  -24.8858  -32.2950   26.4718 H   0  0  0  0  0  0
  -25.7993  -30.9014   27.0208 H   0  0  0  0  0  0
  -26.2977  -29.6711   24.1227 H   0  0  0  0  0  0
  -27.3996  -29.7252   25.4793 H   0  0  0  0  0  0
  -27.8865  -30.4220   23.9532 H   0  0  0  0  0  0
  -27.2649  -33.3639   26.1979 H   0  0  0  0  0  0
  -28.3895  -32.6835   25.0330 H   0  0  0  0  0  0
  -28.0647  -31.8475   26.5455 H   0  0  0  0  0  0
  -28.2596  -38.0087   24.7521 H   0  0  0  0  0  0
  -28.1065  -36.2622   24.6294 H   0  0  0  0  0  0
  -27.2296  -37.1431   25.8880 H   0  0  0  0  0  0
  -20.9433  -29.8779   21.6832 H   0  0  0  0  0  0
  -26.0161  -38.2824   24.1417 H   0  0  0  0  0  0
  -32.0391  -17.0790   21.5600 H   0  0  0  0  0  0
  -32.7283  -19.3517   22.0126 H   0  0  0  0  0  0
  -26.3097  -21.7734   22.3522 H   0  0  0  0  0  0
  -27.1855  -20.2623   21.7805 H   0  0  0  0  0  0
  -28.2131  -24.0232   22.0493 H   0  0  0  0  0  0
  -26.6811  -23.8947   21.2573 H   0  0  0  0  0  0
  -30.0420  -24.4995   18.7579 H   0  0  0  0  0  0
  -30.2980  -24.1551   20.4368 H   0  0  0  0  0  0
  -30.5924  -22.0926   19.0372 H   0  0  0  0  0  0
  -29.0033  -22.2676   18.3731 H   0  0  0  0  0  0
  -27.6028  -24.5155   19.0945 H   0  0  0  0  0  0
  -28.7918  -15.9222   20.4390 H   0  0  0  0  0  0
  1 25  1  0  0  0
  1 30  2  0  0  0
  1 84  1  0  0  0
  2  3  1  0  0  0
  2 25  1  0  0  0
  2 87  1  0  0  0
  2 88  1  0  0  0
  3  4  1  0  0  0
  3 89  1  0  0  0
  3 90  1  0  0  0
  4  5  1  0  0  0
  4 91  1  0  0  0
  4 92  1  0  0  0
  5  6  1  0  0  0
  5 26  1  0  0  0
  5 93  1  0  0  0
  6 25  1  0  0  0
  6 94  1  0  0  0
  6 95  1  0  0  0
  7  8  2  0  0  0
  7 26  1  0  0  0
  7 29  1  0  0  0
  8  9  1  0  0  0
  8 22  1  0  0  0
  9 10  1  0  0  0
  9 27  2  0  0  0
 10 11  2  0  0  0
 10 15  1  0  0  0
 11 12  1  0  0  0
 11 96  1  0  0  0
 12 13  2  0  0  0
 12 97  1  0  0  0
 13 14  1  0  0  0
 13 31  1  0  0  0
 14 15  2  0  0  0
 14 98  1  0  0  0
 15 99  1  0  0  0
 16 17  2  0  0  0
 16 21  1  0  0  0
 16 31  1  0  0  0
 17 18  1  0  0  0
 17100  1  0  0  0
 18 19  2  0  0  0
 18101  1  0  0  0
 19 20  1  0  0  0
 19 24  1  0  0  0
 20 21  2  0  0  0
 20102  1  0  0  0
 21 23  1  0  0  0
 22 28  1  0  0  0
 22 32  2  0  0  0
 26 27  1  0  0  0
 28103  1  0  0  0
 28104  1  0  0  0
 29105  1  0  0  0
 29106  1  0  0  0
 33 34  1  0  0  0
 33 66  1  0  0  0
 33 70  2  0  0  0
 34 36  1  0  0  0
 34 59  1  0  0  0
 34107  1  0  0  0
 35 44  2  0  0  0
 35 45  1  0  0  0
 35 68  1  0  0  0
 36 56  1  0  0  0
 36108  1  0  0  0
 37 39  1  0  0  0
 37 47  1  0  0  0
 37 66  1  0  0  0
 37109  1  0  0  0
 38 43  2  0  0  0
 38 46  1  0  0  0
 38 47  1  0  0  0
 39 64  1  0  0  0
 39 67  2  0  0  0
 40 52  1  0  0  0
 40 53  2  0  0  0
 40 58  1  0  0  0
 41110  1  0  0  0
 41111  1  0  0  0
 41112  1  0  0  0
 41 48  1  0  0  0
 42 43  1  0  0  0
 42 66  1  0  0  0
 42113  1  0  0  0
 42114  1  0  0  0
 43 44  1  0  0  0
 44115  1  0  0  0
 45 46  2  0  0  0
 45116  1  0  0  0
 46117  1  0  0  0
 47118  1  0  0  0
 47119  1  0  0  0
 48 56  1  0  0  0
 48 65  1  0  0  0
 48120  1  0  0  0
 49 50  1  0  0  0
 49 53  1  0  0  0
 49 64  1  0  0  0
 49121  1  0  0  0
 50 51  1  0  0  0
 50122  1  0  0  0
 50123  1  0  0  0
 51 52  1  0  0  0
 51124  1  0  0  0
 51125  1  0  0  0
 52126  1  0  0  0
 52127  1  0  0  0
 53 54  1  0  0  0
 54 55  2  0  0  0
 54128  1  0  0  0
 55 57  1  0  0  0
 55129  1  0  0  0
 56 69  2  0  0  0
 57 58  2  0  0  0
 57130  1  0  0  0
 58131  1  0  0  0
 59 60  1  0  0  0
 59 61  1  0  0  0
 59 62  1  0  0  0
 60132  1  0  0  0
 60133  1  0  0  0
 60134  1  0  0  0
 61135  1  0  0  0
 61136  1  0  0  0
 61137  1  0  0  0
 62138  1  0  0  0
 62139  1  0  0  0
 62140  1  0  0  0
 63 65  1  0  0  0
 63141  1  0  0  0
 63142  1  0  0  0
 63143  1  0  0  0
 64144  1  0  0  0
 65145  1  0  0  0
 68 82  1  0  0  0
 71 72  2  0  0  0
 71 74  1  0  0  0
 71146  1  0  0  0
 72 75  1  0  0  0
 72147  1  0  0  0
 73 75  2  0  0  0
 73 76  1  0  0  0
 73 83  1  0  0  0
 74 76  2  0  0  0
 74 84  1  0  0  0
 75 85  1  0  0  0
 76 86  1  0  0  0
 77 78  2  0  0  0
 77 79  1  0  0  0
 77 83  1  0  0  0
 78148  1  0  0  0
 78149  1  0  0  0
 79 82  1  0  0  0
 79150  1  0  0  0
 79151  1  0  0  0
 80 81  1  0  0  0
 80 82  1  0  0  0
 80152  1  0  0  0
 80153  1  0  0  0
 81 83  1  0  0  0
 81154  1  0  0  0
 81155  1  0  0  0
 82156  1  0  0  0
 84157  1  0  0  0
M  ISO  4   1 100  68 101  82 101  84 100
M  END
> <chiral flag>
0

> <version>
0

> <s_m_source_file>
/data/baiqing/PycharmProjects/Reinvent-master-3.2/result/LINK_invent/BTK/process_docking_weight1_custom_product_contain_oxygen_bond_distance_aromatic_linkinvent_7_9_3/rearranged_h_0046.sdf

> <i_m_source_file_index>
29

> <r_mmod_Potential_Energy-OPLS-2005>
464.602600097656

> <r_mmod_Stretch_Energy-OPLS-2005>
220.487564086914

> <r_mmod_Bend_Energy-OPLS-2005>
242.655746459961

> <r_mmod_Torsional_Energy-OPLS-2005>
258.3935546875

> <r_mmod_Improper_Torsional_Energy-OPLS-2005>
6.37359428405762

> <r_mmod_Van_der_Waal_Energy-OPLS-2005>
132.472579956055

> <r_mmod_Electrostatic_Energy-OPLS-2005>
-359.813842773438

> <r_mmod_Solvation_Energy-OPLS-2005>
-204.186950683594

> <b_mmod_Minimization_Converged-OPLS-2005>
0

> <r_mmod_RMS_Derivative-OPLS-2005>
1.78262996673584

$$$$
29
                    3D
 Structure written by MMmdl.
162171  0  0  1  0            999 V2000
  -30.7051  -14.5176   20.5345 C   0  0  0  0  0  0
  -30.4135  -12.3188   19.4482 C   0  0  0  0  0  0
  -29.5002  -12.5013   18.2188 C   0  0  0  0  0  0
  -28.0203  -12.3587   18.6246 C   0  0  0  0  0  0
  -27.6547  -13.2190   19.8640 C   0  0  2  0  0  0
  -28.6940  -13.0568   20.9938 C   0  0  0  0  0  0
  -25.2562  -13.8183   20.5678 C   0  0  0  0  0  0
  -24.1827  -13.0446   20.9168 C   0  0  0  0  0  0
  -24.6395  -11.6918   20.8726 C   0  0  0  0  0  0
  -23.9064  -10.4302   21.0402 C   0  0  0  0  0  0
  -24.3619   -9.4217   21.9180 C   0  0  0  0  0  0
  -23.6296   -8.2249   22.0754 C   0  0  0  0  0  0
  -22.4278   -8.0282   21.3545 C   0  0  0  0  0  0
  -21.9911   -9.0253   20.4647 C   0  0  0  0  0  0
  -22.7235  -10.2133   20.3054 C   0  0  0  0  0  0
  -21.6854   -6.0737   22.5277 C   0  0  0  0  0  0
  -21.4019   -6.5643   23.8210 C   0  0  0  0  0  0
  -21.3661   -5.6796   24.9173 C   0  0  0  0  0  0
  -21.6041   -4.3059   24.7226 C   0  0  0  0  0  0
  -21.8820   -3.8149   23.4348 C   0  0  0  0  0  0
  -21.9196   -4.6965   22.3404 C   0  0  0  0  0  0
  -22.7853  -13.5233   21.1842 C   0  0  0  0  0  0
  -22.1662   -4.2150   21.0980 F   0  0  0  0  0  0
  -21.5627   -3.4544   25.7740 F   0  0  0  0  0  0
  -30.0248  -13.3392   20.4379 N   0  0  0  0  0  0
  -26.2997  -12.9373   20.3323 N   0  0  0  0  0  0
  -25.9322  -11.6521   20.5739 N   0  0  0  0  0  0
  -22.0506  -12.8224   22.0403 N   0  0  0  0  0  0
  -25.4296  -15.1902   20.4122 N   0  0  0  0  0  0
  -31.8632  -14.6006   20.1164 O   0  0  0  0  0  0
  -21.6641   -6.8880   21.4240 O   0  0  0  0  0  0
  -22.3532  -14.5543   20.6702 O   0  0  0  0  0  0
  -24.6175  -31.8662   23.2093 C   0  0  0  0  0  0
  -25.9055  -32.4813   23.8398 C   0  0  1  0  0  0
  -27.2273  -27.4005   20.1003 C   0  0  0  0  0  0
  -25.5900  -33.8614   24.2325 N   0  0  0  0  0  0
  -23.4058  -30.4911   21.5512 C   0  0  2  0  0  0
  -24.8503  -28.9556   20.1132 C   0  0  0  0  0  0
  -22.7416  -29.4655   22.4984 C   0  0  0  0  0  0
  -18.0268  -28.1379   22.8491 C   0  0  0  0  0  0
  -24.1483  -36.7311   23.2638 C   0  0  0  0  0  0
  -25.9385  -30.8222   21.3674 C   0  0  0  0  0  0
  -26.0133  -29.4554   20.7109 C   0  0  0  0  0  0
  -27.2032  -28.6869   20.6974 C   0  0  0  0  0  0
  -26.0432  -26.9291   19.4871 C   0  0  0  0  0  0
  -24.8626  -27.6938   19.4965 C   0  0  0  0  0  0
  -23.6138  -29.8250   20.1657 C   0  0  0  0  0  0
  -25.4108  -36.3109   24.0335 C   0  0  1  0  0  0
  -20.5859  -28.3672   23.1308 C   0  0  2  0  0  0
  -20.6762  -26.9408   22.5411 C   0  0  0  0  0  0
  -19.5744  -26.6387   21.5207 C   0  0  0  0  0  0
  -18.1922  -26.7924   22.1620 C   0  0  0  0  0  0
  -19.1519  -28.8842   23.2894 C   0  0  0  0  0  0
  -18.9448  -30.1447   23.8911 C   0  0  0  0  0  0
  -17.6451  -30.6586   24.0565 C   0  0  0  0  0  0
  -25.9033  -34.9473   23.5127 C   0  0  0  0  0  0
  -16.5341  -29.9089   23.6328 C   0  0  0  0  0  0
  -16.7260  -28.6502   23.0357 C   0  0  0  0  0  0
  -26.4482  -31.6602   25.0734 C   0  0  0  0  0  0
  -25.3739  -31.3714   26.1475 C   0  0  0  0  0  0
  -27.0324  -30.3038   24.6137 C   0  0  0  0  0  0
  -27.6054  -32.4341   25.7489 C   0  0  0  0  0  0
  -27.5584  -37.1808   24.8464 C   0  0  0  0  0  0
  -21.4140  -29.3038   22.3715 N   0  0  0  0  0  0
  -26.4296  -37.3793   23.9408 N   0  0  0  0  0  0
  -24.6725  -31.0740   22.1007 N   0  0  0  0  0  0
  -23.4177  -28.8194   23.3032 O   0  0  0  0  0  0
  -28.3951  -26.6514   20.1396 O   0  0  0  0  0  0
  -26.5590  -34.8925   22.4687 O   0  0  0  0  0  0
  -23.5361  -32.1435   23.7469 O   0  0  0  0  0  0
  -29.4244  -20.2155   21.4247 C   0  0  0  0  0  0
  -29.5499  -18.0676   20.2183 C   0  0  0  0  0  0
  -29.0297  -18.7412   19.0652 C   0  0  0  0  0  0
  -28.7206  -20.1392   19.0992 C   0  0  0  0  0  0
  -28.9636  -20.8982   20.2775 C   0  0  0  0  0  0
  -29.7054  -18.8302   21.4093 C   0  0  0  0  0  0
  -27.7254  -22.9013   20.9414 C   0  0  0  0  0  0
  -30.0318  -16.6369   20.0999 C   0  0  0  0  0  0
  -27.5816  -24.4411   21.0041 C   0  0  0  0  0  0
  -29.7845  -24.6690   19.9041 C   0  0  0  0  0  0
  -29.8081  -23.1488   19.6081 C   0  0  0  0  0  0
  -28.3535  -25.2178   19.9110 C   0  0  2  0  0  0
  -28.8319  -17.9496   17.7648 C   0  0  0  0  0  0
  -28.1220  -20.8171   17.8666 C   0  0  0  0  0  0
  -29.9611  -15.6430   20.9226 N   0  0  0  0  0  0
  -28.8018  -22.3349   20.3271 N   0  0  0  0  0  0
  -26.8482  -22.2245   21.4906 O   0  0  0  0  0  0
  -30.3235  -18.1373   22.8708 Cl  0  0  0  0  0  0
  -31.4623  -12.3841   19.1535 H   0  0  0  0  0  0
  -30.2887  -11.3204   19.8708 H   0  0  0  0  0  0
  -29.7494  -11.7681   17.4502 H   0  0  0  0  0  0
  -29.6697  -13.4827   17.7723 H   0  0  0  0  0  0
  -27.8388  -11.3050   18.8390 H   0  0  0  0  0  0
  -27.3723  -12.6127   17.7852 H   0  0  0  0  0  0
  -27.6845  -14.2597   19.5412 H   0  0  0  0  0  0
  -28.6695  -12.0435   21.3980 H   0  0  0  0  0  0
  -28.4576  -13.7183   21.8294 H   0  0  0  0  0  0
  -25.2763   -9.5693   22.4752 H   0  0  0  0  0  0
  -24.0007   -7.4644   22.7477 H   0  0  0  0  0  0
  -21.0839   -8.8769   19.8957 H   0  0  0  0  0  0
  -22.3688  -10.9671   19.6163 H   0  0  0  0  0  0
  -21.2013   -7.6151   23.9714 H   0  0  0  0  0  0
  -21.1480   -6.0527   25.9073 H   0  0  0  0  0  0
  -22.0599   -2.7610   23.2847 H   0  0  0  0  0  0
  -22.4135  -11.9878   22.4774 H   0  0  0  0  0  0
  -21.1127  -13.1248   22.2631 H   0  0  0  0  0  0
  -24.6738  -15.8545   20.5378 H   0  0  0  0  0  0
  -26.3043  -15.6260   20.1479 H   0  0  0  0  0  0
  -26.7121  -32.5524   23.1154 H   0  0  0  0  0  0
  -25.0075  -33.9782   25.0488 H   0  0  0  0  0  0
  -22.6955  -31.3087   21.4124 H   0  0  0  0  0  0
  -23.3749  -35.9639   23.3312 H   0  0  0  0  0  0
  -24.3574  -36.8923   22.2050 H   0  0  0  0  0  0
  -23.7236  -37.6520   23.6648 H   0  0  0  0  0  0
  -26.0554  -31.5889   20.6005 H   0  0  0  0  0  0
  -26.8246  -30.8740   21.9882 H   0  0  0  0  0  0
  -28.1001  -29.0690   21.1650 H   0  0  0  0  0  0
  -26.0024  -25.9674   18.9991 H   0  0  0  0  0  0
  -23.9692  -27.3053   19.0270 H   0  0  0  0  0  0
  -23.7207  -30.6008   19.4071 H   0  0  0  0  0  0
  -22.7366  -29.2461   19.8714 H   0  0  0  0  0  0
  -25.1285  -36.1972   25.0828 H   0  0  0  0  0  0
  -20.9948  -28.3240   24.1429 H   0  0  0  0  0  0
  -20.5665  -26.2282   23.3598 H   0  0  0  0  0  0
  -21.6633  -26.7456   22.1204 H   0  0  0  0  0  0
  -19.6911  -25.6299   21.1237 H   0  0  0  0  0  0
  -19.6687  -27.3194   20.6732 H   0  0  0  0  0  0
  -17.4192  -26.6670   21.4019 H   0  0  0  0  0  0
  -18.0325  -26.0060   22.9009 H   0  0  0  0  0  0
  -19.7925  -30.7253   24.2289 H   0  0  0  0  0  0
  -17.5013  -31.6268   24.5164 H   0  0  0  0  0  0
  -15.5348  -30.3003   23.7646 H   0  0  0  0  0  0
  -15.8651  -28.0826   22.7081 H   0  0  0  0  0  0
  -24.5891  -30.7087   25.7809 H   0  0  0  0  0  0
  -24.8946  -32.2871   26.4946 H   0  0  0  0  0  0
  -25.8073  -30.8858   27.0223 H   0  0  0  0  0  0
  -26.2880  -29.6782   24.1191 H   0  0  0  0  0  0
  -27.4086  -29.7293   25.4615 H   0  0  0  0  0  0
  -27.8716  -30.4361   23.9303 H   0  0  0  0  0  0
  -27.2668  -33.3632   26.2089 H   0  0  0  0  0  0
  -28.3838  -32.6925   25.0296 H   0  0  0  0  0  0
  -28.0747  -31.8458   26.5385 H   0  0  0  0  0  0
  -28.2607  -38.0101   24.7512 H   0  0  0  0  0  0
  -28.1075  -36.2631   24.6293 H   0  0  0  0  0  0
  -27.2294  -37.1461   25.8865 H   0  0  0  0  0  0
  -20.9302  -29.8769   21.6942 H   0  0  0  0  0  0
  -26.0186  -38.2874   24.1410 H   0  0  0  0  0  0
  -29.6019  -20.7703   22.3350 H   0  0  0  0  0  0
  -30.5273  -16.4801   19.1352 H   0  0  0  0  0  0
  -27.9311  -24.7583   21.9866 H   0  0  0  0  0  0
  -26.5207  -24.6837   20.9678 H   0  0  0  0  0  0
  -30.3866  -25.1977   19.1643 H   0  0  0  0  0  0
  -30.2532  -24.8612   20.8704 H   0  0  0  0  0  0
  -30.8017  -22.7575   19.8298 H   0  0  0  0  0  0
  -29.6702  -23.0089   18.5371 H   0  0  0  0  0  0
  -27.9260  -25.0159   18.9278 H   0  0  0  0  0  0
  -28.3242  -17.0041   17.9574 H   0  0  0  0  0  0
  -29.7971  -17.7307   17.3084 H   0  0  0  0  0  0
  -28.2385  -18.4514   17.0056 H   0  0  0  0  0  0
  -28.8396  -20.8209   17.0453 H   0  0  0  0  0  0
  -27.8061  -21.8442   18.0359 H   0  0  0  0  0  0
  -27.2226  -20.2935   17.5419 H   0  0  0  0  0  0
  1 25  1  0  0  0
  1 30  2  0  0  0
  1 85  1  0  0  0
  2  3  1  0  0  0
  2 25  1  0  0  0
  2 89  1  0  0  0
  2 90  1  0  0  0
  3  4  1  0  0  0
  3 91  1  0  0  0
  3 92  1  0  0  0
  4  5  1  0  0  0
  4 93  1  0  0  0
  4 94  1  0  0  0
  5  6  1  0  0  0
  5 26  1  0  0  0
  5 95  1  0  0  0
  6 25  1  0  0  0
  6 96  1  0  0  0
  6 97  1  0  0  0
  7  8  2  0  0  0
  7 26  1  0  0  0
  7 29  1  0  0  0
  8  9  1  0  0  0
  8 22  1  0  0  0
  9 10  1  0  0  0
  9 27  2  0  0  0
 10 11  2  0  0  0
 10 15  1  0  0  0
 11 12  1  0  0  0
 11 98  1  0  0  0
 12 13  2  0  0  0
 12 99  1  0  0  0
 13 14  1  0  0  0
 13 31  1  0  0  0
 14 15  2  0  0  0
 14100  1  0  0  0
 15101  1  0  0  0
 16 17  2  0  0  0
 16 21  1  0  0  0
 16 31  1  0  0  0
 17 18  1  0  0  0
 17102  1  0  0  0
 18 19  2  0  0  0
 18103  1  0  0  0
 19 20  1  0  0  0
 19 24  1  0  0  0
 20 21  2  0  0  0
 20104  1  0  0  0
 21 23  1  0  0  0
 22 28  1  0  0  0
 22 32  2  0  0  0
 26 27  1  0  0  0
 28105  1  0  0  0
 28106  1  0  0  0
 29107  1  0  0  0
 29108  1  0  0  0
 33 34  1  0  0  0
 33 66  1  0  0  0
 33 70  2  0  0  0
 34 36  1  0  0  0
 34 59  1  0  0  0
 34109  1  0  0  0
 35 44  2  0  0  0
 35 45  1  0  0  0
 35 68  1  0  0  0
 36 56  1  0  0  0
 36110  1  0  0  0
 37 39  1  0  0  0
 37 47  1  0  0  0
 37 66  1  0  0  0
 37111  1  0  0  0
 38 43  2  0  0  0
 38 46  1  0  0  0
 38 47  1  0  0  0
 39 64  1  0  0  0
 39 67  2  0  0  0
 40 52  1  0  0  0
 40 53  2  0  0  0
 40 58  1  0  0  0
 41112  1  0  0  0
 41113  1  0  0  0
 41114  1  0  0  0
 41 48  1  0  0  0
 42 43  1  0  0  0
 42 66  1  0  0  0
 42115  1  0  0  0
 42116  1  0  0  0
 43 44  1  0  0  0
 44117  1  0  0  0
 45 46  2  0  0  0
 45118  1  0  0  0
 46119  1  0  0  0
 47120  1  0  0  0
 47121  1  0  0  0
 48 56  1  0  0  0
 48 65  1  0  0  0
 48122  1  0  0  0
 49 50  1  0  0  0
 49 53  1  0  0  0
 49 64  1  0  0  0
 49123  1  0  0  0
 50 51  1  0  0  0
 50124  1  0  0  0
 50125  1  0  0  0
 51 52  1  0  0  0
 51126  1  0  0  0
 51127  1  0  0  0
 52128  1  0  0  0
 52129  1  0  0  0
 53 54  1  0  0  0
 54 55  2  0  0  0
 54130  1  0  0  0
 55 57  1  0  0  0
 55131  1  0  0  0
 56 69  2  0  0  0
 57 58  2  0  0  0
 57132  1  0  0  0
 58133  1  0  0  0
 59 60  1  0  0  0
 59 61  1  0  0  0
 59 62  1  0  0  0
 60134  1  0  0  0
 60135  1  0  0  0
 60136  1  0  0  0
 61137  1  0  0  0
 61138  1  0  0  0
 61139  1  0  0  0
 62140  1  0  0  0
 62141  1  0  0  0
 62142  1  0  0  0
 63 65  1  0  0  0
 63143  1  0  0  0
 63144  1  0  0  0
 63145  1  0  0  0
 64146  1  0  0  0
 65147  1  0  0  0
 68 82  1  0  0  0
 71 75  2  0  0  0
 71 76  1  0  0  0
 71148  1  0  0  0
 72 73  1  0  0  0
 72 76  2  0  0  0
 72 78  1  0  0  0
 73 74  2  0  0  0
 73 83  1  0  0  0
 74 75  1  0  0  0
 74 84  1  0  0  0
 75 86  1  0  0  0
 76 88  1  0  0  0
 77 79  1  0  0  0
 77 86  1  0  0  0
 77 87  2  0  0  0
 78 85  2  0  0  0
 78149  1  0  0  0
 79 82  1  0  0  0
 79150  1  0  0  0
 79151  1  0  0  0
 80 81  1  0  0  0
 80 82  1  0  0  0
 80152  1  0  0  0
 80153  1  0  0  0
 81 86  1  0  0  0
 81154  1  0  0  0
 81155  1  0  0  0
 82156  1  0  0  0
 83157  1  0  0  0
 83158  1  0  0  0
 83159  1  0  0  0
 84160  1  0  0  0
 84161  1  0  0  0
 84162  1  0  0  0
M  ISO  4   1 100  68 101  82 101  85 100
M  END
> <chiral flag>
0

> <version>
0

> <s_m_source_file>
/data/baiqing/PycharmProjects/Reinvent-master-3.2/result/LINK_invent/BTK/process_docking_weight1_custom_product_contain_oxygen_bond_distance_aromatic_linkinvent_7_9_3/rearranged_h_0046.sdf

> <i_m_source_file_index>
30

> <r_mmod_Potential_Energy-OPLS-2005>
121.165260314941

> <r_mmod_Stretch_Energy-OPLS-2005>
56.6507911682129

> <r_mmod_Bend_Energy-OPLS-2005>
116.090843200684

> <r_mmod_Torsional_Energy-OPLS-2005>
251.25048828125

> <r_mmod_Improper_Torsional_Energy-OPLS-2005>
5.10000801086426

> <r_mmod_Van_der_Waal_Energy-OPLS-2005>
182.646194458008

> <r_mmod_Electrostatic_Energy-OPLS-2005>
-311.651123046875

> <r_mmod_Solvation_Energy-OPLS-2005>
-200.226837158203

> <b_mmod_Minimization_Converged-OPLS-2005>
0

> <r_mmod_RMS_Derivative-OPLS-2005>
0.976799964904785

$$$$
30
                    3D
 Structure written by MMmdl.
154162  0  0  1  0            999 V2000
  -30.7224  -14.5230   20.5959 C   0  0  0  0  0  0
  -30.4190  -12.3451   19.4290 C   0  0  0  0  0  0
  -29.4903  -12.5114   18.2105 C   0  0  0  0  0  0
  -28.0147  -12.3631   18.6299 C   0  0  0  0  0  0
  -27.6587  -13.2155   19.8749 C   0  0  2  0  0  0
  -28.7054  -13.0327   20.9972 C   0  0  0  0  0  0
  -25.2535  -13.8171   20.5662 C   0  0  0  0  0  0
  -24.1817  -13.0449   20.9219 C   0  0  0  0  0  0
  -24.6381  -11.6915   20.8789 C   0  0  0  0  0  0
  -23.9061  -10.4294   21.0435 C   0  0  0  0  0  0
  -24.3617   -9.4196   21.9187 C   0  0  0  0  0  0
  -23.6285   -8.2238   22.0758 C   0  0  0  0  0  0
  -22.4266   -8.0283   21.3555 C   0  0  0  0  0  0
  -21.9914   -9.0261   20.4658 C   0  0  0  0  0  0
  -22.7256  -10.2130   20.3067 C   0  0  0  0  0  0
  -21.6850   -6.0722   22.5276 C   0  0  0  0  0  0
  -21.4007   -6.5638   23.8201 C   0  0  0  0  0  0
  -21.3658   -5.6797   24.9169 C   0  0  0  0  0  0
  -21.6032   -4.3056   24.7224 C   0  0  0  0  0  0
  -21.8822   -3.8142   23.4355 C   0  0  0  0  0  0
  -21.9183   -4.6947   22.3406 C   0  0  0  0  0  0
  -22.7840  -13.5248   21.1847 C   0  0  0  0  0  0
  -22.1659   -4.2145   21.0979 F   0  0  0  0  0  0
  -21.5627   -3.4537   25.7734 F   0  0  0  0  0  0
  -30.0306  -13.3509   20.4420 N   0  0  0  0  0  0
  -26.3013  -12.9379   20.3386 N   0  0  0  0  0  0
  -25.9322  -11.6535   20.5841 N   0  0  0  0  0  0
  -22.0472  -12.8244   22.0394 N   0  0  0  0  0  0
  -25.4192  -15.1892   20.3953 N   0  0  0  0  0  0
  -31.8434  -14.6789   20.1052 O   0  0  0  0  0  0
  -21.6641   -6.8879   21.4248 O   0  0  0  0  0  0
  -22.3537  -14.5547   20.6666 O   0  0  0  0  0  0
  -24.6153  -31.8640   23.2087 C   0  0  0  0  0  0
  -25.9056  -32.4819   23.8367 C   0  0  1  0  0  0
  -27.2554  -27.4168   20.1068 C   0  0  0  0  0  0
  -25.5888  -33.8609   24.2271 N   0  0  0  0  0  0
  -23.4045  -30.4879   21.5482 C   0  0  2  0  0  0
  -24.8570  -28.9518   20.1137 C   0  0  0  0  0  0
  -22.7426  -29.4673   22.4972 C   0  0  0  0  0  0
  -18.0300  -28.1457   22.8412 C   0  0  0  0  0  0
  -24.1493  -36.7309   23.2635 C   0  0  0  0  0  0
  -25.9324  -30.8288   21.3640 C   0  0  0  0  0  0
  -26.0166  -29.4622   20.7086 C   0  0  0  0  0  0
  -27.2149  -28.7030   20.7002 C   0  0  0  0  0  0
  -26.0745  -26.9400   19.4861 C   0  0  0  0  0  0
  -24.8857  -27.6922   19.4908 C   0  0  0  0  0  0
  -23.6143  -29.8139   20.1656 C   0  0  0  0  0  0
  -25.4119  -36.3093   24.0320 C   0  0  1  0  0  0
  -20.5861  -28.3736   23.1330 C   0  0  2  0  0  0
  -20.6770  -26.9426   22.5546 C   0  0  0  0  0  0
  -19.5838  -26.6416   21.5248 C   0  0  0  0  0  0
  -18.1997  -26.7976   22.1578 C   0  0  0  0  0  0
  -19.1532  -28.8906   23.2851 C   0  0  0  0  0  0
  -18.9471  -30.1503   23.8862 C   0  0  0  0  0  0
  -17.6502  -30.6625   24.0529 C   0  0  0  0  0  0
  -25.9036  -34.9476   23.5096 C   0  0  0  0  0  0
  -16.5403  -29.9119   23.6306 C   0  0  0  0  0  0
  -16.7297  -28.6555   23.0324 C   0  0  0  0  0  0
  -26.4485  -31.6606   25.0685 C   0  0  0  0  0  0
  -25.3693  -31.3722   26.1377 C   0  0  0  0  0  0
  -27.0316  -30.3046   24.6071 C   0  0  0  0  0  0
  -27.6069  -32.4312   25.7440 C   0  0  0  0  0  0
  -27.5577  -37.1807   24.8464 C   0  0  0  0  0  0
  -21.4147  -29.3017   22.3653 N   0  0  0  0  0  0
  -26.4300  -37.3780   23.9395 N   0  0  0  0  0  0
  -24.6689  -31.0760   22.0980 N   0  0  0  0  0  0
  -23.4158  -28.8256   23.3083 O   0  0  0  0  0  0
  -28.4318  -26.6777   20.1576 O   0  0  0  0  0  0
  -26.5612  -34.8922   22.4660 O   0  0  0  0  0  0
  -23.5365  -32.1397   23.7487 O   0  0  0  0  0  0
  -30.3871  -19.4659   21.2563 C   0  0  0  0  0  0
  -28.1948  -20.5163   21.1516 C   0  0  0  0  0  0
  -28.3894  -18.0715   21.2218 C   0  0  0  0  0  0
  -29.6001  -20.6557   21.1623 C   0  0  0  0  0  0
  -29.7940  -18.1637   21.2917 C   0  0  0  0  0  0
  -27.6015  -19.2391   21.1718 C   0  0  0  0  0  0
  -29.5385  -24.4466   20.4597 C   0  0  0  0  0  0
  -30.2345  -22.0672   21.1105 C   0  0  0  0  0  0
  -30.6774  -16.9055   21.4561 C   0  0  0  0  0  0
  -28.3868  -25.2712   19.8137 C   0  0  0  0  0  0
  -29.3610  -23.1065   20.5236 N   0  0  0  0  0  0
  -30.0949  -15.5507   21.2252 N   0  0  0  0  0  0
  -30.5548  -25.0033   20.8883 O   0  0  0  0  0  0
  -25.8829  -19.1102   21.1378 Cl  0  0  0  0  0  0
  -31.4598  -12.4330   19.1205 H   0  0  0  0  0  0
  -30.3207  -11.3381   19.8345 H   0  0  0  0  0  0
  -29.7373  -11.7757   17.4430 H   0  0  0  0  0  0
  -29.6462  -13.4951   17.7612 H   0  0  0  0  0  0
  -27.8394  -11.3053   18.8386 H   0  0  0  0  0  0
  -27.3612  -12.6226   17.7972 H   0  0  0  0  0  0
  -27.6938  -14.2637   19.5709 H   0  0  0  0  0  0
  -28.6919  -12.0003   21.3525 H   0  0  0  0  0  0
  -28.4575  -13.6537   21.8557 H   0  0  0  0  0  0
  -25.2780   -9.5644   22.4733 H   0  0  0  0  0  0
  -23.9991   -7.4635   22.7481 H   0  0  0  0  0  0
  -21.0842   -8.8795   19.8967 H   0  0  0  0  0  0
  -22.3749  -10.9660   19.6151 H   0  0  0  0  0  0
  -21.2013   -7.6145   23.9722 H   0  0  0  0  0  0
  -21.1476   -6.0510   25.9074 H   0  0  0  0  0  0
  -22.0603   -2.7608   23.2848 H   0  0  0  0  0  0
  -22.4119  -11.9970   22.4865 H   0  0  0  0  0  0
  -21.1076  -13.1215   22.2576 H   0  0  0  0  0  0
  -24.6365  -15.8274   20.4758 H   0  0  0  0  0  0
  -26.2385  -15.6220   19.9861 H   0  0  0  0  0  0
  -26.7101  -32.5554   23.1117 H   0  0  0  0  0  0
  -25.0019  -33.9756   25.0401 H   0  0  0  0  0  0
  -22.6954  -31.3056   21.4089 H   0  0  0  0  0  0
  -23.3746  -35.9653   23.3317 H   0  0  0  0  0  0
  -24.3568  -36.8907   22.2041 H   0  0  0  0  0  0
  -23.7279  -37.6521   23.6647 H   0  0  0  0  0  0
  -26.0474  -31.5969   20.5975 H   0  0  0  0  0  0
  -26.8187  -30.8808   21.9853 H   0  0  0  0  0  0
  -28.1057  -29.1009   21.1685 H   0  0  0  0  0  0
  -26.0448  -25.9831   18.9845 H   0  0  0  0  0  0
  -24.0028  -27.2939   19.0091 H   0  0  0  0  0  0
  -23.7087  -30.5829   19.3992 H   0  0  0  0  0  0
  -22.7429  -29.2220   19.8817 H   0  0  0  0  0  0
  -25.1330  -36.1932   25.0819 H   0  0  0  0  0  0
  -20.9860  -28.3484   24.1486 H   0  0  0  0  0  0
  -20.5534  -26.2438   23.3819 H   0  0  0  0  0  0
  -21.6685  -26.7366   22.1495 H   0  0  0  0  0  0
  -19.6838  -27.3254   20.6808 H   0  0  0  0  0  0
  -19.7000  -25.6348   21.1237 H   0  0  0  0  0  0
  -17.4314  -26.6686   21.3950 H   0  0  0  0  0  0
  -18.0417  -26.0164   22.9024 H   0  0  0  0  0  0
  -19.7980  -30.7297   24.2225 H   0  0  0  0  0  0
  -17.5036  -31.6269   24.5212 H   0  0  0  0  0  0
  -15.5408  -30.3010   23.7680 H   0  0  0  0  0  0
  -15.8641  -28.0918   22.7108 H   0  0  0  0  0  0
  -24.5908  -30.7054   25.7650 H   0  0  0  0  0  0
  -24.8836  -32.2867   26.4764 H   0  0  0  0  0  0
  -25.7955  -30.8896   27.0174 H   0  0  0  0  0  0
  -26.2867  -29.6766   24.1150 H   0  0  0  0  0  0
  -27.4099  -29.7345   25.4565 H   0  0  0  0  0  0
  -27.8692  -30.4365   23.9219 H   0  0  0  0  0  0
  -27.2739  -33.3635   26.2029 H   0  0  0  0  0  0
  -28.3876  -32.6818   25.0236 H   0  0  0  0  0  0
  -28.0725  -31.8393   26.5329 H   0  0  0  0  0  0
  -28.2631  -38.0065   24.7488 H   0  0  0  0  0  0
  -28.1038  -36.2603   24.6351 H   0  0  0  0  0  0
  -27.2272  -37.1533   25.8856 H   0  0  0  0  0  0
  -20.9365  -29.8492   21.6641 H   0  0  0  0  0  0
  -26.0186  -38.2865   24.1338 H   0  0  0  0  0  0
  -31.4641  -19.5521   21.3107 H   0  0  0  0  0  0
  -27.5516  -21.3869   21.1318 H   0  0  0  0  0  0
  -27.8964  -17.1066   21.2254 H   0  0  0  0  0  0
  -31.1737  -22.0218   20.5562 H   0  0  0  0  0  0
  -30.4832  -22.3733   22.1277 H   0  0  0  0  0  0
  -31.5511  -17.0572   20.8238 H   0  0  0  0  0  0
  -31.0480  -16.9310   22.4828 H   0  0  0  0  0  0
  -27.4555  -24.8100   20.1506 H   0  0  0  0  0  0
  -28.4438  -25.1776   18.7257 H   0  0  0  0  0  0
  -28.4861  -22.7660   20.1563 H   0  0  0  0  0  0
  -29.1848  -15.3578   21.6155 H   0  0  0  0  0  0
  1 25  1  0  0  0
  1 30  2  0  0  0
  1 82  1  0  0  0
  2  3  1  0  0  0
  2 25  1  0  0  0
  2 85  1  0  0  0
  2 86  1  0  0  0
  3  4  1  0  0  0
  3 87  1  0  0  0
  3 88  1  0  0  0
  4  5  1  0  0  0
  4 89  1  0  0  0
  4 90  1  0  0  0
  5  6  1  0  0  0
  5 26  1  0  0  0
  5 91  1  0  0  0
  6 25  1  0  0  0
  6 92  1  0  0  0
  6 93  1  0  0  0
  7  8  2  0  0  0
  7 26  1  0  0  0
  7 29  1  0  0  0
  8  9  1  0  0  0
  8 22  1  0  0  0
  9 10  1  0  0  0
  9 27  2  0  0  0
 10 11  2  0  0  0
 10 15  1  0  0  0
 11 12  1  0  0  0
 11 94  1  0  0  0
 12 13  2  0  0  0
 12 95  1  0  0  0
 13 14  1  0  0  0
 13 31  1  0  0  0
 14 15  2  0  0  0
 14 96  1  0  0  0
 15 97  1  0  0  0
 16 17  2  0  0  0
 16 21  1  0  0  0
 16 31  1  0  0  0
 17 18  1  0  0  0
 17 98  1  0  0  0
 18 19  2  0  0  0
 18 99  1  0  0  0
 19 20  1  0  0  0
 19 24  1  0  0  0
 20 21  2  0  0  0
 20100  1  0  0  0
 21 23  1  0  0  0
 22 28  1  0  0  0
 22 32  2  0  0  0
 26 27  1  0  0  0
 28101  1  0  0  0
 28102  1  0  0  0
 29103  1  0  0  0
 29104  1  0  0  0
 33 34  1  0  0  0
 33 66  1  0  0  0
 33 70  2  0  0  0
 34 36  1  0  0  0
 34 59  1  0  0  0
 34105  1  0  0  0
 35 44  2  0  0  0
 35 45  1  0  0  0
 35 68  1  0  0  0
 36 56  1  0  0  0
 36106  1  0  0  0
 37 39  1  0  0  0
 37 47  1  0  0  0
 37 66  1  0  0  0
 37107  1  0  0  0
 38 43  2  0  0  0
 38 46  1  0  0  0
 38 47  1  0  0  0
 39 64  1  0  0  0
 39 67  2  0  0  0
 40 52  1  0  0  0
 40 53  2  0  0  0
 40 58  1  0  0  0
 41108  1  0  0  0
 41109  1  0  0  0
 41110  1  0  0  0
 41 48  1  0  0  0
 42 43  1  0  0  0
 42 66  1  0  0  0
 42111  1  0  0  0
 42112  1  0  0  0
 43 44  1  0  0  0
 44113  1  0  0  0
 45 46  2  0  0  0
 45114  1  0  0  0
 46115  1  0  0  0
 47116  1  0  0  0
 47117  1  0  0  0
 48 56  1  0  0  0
 48 65  1  0  0  0
 48118  1  0  0  0
 49 50  1  0  0  0
 49 53  1  0  0  0
 49 64  1  0  0  0
 49119  1  0  0  0
 50 51  1  0  0  0
 50120  1  0  0  0
 50121  1  0  0  0
 51 52  1  0  0  0
 51122  1  0  0  0
 51123  1  0  0  0
 52124  1  0  0  0
 52125  1  0  0  0
 53 54  1  0  0  0
 54 55  2  0  0  0
 54126  1  0  0  0
 55 57  1  0  0  0
 55127  1  0  0  0
 56 69  2  0  0  0
 57 58  2  0  0  0
 57128  1  0  0  0
 58129  1  0  0  0
 59 60  1  0  0  0
 59 61  1  0  0  0
 59 62  1  0  0  0
 60130  1  0  0  0
 60131  1  0  0  0
 60132  1  0  0  0
 61133  1  0  0  0
 61134  1  0  0  0
 61135  1  0  0  0
 62136  1  0  0  0
 62137  1  0  0  0
 62138  1  0  0  0
 63 65  1  0  0  0
 63139  1  0  0  0
 63140  1  0  0  0
 63141  1  0  0  0
 64142  1  0  0  0
 65143  1  0  0  0
 68 80  1  0  0  0
 71 74  2  0  0  0
 71 75  1  0  0  0
 71144  1  0  0  0
 72 74  1  0  0  0
 72 76  2  0  0  0
 72145  1  0  0  0
 73 75  2  0  0  0
 73 76  1  0  0  0
 73146  1  0  0  0
 74 78  1  0  0  0
 75 79  1  0  0  0
 76 84  1  0  0  0
 77 80  1  0  0  0
 77 81  1  0  0  0
 77 83  2  0  0  0
 78 81  1  0  0  0
 78147  1  0  0  0
 78148  1  0  0  0
 79 82  1  0  0  0
 79149  1  0  0  0
 79150  1  0  0  0
 80151  1  0  0  0
 80152  1  0  0  0
 81153  1  0  0  0
 82154  1  0  0  0
M  ISO  4   1 100  68 101  80 101  82 100
M  END
> <chiral flag>
0

> <version>
0

> <s_m_source_file>
/data/baiqing/PycharmProjects/Reinvent-master-3.2/result/LINK_invent/BTK/process_docking_weight1_custom_product_contain_oxygen_bond_distance_aromatic_linkinvent_7_9_3/rearranged_h_0046.sdf

> <i_m_source_file_index>
31

> <r_mmod_Potential_Energy-OPLS-2005>
-183.763397216797

> <r_mmod_Stretch_Energy-OPLS-2005>
49.4899978637695

> <r_mmod_Bend_Energy-OPLS-2005>
106.697380065918

> <r_mmod_Torsional_Energy-OPLS-2005>
185.523025512695

> <r_mmod_Improper_Torsional_Energy-OPLS-2005>
2.89176940917969

> <r_mmod_Van_der_Waal_Energy-OPLS-2005>
149.292236328125

> <r_mmod_Electrostatic_Energy-OPLS-2005>
-450.223693847656

> <r_mmod_Solvation_Energy-OPLS-2005>
-245.730560302734

> <b_mmod_Minimization_Converged-OPLS-2005>
0

> <r_mmod_RMS_Derivative-OPLS-2005>
6.86665439605713

$$$$
31
                    3D
 Structure written by MMmdl.
164173  0  0  1  0            999 V2000
  -30.5034  -14.9456   20.4418 C   0  0  0  0  0  0
  -30.4576  -12.5914   19.5010 C   0  0  0  0  0  0
  -29.5332  -12.5477   18.2606 C   0  0  0  0  0  0
  -28.0608  -12.3329   18.6657 C   0  0  0  0  0  0
  -27.6355  -13.2459   19.8439 C   0  0  2  0  0  0
  -28.6769  -13.2404   20.9829 C   0  0  0  0  0  0
  -25.2478  -13.8206   20.5722 C   0  0  0  0  0  0
  -24.1776  -13.0437   20.9231 C   0  0  0  0  0  0
  -24.6364  -11.6916   20.8718 C   0  0  0  0  0  0
  -23.9029  -10.4289   21.0391 C   0  0  0  0  0  0
  -24.3584   -9.4207   21.9171 C   0  0  0  0  0  0
  -23.6290   -8.2224   22.0721 C   0  0  0  0  0  0
  -22.4273   -8.0267   21.3510 C   0  0  0  0  0  0
  -21.9892   -9.0239   20.4615 C   0  0  0  0  0  0
  -22.7200  -10.2130   20.3034 C   0  0  0  0  0  0
  -21.6851   -6.0734   22.5290 C   0  0  0  0  0  0
  -21.4011   -6.5639   23.8229 C   0  0  0  0  0  0
  -21.3650   -5.6784   24.9190 C   0  0  0  0  0  0
  -21.6055   -4.3042   24.7228 C   0  0  0  0  0  0
  -21.8818   -3.8133   23.4342 C   0  0  0  0  0  0
  -21.9186   -4.6958   22.3400 C   0  0  0  0  0  0
  -22.7790  -13.5202   21.1908 C   0  0  0  0  0  0
  -22.1654   -4.2141   21.0973 F   0  0  0  0  0  0
  -21.5628   -3.4524   25.7743 F   0  0  0  0  0  0
  -29.9560  -13.6639   20.4006 N   0  0  0  0  0  0
  -26.2904  -12.9433   20.3230 N   0  0  0  0  0  0
  -25.9309  -11.6571   20.5689 N   0  0  0  0  0  0
  -22.0416  -12.8213   22.0467 N   0  0  0  0  0  0
  -25.4113  -15.1939   20.4185 N   0  0  0  0  0  0
  -31.7019  -15.0649   20.1609 O   0  0  0  0  0  0
  -21.6614   -6.8885   21.4261 O   0  0  0  0  0  0
  -22.3472  -14.5500   20.6752 O   0  0  0  0  0  0
  -24.6433  -31.8403   23.1866 C   0  0  0  0  0  0
  -25.9210  -32.4664   23.8246 C   0  0  1  0  0  0
  -27.2241  -27.1279   20.1443 C   0  0  0  0  0  0
  -25.5963  -33.8469   24.2155 N   0  0  0  0  0  0
  -23.4459  -30.4599   21.5303 C   0  0  2  0  0  0
  -24.8966  -28.8814   20.1048 C   0  0  0  0  0  0
  -22.7563  -29.4528   22.4843 C   0  0  0  0  0  0
  -18.0303  -28.1396   22.8492 C   0  0  0  0  0  0
  -24.1494  -36.7238   23.2639 C   0  0  0  0  0  0
  -26.0021  -30.7123   21.3838 C   0  0  0  0  0  0
  -26.0723  -29.3226   20.7258 C   0  0  0  0  0  0
  -27.2288  -28.4573   20.7347 C   0  0  0  0  0  0
  -26.0207  -26.7854   19.4872 C   0  0  0  0  0  0
  -24.8846  -27.6259   19.4754 C   0  0  0  0  0  0
  -23.6718  -29.7827   20.1505 C   0  0  0  0  0  0
  -25.4127  -36.2997   24.0305 C   0  0  1  0  0  0
  -20.5916  -28.3707   23.1239 C   0  0  2  0  0  0
  -20.6791  -26.9411   22.5412 C   0  0  0  0  0  0
  -19.5764  -26.6369   21.5221 C   0  0  0  0  0  0
  -18.1941  -26.7936   22.1624 C   0  0  0  0  0  0
  -19.1564  -28.8872   23.2857 C   0  0  0  0  0  0
  -18.9481  -30.1469   23.8869 C   0  0  0  0  0  0
  -17.6478  -30.6592   24.0545 C   0  0  0  0  0  0
  -25.9084  -34.9379   23.5036 C   0  0  0  0  0  0
  -16.5363  -29.9089   23.6329 C   0  0  0  0  0  0
  -16.7285  -28.6508   23.0358 C   0  0  0  0  0  0
  -26.4533  -31.6555   25.0702 C   0  0  0  0  0  0
  -25.3721  -31.3779   26.1406 C   0  0  0  0  0  0
  -27.0388  -30.2943   24.6301 C   0  0  0  0  0  0
  -27.6036  -32.4347   25.7500 C   0  0  0  0  0  0
  -27.5572  -37.1773   24.8455 C   0  0  0  0  0  0
  -21.4256  -29.3028   22.3599 N   0  0  0  0  0  0
  -26.4271  -37.3729   23.9415 N   0  0  0  0  0  0
  -24.7168  -31.0268   22.0881 N   0  0  0  0  0  0
  -23.4211  -28.8087   23.2991 O   0  0  0  0  0  0
  -28.2890  -26.1619   20.2813 O   0  0  0  0  0  0
  -26.5661  -34.8891   22.4606 O   0  0  0  0  0  0
  -23.5554  -32.1279   23.7090 O   0  0  0  0  0  0
  -28.7197  -19.7500   19.4209 C   0  0  0  0  0  0
  -30.1043  -18.5117   21.4727 C   0  0  0  0  0  0
  -28.9029  -18.2985   19.4590 C   0  0  0  0  0  0
  -29.2070  -20.6845   20.4008 C   0  0  0  0  0  0
  -29.6340  -17.5858   20.4803 C   0  0  0  0  0  0
  -29.9125  -19.9577   21.4390 C   0  0  0  0  0  0
  -28.2063  -23.2900   20.3393 C   0  0  0  0  0  0
  -25.2653  -21.9646   22.1890 C   0  0  0  0  0  0
  -27.0121  -23.1501   20.9546 C   0  0  0  0  0  0
  -26.4990  -21.9906   21.6572 C   0  0  0  0  0  0
  -30.8525  -24.0345   19.7717 C   0  0  0  0  0  0
  -29.8127  -24.7829   18.9355 C   0  0  0  0  0  0
  -30.5638  -22.5237   19.7919 C   0  0  0  0  0  0
  -28.4312  -24.7625   19.6095 C   0  0  2  0  0  0
  -28.2752  -17.4766   18.3496 C   0  0  0  0  0  0
  -29.2079  -22.1822   20.2429 N   0  0  0  0  0  0
  -29.6262  -16.0508   20.6117 N   0  0  0  0  0  0
  -30.5706  -20.8492   22.7677 Cl  0  0  0  0  0  0
  -31.4867  -12.7794   19.1915 H   0  0  0  0  0  0
  -30.4761  -11.6317   20.0196 H   0  0  0  0  0  0
  -29.8560  -11.7664   17.5729 H   0  0  0  0  0  0
  -29.6236  -13.4899   17.7157 H   0  0  0  0  0  0
  -27.9396  -11.2878   18.9479 H   0  0  0  0  0  0
  -27.4036  -12.4902   17.8101 H   0  0  0  0  0  0
  -27.6058  -14.2563   19.4342 H   0  0  0  0  0  0
  -28.7609  -12.2510   21.4371 H   0  0  0  0  0  0
  -28.3725  -13.9177   21.7818 H   0  0  0  0  0  0
  -25.2723   -9.5717   22.4761 H   0  0  0  0  0  0
  -24.0013   -7.4611   22.7443 H   0  0  0  0  0  0
  -21.0807   -8.8755   19.8933 H   0  0  0  0  0  0
  -22.3646  -10.9668   19.6139 H   0  0  0  0  0  0
  -21.2010   -7.6145   23.9747 H   0  0  0  0  0  0
  -21.1475   -6.0494   25.9109 H   0  0  0  0  0  0
  -22.0603   -2.7596   23.2832 H   0  0  0  0  0  0
  -22.3979  -11.9860   22.4860 H   0  0  0  0  0  0
  -21.1032  -13.1262   22.2663 H   0  0  0  0  0  0
  -24.6282  -15.8296   20.5296 H   0  0  0  0  0  0
  -26.2412  -15.6465   20.0611 H   0  0  0  0  0  0
  -26.7270  -32.5262   23.0969 H   0  0  0  0  0  0
  -25.0096  -33.9566   25.0290 H   0  0  0  0  0  0
  -22.7479  -31.2852   21.3740 H   0  0  0  0  0  0
  -23.3751  -35.9574   23.3268 H   0  0  0  0  0  0
  -24.3575  -36.8905   22.2061 H   0  0  0  0  0  0
  -23.7265  -37.6430   23.6704 H   0  0  0  0  0  0
  -26.1597  -31.4659   20.6095 H   0  0  0  0  0  0
  -26.8706  -30.7618   22.0299 H   0  0  0  0  0  0
  -28.1201  -28.7838   21.2523 H   0  0  0  0  0  0
  -25.9112  -25.8151   19.0283 H   0  0  0  0  0  0
  -23.9793  -27.2786   18.9947 H   0  0  0  0  0  0
  -23.8085  -30.5537   19.3918 H   0  0  0  0  0  0
  -22.7847  -29.2254   19.8415 H   0  0  0  0  0  0
  -25.1323  -36.1792   25.0798 H   0  0  0  0  0  0
  -21.0024  -28.3318   24.1351 H   0  0  0  0  0  0
  -20.5688  -26.2326   23.3636 H   0  0  0  0  0  0
  -21.6656  -26.7422   22.1203 H   0  0  0  0  0  0
  -19.6923  -25.6276   21.1261 H   0  0  0  0  0  0
  -19.6707  -27.3164   20.6745 H   0  0  0  0  0  0
  -17.4218  -26.6682   21.4020 H   0  0  0  0  0  0
  -18.0325  -26.0085   22.9026 H   0  0  0  0  0  0
  -19.7949  -30.7285   24.2238 H   0  0  0  0  0  0
  -17.5025  -31.6270   24.5152 H   0  0  0  0  0  0
  -15.5359  -30.2973   23.7675 H   0  0  0  0  0  0
  -15.8689  -28.0802   22.7100 H   0  0  0  0  0  0
  -24.5880  -30.7138   25.7753 H   0  0  0  0  0  0
  -24.8939  -32.2979   26.4775 H   0  0  0  0  0  0
  -25.8005  -30.8997   27.0222 H   0  0  0  0  0  0
  -26.3004  -29.6673   24.1291 H   0  0  0  0  0  0
  -27.3960  -29.7241   25.4887 H   0  0  0  0  0  0
  -27.8932  -30.4148   23.9636 H   0  0  0  0  0  0
  -27.2585  -33.3645   26.2031 H   0  0  0  0  0  0
  -28.3884  -32.6921   25.0376 H   0  0  0  0  0  0
  -28.0676  -31.8523   26.5471 H   0  0  0  0  0  0
  -28.2558  -38.0097   24.7499 H   0  0  0  0  0  0
  -28.1088  -36.2616   24.6262 H   0  0  0  0  0  0
  -27.2278  -37.1401   25.8853 H   0  0  0  0  0  0
  -20.9471  -29.8737   21.6765 H   0  0  0  0  0  0
  -26.0111  -38.2777   24.1443 H   0  0  0  0  0  0
  -28.1861  -20.1670   18.5795 H   0  0  0  0  0  0
  -30.6201  -18.1066   22.3324 H   0  0  0  0  0  0
  -24.9046  -21.0894   22.7098 H   0  0  0  0  0  0
  -24.5915  -22.8083   22.1179 H   0  0  0  0  0  0
  -26.3681  -24.0197   20.9251 H   0  0  0  0  0  0
  -27.1084  -21.1091   21.7785 H   0  0  0  0  0  0
  -30.8711  -24.4294   20.7891 H   0  0  0  0  0  0
  -31.8469  -24.2064   19.3587 H   0  0  0  0  0  0
  -29.7499  -24.3059   17.9570 H   0  0  0  0  0  0
  -30.1329  -25.8094   18.7489 H   0  0  0  0  0  0
  -31.3120  -22.0511   20.4291 H   0  0  0  0  0  0
  -30.7106  -22.1103   18.7928 H   0  0  0  0  0  0
  -27.7277  -24.7604   18.7793 H   0  0  0  0  0  0
  -27.9256  -18.1047   17.5288 H   0  0  0  0  0  0
  -27.4280  -16.9021   18.7249 H   0  0  0  0  0  0
  -29.0004  -16.7743   17.9407 H   0  0  0  0  0  0
  -28.6945  -15.6957   20.7596 H   0  0  0  0  0  0
  1 25  1  0  0  0
  1 30  2  0  0  0
  1 87  1  0  0  0
  2  3  1  0  0  0
  2 25  1  0  0  0
  2 89  1  0  0  0
  2 90  1  0  0  0
  3  4  1  0  0  0
  3 91  1  0  0  0
  3 92  1  0  0  0
  4  5  1  0  0  0
  4 93  1  0  0  0
  4 94  1  0  0  0
  5  6  1  0  0  0
  5 26  1  0  0  0
  5 95  1  0  0  0
  6 25  1  0  0  0
  6 96  1  0  0  0
  6 97  1  0  0  0
  7  8  2  0  0  0
  7 26  1  0  0  0
  7 29  1  0  0  0
  8  9  1  0  0  0
  8 22  1  0  0  0
  9 10  1  0  0  0
  9 27  2  0  0  0
 10 11  2  0  0  0
 10 15  1  0  0  0
 11 12  1  0  0  0
 11 98  1  0  0  0
 12 13  2  0  0  0
 12 99  1  0  0  0
 13 14  1  0  0  0
 13 31  1  0  0  0
 14 15  2  0  0  0
 14100  1  0  0  0
 15101  1  0  0  0
 16 17  2  0  0  0
 16 21  1  0  0  0
 16 31  1  0  0  0
 17 18  1  0  0  0
 17102  1  0  0  0
 18 19  2  0  0  0
 18103  1  0  0  0
 19 20  1  0  0  0
 19 24  1  0  0  0
 20 21  2  0  0  0
 20104  1  0  0  0
 21 23  1  0  0  0
 22 28  1  0  0  0
 22 32  2  0  0  0
 26 27  1  0  0  0
 28105  1  0  0  0
 28106  1  0  0  0
 29107  1  0  0  0
 29108  1  0  0  0
 33 34  1  0  0  0
 33 66  1  0  0  0
 33 70  2  0  0  0
 34 36  1  0  0  0
 34 59  1  0  0  0
 34109  1  0  0  0
 35 44  2  0  0  0
 35 45  1  0  0  0
 35 68  1  0  0  0
 36 56  1  0  0  0
 36110  1  0  0  0
 37 39  1  0  0  0
 37 47  1  0  0  0
 37 66  1  0  0  0
 37111  1  0  0  0
 38 43  2  0  0  0
 38 46  1  0  0  0
 38 47  1  0  0  0
 39 64  1  0  0  0
 39 67  2  0  0  0
 40 52  1  0  0  0
 40 53  2  0  0  0
 40 58  1  0  0  0
 41112  1  0  0  0
 41113  1  0  0  0
 41114  1  0  0  0
 41 48  1  0  0  0
 42 43  1  0  0  0
 42 66  1  0  0  0
 42115  1  0  0  0
 42116  1  0  0  0
 43 44  1  0  0  0
 44117  1  0  0  0
 45 46  2  0  0  0
 45118  1  0  0  0
 46119  1  0  0  0
 47120  1  0  0  0
 47121  1  0  0  0
 48 56  1  0  0  0
 48 65  1  0  0  0
 48122  1  0  0  0
 49 50  1  0  0  0
 49 53  1  0  0  0
 49 64  1  0  0  0
 49123  1  0  0  0
 50 51  1  0  0  0
 50124  1  0  0  0
 50125  1  0  0  0
 51 52  1  0  0  0
 51126  1  0  0  0
 51127  1  0  0  0
 52128  1  0  0  0
 52129  1  0  0  0
 53 54  1  0  0  0
 54 55  2  0  0  0
 54130  1  0  0  0
 55 57  1  0  0  0
 55131  1  0  0  0
 56 69  2  0  0  0
 57 58  2  0  0  0
 57132  1  0  0  0
 58133  1  0  0  0
 59 60  1  0  0  0
 59 61  1  0  0  0
 59 62  1  0  0  0
 60134  1  0  0  0
 60135  1  0  0  0
 60136  1  0  0  0
 61137  1  0  0  0
 61138  1  0  0  0
 61139  1  0  0  0
 62140  1  0  0  0
 62141  1  0  0  0
 62142  1  0  0  0
 63 65  1  0  0  0
 63143  1  0  0  0
 63144  1  0  0  0
 63145  1  0  0  0
 64146  1  0  0  0
 65147  1  0  0  0
 68 84  1  0  0  0
 71 73  2  0  0  0
 71 74  1  0  0  0
 71148  1  0  0  0
 72 75  2  0  0  0
 72 76  1  0  0  0
 72149  1  0  0  0
 73 75  1  0  0  0
 73 85  1  0  0  0
 74 76  2  0  0  0
 74 86  1  0  0  0
 75 87  1  0  0  0
 76 88  1  0  0  0
 77 79  2  0  0  0
 77 84  1  0  0  0
 77 86  1  0  0  0
 78 80  2  0  0  0
 78150  1  0  0  0
 78151  1  0  0  0
 79 80  1  0  0  0
 79152  1  0  0  0
 80153  1  0  0  0
 81 82  1  0  0  0
 81 83  1  0  0  0
 81154  1  0  0  0
 81155  1  0  0  0
 82 84  1  0  0  0
 82156  1  0  0  0
 82157  1  0  0  0
 83 86  1  0  0  0
 83158  1  0  0  0
 83159  1  0  0  0
 84160  1  0  0  0
 85161  1  0  0  0
 85162  1  0  0  0
 85163  1  0  0  0
 87164  1  0  0  0
M  ISO  4   1 100  68 101  84 101  87 100
M  END
> <chiral flag>
0

> <version>
0

> <s_m_source_file>
/data/baiqing/PycharmProjects/Reinvent-master-3.2/result/LINK_invent/BTK/process_docking_weight1_custom_product_contain_oxygen_bond_distance_aromatic_linkinvent_7_9_3/rearranged_h_0046.sdf

> <i_m_source_file_index>
32

> <r_mmod_Potential_Energy-OPLS-2005>
574.727661132812

> <r_mmod_Stretch_Energy-OPLS-2005>
245.851211547852

> <r_mmod_Bend_Energy-OPLS-2005>
275.501373291016

> <r_mmod_Torsional_Energy-OPLS-2005>
285.710266113281

> <r_mmod_Improper_Torsional_Energy-OPLS-2005>
8.28464984893799

> <r_mmod_Van_der_Waal_Energy-OPLS-2005>
129.399078369141

> <r_mmod_Electrostatic_Energy-OPLS-2005>
-356.958740234375

> <r_mmod_Solvation_Energy-OPLS-2005>
-209.801727294922

> <b_mmod_Minimization_Converged-OPLS-2005>
0

> <r_mmod_RMS_Derivative-OPLS-2005>
3.49936890602112

$$$$
32
                    3D
 Structure written by MMmdl.
158167  0  0  1  0            999 V2000
  -30.6570  -14.7299   20.4631 C   0  0  0  0  0  0
  -30.4251  -12.4421   19.4865 C   0  0  0  0  0  0
  -29.5119  -12.5169   18.2451 C   0  0  0  0  0  0
  -28.0392  -12.3369   18.6552 C   0  0  0  0  0  0
  -27.6464  -13.2336   19.8607 C   0  0  2  0  0  0
  -28.6923  -13.1904   20.9982 C   0  0  0  0  0  0
  -25.2539  -13.8220   20.5706 C   0  0  0  0  0  0
  -24.1837  -13.0469   20.9220 C   0  0  0  0  0  0
  -24.6442  -11.6940   20.8784 C   0  0  0  0  0  0
  -23.9122  -10.4311   21.0428 C   0  0  0  0  0  0
  -24.3666   -9.4225   21.9205 C   0  0  0  0  0  0
  -23.6328   -8.2259   22.0780 C   0  0  0  0  0  0
  -22.4294   -8.0309   21.3570 C   0  0  0  0  0  0
  -21.9962   -9.0285   20.4655 C   0  0  0  0  0  0
  -22.7300  -10.2160   20.3076 C   0  0  0  0  0  0
  -21.6870   -6.0764   22.5303 C   0  0  0  0  0  0
  -21.4004   -6.5655   23.8242 C   0  0  0  0  0  0
  -21.3676   -5.6809   24.9203 C   0  0  0  0  0  0
  -21.6043   -4.3071   24.7252 C   0  0  0  0  0  0
  -21.8806   -3.8163   23.4362 C   0  0  0  0  0  0
  -21.9194   -4.6988   22.3421 C   0  0  0  0  0  0
  -22.7837  -13.5251   21.1851 C   0  0  0  0  0  0
  -22.1659   -4.2185   21.0987 F   0  0  0  0  0  0
  -21.5649   -3.4567   25.7776 F   0  0  0  0  0  0
  -29.9963  -13.5210   20.4082 N   0  0  0  0  0  0
  -26.2990  -12.9431   20.3372 N   0  0  0  0  0  0
  -25.9381  -11.6577   20.5832 N   0  0  0  0  0  0
  -22.0490  -12.8233   22.0401 N   0  0  0  0  0  0
  -25.4190  -15.1945   20.4030 N   0  0  0  0  0  0
  -31.8452  -14.7737   20.1384 O   0  0  0  0  0  0
  -21.6653   -6.8903   21.4271 O   0  0  0  0  0  0
  -22.3510  -14.5570   20.6739 O   0  0  0  0  0  0
  -24.6298  -31.8556   23.1982 C   0  0  0  0  0  0
  -25.9128  -32.4748   23.8324 C   0  0  1  0  0  0
  -27.2181  -27.2577   20.1436 C   0  0  0  0  0  0
  -25.5930  -33.8549   24.2235 N   0  0  0  0  0  0
  -23.4285  -30.4734   21.5440 C   0  0  2  0  0  0
  -24.8779  -28.9198   20.1151 C   0  0  0  0  0  0
  -22.7495  -29.4574   22.4944 C   0  0  0  0  0  0
  -18.0293  -28.1410   22.8490 C   0  0  0  0  0  0
  -24.1504  -36.7282   23.2633 C   0  0  0  0  0  0
  -25.9719  -30.7653   21.3802 C   0  0  0  0  0  0
  -26.0480  -29.3845   20.7294 C   0  0  0  0  0  0
  -27.2225  -28.5643   20.7362 C   0  0  0  0  0  0
  -26.0315  -26.8644   19.4914 C   0  0  0  0  0  0
  -24.8736  -27.6644   19.4864 C   0  0  0  0  0  0
  -23.6493  -29.8069   20.1606 C   0  0  0  0  0  0
  -25.4131  -36.3036   24.0301 C   0  0  1  0  0  0
  -20.5890  -28.3695   23.1304 C   0  0  2  0  0  0
  -20.6788  -26.9423   22.5418 C   0  0  0  0  0  0
  -19.5760  -26.6398   21.5224 C   0  0  0  0  0  0
  -18.1939  -26.7955   22.1631 C   0  0  0  0  0  0
  -19.1547  -28.8871   23.2887 C   0  0  0  0  0  0
  -18.9468  -30.1486   23.8878 C   0  0  0  0  0  0
  -17.6467  -30.6612   24.0563 C   0  0  0  0  0  0
  -25.9079  -34.9422   23.5076 C   0  0  0  0  0  0
  -16.5359  -29.9105   23.6346 C   0  0  0  0  0  0
  -16.7278  -28.6531   23.0349 C   0  0  0  0  0  0
  -26.4499  -31.6571   25.0713 C   0  0  0  0  0  0
  -25.3732  -31.3740   26.1442 C   0  0  0  0  0  0
  -27.0333  -30.2977   24.6202 C   0  0  0  0  0  0
  -27.6051  -32.4303   25.7498 C   0  0  0  0  0  0
  -27.5566  -37.1798   24.8458 C   0  0  0  0  0  0
  -21.4198  -29.3033   22.3683 N   0  0  0  0  0  0
  -26.4291  -37.3737   23.9387 N   0  0  0  0  0  0
  -24.6959  -31.0488   22.0983 N   0  0  0  0  0  0
  -23.4174  -28.8126   23.3075 O   0  0  0  0  0  0
  -28.2970  -26.3441   20.1653 O   0  0  0  0  0  0
  -26.5647  -34.8892   22.4646 O   0  0  0  0  0  0
  -23.5451  -32.1391   23.7276 O   0  0  0  0  0  0
  -31.6949  -17.6986   20.7990 C   0  0  0  0  0  0
  -32.1176  -19.0424   20.7322 C   0  0  0  0  0  0
  -29.4217  -18.4564   20.4318 C   0  0  0  0  0  0
  -29.8291  -19.8586   20.3593 C   0  0  0  0  0  0
  -30.3357  -17.3354   20.6228 C   0  0  0  0  0  0
  -31.2194  -20.0995   20.4827 C   0  0  0  0  0  0
  -28.6659  -23.6785   19.9548 C   0  0  0  0  0  0
  -28.1264  -23.5385   22.8050 C   0  0  0  0  0  0
  -28.3633  -24.9312   22.1996 C   0  0  0  0  0  0
  -28.9736  -22.4626   22.0961 C   0  0  0  0  0  0
  -28.0335  -24.9556   20.7003 C   0  0  1  0  0  0
  -28.8287  -21.0585   19.9959 C   0  0  0  0  0  0
  -28.8430  -22.4635   20.6277 N   0  0  0  0  0  0
  -29.9262  -15.8999   20.6575 N   0  0  0  0  0  0
  -28.8669  -23.7643   18.7396 O   0  0  0  0  0  0
  -31.8898  -21.6769   20.2632 Cl  0  0  0  0  0  0
  -31.4726  -12.5279   19.1923 H   0  0  0  0  0  0
  -30.3328  -11.4686   19.9722 H   0  0  0  0  0  0
  -29.7940  -11.7573   17.5164 H   0  0  0  0  0  0
  -29.6450  -13.4815   17.7513 H   0  0  0  0  0  0
  -27.8902  -11.2831   18.8998 H   0  0  0  0  0  0
  -27.3863  -12.5427   17.8069 H   0  0  0  0  0  0
  -27.6378  -14.2543   19.4762 H   0  0  0  0  0  0
  -28.7245  -12.2075   21.4690 H   0  0  0  0  0  0
  -28.4307  -13.9017   21.7848 H   0  0  0  0  0  0
  -25.2820   -9.5720   22.4779 H   0  0  0  0  0  0
  -24.0063   -7.4639   22.7481 H   0  0  0  0  0  0
  -21.0931   -8.8822   19.8900 H   0  0  0  0  0  0
  -22.3806  -10.9708   19.6177 H   0  0  0  0  0  0
  -21.1966   -7.6146   23.9764 H   0  0  0  0  0  0
  -21.1511   -6.0531   25.9116 H   0  0  0  0  0  0
  -22.0556   -2.7615   23.2876 H   0  0  0  0  0  0
  -22.4136  -11.9859   22.4708 H   0  0  0  0  0  0
  -21.1088  -13.1218   22.2610 H   0  0  0  0  0  0
  -24.6362  -15.8350   20.4706 H   0  0  0  0  0  0
  -26.2560  -15.6349   20.0456 H   0  0  0  0  0  0
  -26.7191  -32.5386   23.1059 H   0  0  0  0  0  0
  -25.0037  -33.9700   25.0348 H   0  0  0  0  0  0
  -22.7232  -31.2936   21.3967 H   0  0  0  0  0  0
  -23.3730  -35.9658   23.3337 H   0  0  0  0  0  0
  -24.3561  -36.8876   22.2037 H   0  0  0  0  0  0
  -23.7335  -37.6516   23.6670 H   0  0  0  0  0  0
  -26.1042  -31.5234   20.6059 H   0  0  0  0  0  0
  -26.8513  -30.8204   22.0110 H   0  0  0  0  0  0
  -28.1149  -28.9103   21.2390 H   0  0  0  0  0  0
  -25.9885  -25.9062   18.9949 H   0  0  0  0  0  0
  -23.9799  -27.2992   18.9999 H   0  0  0  0  0  0
  -23.7754  -30.5854   19.4071 H   0  0  0  0  0  0
  -22.7677  -29.2412   19.8534 H   0  0  0  0  0  0
  -25.1332  -36.1857   25.0794 H   0  0  0  0  0  0
  -20.9965  -28.3270   24.1434 H   0  0  0  0  0  0
  -20.5741  -26.2286   23.3605 H   0  0  0  0  0  0
  -21.6656  -26.7492   22.1184 H   0  0  0  0  0  0
  -19.6931  -25.6307   21.1266 H   0  0  0  0  0  0
  -19.6727  -27.3200   20.6752 H   0  0  0  0  0  0
  -17.4213  -26.6699   21.4030 H   0  0  0  0  0  0
  -18.0344  -26.0110   22.9043 H   0  0  0  0  0  0
  -19.7941  -30.7325   24.2216 H   0  0  0  0  0  0
  -17.5022  -31.6289   24.5180 H   0  0  0  0  0  0
  -15.5364  -30.2999   23.7703 H   0  0  0  0  0  0
  -15.8672  -28.0859   22.7060 H   0  0  0  0  0  0
  -24.5880  -30.7114   25.7772 H   0  0  0  0  0  0
  -24.8962  -32.2934   26.4867 H   0  0  0  0  0  0
  -25.8045  -30.8899   27.0222 H   0  0  0  0  0  0
  -26.2914  -29.6726   24.1214 H   0  0  0  0  0  0
  -27.3989  -29.7221   25.4719 H   0  0  0  0  0  0
  -27.8811  -30.4217   23.9455 H   0  0  0  0  0  0
  -27.2645  -33.3585   26.2108 H   0  0  0  0  0  0
  -28.3873  -32.6896   25.0345 H   0  0  0  0  0  0
  -28.0733  -31.8415   26.5403 H   0  0  0  0  0  0
  -28.2591  -38.0077   24.7431 H   0  0  0  0  0  0
  -28.1044  -36.2595   24.6378 H   0  0  0  0  0  0
  -27.2256  -37.1564   25.8851 H   0  0  0  0  0  0
  -20.9394  -29.8692   21.6824 H   0  0  0  0  0  0
  -26.0146  -38.2798   24.1386 H   0  0  0  0  0  0
  -32.4574  -16.9548   20.9771 H   0  0  0  0  0  0
  -33.1718  -19.2639   20.8397 H   0  0  0  0  0  0
  -28.3754  -18.2356   20.2927 H   0  0  0  0  0  0
  -27.0678  -23.2780   22.7417 H   0  0  0  0  0  0
  -28.3681  -23.5591   23.8690 H   0  0  0  0  0  0
  -29.3989  -25.2310   22.3507 H   0  0  0  0  0  0
  -27.7510  -25.6651   22.7259 H   0  0  0  0  0  0
  -28.7243  -21.4822   22.5051 H   0  0  0  0  0  0
  -30.0216  -22.6351   22.3427 H   0  0  0  0  0  0
  -26.9654  -24.7519   20.6332 H   0  0  0  0  0  0
  -27.8170  -20.6807   20.1496 H   0  0  0  0  0  0
  -28.9065  -21.1786   18.9144 H   0  0  0  0  0  0
  -28.9379  -15.7392   20.7819 H   0  0  0  0  0  0
  1 25  1  0  0  0
  1 30  2  0  0  0
  1 84  1  0  0  0
  2  3  1  0  0  0
  2 25  1  0  0  0
  2 87  1  0  0  0
  2 88  1  0  0  0
  3  4  1  0  0  0
  3 89  1  0  0  0
  3 90  1  0  0  0
  4  5  1  0  0  0
  4 91  1  0  0  0
  4 92  1  0  0  0
  5  6  1  0  0  0
  5 26  1  0  0  0
  5 93  1  0  0  0
  6 25  1  0  0  0
  6 94  1  0  0  0
  6 95  1  0  0  0
  7  8  2  0  0  0
  7 26  1  0  0  0
  7 29  1  0  0  0
  8  9  1  0  0  0
  8 22  1  0  0  0
  9 10  1  0  0  0
  9 27  2  0  0  0
 10 11  2  0  0  0
 10 15  1  0  0  0
 11 12  1  0  0  0
 11 96  1  0  0  0
 12 13  2  0  0  0
 12 97  1  0  0  0
 13 14  1  0  0  0
 13 31  1  0  0  0
 14 15  2  0  0  0
 14 98  1  0  0  0
 15 99  1  0  0  0
 16 17  2  0  0  0
 16 21  1  0  0  0
 16 31  1  0  0  0
 17 18  1  0  0  0
 17100  1  0  0  0
 18 19  2  0  0  0
 18101  1  0  0  0
 19 20  1  0  0  0
 19 24  1  0  0  0
 20 21  2  0  0  0
 20102  1  0  0  0
 21 23  1  0  0  0
 22 28  1  0  0  0
 22 32  2  0  0  0
 26 27  1  0  0  0
 28103  1  0  0  0
 28104  1  0  0  0
 29105  1  0  0  0
 29106  1  0  0  0
 33 34  1  0  0  0
 33 66  1  0  0  0
 33 70  2  0  0  0
 34 36  1  0  0  0
 34 59  1  0  0  0
 34107  1  0  0  0
 35 44  2  0  0  0
 35 45  1  0  0  0
 35 68  1  0  0  0
 36 56  1  0  0  0
 36108  1  0  0  0
 37 39  1  0  0  0
 37 47  1  0  0  0
 37 66  1  0  0  0
 37109  1  0  0  0
 38 43  2  0  0  0
 38 46  1  0  0  0
 38 47  1  0  0  0
 39 64  1  0  0  0
 39 67  2  0  0  0
 40 52  1  0  0  0
 40 53  2  0  0  0
 40 58  1  0  0  0
 41110  1  0  0  0
 41111  1  0  0  0
 41112  1  0  0  0
 41 48  1  0  0  0
 42 43  1  0  0  0
 42 66  1  0  0  0
 42113  1  0  0  0
 42114  1  0  0  0
 43 44  1  0  0  0
 44115  1  0  0  0
 45 46  2  0  0  0
 45116  1  0  0  0
 46117  1  0  0  0
 47118  1  0  0  0
 47119  1  0  0  0
 48 56  1  0  0  0
 48 65  1  0  0  0
 48120  1  0  0  0
 49 50  1  0  0  0
 49 53  1  0  0  0
 49 64  1  0  0  0
 49121  1  0  0  0
 50 51  1  0  0  0
 50122  1  0  0  0
 50123  1  0  0  0
 51 52  1  0  0  0
 51124  1  0  0  0
 51125  1  0  0  0
 52126  1  0  0  0
 52127  1  0  0  0
 53 54  1  0  0  0
 54 55  2  0  0  0
 54128  1  0  0  0
 55 57  1  0  0  0
 55129  1  0  0  0
 56 69  2  0  0  0
 57 58  2  0  0  0
 57130  1  0  0  0
 58131  1  0  0  0
 59 60  1  0  0  0
 59 61  1  0  0  0
 59 62  1  0  0  0
 60132  1  0  0  0
 60133  1  0  0  0
 60134  1  0  0  0
 61135  1  0  0  0
 61136  1  0  0  0
 61137  1  0  0  0
 62138  1  0  0  0
 62139  1  0  0  0
 62140  1  0  0  0
 63 65  1  0  0  0
 63141  1  0  0  0
 63142  1  0  0  0
 63143  1  0  0  0
 64144  1  0  0  0
 65145  1  0  0  0
 68 81  1  0  0  0
 71 72  2  0  0  0
 71 75  1  0  0  0
 71146  1  0  0  0
 72 76  1  0  0  0
 72147  1  0  0  0
 73 74  1  0  0  0
 73 75  2  0  0  0
 73148  1  0  0  0
 74 76  2  0  0  0
 74 82  1  0  0  0
 75 84  1  0  0  0
 76 86  1  0  0  0
 77 81  1  0  0  0
 77 83  1  0  0  0
 77 85  2  0  0  0
 78 79  1  0  0  0
 78 80  1  0  0  0
 78149  1  0  0  0
 78150  1  0  0  0
 79 81  1  0  0  0
 79151  1  0  0  0
 79152  1  0  0  0
 80 83  1  0  0  0
 80153  1  0  0  0
 80154  1  0  0  0
 81155  1  0  0  0
 82 83  1  0  0  0
 82156  1  0  0  0
 82157  1  0  0  0
 84158  1  0  0  0
M  ISO  4   1 100  68 101  81 101  84 100
M  END
> <chiral flag>
0

> <version>
0

> <s_m_source_file>
/data/baiqing/PycharmProjects/Reinvent-master-3.2/result/LINK_invent/BTK/process_docking_weight1_custom_product_contain_oxygen_bond_distance_aromatic_linkinvent_7_9_3/rearranged_h_0046.sdf

> <i_m_source_file_index>
33

> <r_mmod_Potential_Energy-OPLS-2005>
225.621215820312

> <r_mmod_Stretch_Energy-OPLS-2005>
134.255874633789

> <r_mmod_Bend_Energy-OPLS-2005>
164.042922973633

> <r_mmod_Torsional_Energy-OPLS-2005>
259.438110351562

> <r_mmod_Improper_Torsional_Energy-OPLS-2005>
7.33725738525391

> <r_mmod_Van_der_Waal_Energy-OPLS-2005>
143.650787353516

> <r_mmod_Electrostatic_Energy-OPLS-2005>
-336.653656005859

> <r_mmod_Solvation_Energy-OPLS-2005>
-230.80078125

> <b_mmod_Minimization_Converged-OPLS-2005>
0

> <r_mmod_RMS_Derivative-OPLS-2005>
4.12359094619751

$$$$
33
                    3D
 Structure written by MMmdl.
168177  0  0  1  0            999 V2000
  -30.6546  -14.7176   20.4594 C   0  0  0  0  0  0
  -30.4164  -12.4338   19.4781 C   0  0  0  0  0  0
  -29.5066  -12.5028   18.2348 C   0  0  0  0  0  0
  -28.0311  -12.3386   18.6457 C   0  0  0  0  0  0
  -27.6404  -13.2378   19.8502 C   0  0  2  0  0  0
  -28.6856  -13.1824   20.9861 C   0  0  0  0  0  0
  -25.2502  -13.8212   20.5719 C   0  0  0  0  0  0
  -24.1799  -13.0444   20.9219 C   0  0  0  0  0  0
  -24.6395  -11.6929   20.8751 C   0  0  0  0  0  0
  -23.9070  -10.4303   21.0402 C   0  0  0  0  0  0
  -24.3620   -9.4218   21.9181 C   0  0  0  0  0  0
  -23.6301   -8.2249   22.0757 C   0  0  0  0  0  0
  -22.4284   -8.0283   21.3550 C   0  0  0  0  0  0
  -21.9908   -9.0249   20.4644 C   0  0  0  0  0  0
  -22.7236  -10.2128   20.3053 C   0  0  0  0  0  0
  -21.6853   -6.0732   22.5278 C   0  0  0  0  0  0
  -21.4009   -6.5641   23.8212 C   0  0  0  0  0  0
  -21.3660   -5.6792   24.9176 C   0  0  0  0  0  0
  -21.6051   -4.3053   24.7224 C   0  0  0  0  0  0
  -21.8818   -3.8147   23.4344 C   0  0  0  0  0  0
  -21.9190   -4.6961   22.3399 C   0  0  0  0  0  0
  -22.7818  -13.5221   21.1863 C   0  0  0  0  0  0
  -22.1666   -4.2150   21.0976 F   0  0  0  0  0  0
  -21.5624   -3.4536   25.7737 F   0  0  0  0  0  0
  -29.9880  -13.5141   20.3986 N   0  0  0  0  0  0
  -26.2933  -12.9434   20.3291 N   0  0  0  0  0  0
  -25.9328  -11.6567   20.5763 N   0  0  0  0  0  0
  -22.0460  -12.8217   22.0412 N   0  0  0  0  0  0
  -25.4154  -15.1943   20.4155 N   0  0  0  0  0  0
  -31.8420  -14.7387   20.1306 O   0  0  0  0  0  0
  -21.6647   -6.8879   21.4248 O   0  0  0  0  0  0
  -22.3514  -14.5531   20.6711 O   0  0  0  0  0  0
  -24.6313  -31.8552   23.1985 C   0  0  0  0  0  0
  -25.9152  -32.4746   23.8314 C   0  0  1  0  0  0
  -27.2154  -27.2687   20.1179 C   0  0  0  0  0  0
  -25.5978  -33.8548   24.2253 N   0  0  0  0  0  0
  -23.4246  -30.4811   21.5420 C   0  0  2  0  0  0
  -24.8677  -28.9276   20.1097 C   0  0  0  0  0  0
  -22.7493  -29.4610   22.4904 C   0  0  0  0  0  0
  -18.0291  -28.1377   22.8482 C   0  0  0  0  0  0
  -24.1492  -36.7259   23.2636 C   0  0  0  0  0  0
  -25.9694  -30.7719   21.3746 C   0  0  0  0  0  0
  -26.0389  -29.3955   20.7158 C   0  0  0  0  0  0
  -27.2109  -28.5772   20.7110 C   0  0  0  0  0  0
  -26.0141  -26.8618   19.4938 C   0  0  0  0  0  0
  -24.8600  -27.6693   19.4913 C   0  0  0  0  0  0
  -23.6411  -29.8168   20.1569 C   0  0  0  0  0  0
  -25.4123  -36.3049   24.0320 C   0  0  1  0  0  0
  -20.5896  -28.3679   23.1267 C   0  0  2  0  0  0
  -20.6781  -26.9396   22.5410 C   0  0  0  0  0  0
  -19.5754  -26.6373   21.5214 C   0  0  0  0  0  0
  -18.1933  -26.7920   22.1618 C   0  0  0  0  0  0
  -19.1547  -28.8853   23.2864 C   0  0  0  0  0  0
  -18.9468  -30.1463   23.8867 C   0  0  0  0  0  0
  -17.6466  -30.6581   24.0565 C   0  0  0  0  0  0
  -25.9066  -34.9429   23.5077 C   0  0  0  0  0  0
  -16.5360  -29.9081   23.6338 C   0  0  0  0  0  0
  -16.7279  -28.6500   23.0346 C   0  0  0  0  0  0
  -26.4539  -31.6561   25.0695 C   0  0  0  0  0  0
  -25.3764  -31.3729   26.1420 C   0  0  0  0  0  0
  -27.0385  -30.2976   24.6167 C   0  0  0  0  0  0
  -27.6091  -32.4297   25.7471 C   0  0  0  0  0  0
  -27.5572  -37.1792   24.8464 C   0  0  0  0  0  0
  -21.4201  -29.3030   22.3651 N   0  0  0  0  0  0
  -26.4285  -37.3764   23.9411 N   0  0  0  0  0  0
  -24.6943  -31.0541   22.0947 N   0  0  0  0  0  0
  -23.4208  -28.8143   23.2987 O   0  0  0  0  0  0
  -28.3453  -26.4230   20.1934 O   0  0  0  0  0  0
  -26.5607  -34.8918   22.4630 O   0  0  0  0  0  0
  -23.5477  -32.1356   23.7316 O   0  0  0  0  0  0
  -32.2123  -18.9698   20.6566 C   0  0  0  0  0  0
  -31.7497  -17.6461   20.6050 C   0  0  0  0  0  0
  -29.4803  -18.4834   20.7090 C   0  0  0  0  0  0
  -31.3406  -20.0679   20.7740 C   0  0  0  0  0  0
  -29.9297  -19.8758   20.7654 C   0  0  0  0  0  0
  -30.3724  -17.3277   20.6472 C   0  0  0  0  0  0
  -28.3636  -23.8123   20.7465 C   0  0  0  0  0  0
  -27.3815  -23.6101   24.3411 C   0  0  0  0  0  0
  -27.9419  -24.0751   22.0075 C   0  0  0  0  0  0
  -27.6165  -23.1693   23.0951 C   0  0  0  0  0  0
  -30.4215  -23.6322   18.8015 C   0  0  0  0  0  0
  -29.6444  -24.9548   18.7653 C   0  0  0  0  0  0
  -29.5077  -22.3972   18.9028 C   0  0  0  0  0  0
  -28.4139  -25.0046   19.6920 C   0  0  2  0  0  0
  -32.0063  -21.4216   20.9746 C   0  0  0  0  0  0
  -28.9717  -21.1270   21.0698 C   0  0  0  0  0  0
  -29.9390  -15.8955   20.6681 N   0  0  0  0  0  0
  -28.7187  -22.3646   20.1634 N   0  3  2  0  0  0
  -31.4637  -12.5186   19.1830 H   0  0  0  0  0  0
  -30.3282  -11.4606   19.9637 H   0  0  0  0  0  0
  -29.7863  -11.7296   17.5183 H   0  0  0  0  0  0
  -29.6463  -13.4567   17.7239 H   0  0  0  0  0  0
  -27.8799  -11.2895   18.9033 H   0  0  0  0  0  0
  -27.3767  -12.5385   17.7962 H   0  0  0  0  0  0
  -27.6315  -14.2593   19.4683 H   0  0  0  0  0  0
  -28.7145  -12.1926   21.4432 H   0  0  0  0  0  0
  -28.4281  -13.8824   21.7821 H   0  0  0  0  0  0
  -25.2759   -9.5698   22.4754 H   0  0  0  0  0  0
  -24.0011   -7.4637   22.7476 H   0  0  0  0  0  0
  -21.0836   -8.8752   19.8947 H   0  0  0  0  0  0
  -22.3687  -10.9659   19.6159 H   0  0  0  0  0  0
  -21.2008   -7.6148   23.9716 H   0  0  0  0  0  0
  -21.1484   -6.0523   25.9079 H   0  0  0  0  0  0
  -22.0598   -2.7609   23.2839 H   0  0  0  0  0  0
  -22.4071  -11.9879   22.4802 H   0  0  0  0  0  0
  -21.1069  -13.1235   22.2605 H   0  0  0  0  0  0
  -24.6397  -15.8390   20.5210 H   0  0  0  0  0  0
  -26.2544  -15.6384   20.0660 H   0  0  0  0  0  0
  -26.7215  -32.5400   23.1052 H   0  0  0  0  0  0
  -25.0243  -33.9682   25.0477 H   0  0  0  0  0  0
  -22.7203  -31.3031   21.3987 H   0  0  0  0  0  0
  -23.3761  -35.9585   23.3304 H   0  0  0  0  0  0
  -24.3587  -36.8871   22.2050 H   0  0  0  0  0  0
  -23.7238  -37.6463   23.6653 H   0  0  0  0  0  0
  -26.1067  -31.5334   20.6060 H   0  0  0  0  0  0
  -26.8489  -30.8180   22.0051 H   0  0  0  0  0  0
  -28.1084  -28.9330   21.1975 H   0  0  0  0  0  0
  -25.9072  -25.9031   19.0158 H   0  0  0  0  0  0
  -23.9580  -27.3037   19.0201 H   0  0  0  0  0  0
  -23.7692  -30.5935   19.4021 H   0  0  0  0  0  0
  -22.7576  -29.2554   19.8487 H   0  0  0  0  0  0
  -25.1312  -36.1889   25.0813 H   0  0  0  0  0  0
  -20.9992  -28.3253   24.1384 H   0  0  0  0  0  0
  -20.5681  -26.2285   23.3609 H   0  0  0  0  0  0
  -21.6645  -26.7417   22.1200 H   0  0  0  0  0  0
  -19.6910  -25.6282   21.1239 H   0  0  0  0  0  0
  -19.6698  -27.3189   20.6747 H   0  0  0  0  0  0
  -17.4207  -26.6674   21.4016 H   0  0  0  0  0  0
  -18.0320  -26.0062   22.9007 H   0  0  0  0  0  0
  -19.7953  -30.7297   24.2187 H   0  0  0  0  0  0
  -17.5029  -31.6255   24.5171 H   0  0  0  0  0  0
  -15.5361  -30.2982   23.7678 H   0  0  0  0  0  0
  -15.8670  -28.0835   22.7045 H   0  0  0  0  0  0
  -24.5966  -30.7034   25.7781 H   0  0  0  0  0  0
  -24.8937  -32.2909   26.4781 H   0  0  0  0  0  0
  -25.8104  -30.8980   27.0224 H   0  0  0  0  0  0
  -26.2963  -29.6713   24.1206 H   0  0  0  0  0  0
  -27.4098  -29.7253   25.4679 H   0  0  0  0  0  0
  -27.8831  -30.4266   23.9389 H   0  0  0  0  0  0
  -27.2707  -33.3629   26.1985 H   0  0  0  0  0  0
  -28.3948  -32.6784   25.0319 H   0  0  0  0  0  0
  -28.0696  -31.8438   26.5437 H   0  0  0  0  0  0
  -28.2585  -38.0094   24.7522 H   0  0  0  0  0  0
  -28.1065  -36.2625   24.6274 H   0  0  0  0  0  0
  -27.2282  -37.1417   25.8863 H   0  0  0  0  0  0
  -20.9363  -29.8767   21.6880 H   0  0  0  0  0  0
  -26.0145  -38.2824   24.1447 H   0  0  0  0  0  0
  -33.2812  -19.1355   20.6592 H   0  0  0  0  0  0
  -32.5175  -16.8914   20.5715 H   0  0  0  0  0  0
  -28.4167  -18.2950   20.7694 H   0  0  0  0  0  0
  -27.1195  -22.9232   25.1335 H   0  0  0  0  0  0
  -27.4424  -24.6590   24.5962 H   0  0  0  0  0  0
  -27.7266  -25.1160   22.2083 H   0  0  0  0  0  0
  -27.5124  -22.1092   22.9392 H   0  0  0  0  0  0
  -31.1175  -23.6596   19.6374 H   0  0  0  0  0  0
  -31.0373  -23.5571   17.9047 H   0  0  0  0  0  0
  -29.3182  -25.1628   17.7446 H   0  0  0  0  0  0
  -30.3365  -25.7607   19.0151 H   0  0  0  0  0  0
  -30.0898  -21.4899   18.7533 H   0  0  0  0  0  0
  -28.7969  -22.4145   18.0761 H   0  0  0  0  0  0
  -27.5778  -24.7878   19.0364 H   0  0  0  0  0  0
  -32.8691  -21.3162   21.6334 H   0  0  0  0  0  0
  -31.3657  -22.1709   21.4332 H   0  0  0  0  0  0
  -32.3787  -21.8021   20.0237 H   0  0  0  0  0  0
  -29.3424  -21.4992   22.0221 H   0  0  0  0  0  0
  -27.9884  -20.7091   21.2840 H   0  0  0  0  0  0
  -28.9546  -15.7469   20.8335 H   0  0  0  0  0  0
  -27.8413  -22.0511   19.7778 H   0  0  0  0  0  0
  1 25  1  0  0  0
  1 30  2  0  0  0
  1 87  1  0  0  0
  2  3  1  0  0  0
  2 25  1  0  0  0
  2 89  1  0  0  0
  2 90  1  0  0  0
  3  4  1  0  0  0
  3 91  1  0  0  0
  3 92  1  0  0  0
  4  5  1  0  0  0
  4 93  1  0  0  0
  4 94  1  0  0  0
  5  6  1  0  0  0
  5 26  1  0  0  0
  5 95  1  0  0  0
  6 25  1  0  0  0
  6 96  1  0  0  0
  6 97  1  0  0  0
  7  8  2  0  0  0
  7 26  1  0  0  0
  7 29  1  0  0  0
  8  9  1  0  0  0
  8 22  1  0  0  0
  9 10  1  0  0  0
  9 27  2  0  0  0
 10 11  2  0  0  0
 10 15  1  0  0  0
 11 12  1  0  0  0
 11 98  1  0  0  0
 12 13  2  0  0  0
 12 99  1  0  0  0
 13 14  1  0  0  0
 13 31  1  0  0  0
 14 15  2  0  0  0
 14100  1  0  0  0
 15101  1  0  0  0
 16 17  2  0  0  0
 16 21  1  0  0  0
 16 31  1  0  0  0
 17 18  1  0  0  0
 17102  1  0  0  0
 18 19  2  0  0  0
 18103  1  0  0  0
 19 20  1  0  0  0
 19 24  1  0  0  0
 20 21  2  0  0  0
 20104  1  0  0  0
 21 23  1  0  0  0
 22 28  1  0  0  0
 22 32  2  0  0  0
 26 27  1  0  0  0
 28105  1  0  0  0
 28106  1  0  0  0
 29107  1  0  0  0
 29108  1  0  0  0
 33 34  1  0  0  0
 33 66  1  0  0  0
 33 70  2  0  0  0
 34 36  1  0  0  0
 34 59  1  0  0  0
 34109  1  0  0  0
 35 44  2  0  0  0
 35 45  1  0  0  0
 35 68  1  0  0  0
 36 56  1  0  0  0
 36110  1  0  0  0
 37 39  1  0  0  0
 37 47  1  0  0  0
 37 66  1  0  0  0
 37111  1  0  0  0
 38 43  2  0  0  0
 38 46  1  0  0  0
 38 47  1  0  0  0
 39 64  1  0  0  0
 39 67  2  0  0  0
 40 52  1  0  0  0
 40 53  2  0  0  0
 40 58  1  0  0  0
 41112  1  0  0  0
 41113  1  0  0  0
 41114  1  0  0  0
 41 48  1  0  0  0
 42 43  1  0  0  0
 42 66  1  0  0  0
 42115  1  0  0  0
 42116  1  0  0  0
 43 44  1  0  0  0
 44117  1  0  0  0
 45 46  2  0  0  0
 45118  1  0  0  0
 46119  1  0  0  0
 47120  1  0  0  0
 47121  1  0  0  0
 48 56  1  0  0  0
 48 65  1  0  0  0
 48122  1  0  0  0
 49 50  1  0  0  0
 49 53  1  0  0  0
 49 64  1  0  0  0
 49123  1  0  0  0
 50 51  1  0  0  0
 50124  1  0  0  0
 50125  1  0  0  0
 51 52  1  0  0  0
 51126  1  0  0  0
 51127  1  0  0  0
 52128  1  0  0  0
 52129  1  0  0  0
 53 54  1  0  0  0
 54 55  2  0  0  0
 54130  1  0  0  0
 55 57  1  0  0  0
 55131  1  0  0  0
 56 69  2  0  0  0
 57 58  2  0  0  0
 57132  1  0  0  0
 58133  1  0  0  0
 59 60  1  0  0  0
 59 61  1  0  0  0
 59 62  1  0  0  0
 60134  1  0  0  0
 60135  1  0  0  0
 60136  1  0  0  0
 61137  1  0  0  0
 61138  1  0  0  0
 61139  1  0  0  0
 62140  1  0  0  0
 62141  1  0  0  0
 62142  1  0  0  0
 63 65  1  0  0  0
 63143  1  0  0  0
 63144  1  0  0  0
 63145  1  0  0  0
 64146  1  0  0  0
 65147  1  0  0  0
 68 84  1  0  0  0
 71 72  2  0  0  0
 71 74  1  0  0  0
 71148  1  0  0  0
 72 76  1  0  0  0
 72149  1  0  0  0
 73 75  1  0  0  0
 73 76  2  0  0  0
 73150  1  0  0  0
 74 75  2  0  0  0
 74 85  1  0  0  0
 75 86  1  0  0  0
 76 87  1  0  0  0
 77 79  2  0  0  0
 77 84  1  0  0  0
 77 88  1  0  0  0
 78 80  2  0  0  0
 78151  1  0  0  0
 78152  1  0  0  0
 79 80  1  0  0  0
 79153  1  0  0  0
 80154  1  0  0  0
 81 82  1  0  0  0
 81 83  1  0  0  0
 81155  1  0  0  0
 81156  1  0  0  0
 82 84  1  0  0  0
 82157  1  0  0  0
 82158  1  0  0  0
 83 88  1  0  0  0
 83159  1  0  0  0
 83160  1  0  0  0
 84161  1  0  0  0
 85162  1  0  0  0
 85163  1  0  0  0
 85164  1  0  0  0
 86165  1  0  0  0
 86166  1  0  0  0
 86 88  1  0  0  0
 87167  1  0  0  0
 88168  1  0  0  0
M  CHG  1  88   1
M  ISO  4   1 100  68 101  84 101  87 100
M  END
> <chiral flag>
0

> <version>
0

> <s_m_source_file>
/data/baiqing/PycharmProjects/Reinvent-master-3.2/result/LINK_invent/BTK/process_docking_weight1_custom_product_contain_oxygen_bond_distance_aromatic_linkinvent_7_9_3/rearranged_h_0046.sdf

> <i_m_source_file_index>
34

> <r_mmod_Potential_Energy-OPLS-2005>
140.198104858398

> <r_mmod_Stretch_Energy-OPLS-2005>
144.024856567383

> <r_mmod_Bend_Energy-OPLS-2005>
226.495788574219

> <r_mmod_Torsional_Energy-OPLS-2005>
239.351669311523

> <r_mmod_Improper_Torsional_Energy-OPLS-2005>
6.74901628494263

> <r_mmod_Van_der_Waal_Energy-OPLS-2005>
161.461227416992

> <r_mmod_Electrostatic_Energy-OPLS-2005>
-274.232452392578

> <r_mmod_Solvation_Energy-OPLS-2005>
-438.524658203125

> <b_mmod_Minimization_Converged-OPLS-2005>
0

> <r_mmod_RMS_Derivative-OPLS-2005>
2.05039095878601

$$$$
34
                    3D
 Structure written by MMmdl.
164172  0  0  1  0            999 V2000
  -30.6733  -14.4868   20.5294 C   0  0  0  0  0  0
  -30.4239  -12.2896   19.4495 C   0  0  0  0  0  0
  -29.5197  -12.4769   18.2118 C   0  0  0  0  0  0
  -28.0263  -12.3579   18.5998 C   0  0  0  0  0  0
  -27.6548  -13.1975   19.8553 C   0  0  2  0  0  0
  -28.6886  -12.9672   20.9787 C   0  0  0  0  0  0
  -25.2543  -13.8122   20.5572 C   0  0  0  0  0  0
  -24.1814  -13.0432   20.9170 C   0  0  0  0  0  0
  -24.6356  -11.6888   20.8720 C   0  0  0  0  0  0
  -23.9016  -10.4290   21.0431 C   0  0  0  0  0  0
  -24.3576   -9.4228   21.9219 C   0  0  0  0  0  0
  -23.6266   -8.2241   22.0772 C   0  0  0  0  0  0
  -22.4276   -8.0275   21.3554 C   0  0  0  0  0  0
  -21.9890   -9.0215   20.4651 C   0  0  0  0  0  0
  -22.7196  -10.2114   20.3051 C   0  0  0  0  0  0
  -21.6841   -6.0739   22.5282 C   0  0  0  0  0  0
  -21.4016   -6.5634   23.8233 C   0  0  0  0  0  0
  -21.3655   -5.6789   24.9178 C   0  0  0  0  0  0
  -21.6050   -4.3041   24.7226 C   0  0  0  0  0  0
  -21.8813   -3.8148   23.4349 C   0  0  0  0  0  0
  -21.9176   -4.6956   22.3419 C   0  0  0  0  0  0
  -22.7850  -13.5237   21.1858 C   0  0  0  0  0  0
  -22.1643   -4.2171   21.0996 F   0  0  0  0  0  0
  -21.5633   -3.4521   25.7722 F   0  0  0  0  0  0
  -30.0141  -13.2963   20.4359 N   0  0  0  0  0  0
  -26.2960  -12.9277   20.3174 N   0  0  0  0  0  0
  -25.9259  -11.6452   20.5657 N   0  0  0  0  0  0
  -22.0437  -12.8202   22.0344 N   0  0  0  0  0  0
  -25.4238  -15.1826   20.3924 N   0  0  0  0  0  0
  -31.8645  -14.5904   20.2165 O   0  0  0  0  0  0
  -21.6640   -6.8867   21.4262 O   0  0  0  0  0  0
  -22.3593  -14.5609   20.6797 O   0  0  0  0  0  0
  -24.6165  -31.8684   23.2160 C   0  0  0  0  0  0
  -25.9082  -32.4830   23.8411 C   0  0  1  0  0  0
  -27.2364  -27.4593   20.0936 C   0  0  0  0  0  0
  -25.5978  -33.8628   24.2324 N   0  0  0  0  0  0
  -23.4026  -30.4968   21.5494 C   0  0  2  0  0  0
  -24.8507  -28.9591   20.1164 C   0  0  0  0  0  0
  -22.7416  -29.4696   22.4979 C   0  0  0  0  0  0
  -18.0273  -28.1449   22.8539 C   0  0  0  0  0  0
  -24.1430  -36.7234   23.2646 C   0  0  0  0  0  0
  -25.9292  -30.8400   21.3627 C   0  0  0  0  0  0
  -26.0066  -29.4717   20.7200 C   0  0  0  0  0  0
  -27.2033  -28.7241   20.7179 C   0  0  0  0  0  0
  -26.0701  -26.9568   19.4783 C   0  0  0  0  0  0
  -24.8739  -27.6995   19.4933 C   0  0  0  0  0  0
  -23.6169  -29.8314   20.1606 C   0  0  0  0  0  0
  -25.4067  -36.3079   24.0344 C   0  0  1  0  0  0
  -20.5877  -28.3700   23.1359 C   0  0  2  0  0  0
  -20.6763  -26.9436   22.5439 C   0  0  0  0  0  0
  -19.5713  -26.6469   21.5251 C   0  0  0  0  0  0
  -18.1900  -26.8021   22.1641 C   0  0  0  0  0  0
  -19.1533  -28.8875   23.2977 C   0  0  0  0  0  0
  -18.9456  -30.1490   23.8943 C   0  0  0  0  0  0
  -17.6475  -30.6645   24.0581 C   0  0  0  0  0  0
  -25.9032  -34.9477   23.5099 C   0  0  0  0  0  0
  -16.5367  -29.9152   23.6372 C   0  0  0  0  0  0
  -16.7269  -28.6592   23.0356 C   0  0  0  0  0  0
  -26.4543  -31.6640   25.0748 C   0  0  0  0  0  0
  -25.3820  -31.3710   26.1482 C   0  0  0  0  0  0
  -27.0487  -30.3151   24.6084 C   0  0  0  0  0  0
  -27.5990  -32.4462   25.7615 C   0  0  0  0  0  0
  -27.5532  -37.1809   24.8478 C   0  0  0  0  0  0
  -21.4138  -29.3095   22.3782 N   0  0  0  0  0  0
  -26.4209  -37.3811   23.9461 N   0  0  0  0  0  0
  -24.6670  -31.0845   22.1017 N   0  0  0  0  0  0
  -23.4176  -28.8210   23.3002 O   0  0  0  0  0  0
  -28.3888  -26.7130   20.0559 O   0  0  0  0  0  0
  -26.5545  -34.8932   22.4626 O   0  0  0  0  0  0
  -23.5371  -32.1435   23.7592 O   0  0  0  0  0  0
  -29.6842  -20.2184   22.5707 C   0  0  0  0  0  0
  -30.4915  -19.2533   23.2036 C   0  0  0  0  0  0
  -28.3896  -18.4448   21.5373 C   0  0  0  0  0  0
  -28.6245  -19.8208   21.7262 C   0  0  0  0  0  0
  -30.2943  -17.8785   22.9580 C   0  0  0  0  0  0
  -29.2580  -17.4710   22.0811 C   0  0  0  0  0  0
  -30.5179  -16.2826   18.1717 C   0  0  0  0  0  0
  -29.9389  -16.4831   19.3756 C   0  0  0  0  0  0
  -28.5439  -24.4918   20.4467 C   0  0  0  0  0  0
  -28.2867  -23.2350   21.2760 C   0  0  0  0  0  0
  -31.2125  -16.8825   23.6541 C   0  0  0  0  0  0
  -29.0323  -24.3299   18.9949 C   0  0  0  0  0  0
  -27.7218  -20.8231   20.9999 C   0  0  0  0  0  0
  -29.0761  -16.0124   21.6522 C   0  0  0  0  0  0
  -28.2820  -25.6370   20.9570 N   0  0  0  0  0  0
  -28.3409  -22.0840   20.5863 N   0  0  0  0  0  0
  -29.8728  -15.5898   20.4758 N   0  0  0  0  0  0
  -27.9692  -23.2870   22.4703 O   0  0  0  0  0  0
  -31.4807  -12.3630   19.1811 H   0  0  0  0  0  0
  -30.3012  -11.2899   19.8656 H   0  0  0  0  0  0
  -29.7726  -11.7351   17.4535 H   0  0  0  0  0  0
  -29.7101  -13.4492   17.7599 H   0  0  0  0  0  0
  -27.8132  -11.3055   18.7899 H   0  0  0  0  0  0
  -27.3999  -12.6492   17.7566 H   0  0  0  0  0  0
  -27.6924  -14.2431   19.5510 H   0  0  0  0  0  0
  -28.6763  -11.9238   21.2882 H   0  0  0  0  0  0
  -28.4259  -13.5142   21.8801 H   0  0  0  0  0  0
  -25.2740   -9.5721   22.4769 H   0  0  0  0  0  0
  -23.9984   -7.4663   22.7502 H   0  0  0  0  0  0
  -21.0826   -8.8750   19.8957 H   0  0  0  0  0  0
  -22.3700  -10.9633   19.6120 H   0  0  0  0  0  0
  -21.2024   -7.6135   23.9737 H   0  0  0  0  0  0
  -21.1472   -6.0513   25.9101 H   0  0  0  0  0  0
  -22.0586   -2.7605   23.2844 H   0  0  0  0  0  0
  -22.3920  -11.9742   22.4622 H   0  0  0  0  0  0
  -21.1075  -13.1304   22.2520 H   0  0  0  0  0  0
  -24.6498  -15.8303   20.5002 H   0  0  0  0  0  0
  -26.2444  -15.6157   19.9895 H   0  0  0  0  0  0
  -26.7182  -32.5542   23.1202 H   0  0  0  0  0  0
  -25.0343  -33.9786   25.0619 H   0  0  0  0  0  0
  -22.6970  -31.3202   21.4149 H   0  0  0  0  0  0
  -23.3725  -35.9524   23.3286 H   0  0  0  0  0  0
  -24.3541  -36.8869   22.2070 H   0  0  0  0  0  0
  -23.7127  -37.6404   23.6665 H   0  0  0  0  0  0
  -26.0326  -31.5988   20.5839 H   0  0  0  0  0  0
  -26.8212  -30.9047   21.9718 H   0  0  0  0  0  0
  -28.0912  -29.1140   21.1918 H   0  0  0  0  0  0
  -26.0897  -25.9979   18.9827 H   0  0  0  0  0  0
  -23.9878  -27.3047   19.0177 H   0  0  0  0  0  0
  -23.7479  -30.6104   19.4076 H   0  0  0  0  0  0
  -22.7351  -29.2684   19.8475 H   0  0  0  0  0  0
  -25.1243  -36.1887   25.0838 H   0  0  0  0  0  0
  -21.0015  -28.3199   24.1457 H   0  0  0  0  0  0
  -20.5730  -26.2263   23.3595 H   0  0  0  0  0  0
  -21.6599  -26.7544   22.1156 H   0  0  0  0  0  0
  -19.6828  -25.6392   21.1234 H   0  0  0  0  0  0
  -19.6631  -27.3307   20.6801 H   0  0  0  0  0  0
  -17.4205  -26.6868   21.4008 H   0  0  0  0  0  0
  -18.0201  -26.0145   22.8994 H   0  0  0  0  0  0
  -19.7938  -30.7332   24.2258 H   0  0  0  0  0  0
  -17.5051  -31.6296   24.5207 H   0  0  0  0  0  0
  -15.5369  -30.3059   23.7727 H   0  0  0  0  0  0
  -15.8674  -28.0973   22.6971 H   0  0  0  0  0  0
  -24.5981  -30.7090   25.7843 H   0  0  0  0  0  0
  -24.9037  -32.2868   26.4960 H   0  0  0  0  0  0
  -25.8211  -30.8884   27.0223 H   0  0  0  0  0  0
  -26.3110  -29.6895   24.1070 H   0  0  0  0  0  0
  -27.4340  -29.7390   25.4512 H   0  0  0  0  0  0
  -27.8855  -30.4635   23.9244 H   0  0  0  0  0  0
  -27.2476  -33.3794   26.2028 H   0  0  0  0  0  0
  -28.3919  -32.7004   25.0582 H   0  0  0  0  0  0
  -28.0497  -31.8728   26.5716 H   0  0  0  0  0  0
  -28.2480  -38.0177   24.7599 H   0  0  0  0  0  0
  -28.1082  -36.2706   24.6165 H   0  0  0  0  0  0
  -27.2281  -37.1298   25.8888 H   0  0  0  0  0  0
  -20.9254  -29.8888   21.7081 H   0  0  0  0  0  0
  -26.0030  -38.2846   24.1524 H   0  0  0  0  0  0
  -29.8909  -21.2624   22.7543 H   0  0  0  0  0  0
  -31.2819  -19.5750   23.8690 H   0  0  0  0  0  0
  -27.5676  -18.1365   20.9010 H   0  0  0  0  0  0
  -30.4748  -17.0591   17.4208 H   0  0  0  0  0  0
  -31.0348  -15.3674   17.9054 H   0  0  0  0  0  0
  -29.4472  -17.4311   19.5304 H   0  0  0  0  0  0
  -31.7253  -17.3476   24.4964 H   0  0  0  0  0  0
  -31.9737  -16.5078   22.9725 H   0  0  0  0  0  0
  -30.6586  -16.0394   24.0612 H   0  0  0  0  0  0
  -29.6254  -23.4295   18.8422 H   0  0  0  0  0  0
  -29.6771  -25.1553   18.6949 H   0  0  0  0  0  0
  -28.1788  -24.3030   18.3168 H   0  0  0  0  0  0
  -26.8230  -21.0104   21.5964 H   0  0  0  0  0  0
  -27.3577  -20.3541   20.0823 H   0  0  0  0  0  0
  -28.0234  -15.8607   21.4091 H   0  0  0  0  0  0
  -29.2727  -15.3762   22.5161 H   0  0  0  0  0  0
  -28.6335  -22.1503   19.6199 H   0  0  0  0  0  0
  1 25  1  0  0  0
  1 30  2  0  0  0
  1 87  1  0  0  0
  2  3  1  0  0  0
  2 25  1  0  0  0
  2 89  1  0  0  0
  2 90  1  0  0  0
  3  4  1  0  0  0
  3 91  1  0  0  0
  3 92  1  0  0  0
  4  5  1  0  0  0
  4 93  1  0  0  0
  4 94  1  0  0  0
  5  6  1  0  0  0
  5 26  1  0  0  0
  5 95  1  0  0  0
  6 25  1  0  0  0
  6 96  1  0  0  0
  6 97  1  0  0  0
  7  8  2  0  0  0
  7 26  1  0  0  0
  7 29  1  0  0  0
  8  9  1  0  0  0
  8 22  1  0  0  0
  9 10  1  0  0  0
  9 27  2  0  0  0
 10 11  2  0  0  0
 10 15  1  0  0  0
 11 12  1  0  0  0
 11 98  1  0  0  0
 12 13  2  0  0  0
 12 99  1  0  0  0
 13 14  1  0  0  0
 13 31  1  0  0  0
 14 15  2  0  0  0
 14100  1  0  0  0
 15101  1  0  0  0
 16 17  2  0  0  0
 16 21  1  0  0  0
 16 31  1  0  0  0
 17 18  1  0  0  0
 17102  1  0  0  0
 18 19  2  0  0  0
 18103  1  0  0  0
 19 20  1  0  0  0
 19 24  1  0  0  0
 20 21  2  0  0  0
 20104  1  0  0  0
 21 23  1  0  0  0
 22 28  1  0  0  0
 22 32  2  0  0  0
 26 27  1  0  0  0
 28105  1  0  0  0
 28106  1  0  0  0
 29107  1  0  0  0
 29108  1  0  0  0
 33 34  1  0  0  0
 33 66  1  0  0  0
 33 70  2  0  0  0
 34 36  1  0  0  0
 34 59  1  0  0  0
 34109  1  0  0  0
 35 44  2  0  0  0
 35 45  1  0  0  0
 35 68  1  0  0  0
 36 56  1  0  0  0
 36110  1  0  0  0
 37 39  1  0  0  0
 37 47  1  0  0  0
 37 66  1  0  0  0
 37111  1  0  0  0
 38 43  2  0  0  0
 38 46  1  0  0  0
 38 47  1  0  0  0
 39 64  1  0  0  0
 39 67  2  0  0  0
 40 52  1  0  0  0
 40 53  2  0  0  0
 40 58  1  0  0  0
 41112  1  0  0  0
 41113  1  0  0  0
 41114  1  0  0  0
 41 48  1  0  0  0
 42 43  1  0  0  0
 42 66  1  0  0  0
 42115  1  0  0  0
 42116  1  0  0  0
 43 44  1  0  0  0
 44117  1  0  0  0
 45 46  2  0  0  0
 45118  1  0  0  0
 46119  1  0  0  0
 47120  1  0  0  0
 47121  1  0  0  0
 48 56  1  0  0  0
 48 65  1  0  0  0
 48122  1  0  0  0
 49 50  1  0  0  0
 49 53  1  0  0  0
 49 64  1  0  0  0
 49123  1  0  0  0
 50 51  1  0  0  0
 50124  1  0  0  0
 50125  1  0  0  0
 51 52  1  0  0  0
 51126  1  0  0  0
 51127  1  0  0  0
 52128  1  0  0  0
 52129  1  0  0  0
 53 54  1  0  0  0
 54 55  2  0  0  0
 54130  1  0  0  0
 55 57  1  0  0  0
 55131  1  0  0  0
 56 69  2  0  0  0
 57 58  2  0  0  0
 57132  1  0  0  0
 58133  1  0  0  0
 59 60  1  0  0  0
 59 61  1  0  0  0
 59 62  1  0  0  0
 60134  1  0  0  0
 60135  1  0  0  0
 60136  1  0  0  0
 61137  1  0  0  0
 61138  1  0  0  0
 61139  1  0  0  0
 62140  1  0  0  0
 62141  1  0  0  0
 62142  1  0  0  0
 63 65  1  0  0  0
 63143  1  0  0  0
 63144  1  0  0  0
 63145  1  0  0  0
 64146  1  0  0  0
 65147  1  0  0  0
 68 85  1  0  0  0
 71 72  2  0  0  0
 71 74  1  0  0  0
 71148  1  0  0  0
 72 75  1  0  0  0
 72149  1  0  0  0
 73 74  2  0  0  0
 73 76  1  0  0  0
 73150  1  0  0  0
 74 83  1  0  0  0
 75 76  2  0  0  0
 75 81  1  0  0  0
 76 84  1  0  0  0
 77 78  2  0  0  0
 77151  1  0  0  0
 77152  1  0  0  0
 78 87  1  0  0  0
 78153  1  0  0  0
 79 80  1  0  0  0
 79 82  1  0  0  0
 79 85  2  0  0  0
 80 86  1  0  0  0
 80 88  2  0  0  0
 81154  1  0  0  0
 81155  1  0  0  0
 81156  1  0  0  0
 82157  1  0  0  0
 82158  1  0  0  0
 82159  1  0  0  0
 83 86  1  0  0  0
 83160  1  0  0  0
 83161  1  0  0  0
 84 87  1  0  0  0
 84162  1  0  0  0
 84163  1  0  0  0
 86164  1  0  0  0
M  ISO  4   1 100  68 101  85 101  87 100
M  END
> <chiral flag>
0

> <version>
0

> <s_m_source_file>
/data/baiqing/PycharmProjects/Reinvent-master-3.2/result/LINK_invent/BTK/process_docking_weight1_custom_product_contain_oxygen_bond_distance_aromatic_linkinvent_7_9_3/rearranged_h_0046.sdf

> <i_m_source_file_index>
35

> <r_mmod_Potential_Energy-OPLS-2005>
72.1001510620117

> <r_mmod_Stretch_Energy-OPLS-2005>
43.0633659362793

> <r_mmod_Bend_Energy-OPLS-2005>
107.301574707031

> <r_mmod_Torsional_Energy-OPLS-2005>
279.54931640625

> <r_mmod_Improper_Torsional_Energy-OPLS-2005>
18.1696071624756

> <r_mmod_Van_der_Waal_Energy-OPLS-2005>
168.807632446289

> <r_mmod_Electrostatic_Energy-OPLS-2005>
-319.338256835938

> <r_mmod_Solvation_Energy-OPLS-2005>
-243.001220703125

> <b_mmod_Minimization_Converged-OPLS-2005>
0

> <r_mmod_RMS_Derivative-OPLS-2005>
6.10682392120361

$$$$
35
                    3D
 Structure written by MMmdl.
168177  0  0  1  0            999 V2000
  -30.7351  -14.5000   20.5999 C   0  0  0  0  0  0
  -30.4185  -12.3396   19.4290 C   0  0  0  0  0  0
  -29.4922  -12.5098   18.2095 C   0  0  0  0  0  0
  -28.0180  -12.3586   18.6270 C   0  0  0  0  0  0
  -27.6581  -13.2147   19.8703 C   0  0  2  0  0  0
  -28.7020  -13.0377   20.9960 C   0  0  0  0  0  0
  -25.2578  -13.8182   20.5690 C   0  0  0  0  0  0
  -24.1840  -13.0449   20.9195 C   0  0  0  0  0  0
  -24.6401  -11.6918   20.8745 C   0  0  0  0  0  0
  -23.9069  -10.4301   21.0405 C   0  0  0  0  0  0
  -24.3619   -9.4214   21.9186 C   0  0  0  0  0  0
  -23.6295   -8.2250   22.0754 C   0  0  0  0  0  0
  -22.4277   -8.0287   21.3543 C   0  0  0  0  0  0
  -21.9917   -9.0261   20.4644 C   0  0  0  0  0  0
  -22.7246  -10.2144   20.3054 C   0  0  0  0  0  0
  -21.6852   -6.0744   22.5281 C   0  0  0  0  0  0
  -21.4014   -6.5648   23.8218 C   0  0  0  0  0  0
  -21.3658   -5.6796   24.9180 C   0  0  0  0  0  0
  -21.6041   -4.3057   24.7227 C   0  0  0  0  0  0
  -21.8817   -3.8155   23.4350 C   0  0  0  0  0  0
  -21.9194   -4.6973   22.3406 C   0  0  0  0  0  0
  -22.7864  -13.5242   21.1857 C   0  0  0  0  0  0
  -22.1661   -4.2160   21.0980 F   0  0  0  0  0  0
  -21.5629   -3.4537   25.7739 F   0  0  0  0  0  0
  -30.0291  -13.3434   20.4365 N   0  0  0  0  0  0
  -26.3013  -12.9360   20.3357 N   0  0  0  0  0  0
  -25.9329  -11.6513   20.5774 N   0  0  0  0  0  0
  -22.0500  -12.8229   22.0402 N   0  0  0  0  0  0
  -25.4299  -15.1901   20.4095 N   0  0  0  0  0  0
  -31.8466  -14.6647   20.0916 O   0  0  0  0  0  0
  -21.6638   -6.8887   21.4241 O   0  0  0  0  0  0
  -22.3552  -14.5552   20.6708 O   0  0  0  0  0  0
  -24.6206  -31.8658   23.2098 C   0  0  0  0  0  0
  -25.9083  -32.4810   23.8397 C   0  0  1  0  0  0
  -27.2195  -27.3765   20.0985 C   0  0  0  0  0  0
  -25.5934  -33.8612   24.2323 N   0  0  0  0  0  0
  -23.4102  -30.4923   21.5533 C   0  0  2  0  0  0
  -24.8531  -28.9652   20.1093 C   0  0  0  0  0  0
  -22.7449  -29.4642   22.4972 C   0  0  0  0  0  0
  -18.0285  -28.1376   22.8488 C   0  0  0  0  0  0
  -24.1489  -36.7301   23.2629 C   0  0  0  0  0  0
  -25.9482  -30.8125   21.3750 C   0  0  0  0  0  0
  -26.0204  -29.4472   20.7143 C   0  0  0  0  0  0
  -27.2050  -28.6616   20.7067 C   0  0  0  0  0  0
  -26.0318  -26.9515   19.4517 C   0  0  0  0  0  0
  -24.8579  -27.7189   19.4715 C   0  0  0  0  0  0
  -23.6187  -29.8358   20.1652 C   0  0  0  0  0  0
  -25.4112  -36.3100   24.0328 C   0  0  1  0  0  0
  -20.5879  -28.3671   23.1303 C   0  0  2  0  0  0
  -20.6778  -26.9402   22.5413 C   0  0  0  0  0  0
  -19.5758  -26.6379   21.5211 C   0  0  0  0  0  0
  -18.1934  -26.7927   22.1614 C   0  0  0  0  0  0
  -19.1535  -28.8842   23.2887 C   0  0  0  0  0  0
  -18.9462  -30.1453   23.8888 C   0  0  0  0  0  0
  -17.6463  -30.6580   24.0562 C   0  0  0  0  0  0
  -25.9047  -34.9469   23.5119 C   0  0  0  0  0  0
  -16.5352  -29.9080   23.6330 C   0  0  0  0  0  0
  -16.7273  -28.6500   23.0347 C   0  0  0  0  0  0
  -26.4487  -31.6598   25.0739 C   0  0  0  0  0  0
  -25.3734  -31.3725   26.1480 C   0  0  0  0  0  0
  -27.0320  -30.3026   24.6157 C   0  0  0  0  0  0
  -27.6067  -32.4322   25.7488 C   0  0  0  0  0  0
  -27.5599  -37.1787   24.8449 C   0  0  0  0  0  0
  -21.4168  -29.3032   22.3704 N   0  0  0  0  0  0
  -26.4289  -37.3798   23.9423 N   0  0  0  0  0  0
  -24.6784  -31.0712   22.1034 N   0  0  0  0  0  0
  -23.4198  -28.8162   23.3015 O   0  0  0  0  0  0
  -28.3536  -26.5595   20.1607 O   0  0  0  0  0  0
  -26.5599  -34.8922   22.4675 O   0  0  0  0  0  0
  -23.5383  -32.1443   23.7454 O   0  0  0  0  0  0
  -31.5931  -18.9454   20.9578 C   0  0  0  0  0  0
  -29.2240  -18.6003   21.2910 C   0  0  0  0  0  0
  -30.5364  -18.0790   21.3219 C   0  0  0  0  0  0
  -31.3584  -20.2860   20.5587 C   0  0  0  0  0  0
  -30.0369  -20.8082   20.5111 C   0  0  0  0  0  0
  -28.9728  -19.9412   20.8988 C   0  0  0  0  0  0
  -28.2599  -24.6761   18.5336 C   0  0  0  0  0  0
  -29.3378  -23.6673   18.0999 C   0  0  0  0  0  0
  -28.8183  -24.2012   21.1266 C   0  0  0  0  0  0
  -30.0579  -23.3051   20.8404 C   0  0  0  0  0  0
  -28.1708  -25.1099   20.0222 C   0  0  1  0  0  0
  -29.1361  -22.2562   18.6982 C   0  0  1  0  0  0
  -32.5472  -21.1464   20.1581 C   0  0  0  0  0  0
  -29.5895  -21.1799   17.6883 C   0  0  0  0  0  0
  -30.8550  -16.6682   21.8669 C   0  0  0  0  0  0
  -29.8033  -22.1197   19.9992 N   0  0  0  0  0  0
  -30.1502  -15.4912   21.3087 N   0  0  0  0  0  0
  -27.3343  -20.5003   20.9234 Cl  0  0  0  0  0  0
  -31.4617  -12.4325   19.1228 H   0  0  0  0  0  0
  -30.3229  -11.3358   19.8461 H   0  0  0  0  0  0
  -29.7403  -11.7761   17.4413 H   0  0  0  0  0  0
  -29.6485  -13.4912   17.7589 H   0  0  0  0  0  0
  -27.8428  -11.3039   18.8421 H   0  0  0  0  0  0
  -27.3614  -12.6104   17.7936 H   0  0  0  0  0  0
  -27.6914  -14.2567   19.5523 H   0  0  0  0  0  0
  -28.6894  -12.0138   21.3725 H   0  0  0  0  0  0
  -28.4537  -13.6670   21.8511 H   0  0  0  0  0  0
  -25.2764   -9.5701   22.4764 H   0  0  0  0  0  0
  -24.0015   -7.4643   22.7473 H   0  0  0  0  0  0
  -21.0855   -8.8780   19.8941 H   0  0  0  0  0  0
  -22.3704  -10.9684   19.6166 H   0  0  0  0  0  0
  -21.2001   -7.6155   23.9729 H   0  0  0  0  0  0
  -21.1478   -6.0522   25.9085 H   0  0  0  0  0  0
  -22.0596   -2.7618   23.2842 H   0  0  0  0  0  0
  -22.4109  -11.9872   22.4764 H   0  0  0  0  0  0
  -21.1121  -13.1255   22.2606 H   0  0  0  0  0  0
  -24.6637  -15.8466   20.5112 H   0  0  0  0  0  0
  -26.2857  -15.6266   20.0902 H   0  0  0  0  0  0
  -26.7147  -32.5493   23.1146 H   0  0  0  0  0  0
  -25.0116  -33.9776   25.0493 H   0  0  0  0  0  0
  -22.7010  -31.3114   21.4181 H   0  0  0  0  0  0
  -23.3762  -35.9622   23.3275 H   0  0  0  0  0  0
  -24.3578  -36.8944   22.2047 H   0  0  0  0  0  0
  -23.7225  -37.6490   23.6666 H   0  0  0  0  0  0
  -26.0752  -31.5800   20.6101 H   0  0  0  0  0  0
  -26.8322  -30.8573   21.9994 H   0  0  0  0  0  0
  -28.0996  -29.0241   21.1945 H   0  0  0  0  0  0
  -25.9714  -26.0145   18.9223 H   0  0  0  0  0  0
  -23.9663  -27.3482   18.9841 H   0  0  0  0  0  0
  -23.7283  -30.6167   19.4116 H   0  0  0  0  0  0
  -22.7408  -29.2609   19.8658 H   0  0  0  0  0  0
  -25.1279  -36.1949   25.0816 H   0  0  0  0  0  0
  -20.9976  -28.3247   24.1423 H   0  0  0  0  0  0
  -20.5700  -26.2268   23.3599 H   0  0  0  0  0  0
  -21.6644  -26.7459   22.1193 H   0  0  0  0  0  0
  -19.6916  -25.6296   21.1230 H   0  0  0  0  0  0
  -19.6701  -27.3193   20.6746 H   0  0  0  0  0  0
  -17.4213  -26.6699   21.3999 H   0  0  0  0  0  0
  -18.0304  -26.0063   22.8997 H   0  0  0  0  0  0
  -19.7935  -30.7278   24.2241 H   0  0  0  0  0  0
  -17.5018  -31.6258   24.5176 H   0  0  0  0  0  0
  -15.5355  -30.2984   23.7662 H   0  0  0  0  0  0
  -15.8667  -28.0831   22.7053 H   0  0  0  0  0  0
  -24.5907  -30.7070   25.7821 H   0  0  0  0  0  0
  -24.8918  -32.2885   26.4908 H   0  0  0  0  0  0
  -25.8071  -30.8909   27.0252 H   0  0  0  0  0  0
  -26.2877  -29.6775   24.1211 H   0  0  0  0  0  0
  -27.4068  -29.7278   25.4635 H   0  0  0  0  0  0
  -27.8731  -30.4328   23.9344 H   0  0  0  0  0  0
  -27.2720  -33.3660   26.2017 H   0  0  0  0  0  0
  -28.3891  -32.6814   25.0306 H   0  0  0  0  0  0
  -28.0715  -31.8467   26.5431 H   0  0  0  0  0  0
  -28.2555  -38.0147   24.7600 H   0  0  0  0  0  0
  -28.1160  -36.2681   24.6153 H   0  0  0  0  0  0
  -27.2327  -37.1294   25.8849 H   0  0  0  0  0  0
  -20.9325  -29.8769   21.6941 H   0  0  0  0  0  0
  -26.0169  -38.2857   24.1496 H   0  0  0  0  0  0
  -32.6097  -18.5772   20.9953 H   0  0  0  0  0  0
  -28.3963  -17.9795   21.6000 H   0  0  0  0  0  0
  -27.2960  -24.2592   18.2364 H   0  0  0  0  0  0
  -28.3731  -25.5709   17.9218 H   0  0  0  0  0  0
  -30.3433  -24.0531   18.2696 H   0  0  0  0  0  0
  -29.2567  -23.5978   17.0143 H   0  0  0  0  0  0
  -29.0648  -24.8506   21.9671 H   0  0  0  0  0  0
  -28.0473  -23.5375   21.5235 H   0  0  0  0  0  0
  -30.4484  -22.9587   21.7991 H   0  0  0  0  0  0
  -30.8581  -23.9064   20.4097 H   0  0  0  0  0  0
  -27.1332  -24.9201   20.2915 H   0  0  0  0  0  0
  -28.0669  -22.1083   18.8544 H   0  0  0  0  0  0
  -33.4837  -20.5883   20.1929 H   0  0  0  0  0  0
  -32.6423  -22.0002   20.8285 H   0  0  0  0  0  0
  -32.4223  -21.5241   19.1430 H   0  0  0  0  0  0
  -30.6583  -21.2487   17.4838 H   0  0  0  0  0  0
  -29.0674  -21.2919   16.7374 H   0  0  0  0  0  0
  -29.3777  -20.1674   18.0325 H   0  0  0  0  0  0
  -30.6298  -16.6876   22.9341 H   0  0  0  0  0  0
  -31.9348  -16.5111   21.8222 H   0  0  0  0  0  0
  -29.2211  -15.3073   21.6560 H   0  0  0  0  0  0
  1 25  1  0  0  0
  1 30  2  0  0  0
  1 87  1  0  0  0
  2  3  1  0  0  0
  2 25  1  0  0  0
  2 89  1  0  0  0
  2 90  1  0  0  0
  3  4  1  0  0  0
  3 91  1  0  0  0
  3 92  1  0  0  0
  4  5  1  0  0  0
  4 93  1  0  0  0
  4 94  1  0  0  0
  5  6  1  0  0  0
  5 26  1  0  0  0
  5 95  1  0  0  0
  6 25  1  0  0  0
  6 96  1  0  0  0
  6 97  1  0  0  0
  7  8  2  0  0  0
  7 26  1  0  0  0
  7 29  1  0  0  0
  8  9  1  0  0  0
  8 22  1  0  0  0
  9 10  1  0  0  0
  9 27  2  0  0  0
 10 11  2  0  0  0
 10 15  1  0  0  0
 11 12  1  0  0  0
 11 98  1  0  0  0
 12 13  2  0  0  0
 12 99  1  0  0  0
 13 14  1  0  0  0
 13 31  1  0  0  0
 14 15  2  0  0  0
 14100  1  0  0  0
 15101  1  0  0  0
 16 17  2  0  0  0
 16 21  1  0  0  0
 16 31  1  0  0  0
 17 18  1  0  0  0
 17102  1  0  0  0
 18 19  2  0  0  0
 18103  1  0  0  0
 19 20  1  0  0  0
 19 24  1  0  0  0
 20 21  2  0  0  0
 20104  1  0  0  0
 21 23  1  0  0  0
 22 28  1  0  0  0
 22 32  2  0  0  0
 26 27  1  0  0  0
 28105  1  0  0  0
 28106  1  0  0  0
 29107  1  0  0  0
 29108  1  0  0  0
 33 34  1  0  0  0
 33 66  1  0  0  0
 33 70  2  0  0  0
 34 36  1  0  0  0
 34 59  1  0  0  0
 34109  1  0  0  0
 35 44  2  0  0  0
 35 45  1  0  0  0
 35 68  1  0  0  0
 36 56  1  0  0  0
 36110  1  0  0  0
 37 39  1  0  0  0
 37 47  1  0  0  0
 37 66  1  0  0  0
 37111  1  0  0  0
 38 43  2  0  0  0
 38 46  1  0  0  0
 38 47  1  0  0  0
 39 64  1  0  0  0
 39 67  2  0  0  0
 40 52  1  0  0  0
 40 53  2  0  0  0
 40 58  1  0  0  0
 41112  1  0  0  0
 41113  1  0  0  0
 41114  1  0  0  0
 41 48  1  0  0  0
 42 43  1  0  0  0
 42 66  1  0  0  0
 42115  1  0  0  0
 42116  1  0  0  0
 43 44  1  0  0  0
 44117  1  0  0  0
 45 46  2  0  0  0
 45118  1  0  0  0
 46119  1  0  0  0
 47120  1  0  0  0
 47121  1  0  0  0
 48 56  1  0  0  0
 48 65  1  0  0  0
 48122  1  0  0  0
 49 50  1  0  0  0
 49 53  1  0  0  0
 49 64  1  0  0  0
 49123  1  0  0  0
 50 51  1  0  0  0
 50124  1  0  0  0
 50125  1  0  0  0
 51 52  1  0  0  0
 51126  1  0  0  0
 51127  1  0  0  0
 52128  1  0  0  0
 52129  1  0  0  0
 53 54  1  0  0  0
 54 55  2  0  0  0
 54130  1  0  0  0
 55 57  1  0  0  0
 55131  1  0  0  0
 56 69  2  0  0  0
 57 58  2  0  0  0
 57132  1  0  0  0
 58133  1  0  0  0
 59 60  1  0  0  0
 59 61  1  0  0  0
 59 62  1  0  0  0
 60134  1  0  0  0
 60135  1  0  0  0
 60136  1  0  0  0
 61137  1  0  0  0
 61138  1  0  0  0
 61139  1  0  0  0
 62140  1  0  0  0
 62141  1  0  0  0
 62142  1  0  0  0
 63 65  1  0  0  0
 63143  1  0  0  0
 63144  1  0  0  0
 63145  1  0  0  0
 64146  1  0  0  0
 65147  1  0  0  0
 68 81  1  0  0  0
 71 73  2  0  0  0
 71 74  1  0  0  0
 71148  1  0  0  0
 72 73  1  0  0  0
 72 76  2  0  0  0
 72149  1  0  0  0
 73 85  1  0  0  0
 74 75  2  0  0  0
 74 83  1  0  0  0
 75 76  1  0  0  0
 75 86  1  0  0  0
 76 88  1  0  0  0
 77 78  1  0  0  0
 77 81  1  0  0  0
 77150  1  0  0  0
 77151  1  0  0  0
 78 82  1  0  0  0
 78152  1  0  0  0
 78153  1  0  0  0
 79 80  1  0  0  0
 79 81  1  0  0  0
 79154  1  0  0  0
 79155  1  0  0  0
 80 86  1  0  0  0
 80156  1  0  0  0
 80157  1  0  0  0
 81158  1  0  0  0
 82 84  1  0  0  0
 82 86  1  0  0  0
 82159  1  0  0  0
 83160  1  0  0  0
 83161  1  0  0  0
 83162  1  0  0  0
 84163  1  0  0  0
 84164  1  0  0  0
 84165  1  0  0  0
 85 87  1  0  0  0
 85166  1  0  0  0
 85167  1  0  0  0
 87168  1  0  0  0
M  ISO  4   1 100  68 101  81 101  87 100
M  END
> <chiral flag>
0

> <version>
0

> <s_m_source_file>
/data/baiqing/PycharmProjects/Reinvent-master-3.2/result/LINK_invent/BTK/process_docking_weight1_custom_product_contain_oxygen_bond_distance_aromatic_linkinvent_7_9_3/rearranged_h_0046.sdf

> <i_m_source_file_index>
36

> <r_mmod_Potential_Energy-OPLS-2005>
47.0195426940918

> <r_mmod_Stretch_Energy-OPLS-2005>
54.5694847106934

> <r_mmod_Bend_Energy-OPLS-2005>
151.789154052734

> <r_mmod_Torsional_Energy-OPLS-2005>
285.668243408203

> <r_mmod_Improper_Torsional_Energy-OPLS-2005>
3.09516739845276

> <r_mmod_Van_der_Waal_Energy-OPLS-2005>
164.655914306641

> <r_mmod_Electrostatic_Energy-OPLS-2005>
-433.032745361328

> <r_mmod_Solvation_Energy-OPLS-2005>
-203.11116027832

> <b_mmod_Minimization_Converged-OPLS-2005>
0

> <r_mmod_RMS_Derivative-OPLS-2005>
1.30507242679596

$$$$
36
                    3D
 Structure written by MMmdl.
161170  0  0  1  0            999 V2000
  -30.6191  -14.8921   20.4372 C   0  0  0  0  0  0
  -30.4164  -12.5536   19.4880 C   0  0  0  0  0  0
  -29.5081  -12.5208   18.2410 C   0  0  0  0  0  0
  -28.0393  -12.3267   18.6580 C   0  0  0  0  0  0
  -27.6247  -13.2557   19.8317 C   0  0  2  0  0  0
  -28.6701  -13.2928   20.9674 C   0  0  0  0  0  0
  -25.2435  -13.8239   20.5717 C   0  0  0  0  0  0
  -24.1771  -13.0444   20.9226 C   0  0  0  0  0  0
  -24.6393  -11.6934   20.8742 C   0  0  0  0  0  0
  -23.9087  -10.4295   21.0394 C   0  0  0  0  0  0
  -24.3641   -9.4215   21.9173 C   0  0  0  0  0  0
  -23.6311   -8.2249   22.0747 C   0  0  0  0  0  0
  -22.4290   -8.0290   21.3540 C   0  0  0  0  0  0
  -21.9930   -9.0258   20.4638 C   0  0  0  0  0  0
  -22.7261  -10.2134   20.3045 C   0  0  0  0  0  0
  -21.6857   -6.0742   22.5283 C   0  0  0  0  0  0
  -21.4014   -6.5639   23.8220 C   0  0  0  0  0  0
  -21.3664   -5.6790   24.9180 C   0  0  0  0  0  0
  -21.6048   -4.3052   24.7229 C   0  0  0  0  0  0
  -21.8816   -3.8148   23.4346 C   0  0  0  0  0  0
  -21.9192   -4.6964   22.3408 C   0  0  0  0  0  0
  -22.7790  -13.5204   21.1897 C   0  0  0  0  0  0
  -22.1660   -4.2156   21.0980 F   0  0  0  0  0  0
  -21.5634   -3.4536   25.7736 F   0  0  0  0  0  0
  -29.9498  -13.6736   20.3566 N   0  0  0  0  0  0
  -26.2868  -12.9490   20.3234 N   0  0  0  0  0  0
  -25.9334  -11.6608   20.5725 N   0  0  0  0  0  0
  -22.0455  -12.8166   22.0445 N   0  0  0  0  0  0
  -25.4050  -15.1972   20.4146 N   0  0  0  0  0  0
  -31.8139  -14.8696   20.1266 O   0  0  0  0  0  0
  -21.6648   -6.8887   21.4249 O   0  0  0  0  0  0
  -22.3468  -14.5513   20.6750 O   0  0  0  0  0  0
  -24.6404  -31.8453   23.1858 C   0  0  0  0  0  0
  -25.9188  -32.4699   23.8249 C   0  0  1  0  0  0
  -27.2190  -27.1585   20.1518 C   0  0  0  0  0  0
  -25.5956  -33.8506   24.2187 N   0  0  0  0  0  0
  -23.4425  -30.4630   21.5317 C   0  0  2  0  0  0
  -24.8895  -28.8888   20.1086 C   0  0  0  0  0  0
  -22.7557  -29.4542   22.4857 C   0  0  0  0  0  0
  -18.0308  -28.1402   22.8459 C   0  0  0  0  0  0
  -24.1491  -36.7252   23.2640 C   0  0  0  0  0  0
  -25.9942  -30.7285   21.3753 C   0  0  0  0  0  0
  -26.0658  -29.3405   20.7198 C   0  0  0  0  0  0
  -27.2312  -28.4921   20.7196 C   0  0  0  0  0  0
  -26.0178  -26.7956   19.5065 C   0  0  0  0  0  0
  -24.8770  -27.6298   19.4867 C   0  0  0  0  0  0
  -23.6646  -29.7884   20.1522 C   0  0  0  0  0  0
  -25.4128  -36.3042   24.0316 C   0  0  1  0  0  0
  -20.5919  -28.3713   23.1254 C   0  0  2  0  0  0
  -20.6797  -26.9419   22.5420 C   0  0  0  0  0  0
  -19.5778  -26.6381   21.5221 C   0  0  0  0  0  0
  -18.1947  -26.7939   22.1614 C   0  0  0  0  0  0
  -19.1564  -28.8875   23.2839 C   0  0  0  0  0  0
  -18.9480  -30.1473   23.8861 C   0  0  0  0  0  0
  -17.6479  -30.6590   24.0554 C   0  0  0  0  0  0
  -25.9086  -34.9416   23.5070 C   0  0  0  0  0  0
  -16.5366  -29.9086   23.6339 C   0  0  0  0  0  0
  -16.7292  -28.6513   23.0335 C   0  0  0  0  0  0
  -26.4514  -31.6551   25.0674 C   0  0  0  0  0  0
  -25.3683  -31.3730   26.1361 C   0  0  0  0  0  0
  -27.0380  -30.2957   24.6219 C   0  0  0  0  0  0
  -27.6052  -32.4298   25.7458 C   0  0  0  0  0  0
  -27.5580  -37.1781   24.8467 C   0  0  0  0  0  0
  -21.4249  -29.3034   22.3606 N   0  0  0  0  0  0
  -26.4292  -37.3753   23.9417 N   0  0  0  0  0  0
  -24.7125  -31.0333   22.0869 N   0  0  0  0  0  0
  -23.4215  -28.8096   23.2997 O   0  0  0  0  0  0
  -28.3019  -26.2174   20.2020 O   0  0  0  0  0  0
  -26.5666  -34.8916   22.4642 O   0  0  0  0  0  0
  -23.5536  -32.1311   23.7105 O   0  0  0  0  0  0
  -32.0883  -18.1164   22.9104 C   0  0  0  0  0  0
  -31.7048  -17.3345   21.8156 C   0  0  0  0  0  0
  -31.1570  -18.9961   23.4613 C   0  0  0  0  0  0
  -29.7702  -18.8115   21.4291 C   0  0  0  0  0  0
  -30.4465  -17.4802   21.1604 C   0  0  0  0  0  0
  -29.9817  -19.2872   22.7548 C   0  0  0  0  0  0
  -28.1378  -22.1523   19.2997 C   0  0  0  0  0  0
  -27.2024  -21.4704   18.6109 C   0  0  0  0  0  0
  -28.3465  -23.7215   19.1014 C   0  0  0  0  0  0
  -29.0902  -23.9575   21.3489 C   0  0  0  0  0  0
  -28.9600  -22.3612   21.5606 C   0  0  0  0  0  0
  -28.1186  -24.6809   20.3407 C   0  0  1  0  0  0
  -28.8527  -19.8346   20.5301 C   0  0  0  0  0  0
  -29.9485  -16.1443   20.5962 N   0  0  0  0  0  0
  -29.0323  -21.4329   20.3567 N   0  3  1  0  0  0
  -28.7497  -20.1348   23.6209 Cl  0  0  0  0  0  0
  -31.4576  -12.6624   19.1812 H   0  0  0  0  0  0
  -30.3675  -11.6034   20.0224 H   0  0  0  0  0  0
  -29.8155  -11.7208   17.5662 H   0  0  0  0  0  0
  -29.6166  -13.4513   17.6814 H   0  0  0  0  0  0
  -27.9162  -11.2835   18.9504 H   0  0  0  0  0  0
  -27.3813  -12.4793   17.8017 H   0  0  0  0  0  0
  -27.5838  -14.2589   19.4070 H   0  0  0  0  0  0
  -28.7422  -12.3266   21.4692 H   0  0  0  0  0  0
  -28.3798  -14.0171   21.7303 H   0  0  0  0  0  0
  -25.2786   -9.5692   22.4745 H   0  0  0  0  0  0
  -24.0023   -7.4642   22.7462 H   0  0  0  0  0  0
  -21.0869   -8.8780   19.8938 H   0  0  0  0  0  0
  -22.3726  -10.9673   19.6153 H   0  0  0  0  0  0
  -21.2002   -7.6147   23.9729 H   0  0  0  0  0  0
  -21.1492   -6.0514   25.9084 H   0  0  0  0  0  0
  -22.0589   -2.7612   23.2843 H   0  0  0  0  0  0
  -22.4090  -11.9833   22.4821 H   0  0  0  0  0  0
  -21.1065  -13.1159   22.2651 H   0  0  0  0  0  0
  -24.6246  -15.8371   20.5154 H   0  0  0  0  0  0
  -26.2422  -15.6458   20.0682 H   0  0  0  0  0  0
  -26.7231  -32.5299   23.0955 H   0  0  0  0  0  0
  -25.0119  -33.9622   25.0348 H   0  0  0  0  0  0
  -22.7434  -31.2880   21.3783 H   0  0  0  0  0  0
  -23.3770  -35.9569   23.3314 H   0  0  0  0  0  0
  -24.3571  -36.8872   22.2052 H   0  0  0  0  0  0
  -23.7242  -37.6449   23.6668 H   0  0  0  0  0  0
  -26.1470  -31.4818   20.6015 H   0  0  0  0  0  0
  -26.8674  -30.7795   22.0147 H   0  0  0  0  0  0
  -28.1312  -28.8338   21.2124 H   0  0  0  0  0  0
  -25.9430  -25.8314   19.0255 H   0  0  0  0  0  0
  -23.9754  -27.2828   19.0001 H   0  0  0  0  0  0
  -23.7917  -30.5619   19.3935 H   0  0  0  0  0  0
  -22.7793  -29.2276   19.8465 H   0  0  0  0  0  0
  -25.1312  -36.1869   25.0806 H   0  0  0  0  0  0
  -20.9995  -28.3309   24.1386 H   0  0  0  0  0  0
  -20.5723  -26.2306   23.3626 H   0  0  0  0  0  0
  -21.6658  -26.7453   22.1195 H   0  0  0  0  0  0
  -19.6947  -25.6296   21.1252 H   0  0  0  0  0  0
  -19.6736  -27.3187   20.6753 H   0  0  0  0  0  0
  -17.4227  -26.6681   21.4008 H   0  0  0  0  0  0
  -18.0327  -26.0105   22.9030 H   0  0  0  0  0  0
  -19.7958  -30.7287   24.2206 H   0  0  0  0  0  0
  -17.5043  -31.6264   24.5162 H   0  0  0  0  0  0
  -15.5368  -30.2969   23.7699 H   0  0  0  0  0  0
  -15.8690  -28.0834   22.7053 H   0  0  0  0  0  0
  -24.5877  -30.7075   25.7652 H   0  0  0  0  0  0
  -24.8854  -32.2903   26.4726 H   0  0  0  0  0  0
  -25.7944  -30.8921   27.0172 H   0  0  0  0  0  0
  -26.2981  -29.6687   24.1221 H   0  0  0  0  0  0
  -27.4017  -29.7243   25.4763 H   0  0  0  0  0  0
  -27.8870  -30.4232   23.9505 H   0  0  0  0  0  0
  -27.2668  -33.3607   26.2011 H   0  0  0  0  0  0
  -28.3878  -32.6835   25.0295 H   0  0  0  0  0  0
  -28.0708  -31.8431   26.5395 H   0  0  0  0  0  0
  -28.2576  -38.0093   24.7544 H   0  0  0  0  0  0
  -28.1096  -36.2626   24.6259 H   0  0  0  0  0  0
  -27.2297  -37.1382   25.8868 H   0  0  0  0  0  0
  -20.9455  -29.8727   21.6767 H   0  0  0  0  0  0
  -26.0165  -38.2818   24.1437 H   0  0  0  0  0  0
  -33.0182  -17.9111   23.4222 H   0  0  0  0  0  0
  -32.3846  -16.5250   21.6112 H   0  0  0  0  0  0
  -31.3412  -19.4398   24.4294 H   0  0  0  0  0  0
  -26.5747  -21.9803   17.8957 H   0  0  0  0  0  0
  -27.0228  -20.4136   18.7306 H   0  0  0  0  0  0
  -27.6801  -24.0516   18.3034 H   0  0  0  0  0  0
  -29.3523  -23.8743   18.7053 H   0  0  0  0  0  0
  -28.9713  -24.4371   22.3210 H   0  0  0  0  0  0
  -30.1181  -24.1794   21.0572 H   0  0  0  0  0  0
  -28.0082  -22.1808   22.0589 H   0  0  0  0  0  0
  -29.7565  -22.0854   22.2488 H   0  0  0  0  0  0
  -27.1025  -24.5188   20.7011 H   0  0  0  0  0  0
  -27.8216  -19.6623   20.8394 H   0  0  0  0  0  0
  -28.9233  -19.4162   19.5267 H   0  0  0  0  0  0
  -28.9452  -16.0696   20.5165 H   0  0  0  0  0  0
  -29.9862  -21.5091   20.0345 H   0  0  0  0  0  0
  1 25  1  0  0  0
  1 30  2  0  0  0
  1 84  1  0  0  0
  2  3  1  0  0  0
  2 25  1  0  0  0
  2 87  1  0  0  0
  2 88  1  0  0  0
  3  4  1  0  0  0
  3 89  1  0  0  0
  3 90  1  0  0  0
  4  5  1  0  0  0
  4 91  1  0  0  0
  4 92  1  0  0  0
  5  6  1  0  0  0
  5 26  1  0  0  0
  5 93  1  0  0  0
  6 25  1  0  0  0
  6 94  1  0  0  0
  6 95  1  0  0  0
  7  8  2  0  0  0
  7 26  1  0  0  0
  7 29  1  0  0  0
  8  9  1  0  0  0
  8 22  1  0  0  0
  9 10  1  0  0  0
  9 27  2  0  0  0
 10 11  2  0  0  0
 10 15  1  0  0  0
 11 12  1  0  0  0
 11 96  1  0  0  0
 12 13  2  0  0  0
 12 97  1  0  0  0
 13 14  1  0  0  0
 13 31  1  0  0  0
 14 15  2  0  0  0
 14 98  1  0  0  0
 15 99  1  0  0  0
 16 17  2  0  0  0
 16 21  1  0  0  0
 16 31  1  0  0  0
 17 18  1  0  0  0
 17100  1  0  0  0
 18 19  2  0  0  0
 18101  1  0  0  0
 19 20  1  0  0  0
 19 24  1  0  0  0
 20 21  2  0  0  0
 20102  1  0  0  0
 21 23  1  0  0  0
 22 28  1  0  0  0
 22 32  2  0  0  0
 26 27  1  0  0  0
 28103  1  0  0  0
 28104  1  0  0  0
 29105  1  0  0  0
 29106  1  0  0  0
 33 34  1  0  0  0
 33 66  1  0  0  0
 33 70  2  0  0  0
 34 36  1  0  0  0
 34 59  1  0  0  0
 34107  1  0  0  0
 35 44  2  0  0  0
 35 45  1  0  0  0
 35 68  1  0  0  0
 36 56  1  0  0  0
 36108  1  0  0  0
 37 39  1  0  0  0
 37 47  1  0  0  0
 37 66  1  0  0  0
 37109  1  0  0  0
 38 43  2  0  0  0
 38 46  1  0  0  0
 38 47  1  0  0  0
 39 64  1  0  0  0
 39 67  2  0  0  0
 40 52  1  0  0  0
 40 53  2  0  0  0
 40 58  1  0  0  0
 41110  1  0  0  0
 41111  1  0  0  0
 41112  1  0  0  0
 41 48  1  0  0  0
 42 43  1  0  0  0
 42 66  1  0  0  0
 42113  1  0  0  0
 42114  1  0  0  0
 43 44  1  0  0  0
 44115  1  0  0  0
 45 46  2  0  0  0
 45116  1  0  0  0
 46117  1  0  0  0
 47118  1  0  0  0
 47119  1  0  0  0
 48 56  1  0  0  0
 48 65  1  0  0  0
 48120  1  0  0  0
 49 50  1  0  0  0
 49 53  1  0  0  0
 49 64  1  0  0  0
 49121  1  0  0  0
 50 51  1  0  0  0
 50122  1  0  0  0
 50123  1  0  0  0
 51 52  1  0  0  0
 51124  1  0  0  0
 51125  1  0  0  0
 52126  1  0  0  0
 52127  1  0  0  0
 53 54  1  0  0  0
 54 55  2  0  0  0
 54128  1  0  0  0
 55 57  1  0  0  0
 55129  1  0  0  0
 56 69  2  0  0  0
 57 58  2  0  0  0
 57130  1  0  0  0
 58131  1  0  0  0
 59 60  1  0  0  0
 59 61  1  0  0  0
 59 62  1  0  0  0
 60132  1  0  0  0
 60133  1  0  0  0
 60134  1  0  0  0
 61135  1  0  0  0
 61136  1  0  0  0
 61137  1  0  0  0
 62138  1  0  0  0
 62139  1  0  0  0
 62140  1  0  0  0
 63 65  1  0  0  0
 63141  1  0  0  0
 63142  1  0  0  0
 63143  1  0  0  0
 64144  1  0  0  0
 65145  1  0  0  0
 68 82  1  0  0  0
 71 72  2  0  0  0
 71 73  1  0  0  0
 71146  1  0  0  0
 72 75  1  0  0  0
 72147  1  0  0  0
 73 76  2  0  0  0
 73148  1  0  0  0
 74 75  2  0  0  0
 74 76  1  0  0  0
 74 83  1  0  0  0
 75 84  1  0  0  0
 76 86  1  0  0  0
 77 78  2  0  0  0
 77 79  1  0  0  0
 77 85  1  0  0  0
 78149  1  0  0  0
 78150  1  0  0  0
 79 82  1  0  0  0
 79151  1  0  0  0
 79152  1  0  0  0
 80 81  1  0  0  0
 80 82  1  0  0  0
 80153  1  0  0  0
 80154  1  0  0  0
 81 85  1  0  0  0
 81155  1  0  0  0
 81156  1  0  0  0
 82157  1  0  0  0
 83158  1  0  0  0
 83159  1  0  0  0
 83 85  1  0  0  0
 84160  1  0  0  0
 85161  1  0  0  0
M  CHG  1  85   1
M  ISO  4   1 100  68 101  82 101  84 100
M  END
> <chiral flag>
0

> <version>
0

> <s_m_source_file>
/data/baiqing/PycharmProjects/Reinvent-master-3.2/result/LINK_invent/BTK/process_docking_weight1_custom_product_contain_oxygen_bond_distance_aromatic_linkinvent_7_9_3/rearranged_h_0046.sdf

> <i_m_source_file_index>
37

> <r_mmod_Potential_Energy-OPLS-2005>
510.593292236328

> <r_mmod_Stretch_Energy-OPLS-2005>
251.11897277832

> <r_mmod_Bend_Energy-OPLS-2005>
306.426605224609

> <r_mmod_Torsional_Energy-OPLS-2005>
354.792846679688

> <r_mmod_Improper_Torsional_Energy-OPLS-2005>
9.68237018585205

> <r_mmod_Van_der_Waal_Energy-OPLS-2005>
158.630874633789

> <r_mmod_Electrostatic_Energy-OPLS-2005>
-276.682586669922

> <r_mmod_Solvation_Energy-OPLS-2005>
-451.887451171875

> <b_mmod_Minimization_Converged-OPLS-2005>
0

> <r_mmod_RMS_Derivative-OPLS-2005>
1.969881772995

$$$$
37
                    3D
 Structure written by MMmdl.
157165  0  0  1  0            999 V2000
  -30.7174  -14.4368   20.5734 C   0  0  0  0  0  0
  -30.4426  -12.2840   19.3964 C   0  0  0  0  0  0
  -29.5062  -12.4758   18.1846 C   0  0  0  0  0  0
  -28.0298  -12.3350   18.6100 C   0  0  0  0  0  0
  -27.6712  -13.1911   19.8567 C   0  0  2  0  0  0
  -28.7126  -12.9578   20.9742 C   0  0  0  0  0  0
  -25.2657  -13.8129   20.5701 C   0  0  0  0  0  0
  -24.1861  -13.0450   20.9132 C   0  0  0  0  0  0
  -24.6355  -11.6892   20.8609 C   0  0  0  0  0  0
  -23.9005  -10.4311   21.0329 C   0  0  0  0  0  0
  -24.3571   -9.4248   21.9132 C   0  0  0  0  0  0
  -23.6259   -8.2277   22.0750 C   0  0  0  0  0  0
  -22.4242   -8.0271   21.3556 C   0  0  0  0  0  0
  -21.9852   -9.0225   20.4636 C   0  0  0  0  0  0
  -22.7153  -10.2125   20.3016 C   0  0  0  0  0  0
  -21.6859   -6.0699   22.5280 C   0  0  0  0  0  0
  -21.3994   -6.5600   23.8204 C   0  0  0  0  0  0
  -21.3671   -5.6763   24.9173 C   0  0  0  0  0  0
  -21.6070   -4.3025   24.7233 C   0  0  0  0  0  0
  -21.8808   -3.8108   23.4349 C   0  0  0  0  0  0
  -21.9188   -4.6927   22.3407 C   0  0  0  0  0  0
  -22.7869  -13.5247   21.1831 C   0  0  0  0  0  0
  -22.1648   -4.2100   21.0993 F   0  0  0  0  0  0
  -21.5672   -3.4524   25.7767 F   0  0  0  0  0  0
  -30.0546  -13.2576   20.4279 N   0  0  0  0  0  0
  -26.3069  -12.9278   20.3242 N   0  0  0  0  0  0
  -25.9295  -11.6449   20.5616 N   0  0  0  0  0  0
  -22.0464  -12.8284   22.0384 N   0  0  0  0  0  0
  -25.4474  -15.1872   20.4410 N   0  0  0  0  0  0
  -31.8120  -14.6677   20.0504 O   0  0  0  0  0  0
  -21.6639   -6.8855   21.4249 O   0  0  0  0  0  0
  -22.3571  -14.5563   20.6680 O   0  0  0  0  0  0
  -24.6156  -31.8673   23.2070 C   0  0  0  0  0  0
  -25.9026  -32.4817   23.8369 C   0  0  1  0  0  0
  -27.2497  -27.4307   20.1034 C   0  0  0  0  0  0
  -25.5883  -33.8629   24.2305 N   0  0  0  0  0  0
  -23.4046  -30.4850   21.5489 C   0  0  2  0  0  0
  -24.8565  -28.9383   20.1271 C   0  0  0  0  0  0
  -22.7388  -29.4646   22.4999 C   0  0  0  0  0  0
  -18.0248  -28.1375   22.8489 C   0  0  0  0  0  0
  -24.1489  -36.7300   23.2631 C   0  0  0  0  0  0
  -25.9318  -30.8277   21.3629 C   0  0  0  0  0  0
  -26.0157  -29.4575   20.7174 C   0  0  0  0  0  0
  -27.2176  -28.7107   20.7061 C   0  0  0  0  0  0
  -26.0772  -26.9191   19.5176 C   0  0  0  0  0  0
  -24.8811  -27.6669   19.5266 C   0  0  0  0  0  0
  -23.6191  -29.8098   20.1688 C   0  0  0  0  0  0
  -25.4114  -36.3106   24.0344 C   0  0  1  0  0  0
  -20.5831  -28.3653   23.1308 C   0  0  2  0  0  0
  -20.6753  -26.9401   22.5397 C   0  0  0  0  0  0
  -19.5744  -26.6389   21.5182 C   0  0  0  0  0  0
  -18.1920  -26.7921   22.1603 C   0  0  0  0  0  0
  -19.1507  -28.8832   23.2889 C   0  0  0  0  0  0
  -18.9465  -30.1437   23.8902 C   0  0  0  0  0  0
  -17.6481  -30.6588   24.0561 C   0  0  0  0  0  0
  -25.9052  -34.9479   23.5135 C   0  0  0  0  0  0
  -16.5358  -29.9107   23.6337 C   0  0  0  0  0  0
  -16.7251  -28.6505   23.0368 C   0  0  0  0  0  0
  -26.4469  -31.6615   25.0702 C   0  0  0  0  0  0
  -25.3735  -31.3786   26.1469 C   0  0  0  0  0  0
  -27.0314  -30.3056   24.6089 C   0  0  0  0  0  0
  -27.6014  -32.4381   25.7479 C   0  0  0  0  0  0
  -27.5594  -37.1794   24.8461 C   0  0  0  0  0  0
  -21.4104  -29.3019   22.3740 N   0  0  0  0  0  0
  -26.4291  -37.3819   23.9446 N   0  0  0  0  0  0
  -24.6684  -31.0758   22.0982 N   0  0  0  0  0  0
  -23.4146  -28.8202   23.3063 O   0  0  0  0  0  0
  -28.4014  -26.6729   20.0605 O   0  0  0  0  0  0
  -26.5613  -34.8938   22.4691 O   0  0  0  0  0  0
  -23.5357  -32.1419   23.7473 O   0  0  0  0  0  0
  -31.1405  -18.9672   21.0438 C   0  0  0  0  0  0
  -31.1549  -17.5669   20.8329 C   0  0  0  0  0  0
  -29.1739  -17.3685   22.2239 C   0  0  0  0  0  0
  -30.1473  -19.5820   21.8438 C   0  0  0  0  0  0
  -29.1575  -18.7622   22.4470 C   0  0  0  0  0  0
  -30.1612  -16.7542   21.4315 C   0  0  0  0  0  0
  -30.2214  -21.0593   22.1432 C   0  0  0  0  0  0
  -28.0851  -19.3289   23.3646 C   0  0  0  0  0  0
  -28.9115  -24.2727   20.6172 C   0  0  0  0  0  0
  -29.1650  -23.2792   21.7845 C   0  0  0  0  0  0
  -28.5298  -25.7023   21.1134 C   0  0  0  0  0  0
  -30.0408  -15.3417   21.2979 N   0  0  0  0  0  0
  -29.4784  -21.8915   21.3878 N   0  0  0  0  0  0
  -30.8920  -21.4416   23.1051 O   0  0  0  0  0  0
  -31.4851  -12.3860   19.0861 H   0  0  0  0  0  0
  -30.3527  -11.2669   19.7845 H   0  0  0  0  0  0
  -29.7405  -11.7331   17.4215 H   0  0  0  0  0  0
  -29.6749  -13.4493   17.7223 H   0  0  0  0  0  0
  -27.8585  -11.2807   18.8311 H   0  0  0  0  0  0
  -27.3726  -12.5777   17.7751 H   0  0  0  0  0  0
  -27.7216  -14.2367   19.5506 H   0  0  0  0  0  0
  -28.6847  -11.9196   21.3046 H   0  0  0  0  0  0
  -28.4596  -13.5446   21.8573 H   0  0  0  0  0  0
  -25.2708   -9.5758   22.4705 H   0  0  0  0  0  0
  -23.9971   -7.4690   22.7483 H   0  0  0  0  0  0
  -21.0785   -8.8678   19.8967 H   0  0  0  0  0  0
  -22.3524  -10.9642   19.6126 H   0  0  0  0  0  0
  -21.1933   -7.6092   23.9695 H   0  0  0  0  0  0
  -21.1536   -6.0490   25.9087 H   0  0  0  0  0  0
  -22.0583   -2.7564   23.2862 H   0  0  0  0  0  0
  -22.3977  -11.9947   22.4859 H   0  0  0  0  0  0
  -21.1098  -13.1390   22.2541 H   0  0  0  0  0  0
  -24.7098  -15.8498   20.6570 H   0  0  0  0  0  0
  -26.3312  -15.6375   20.2329 H   0  0  0  0  0  0
  -26.7085  -32.5534   23.1127 H   0  0  0  0  0  0
  -25.0057  -33.9809   25.0467 H   0  0  0  0  0  0
  -22.6954  -31.3005   21.4040 H   0  0  0  0  0  0
  -23.3771  -35.9604   23.3297 H   0  0  0  0  0  0
  -24.3564  -36.8904   22.2035 H   0  0  0  0  0  0
  -23.7222  -37.6504   23.6644 H   0  0  0  0  0  0
  -26.0417  -31.5887   20.5877 H   0  0  0  0  0  0
  -26.8177  -30.8853   21.9834 H   0  0  0  0  0  0
  -28.1140  -29.1109   21.1614 H   0  0  0  0  0  0
  -26.0919  -25.9389   19.0565 H   0  0  0  0  0  0
  -23.9886  -27.2536   19.0778 H   0  0  0  0  0  0
  -23.7343  -30.5791   19.4056 H   0  0  0  0  0  0
  -22.7427  -29.2323   19.8700 H   0  0  0  0  0  0
  -25.1297  -36.1951   25.0835 H   0  0  0  0  0  0
  -20.9906  -28.3211   24.1433 H   0  0  0  0  0  0
  -20.5645  -26.2269   23.3587 H   0  0  0  0  0  0
  -21.6643  -26.7470   22.1210 H   0  0  0  0  0  0
  -19.6935  -25.6297   21.1230 H   0  0  0  0  0  0
  -19.6699  -27.3169   20.6696 H   0  0  0  0  0  0
  -17.4196  -26.6627   21.4001 H   0  0  0  0  0  0
  -18.0350  -26.0042   22.8989 H   0  0  0  0  0  0
  -19.7964  -30.7216   24.2279 H   0  0  0  0  0  0
  -17.5081  -31.6276   24.5158 H   0  0  0  0  0  0
  -15.5385  -30.3051   23.7677 H   0  0  0  0  0  0
  -15.8620  -28.0853   22.7134 H   0  0  0  0  0  0
  -24.5842  -30.7198   25.7843 H   0  0  0  0  0  0
  -24.9019  -32.2984   26.4936 H   0  0  0  0  0  0
  -25.8066  -30.8952   27.0218 H   0  0  0  0  0  0
  -26.2864  -29.6816   24.1139 H   0  0  0  0  0  0
  -27.4079  -29.7312   25.4552 H   0  0  0  0  0  0
  -27.8692  -30.4401   23.9243 H   0  0  0  0  0  0
  -27.2560  -33.3649   26.2095 H   0  0  0  0  0  0
  -28.3789  -32.7017   25.0288 H   0  0  0  0  0  0
  -28.0709  -31.8501   26.5378 H   0  0  0  0  0  0
  -28.2596  -38.0118   24.7593 H   0  0  0  0  0  0
  -28.1117  -36.2662   24.6191 H   0  0  0  0  0  0
  -27.2321  -37.1315   25.8861 H   0  0  0  0  0  0
  -20.9275  -29.8774   21.6979 H   0  0  0  0  0  0
  -26.0173  -38.2886   24.1489 H   0  0  0  0  0  0
  -31.9127  -19.5750   20.5950 H   0  0  0  0  0  0
  -31.9371  -17.1383   20.2189 H   0  0  0  0  0  0
  -28.4115  -16.7509   22.6761 H   0  0  0  0  0  0
  -27.3115  -18.5868   23.5676 H   0  0  0  0  0  0
  -27.5924  -20.1969   22.9210 H   0  0  0  0  0  0
  -28.5221  -19.6098   24.3264 H   0  0  0  0  0  0
  -28.1132  -23.8885   19.9812 H   0  0  0  0  0  0
  -29.8128  -24.3263   20.0038 H   0  0  0  0  0  0
  -28.2842  -23.2322   22.4255 H   0  0  0  0  0  0
  -29.9669  -23.6804   22.4074 H   0  0  0  0  0  0
  -27.6149  -25.6420   21.7079 H   0  0  0  0  0  0
  -29.3046  -26.0715   21.7888 H   0  0  0  0  0  0
  -29.2123  -14.9459   21.7153 H   0  0  0  0  0  0
  -28.9746  -21.4867   20.6102 H   0  0  0  0  0  0
  1 25  1  0  0  0
  1 30  2  0  0  0
  1 82  1  0  0  0
  2  3  1  0  0  0
  2 25  1  0  0  0
  2 85  1  0  0  0
  2 86  1  0  0  0
  3  4  1  0  0  0
  3 87  1  0  0  0
  3 88  1  0  0  0
  4  5  1  0  0  0
  4 89  1  0  0  0
  4 90  1  0  0  0
  5  6  1  0  0  0
  5 26  1  0  0  0
  5 91  1  0  0  0
  6 25  1  0  0  0
  6 92  1  0  0  0
  6 93  1  0  0  0
  7  8  2  0  0  0
  7 26  1  0  0  0
  7 29  1  0  0  0
  8  9  1  0  0  0
  8 22  1  0  0  0
  9 10  1  0  0  0
  9 27  2  0  0  0
 10 11  2  0  0  0
 10 15  1  0  0  0
 11 12  1  0  0  0
 11 94  1  0  0  0
 12 13  2  0  0  0
 12 95  1  0  0  0
 13 14  1  0  0  0
 13 31  1  0  0  0
 14 15  2  0  0  0
 14 96  1  0  0  0
 15 97  1  0  0  0
 16 17  2  0  0  0
 16 21  1  0  0  0
 16 31  1  0  0  0
 17 18  1  0  0  0
 17 98  1  0  0  0
 18 19  2  0  0  0
 18 99  1  0  0  0
 19 20  1  0  0  0
 19 24  1  0  0  0
 20 21  2  0  0  0
 20100  1  0  0  0
 21 23  1  0  0  0
 22 28  1  0  0  0
 22 32  2  0  0  0
 26 27  1  0  0  0
 28101  1  0  0  0
 28102  1  0  0  0
 29103  1  0  0  0
 29104  1  0  0  0
 33 34  1  0  0  0
 33 66  1  0  0  0
 33 70  2  0  0  0
 34 36  1  0  0  0
 34 59  1  0  0  0
 34105  1  0  0  0
 35 44  2  0  0  0
 35 45  1  0  0  0
 35 68  1  0  0  0
 36 56  1  0  0  0
 36106  1  0  0  0
 37 39  1  0  0  0
 37 47  1  0  0  0
 37 66  1  0  0  0
 37107  1  0  0  0
 38 43  2  0  0  0
 38 46  1  0  0  0
 38 47  1  0  0  0
 39 64  1  0  0  0
 39 67  2  0  0  0
 40 52  1  0  0  0
 40 53  2  0  0  0
 40 58  1  0  0  0
 41108  1  0  0  0
 41109  1  0  0  0
 41110  1  0  0  0
 41 48  1  0  0  0
 42 43  1  0  0  0
 42 66  1  0  0  0
 42111  1  0  0  0
 42112  1  0  0  0
 43 44  1  0  0  0
 44113  1  0  0  0
 45 46  2  0  0  0
 45114  1  0  0  0
 46115  1  0  0  0
 47116  1  0  0  0
 47117  1  0  0  0
 48 56  1  0  0  0
 48 65  1  0  0  0
 48118  1  0  0  0
 49 50  1  0  0  0
 49 53  1  0  0  0
 49 64  1  0  0  0
 49119  1  0  0  0
 50 51  1  0  0  0
 50120  1  0  0  0
 50121  1  0  0  0
 51 52  1  0  0  0
 51122  1  0  0  0
 51123  1  0  0  0
 52124  1  0  0  0
 52125  1  0  0  0
 53 54  1  0  0  0
 54 55  2  0  0  0
 54126  1  0  0  0
 55 57  1  0  0  0
 55127  1  0  0  0
 56 69  2  0  0  0
 57 58  2  0  0  0
 57128  1  0  0  0
 58129  1  0  0  0
 59 60  1  0  0  0
 59 61  1  0  0  0
 59 62  1  0  0  0
 60130  1  0  0  0
 60131  1  0  0  0
 60132  1  0  0  0
 61133  1  0  0  0
 61134  1  0  0  0
 61135  1  0  0  0
 62136  1  0  0  0
 62137  1  0  0  0
 62138  1  0  0  0
 63 65  1  0  0  0
 63139  1  0  0  0
 63140  1  0  0  0
 63141  1  0  0  0
 64142  1  0  0  0
 65143  1  0  0  0
 68 81  1  0  0  0
 71 72  2  0  0  0
 71 74  1  0  0  0
 71144  1  0  0  0
 72 76  1  0  0  0
 72145  1  0  0  0
 73 75  1  0  0  0
 73 76  2  0  0  0
 73146  1  0  0  0
 74 75  2  0  0  0
 74 77  1  0  0  0
 75 78  1  0  0  0
 76 82  1  0  0  0
 77 83  1  0  0  0
 77 84  2  0  0  0
 78147  1  0  0  0
 78148  1  0  0  0
 78149  1  0  0  0
 79 80  1  0  0  0
 79 81  1  0  0  0
 79150  1  0  0  0
 79151  1  0  0  0
 80 83  1  0  0  0
 80152  1  0  0  0
 80153  1  0  0  0
 81154  1  0  0  0
 81155  1  0  0  0
 82156  1  0  0  0
 83157  1  0  0  0
M  ISO  4   1 100  68 101  81 101  82 100
M  END
> <chiral flag>
0

> <version>
0

> <s_m_source_file>
/data/baiqing/PycharmProjects/Reinvent-master-3.2/result/LINK_invent/BTK/process_docking_weight1_custom_product_contain_oxygen_bond_distance_aromatic_linkinvent_7_9_3/rearranged_h_0046.sdf

> <i_m_source_file_index>
38

> <r_mmod_Potential_Energy-OPLS-2005>
-42.2014579772949

> <r_mmod_Stretch_Energy-OPLS-2005>
39.1100196838379

> <r_mmod_Bend_Energy-OPLS-2005>
105.970497131348

> <r_mmod_Torsional_Energy-OPLS-2005>
263.374114990234

> <r_mmod_Improper_Torsional_Energy-OPLS-2005>
3.51730465888977

> <r_mmod_Van_der_Waal_Energy-OPLS-2005>
150.279678344727

> <r_mmod_Electrostatic_Energy-OPLS-2005>
-384.442565917969

> <r_mmod_Solvation_Energy-OPLS-2005>
-231.75309753418

> <b_mmod_Minimization_Converged-OPLS-2005>
0

> <r_mmod_RMS_Derivative-OPLS-2005>
5.17419767379761

$$$$
38
                    3D
 Structure written by MMmdl.
154162  0  0  1  0            999 V2000
  -30.6191  -14.7437   20.4394 C   0  0  0  0  0  0
  -30.4273  -12.4493   19.4746 C   0  0  0  0  0  0
  -29.5055  -12.4967   18.2367 C   0  0  0  0  0  0
  -28.0335  -12.3229   18.6547 C   0  0  0  0  0  0
  -27.6390  -13.2335   19.8482 C   0  0  2  0  0  0
  -28.6839  -13.1796   20.9839 C   0  0  0  0  0  0
  -25.2488  -13.8198   20.5690 C   0  0  0  0  0  0
  -24.1791  -13.0434   20.9202 C   0  0  0  0  0  0
  -24.6395  -11.6916   20.8750 C   0  0  0  0  0  0
  -23.9075  -10.4289   21.0414 C   0  0  0  0  0  0
  -24.3621   -9.4199   21.9187 C   0  0  0  0  0  0
  -23.6290   -8.2240   22.0757 C   0  0  0  0  0  0
  -22.4275   -8.0283   21.3547 C   0  0  0  0  0  0
  -21.9919   -9.0254   20.4645 C   0  0  0  0  0  0
  -22.7251  -10.2128   20.3055 C   0  0  0  0  0  0
  -21.6852   -6.0735   22.5273 C   0  0  0  0  0  0
  -21.4016   -6.5637   23.8204 C   0  0  0  0  0  0
  -21.3655   -5.6788   24.9166 C   0  0  0  0  0  0
  -21.6041   -4.3051   24.7216 C   0  0  0  0  0  0
  -21.8822   -3.8143   23.4334 C   0  0  0  0  0  0
  -21.9197   -4.6962   22.3394 C   0  0  0  0  0  0
  -22.7810  -13.5212   21.1858 C   0  0  0  0  0  0
  -22.1662   -4.2149   21.0970 F   0  0  0  0  0  0
  -21.5626   -3.4534   25.7726 F   0  0  0  0  0  0
  -29.9846  -13.5222   20.3972 N   0  0  0  0  0  0
  -26.2924  -12.9418   20.3292 N   0  0  0  0  0  0
  -25.9328  -11.6553   20.5777 N   0  0  0  0  0  0
  -22.0462  -12.8192   22.0416 N   0  0  0  0  0  0
  -25.4117  -15.1923   20.4093 N   0  0  0  0  0  0
  -31.8173  -14.7946   20.1534 O   0  0  0  0  0  0
  -21.6641   -6.8879   21.4237 O   0  0  0  0  0  0
  -22.3482  -14.5518   20.6718 O   0  0  0  0  0  0
  -24.6318  -31.8539   23.1959 C   0  0  0  0  0  0
  -25.9148  -32.4740   23.8303 C   0  0  1  0  0  0
  -27.2215  -27.2573   20.1257 C   0  0  0  0  0  0
  -25.5957  -33.8545   24.2232 N   0  0  0  0  0  0
  -23.4271  -30.4751   21.5390 C   0  0  2  0  0  0
  -24.8733  -28.9184   20.1077 C   0  0  0  0  0  0
  -22.7494  -29.4601   22.4913 C   0  0  0  0  0  0
  -18.0293  -28.1414   22.8480 C   0  0  0  0  0  0
  -24.1492  -36.7261   23.2635 C   0  0  0  0  0  0
  -25.9726  -30.7648   21.3755 C   0  0  0  0  0  0
  -26.0431  -29.3879   20.7151 C   0  0  0  0  0  0
  -27.2165  -28.5688   20.7117 C   0  0  0  0  0  0
  -26.0216  -26.8463   19.5029 C   0  0  0  0  0  0
  -24.8676  -27.6559   19.4941 C   0  0  0  0  0  0
  -23.6435  -29.8048   20.1559 C   0  0  0  0  0  0
  -25.4118  -36.3043   24.0313 C   0  0  1  0  0  0
  -20.5892  -28.3709   23.1275 C   0  0  2  0  0  0
  -20.6789  -26.9434   22.5400 C   0  0  0  0  0  0
  -19.5764  -26.6411   21.5207 C   0  0  0  0  0  0
  -18.1940  -26.7965   22.1610 C   0  0  0  0  0  0
  -19.1547  -28.8881   23.2875 C   0  0  0  0  0  0
  -18.9474  -30.1485   23.8888 C   0  0  0  0  0  0
  -17.6472  -30.6607   24.0578 C   0  0  0  0  0  0
  -25.9064  -34.9426   23.5065 C   0  0  0  0  0  0
  -16.5360  -29.9100   23.6356 C   0  0  0  0  0  0
  -16.7279  -28.6527   23.0354 C   0  0  0  0  0  0
  -26.4515  -31.6586   25.0709 C   0  0  0  0  0  0
  -25.3731  -31.3763   26.1429 C   0  0  0  0  0  0
  -27.0372  -30.3001   24.6220 C   0  0  0  0  0  0
  -27.6063  -32.4343   25.7484 C   0  0  0  0  0  0
  -27.5575  -37.1777   24.8461 C   0  0  0  0  0  0
  -21.4204  -29.3057   22.3663 N   0  0  0  0  0  0
  -26.4282  -37.3753   23.9414 N   0  0  0  0  0  0
  -24.6960  -31.0500   22.0931 N   0  0  0  0  0  0
  -23.4193  -28.8153   23.3021 O   0  0  0  0  0  0
  -28.3420  -26.3990   20.2163 O   0  0  0  0  0  0
  -26.5627  -34.8907   22.4628 O   0  0  0  0  0  0
  -23.5470  -32.1365   23.7258 O   0  0  0  0  0  0
  -30.7956  -20.1380   19.8905 C   0  0  0  0  0  0
  -31.4142  -17.7606   19.9125 C   0  0  0  0  0  0
  -29.4995  -19.8530   20.3597 C   0  0  0  0  0  0
  -29.1887  -18.4410   20.6135 C   0  0  0  0  0  0
  -30.1430  -17.3520   20.3886 C   0  0  0  0  0  0
  -31.7327  -19.1133   19.6743 C   0  0  0  0  0  0
  -28.3811  -23.7261   20.5061 C   0  0  0  0  0  0
  -28.5247  -21.0921   20.6159 C   0  0  0  0  0  0
  -27.8047  -18.0797   21.1336 C   0  0  0  0  0  0
  -28.4394  -25.0372   19.5820 C   0  0  0  0  0  0
  -29.8494  -15.8959   20.6059 N   0  0  0  0  0  0
  -28.7806  -22.4840   20.0308 N   0  0  0  0  0  0
  -27.9350  -23.8344   21.6504 O   0  0  0  0  0  0
  -27.0100  -17.7421   20.1179 F   0  0  0  0  0  0
  -33.3099  -19.5260   19.1088 Cl  0  0  0  0  0  0
  -31.4679  -12.5648   19.1676 H   0  0  0  0  0  0
  -30.3695  -11.4751   19.9635 H   0  0  0  0  0  0
  -29.7856  -11.7181   17.5259 H   0  0  0  0  0  0
  -29.6310  -13.4479   17.7167 H   0  0  0  0  0  0
  -27.8964  -11.2763   18.9303 H   0  0  0  0  0  0
  -27.3723  -12.5013   17.8060 H   0  0  0  0  0  0
  -27.6299  -14.2524   19.4592 H   0  0  0  0  0  0
  -28.7176  -12.1875   21.4363 H   0  0  0  0  0  0
  -28.4218  -13.8734   21.7839 H   0  0  0  0  0  0
  -25.2771   -9.5670   22.4759 H   0  0  0  0  0  0
  -23.9991   -7.4635   22.7483 H   0  0  0  0  0  0
  -21.0849   -8.8772   19.8952 H   0  0  0  0  0  0
  -22.3718  -10.9662   19.6154 H   0  0  0  0  0  0
  -21.2009   -7.6146   23.9708 H   0  0  0  0  0  0
  -21.1472   -6.0516   25.9067 H   0  0  0  0  0  0
  -22.0608   -2.7608   23.2831 H   0  0  0  0  0  0
  -22.4078  -11.9830   22.4760 H   0  0  0  0  0  0
  -21.1086  -13.1212   22.2655 H   0  0  0  0  0  0
  -24.6347  -15.8333   20.5214 H   0  0  0  0  0  0
  -26.2452  -15.6579   20.0705 H   0  0  0  0  0  0
  -26.7202  -32.5371   23.1024 H   0  0  0  0  0  0
  -25.0147  -33.9710   25.0404 H   0  0  0  0  0  0
  -22.7244  -31.2976   21.3906 H   0  0  0  0  0  0
  -23.3766  -35.9581   23.3272 H   0  0  0  0  0  0
  -24.3580  -36.8919   22.2057 H   0  0  0  0  0  0
  -23.7243  -37.6448   23.6682 H   0  0  0  0  0  0
  -26.1158  -31.5277   20.6091 H   0  0  0  0  0  0
  -26.8484  -30.8085   22.0114 H   0  0  0  0  0  0
  -28.1131  -28.9246   21.1979 H   0  0  0  0  0  0
  -25.9277  -25.8725   19.0486 H   0  0  0  0  0  0
  -23.9656  -27.2862   19.0271 H   0  0  0  0  0  0
  -23.7645  -30.5788   19.3975 H   0  0  0  0  0  0
  -22.7622  -29.2362   19.8532 H   0  0  0  0  0  0
  -25.1303  -36.1857   25.0804 H   0  0  0  0  0  0
  -20.9984  -28.3278   24.1397 H   0  0  0  0  0  0
  -20.5731  -26.2305   23.3593 H   0  0  0  0  0  0
  -21.6646  -26.7495   22.1157 H   0  0  0  0  0  0
  -19.6928  -25.6327   21.1231 H   0  0  0  0  0  0
  -19.6708  -27.3228   20.6747 H   0  0  0  0  0  0
  -17.4214  -26.6740   21.4002 H   0  0  0  0  0  0
  -18.0312  -26.0107   22.8999 H   0  0  0  0  0  0
  -19.7952  -30.7318   24.2228 H   0  0  0  0  0  0
  -17.5028  -31.6285   24.5190 H   0  0  0  0  0  0
  -15.5361  -30.2999   23.7720 H   0  0  0  0  0  0
  -15.8672  -28.0860   22.7060 H   0  0  0  0  0  0
  -24.5939  -30.7061   25.7772 H   0  0  0  0  0  0
  -24.8886  -32.2949   26.4760 H   0  0  0  0  0  0
  -25.8057  -30.9028   27.0256 H   0  0  0  0  0  0
  -26.2965  -29.6737   24.1239 H   0  0  0  0  0  0
  -27.4045  -29.7275   25.4750 H   0  0  0  0  0  0
  -27.8836  -30.4265   23.9466 H   0  0  0  0  0  0
  -27.2664  -33.3668   26.1999 H   0  0  0  0  0  0
  -28.3907  -32.6874   25.0336 H   0  0  0  0  0  0
  -28.0685  -31.8511   26.5461 H   0  0  0  0  0  0
  -28.2566  -38.0100   24.7520 H   0  0  0  0  0  0
  -28.1104  -36.2630   24.6258 H   0  0  0  0  0  0
  -27.2301  -37.1376   25.8869 H   0  0  0  0  0  0
  -20.9393  -29.8739   21.6835 H   0  0  0  0  0  0
  -26.0146  -38.2813   24.1450 H   0  0  0  0  0  0
  -31.0930  -21.1600   19.7056 H   0  0  0  0  0  0
  -32.1953  -17.0487   19.7049 H   0  0  0  0  0  0
  -28.4251  -21.1964   21.6974 H   0  0  0  0  0  0
  -27.5365  -20.7998   20.2580 H   0  0  0  0  0  0
  -27.3317  -18.9013   21.6703 H   0  0  0  0  0  0
  -27.8428  -17.2370   21.8240 H   0  0  0  0  0  0
  -27.7459  -24.9091   18.7549 H   0  0  0  0  0  0
  -29.4207  -25.0167   19.1086 H   0  0  0  0  0  0
  -28.8884  -15.6929   20.8315 H   0  0  0  0  0  0
  -29.1622  -22.4856   19.0939 H   0  0  0  0  0  0
  1 25  1  0  0  0
  1 30  2  0  0  0
  1 81  1  0  0  0
  2  3  1  0  0  0
  2 25  1  0  0  0
  2 86  1  0  0  0
  2 87  1  0  0  0
  3  4  1  0  0  0
  3 88  1  0  0  0
  3 89  1  0  0  0
  4  5  1  0  0  0
  4 90  1  0  0  0
  4 91  1  0  0  0
  5  6  1  0  0  0
  5 26  1  0  0  0
  5 92  1  0  0  0
  6 25  1  0  0  0
  6 93  1  0  0  0
  6 94  1  0  0  0
  7  8  2  0  0  0
  7 26  1  0  0  0
  7 29  1  0  0  0
  8  9  1  0  0  0
  8 22  1  0  0  0
  9 10  1  0  0  0
  9 27  2  0  0  0
 10 11  2  0  0  0
 10 15  1  0  0  0
 11 12  1  0  0  0
 11 95  1  0  0  0
 12 13  2  0  0  0
 12 96  1  0  0  0
 13 14  1  0  0  0
 13 31  1  0  0  0
 14 15  2  0  0  0
 14 97  1  0  0  0
 15 98  1  0  0  0
 16 17  2  0  0  0
 16 21  1  0  0  0
 16 31  1  0  0  0
 17 18  1  0  0  0
 17 99  1  0  0  0
 18 19  2  0  0  0
 18100  1  0  0  0
 19 20  1  0  0  0
 19 24  1  0  0  0
 20 21  2  0  0  0
 20101  1  0  0  0
 21 23  1  0  0  0
 22 28  1  0  0  0
 22 32  2  0  0  0
 26 27  1  0  0  0
 28102  1  0  0  0
 28103  1  0  0  0
 29104  1  0  0  0
 29105  1  0  0  0
 33 34  1  0  0  0
 33 66  1  0  0  0
 33 70  2  0  0  0
 34 36  1  0  0  0
 34 59  1  0  0  0
 34106  1  0  0  0
 35 44  2  0  0  0
 35 45  1  0  0  0
 35 68  1  0  0  0
 36 56  1  0  0  0
 36107  1  0  0  0
 37 39  1  0  0  0
 37 47  1  0  0  0
 37 66  1  0  0  0
 37108  1  0  0  0
 38 43  2  0  0  0
 38 46  1  0  0  0
 38 47  1  0  0  0
 39 64  1  0  0  0
 39 67  2  0  0  0
 40 52  1  0  0  0
 40 53  2  0  0  0
 40 58  1  0  0  0
 41109  1  0  0  0
 41110  1  0  0  0
 41111  1  0  0  0
 41 48  1  0  0  0
 42 43  1  0  0  0
 42 66  1  0  0  0
 42112  1  0  0  0
 42113  1  0  0  0
 43 44  1  0  0  0
 44114  1  0  0  0
 45 46  2  0  0  0
 45115  1  0  0  0
 46116  1  0  0  0
 47117  1  0  0  0
 47118  1  0  0  0
 48 56  1  0  0  0
 48 65  1  0  0  0
 48119  1  0  0  0
 49 50  1  0  0  0
 49 53  1  0  0  0
 49 64  1  0  0  0
 49120  1  0  0  0
 50 51  1  0  0  0
 50121  1  0  0  0
 50122  1  0  0  0
 51 52  1  0  0  0
 51123  1  0  0  0
 51124  1  0  0  0
 52125  1  0  0  0
 52126  1  0  0  0
 53 54  1  0  0  0
 54 55  2  0  0  0
 54127  1  0  0  0
 55 57  1  0  0  0
 55128  1  0  0  0
 56 69  2  0  0  0
 57 58  2  0  0  0
 57129  1  0  0  0
 58130  1  0  0  0
 59 60  1  0  0  0
 59 61  1  0  0  0
 59 62  1  0  0  0
 60131  1  0  0  0
 60132  1  0  0  0
 60133  1  0  0  0
 61134  1  0  0  0
 61135  1  0  0  0
 61136  1  0  0  0
 62137  1  0  0  0
 62138  1  0  0  0
 62139  1  0  0  0
 63 65  1  0  0  0
 63140  1  0  0  0
 63141  1  0  0  0
 63142  1  0  0  0
 64143  1  0  0  0
 65144  1  0  0  0
 68 80  1  0  0  0
 71 73  2  0  0  0
 71 76  1  0  0  0
 71145  1  0  0  0
 72 75  1  0  0  0
 72 76  2  0  0  0
 72146  1  0  0  0
 73 74  1  0  0  0
 73 78  1  0  0  0
 74 75  2  0  0  0
 74 79  1  0  0  0
 75 81  1  0  0  0
 76 85  1  0  0  0
 77 80  1  0  0  0
 77 82  1  0  0  0
 77 83  2  0  0  0
 78 82  1  0  0  0
 78147  1  0  0  0
 78148  1  0  0  0
 79 84  1  0  0  0
 79149  1  0  0  0
 79150  1  0  0  0
 80151  1  0  0  0
 80152  1  0  0  0
 81153  1  0  0  0
 82154  1  0  0  0
M  ISO  4   1 100  68 101  80 101  81 100
M  END
> <chiral flag>
0

> <version>
0

> <s_m_source_file>
/data/baiqing/PycharmProjects/Reinvent-master-3.2/result/LINK_invent/BTK/process_docking_weight1_custom_product_contain_oxygen_bond_distance_aromatic_linkinvent_7_9_3/rearranged_h_0046.sdf

> <i_m_source_file_index>
39

> <r_mmod_Potential_Energy-OPLS-2005>
79.4399948120117

> <r_mmod_Stretch_Energy-OPLS-2005>
129.954498291016

> <r_mmod_Bend_Energy-OPLS-2005>
170.655426025391

> <r_mmod_Torsional_Energy-OPLS-2005>
204.357849121094

> <r_mmod_Improper_Torsional_Energy-OPLS-2005>
4.98788499832153

> <r_mmod_Van_der_Waal_Energy-OPLS-2005>
138.951995849609

> <r_mmod_Electrostatic_Energy-OPLS-2005>
-410.049438476562

> <r_mmod_Solvation_Energy-OPLS-2005>
-244.921356201172

> <b_mmod_Minimization_Converged-OPLS-2005>
0

> <r_mmod_RMS_Derivative-OPLS-2005>
1.79130172729492

$$$$
39
                    3D
 Structure written by MMmdl.
165174  0  0  1  0            999 V2000
  -30.6282  -14.6855   20.5512 C   0  0  0  0  0  0
  -30.4375  -12.4299   19.4904 C   0  0  0  0  0  0
  -29.5215  -12.5560   18.2525 C   0  0  0  0  0  0
  -28.0434  -12.3719   18.6453 C   0  0  0  0  0  0
  -27.6513  -13.2271   19.8764 C   0  0  2  0  0  0
  -28.6892  -13.1037   21.0170 C   0  0  0  0  0  0
  -25.2532  -13.8180   20.5678 C   0  0  0  0  0  0
  -24.1803  -13.0432   20.9146 C   0  0  0  0  0  0
  -24.6341  -11.6909   20.8687 C   0  0  0  0  0  0
  -23.9006  -10.4292   21.0358 C   0  0  0  0  0  0
  -24.3587   -9.4210   21.9101 C   0  0  0  0  0  0
  -23.6300   -8.2220   22.0671 C   0  0  0  0  0  0
  -22.4270   -8.0270   21.3501 C   0  0  0  0  0  0
  -21.9857   -9.0250   20.4640 C   0  0  0  0  0  0
  -22.7157  -10.2140   20.3048 C   0  0  0  0  0  0
  -21.6860   -6.0717   22.5244 C   0  0  0  0  0  0
  -21.4022   -6.5613   23.8171 C   0  0  0  0  0  0
  -21.3669   -5.6761   24.9130 C   0  0  0  0  0  0
  -21.6057   -4.3022   24.7188 C   0  0  0  0  0  0
  -21.8841   -3.8120   23.4312 C   0  0  0  0  0  0
  -21.9199   -4.6931   22.3366 C   0  0  0  0  0  0
  -22.7809  -13.5241   21.1846 C   0  0  0  0  0  0
  -22.1677   -4.2106   21.0948 F   0  0  0  0  0  0
  -21.5633   -3.4532   25.7716 F   0  0  0  0  0  0
  -30.0104  -13.4548   20.4723 N   0  0  0  0  0  0
  -26.2963  -12.9356   20.3331 N   0  0  0  0  0  0
  -25.9299  -11.6500   20.5736 N   0  0  0  0  0  0
  -22.0499  -12.8247   22.0444 N   0  0  0  0  0  0
  -25.4287  -15.1903   20.4101 N   0  0  0  0  0  0
  -31.7505  -14.8516   20.0621 O   0  0  0  0  0  0
  -21.6633   -6.8873   21.4218 O   0  0  0  0  0  0
  -22.3482  -14.5528   20.6690 O   0  0  0  0  0  0
  -24.6222  -31.8601   23.2101 C   0  0  0  0  0  0
  -25.9051  -32.4812   23.8427 C   0  0  1  0  0  0
  -27.2474  -27.3280   20.0941 C   0  0  0  0  0  0
  -25.5870  -33.8632   24.2300 N   0  0  0  0  0  0
  -23.4239  -30.4827   21.5456 C   0  0  2  0  0  0
  -24.8749  -28.9341   20.1103 C   0  0  0  0  0  0
  -22.7463  -29.4630   22.4911 C   0  0  0  0  0  0
  -18.0281  -28.1441   22.8423 C   0  0  0  0  0  0
  -24.1471  -36.7331   23.2663 C   0  0  0  0  0  0
  -25.9684  -30.7733   21.4058 C   0  0  0  0  0  0
  -26.0376  -29.4077   20.7320 C   0  0  0  0  0  0
  -27.2163  -28.6079   20.7261 C   0  0  0  0  0  0
  -26.0688  -26.9117   19.4298 C   0  0  0  0  0  0
  -24.8922  -27.6896   19.4587 C   0  0  0  0  0  0
  -23.6469  -29.8226   20.1599 C   0  0  0  0  0  0
  -25.4105  -36.3137   24.0344 C   0  0  1  0  0  0
  -20.5884  -28.3735   23.1280 C   0  0  2  0  0  0
  -20.6760  -26.9423   22.5520 C   0  0  0  0  0  0
  -19.5809  -26.6363   21.5260 C   0  0  0  0  0  0
  -18.1929  -26.8003   22.1537 C   0  0  0  0  0  0
  -19.1530  -28.8902   23.2856 C   0  0  0  0  0  0
  -18.9462  -30.1495   23.8871 C   0  0  0  0  0  0
  -17.6461  -30.6607   24.0590 C   0  0  0  0  0  0
  -25.9027  -34.9496   23.5125 C   0  0  0  0  0  0
  -16.5351  -29.9098   23.6365 C   0  0  0  0  0  0
  -16.7270  -28.6564   23.0304 C   0  0  0  0  0  0
  -26.4414  -31.6694   25.0841 C   0  0  0  0  0  0
  -25.3642  -31.3984   26.1604 C   0  0  0  0  0  0
  -27.0232  -30.3054   24.6499 C   0  0  0  0  0  0
  -27.5994  -32.4504   25.7494 C   0  0  0  0  0  0
  -27.5634  -37.1785   24.8397 C   0  0  0  0  0  0
  -21.4199  -29.3026   22.3600 N   0  0  0  0  0  0
  -26.4286  -37.3827   23.9419 N   0  0  0  0  0  0
  -24.6880  -31.0564   22.1098 N   0  0  0  0  0  0
  -23.4165  -28.8224   23.3053 O   0  0  0  0  0  0
  -28.4030  -26.5316   20.1545 O   0  0  0  0  0  0
  -26.5594  -34.8930   22.4693 O   0  0  0  0  0  0
  -23.5362  -32.1441   23.7362 O   0  0  0  0  0  0
  -28.2508  -18.1933   18.8645 C   0  0  0  0  0  0
  -28.5585  -19.4566   19.4016 C   0  0  0  0  0  0
  -28.7880  -17.0164   19.4070 C   0  0  0  0  0  0
  -29.8778  -18.3538   21.1234 C   0  0  0  0  0  0
  -29.4057  -19.5933   20.5232 C   0  0  0  0  0  0
  -29.5997  -17.0417   20.5596 C   0  0  0  0  0  0
  -30.0411  -23.6029   21.1990 C   0  0  0  0  0  0
  -30.9360  -23.9715   24.7610 C   0  0  0  0  0  0
  -30.6428  -24.0449   22.3213 C   0  0  0  0  0  0
  -30.5456  -23.3947   23.6138 C   0  0  0  0  0  0
  -29.8788  -24.4788   19.9349 C   0  0  0  0  0  0
  -27.4649  -24.1458   20.5577 C   0  0  0  0  0  0
  -27.8751  -22.6132   20.5144 C   0  0  0  0  0  0
  -28.4390  -25.0970   19.7783 C   0  0  1  0  0  0
  -29.9839  -21.0353   20.8716 C   0  0  0  0  0  0
  -29.9471  -15.7338   21.1381 N   0  0  0  0  0  0
  -29.1928  -22.3289   21.1682 N   0  3  1  0  0  0
  -31.4814  -12.5503   19.2015 H   0  0  0  0  0  0
  -30.3673  -11.4327   19.9262 H   0  0  0  0  0  0
  -29.8063  -11.8316   17.4900 H   0  0  0  0  0  0
  -29.6616  -13.5409   17.8025 H   0  0  0  0  0  0
  -27.8823  -11.3166   18.8654 H   0  0  0  0  0  0
  -27.3971  -12.6144   17.8000 H   0  0  0  0  0  0
  -27.6572  -14.2591   19.5390 H   0  0  0  0  0  0
  -28.7008  -12.0854   21.4072 H   0  0  0  0  0  0
  -28.4155  -13.7406   21.8595 H   0  0  0  0  0  0
  -25.2762   -9.5694   22.4627 H   0  0  0  0  0  0
  -24.0056   -7.4610   22.7353 H   0  0  0  0  0  0
  -21.0745   -8.8799   19.9006 H   0  0  0  0  0  0
  -22.3577  -10.9690   19.6201 H   0  0  0  0  0  0
  -21.2017   -7.6125   23.9671 H   0  0  0  0  0  0
  -21.1473   -6.0465   25.9026 H   0  0  0  0  0  0
  -22.0622   -2.7577   23.2774 H   0  0  0  0  0  0
  -22.4173  -11.9956   22.4866 H   0  0  0  0  0  0
  -21.1144  -13.1274   22.2757 H   0  0  0  0  0  0
  -24.6692  -15.8574   20.5133 H   0  0  0  0  0  0
  -26.2919  -15.6214   20.1041 H   0  0  0  0  0  0
  -26.7111  -32.5430   23.1163 H   0  0  0  0  0  0
  -25.0003  -33.9813   25.0426 H   0  0  0  0  0  0
  -22.7206  -31.3061   21.4030 H   0  0  0  0  0  0
  -23.3774  -35.9624   23.3267 H   0  0  0  0  0  0
  -24.3587  -36.9014   22.2100 H   0  0  0  0  0  0
  -23.7144  -37.6477   23.6720 H   0  0  0  0  0  0
  -26.1378  -31.5555   20.6642 H   0  0  0  0  0  0
  -26.8308  -30.7921   22.0639 H   0  0  0  0  0  0
  -28.1052  -28.9577   21.2340 H   0  0  0  0  0  0
  -26.0410  -25.9894   18.8687 H   0  0  0  0  0  0
  -24.0038  -27.3341   18.9518 H   0  0  0  0  0  0
  -23.7828  -30.6075   19.4140 H   0  0  0  0  0  0
  -22.7634  -29.2669   19.8444 H   0  0  0  0  0  0
  -25.1281  -36.2033   25.0838 H   0  0  0  0  0  0
  -20.9972  -28.3403   24.1415 H   0  0  0  0  0  0
  -20.5582  -26.2392   23.3777 H   0  0  0  0  0  0
  -21.6660  -26.7394   22.1427 H   0  0  0  0  0  0
  -19.6980  -25.6245   21.1376 H   0  0  0  0  0  0
  -19.6868  -27.3101   20.6751 H   0  0  0  0  0  0
  -17.4300  -26.6850   21.3823 H   0  0  0  0  0  0
  -18.0173  -26.0128   22.8880 H   0  0  0  0  0  0
  -19.7939  -30.7315   24.2223 H   0  0  0  0  0  0
  -17.5019  -31.6268   24.5220 H   0  0  0  0  0  0
  -15.5344  -30.2983   23.7732 H   0  0  0  0  0  0
  -15.8686  -28.0910   22.6943 H   0  0  0  0  0  0
  -24.5829  -30.7257   25.8040 H   0  0  0  0  0  0
  -24.8794  -32.3209   26.4850 H   0  0  0  0  0  0
  -25.7972  -30.9374   27.0495 H   0  0  0  0  0  0
  -26.2867  -29.6848   24.1403 H   0  0  0  0  0  0
  -27.3595  -29.7347   25.5157 H   0  0  0  0  0  0
  -27.8892  -30.4188   23.9988 H   0  0  0  0  0  0
  -27.2550  -33.3704   26.2252 H   0  0  0  0  0  0
  -28.3607  -32.7309   25.0197 H   0  0  0  0  0  0
  -28.0942  -31.8628   26.5238 H   0  0  0  0  0  0
  -28.2612  -38.0124   24.7504 H   0  0  0  0  0  0
  -28.1142  -36.2662   24.6048 H   0  0  0  0  0  0
  -27.2427  -37.1284   25.8817 H   0  0  0  0  0  0
  -20.9406  -29.8638   21.6700 H   0  0  0  0  0  0
  -26.0202  -38.2900   24.1480 H   0  0  0  0  0  0
  -27.6128  -18.1325   17.9951 H   0  0  0  0  0  0
  -28.1673  -20.3098   18.8734 H   0  0  0  0  0  0
  -28.5434  -16.0812   18.9311 H   0  0  0  0  0  0
  -30.5000  -18.4107   22.0070 H   0  0  0  0  0  0
  -30.8178  -23.4580   25.7061 H   0  0  0  0  0  0
  -31.3657  -24.9640   24.7955 H   0  0  0  0  0  0
  -31.1669  -24.9931   22.2662 H   0  0  0  0  0  0
  -30.1279  -22.4021   23.6851 H   0  0  0  0  0  0
  -30.1217  -23.8669   19.0635 H   0  0  0  0  0  0
  -30.6414  -25.2595   19.9279 H   0  0  0  0  0  0
  -27.4152  -24.4685   21.5976 H   0  0  0  0  0  0
  -26.4511  -24.2629   20.1799 H   0  0  0  0  0  0
  -27.8814  -22.2897   19.4789 H   0  0  0  0  0  0
  -27.1188  -22.0202   21.0309 H   0  0  0  0  0  0
  -28.2049  -25.0486   18.7109 H   0  0  0  0  0  0
  -30.6458  -21.2791   20.0398 H   0  0  0  0  0  0
  -30.6637  -20.9012   21.7152 H   0  0  0  0  0  0
  -29.2262  -15.3917   21.7548 H   0  0  0  0  0  0
  -28.9052  -22.1845   22.1245 H   0  0  0  0  0  0
  1 25  1  0  0  0
  1 30  2  0  0  0
  1 86  1  0  0  0
  2  3  1  0  0  0
  2 25  1  0  0  0
  2 88  1  0  0  0
  2 89  1  0  0  0
  3  4  1  0  0  0
  3 90  1  0  0  0
  3 91  1  0  0  0
  4  5  1  0  0  0
  4 92  1  0  0  0
  4 93  1  0  0  0
  5  6  1  0  0  0
  5 26  1  0  0  0
  5 94  1  0  0  0
  6 25  1  0  0  0
  6 95  1  0  0  0
  6 96  1  0  0  0
  7  8  2  0  0  0
  7 26  1  0  0  0
  7 29  1  0  0  0
  8  9  1  0  0  0
  8 22  1  0  0  0
  9 10  1  0  0  0
  9 27  2  0  0  0
 10 11  2  0  0  0
 10 15  1  0  0  0
 11 12  1  0  0  0
 11 97  1  0  0  0
 12 13  2  0  0  0
 12 98  1  0  0  0
 13 14  1  0  0  0
 13 31  1  0  0  0
 14 15  2  0  0  0
 14 99  1  0  0  0
 15100  1  0  0  0
 16 17  2  0  0  0
 16 21  1  0  0  0
 16 31  1  0  0  0
 17 18  1  0  0  0
 17101  1  0  0  0
 18 19  2  0  0  0
 18102  1  0  0  0
 19 20  1  0  0  0
 19 24  1  0  0  0
 20 21  2  0  0  0
 20103  1  0  0  0
 21 23  1  0  0  0
 22 28  1  0  0  0
 22 32  2  0  0  0
 26 27  1  0  0  0
 28104  1  0  0  0
 28105  1  0  0  0
 29106  1  0  0  0
 29107  1  0  0  0
 33 34  1  0  0  0
 33 66  1  0  0  0
 33 70  2  0  0  0
 34 36  1  0  0  0
 34 59  1  0  0  0
 34108  1  0  0  0
 35 44  2  0  0  0
 35 45  1  0  0  0
 35 68  1  0  0  0
 36 56  1  0  0  0
 36109  1  0  0  0
 37 39  1  0  0  0
 37 47  1  0  0  0
 37 66  1  0  0  0
 37110  1  0  0  0
 38 43  2  0  0  0
 38 46  1  0  0  0
 38 47  1  0  0  0
 39 64  1  0  0  0
 39 67  2  0  0  0
 40 52  1  0  0  0
 40 53  2  0  0  0
 40 58  1  0  0  0
 41111  1  0  0  0
 41112  1  0  0  0
 41113  1  0  0  0
 41 48  1  0  0  0
 42 43  1  0  0  0
 42 66  1  0  0  0
 42114  1  0  0  0
 42115  1  0  0  0
 43 44  1  0  0  0
 44116  1  0  0  0
 45 46  2  0  0  0
 45117  1  0  0  0
 46118  1  0  0  0
 47119  1  0  0  0
 47120  1  0  0  0
 48 56  1  0  0  0
 48 65  1  0  0  0
 48121  1  0  0  0
 49 50  1  0  0  0
 49 53  1  0  0  0
 49 64  1  0  0  0
 49122  1  0  0  0
 50 51  1  0  0  0
 50123  1  0  0  0
 50124  1  0  0  0
 51 52  1  0  0  0
 51125  1  0  0  0
 51126  1  0  0  0
 52127  1  0  0  0
 52128  1  0  0  0
 53 54  1  0  0  0
 54 55  2  0  0  0
 54129  1  0  0  0
 55 57  1  0  0  0
 55130  1  0  0  0
 56 69  2  0  0  0
 57 58  2  0  0  0
 57131  1  0  0  0
 58132  1  0  0  0
 59 60  1  0  0  0
 59 61  1  0  0  0
 59 62  1  0  0  0
 60133  1  0  0  0
 60134  1  0  0  0
 60135  1  0  0  0
 61136  1  0  0  0
 61137  1  0  0  0
 61138  1  0  0  0
 62139  1  0  0  0
 62140  1  0  0  0
 62141  1  0  0  0
 63 65  1  0  0  0
 63142  1  0  0  0
 63143  1  0  0  0
 63144  1  0  0  0
 64145  1  0  0  0
 65146  1  0  0  0
 68 84  1  0  0  0
 71 72  2  0  0  0
 71 73  1  0  0  0
 71147  1  0  0  0
 72 75  1  0  0  0
 72148  1  0  0  0
 73 76  2  0  0  0
 73149  1  0  0  0
 74 75  2  0  0  0
 74 76  1  0  0  0
 74150  1  0  0  0
 75 85  1  0  0  0
 76 86  1  0  0  0
 77 79  2  0  0  0
 77 81  1  0  0  0
 77 87  1  0  0  0
 78 80  2  0  0  0
 78151  1  0  0  0
 78152  1  0  0  0
 79 80  1  0  0  0
 79153  1  0  0  0
 80154  1  0  0  0
 81 84  1  0  0  0
 81155  1  0  0  0
 81156  1  0  0  0
 82 83  1  0  0  0
 82 84  1  0  0  0
 82157  1  0  0  0
 82158  1  0  0  0
 83 87  1  0  0  0
 83159  1  0  0  0
 83160  1  0  0  0
 84161  1  0  0  0
 85162  1  0  0  0
 85163  1  0  0  0
 85 87  1  0  0  0
 86164  1  0  0  0
 87165  1  0  0  0
M  CHG  1  87   1
M  ISO  4   1 100  68 101  84 101  86 100
M  END
> <chiral flag>
0

> <version>
0

> <s_m_source_file>
/data/baiqing/PycharmProjects/Reinvent-master-3.2/result/LINK_invent/BTK/process_docking_weight1_custom_product_contain_oxygen_bond_distance_aromatic_linkinvent_7_9_3/rearranged_h_0046.sdf

> <i_m_source_file_index>
40

> <r_mmod_Potential_Energy-OPLS-2005>
59.8403244018555

> <r_mmod_Stretch_Energy-OPLS-2005>
102.368942260742

> <r_mmod_Bend_Energy-OPLS-2005>
188.521194458008

> <r_mmod_Torsional_Energy-OPLS-2005>
282.035461425781

> <r_mmod_Improper_Torsional_Energy-OPLS-2005>
7.53813409805298

> <r_mmod_Van_der_Waal_Energy-OPLS-2005>
144.518173217773

> <r_mmod_Electrostatic_Energy-OPLS-2005>
-271.288818359375

> <r_mmod_Solvation_Energy-OPLS-2005>
-449.102416992188

> <b_mmod_Minimization_Converged-OPLS-2005>
0

> <r_mmod_RMS_Derivative-OPLS-2005>
5.72081899642944

$$$$
40
                    3D
 Structure written by MMmdl.
153161  0  0  1  0            999 V2000
  -30.6186  -14.7352   20.4603 C   0  0  0  0  0  0
  -30.4321  -12.4469   19.4942 C   0  0  0  0  0  0
  -29.5158  -12.4988   18.2515 C   0  0  0  0  0  0
  -28.0380  -12.3318   18.6520 C   0  0  0  0  0  0
  -27.6429  -13.2304   19.8530 C   0  0  2  0  0  0
  -28.6819  -13.1687   20.9961 C   0  0  0  0  0  0
  -25.2504  -13.8203   20.5677 C   0  0  0  0  0  0
  -24.1804  -13.0443   20.9222 C   0  0  0  0  0  0
  -24.6395  -11.6924   20.8760 C   0  0  0  0  0  0
  -23.9077  -10.4298   21.0398 C   0  0  0  0  0  0
  -24.3625   -9.4216   21.9173 C   0  0  0  0  0  0
  -23.6303   -8.2250   22.0736 C   0  0  0  0  0  0
  -22.4276   -8.0284   21.3534 C   0  0  0  0  0  0
  -21.9919   -9.0261   20.4625 C   0  0  0  0  0  0
  -22.7248  -10.2143   20.3047 C   0  0  0  0  0  0
  -21.6838   -6.0741   22.5274 C   0  0  0  0  0  0
  -21.4001   -6.5638   23.8219 C   0  0  0  0  0  0
  -21.3673   -5.6785   24.9184 C   0  0  0  0  0  0
  -21.6064   -4.3055   24.7217 C   0  0  0  0  0  0
  -21.8817   -3.8147   23.4332 C   0  0  0  0  0  0
  -21.9188   -4.6970   22.3390 C   0  0  0  0  0  0
  -22.7809  -13.5219   21.1884 C   0  0  0  0  0  0
  -22.1646   -4.2167   21.0963 F   0  0  0  0  0  0
  -21.5663   -3.4526   25.7725 F   0  0  0  0  0  0
  -29.9908  -13.5102   20.4263 N   0  0  0  0  0  0
  -26.2935  -12.9407   20.3289 N   0  0  0  0  0  0
  -25.9333  -11.6555   20.5782 N   0  0  0  0  0  0
  -22.0428  -12.8225   22.0428 N   0  0  0  0  0  0
  -25.4201  -15.1918   20.4057 N   0  0  0  0  0  0
  -31.7990  -14.8236   20.1111 O   0  0  0  0  0  0
  -21.6626   -6.8885   21.4238 O   0  0  0  0  0  0
  -22.3492  -14.5521   20.6716 O   0  0  0  0  0  0
  -24.6362  -31.8518   23.1911 C   0  0  0  0  0  0
  -25.9217  -32.4691   23.8205 C   0  0  1  0  0  0
  -27.2406  -27.2688   20.1034 C   0  0  0  0  0  0
  -25.6024  -33.8487   24.2134 N   0  0  0  0  0  0
  -23.4306  -30.4766   21.5332 C   0  0  2  0  0  0
  -24.8781  -28.9196   20.1016 C   0  0  0  0  0  0
  -22.7520  -29.4635   22.4880 C   0  0  0  0  0  0
  -18.0326  -28.1393   22.8517 C   0  0  0  0  0  0
  -24.1521  -36.7295   23.2637 C   0  0  0  0  0  0
  -25.9764  -30.7641   21.3724 C   0  0  0  0  0  0
  -26.0485  -29.3897   20.7078 C   0  0  0  0  0  0
  -27.2279  -28.5792   20.6941 C   0  0  0  0  0  0
  -26.0398  -26.8608   19.4781 C   0  0  0  0  0  0
  -24.8809  -27.6640   19.4756 C   0  0  0  0  0  0
  -23.6459  -29.8031   20.1521 C   0  0  0  0  0  0
  -25.4147  -36.3029   24.0286 C   0  0  1  0  0  0
  -20.5932  -28.3719   23.1283 C   0  0  2  0  0  0
  -20.6841  -26.9433   22.5428 C   0  0  0  0  0  0
  -19.5787  -26.6400   21.5267 C   0  0  0  0  0  0
  -18.1961  -26.7950   22.1652 C   0  0  0  0  0  0
  -19.1575  -28.8876   23.2908 C   0  0  0  0  0  0
  -18.9469  -30.1486   23.8907 C   0  0  0  0  0  0
  -17.6455  -30.6585   24.0580 C   0  0  0  0  0  0
  -25.9088  -34.9409   23.5002 C   0  0  0  0  0  0
  -16.5359  -29.9064   23.6345 C   0  0  0  0  0  0
  -16.7310  -28.6499   23.0351 C   0  0  0  0  0  0
  -26.4551  -31.6533   25.0614 C   0  0  0  0  0  0
  -25.3743  -31.3692   26.1304 C   0  0  0  0  0  0
  -27.0420  -30.2934   24.6177 C   0  0  0  0  0  0
  -27.6071  -32.4298   25.7405 C   0  0  0  0  0  0
  -27.5576  -37.1805   24.8454 C   0  0  0  0  0  0
  -21.4231  -29.3050   22.3622 N   0  0  0  0  0  0
  -26.4300  -37.3743   23.9374 N   0  0  0  0  0  0
  -24.6989  -31.0496   22.0872 N   0  0  0  0  0  0
  -23.4225  -28.8213   23.3006 O   0  0  0  0  0  0
  -28.3782  -26.4279   20.1659 O   0  0  0  0  0  0
  -26.5629  -34.8928   22.4544 O   0  0  0  0  0  0
  -23.5529  -32.1332   23.7256 O   0  0  0  0  0  0
  -30.6302  -17.4320   18.9226 C   0  0  0  0  0  0
  -30.7297  -18.7027   18.3269 C   0  0  0  0  0  0
  -29.6006  -19.8006   20.2255 C   0  0  0  0  0  0
  -30.0145  -17.2533   20.1819 C   0  0  0  0  0  0
  -30.2397  -19.8606   18.9586 C   0  0  0  0  0  0
  -29.4831  -18.4563   20.8125 C   0  0  0  0  0  0
  -29.1567  -21.1476   20.8461 C   0  0  0  0  0  0
  -28.6508  -23.7759   20.7128 C   0  0  0  0  0  0
  -28.4430  -25.0028   19.6815 C   0  0  0  0  0  0
  -28.9463  -21.2200   22.1611 N   0  0  0  0  0  0
  -29.8719  -15.8733   20.7249 N   0  0  0  0  0  0
  -28.9872  -22.3600   20.1839 N   0  3  0  0  0  0
  -30.3919  -21.0451   18.3125 F   0  0  0  0  0  0
  -28.7004  -18.2130   22.3424 Cl  0  0  0  0  0  0
  -31.4753  -12.5635   19.1958 H   0  0  0  0  0  0
  -30.3763  -11.4719   19.9805 H   0  0  0  0  0  0
  -29.7986  -11.7166   17.5472 H   0  0  0  0  0  0
  -29.6507  -13.4473   17.7309 H   0  0  0  0  0  0
  -27.8828  -11.2831   18.9074 H   0  0  0  0  0  0
  -27.3888  -12.5286   17.7976 H   0  0  0  0  0  0
  -27.6380  -14.2508   19.4698 H   0  0  0  0  0  0
  -28.7083  -12.1767   21.4493 H   0  0  0  0  0  0
  -28.4115  -13.8599   21.7961 H   0  0  0  0  0  0
  -25.2771   -9.5696   22.4746 H   0  0  0  0  0  0
  -24.0021   -7.4639   22.7445 H   0  0  0  0  0  0
  -21.0867   -8.8784   19.8904 H   0  0  0  0  0  0
  -22.3717  -10.9694   19.6164 H   0  0  0  0  0  0
  -21.1957   -7.6140   23.9732 H   0  0  0  0  0  0
  -21.1519   -6.0502   25.9101 H   0  0  0  0  0  0
  -22.0587   -2.7604   23.2808 H   0  0  0  0  0  0
  -22.3995  -11.9919   22.4893 H   0  0  0  0  0  0
  -21.1030  -13.1244   22.2566 H   0  0  0  0  0  0
  -24.6499  -15.8444   20.5035 H   0  0  0  0  0  0
  -26.2776  -15.6300   20.0917 H   0  0  0  0  0  0
  -26.7268  -32.5299   23.0914 H   0  0  0  0  0  0
  -25.0209  -33.9541   25.0314 H   0  0  0  0  0  0
  -22.7317  -31.3033   21.3867 H   0  0  0  0  0  0
  -23.3758  -35.9659   23.3293 H   0  0  0  0  0  0
  -24.3634  -36.8933   22.2063 H   0  0  0  0  0  0
  -23.7319  -37.6507   23.6681 H   0  0  0  0  0  0
  -26.1363  -31.5361   20.6187 H   0  0  0  0  0  0
  -26.8422  -30.7876   22.0196 H   0  0  0  0  0  0
  -28.1276  -28.9495   21.1655 H   0  0  0  0  0  0
  -25.9502  -25.9060   18.9871 H   0  0  0  0  0  0
  -23.9885  -27.2976   18.9863 H   0  0  0  0  0  0
  -23.7602  -30.5734   19.3882 H   0  0  0  0  0  0
  -22.7654  -29.2306   19.8539 H   0  0  0  0  0  0
  -25.1363  -36.1820   25.0775 H   0  0  0  0  0  0
  -21.0071  -28.3326   24.1394 H   0  0  0  0  0  0
  -20.5900  -26.2299   23.3630 H   0  0  0  0  0  0
  -21.6678  -26.7549   22.1106 H   0  0  0  0  0  0
  -19.6952  -25.6337   21.1239 H   0  0  0  0  0  0
  -19.6703  -27.3275   20.6848 H   0  0  0  0  0  0
  -17.4273  -26.6787   21.4009 H   0  0  0  0  0  0
  -18.0287  -26.0058   22.8994 H   0  0  0  0  0  0
  -19.7922  -30.7342   24.2255 H   0  0  0  0  0  0
  -17.4976  -31.6265   24.5180 H   0  0  0  0  0  0
  -15.5347  -30.2935   23.7678 H   0  0  0  0  0  0
  -15.8728  -28.0825   22.7004 H   0  0  0  0  0  0
  -24.5906  -30.7084   25.7582 H   0  0  0  0  0  0
  -24.8967  -32.2878   26.4719 H   0  0  0  0  0  0
  -25.8020  -30.8814   27.0068 H   0  0  0  0  0  0
  -26.2980  -29.6604   24.1330 H   0  0  0  0  0  0
  -27.4219  -29.7287   25.4709 H   0  0  0  0  0  0
  -27.8828  -30.4174   23.9343 H   0  0  0  0  0  0
  -27.2627  -33.3586   26.1965 H   0  0  0  0  0  0
  -28.3886  -32.6875   25.0240 H   0  0  0  0  0  0
  -28.0744  -31.8433   26.5328 H   0  0  0  0  0  0
  -28.2595  -38.0106   24.7508 H   0  0  0  0  0  0
  -28.1056  -36.2631   24.6261 H   0  0  0  0  0  0
  -27.2288  -37.1441   25.8857 H   0  0  0  0  0  0
  -20.9453  -29.8619   21.6678 H   0  0  0  0  0  0
  -26.0168  -38.2818   24.1322 H   0  0  0  0  0  0
  -31.0147  -16.5862   18.3733 H   0  0  0  0  0  0
  -31.1907  -18.7948   17.3539 H   0  0  0  0  0  0
  -27.7539  -23.7074   21.3293 H   0  0  0  0  0  0
  -29.4569  -24.0516   21.3950 H   0  0  0  0  0  0
  -27.6233  -24.7482   19.0168 H   0  0  0  0  0  0
  -29.3075  -24.9888   19.0146 H   0  0  0  0  0  0
  -28.6209  -22.0579   22.6102 H   0  0  0  0  0  0
  -29.0180  -20.3753   22.7125 H   0  0  0  0  0  0
  -29.0254  -15.7183   21.2514 H   0  0  0  0  0  0
  -29.3036  -22.3215   19.2155 H   0  0  0  0  0  0
  1 25  1  0  0  0
  1 30  2  0  0  0
  1 81  1  0  0  0
  2  3  1  0  0  0
  2 25  1  0  0  0
  2 85  1  0  0  0
  2 86  1  0  0  0
  3  4  1  0  0  0
  3 87  1  0  0  0
  3 88  1  0  0  0
  4  5  1  0  0  0
  4 89  1  0  0  0
  4 90  1  0  0  0
  5  6  1  0  0  0
  5 26  1  0  0  0
  5 91  1  0  0  0
  6 25  1  0  0  0
  6 92  1  0  0  0
  6 93  1  0  0  0
  7  8  2  0  0  0
  7 26  1  0  0  0
  7 29  1  0  0  0
  8  9  1  0  0  0
  8 22  1  0  0  0
  9 10  1  0  0  0
  9 27  2  0  0  0
 10 11  2  0  0  0
 10 15  1  0  0  0
 11 12  1  0  0  0
 11 94  1  0  0  0
 12 13  2  0  0  0
 12 95  1  0  0  0
 13 14  1  0  0  0
 13 31  1  0  0  0
 14 15  2  0  0  0
 14 96  1  0  0  0
 15 97  1  0  0  0
 16 17  2  0  0  0
 16 21  1  0  0  0
 16 31  1  0  0  0
 17 18  1  0  0  0
 17 98  1  0  0  0
 18 19  2  0  0  0
 18 99  1  0  0  0
 19 20  1  0  0  0
 19 24  1  0  0  0
 20 21  2  0  0  0
 20100  1  0  0  0
 21 23  1  0  0  0
 22 28  1  0  0  0
 22 32  2  0  0  0
 26 27  1  0  0  0
 28101  1  0  0  0
 28102  1  0  0  0
 29103  1  0  0  0
 29104  1  0  0  0
 33 34  1  0  0  0
 33 66  1  0  0  0
 33 70  2  0  0  0
 34 36  1  0  0  0
 34 59  1  0  0  0
 34105  1  0  0  0
 35 44  2  0  0  0
 35 45  1  0  0  0
 35 68  1  0  0  0
 36 56  1  0  0  0
 36106  1  0  0  0
 37 39  1  0  0  0
 37 47  1  0  0  0
 37 66  1  0  0  0
 37107  1  0  0  0
 38 43  2  0  0  0
 38 46  1  0  0  0
 38 47  1  0  0  0
 39 64  1  0  0  0
 39 67  2  0  0  0
 40 52  1  0  0  0
 40 53  2  0  0  0
 40 58  1  0  0  0
 41108  1  0  0  0
 41109  1  0  0  0
 41110  1  0  0  0
 41 48  1  0  0  0
 42 43  1  0  0  0
 42 66  1  0  0  0
 42111  1  0  0  0
 42112  1  0  0  0
 43 44  1  0  0  0
 44113  1  0  0  0
 45 46  2  0  0  0
 45114  1  0  0  0
 46115  1  0  0  0
 47116  1  0  0  0
 47117  1  0  0  0
 48 56  1  0  0  0
 48 65  1  0  0  0
 48118  1  0  0  0
 49 50  1  0  0  0
 49 53  1  0  0  0
 49 64  1  0  0  0
 49119  1  0  0  0
 50 51  1  0  0  0
 50120  1  0  0  0
 50121  1  0  0  0
 51 52  1  0  0  0
 51122  1  0  0  0
 51123  1  0  0  0
 52124  1  0  0  0
 52125  1  0  0  0
 53 54  1  0  0  0
 54 55  2  0  0  0
 54126  1  0  0  0
 55 57  1  0  0  0
 55127  1  0  0  0
 56 69  2  0  0  0
 57 58  2  0  0  0
 57128  1  0  0  0
 58129  1  0  0  0
 59 60  1  0  0  0
 59 61  1  0  0  0
 59 62  1  0  0  0
 60130  1  0  0  0
 60131  1  0  0  0
 60132  1  0  0  0
 61133  1  0  0  0
 61134  1  0  0  0
 61135  1  0  0  0
 62136  1  0  0  0
 62137  1  0  0  0
 62138  1  0  0  0
 63 65  1  0  0  0
 63139  1  0  0  0
 63140  1  0  0  0
 63141  1  0  0  0
 64142  1  0  0  0
 65143  1  0  0  0
 68 79  1  0  0  0
 71 72  2  0  0  0
 71 74  1  0  0  0
 71144  1  0  0  0
 72 75  1  0  0  0
 72145  1  0  0  0
 73 75  2  0  0  0
 73 76  1  0  0  0
 73 77  1  0  0  0
 74 76  2  0  0  0
 74 81  1  0  0  0
 75 83  1  0  0  0
 76 84  1  0  0  0
 77 80  1  0  0  0
 77 82  2  0  0  0
 78 79  1  0  0  0
 78 82  1  0  0  0
 78146  1  0  0  0
 78147  1  0  0  0
 79148  1  0  0  0
 79149  1  0  0  0
 80150  1  0  0  0
 80151  1  0  0  0
 81152  1  0  0  0
 82153  1  0  0  0
M  CHG  1  82   1
M  ISO  4   1 100  68 101  79 101  81 100
M  END
> <chiral flag>
0

> <version>
0

> <s_m_source_file>
/data/baiqing/PycharmProjects/Reinvent-master-3.2/result/LINK_invent/BTK/process_docking_weight1_custom_product_contain_oxygen_bond_distance_aromatic_linkinvent_7_9_3/rearranged_h_0046.sdf

> <i_m_source_file_index>
41

> <r_mmod_Potential_Energy-OPLS-2005>
-78.4153747558594

> <r_mmod_Stretch_Energy-OPLS-2005>
127.819694519043

> <r_mmod_Bend_Energy-OPLS-2005>
169.299102783203

> <r_mmod_Torsional_Energy-OPLS-2005>
219.324768066406

> <r_mmod_Improper_Torsional_Energy-OPLS-2005>
4.67438220977783

> <r_mmod_Van_der_Waal_Energy-OPLS-2005>
152.260269165039

> <r_mmod_Electrostatic_Energy-OPLS-2005>
-408.064575195312

> <r_mmod_Solvation_Energy-OPLS-2005>
-421.688598632812

> <b_mmod_Minimization_Converged-OPLS-2005>
0

> <r_mmod_RMS_Derivative-OPLS-2005>
3.43728518486023

$$$$
41
                    3D
 Structure written by MMmdl.
167176  0  0  1  0            999 V2000
  -30.6864  -14.6240   20.5358 C   0  0  0  0  0  0
  -30.4130  -12.3862   19.4697 C   0  0  0  0  0  0
  -29.4957  -12.4888   18.2335 C   0  0  0  0  0  0
  -28.0189  -12.3395   18.6442 C   0  0  0  0  0  0
  -27.6446  -13.2268   19.8634 C   0  0  2  0  0  0
  -28.6871  -13.1171   21.0007 C   0  0  0  0  0  0
  -25.2481  -13.8187   20.5736 C   0  0  0  0  0  0
  -24.1764  -13.0449   20.9206 C   0  0  0  0  0  0
  -24.6337  -11.6913   20.8743 C   0  0  0  0  0  0
  -23.9025  -10.4297   21.0405 C   0  0  0  0  0  0
  -24.3590   -9.4226   21.9192 C   0  0  0  0  0  0
  -23.6285   -8.2241   22.0765 C   0  0  0  0  0  0
  -22.4274   -8.0264   21.3545 C   0  0  0  0  0  0
  -21.9891   -9.0228   20.4646 C   0  0  0  0  0  0
  -22.7197  -10.2125   20.3054 C   0  0  0  0  0  0
  -21.6845   -6.0713   22.5277 C   0  0  0  0  0  0
  -21.4012   -6.5630   23.8210 C   0  0  0  0  0  0
  -21.3667   -5.6794   24.9178 C   0  0  0  0  0  0
  -21.6046   -4.3057   24.7240 C   0  0  0  0  0  0
  -21.8819   -3.8134   23.4368 C   0  0  0  0  0  0
  -21.9202   -4.6940   22.3413 C   0  0  0  0  0  0
  -22.7786  -13.5208   21.1913 C   0  0  0  0  0  0
  -22.1662   -4.2124   21.0989 F   0  0  0  0  0  0
  -21.5649   -3.4547   25.7751 F   0  0  0  0  0  0
  -30.0054  -13.4349   20.4323 N   0  0  0  0  0  0
  -26.2919  -12.9404   20.3339 N   0  0  0  0  0  0
  -25.9269  -11.6545   20.5759 N   0  0  0  0  0  0
  -22.0469  -12.8163   22.0455 N   0  0  0  0  0  0
  -25.4166  -15.1927   20.4138 N   0  0  0  0  0  0
  -31.8134  -14.7275   20.0479 O   0  0  0  0  0  0
  -21.6653   -6.8854   21.4233 O   0  0  0  0  0  0
  -22.3471  -14.5543   20.6798 O   0  0  0  0  0  0
  -24.6243  -31.8614   23.2043 C   0  0  0  0  0  0
  -25.9109  -32.4757   23.8354 C   0  0  1  0  0  0
  -27.2005  -27.2908   20.1458 C   0  0  0  0  0  0
  -25.5938  -33.8571   24.2261 N   0  0  0  0  0  0
  -23.4157  -30.4882   21.5497 C   0  0  2  0  0  0
  -24.8591  -28.9428   20.1178 C   0  0  0  0  0  0
  -22.7436  -29.4669   22.4969 C   0  0  0  0  0  0
  -18.0255  -28.1423   22.8484 C   0  0  0  0  0  0
  -24.1496  -36.7283   23.2643 C   0  0  0  0  0  0
  -25.9609  -30.7800   21.3861 C   0  0  0  0  0  0
  -26.0309  -29.4082   20.7292 C   0  0  0  0  0  0
  -27.2034  -28.5918   20.7395 C   0  0  0  0  0  0
  -26.0141  -26.9002   19.4846 C   0  0  0  0  0  0
  -24.8524  -27.6919   19.4895 C   0  0  0  0  0  0
  -23.6275  -29.8235   20.1663 C   0  0  0  0  0  0
  -25.4123  -36.3064   24.0314 C   0  0  1  0  0  0
  -20.5857  -28.3734   23.1290 C   0  0  2  0  0  0
  -20.6790  -26.9471   22.5421 C   0  0  0  0  0  0
  -19.5781  -26.6411   21.5227 C   0  0  0  0  0  0
  -18.1928  -26.7961   22.1607 C   0  0  0  0  0  0
  -19.1510  -28.8892   23.2869 C   0  0  0  0  0  0
  -18.9438  -30.1492   23.8901 C   0  0  0  0  0  0
  -17.6448  -30.6633   24.0580 C   0  0  0  0  0  0
  -25.9067  -34.9435   23.5084 C   0  0  0  0  0  0
  -16.5328  -29.9137   23.6375 C   0  0  0  0  0  0
  -16.7243  -28.6555   23.0377 C   0  0  0  0  0  0
  -26.4521  -31.6576   25.0718 C   0  0  0  0  0  0
  -25.3731  -31.3709   26.1408 C   0  0  0  0  0  0
  -27.0429  -30.2995   24.6254 C   0  0  0  0  0  0
  -27.6070  -32.4347   25.7469 C   0  0  0  0  0  0
  -27.5587  -37.1762   24.8449 C   0  0  0  0  0  0
  -21.4160  -29.3054   22.3651 N   0  0  0  0  0  0
  -26.4296  -37.3751   23.9400 N   0  0  0  0  0  0
  -24.6848  -31.0606   22.1019 N   0  0  0  0  0  0
  -23.4152  -28.8218   23.3058 O   0  0  0  0  0  0
  -28.3080  -26.4228   20.1989 O   0  0  0  0  0  0
  -26.5654  -34.8900   22.4655 O   0  0  0  0  0  0
  -23.5404  -32.1458   23.7372 O   0  0  0  0  0  0
  -31.4034  -19.7896   21.7198 C   0  0  0  0  0  0
  -32.2516  -18.6904   21.9356 C   0  0  0  0  0  0
  -29.6307  -18.2434   21.0972 C   0  0  0  0  0  0
  -30.0566  -19.6037   21.3552 C   0  0  0  0  0  0
  -30.5021  -17.0964   21.2543 C   0  0  0  0  0  0
  -31.8076  -17.3650   21.7667 C   0  0  0  0  0  0
  -27.6156  -22.4887   20.0950 C   0  0  0  0  0  0
  -26.4530  -21.7909   20.1128 C   0  0  0  0  0  0
  -27.6580  -23.9583   19.5879 C   0  0  0  0  0  0
  -29.3688  -24.3514   21.3322 C   0  0  0  0  0  0
  -29.9821  -23.0686   20.6349 C   0  0  0  0  0  0
  -28.1158  -25.0064   20.6429 C   0  0  1  0  0  0
  -25.0710  -19.8009   19.4312 C   0  0  0  0  0  0
  -29.1099  -20.8542   21.5054 C   0  0  0  0  0  0
  -26.2103  -20.3036   20.3193 C   0  0  0  0  0  0
  -30.0177  -15.7247   21.0175 N   0  0  0  0  0  0
  -29.0104  -21.9323   20.4251 N   0  3  1  0  0  0
  -32.8887  -16.1430   22.3436 Cl  0  0  0  0  0  0
  -31.4593  -12.4726   19.1689 H   0  0  0  0  0  0
  -30.3245  -11.4039   19.9329 H   0  0  0  0  0  0
  -29.7539  -11.7179   17.5061 H   0  0  0  0  0  0
  -29.6488  -13.4474   17.7368 H   0  0  0  0  0  0
  -27.8429  -11.2870   18.8799 H   0  0  0  0  0  0
  -27.3705  -12.5676   17.7982 H   0  0  0  0  0  0
  -27.6538  -14.2564   19.5044 H   0  0  0  0  0  0
  -28.6912  -12.1088   21.4147 H   0  0  0  0  0  0
  -28.4253  -13.7801   21.8267 H   0  0  0  0  0  0
  -25.2712   -9.5719   22.4782 H   0  0  0  0  0  0
  -23.9992   -7.4635   22.7483 H   0  0  0  0  0  0
  -21.0833   -8.8712   19.8945 H   0  0  0  0  0  0
  -22.3621  -10.9653   19.6167 H   0  0  0  0  0  0
  -21.1985   -7.6136   23.9692 H   0  0  0  0  0  0
  -21.1505   -6.0542   25.9083 H   0  0  0  0  0  0
  -22.0601   -2.7590   23.2888 H   0  0  0  0  0  0
  -22.4076  -11.9768   22.4737 H   0  0  0  0  0  0
  -21.1080  -13.1157   22.2726 H   0  0  0  0  0  0
  -24.6468  -15.8432   20.5268 H   0  0  0  0  0  0
  -26.2583  -15.6343   20.0682 H   0  0  0  0  0  0
  -26.7150  -32.5429   23.1070 H   0  0  0  0  0  0
  -24.9981  -33.9711   25.0336 H   0  0  0  0  0  0
  -22.7091  -31.3089   21.4121 H   0  0  0  0  0  0
  -23.3738  -35.9631   23.3276 H   0  0  0  0  0  0
  -24.3573  -36.8949   22.2060 H   0  0  0  0  0  0
  -23.7266  -37.6472   23.6717 H   0  0  0  0  0  0
  -26.1046  -31.5433   20.6204 H   0  0  0  0  0  0
  -26.8345  -30.8176   22.0249 H   0  0  0  0  0  0
  -28.0955  -28.9307   21.2452 H   0  0  0  0  0  0
  -25.9435  -25.9794   18.9375 H   0  0  0  0  0  0
  -23.9543  -27.3324   19.0053 H   0  0  0  0  0  0
  -23.7311  -30.6001   19.4076 H   0  0  0  0  0  0
  -22.7448  -29.2494   19.8781 H   0  0  0  0  0  0
  -25.1290  -36.1909   25.0804 H   0  0  0  0  0  0
  -20.9915  -28.3359   24.1428 H   0  0  0  0  0  0
  -20.5780  -26.2337   23.3609 H   0  0  0  0  0  0
  -21.6650  -26.7592   22.1168 H   0  0  0  0  0  0
  -19.6979  -25.6320   21.1271 H   0  0  0  0  0  0
  -19.6744  -27.3221   20.6756 H   0  0  0  0  0  0
  -17.4210  -26.6686   21.3991 H   0  0  0  0  0  0
  -18.0311  -26.0134   22.9034 H   0  0  0  0  0  0
  -19.7921  -30.7283   24.2277 H   0  0  0  0  0  0
  -17.5026  -31.6323   24.5164 H   0  0  0  0  0  0
  -15.5342  -30.3037   23.7750 H   0  0  0  0  0  0
  -15.8620  -28.0895   22.7118 H   0  0  0  0  0  0
  -24.5897  -30.7115   25.7642 H   0  0  0  0  0  0
  -24.8935  -32.2881   26.4845 H   0  0  0  0  0  0
  -25.7980  -30.8812   27.0177 H   0  0  0  0  0  0
  -26.3070  -29.6634   24.1327 H   0  0  0  0  0  0
  -27.4133  -29.7367   25.4826 H   0  0  0  0  0  0
  -27.8917  -30.4206   23.9520 H   0  0  0  0  0  0
  -27.2687  -33.3661   26.2024 H   0  0  0  0  0  0
  -28.3874  -32.6892   25.0285 H   0  0  0  0  0  0
  -28.0772  -31.8513   26.5396 H   0  0  0  0  0  0
  -28.2543  -38.0117   24.7557 H   0  0  0  0  0  0
  -28.1146  -36.2634   24.6208 H   0  0  0  0  0  0
  -27.2301  -37.1319   25.8850 H   0  0  0  0  0  0
  -20.9351  -29.8674   21.6776 H   0  0  0  0  0  0
  -26.0169  -38.2816   24.1423 H   0  0  0  0  0  0
  -31.7789  -20.7795   21.9448 H   0  0  0  0  0  0
  -33.2482  -18.8669   22.3114 H   0  0  0  0  0  0
  -28.5990  -18.0638   20.8302 H   0  0  0  0  0  0
  -25.5518  -22.3433   19.8856 H   0  0  0  0  0  0
  -26.6689  -24.1608   19.1959 H   0  0  0  0  0  0
  -28.3151  -24.0221   18.7206 H   0  0  0  0  0  0
  -30.1514  -25.0984   21.4718 H   0  0  0  0  0  0
  -29.0811  -24.0538   22.3437 H   0  0  0  0  0  0
  -30.8529  -22.7259   21.1926 H   0  0  0  0  0  0
  -30.3901  -23.3611   19.6665 H   0  0  0  0  0  0
  -27.3305  -25.0323   21.4060 H   0  0  0  0  0  0
  -25.0037  -18.7135   19.4675 H   0  0  0  0  0  0
  -25.2394  -20.0842   18.3901 H   0  0  0  0  0  0
  -24.1090  -20.2152   19.7368 H   0  0  0  0  0  0
  -29.4325  -21.3702   22.4091 H   0  0  0  0  0  0
  -28.1485  -20.4827   21.8305 H   0  0  0  0  0  0
  -25.9857  -20.0902   21.3676 H   0  0  0  0  0  0
  -27.1046  -19.7472   20.0442 H   0  0  0  0  0  0
  -29.0319  -15.5771   21.1598 H   0  0  0  0  0  0
  -29.3375  -21.4575   19.5946 H   0  0  0  0  0  0
  1 25  1  0  0  0
  1 30  2  0  0  0
  1 86  1  0  0  0
  2  3  1  0  0  0
  2 25  1  0  0  0
  2 89  1  0  0  0
  2 90  1  0  0  0
  3  4  1  0  0  0
  3 91  1  0  0  0
  3 92  1  0  0  0
  4  5  1  0  0  0
  4 93  1  0  0  0
  4 94  1  0  0  0
  5  6  1  0  0  0
  5 26  1  0  0  0
  5 95  1  0  0  0
  6 25  1  0  0  0
  6 96  1  0  0  0
  6 97  1  0  0  0
  7  8  2  0  0  0
  7 26  1  0  0  0
  7 29  1  0  0  0
  8  9  1  0  0  0
  8 22  1  0  0  0
  9 10  1  0  0  0
  9 27  2  0  0  0
 10 11  2  0  0  0
 10 15  1  0  0  0
 11 12  1  0  0  0
 11 98  1  0  0  0
 12 13  2  0  0  0
 12 99  1  0  0  0
 13 14  1  0  0  0
 13 31  1  0  0  0
 14 15  2  0  0  0
 14100  1  0  0  0
 15101  1  0  0  0
 16 17  2  0  0  0
 16 21  1  0  0  0
 16 31  1  0  0  0
 17 18  1  0  0  0
 17102  1  0  0  0
 18 19  2  0  0  0
 18103  1  0  0  0
 19 20  1  0  0  0
 19 24  1  0  0  0
 20 21  2  0  0  0
 20104  1  0  0  0
 21 23  1  0  0  0
 22 28  1  0  0  0
 22 32  2  0  0  0
 26 27  1  0  0  0
 28105  1  0  0  0
 28106  1  0  0  0
 29107  1  0  0  0
 29108  1  0  0  0
 33 34  1  0  0  0
 33 66  1  0  0  0
 33 70  2  0  0  0
 34 36  1  0  0  0
 34 59  1  0  0  0
 34109  1  0  0  0
 35 44  2  0  0  0
 35 45  1  0  0  0
 35 68  1  0  0  0
 36 56  1  0  0  0
 36110  1  0  0  0
 37 39  1  0  0  0
 37 47  1  0  0  0
 37 66  1  0  0  0
 37111  1  0  0  0
 38 43  2  0  0  0
 38 46  1  0  0  0
 38 47  1  0  0  0
 39 64  1  0  0  0
 39 67  2  0  0  0
 40 52  1  0  0  0
 40 53  2  0  0  0
 40 58  1  0  0  0
 41112  1  0  0  0
 41113  1  0  0  0
 41114  1  0  0  0
 41 48  1  0  0  0
 42 43  1  0  0  0
 42 66  1  0  0  0
 42115  1  0  0  0
 42116  1  0  0  0
 43 44  1  0  0  0
 44117  1  0  0  0
 45 46  2  0  0  0
 45118  1  0  0  0
 46119  1  0  0  0
 47120  1  0  0  0
 47121  1  0  0  0
 48 56  1  0  0  0
 48 65  1  0  0  0
 48122  1  0  0  0
 49 50  1  0  0  0
 49 53  1  0  0  0
 49 64  1  0  0  0
 49123  1  0  0  0
 50 51  1  0  0  0
 50124  1  0  0  0
 50125  1  0  0  0
 51 52  1  0  0  0
 51126  1  0  0  0
 51127  1  0  0  0
 52128  1  0  0  0
 52129  1  0  0  0
 53 54  1  0  0  0
 54 55  2  0  0  0
 54130  1  0  0  0
 55 57  1  0  0  0
 55131  1  0  0  0
 56 69  2  0  0  0
 57 58  2  0  0  0
 57132  1  0  0  0
 58133  1  0  0  0
 59 60  1  0  0  0
 59 61  1  0  0  0
 59 62  1  0  0  0
 60134  1  0  0  0
 60135  1  0  0  0
 60136  1  0  0  0
 61137  1  0  0  0
 61138  1  0  0  0
 61139  1  0  0  0
 62140  1  0  0  0
 62141  1  0  0  0
 62142  1  0  0  0
 63 65  1  0  0  0
 63143  1  0  0  0
 63144  1  0  0  0
 63145  1  0  0  0
 64146  1  0  0  0
 65147  1  0  0  0
 68 82  1  0  0  0
 71 72  2  0  0  0
 71 74  1  0  0  0
 71148  1  0  0  0
 72 76  1  0  0  0
 72149  1  0  0  0
 73 74  2  0  0  0
 73 75  1  0  0  0
 73150  1  0  0  0
 74 84  1  0  0  0
 75 76  2  0  0  0
 75 86  1  0  0  0
 76 88  1  0  0  0
 77 78  2  0  0  0
 77 79  1  0  0  0
 77 87  1  0  0  0
 78 85  1  0  0  0
 78151  1  0  0  0
 79 82  1  0  0  0
 79152  1  0  0  0
 79153  1  0  0  0
 80 81  1  0  0  0
 80 82  1  0  0  0
 80154  1  0  0  0
 80155  1  0  0  0
 81 87  1  0  0  0
 81156  1  0  0  0
 81157  1  0  0  0
 82158  1  0  0  0
 83 85  1  0  0  0
 83159  1  0  0  0
 83160  1  0  0  0
 83161  1  0  0  0
 84162  1  0  0  0
 84163  1  0  0  0
 84 87  1  0  0  0
 85164  1  0  0  0
 85165  1  0  0  0
 86166  1  0  0  0
 87167  1  0  0  0
M  CHG  1  87   1
M  ISO  4   1 100  68 101  82 101  86 100
M  END
> <chiral flag>
0

> <version>
0

> <s_m_source_file>
/data/baiqing/PycharmProjects/Reinvent-master-3.2/result/LINK_invent/BTK/process_docking_weight1_custom_product_contain_oxygen_bond_distance_aromatic_linkinvent_7_9_3/rearranged_h_0046.sdf

> <i_m_source_file_index>
42

> <r_mmod_Potential_Energy-OPLS-2005>
33.030704498291

> <r_mmod_Stretch_Energy-OPLS-2005>
98.934211730957

> <r_mmod_Bend_Energy-OPLS-2005>
170.85383605957

> <r_mmod_Torsional_Energy-OPLS-2005>
276.32861328125

> <r_mmod_Improper_Torsional_Energy-OPLS-2005>
6.18451690673828

> <r_mmod_Van_der_Waal_Energy-OPLS-2005>
170.003448486328

> <r_mmod_Electrostatic_Energy-OPLS-2005>
-279.630523681641

> <r_mmod_Solvation_Energy-OPLS-2005>
-463.168151855469

> <b_mmod_Minimization_Converged-OPLS-2005>
0

> <r_mmod_RMS_Derivative-OPLS-2005>
4.67173767089844

$$$$
42
                    3D
 Structure written by MMmdl.
154162  0  0  1  0            999 V2000
  -30.4029  -15.4123   20.3745 C   0  0  0  0  0  0
  -30.4267  -12.9284   19.5097 C   0  0  0  0  0  0
  -29.5275  -12.6047   18.2895 C   0  0  0  0  0  0
  -28.0927  -12.2835   18.7400 C   0  0  0  0  0  0
  -27.5970  -13.2845   19.8106 C   0  0  2  0  0  0
  -28.6319  -13.5422   20.9267 C   0  0  0  0  0  0
  -25.2340  -13.8265   20.5797 C   0  0  0  0  0  0
  -24.1703  -13.0436   20.9290 C   0  0  0  0  0  0
  -24.6381  -11.6935   20.8791 C   0  0  0  0  0  0
  -23.9088  -10.4287   21.0409 C   0  0  0  0  0  0
  -24.3630   -9.4199   21.9180 C   0  0  0  0  0  0
  -23.6309   -8.2235   22.0748 C   0  0  0  0  0  0
  -22.4286   -8.0269   21.3543 C   0  0  0  0  0  0
  -21.9930   -9.0239   20.4641 C   0  0  0  0  0  0
  -22.7266  -10.2115   20.3049 C   0  0  0  0  0  0
  -21.6849   -6.0730   22.5282 C   0  0  0  0  0  0
  -21.4015   -6.5637   23.8223 C   0  0  0  0  0  0
  -21.3664   -5.6787   24.9179 C   0  0  0  0  0  0
  -21.6049   -4.3055   24.7233 C   0  0  0  0  0  0
  -21.8817   -3.8143   23.4351 C   0  0  0  0  0  0
  -21.9191   -4.6963   22.3412 C   0  0  0  0  0  0
  -22.7725  -13.5177   21.1918 C   0  0  0  0  0  0
  -22.1656   -4.2143   21.0988 F   0  0  0  0  0  0
  -21.5628   -3.4537   25.7743 F   0  0  0  0  0  0
  -29.8272  -14.1004   20.2639 N   0  0  0  0  0  0
  -26.2760  -12.9548   20.3245 N   0  0  0  0  0  0
  -25.9316  -11.6645   20.5736 N   0  0  0  0  0  0
  -22.0396  -12.8148   22.0473 N   0  0  0  0  0  0
  -25.4014  -15.1997   20.4252 N   0  0  0  0  0  0
  -31.6401  -15.3438   20.2784 O   0  0  0  0  0  0
  -21.6649   -6.8870   21.4239 O   0  0  0  0  0  0
  -22.3401  -14.5485   20.6762 O   0  0  0  0  0  0
  -24.6726  -31.8146   23.1596 C   0  0  0  0  0  0
  -25.9370  -32.4538   23.8110 C   0  0  1  0  0  0
  -27.2217  -26.8401   20.2088 C   0  0  0  0  0  0
  -25.6012  -33.8356   24.2021 N   0  0  0  0  0  0
  -23.4897  -30.4256   21.5103 C   0  0  2  0  0  0
  -24.9417  -28.7856   20.1217 C   0  0  0  0  0  0
  -22.7718  -29.4433   22.4741 C   0  0  0  0  0  0
  -18.0343  -28.1427   22.8479 C   0  0  0  0  0  0
  -24.1477  -36.7177   23.2657 C   0  0  0  0  0  0
  -26.0632  -30.5961   21.3979 C   0  0  0  0  0  0
  -26.1293  -29.1722   20.7549 C   0  0  0  0  0  0
  -27.2638  -28.2276   20.7611 C   0  0  0  0  0  0
  -25.9979  -26.6198   19.5369 C   0  0  0  0  0  0
  -24.9059  -27.5303   19.4908 C   0  0  0  0  0  0
  -23.7335  -29.7278   20.1422 C   0  0  0  0  0  0
  -25.4115  -36.2930   24.0307 C   0  0  1  0  0  0
  -20.5981  -28.3781   23.1158 C   0  0  2  0  0  0
  -20.6811  -26.9457   22.5389 C   0  0  0  0  0  0
  -19.5767  -26.6384   21.5219 C   0  0  0  0  0  0
  -18.1955  -26.7968   22.1627 C   0  0  0  0  0  0
  -19.1609  -28.8916   23.2813 C   0  0  0  0  0  0
  -18.9523  -30.1515   23.8839 C   0  0  0  0  0  0
  -17.6510  -30.6615   24.0562 C   0  0  0  0  0  0
  -25.9105  -34.9328   23.4986 C   0  0  0  0  0  0
  -16.5401  -29.9106   23.6345 C   0  0  0  0  0  0
  -16.7323  -28.6527   23.0363 C   0  0  0  0  0  0
  -26.4599  -31.6514   25.0671 C   0  0  0  0  0  0
  -25.3704  -31.3801   26.1312 C   0  0  0  0  0  0
  -27.0508  -30.2867   24.6459 C   0  0  0  0  0  0
  -27.6057  -32.4359   25.7485 C   0  0  0  0  0  0
  -27.5550  -37.1742   24.8478 C   0  0  0  0  0  0
  -21.4377  -29.3073   22.3499 N   0  0  0  0  0  0
  -26.4235  -37.3689   23.9448 N   0  0  0  0  0  0
  -24.7649  -30.9758   22.0758 N   0  0  0  0  0  0
  -23.4229  -28.8026   23.3026 O   0  0  0  0  0  0
  -28.2469  -25.7259   20.1703 O   0  0  0  0  0  0
  -26.5724  -34.8894   22.4586 O   0  0  0  0  0  0
  -23.5783  -32.1152   23.6644 O   0  0  0  0  0  0
  -30.7689  -18.0266   22.0240 C   0  0  0  0  0  0
  -31.2307  -18.9614   22.9529 C   0  0  0  0  0  0
  -30.0321  -20.7061   21.8083 C   0  0  0  0  0  0
  -29.5323  -19.8719   20.7731 C   0  0  0  0  0  0
  -29.9274  -18.2893   20.9046 C   0  0  0  0  0  0
  -30.8573  -20.2923   22.8535 C   0  0  0  0  0  0
  -28.8209  -21.0831   19.7952 C   0  0  0  0  0  0
  -28.4461  -22.5699   19.7156 C   0  0  0  0  0  0
  -28.5721  -20.2565   18.5321 C   0  0  0  0  0  0
  -28.0825  -23.0850   18.3211 C   0  0  0  0  0  0
  -28.2102  -24.0867   20.6109 C   0  0  0  0  0  0
  -29.6929  -16.7618   20.3167 N   0  0  0  0  0  0
  -31.4271  -21.4384   24.0113 Cl  0  0  0  0  0  0
  -31.4300  -13.1669   19.1576 H   0  0  0  0  0  0
  -30.5453  -12.0565   20.1559 H   0  0  0  0  0  0
  -29.9396  -11.7756   17.7144 H   0  0  0  0  0  0
  -29.5113  -13.4632   17.6162 H   0  0  0  0  0  0
  -28.0898  -11.2740   19.1558 H   0  0  0  0  0  0
  -27.4173  -12.2605   17.8846 H   0  0  0  0  0  0
  -27.4806  -14.2256   19.2720 H   0  0  0  0  0  0
  -28.8500  -12.6354   21.4914 H   0  0  0  0  0  0
  -28.2478  -14.2696   21.6434 H   0  0  0  0  0  0
  -25.2762   -9.5677   22.4767 H   0  0  0  0  0  0
  -24.0020   -7.4619   22.7456 H   0  0  0  0  0  0
  -21.0870   -8.8760   19.8932 H   0  0  0  0  0  0
  -22.3725  -10.9655   19.6163 H   0  0  0  0  0  0
  -21.2003   -7.6139   23.9722 H   0  0  0  0  0  0
  -21.1493   -6.0517   25.9083 H   0  0  0  0  0  0
  -22.0593   -2.7605   23.2860 H   0  0  0  0  0  0
  -22.4053  -11.9823   22.4854 H   0  0  0  0  0  0
  -21.1000  -13.1121   22.2689 H   0  0  0  0  0  0
  -24.6392  -15.8602   20.5338 H   0  0  0  0  0  0
  -26.2611  -15.6357   20.1198 H   0  0  0  0  0  0
  -26.7449  -32.5052   23.0833 H   0  0  0  0  0  0
  -25.0132  -33.9420   25.0157 H   0  0  0  0  0  0
  -22.8081  -31.2605   21.3298 H   0  0  0  0  0  0
  -23.3751  -35.9498   23.3271 H   0  0  0  0  0  0
  -24.3547  -36.8853   22.2077 H   0  0  0  0  0  0
  -23.7214  -37.6348   23.6733 H   0  0  0  0  0  0
  -26.2476  -31.3221   20.6052 H   0  0  0  0  0  0
  -26.9226  -30.6630   22.0528 H   0  0  0  0  0  0
  -28.1715  -28.5432   21.2541 H   0  0  0  0  0  0
  -25.8674  -25.6656   19.0447 H   0  0  0  0  0  0
  -24.0069  -27.2262   18.9736 H   0  0  0  0  0  0
  -23.9004  -30.4880   19.3782 H   0  0  0  0  0  0
  -22.8397  -29.1899   19.8208 H   0  0  0  0  0  0
  -25.1318  -36.1685   25.0794 H   0  0  0  0  0  0
  -21.0086  -28.3378   24.1274 H   0  0  0  0  0  0
  -20.5665  -26.2438   23.3662 H   0  0  0  0  0  0
  -21.6681  -26.7411   22.1208 H   0  0  0  0  0  0
  -19.6926  -25.6279   21.1284 H   0  0  0  0  0  0
  -19.6668  -27.3173   20.6729 H   0  0  0  0  0  0
  -17.4234  -26.6734   21.4021 H   0  0  0  0  0  0
  -18.0318  -26.0119   22.9024 H   0  0  0  0  0  0
  -19.7994  -30.7352   24.2169 H   0  0  0  0  0  0
  -17.5065  -31.6282   24.5196 H   0  0  0  0  0  0
  -15.5401  -30.2989   23.7699 H   0  0  0  0  0  0
  -15.8731  -28.0822   22.7100 H   0  0  0  0  0  0
  -24.5915  -30.7113   25.7639 H   0  0  0  0  0  0
  -24.8883  -32.3024   26.4554 H   0  0  0  0  0  0
  -25.7931  -30.9096   27.0200 H   0  0  0  0  0  0
  -26.3196  -29.6520   24.1435 H   0  0  0  0  0  0
  -27.3999  -29.7248   25.5139 H   0  0  0  0  0  0
  -27.9154  -30.4043   23.9916 H   0  0  0  0  0  0
  -27.2599  -33.3737   26.1855 H   0  0  0  0  0  0
  -28.3983  -32.6784   25.0393 H   0  0  0  0  0  0
  -28.0605  -31.8618   26.5570 H   0  0  0  0  0  0
  -28.2550  -38.0055   24.7537 H   0  0  0  0  0  0
  -28.1052  -36.2581   24.6271 H   0  0  0  0  0  0
  -27.2295  -37.1363   25.8888 H   0  0  0  0  0  0
  -20.9656  -29.8757   21.6603 H   0  0  0  0  0  0
  -26.0058  -38.2737   24.1455 H   0  0  0  0  0  0
  -31.1053  -17.0280   22.2512 H   0  0  0  0  0  0
  -31.8698  -18.6430   23.7644 H   0  0  0  0  0  0
  -29.8138  -21.7634   21.8142 H   0  0  0  0  0  0
  -29.5055  -20.0898   17.9938 H   0  0  0  0  0  0
  -27.8363  -20.6601   17.8404 H   0  0  0  0  0  0
  -28.1685  -19.2799   18.7993 H   0  0  0  0  0  0
  -27.0040  -23.0649   18.1637 H   0  0  0  0  0  0
  -28.5856  -22.5692   17.5050 H   0  0  0  0  0  0
  -28.4112  -24.1165   18.1952 H   0  0  0  0  0  0
  -28.8670  -24.0088   21.4775 H   0  0  0  0  0  0
  -27.2116  -23.9685   21.0311 H   0  0  0  0  0  0
  -28.7538  -16.6425   19.9665 H   0  0  0  0  0  0
  1 25  1  0  0  0
  1 30  2  0  0  0
  1 82  1  0  0  0
  2  3  1  0  0  0
  2 25  1  0  0  0
  2 84  1  0  0  0
  2 85  1  0  0  0
  3  4  1  0  0  0
  3 86  1  0  0  0
  3 87  1  0  0  0
  4  5  1  0  0  0
  4 88  1  0  0  0
  4 89  1  0  0  0
  5  6  1  0  0  0
  5 26  1  0  0  0
  5 90  1  0  0  0
  6 25  1  0  0  0
  6 91  1  0  0  0
  6 92  1  0  0  0
  7  8  2  0  0  0
  7 26  1  0  0  0
  7 29  1  0  0  0
  8  9  1  0  0  0
  8 22  1  0  0  0
  9 10  1  0  0  0
  9 27  2  0  0  0
 10 11  2  0  0  0
 10 15  1  0  0  0
 11 12  1  0  0  0
 11 93  1  0  0  0
 12 13  2  0  0  0
 12 94  1  0  0  0
 13 14  1  0  0  0
 13 31  1  0  0  0
 14 15  2  0  0  0
 14 95  1  0  0  0
 15 96  1  0  0  0
 16 17  2  0  0  0
 16 21  1  0  0  0
 16 31  1  0  0  0
 17 18  1  0  0  0
 17 97  1  0  0  0
 18 19  2  0  0  0
 18 98  1  0  0  0
 19 20  1  0  0  0
 19 24  1  0  0  0
 20 21  2  0  0  0
 20 99  1  0  0  0
 21 23  1  0  0  0
 22 28  1  0  0  0
 22 32  2  0  0  0
 26 27  1  0  0  0
 28100  1  0  0  0
 28101  1  0  0  0
 29102  1  0  0  0
 29103  1  0  0  0
 33 34  1  0  0  0
 33 66  1  0  0  0
 33 70  2  0  0  0
 34 36  1  0  0  0
 34 59  1  0  0  0
 34104  1  0  0  0
 35 44  2  0  0  0
 35 45  1  0  0  0
 35 68  1  0  0  0
 36 56  1  0  0  0
 36105  1  0  0  0
 37 39  1  0  0  0
 37 47  1  0  0  0
 37 66  1  0  0  0
 37106  1  0  0  0
 38 43  2  0  0  0
 38 46  1  0  0  0
 38 47  1  0  0  0
 39 64  1  0  0  0
 39 67  2  0  0  0
 40 52  1  0  0  0
 40 53  2  0  0  0
 40 58  1  0  0  0
 41107  1  0  0  0
 41108  1  0  0  0
 41109  1  0  0  0
 41 48  1  0  0  0
 42 43  1  0  0  0
 42 66  1  0  0  0
 42110  1  0  0  0
 42111  1  0  0  0
 43 44  1  0  0  0
 44112  1  0  0  0
 45 46  2  0  0  0
 45113  1  0  0  0
 46114  1  0  0  0
 47115  1  0  0  0
 47116  1  0  0  0
 48 56  1  0  0  0
 48 65  1  0  0  0
 48117  1  0  0  0
 49 50  1  0  0  0
 49 53  1  0  0  0
 49 64  1  0  0  0
 49118  1  0  0  0
 50 51  1  0  0  0
 50119  1  0  0  0
 50120  1  0  0  0
 51 52  1  0  0  0
 51121  1  0  0  0
 51122  1  0  0  0
 52123  1  0  0  0
 52124  1  0  0  0
 53 54  1  0  0  0
 54 55  2  0  0  0
 54125  1  0  0  0
 55 57  1  0  0  0
 55126  1  0  0  0
 56 69  2  0  0  0
 57 58  2  0  0  0
 57127  1  0  0  0
 58128  1  0  0  0
 59 60  1  0  0  0
 59 61  1  0  0  0
 59 62  1  0  0  0
 60129  1  0  0  0
 60130  1  0  0  0
 60131  1  0  0  0
 61132  1  0  0  0
 61133  1  0  0  0
 61134  1  0  0  0
 62135  1  0  0  0
 62136  1  0  0  0
 62137  1  0  0  0
 63 65  1  0  0  0
 63138  1  0  0  0
 63139  1  0  0  0
 63140  1  0  0  0
 64141  1  0  0  0
 65142  1  0  0  0
 68 81  1  0  0  0
 71 72  2  0  0  0
 71 75  1  0  0  0
 71143  1  0  0  0
 72 76  1  0  0  0
 72144  1  0  0  0
 73 74  1  0  0  0
 73 76  2  0  0  0
 73145  1  0  0  0
 74 75  2  0  0  0
 74 77  1  0  0  0
 75 82  1  0  0  0
 76 83  1  0  0  0
 77 78  2  0  0  0
 77 79  1  0  0  0
 78 80  1  0  0  0
 78 81  1  0  0  0
 79146  1  0  0  0
 79147  1  0  0  0
 79148  1  0  0  0
 80149  1  0  0  0
 80150  1  0  0  0
 80151  1  0  0  0
 81152  1  0  0  0
 81153  1  0  0  0
 82154  1  0  0  0
M  ISO  4   1 100  68 101  81 101  82 100
M  END
> <chiral flag>
0

> <version>
0

> <s_m_source_file>
/data/baiqing/PycharmProjects/Reinvent-master-3.2/result/LINK_invent/BTK/process_docking_weight1_custom_product_contain_oxygen_bond_distance_aromatic_linkinvent_7_9_3/rearranged_h_0046.sdf

> <i_m_source_file_index>
43

> <r_mmod_Potential_Energy-OPLS-2005>
1913.87744140625

> <r_mmod_Stretch_Energy-OPLS-2005>
798.507385253906

> <r_mmod_Bend_Energy-OPLS-2005>
672.809020996094

> <r_mmod_Torsional_Energy-OPLS-2005>
264.160278320312

> <r_mmod_Improper_Torsional_Energy-OPLS-2005>
8.18939304351807

> <r_mmod_Van_der_Waal_Energy-OPLS-2005>
148.210311889648

> <r_mmod_Electrostatic_Energy-OPLS-2005>
-377.483459472656

> <r_mmod_Solvation_Energy-OPLS-2005>
-205.971542358398

> <b_mmod_Minimization_Converged-OPLS-2005>
0

> <r_mmod_RMS_Derivative-OPLS-2005>
2.46097779273987

$$$$
43
                    3D
 Structure written by MMmdl.
164173  0  0  1  0            999 V2000
  -30.6109  -14.7340   20.4603 C   0  0  0  0  0  0
  -30.4336  -12.4461   19.4668 C   0  0  0  0  0  0
  -29.5099  -12.5013   18.2302 C   0  0  0  0  0  0
  -28.0360  -12.3248   18.6460 C   0  0  0  0  0  0
  -27.6414  -13.2259   19.8467 C   0  0  2  0  0  0
  -28.6864  -13.1569   20.9814 C   0  0  0  0  0  0
  -25.2517  -13.8167   20.5690 C   0  0  0  0  0  0
  -24.1802  -13.0421   20.9194 C   0  0  0  0  0  0
  -24.6387  -11.6899   20.8745 C   0  0  0  0  0  0
  -23.9058  -10.4281   21.0404 C   0  0  0  0  0  0
  -24.3613   -9.4205   21.9185 C   0  0  0  0  0  0
  -23.6289   -8.2246   22.0762 C   0  0  0  0  0  0
  -22.4271   -8.0282   21.3548 C   0  0  0  0  0  0
  -21.9905   -9.0250   20.4650 C   0  0  0  0  0  0
  -22.7233  -10.2125   20.3054 C   0  0  0  0  0  0
  -21.6852   -6.0735   22.5279 C   0  0  0  0  0  0
  -21.4012   -6.5640   23.8211 C   0  0  0  0  0  0
  -21.3653   -5.6793   24.9175 C   0  0  0  0  0  0
  -21.6039   -4.3055   24.7222 C   0  0  0  0  0  0
  -21.8823   -3.8145   23.4344 C   0  0  0  0  0  0
  -21.9195   -4.6964   22.3402 C   0  0  0  0  0  0
  -22.7828  -13.5219   21.1849 C   0  0  0  0  0  0
  -22.1664   -4.2152   21.0978 F   0  0  0  0  0  0
  -21.5622   -3.4538   25.7733 F   0  0  0  0  0  0
  -29.9865  -13.5083   20.3967 N   0  0  0  0  0  0
  -26.2933  -12.9369   20.3256 N   0  0  0  0  0  0
  -25.9310  -11.6514   20.5727 N   0  0  0  0  0  0
  -22.0466  -12.8217   22.0405 N   0  0  0  0  0  0
  -25.4205  -15.1892   20.4118 N   0  0  0  0  0  0
  -31.8050  -14.8169   20.1591 O   0  0  0  0  0  0
  -21.6641   -6.8876   21.4239 O   0  0  0  0  0  0
  -22.3528  -14.5532   20.6699 O   0  0  0  0  0  0
  -24.6309  -31.8522   23.1948 C   0  0  0  0  0  0
  -25.9124  -32.4746   23.8308 C   0  0  1  0  0  0
  -27.2277  -27.2509   20.1211 C   0  0  0  0  0  0
  -25.5923  -33.8551   24.2239 N   0  0  0  0  0  0
  -23.4284  -30.4710   21.5404 C   0  0  2  0  0  0
  -24.8747  -28.9139   20.1058 C   0  0  0  0  0  0
  -22.7506  -29.4560   22.4938 C   0  0  0  0  0  0
  -18.0284  -28.1386   22.8494 C   0  0  0  0  0  0
  -24.1480  -36.7270   23.2648 C   0  0  0  0  0  0
  -25.9744  -30.7607   21.3743 C   0  0  0  0  0  0
  -26.0446  -29.3823   20.7158 C   0  0  0  0  0  0
  -27.2169  -28.5600   20.7145 C   0  0  0  0  0  0
  -26.0299  -26.8453   19.4917 C   0  0  0  0  0  0
  -24.8740  -27.6539   19.4863 C   0  0  0  0  0  0
  -23.6428  -29.7992   20.1571 C   0  0  0  0  0  0
  -25.4114  -36.3070   24.0327 C   0  0  1  0  0  0
  -20.5885  -28.3663   23.1301 C   0  0  2  0  0  0
  -20.6767  -26.9390   22.5427 C   0  0  0  0  0  0
  -19.5748  -26.6364   21.5233 C   0  0  0  0  0  0
  -18.1920  -26.7936   22.1620 C   0  0  0  0  0  0
  -19.1535  -28.8848   23.2886 C   0  0  0  0  0  0
  -18.9464  -30.1467   23.8880 C   0  0  0  0  0  0
  -17.6465  -30.6591   24.0565 C   0  0  0  0  0  0
  -25.9052  -34.9439   23.5084 C   0  0  0  0  0  0
  -16.5352  -29.9085   23.6353 C   0  0  0  0  0  0
  -16.7267  -28.6504   23.0366 C   0  0  0  0  0  0
  -26.4483  -31.6602   25.0721 C   0  0  0  0  0  0
  -25.3697  -31.3761   26.1443 C   0  0  0  0  0  0
  -27.0353  -30.3034   24.6202 C   0  0  0  0  0  0
  -27.6038  -32.4353   25.7489 C   0  0  0  0  0  0
  -27.5579  -37.1797   24.8474 C   0  0  0  0  0  0
  -21.4206  -29.3022   22.3709 N   0  0  0  0  0  0
  -26.4291  -37.3776   23.9418 N   0  0  0  0  0  0
  -24.6976  -31.0474   22.0929 N   0  0  0  0  0  0
  -23.4213  -28.8105   23.3030 O   0  0  0  0  0  0
  -28.3463  -26.3885   20.2221 O   0  0  0  0  0  0
  -26.5640  -34.8921   22.4666 O   0  0  0  0  0  0
  -23.5451  -32.1342   23.7235 O   0  0  0  0  0  0
  -31.7871  -19.0275   21.3969 C   0  0  0  0  0  0
  -31.4363  -17.6840   21.1797 C   0  0  0  0  0  0
  -30.8832  -20.0911   21.1826 C   0  0  0  0  0  0
  -29.5773  -19.8467   20.6759 C   0  0  0  0  0  0
  -29.2340  -18.4317   20.4658 C   0  0  0  0  0  0
  -30.1528  -17.3183   20.7244 C   0  0  0  0  0  0
  -28.3527  -23.7002   20.4483 C   0  0  0  0  0  0
  -30.5028  -23.6995   18.5231 C   0  0  0  0  0  0
  -29.8811  -25.0730   18.8784 C   0  0  0  0  0  0
  -29.5481  -22.4981   18.6868 C   0  0  0  0  0  0
  -28.4934  -25.0387   19.5607 C   0  0  2  0  0  0
  -31.3650  -21.4813   21.5625 C   0  0  0  0  0  0
  -27.8391  -18.1028   19.9564 C   0  0  0  0  0  0
  -28.5365  -21.0706   20.5071 C   0  0  0  0  0  0
  -28.8692  -22.4845   19.9864 N   0  0  0  0  0  0
  -29.8179  -15.8679   20.6200 N   0  0  0  0  0  0
  -27.7268  -23.7650   21.5089 O   0  0  0  0  0  0
  -31.4741  -12.5699   19.1626 H   0  0  0  0  0  0
  -30.3776  -11.4673   19.9463 H   0  0  0  0  0  0
  -29.7913  -11.7277   17.5137 H   0  0  0  0  0  0
  -29.6374  -13.4563   17.7167 H   0  0  0  0  0  0
  -27.8968  -11.2755   18.9110 H   0  0  0  0  0  0
  -27.3780  -12.5121   17.7970 H   0  0  0  0  0  0
  -27.6365  -14.2467   19.4651 H   0  0  0  0  0  0
  -28.7185  -12.1570   21.4184 H   0  0  0  0  0  0
  -28.4221  -13.8369   21.7926 H   0  0  0  0  0  0
  -25.2758   -9.5686   22.4761 H   0  0  0  0  0  0
  -23.9995   -7.4639   22.7488 H   0  0  0  0  0  0
  -21.0838   -8.8761   19.8958 H   0  0  0  0  0  0
  -22.3689  -10.9661   19.6165 H   0  0  0  0  0  0
  -21.2006   -7.6150   23.9715 H   0  0  0  0  0  0
  -21.1462   -6.0522   25.9076 H   0  0  0  0  0  0
  -22.0605   -2.7609   23.2841 H   0  0  0  0  0  0
  -22.4075  -11.9875   22.4789 H   0  0  0  0  0  0
  -21.1086  -13.1253   22.2600 H   0  0  0  0  0  0
  -24.6511  -15.8389   20.5291 H   0  0  0  0  0  0
  -26.2576  -15.6272   20.0547 H   0  0  0  0  0  0
  -26.7196  -32.5366   23.1051 H   0  0  0  0  0  0
  -25.0130  -33.9705   25.0423 H   0  0  0  0  0  0
  -22.7257  -31.2926   21.3926 H   0  0  0  0  0  0
  -23.3761  -35.9585   23.3304 H   0  0  0  0  0  0
  -24.3579  -36.8899   22.2069 H   0  0  0  0  0  0
  -23.7207  -37.6456   23.6668 H   0  0  0  0  0  0
  -26.1186  -31.5200   20.6041 H   0  0  0  0  0  0
  -26.8515  -30.8081   22.0081 H   0  0  0  0  0  0
  -28.1106  -28.9119   21.2095 H   0  0  0  0  0  0
  -25.9400  -25.8742   19.0310 H   0  0  0  0  0  0
  -23.9743  -27.2830   19.0148 H   0  0  0  0  0  0
  -23.7590  -30.5719   19.3967 H   0  0  0  0  0  0
  -22.7607  -29.2277   19.8583 H   0  0  0  0  0  0
  -25.1300  -36.1923   25.0819 H   0  0  0  0  0  0
  -20.9967  -28.3200   24.1423 H   0  0  0  0  0  0
  -20.5685  -26.2263   23.3616 H   0  0  0  0  0  0
  -21.6633  -26.7425   22.1216 H   0  0  0  0  0  0
  -19.6913  -25.6272   21.1264 H   0  0  0  0  0  0
  -19.6700  -27.3172   20.6766 H   0  0  0  0  0  0
  -17.4214  -26.6717   21.3993 H   0  0  0  0  0  0
  -18.0271  -26.0068   22.8991 H   0  0  0  0  0  0
  -19.7942  -30.7300   24.2200 H   0  0  0  0  0  0
  -17.5022  -31.6269   24.5169 H   0  0  0  0  0  0
  -15.5358  -30.2994   23.7690 H   0  0  0  0  0  0
  -15.8657  -28.0831   22.7093 H   0  0  0  0  0  0
  -24.5907  -30.7053   25.7805 H   0  0  0  0  0  0
  -24.8836  -32.2924   26.4791 H   0  0  0  0  0  0
  -25.8012  -30.9029   27.0274 H   0  0  0  0  0  0
  -26.2945  -29.6782   24.1206 H   0  0  0  0  0  0
  -27.4062  -29.7291   25.4708 H   0  0  0  0  0  0
  -27.8793  -30.4370   23.9438 H   0  0  0  0  0  0
  -27.2663  -33.3706   26.1961 H   0  0  0  0  0  0
  -28.3882  -32.6822   25.0326 H   0  0  0  0  0  0
  -28.0646  -31.8540   26.5487 H   0  0  0  0  0  0
  -28.2604  -38.0090   24.7529 H   0  0  0  0  0  0
  -28.1065  -36.2624   24.6280 H   0  0  0  0  0  0
  -27.2305  -37.1427   25.8882 H   0  0  0  0  0  0
  -20.9381  -29.8784   21.6958 H   0  0  0  0  0  0
  -26.0162  -38.2847   24.1422 H   0  0  0  0  0  0
  -32.7782  -19.2377   21.7765 H   0  0  0  0  0  0
  -32.1772  -16.9323   21.4125 H   0  0  0  0  0  0
  -31.3797  -23.5449   19.1515 H   0  0  0  0  0  0
  -30.8853  -23.7189   17.5022 H   0  0  0  0  0  0
  -29.8038  -25.6754   17.9719 H   0  0  0  0  0  0
  -30.5836  -25.6127   19.5158 H   0  0  0  0  0  0
  -30.1030  -21.5711   18.5400 H   0  0  0  0  0  0
  -28.7909  -22.5209   17.9010 H   0  0  0  0  0  0
  -27.7710  -24.9281   18.7552 H   0  0  0  0  0  0
  -32.1463  -21.4305   22.3230 H   0  0  0  0  0  0
  -30.5698  -22.0979   21.9805 H   0  0  0  0  0  0
  -31.7898  -21.9806   20.6946 H   0  0  0  0  0  0
  -27.0874  -18.3975   20.6892 H   0  0  0  0  0  0
  -27.7015  -17.0434   19.7470 H   0  0  0  0  0  0
  -27.6432  -18.6313   19.0234 H   0  0  0  0  0  0
  -28.0614  -21.1823   21.4817 H   0  0  0  0  0  0
  -27.7348  -20.7343   19.8528 H   0  0  0  0  0  0
  -28.8352  -15.6544   20.6829 H   0  0  0  0  0  0
  1 25  1  0  0  0
  1 30  2  0  0  0
  1 86  1  0  0  0
  2  3  1  0  0  0
  2 25  1  0  0  0
  2 88  1  0  0  0
  2 89  1  0  0  0
  3  4  1  0  0  0
  3 90  1  0  0  0
  3 91  1  0  0  0
  4  5  1  0  0  0
  4 92  1  0  0  0
  4 93  1  0  0  0
  5  6  1  0  0  0
  5 26  1  0  0  0
  5 94  1  0  0  0
  6 25  1  0  0  0
  6 95  1  0  0  0
  6 96  1  0  0  0
  7  8  2  0  0  0
  7 26  1  0  0  0
  7 29  1  0  0  0
  8  9  1  0  0  0
  8 22  1  0  0  0
  9 10  1  0  0  0
  9 27  2  0  0  0
 10 11  2  0  0  0
 10 15  1  0  0  0
 11 12  1  0  0  0
 11 97  1  0  0  0
 12 13  2  0  0  0
 12 98  1  0  0  0
 13 14  1  0  0  0
 13 31  1  0  0  0
 14 15  2  0  0  0
 14 99  1  0  0  0
 15100  1  0  0  0
 16 17  2  0  0  0
 16 21  1  0  0  0
 16 31  1  0  0  0
 17 18  1  0  0  0
 17101  1  0  0  0
 18 19  2  0  0  0
 18102  1  0  0  0
 19 20  1  0  0  0
 19 24  1  0  0  0
 20 21  2  0  0  0
 20103  1  0  0  0
 21 23  1  0  0  0
 22 28  1  0  0  0
 22 32  2  0  0  0
 26 27  1  0  0  0
 28104  1  0  0  0
 28105  1  0  0  0
 29106  1  0  0  0
 29107  1  0  0  0
 33 34  1  0  0  0
 33 66  1  0  0  0
 33 70  2  0  0  0
 34 36  1  0  0  0
 34 59  1  0  0  0
 34108  1  0  0  0
 35 44  2  0  0  0
 35 45  1  0  0  0
 35 68  1  0  0  0
 36 56  1  0  0  0
 36109  1  0  0  0
 37 39  1  0  0  0
 37 47  1  0  0  0
 37 66  1  0  0  0
 37110  1  0  0  0
 38 43  2  0  0  0
 38 46  1  0  0  0
 38 47  1  0  0  0
 39 64  1  0  0  0
 39 67  2  0  0  0
 40 52  1  0  0  0
 40 53  2  0  0  0
 40 58  1  0  0  0
 41111  1  0  0  0
 41112  1  0  0  0
 41113  1  0  0  0
 41 48  1  0  0  0
 42 43  1  0  0  0
 42 66  1  0  0  0
 42114  1  0  0  0
 42115  1  0  0  0
 43 44  1  0  0  0
 44116  1  0  0  0
 45 46  2  0  0  0
 45117  1  0  0  0
 46118  1  0  0  0
 47119  1  0  0  0
 47120  1  0  0  0
 48 56  1  0  0  0
 48 65  1  0  0  0
 48121  1  0  0  0
 49 50  1  0  0  0
 49 53  1  0  0  0
 49 64  1  0  0  0
 49122  1  0  0  0
 50 51  1  0  0  0
 50123  1  0  0  0
 50124  1  0  0  0
 51 52  1  0  0  0
 51125  1  0  0  0
 51126  1  0  0  0
 52127  1  0  0  0
 52128  1  0  0  0
 53 54  1  0  0  0
 54 55  2  0  0  0
 54129  1  0  0  0
 55 57  1  0  0  0
 55130  1  0  0  0
 56 69  2  0  0  0
 57 58  2  0  0  0
 57131  1  0  0  0
 58132  1  0  0  0
 59 60  1  0  0  0
 59 61  1  0  0  0
 59 62  1  0  0  0
 60133  1  0  0  0
 60134  1  0  0  0
 60135  1  0  0  0
 61136  1  0  0  0
 61137  1  0  0  0
 61138  1  0  0  0
 62139  1  0  0  0
 62140  1  0  0  0
 62141  1  0  0  0
 63 65  1  0  0  0
 63142  1  0  0  0
 63143  1  0  0  0
 63144  1  0  0  0
 64145  1  0  0  0
 65146  1  0  0  0
 68 81  1  0  0  0
 71 72  2  0  0  0
 71 73  1  0  0  0
 71147  1  0  0  0
 72 76  1  0  0  0
 72148  1  0  0  0
 73 74  2  0  0  0
 73 82  1  0  0  0
 74 75  1  0  0  0
 74 84  1  0  0  0
 75 76  2  0  0  0
 75 83  1  0  0  0
 76 86  1  0  0  0
 77 81  1  0  0  0
 77 85  1  0  0  0
 77 87  2  0  0  0
 78 79  1  0  0  0
 78 80  1  0  0  0
 78149  1  0  0  0
 78150  1  0  0  0
 79 81  1  0  0  0
 79151  1  0  0  0
 79152  1  0  0  0
 80 85  1  0  0  0
 80153  1  0  0  0
 80154  1  0  0  0
 81155  1  0  0  0
 82156  1  0  0  0
 82157  1  0  0  0
 82158  1  0  0  0
 83159  1  0  0  0
 83160  1  0  0  0
 83161  1  0  0  0
 84 85  1  0  0  0
 84162  1  0  0  0
 84163  1  0  0  0
 86164  1  0  0  0
M  ISO  4   1 100  68 101  81 101  86 100
M  END
> <chiral flag>
0

> <version>
0

> <s_m_source_file>
/data/baiqing/PycharmProjects/Reinvent-master-3.2/result/LINK_invent/BTK/process_docking_weight1_custom_product_contain_oxygen_bond_distance_aromatic_linkinvent_7_9_3/rearranged_h_0046.sdf

> <i_m_source_file_index>
44

> <r_mmod_Potential_Energy-OPLS-2005>
227.776519775391

> <r_mmod_Stretch_Energy-OPLS-2005>
144.085372924805

> <r_mmod_Bend_Energy-OPLS-2005>
184.228210449219

> <r_mmod_Torsional_Energy-OPLS-2005>
247.96891784668

> <r_mmod_Improper_Torsional_Energy-OPLS-2005>
7.25725126266479

> <r_mmod_Van_der_Waal_Energy-OPLS-2005>
146.975189208984

> <r_mmod_Electrostatic_Energy-OPLS-2005>
-355.822052001953

> <r_mmod_Solvation_Energy-OPLS-2005>
-231.152877807617

> <b_mmod_Minimization_Converged-OPLS-2005>
0

> <r_mmod_RMS_Derivative-OPLS-2005>
2.08424782752991

$$$$
44
                    3D
 Structure written by MMmdl.
161170  0  0  1  0            999 V2000
  -30.6195  -14.7861   20.4497 C   0  0  0  0  0  0
  -30.4566  -12.4831   19.4896 C   0  0  0  0  0  0
  -29.5183  -12.4690   18.2625 C   0  0  0  0  0  0
  -28.0465  -12.3057   18.6817 C   0  0  0  0  0  0
  -27.6477  -13.2348   19.8592 C   0  0  2  0  0  0
  -28.6962  -13.2065   20.9968 C   0  0  0  0  0  0
  -25.2542  -13.8245   20.5778 C   0  0  0  0  0  0
  -24.1814  -13.0459   20.9276 C   0  0  0  0  0  0
  -24.6416  -11.6945   20.8820 C   0  0  0  0  0  0
  -23.9099  -10.4312   21.0452 C   0  0  0  0  0  0
  -24.3650   -9.4192   21.9176 C   0  0  0  0  0  0
  -23.6321   -8.2227   22.0707 C   0  0  0  0  0  0
  -22.4297   -8.0296   21.3512 C   0  0  0  0  0  0
  -21.9946   -9.0287   20.4622 C   0  0  0  0  0  0
  -22.7291  -10.2168   20.3069 C   0  0  0  0  0  0
  -21.6853   -6.0758   22.5280 C   0  0  0  0  0  0
  -21.4005   -6.5654   23.8215 C   0  0  0  0  0  0
  -21.3652   -5.6801   24.9174 C   0  0  0  0  0  0
  -21.6041   -4.3063   24.7224 C   0  0  0  0  0  0
  -21.8816   -3.8164   23.4343 C   0  0  0  0  0  0
  -21.9183   -4.6984   22.3401 C   0  0  0  0  0  0
  -22.7837  -13.5201   21.1981 C   0  0  0  0  0  0
  -22.1664   -4.2171   21.0984 F   0  0  0  0  0  0
  -21.5627   -3.4542   25.7734 F   0  0  0  0  0  0
  -29.9993  -13.5528   20.4092 N   0  0  0  0  0  0
  -26.2968  -12.9436   20.3370 N   0  0  0  0  0  0
  -25.9338  -11.6582   20.5841 N   0  0  0  0  0  0
  -22.0558  -12.8082   22.0543 N   0  0  0  0  0  0
  -25.4220  -15.1961   20.4194 N   0  0  0  0  0  0
  -31.7995  -14.8847   20.1055 O   0  0  0  0  0  0
  -21.6636   -6.8901   21.4240 O   0  0  0  0  0  0
  -22.3446  -14.5504   20.6900 O   0  0  0  0  0  0
  -24.6358  -31.8521   23.1990 C   0  0  0  0  0  0
  -25.9175  -32.4737   23.8333 C   0  0  1  0  0  0
  -27.2147  -27.2371   20.1254 C   0  0  0  0  0  0
  -25.5970  -33.8542   24.2255 N   0  0  0  0  0  0
  -23.4320  -30.4745   21.5476 C   0  0  2  0  0  0
  -24.8775  -28.9249   20.1032 C   0  0  0  0  0  0
  -22.7513  -29.4579   22.4959 C   0  0  0  0  0  0
  -18.0294  -28.1373   22.8489 C   0  0  0  0  0  0
  -24.1504  -36.7261   23.2631 C   0  0  0  0  0  0
  -25.9797  -30.7508   21.3885 C   0  0  0  0  0  0
  -26.0494  -29.3739   20.7267 C   0  0  0  0  0  0
  -27.2193  -28.5432   20.7306 C   0  0  0  0  0  0
  -26.0273  -26.8818   19.4426 C   0  0  0  0  0  0
  -24.8740  -27.6863   19.4462 C   0  0  0  0  0  0
  -23.6480  -29.8125   20.1624 C   0  0  0  0  0  0
  -25.4126  -36.3051   24.0319 C   0  0  1  0  0  0
  -20.5899  -28.3684   23.1285 C   0  0  2  0  0  0
  -20.6789  -26.9420   22.5405 C   0  0  0  0  0  0
  -19.5752  -26.6389   21.5213 C   0  0  0  0  0  0
  -18.1938  -26.7917   22.1631 C   0  0  0  0  0  0
  -19.1552  -28.8856   23.2879 C   0  0  0  0  0  0
  -18.9462  -30.1460   23.8888 C   0  0  0  0  0  0
  -17.6452  -30.6579   24.0567 C   0  0  0  0  0  0
  -25.9066  -34.9418   23.5091 C   0  0  0  0  0  0
  -16.5349  -29.9063   23.6348 C   0  0  0  0  0  0
  -16.7281  -28.6492   23.0366 C   0  0  0  0  0  0
  -26.4535  -31.6552   25.0727 C   0  0  0  0  0  0
  -25.3763  -31.3707   26.1461 C   0  0  0  0  0  0
  -27.0363  -30.2952   24.6221 C   0  0  0  0  0  0
  -27.6099  -32.4289   25.7491 C   0  0  0  0  0  0
  -27.5578  -37.1779   24.8467 C   0  0  0  0  0  0
  -21.4219  -29.3018   22.3667 N   0  0  0  0  0  0
  -26.4290  -37.3754   23.9415 N   0  0  0  0  0  0
  -24.7018  -31.0440   22.1002 N   0  0  0  0  0  0
  -23.4190  -28.8136   23.3090 O   0  0  0  0  0  0
  -28.2764  -26.2898   20.2013 O   0  0  0  0  0  0
  -26.5643  -34.8901   22.4652 O   0  0  0  0  0  0
  -23.5504  -32.1390   23.7256 O   0  0  0  0  0  0
  -30.5725  -17.8940   22.7221 C   0  0  0  0  0  0
  -30.5094  -19.9687   23.9434 C   0  0  0  0  0  0
  -30.0877  -18.4937   21.5325 C   0  0  0  0  0  0
  -29.8034  -19.9646   21.5568 C   0  0  0  0  0  0
  -30.0446  -20.6288   22.7965 C   0  0  0  0  0  0
  -30.7875  -18.6036   23.9059 C   0  0  0  0  0  0
  -29.0007  -23.6449   20.2824 C   0  0  0  0  0  0
  -27.0064  -23.2452   22.2737 C   0  0  0  0  0  0
  -27.1520  -24.6939   21.7543 C   0  0  0  0  0  0
  -27.2887  -22.1858   21.1811 C   0  0  0  0  0  0
  -27.9023  -24.8253   20.4083 C   0  0  2  0  0  0
  -29.3774  -20.9725   20.3756 C   0  0  0  0  0  0
  -30.0744  -17.4153   20.3641 C   0  0  0  0  0  0
  -28.6397  -22.3272   20.6164 N   0  0  0  0  0  0
  -29.8420  -15.9162   20.6739 N   0  0  0  0  0  0
  -30.1206  -23.9219   19.8450 O   0  0  0  0  0  0
  -29.8773  -21.9649   22.9150 F   0  0  0  0  0  0
  -31.4273  -17.7934   25.2884 Cl  0  0  0  0  0  0
  -31.4818  -12.6462   19.1490 H   0  0  0  0  0  0
  -30.4641  -11.5222   20.0050 H   0  0  0  0  0  0
  -29.7999  -11.6543   17.5955 H   0  0  0  0  0  0
  -29.6388  -13.3924   17.6950 H   0  0  0  0  0  0
  -27.9062  -11.2631   18.9711 H   0  0  0  0  0  0
  -27.3864  -12.4709   17.8289 H   0  0  0  0  0  0
  -27.6333  -14.2484   19.4549 H   0  0  0  0  0  0
  -28.7381  -12.2324   21.4855 H   0  0  0  0  0  0
  -28.4244  -13.9225   21.7736 H   0  0  0  0  0  0
  -25.2818   -9.5639   22.4718 H   0  0  0  0  0  0
  -24.0052   -7.4588   22.7368 H   0  0  0  0  0  0
  -21.0885   -8.8828   19.8902 H   0  0  0  0  0  0
  -22.3775  -10.9720   19.6173 H   0  0  0  0  0  0
  -21.2007   -7.6161   23.9721 H   0  0  0  0  0  0
  -21.1474   -6.0535   25.9075 H   0  0  0  0  0  0
  -22.0605   -2.7626   23.2844 H   0  0  0  0  0  0
  -22.4241  -11.9719   22.4842 H   0  0  0  0  0  0
  -21.1165  -13.0977   22.2835 H   0  0  0  0  0  0
  -24.6803  -15.8655   20.5979 H   0  0  0  0  0  0
  -26.2583  -15.6340   20.0557 H   0  0  0  0  0  0
  -26.7221  -32.5383   23.1048 H   0  0  0  0  0  0
  -25.0129  -33.9668   25.0415 H   0  0  0  0  0  0
  -22.7266  -31.2966   21.4080 H   0  0  0  0  0  0
  -23.3769  -35.9591   23.3301 H   0  0  0  0  0  0
  -24.3600  -36.8882   22.2045 H   0  0  0  0  0  0
  -23.7258  -37.6459   23.6661 H   0  0  0  0  0  0
  -26.1257  -31.5071   20.6173 H   0  0  0  0  0  0
  -26.8526  -30.7918   22.0281 H   0  0  0  0  0  0
  -28.1068  -28.8773   21.2462 H   0  0  0  0  0  0
  -25.9565  -25.9579   18.8934 H   0  0  0  0  0  0
  -23.9908  -27.3394   18.9296 H   0  0  0  0  0  0
  -23.7588  -30.5937   19.4088 H   0  0  0  0  0  0
  -22.7650  -29.2417   19.8710 H   0  0  0  0  0  0
  -25.1312  -36.1876   25.0808 H   0  0  0  0  0  0
  -20.9980  -28.3259   24.1407 H   0  0  0  0  0  0
  -20.5728  -26.2291   23.3600 H   0  0  0  0  0  0
  -21.6653  -26.7461   22.1179 H   0  0  0  0  0  0
  -19.6924  -25.6315   21.1217 H   0  0  0  0  0  0
  -19.6687  -27.3229   20.6770 H   0  0  0  0  0  0
  -17.4218  -26.6685   21.4031 H   0  0  0  0  0  0
  -18.0337  -26.0056   22.9025 H   0  0  0  0  0  0
  -19.7943  -30.7293   24.2235 H   0  0  0  0  0  0
  -17.5011  -31.6260   24.5161 H   0  0  0  0  0  0
  -15.5361  -30.2952   23.7667 H   0  0  0  0  0  0
  -15.8686  -28.0796   22.7066 H   0  0  0  0  0  0
  -24.5937  -30.7053   25.7805 H   0  0  0  0  0  0
  -24.8961  -32.2872   26.4897 H   0  0  0  0  0  0
  -25.8088  -30.8889   27.0232 H   0  0  0  0  0  0
  -26.2938  -29.6709   24.1236 H   0  0  0  0  0  0
  -27.4018  -29.7215   25.4743 H   0  0  0  0  0  0
  -27.8848  -30.4223   23.9494 H   0  0  0  0  0  0
  -27.2723  -33.3597   26.2057 H   0  0  0  0  0  0
  -28.3904  -32.6815   25.0305 H   0  0  0  0  0  0
  -28.0766  -31.8411   26.5403 H   0  0  0  0  0  0
  -28.2596  -38.0075   24.7515 H   0  0  0  0  0  0
  -28.1071  -36.2603   24.6298 H   0  0  0  0  0  0
  -27.2301  -37.1443   25.8871 H   0  0  0  0  0  0
  -20.9403  -29.8722   21.6862 H   0  0  0  0  0  0
  -26.0164  -38.2819   24.1429 H   0  0  0  0  0  0
  -30.8513  -16.8480   22.7377 H   0  0  0  0  0  0
  -30.6854  -20.5260   24.8524 H   0  0  0  0  0  0
  -26.0091  -23.1003   22.6897 H   0  0  0  0  0  0
  -27.6907  -23.0977   23.1110 H   0  0  0  0  0  0
  -27.6460  -25.3064   22.5093 H   0  0  0  0  0  0
  -26.1567  -25.1196   21.6354 H   0  0  0  0  0  0
  -26.5585  -22.3021   20.3750 H   0  0  0  0  0  0
  -27.1316  -21.1880   21.5857 H   0  0  0  0  0  0
  -27.2205  -24.5322   19.6120 H   0  0  0  0  0  0
  -28.7841  -20.3895   19.6699 H   0  0  0  0  0  0
  -30.2967  -21.2098   19.8423 H   0  0  0  0  0  0
  -31.0560  -17.4845   19.8928 H   0  0  0  0  0  0
  -29.3546  -17.7270   19.6078 H   0  0  0  0  0  0
  -28.8919  -15.7056   20.9383 H   0  0  0  0  0  0
  1 25  1  0  0  0
  1 30  2  0  0  0
  1 85  1  0  0  0
  2  3  1  0  0  0
  2 25  1  0  0  0
  2 89  1  0  0  0
  2 90  1  0  0  0
  3  4  1  0  0  0
  3 91  1  0  0  0
  3 92  1  0  0  0
  4  5  1  0  0  0
  4 93  1  0  0  0
  4 94  1  0  0  0
  5  6  1  0  0  0
  5 26  1  0  0  0
  5 95  1  0  0  0
  6 25  1  0  0  0
  6 96  1  0  0  0
  6 97  1  0  0  0
  7  8  2  0  0  0
  7 26  1  0  0  0
  7 29  1  0  0  0
  8  9  1  0  0  0
  8 22  1  0  0  0
  9 10  1  0  0  0
  9 27  2  0  0  0
 10 11  2  0  0  0
 10 15  1  0  0  0
 11 12  1  0  0  0
 11 98  1  0  0  0
 12 13  2  0  0  0
 12 99  1  0  0  0
 13 14  1  0  0  0
 13 31  1  0  0  0
 14 15  2  0  0  0
 14100  1  0  0  0
 15101  1  0  0  0
 16 17  2  0  0  0
 16 21  1  0  0  0
 16 31  1  0  0  0
 17 18  1  0  0  0
 17102  1  0  0  0
 18 19  2  0  0  0
 18103  1  0  0  0
 19 20  1  0  0  0
 19 24  1  0  0  0
 20 21  2  0  0  0
 20104  1  0  0  0
 21 23  1  0  0  0
 22 28  1  0  0  0
 22 32  2  0  0  0
 26 27  1  0  0  0
 28105  1  0  0  0
 28106  1  0  0  0
 29107  1  0  0  0
 29108  1  0  0  0
 33 34  1  0  0  0
 33 66  1  0  0  0
 33 70  2  0  0  0
 34 36  1  0  0  0
 34 59  1  0  0  0
 34109  1  0  0  0
 35 44  2  0  0  0
 35 45  1  0  0  0
 35 68  1  0  0  0
 36 56  1  0  0  0
 36110  1  0  0  0
 37 39  1  0  0  0
 37 47  1  0  0  0
 37 66  1  0  0  0
 37111  1  0  0  0
 38 43  2  0  0  0
 38 46  1  0  0  0
 38 47  1  0  0  0
 39 64  1  0  0  0
 39 67  2  0  0  0
 40 52  1  0  0  0
 40 53  2  0  0  0
 40 58  1  0  0  0
 41112  1  0  0  0
 41113  1  0  0  0
 41114  1  0  0  0
 41 48  1  0  0  0
 42 43  1  0  0  0
 42 66  1  0  0  0
 42115  1  0  0  0
 42116  1  0  0  0
 43 44  1  0  0  0
 44117  1  0  0  0
 45 46  2  0  0  0
 45118  1  0  0  0
 46119  1  0  0  0
 47120  1  0  0  0
 47121  1  0  0  0
 48 56  1  0  0  0
 48 65  1  0  0  0
 48122  1  0  0  0
 49 50  1  0  0  0
 49 53  1  0  0  0
 49 64  1  0  0  0
 49123  1  0  0  0
 50 51  1  0  0  0
 50124  1  0  0  0
 50125  1  0  0  0
 51 52  1  0  0  0
 51126  1  0  0  0
 51127  1  0  0  0
 52128  1  0  0  0
 52129  1  0  0  0
 53 54  1  0  0  0
 54 55  2  0  0  0
 54130  1  0  0  0
 55 57  1  0  0  0
 55131  1  0  0  0
 56 69  2  0  0  0
 57 58  2  0  0  0
 57132  1  0  0  0
 58133  1  0  0  0
 59 60  1  0  0  0
 59 61  1  0  0  0
 59 62  1  0  0  0
 60134  1  0  0  0
 60135  1  0  0  0
 60136  1  0  0  0
 61137  1  0  0  0
 61138  1  0  0  0
 61139  1  0  0  0
 62140  1  0  0  0
 62141  1  0  0  0
 62142  1  0  0  0
 63 65  1  0  0  0
 63143  1  0  0  0
 63144  1  0  0  0
 63145  1  0  0  0
 64146  1  0  0  0
 65147  1  0  0  0
 68 81  1  0  0  0
 71 73  2  0  0  0
 71 76  1  0  0  0
 71148  1  0  0  0
 72 75  1  0  0  0
 72 76  2  0  0  0
 72149  1  0  0  0
 73 74  1  0  0  0
 73 83  1  0  0  0
 74 75  2  0  0  0
 74 82  1  0  0  0
 75 87  1  0  0  0
 76 88  1  0  0  0
 77 81  1  0  0  0
 77 84  1  0  0  0
 77 86  2  0  0  0
 78 79  1  0  0  0
 78 80  1  0  0  0
 78150  1  0  0  0
 78151  1  0  0  0
 79 81  1  0  0  0
 79152  1  0  0  0
 79153  1  0  0  0
 80 84  1  0  0  0
 80154  1  0  0  0
 80155  1  0  0  0
 81156  1  0  0  0
 82 84  1  0  0  0
 82157  1  0  0  0
 82158  1  0  0  0
 83 85  1  0  0  0
 83159  1  0  0  0
 83160  1  0  0  0
 85161  1  0  0  0
M  ISO  4   1 100  68 101  81 101  85 100
M  END
> <chiral flag>
0

> <version>
0

> <s_m_source_file>
/data/baiqing/PycharmProjects/Reinvent-master-3.2/result/LINK_invent/BTK/process_docking_weight1_custom_product_contain_oxygen_bond_distance_aromatic_linkinvent_7_9_3/rearranged_h_0046.sdf

> <i_m_source_file_index>
45

> <r_mmod_Potential_Energy-OPLS-2005>
269.044952392578

> <r_mmod_Stretch_Energy-OPLS-2005>
169.712478637695

> <r_mmod_Bend_Energy-OPLS-2005>
207.585830688477

> <r_mmod_Torsional_Energy-OPLS-2005>
238.388061523438

> <r_mmod_Improper_Torsional_Energy-OPLS-2005>
5.87651348114014

> <r_mmod_Van_der_Waal_Energy-OPLS-2005>
156.645309448242

> <r_mmod_Electrostatic_Energy-OPLS-2005>
-377.491729736328

> <r_mmod_Solvation_Energy-OPLS-2005>
-240.832336425781

> <b_mmod_Minimization_Converged-OPLS-2005>
0

> <r_mmod_RMS_Derivative-OPLS-2005>
5.46093368530273

$$$$
45
                    3D
 Structure written by MMmdl.
162170  0  0  1  0            999 V2000
  -30.6623  -14.5515   20.5390 C   0  0  0  0  0  0
  -30.4305  -12.3508   19.4307 C   0  0  0  0  0  0
  -29.4972  -12.5047   18.2107 C   0  0  0  0  0  0
  -28.0184  -12.3561   18.6226 C   0  0  0  0  0  0
  -27.6546  -13.2112   19.8654 C   0  0  2  0  0  0
  -28.6988  -13.0297   20.9893 C   0  0  0  0  0  0
  -25.2570  -13.8177   20.5669 C   0  0  0  0  0  0
  -24.1828  -13.0448   20.9179 C   0  0  0  0  0  0
  -24.6387  -11.6916   20.8738 C   0  0  0  0  0  0
  -23.9062  -10.4294   21.0411 C   0  0  0  0  0  0
  -24.3621   -9.4210   21.9182 C   0  0  0  0  0  0
  -23.6295   -8.2249   22.0756 C   0  0  0  0  0  0
  -22.4273   -8.0287   21.3553 C   0  0  0  0  0  0
  -21.9908   -9.0256   20.4649 C   0  0  0  0  0  0
  -22.7238  -10.2137   20.3058 C   0  0  0  0  0  0
  -21.6854   -6.0732   22.5278 C   0  0  0  0  0  0
  -21.4005   -6.5637   23.8210 C   0  0  0  0  0  0
  -21.3667   -5.6793   24.9176 C   0  0  0  0  0  0
  -21.6046   -4.3056   24.7226 C   0  0  0  0  0  0
  -21.8826   -3.8145   23.4350 C   0  0  0  0  0  0
  -21.9189   -4.6958   22.3403 C   0  0  0  0  0  0
  -22.7858  -13.5244   21.1848 C   0  0  0  0  0  0
  -22.1668   -4.2150   21.0980 F   0  0  0  0  0  0
  -21.5636   -3.4541   25.7736 F   0  0  0  0  0  0
  -30.0202  -13.3526   20.4283 N   0  0  0  0  0  0
  -26.2990  -12.9345   20.3329 N   0  0  0  0  0  0
  -25.9312  -11.6506   20.5757 N   0  0  0  0  0  0
  -22.0506  -12.8222   22.0405 N   0  0  0  0  0  0
  -25.4306  -15.1890   20.4080 N   0  0  0  0  0  0
  -31.8137  -14.7222   20.1314 O   0  0  0  0  0  0
  -21.6642   -6.8882   21.4243 O   0  0  0  0  0  0
  -22.3543  -14.5545   20.6695 O   0  0  0  0  0  0
  -24.6193  -31.8630   23.2050 C   0  0  0  0  0  0
  -25.9061  -32.4794   23.8374 C   0  0  1  0  0  0
  -27.2356  -27.3816   20.0977 C   0  0  0  0  0  0
  -25.5901  -33.8595   24.2299 N   0  0  0  0  0  0
  -23.4099  -30.4852   21.5477 C   0  0  2  0  0  0
  -24.8545  -28.9413   20.1169 C   0  0  0  0  0  0
  -22.7439  -29.4621   22.4967 C   0  0  0  0  0  0
  -18.0277  -28.1372   22.8494 C   0  0  0  0  0  0
  -24.1486  -36.7314   23.2638 C   0  0  0  0  0  0
  -25.9433  -30.8133   21.3642 C   0  0  0  0  0  0
  -26.0178  -29.4418   20.7124 C   0  0  0  0  0  0
  -27.2077  -28.6708   20.6952 C   0  0  0  0  0  0
  -26.0439  -26.9030   19.5061 C   0  0  0  0  0  0
  -24.8654  -27.6737   19.5112 C   0  0  0  0  0  0
  -23.6204  -29.8155   20.1638 C   0  0  0  0  0  0
  -25.4102  -36.3098   24.0336 C   0  0  1  0  0  0
  -20.5873  -28.3668   23.1306 C   0  0  2  0  0  0
  -20.6761  -26.9399   22.5418 C   0  0  0  0  0  0
  -19.5738  -26.6381   21.5213 C   0  0  0  0  0  0
  -18.1918  -26.7917   22.1623 C   0  0  0  0  0  0
  -19.1527  -28.8835   23.2904 C   0  0  0  0  0  0
  -18.9442  -30.1437   23.8920 C   0  0  0  0  0  0
  -17.6445  -30.6583   24.0554 C   0  0  0  0  0  0
  -25.9038  -34.9464   23.5119 C   0  0  0  0  0  0
  -16.5340  -29.9080   23.6317 C   0  0  0  0  0  0
  -16.7266  -28.6494   23.0347 C   0  0  0  0  0  0
  -26.4470  -31.6593   25.0726 C   0  0  0  0  0  0
  -25.3731  -31.3712   26.1477 C   0  0  0  0  0  0
  -27.0297  -30.3026   24.6125 C   0  0  0  0  0  0
  -27.6042  -32.4318   25.7496 C   0  0  0  0  0  0
  -27.5576  -37.1804   24.8461 C   0  0  0  0  0  0
  -21.4159  -29.3030   22.3715 N   0  0  0  0  0  0
  -26.4283  -37.3785   23.9411 N   0  0  0  0  0  0
  -24.6762  -31.0696   22.0963 N   0  0  0  0  0  0
  -23.4189  -28.8148   23.3016 O   0  0  0  0  0  0
  -28.4185  -26.6511   20.1153 O   0  0  0  0  0  0
  -26.5610  -34.8922   22.4686 O   0  0  0  0  0  0
  -23.5367  -32.1390   23.7415 O   0  0  0  0  0  0
  -27.9470  -19.8202   18.6198 C   0  0  0  0  0  0
  -28.9850  -17.6472   18.9920 C   0  0  0  0  0  0
  -28.4067  -20.2928   19.8680 C   0  0  0  0  0  0
  -28.2416  -18.5186   18.1747 C   0  0  0  0  0  0
  -29.4623  -18.0584   20.2547 C   0  0  0  0  0  0
  -29.2001  -19.4108   20.6839 C   0  0  0  0  0  0
  -27.8866  -21.6401   20.2589 C   0  0  0  0  0  0
  -27.7480  -18.0544   16.8187 C   0  0  0  0  0  0
  -29.7350  -19.8845   22.0312 C   0  0  0  0  0  0
  -30.2706  -17.0268   21.0937 C   0  0  0  0  0  0
  -28.1880  -24.1688   20.6909 C   0  0  0  0  0  0
  -28.4989  -25.2791   19.6338 C   0  0  0  0  0  0
  -26.5814  -21.7272   20.5068 N   0  0  0  0  0  0
  -29.8987  -15.5901   20.9600 N   0  0  0  0  0  0
  -28.6226  -22.7776   20.3084 N   0  3  0  0  0  0
  -31.4715  -12.4699   19.1243 H   0  0  0  0  0  0
  -30.3596  -11.3478   19.8533 H   0  0  0  0  0  0
  -29.7472  -11.7641   17.4501 H   0  0  0  0  0  0
  -29.6521  -13.4817   17.7491 H   0  0  0  0  0  0
  -27.8350  -11.3010   18.8322 H   0  0  0  0  0  0
  -27.3704  -12.6156   17.7849 H   0  0  0  0  0  0
  -27.6846  -14.2519   19.5439 H   0  0  0  0  0  0
  -28.6923  -12.0010   21.3511 H   0  0  0  0  0  0
  -28.4541  -13.6471   21.8547 H   0  0  0  0  0  0
  -25.2772   -9.5679   22.4748 H   0  0  0  0  0  0
  -24.0004   -7.4631   22.7464 H   0  0  0  0  0  0
  -21.0846   -8.8776   19.8939 H   0  0  0  0  0  0
  -22.3706  -10.9676   19.6158 H   0  0  0  0  0  0
  -21.1994   -7.6144   23.9712 H   0  0  0  0  0  0
  -21.1488   -6.0524   25.9076 H   0  0  0  0  0  0
  -22.0598   -2.7608   23.2848 H   0  0  0  0  0  0
  -22.4134  -11.9878   22.4771 H   0  0  0  0  0  0
  -21.1123  -13.1248   22.2619 H   0  0  0  0  0  0
  -24.6672  -15.8476   20.5184 H   0  0  0  0  0  0
  -26.2836  -15.6267   20.0852 H   0  0  0  0  0  0
  -26.7133  -32.5479   23.1134 H   0  0  0  0  0  0
  -25.0038  -33.9752   25.0436 H   0  0  0  0  0  0
  -22.7005  -31.3031   21.4059 H   0  0  0  0  0  0
  -23.3740  -35.9654   23.3300 H   0  0  0  0  0  0
  -24.3589  -36.8938   22.2055 H   0  0  0  0  0  0
  -23.7245  -37.6516   23.6664 H   0  0  0  0  0  0
  -26.0602  -31.5755   20.5922 H   0  0  0  0  0  0
  -26.8282  -30.8673   21.9863 H   0  0  0  0  0  0
  -28.1074  -29.0563   21.1528 H   0  0  0  0  0  0
  -25.9935  -25.9334   19.0368 H   0  0  0  0  0  0
  -23.9695  -27.2820   19.0499 H   0  0  0  0  0  0
  -23.7347  -30.5890   19.4043 H   0  0  0  0  0  0
  -22.7416  -29.2427   19.8637 H   0  0  0  0  0  0
  -25.1276  -36.1948   25.0827 H   0  0  0  0  0  0
  -20.9968  -28.3229   24.1424 H   0  0  0  0  0  0
  -20.5643  -26.2280   23.3611 H   0  0  0  0  0  0
  -21.6628  -26.7411   22.1216 H   0  0  0  0  0  0
  -19.6895  -25.6294   21.1227 H   0  0  0  0  0  0
  -19.6664  -27.3198   20.6748 H   0  0  0  0  0  0
  -17.4182  -26.6668   21.4032 H   0  0  0  0  0  0
  -18.0320  -26.0054   22.9013 H   0  0  0  0  0  0
  -19.7917  -30.7251   24.2302 H   0  0  0  0  0  0
  -17.4992  -31.6259   24.5155 H   0  0  0  0  0  0
  -15.5337  -30.2978   23.7633 H   0  0  0  0  0  0
  -15.8669  -28.0817   22.7047 H   0  0  0  0  0  0
  -24.5893  -30.7074   25.7817 H   0  0  0  0  0  0
  -24.8937  -32.2873   26.4937 H   0  0  0  0  0  0
  -25.8080  -30.8868   27.0231 H   0  0  0  0  0  0
  -26.2844  -29.6797   24.1162 H   0  0  0  0  0  0
  -27.4033  -29.7252   25.4594 H   0  0  0  0  0  0
  -27.8702  -30.4337   23.9305 H   0  0  0  0  0  0
  -27.2661  -33.3610   26.2096 H   0  0  0  0  0  0
  -28.3846  -32.6888   25.0325 H   0  0  0  0  0  0
  -28.0723  -31.8433   26.5396 H   0  0  0  0  0  0
  -28.2581  -38.0110   24.7506 H   0  0  0  0  0  0
  -28.1081  -36.2639   24.6279 H   0  0  0  0  0  0
  -27.2309  -37.1456   25.8868 H   0  0  0  0  0  0
  -20.9324  -29.8809   21.6984 H   0  0  0  0  0  0
  -26.0169  -38.2862   24.1405 H   0  0  0  0  0  0
  -27.3457  -20.4692   17.9958 H   0  0  0  0  0  0
  -29.1939  -16.6475   18.6390 H   0  0  0  0  0  0
  -26.7292  -18.3970   16.6341 H   0  0  0  0  0  0
  -27.7539  -16.9670   16.7441 H   0  0  0  0  0  0
  -28.3870  -18.4502   16.0294 H   0  0  0  0  0  0
  -29.8011  -20.9687   22.1015 H   0  0  0  0  0  0
  -30.7440  -19.5121   22.2064 H   0  0  0  0  0  0
  -29.0951  -19.5327   22.8399 H   0  0  0  0  0  0
  -30.1724  -17.2681   22.1518 H   0  0  0  0  0  0
  -31.3264  -17.1654   20.8560 H   0  0  0  0  0  0
  -27.1274  -24.2007   20.9396 H   0  0  0  0  0  0
  -28.7097  -24.4243   21.6141 H   0  0  0  0  0  0
  -27.9166  -25.1259   18.7258 H   0  0  0  0  0  0
  -29.5300  -25.1408   19.3093 H   0  0  0  0  0  0
  -26.0261  -20.8848   20.4594 H   0  0  0  0  0  0
  -26.1174  -22.5893   20.7340 H   0  0  0  0  0  0
  -28.9631  -15.3494   21.2496 H   0  0  0  0  0  0
  -29.6104  -22.6651   20.1115 H   0  0  0  0  0  0
  1 25  1  0  0  0
  1 30  2  0  0  0
  1 84  1  0  0  0
  2  3  1  0  0  0
  2 25  1  0  0  0
  2 86  1  0  0  0
  2 87  1  0  0  0
  3  4  1  0  0  0
  3 88  1  0  0  0
  3 89  1  0  0  0
  4  5  1  0  0  0
  4 90  1  0  0  0
  4 91  1  0  0  0
  5  6  1  0  0  0
  5 26  1  0  0  0
  5 92  1  0  0  0
  6 25  1  0  0  0
  6 93  1  0  0  0
  6 94  1  0  0  0
  7  8  2  0  0  0
  7 26  1  0  0  0
  7 29  1  0  0  0
  8  9  1  0  0  0
  8 22  1  0  0  0
  9 10  1  0  0  0
  9 27  2  0  0  0
 10 11  2  0  0  0
 10 15  1  0  0  0
 11 12  1  0  0  0
 11 95  1  0  0  0
 12 13  2  0  0  0
 12 96  1  0  0  0
 13 14  1  0  0  0
 13 31  1  0  0  0
 14 15  2  0  0  0
 14 97  1  0  0  0
 15 98  1  0  0  0
 16 17  2  0  0  0
 16 21  1  0  0  0
 16 31  1  0  0  0
 17 18  1  0  0  0
 17 99  1  0  0  0
 18 19  2  0  0  0
 18100  1  0  0  0
 19 20  1  0  0  0
 19 24  1  0  0  0
 20 21  2  0  0  0
 20101  1  0  0  0
 21 23  1  0  0  0
 22 28  1  0  0  0
 22 32  2  0  0  0
 26 27  1  0  0  0
 28102  1  0  0  0
 28103  1  0  0  0
 29104  1  0  0  0
 29105  1  0  0  0
 33 34  1  0  0  0
 33 66  1  0  0  0
 33 70  2  0  0  0
 34 36  1  0  0  0
 34 59  1  0  0  0
 34106  1  0  0  0
 35 44  2  0  0  0
 35 45  1  0  0  0
 35 68  1  0  0  0
 36 56  1  0  0  0
 36107  1  0  0  0
 37 39  1  0  0  0
 37 47  1  0  0  0
 37 66  1  0  0  0
 37108  1  0  0  0
 38 43  2  0  0  0
 38 46  1  0  0  0
 38 47  1  0  0  0
 39 64  1  0  0  0
 39 67  2  0  0  0
 40 52  1  0  0  0
 40 53  2  0  0  0
 40 58  1  0  0  0
 41109  1  0  0  0
 41110  1  0  0  0
 41111  1  0  0  0
 41 48  1  0  0  0
 42 43  1  0  0  0
 42 66  1  0  0  0
 42112  1  0  0  0
 42113  1  0  0  0
 43 44  1  0  0  0
 44114  1  0  0  0
 45 46  2  0  0  0
 45115  1  0  0  0
 46116  1  0  0  0
 47117  1  0  0  0
 47118  1  0  0  0
 48 56  1  0  0  0
 48 65  1  0  0  0
 48119  1  0  0  0
 49 50  1  0  0  0
 49 53  1  0  0  0
 49 64  1  0  0  0
 49120  1  0  0  0
 50 51  1  0  0  0
 50121  1  0  0  0
 50122  1  0  0  0
 51 52  1  0  0  0
 51123  1  0  0  0
 51124  1  0  0  0
 52125  1  0  0  0
 52126  1  0  0  0
 53 54  1  0  0  0
 54 55  2  0  0  0
 54127  1  0  0  0
 55 57  1  0  0  0
 55128  1  0  0  0
 56 69  2  0  0  0
 57 58  2  0  0  0
 57129  1  0  0  0
 58130  1  0  0  0
 59 60  1  0  0  0
 59 61  1  0  0  0
 59 62  1  0  0  0
 60131  1  0  0  0
 60132  1  0  0  0
 60133  1  0  0  0
 61134  1  0  0  0
 61135  1  0  0  0
 61136  1  0  0  0
 62137  1  0  0  0
 62138  1  0  0  0
 62139  1  0  0  0
 63 65  1  0  0  0
 63140  1  0  0  0
 63141  1  0  0  0
 63142  1  0  0  0
 64143  1  0  0  0
 65144  1  0  0  0
 68 82  1  0  0  0
 71 73  2  0  0  0
 71 74  1  0  0  0
 71145  1  0  0  0
 72 74  2  0  0  0
 72 75  1  0  0  0
 72146  1  0  0  0
 73 76  1  0  0  0
 73 77  1  0  0  0
 74 78  1  0  0  0
 75 76  2  0  0  0
 75 80  1  0  0  0
 76 79  1  0  0  0
 77 83  1  0  0  0
 77 85  2  0  0  0
 78147  1  0  0  0
 78148  1  0  0  0
 78149  1  0  0  0
 79150  1  0  0  0
 79151  1  0  0  0
 79152  1  0  0  0
 80 84  1  0  0  0
 80153  1  0  0  0
 80154  1  0  0  0
 81 82  1  0  0  0
 81 85  1  0  0  0
 81155  1  0  0  0
 81156  1  0  0  0
 82157  1  0  0  0
 82158  1  0  0  0
 83159  1  0  0  0
 83160  1  0  0  0
 84161  1  0  0  0
 85162  1  0  0  0
M  CHG  1  85   1
M  ISO  4   1 100  68 101  82 101  84 100
M  END
> <chiral flag>
0

> <version>
0

> <s_m_source_file>
/data/baiqing/PycharmProjects/Reinvent-master-3.2/result/LINK_invent/BTK/process_docking_weight1_custom_product_contain_oxygen_bond_distance_aromatic_linkinvent_7_9_3/rearranged_h_0046.sdf

> <i_m_source_file_index>
46

> <r_mmod_Potential_Energy-OPLS-2005>
-248.793975830078

> <r_mmod_Stretch_Energy-OPLS-2005>
56.4943885803223

> <r_mmod_Bend_Energy-OPLS-2005>
123.865203857422

> <r_mmod_Torsional_Energy-OPLS-2005>
202.409317016602

> <r_mmod_Improper_Torsional_Energy-OPLS-2005>
4.60694265365601

> <r_mmod_Van_der_Waal_Energy-OPLS-2005>
148.03288269043

> <r_mmod_Electrostatic_Energy-OPLS-2005>
-402.238708496094

> <r_mmod_Solvation_Energy-OPLS-2005>
-405.476013183594

> <b_mmod_Minimization_Converged-OPLS-2005>
0

> <r_mmod_RMS_Derivative-OPLS-2005>
1.69022750854492

$$$$
46
                    3D
 Structure written by MMmdl.
161170  0  0  1  0            999 V2000
  -30.5602  -14.7722   20.4722 C   0  0  0  0  0  0
  -30.4477  -12.4763   19.4568 C   0  0  0  0  0  0
  -29.5118  -12.5081   18.2267 C   0  0  0  0  0  0
  -28.0375  -12.3213   18.6424 C   0  0  0  0  0  0
  -27.6389  -13.2192   19.8426 C   0  0  2  0  0  0
  -28.6875  -13.1351   20.9700 C   0  0  0  0  0  0
  -25.2514  -13.8146   20.5664 C   0  0  0  0  0  0
  -24.1810  -13.0419   20.9192 C   0  0  0  0  0  0
  -24.6377  -11.6892   20.8748 C   0  0  0  0  0  0
  -23.9050  -10.4280   21.0411 C   0  0  0  0  0  0
  -24.3608   -9.4201   21.9186 C   0  0  0  0  0  0
  -23.6285   -8.2239   22.0758 C   0  0  0  0  0  0
  -22.4268   -8.0273   21.3543 C   0  0  0  0  0  0
  -21.9900   -9.0243   20.4648 C   0  0  0  0  0  0
  -22.7224  -10.2124   20.3057 C   0  0  0  0  0  0
  -21.6854   -6.0739   22.5290 C   0  0  0  0  0  0
  -21.4009   -6.5643   23.8221 C   0  0  0  0  0  0
  -21.3661   -5.6794   24.9180 C   0  0  0  0  0  0
  -21.6044   -4.3057   24.7227 C   0  0  0  0  0  0
  -21.8819   -3.8148   23.4347 C   0  0  0  0  0  0
  -21.9183   -4.6967   22.3407 C   0  0  0  0  0  0
  -22.7836  -13.5228   21.1843 C   0  0  0  0  0  0
  -22.1659   -4.2158   21.0986 F   0  0  0  0  0  0
  -21.5630   -3.4536   25.7737 F   0  0  0  0  0  0
  -29.9802  -13.5249   20.3884 N   0  0  0  0  0  0
  -26.2922  -12.9328   20.3233 N   0  0  0  0  0  0
  -25.9302  -11.6493   20.5739 N   0  0  0  0  0  0
  -22.0461  -12.8254   22.0406 N   0  0  0  0  0  0
  -25.4186  -15.1876   20.4087 N   0  0  0  0  0  0
  -31.7649  -14.9143   20.2404 O   0  0  0  0  0  0
  -21.6629   -6.8878   21.4251 O   0  0  0  0  0  0
  -22.3548  -14.5530   20.6668 O   0  0  0  0  0  0
  -24.6345  -31.8557   23.1994 C   0  0  0  0  0  0
  -25.9166  -32.4754   23.8328 C   0  0  1  0  0  0
  -27.2112  -27.2404   20.1083 C   0  0  0  0  0  0
  -25.5954  -33.8557   24.2264 N   0  0  0  0  0  0
  -23.4278  -30.4844   21.5458 C   0  0  2  0  0  0
  -24.8698  -28.9358   20.1113 C   0  0  0  0  0  0
  -22.7512  -29.4625   22.4914 C   0  0  0  0  0  0
  -18.0300  -28.1405   22.8491 C   0  0  0  0  0  0
  -24.1487  -36.7278   23.2641 C   0  0  0  0  0  0
  -25.9802  -30.7638   21.3790 C   0  0  0  0  0  0
  -26.0506  -29.3870   20.7147 C   0  0  0  0  0  0
  -27.2234  -28.5560   20.6980 C   0  0  0  0  0  0
  -25.9848  -26.8596   19.5106 C   0  0  0  0  0  0
  -24.8455  -27.6800   19.4977 C   0  0  0  0  0  0
  -23.6425  -29.8264   20.1605 C   0  0  0  0  0  0
  -25.4113  -36.3068   24.0329 C   0  0  1  0  0  0
  -20.5907  -28.3715   23.1274 C   0  0  2  0  0  0
  -20.6798  -26.9431   22.5410 C   0  0  0  0  0  0
  -19.5764  -26.6395   21.5229 C   0  0  0  0  0  0
  -18.1942  -26.7946   22.1639 C   0  0  0  0  0  0
  -19.1553  -28.8879   23.2876 C   0  0  0  0  0  0
  -18.9470  -30.1483   23.8889 C   0  0  0  0  0  0
  -17.6467  -30.6599   24.0573 C   0  0  0  0  0  0
  -25.9058  -34.9441   23.5095 C   0  0  0  0  0  0
  -16.5360  -29.9095   23.6341 C   0  0  0  0  0  0
  -16.7286  -28.6521   23.0351 C   0  0  0  0  0  0
  -26.4512  -31.6577   25.0723 C   0  0  0  0  0  0
  -25.3712  -31.3744   26.1429 C   0  0  0  0  0  0
  -27.0362  -30.2991   24.6222 C   0  0  0  0  0  0
  -27.6067  -32.4312   25.7497 C   0  0  0  0  0  0
  -27.5573  -37.1796   24.8466 C   0  0  0  0  0  0
  -21.4219  -29.3064   22.3660 N   0  0  0  0  0  0
  -26.4283  -37.3770   23.9414 N   0  0  0  0  0  0
  -24.7006  -31.0514   22.0976 N   0  0  0  0  0  0
  -23.4212  -28.8142   23.2991 O   0  0  0  0  0  0
  -28.3063  -26.3255   20.1333 O   0  0  0  0  0  0
  -26.5626  -34.8917   22.4660 O   0  0  0  0  0  0
  -23.5497  -32.1391   23.7291 O   0  0  0  0  0  0
  -29.8483  -18.4726   20.2620 C   0  0  0  0  0  0
  -28.8968  -18.6696   22.8650 C   0  0  0  0  0  0
  -29.5515  -19.8029   20.7968 C   0  0  0  0  0  0
  -29.1779  -17.3884   22.3383 C   0  0  0  0  0  0
  -29.6734  -17.2316   21.0156 C   0  0  0  0  0  0
  -29.0723  -19.8485   22.1189 C   0  0  0  0  0  0
  -29.1014  -23.7362   20.3984 C   0  0  0  0  0  0
  -27.3427  -23.0619   18.1881 C   0  0  0  0  0  0
  -27.9062  -24.4965   18.3760 C   0  0  0  0  0  0
  -27.5870  -22.1186   19.3995 C   0  0  0  0  0  0
  -28.0530  -24.8469   19.8801 C   0  0  2  0  0  0
  -28.8652  -16.1896   23.2190 C   0  0  0  0  0  0
  -29.8287  -21.1958   20.0633 C   0  0  0  0  0  0
  -28.8613  -22.3928   20.0753 N   0  0  0  0  0  0
  -29.6782  -15.8488   20.4650 N   0  0  0  0  0  0
  -30.1235  -24.0977   20.9896 O   0  0  0  0  0  0
  -28.7846  -21.0394   22.6962 F   0  0  0  0  0  0
  -31.4808  -12.6440   19.1463 H   0  0  0  0  0  0
  -30.4260  -11.4966   19.9376 H   0  0  0  0  0  0
  -29.8002  -11.7334   17.5149 H   0  0  0  0  0  0
  -29.6260  -13.4598   17.7062 H   0  0  0  0  0  0
  -27.9020  -11.2724   18.9114 H   0  0  0  0  0  0
  -27.3764  -12.5040   17.7941 H   0  0  0  0  0  0
  -27.6298  -14.2401   19.4615 H   0  0  0  0  0  0
  -28.7370  -12.1241   21.3793 H   0  0  0  0  0  0
  -28.4151  -13.7827   21.8022 H   0  0  0  0  0  0
  -25.2752   -9.5698   22.4757 H   0  0  0  0  0  0
  -23.9996   -7.4645   22.7488 H   0  0  0  0  0  0
  -21.0829   -8.8760   19.8964 H   0  0  0  0  0  0
  -22.3670  -10.9663   19.6174 H   0  0  0  0  0  0
  -21.2008   -7.6153   23.9732 H   0  0  0  0  0  0
  -21.1483   -6.0517   25.9082 H   0  0  0  0  0  0
  -22.0592   -2.7608   23.2839 H   0  0  0  0  0  0
  -22.4057  -11.9940   22.4863 H   0  0  0  0  0  0
  -21.1075  -13.1311   22.2550 H   0  0  0  0  0  0
  -24.6430  -15.8294   20.5246 H   0  0  0  0  0  0
  -26.2511  -15.6389   20.0552 H   0  0  0  0  0  0
  -26.7228  -32.5399   23.1059 H   0  0  0  0  0  0
  -25.0102  -33.9679   25.0415 H   0  0  0  0  0  0
  -22.7245  -31.3084   21.4073 H   0  0  0  0  0  0
  -23.3752  -35.9606   23.3300 H   0  0  0  0  0  0
  -24.3573  -36.8898   22.2053 H   0  0  0  0  0  0
  -23.7227  -37.6475   23.6662 H   0  0  0  0  0  0
  -26.1200  -31.5264   20.6114 H   0  0  0  0  0  0
  -26.8584  -30.8105   22.0119 H   0  0  0  0  0  0
  -28.1254  -28.9025   21.1829 H   0  0  0  0  0  0
  -25.8380  -25.8922   19.0646 H   0  0  0  0  0  0
  -23.9372  -27.3245   19.0308 H   0  0  0  0  0  0
  -23.7641  -30.6086   19.4108 H   0  0  0  0  0  0
  -22.7582  -29.2650   19.8530 H   0  0  0  0  0  0
  -25.1289  -36.1918   25.0819 H   0  0  0  0  0  0
  -21.0009  -28.3302   24.1394 H   0  0  0  0  0  0
  -20.5749  -26.2314   23.3611 H   0  0  0  0  0  0
  -21.6654  -26.7484   22.1167 H   0  0  0  0  0  0
  -19.6923  -25.6309   21.1253 H   0  0  0  0  0  0
  -19.6697  -27.3216   20.6768 H   0  0  0  0  0  0
  -17.4210  -26.6704   21.4040 H   0  0  0  0  0  0
  -18.0334  -26.0100   22.9048 H   0  0  0  0  0  0
  -19.7945  -30.7315   24.2238 H   0  0  0  0  0  0
  -17.5018  -31.6277   24.5178 H   0  0  0  0  0  0
  -15.5361  -30.2993   23.7675 H   0  0  0  0  0  0
  -15.8688  -28.0844   22.7056 H   0  0  0  0  0  0
  -24.5894  -30.7088   25.7749 H   0  0  0  0  0  0
  -24.8896  -32.2926   26.4813 H   0  0  0  0  0  0
  -25.8003  -30.8942   27.0234 H   0  0  0  0  0  0
  -26.2965  -29.6735   24.1220 H   0  0  0  0  0  0
  -27.4015  -29.7254   25.4750 H   0  0  0  0  0  0
  -27.8846  -30.4261   23.9492 H   0  0  0  0  0  0
  -27.2683  -33.3628   26.2048 H   0  0  0  0  0  0
  -28.3892  -32.6846   25.0330 H   0  0  0  0  0  0
  -28.0718  -31.8447   26.5434 H   0  0  0  0  0  0
  -28.2594  -38.0092   24.7510 H   0  0  0  0  0  0
  -28.1061  -36.2623   24.6293 H   0  0  0  0  0  0
  -27.2287  -37.1439   25.8867 H   0  0  0  0  0  0
  -20.9400  -29.8772   21.6855 H   0  0  0  0  0  0
  -26.0164  -38.2840   24.1425 H   0  0  0  0  0  0
  -30.1923  -18.4058   19.2397 H   0  0  0  0  0  0
  -28.5123  -18.7634   23.8697 H   0  0  0  0  0  0
  -27.7761  -22.6244   17.2880 H   0  0  0  0  0  0
  -26.2685  -23.1125   18.0030 H   0  0  0  0  0  0
  -27.3127  -25.2083   17.8073 H   0  0  0  0  0  0
  -28.8927  -24.5533   17.9118 H   0  0  0  0  0  0
  -27.5080  -21.0748   19.0895 H   0  0  0  0  0  0
  -26.7939  -22.2572   20.1372 H   0  0  0  0  0  0
  -27.1256  -24.6109   20.4025 H   0  0  0  0  0  0
  -28.7457  -16.4819   24.2629 H   0  0  0  0  0  0
  -29.6617  -15.4471   23.1837 H   0  0  0  0  0  0
  -27.9307  -15.7262   22.9004 H   0  0  0  0  0  0
  -30.0212  -20.9654   19.0150 H   0  0  0  0  0  0
  -30.7869  -21.5502   20.4449 H   0  0  0  0  0  0
  -28.7403  -15.4912   20.3782 H   0  0  0  0  0  0
  1 25  1  0  0  0
  1 30  2  0  0  0
  1 85  1  0  0  0
  2  3  1  0  0  0
  2 25  1  0  0  0
  2 88  1  0  0  0
  2 89  1  0  0  0
  3  4  1  0  0  0
  3 90  1  0  0  0
  3 91  1  0  0  0
  4  5  1  0  0  0
  4 92  1  0  0  0
  4 93  1  0  0  0
  5  6  1  0  0  0
  5 26  1  0  0  0
  5 94  1  0  0  0
  6 25  1  0  0  0
  6 95  1  0  0  0
  6 96  1  0  0  0
  7  8  2  0  0  0
  7 26  1  0  0  0
  7 29  1  0  0  0
  8  9  1  0  0  0
  8 22  1  0  0  0
  9 10  1  0  0  0
  9 27  2  0  0  0
 10 11  2  0  0  0
 10 15  1  0  0  0
 11 12  1  0  0  0
 11 97  1  0  0  0
 12 13  2  0  0  0
 12 98  1  0  0  0
 13 14  1  0  0  0
 13 31  1  0  0  0
 14 15  2  0  0  0
 14 99  1  0  0  0
 15100  1  0  0  0
 16 17  2  0  0  0
 16 21  1  0  0  0
 16 31  1  0  0  0
 17 18  1  0  0  0
 17101  1  0  0  0
 18 19  2  0  0  0
 18102  1  0  0  0
 19 20  1  0  0  0
 19 24  1  0  0  0
 20 21  2  0  0  0
 20103  1  0  0  0
 21 23  1  0  0  0
 22 28  1  0  0  0
 22 32  2  0  0  0
 26 27  1  0  0  0
 28104  1  0  0  0
 28105  1  0  0  0
 29106  1  0  0  0
 29107  1  0  0  0
 33 34  1  0  0  0
 33 66  1  0  0  0
 33 70  2  0  0  0
 34 36  1  0  0  0
 34 59  1  0  0  0
 34108  1  0  0  0
 35 44  2  0  0  0
 35 45  1  0  0  0
 35 68  1  0  0  0
 36 56  1  0  0  0
 36109  1  0  0  0
 37 39  1  0  0  0
 37 47  1  0  0  0
 37 66  1  0  0  0
 37110  1  0  0  0
 38 43  2  0  0  0
 38 46  1  0  0  0
 38 47  1  0  0  0
 39 64  1  0  0  0
 39 67  2  0  0  0
 40 52  1  0  0  0
 40 53  2  0  0  0
 40 58  1  0  0  0
 41111  1  0  0  0
 41112  1  0  0  0
 41113  1  0  0  0
 41 48  1  0  0  0
 42 43  1  0  0  0
 42 66  1  0  0  0
 42114  1  0  0  0
 42115  1  0  0  0
 43 44  1  0  0  0
 44116  1  0  0  0
 45 46  2  0  0  0
 45117  1  0  0  0
 46118  1  0  0  0
 47119  1  0  0  0
 47120  1  0  0  0
 48 56  1  0  0  0
 48 65  1  0  0  0
 48121  1  0  0  0
 49 50  1  0  0  0
 49 53  1  0  0  0
 49 64  1  0  0  0
 49122  1  0  0  0
 50 51  1  0  0  0
 50123  1  0  0  0
 50124  1  0  0  0
 51 52  1  0  0  0
 51125  1  0  0  0
 51126  1  0  0  0
 52127  1  0  0  0
 52128  1  0  0  0
 53 54  1  0  0  0
 54 55  2  0  0  0
 54129  1  0  0  0
 55 57  1  0  0  0
 55130  1  0  0  0
 56 69  2  0  0  0
 57 58  2  0  0  0
 57131  1  0  0  0
 58132  1  0  0  0
 59 60  1  0  0  0
 59 61  1  0  0  0
 59 62  1  0  0  0
 60133  1  0  0  0
 60134  1  0  0  0
 60135  1  0  0  0
 61136  1  0  0  0
 61137  1  0  0  0
 61138  1  0  0  0
 62139  1  0  0  0
 62140  1  0  0  0
 62141  1  0  0  0
 63 65  1  0  0  0
 63142  1  0  0  0
 63143  1  0  0  0
 63144  1  0  0  0
 64145  1  0  0  0
 65146  1  0  0  0
 68 81  1  0  0  0
 71 73  2  0  0  0
 71 75  1  0  0  0
 71147  1  0  0  0
 72 74  1  0  0  0
 72 76  2  0  0  0
 72148  1  0  0  0
 73 76  1  0  0  0
 73 83  1  0  0  0
 74 75  2  0  0  0
 74 82  1  0  0  0
 75 85  1  0  0  0
 76 87  1  0  0  0
 77 81  1  0  0  0
 77 84  1  0  0  0
 77 86  2  0  0  0
 78 79  1  0  0  0
 78 80  1  0  0  0
 78149  1  0  0  0
 78150  1  0  0  0
 79 81  1  0  0  0
 79151  1  0  0  0
 79152  1  0  0  0
 80 84  1  0  0  0
 80153  1  0  0  0
 80154  1  0  0  0
 81155  1  0  0  0
 82156  1  0  0  0
 82157  1  0  0  0
 82158  1  0  0  0
 83 84  1  0  0  0
 83159  1  0  0  0
 83160  1  0  0  0
 85161  1  0  0  0
M  ISO  4   1 100  68 101  81 101  85 100
M  END
> <chiral flag>
0

> <version>
0

> <s_m_source_file>
/data/baiqing/PycharmProjects/Reinvent-master-3.2/result/LINK_invent/BTK/process_docking_weight1_custom_product_contain_oxygen_bond_distance_aromatic_linkinvent_7_9_3/rearranged_h_0046.sdf

> <i_m_source_file_index>
47

> <r_mmod_Potential_Energy-OPLS-2005>
302.467926025391

> <r_mmod_Stretch_Energy-OPLS-2005>
142.998428344727

> <r_mmod_Bend_Energy-OPLS-2005>
188.411575317383

> <r_mmod_Torsional_Energy-OPLS-2005>
281.522521972656

> <r_mmod_Improper_Torsional_Energy-OPLS-2005>
14.4880695343018

> <r_mmod_Van_der_Waal_Energy-OPLS-2005>
152.068984985352

> <r_mmod_Electrostatic_Energy-OPLS-2005>
-345.098815917969

> <r_mmod_Solvation_Energy-OPLS-2005>
-231.868927001953

> <b_mmod_Minimization_Converged-OPLS-2005>
0

> <r_mmod_RMS_Derivative-OPLS-2005>
1.95374643802643

$$$$
47
                    3D
 Structure written by MMmdl.
163172  0  0  1  0            999 V2000
  -30.6662  -14.6067   20.4734 C   0  0  0  0  0  0
  -30.4235  -12.3646   19.4542 C   0  0  0  0  0  0
  -29.5010  -12.4836   18.2230 C   0  0  0  0  0  0
  -28.0228  -12.3386   18.6364 C   0  0  0  0  0  0
  -27.6489  -13.2216   19.8570 C   0  0  2  0  0  0
  -28.6947  -13.1030   20.9890 C   0  0  0  0  0  0
  -25.2540  -13.8187   20.5691 C   0  0  0  0  0  0
  -24.1814  -13.0439   20.9209 C   0  0  0  0  0  0
  -24.6399  -11.6919   20.8749 C   0  0  0  0  0  0
  -23.9067  -10.4294   21.0403 C   0  0  0  0  0  0
  -24.3617   -9.4212   21.9182 C   0  0  0  0  0  0
  -23.6291   -8.2246   22.0751 C   0  0  0  0  0  0
  -22.4277   -8.0281   21.3536 C   0  0  0  0  0  0
  -21.9906   -9.0255   20.4643 C   0  0  0  0  0  0
  -22.7234  -10.2137   20.3057 C   0  0  0  0  0  0
  -21.6861   -6.0742   22.5278 C   0  0  0  0  0  0
  -21.4022   -6.5643   23.8212 C   0  0  0  0  0  0
  -21.3653   -5.6794   24.9172 C   0  0  0  0  0  0
  -21.6043   -4.3056   24.7224 C   0  0  0  0  0  0
  -21.8817   -3.8149   23.4347 C   0  0  0  0  0  0
  -21.9197   -4.6966   22.3402 C   0  0  0  0  0  0
  -22.7835  -13.5236   21.1859 C   0  0  0  0  0  0
  -22.1663   -4.2157   21.0979 F   0  0  0  0  0  0
  -21.5627   -3.4538   25.7737 F   0  0  0  0  0  0
  -30.0106  -13.4087   20.4118 N   0  0  0  0  0  0
  -26.2967  -12.9376   20.3308 N   0  0  0  0  0  0
  -25.9323  -11.6525   20.5751 N   0  0  0  0  0  0
  -22.0485  -12.8230   22.0427 N   0  0  0  0  0  0
  -25.4221  -15.1900   20.4092 N   0  0  0  0  0  0
  -31.8461  -14.7100   20.1313 O   0  0  0  0  0  0
  -21.6638   -6.8878   21.4233 O   0  0  0  0  0  0
  -22.3516  -14.5526   20.6694 O   0  0  0  0  0  0
  -24.6248  -31.8577   23.2021 C   0  0  0  0  0  0
  -25.9103  -32.4761   23.8334 C   0  0  1  0  0  0
  -27.2228  -27.3330   20.0978 C   0  0  0  0  0  0
  -25.5925  -33.8564   24.2263 N   0  0  0  0  0  0
  -23.4172  -30.4813   21.5444 C   0  0  2  0  0  0
  -24.8600  -28.9329   20.1144 C   0  0  0  0  0  0
  -22.7460  -29.4609   22.4936 C   0  0  0  0  0  0
  -18.0272  -28.1388   22.8478 C   0  0  0  0  0  0
  -24.1491  -36.7305   23.2634 C   0  0  0  0  0  0
  -25.9568  -30.7915   21.3697 C   0  0  0  0  0  0
  -26.0295  -29.4202   20.7108 C   0  0  0  0  0  0
  -27.2165  -28.6334   20.6862 C   0  0  0  0  0  0
  -26.0235  -26.8785   19.5092 C   0  0  0  0  0  0
  -24.8575  -27.6663   19.5083 C   0  0  0  0  0  0
  -23.6304  -29.8154   20.1598 C   0  0  0  0  0  0
  -25.4114  -36.3082   24.0325 C   0  0  1  0  0  0
  -20.5871  -28.3679   23.1293 C   0  0  2  0  0  0
  -20.6769  -26.9408   22.5403 C   0  0  0  0  0  0
  -19.5748  -26.6391   21.5199 C   0  0  0  0  0  0
  -18.1929  -26.7928   22.1616 C   0  0  0  0  0  0
  -19.1527  -28.8849   23.2876 C   0  0  0  0  0  0
  -18.9459  -30.1450   23.8900 C   0  0  0  0  0  0
  -17.6466  -30.6593   24.0563 C   0  0  0  0  0  0
  -25.9049  -34.9445   23.5095 C   0  0  0  0  0  0
  -16.5354  -29.9097   23.6331 C   0  0  0  0  0  0
  -16.7263  -28.6513   23.0346 C   0  0  0  0  0  0
  -26.4495  -31.6581   25.0708 C   0  0  0  0  0  0
  -25.3737  -31.3742   26.1447 C   0  0  0  0  0  0
  -27.0310  -30.2995   24.6158 C   0  0  0  0  0  0
  -27.6048  -32.4316   25.7488 C   0  0  0  0  0  0
  -27.5583  -37.1797   24.8458 C   0  0  0  0  0  0
  -21.4173  -29.3036   22.3694 N   0  0  0  0  0  0
  -26.4293  -37.3777   23.9417 N   0  0  0  0  0  0
  -24.6853  -31.0598   22.0964 N   0  0  0  0  0  0
  -23.4188  -28.8142   23.3003 O   0  0  0  0  0  0
  -28.3741  -26.5410   20.0767 O   0  0  0  0  0  0
  -26.5621  -34.8913   22.4664 O   0  0  0  0  0  0
  -23.5419  -32.1371   23.7366 O   0  0  0  0  0  0
  -28.5379  -18.1743   21.7963 C   0  0  0  0  0  0
  -27.9853  -20.5565   21.7624 C   0  0  0  0  0  0
  -29.5053  -18.3524   20.7859 C   0  0  0  0  0  0
  -29.7009  -19.6876   20.2633 C   0  0  0  0  0  0
  -28.9438  -20.8125   20.7597 C   0  0  0  0  0  0
  -27.7857  -19.2622   22.2758 C   0  0  0  0  0  0
  -29.9001  -23.0987   21.0705 C   0  0  0  0  0  0
  -30.9704  -22.6975   21.7781 C   0  0  0  0  0  0
  -29.5665  -24.6135   21.0221 C   0  0  0  0  0  0
  -28.2058  -24.1694   19.0259 C   0  0  0  0  0  0
  -28.0661  -22.6647   19.4314 C   0  0  0  0  0  0
  -28.2878  -25.0786   20.2766 C   0  0  2  0  0  0
  -30.7466  -19.9127   19.1803 C   0  0  0  0  0  0
  -30.3625  -17.1229   20.3418 C   0  0  0  0  0  0
  -29.1116  -22.1812   20.3523 N   0  0  0  0  0  0
  -29.9160  -15.7287   20.6755 N   0  0  0  0  0  0
  -26.6266  -19.0132   23.5293 Cl  0  0  0  0  0  0
  -31.4686  -12.4585   19.1524 H   0  0  0  0  0  0
  -30.3335  -11.3774   19.9092 H   0  0  0  0  0  0
  -29.7569  -11.7209   17.4851 H   0  0  0  0  0  0
  -29.6568  -13.4455   17.7324 H   0  0  0  0  0  0
  -27.8468  -11.2880   18.8716 H   0  0  0  0  0  0
  -27.3714  -12.5697   17.7932 H   0  0  0  0  0  0
  -27.6605  -14.2514   19.5000 H   0  0  0  0  0  0
  -28.6928  -12.0973   21.4103 H   0  0  0  0  0  0
  -28.4595  -13.7787   21.8128 H   0  0  0  0  0  0
  -25.2766   -9.5704   22.4752 H   0  0  0  0  0  0
  -24.0015   -7.4642   22.7471 H   0  0  0  0  0  0
  -21.0838   -8.8760   19.8953 H   0  0  0  0  0  0
  -22.3676  -10.9668   19.6167 H   0  0  0  0  0  0
  -21.2011   -7.6151   23.9722 H   0  0  0  0  0  0
  -21.1477   -6.0522   25.9075 H   0  0  0  0  0  0
  -22.0603   -2.7612   23.2842 H   0  0  0  0  0  0
  -22.4113  -11.9902   22.4815 H   0  0  0  0  0  0
  -21.1097  -13.1235   22.2621 H   0  0  0  0  0  0
  -24.6540  -15.8399   20.5331 H   0  0  0  0  0  0
  -26.2600  -15.6307   20.0523 H   0  0  0  0  0  0
  -26.7161  -32.5424   23.1065 H   0  0  0  0  0  0
  -25.0057  -33.9701   25.0403 H   0  0  0  0  0  0
  -22.7102  -31.3012   21.4013 H   0  0  0  0  0  0
  -23.3744  -35.9646   23.3291 H   0  0  0  0  0  0
  -24.3590  -36.8934   22.2051 H   0  0  0  0  0  0
  -23.7247  -37.6510   23.6658 H   0  0  0  0  0  0
  -26.0855  -31.5551   20.6017 H   0  0  0  0  0  0
  -26.8396  -30.8365   21.9970 H   0  0  0  0  0  0
  -28.1233  -29.0084   21.1393 H   0  0  0  0  0  0
  -25.9627  -25.9098   19.0406 H   0  0  0  0  0  0
  -23.9602  -27.2810   19.0436 H   0  0  0  0  0  0
  -23.7546  -30.5923   19.4038 H   0  0  0  0  0  0
  -22.7487  -29.2489   19.8545 H   0  0  0  0  0  0
  -25.1286  -36.1924   25.0815 H   0  0  0  0  0  0
  -20.9945  -28.3242   24.1420 H   0  0  0  0  0  0
  -20.5677  -26.2279   23.3591 H   0  0  0  0  0  0
  -21.6639  -26.7453   22.1190 H   0  0  0  0  0  0
  -19.6922  -25.6305   21.1226 H   0  0  0  0  0  0
  -19.6701  -27.3206   20.6737 H   0  0  0  0  0  0
  -17.4189  -26.6650   21.4032 H   0  0  0  0  0  0
  -18.0358  -26.0078   22.9027 H   0  0  0  0  0  0
  -19.7938  -30.7260   24.2282 H   0  0  0  0  0  0
  -17.5025  -31.6275   24.5163 H   0  0  0  0  0  0
  -15.5360  -30.3012   23.7665 H   0  0  0  0  0  0
  -15.8652  -28.0851   22.7072 H   0  0  0  0  0  0
  -24.5898  -30.7094   25.7807 H   0  0  0  0  0  0
  -24.8948  -32.2921   26.4866 H   0  0  0  0  0  0
  -25.8070  -30.8935   27.0225 H   0  0  0  0  0  0
  -26.2860  -29.6766   24.1190 H   0  0  0  0  0  0
  -27.4005  -29.7235   25.4653 H   0  0  0  0  0  0
  -27.8742  -30.4275   23.9365 H   0  0  0  0  0  0
  -27.2646  -33.3616   26.2057 H   0  0  0  0  0  0
  -28.3873  -32.6873   25.0332 H   0  0  0  0  0  0
  -28.0693  -31.8441   26.5419 H   0  0  0  0  0  0
  -28.2574  -38.0115   24.7520 H   0  0  0  0  0  0
  -28.1096  -36.2645   24.6253 H   0  0  0  0  0  0
  -27.2305  -37.1412   25.8858 H   0  0  0  0  0  0
  -20.9347  -29.8772   21.6923 H   0  0  0  0  0  0
  -26.0167  -38.2846   24.1439 H   0  0  0  0  0  0
  -28.3817  -17.2017   22.2393 H   0  0  0  0  0  0
  -27.4092  -21.3726   22.1721 H   0  0  0  0  0  0
  -31.5830  -23.4163   22.3041 H   0  0  0  0  0  0
  -31.2737  -21.6610   21.8308 H   0  0  0  0  0  0
  -30.4234  -25.1025   20.5558 H   0  0  0  0  0  0
  -29.5319  -24.9933   22.0431 H   0  0  0  0  0  0
  -27.3686  -24.4447   18.3874 H   0  0  0  0  0  0
  -29.0997  -24.3008   18.4146 H   0  0  0  0  0  0
  -28.0772  -22.0434   18.5339 H   0  0  0  0  0  0
  -27.0907  -22.5171   19.8962 H   0  0  0  0  0  0
  -27.4240  -24.8624   20.9082 H   0  0  0  0  0  0
  -30.3978  -19.5021   18.2323 H   0  0  0  0  0  0
  -31.6879  -19.4296   19.4418 H   0  0  0  0  0  0
  -30.9640  -20.9694   19.0247 H   0  0  0  0  0  0
  -31.3558  -17.2690   20.7699 H   0  0  0  0  0  0
  -30.4936  -17.1679   19.2595 H   0  0  0  0  0  0
  -28.9403  -15.5941   20.8867 H   0  0  0  0  0  0
  1 25  1  0  0  0
  1 30  2  0  0  0
  1 86  1  0  0  0
  2  3  1  0  0  0
  2 25  1  0  0  0
  2 88  1  0  0  0
  2 89  1  0  0  0
  3  4  1  0  0  0
  3 90  1  0  0  0
  3 91  1  0  0  0
  4  5  1  0  0  0
  4 92  1  0  0  0
  4 93  1  0  0  0
  5  6  1  0  0  0
  5 26  1  0  0  0
  5 94  1  0  0  0
  6 25  1  0  0  0
  6 95  1  0  0  0
  6 96  1  0  0  0
  7  8  2  0  0  0
  7 26  1  0  0  0
  7 29  1  0  0  0
  8  9  1  0  0  0
  8 22  1  0  0  0
  9 10  1  0  0  0
  9 27  2  0  0  0
 10 11  2  0  0  0
 10 15  1  0  0  0
 11 12  1  0  0  0
 11 97  1  0  0  0
 12 13  2  0  0  0
 12 98  1  0  0  0
 13 14  1  0  0  0
 13 31  1  0  0  0
 14 15  2  0  0  0
 14 99  1  0  0  0
 15100  1  0  0  0
 16 17  2  0  0  0
 16 21  1  0  0  0
 16 31  1  0  0  0
 17 18  1  0  0  0
 17101  1  0  0  0
 18 19  2  0  0  0
 18102  1  0  0  0
 19 20  1  0  0  0
 19 24  1  0  0  0
 20 21  2  0  0  0
 20103  1  0  0  0
 21 23  1  0  0  0
 22 28  1  0  0  0
 22 32  2  0  0  0
 26 27  1  0  0  0
 28104  1  0  0  0
 28105  1  0  0  0
 29106  1  0  0  0
 29107  1  0  0  0
 33 34  1  0  0  0
 33 66  1  0  0  0
 33 70  2  0  0  0
 34 36  1  0  0  0
 34 59  1  0  0  0
 34108  1  0  0  0
 35 44  2  0  0  0
 35 45  1  0  0  0
 35 68  1  0  0  0
 36 56  1  0  0  0
 36109  1  0  0  0
 37 39  1  0  0  0
 37 47  1  0  0  0
 37 66  1  0  0  0
 37110  1  0  0  0
 38 43  2  0  0  0
 38 46  1  0  0  0
 38 47  1  0  0  0
 39 64  1  0  0  0
 39 67  2  0  0  0
 40 52  1  0  0  0
 40 53  2  0  0  0
 40 58  1  0  0  0
 41111  1  0  0  0
 41112  1  0  0  0
 41113  1  0  0  0
 41 48  1  0  0  0
 42 43  1  0  0  0
 42 66  1  0  0  0
 42114  1  0  0  0
 42115  1  0  0  0
 43 44  1  0  0  0
 44116  1  0  0  0
 45 46  2  0  0  0
 45117  1  0  0  0
 46118  1  0  0  0
 47119  1  0  0  0
 47120  1  0  0  0
 48 56  1  0  0  0
 48 65  1  0  0  0
 48121  1  0  0  0
 49 50  1  0  0  0
 49 53  1  0  0  0
 49 64  1  0  0  0
 49122  1  0  0  0
 50 51  1  0  0  0
 50123  1  0  0  0
 50124  1  0  0  0
 51 52  1  0  0  0
 51125  1  0  0  0
 51126  1  0  0  0
 52127  1  0  0  0
 52128  1  0  0  0
 53 54  1  0  0  0
 54 55  2  0  0  0
 54129  1  0  0  0
 55 57  1  0  0  0
 55130  1  0  0  0
 56 69  2  0  0  0
 57 58  2  0  0  0
 57131  1  0  0  0
 58132  1  0  0  0
 59 60  1  0  0  0
 59 61  1  0  0  0
 59 62  1  0  0  0
 60133  1  0  0  0
 60134  1  0  0  0
 60135  1  0  0  0
 61136  1  0  0  0
 61137  1  0  0  0
 61138  1  0  0  0
 62139  1  0  0  0
 62140  1  0  0  0
 62141  1  0  0  0
 63 65  1  0  0  0
 63142  1  0  0  0
 63143  1  0  0  0
 63144  1  0  0  0
 64145  1  0  0  0
 65146  1  0  0  0
 68 82  1  0  0  0
 71 73  2  0  0  0
 71 76  1  0  0  0
 71147  1  0  0  0
 72 75  1  0  0  0
 72 76  2  0  0  0
 72148  1  0  0  0
 73 74  1  0  0  0
 73 84  1  0  0  0
 74 75  2  0  0  0
 74 83  1  0  0  0
 75 85  1  0  0  0
 76 87  1  0  0  0
 77 78  2  0  0  0
 77 79  1  0  0  0
 77 85  1  0  0  0
 78149  1  0  0  0
 78150  1  0  0  0
 79 82  1  0  0  0
 79151  1  0  0  0
 79152  1  0  0  0
 80 81  1  0  0  0
 80 82  1  0  0  0
 80153  1  0  0  0
 80154  1  0  0  0
 81 85  1  0  0  0
 81155  1  0  0  0
 81156  1  0  0  0
 82157  1  0  0  0
 83158  1  0  0  0
 83159  1  0  0  0
 83160  1  0  0  0
 84 86  1  0  0  0
 84161  1  0  0  0
 84162  1  0  0  0
 86163  1  0  0  0
M  ISO  4   1 100  68 101  82 101  86 100
M  END
> <chiral flag>
0

> <version>
0

> <s_m_source_file>
/data/baiqing/PycharmProjects/Reinvent-master-3.2/result/LINK_invent/BTK/process_docking_weight1_custom_product_contain_oxygen_bond_distance_aromatic_linkinvent_7_9_3/rearranged_h_0046.sdf

> <i_m_source_file_index>
48

> <r_mmod_Potential_Energy-OPLS-2005>
-10.9558725357056

> <r_mmod_Stretch_Energy-OPLS-2005>
71.2105178833008

> <r_mmod_Bend_Energy-OPLS-2005>
129.4677734375

> <r_mmod_Torsional_Energy-OPLS-2005>
254.675018310547

> <r_mmod_Improper_Torsional_Energy-OPLS-2005>
7.52273511886597

> <r_mmod_Van_der_Waal_Energy-OPLS-2005>
145.713760375977

> <r_mmod_Electrostatic_Energy-OPLS-2005>
-455.485412597656

> <r_mmod_Solvation_Energy-OPLS-2005>
-204.110198974609

> <b_mmod_Minimization_Converged-OPLS-2005>
0

> <r_mmod_RMS_Derivative-OPLS-2005>
2.35783100128174

$$$$
48
                    3D
 Structure written by MMmdl.
154162  0  0  1  0            999 V2000
  -30.6958  -13.7217   20.5949 C   0  0  0  0  0  0
  -30.4960  -11.4675   19.1866 C   0  0  0  0  0  0
  -29.2897  -12.1699   17.8436 C   0  0  0  0  0  0
  -27.9433  -13.4421   18.3664 C   0  0  0  0  0  0
  -27.6285  -14.0401   20.2585 C   0  0  2  0  0  0
  -28.7472  -13.3070   21.6784 C   0  0  0  0  0  0
  -25.4421  -14.8783   21.2961 C   0  0  0  0  0  0
  -24.4328  -14.1206   21.7898 C   0  0  0  0  0  0
  -25.0620  -13.0221   21.1453 C   0  0  0  0  0  0
  -24.1771  -10.6795   19.7344 C   0  0  0  0  0  0
  -24.5089   -9.2157   20.2041 C   0  0  0  0  0  0
  -23.8411   -8.3225   21.1715 C   0  0  0  0  0  0
  -22.4537   -8.1999   21.0728 C   0  0  0  0  0  0
  -21.9537   -9.1785   20.1759 C   0  0  0  0  0  0
  -22.7617  -10.2124   19.5203 C   0  0  0  0  0  0
  -21.7703   -6.2060   22.4930 C   0  0  0  0  0  0
  -21.4745   -6.6492   23.8032 C   0  0  0  0  0  0
  -21.4020   -5.7400   24.8859 C   0  0  0  0  0  0
  -21.6173   -4.3638   24.6807 C   0  0  0  0  0  0
  -21.8925   -3.8995   23.3836 C   0  0  0  0  0  0
  -21.9565   -4.8053   22.3009 C   0  0  0  0  0  0
  -22.9495  -14.4874   21.9796 C   0  0  0  0  0  0
  -22.1702   -4.3041   21.0604 F   0  0  0  0  0  0
  -21.5555   -3.4942   25.7206 F   0  0  0  0  0  0
  -30.2006  -12.5470   20.7577 N   0  0  0  0  0  0
  -26.4006  -14.0394   20.8767 N   0  0  0  0  0  0
  -26.1831  -13.1993   21.7741 N   0  0  0  0  0  0
  -22.1722  -13.6504   22.6883 N   0  0  0  0  0  0
  -25.7016  -16.1756   21.1791 N   0  0  0  0  0  0
  -31.6546  -14.2990   20.0543 O   0  0  0  0  0  0
  -21.6695   -7.0704   21.3977 O   0  0  0  0  0  0
  -22.4112  -15.2387   21.1689 O   0  0  0  0  0  0
  -24.7487  -31.7080   23.1042 C   0  0  0  0  0  0
  -25.9792  -32.3957   23.7731 C   0  0  1  0  0  0
  -26.4080  -25.7751   20.0875 C   0  0  0  0  0  0
  -25.6100  -33.7861   24.1503 N   0  0  0  0  0  0
  -23.5493  -30.3470   21.4917 C   0  0  2  0  0  0
  -24.8355  -28.5610   20.0417 C   0  0  0  0  0  0
  -22.7819  -29.3959   22.4516 C   0  0  0  0  0  0
  -18.0327  -28.1425   22.8438 C   0  0  0  0  0  0
  -24.1514  -36.6935   23.2669 C   0  0  0  0  0  0
  -26.1244  -30.0666   21.4961 C   0  0  0  0  0  0
  -26.0081  -28.5764   20.7871 C   0  0  0  0  0  0
  -26.7957  -27.2115   20.7736 C   0  0  0  0  0  0
  -25.4100  -26.2401   19.2162 C   0  0  0  0  0  0
  -24.6492  -27.4481   19.2190 C   0  0  0  0  0  0
  -23.7806  -29.6852   20.1045 C   0  0  0  0  0  0
  -25.4196  -36.2607   24.0216 C   0  0  1  0  0  0
  -20.5963  -28.3777   23.1067 C   0  0  2  0  0  0
  -20.6758  -26.9400   22.5418 C   0  0  0  0  0  0
  -19.5756  -26.6334   21.5215 C   0  0  0  0  0  0
  -18.1936  -26.7947   22.1601 C   0  0  0  0  0  0
  -19.1602  -28.8936   23.2732 C   0  0  0  0  0  0
  -18.9517  -30.1513   23.8794 C   0  0  0  0  0  0
  -17.6509  -30.6606   24.0545 C   0  0  0  0  0  0
  -25.9236  -34.9020   23.4748 C   0  0  0  0  0  0
  -16.5392  -29.9090   23.6361 C   0  0  0  0  0  0
  -16.7310  -28.6511   23.0376 C   0  0  0  0  0  0
  -26.4732  -31.6397   25.0696 C   0  0  0  0  0  0
  -25.3617  -31.3942   26.1190 C   0  0  0  0  0  0
  -27.0784  -30.2674   24.7201 C   0  0  0  0  0  0
  -27.6046  -32.4473   25.7492 C   0  0  0  0  0  0
  -27.5547  -37.1625   24.8461 C   0  0  0  0  0  0
  -21.4441  -29.2936   22.3304 N   0  0  0  0  0  0
  -26.4244  -37.3466   23.9404 N   0  0  0  0  0  0
  -24.8570  -30.7704   22.0743 N   0  0  0  0  0  0
  -23.4080  -28.7562   23.3004 O   0  0  0  0  0  0
  -26.6769  -24.0368   19.9846 O   0  0  0  0  0  0
  -26.5976  -34.8756   22.4438 O   0  0  0  0  0  0
  -23.6442  -32.0672   23.5616 O   0  0  0  0  0  0
  -25.3690  -10.8863   21.6784 C   0  0  0  0  0  0
  -23.5045  -11.5340   21.6813 C   0  0  0  0  0  0
  -26.3888  -11.4488   20.0872 C   0  0  0  0  0  0
  -24.2160  -13.7495   19.0900 C   0  0  0  0  0  0
  -23.0370  -12.7257   20.1192 C   0  0  0  0  0  0
  -25.5148  -12.5514   18.8880 C   0  0  0  0  0  0
  -25.6990  -19.8141   19.3297 C   0  0  0  0  0  0
  -28.1945  -11.6520   20.0391 C   0  0  0  0  0  0
  -24.5708  -16.0304   18.8158 C   0  0  0  0  0  0
  -25.7137  -22.0728   19.7998 C   0  0  0  0  0  0
  -24.9143  -18.1504   19.3570 N   0  0  0  0  0  0
  -29.7504  -13.3349   19.8131 N   0  0  0  0  0  0
  -26.7558  -19.6407   18.7178 O   0  0  0  0  0  0
  -21.3398  -12.9693   19.7517 Cl  0  0  0  0  0  0
  -25.5459  -11.9337   17.2559 Cl  0  0  0  0  0  0
  -31.5300  -11.5832   18.8547 H   0  0  0  0  0  0
  -30.3726  -10.4013   19.3875 H   0  0  0  0  0  0
  -28.8147  -11.3427   17.3132 H   0  0  0  0  0  0
  -29.8962  -12.6391   17.0677 H   0  0  0  0  0  0
  -27.1977  -13.6771   17.6194 H   0  0  0  0  0  0
  -28.4638  -14.3454   18.0346 H   0  0  0  0  0  0
  -27.8943  -15.0978   20.2107 H   0  0  0  0  0  0
  -28.3500  -12.5563   22.3657 H   0  0  0  0  0  0
  -29.0347  -14.1157   22.3579 H   0  0  0  0  0  0
  -25.5658   -8.9822   20.1834 H   0  0  0  0  0  0
  -24.4008   -7.5258   21.6406 H   0  0  0  0  0  0
  -20.9172   -9.0980   19.8806 H   0  0  0  0  0  0
  -22.1815  -10.7878   18.8174 H   0  0  0  0  0  0
  -21.2778   -7.6973   23.9765 H   0  0  0  0  0  0
  -21.1766   -6.1027   25.8783 H   0  0  0  0  0  0
  -22.0416   -2.8449   23.2111 H   0  0  0  0  0  0
  -22.5894  -12.9321   23.2602 H   0  0  0  0  0  0
  -21.1701  -13.7712   22.6899 H   0  0  0  0  0  0
  -25.0518  -16.9051   21.4422 H   0  0  0  0  0  0
  -26.5535  -16.5505   20.7822 H   0  0  0  0  0  0
  -26.7909  -32.4176   23.0440 H   0  0  0  0  0  0
  -25.0015  -33.8778   24.9502 H   0  0  0  0  0  0
  -22.9197  -31.2225   21.3181 H   0  0  0  0  0  0
  -23.3823  -35.9212   23.3191 H   0  0  0  0  0  0
  -24.3557  -36.8794   22.2114 H   0  0  0  0  0  0
  -23.7236  -37.6023   23.6911 H   0  0  0  0  0  0
  -26.5139  -30.7394   20.7311 H   0  0  0  0  0  0
  -26.9267  -30.0093   22.2153 H   0  0  0  0  0  0
  -27.6536  -27.1829   21.4301 H   0  0  0  0  0  0
  -25.0307  -25.4891   18.5379 H   0  0  0  0  0  0
  -23.8014  -27.4713   18.5475 H   0  0  0  0  0  0
  -24.0853  -30.4545   19.3941 H   0  0  0  0  0  0
  -22.8306  -29.3041   19.7254 H   0  0  0  0  0  0
  -25.1446  -36.1249   25.0702 H   0  0  0  0  0  0
  -21.0047  -28.3451   24.1194 H   0  0  0  0  0  0
  -20.5564  -26.2415   23.3716 H   0  0  0  0  0  0
  -21.6618  -26.7271   22.1271 H   0  0  0  0  0  0
  -19.6899  -25.6215   21.1315 H   0  0  0  0  0  0
  -19.6723  -27.3085   20.6702 H   0  0  0  0  0  0
  -17.4209  -26.6710   21.3995 H   0  0  0  0  0  0
  -18.0299  -26.0109   22.9011 H   0  0  0  0  0  0
  -19.7999  -30.7346   24.2119 H   0  0  0  0  0  0
  -17.5065  -31.6274   24.5164 H   0  0  0  0  0  0
  -15.5392  -30.2967   23.7739 H   0  0  0  0  0  0
  -15.8705  -28.0798   22.7156 H   0  0  0  0  0  0
  -24.5870  -30.7206   25.7498 H   0  0  0  0  0  0
  -24.8736  -32.3229   26.4156 H   0  0  0  0  0  0
  -25.7644  -30.9411   27.0258 H   0  0  0  0  0  0
  -26.3453  -29.5862   24.2871 H   0  0  0  0  0  0
  -27.4494  -29.7683   25.6163 H   0  0  0  0  0  0
  -27.9363  -30.3607   24.0542 H   0  0  0  0  0  0
  -27.2502  -33.3961   26.1533 H   0  0  0  0  0  0
  -28.4082  -32.6730   25.0468 H   0  0  0  0  0  0
  -28.0460  -31.8995   26.5827 H   0  0  0  0  0  0
  -28.2462  -38.0010   24.7533 H   0  0  0  0  0  0
  -28.1143  -36.2520   24.6263 H   0  0  0  0  0  0
  -27.2258  -37.1203   25.8859 H   0  0  0  0  0  0
  -20.9801  -29.8610   21.6347 H   0  0  0  0  0  0
  -25.9989  -38.2470   24.1443 H   0  0  0  0  0  0
  -25.7961  -10.3034   22.4821 H   0  0  0  0  0  0
  -22.7720  -11.1299   22.3657 H   0  0  0  0  0  0
  -28.2619  -10.8081   19.3516 H   0  0  0  0  0  0
  -28.4284  -11.0282   20.9112 H   0  0  0  0  0  0
  -23.7170  -16.2047   18.1616 H   0  0  0  0  0  0
  -25.4120  -15.9385   18.1293 H   0  0  0  0  0  0
  -25.2515  -22.0276   20.7857 H   0  0  0  0  0  0
  -24.8906  -22.3644   19.1483 H   0  0  0  0  0  0
  -24.0897  -18.3509   19.9092 H   0  0  0  0  0  0
  -29.7415  -13.7841   18.9126 H   0  0  0  0  0  0
  1 25  1  0  0  0
  1 30  2  0  0  0
  1 82  1  0  0  0
  2  3  1  0  0  0
  2 25  1  0  0  0
  2 86  1  0  0  0
  2 87  1  0  0  0
  3  4  1  0  0  0
  3 88  1  0  0  0
  3 89  1  0  0  0
  4  5  1  0  0  0
  4 90  1  0  0  0
  4 91  1  0  0  0
  5  6  1  0  0  0
  5 26  1  0  0  0
  5 92  1  0  0  0
  6 25  1  0  0  0
  6 93  1  0  0  0
  6 94  1  0  0  0
  7  8  2  0  0  0
  7 26  1  0  0  0
  7 29  1  0  0  0
  8  9  1  0  0  0
  8 22  1  0  0  0
  9 10  1  0  0  0
  9 27  2  0  0  0
 10 11  2  0  0  0
 10 15  1  0  0  0
 11 12  1  0  0  0
 11 95  1  0  0  0
 12 13  2  0  0  0
 12 96  1  0  0  0
 13 14  1  0  0  0
 13 31  1  0  0  0
 14 15  2  0  0  0
 14 97  1  0  0  0
 15 98  1  0  0  0
 16 17  2  0  0  0
 16 21  1  0  0  0
 16 31  1  0  0  0
 17 18  1  0  0  0
 17 99  1  0  0  0
 18 19  2  0  0  0
 18100  1  0  0  0
 19 20  1  0  0  0
 19 24  1  0  0  0
 20 21  2  0  0  0
 20101  1  0  0  0
 21 23  1  0  0  0
 22 28  1  0  0  0
 22 32  2  0  0  0
 26 27  1  0  0  0
 28102  1  0  0  0
 28103  1  0  0  0
 29104  1  0  0  0
 29105  1  0  0  0
 33 34  1  0  0  0
 33 66  1  0  0  0
 33 70  2  0  0  0
 34 36  1  0  0  0
 34 59  1  0  0  0
 34106  1  0  0  0
 35 44  2  0  0  0
 35 45  1  0  0  0
 35 68  1  0  0  0
 36 56  1  0  0  0
 36107  1  0  0  0
 37 39  1  0  0  0
 37 47  1  0  0  0
 37 66  1  0  0  0
 37108  1  0  0  0
 38 43  2  0  0  0
 38 46  1  0  0  0
 38 47  1  0  0  0
 39 64  1  0  0  0
 39 67  2  0  0  0
 40 52  1  0  0  0
 40 53  2  0  0  0
 40 58  1  0  0  0
 41109  1  0  0  0
 41110  1  0  0  0
 41111  1  0  0  0
 41 48  1  0  0  0
 42 43  1  0  0  0
 42 66  1  0  0  0
 42112  1  0  0  0
 42113  1  0  0  0
 43 44  1  0  0  0
 44114  1  0  0  0
 45 46  2  0  0  0
 45115  1  0  0  0
 46116  1  0  0  0
 47117  1  0  0  0
 47118  1  0  0  0
 48 56  1  0  0  0
 48 65  1  0  0  0
 48119  1  0  0  0
 49 50  1  0  0  0
 49 53  1  0  0  0
 49 64  1  0  0  0
 49120  1  0  0  0
 50 51  1  0  0  0
 50121  1  0  0  0
 50122  1  0  0  0
 51 52  1  0  0  0
 51123  1  0  0  0
 51124  1  0  0  0
 52125  1  0  0  0
 52126  1  0  0  0
 53 54  1  0  0  0
 54 55  2  0  0  0
 54127  1  0  0  0
 55 57  1  0  0  0
 55128  1  0  0  0
 56 69  2  0  0  0
 57 58  2  0  0  0
 57129  1  0  0  0
 58130  1  0  0  0
 59 60  1  0  0  0
 59 61  1  0  0  0
 59 62  1  0  0  0
 60131  1  0  0  0
 60132  1  0  0  0
 60133  1  0  0  0
 61134  1  0  0  0
 61135  1  0  0  0
 61136  1  0  0  0
 62137  1  0  0  0
 62138  1  0  0  0
 62139  1  0  0  0
 63 65  1  0  0  0
 63140  1  0  0  0
 63141  1  0  0  0
 63142  1  0  0  0
 64143  1  0  0  0
 65144  1  0  0  0
 68 80  1  0  0  0
 71 72  2  0  0  0
 71 73  1  0  0  0
 71145  1  0  0  0
 72 75  1  0  0  0
 72146  1  0  0  0
 73 76  2  0  0  0
 73 78  1  0  0  0
 74 75  2  0  0  0
 74 76  1  0  0  0
 74 79  1  0  0  0
 75 84  1  0  0  0
 76 85  1  0  0  0
 77 80  1  0  0  0
 77 81  1  0  0  0
 77 83  2  0  0  0
 78 82  1  0  0  0
 78147  1  0  0  0
 78148  1  0  0  0
 79 81  1  0  0  0
 79149  1  0  0  0
 79150  1  0  0  0
 80151  1  0  0  0
 80152  1  0  0  0
 81153  1  0  0  0
 82154  1  0  0  0
M  ISO  4   1 100  68 101  80 101  82 100
M  END
> <chiral flag>
0

> <version>
0

> <s_m_source_file>
/data/baiqing/PycharmProjects/Reinvent-master-3.2/result/LINK_invent/BTK/process_docking_weight1_custom_product_contain_oxygen_bond_distance_aromatic_linkinvent_7_9_3/rearranged_h_0046.sdf

> <i_m_source_file_index>
49

> <r_mmod_Potential_Energy-OPLS-2005>
25020.00390625

> <r_mmod_Stretch_Energy-OPLS-2005>
13078.1376953125

> <r_mmod_Bend_Energy-OPLS-2005>
2256.37768554688

> <r_mmod_Torsional_Energy-OPLS-2005>
974.981384277344

> <r_mmod_Improper_Torsional_Energy-OPLS-2005>
137.516723632812

> <r_mmod_Van_der_Waal_Energy-OPLS-2005>
4513.916015625

> <r_mmod_Electrostatic_Energy-OPLS-2005>
-442.010955810547

> <r_mmod_Solvation_Energy-OPLS-2005>
-250.694854736328

> <b_mmod_Minimization_Converged-OPLS-2005>
0

> <r_mmod_RMS_Derivative-OPLS-2005>
1.61943507194519

$$$$
49
                    3D
 Structure written by MMmdl.
159167  0  0  1  0            999 V2000
  -30.6860  -14.5238   20.6189 C   0  0  0  0  0  0
  -30.4456  -12.3559   19.4304 C   0  0  0  0  0  0
  -29.5142  -12.5220   18.2109 C   0  0  0  0  0  0
  -28.0337  -12.3576   18.6191 C   0  0  0  0  0  0
  -27.6626  -13.2066   19.8651 C   0  0  2  0  0  0
  -28.7032  -13.0100   20.9907 C   0  0  0  0  0  0
  -25.2613  -13.8138   20.5687 C   0  0  0  0  0  0
  -24.1860  -13.0413   20.9163 C   0  0  0  0  0  0
  -24.6407  -11.6876   20.8655 C   0  0  0  0  0  0
  -23.9082  -10.4261   21.0330 C   0  0  0  0  0  0
  -24.3622   -9.4217   21.9138 C   0  0  0  0  0  0
  -23.6304   -8.2252   22.0742 C   0  0  0  0  0  0
  -22.4299   -8.0269   21.3550 C   0  0  0  0  0  0
  -21.9919   -9.0232   20.4653 C   0  0  0  0  0  0
  -22.7225  -10.2104   20.3011 C   0  0  0  0  0  0
  -21.6874   -6.0736   22.5277 C   0  0  0  0  0  0
  -21.4019   -6.5635   23.8208 C   0  0  0  0  0  0
  -21.3665   -5.6788   24.9178 C   0  0  0  0  0  0
  -21.6048   -4.3058   24.7226 C   0  0  0  0  0  0
  -21.8841   -3.8148   23.4345 C   0  0  0  0  0  0
  -21.9209   -4.6963   22.3402 C   0  0  0  0  0  0
  -22.7892  -13.5227   21.1856 C   0  0  0  0  0  0
  -22.1684   -4.2147   21.0984 F   0  0  0  0  0  0
  -21.5615   -3.4558   25.7747 F   0  0  0  0  0  0
  -30.0333  -13.3370   20.4467 N   0  0  0  0  0  0
  -26.3041  -12.9313   20.3300 N   0  0  0  0  0  0
  -25.9331  -11.6465   20.5665 N   0  0  0  0  0  0
  -22.0550  -12.8189   22.0405 N   0  0  0  0  0  0
  -25.4331  -15.1874   20.4175 N   0  0  0  0  0  0
  -31.8221  -14.7307   20.1823 O   0  0  0  0  0  0
  -21.6661   -6.8874   21.4237 O   0  0  0  0  0  0
  -22.3570  -14.5548   20.6752 O   0  0  0  0  0  0
  -24.6229  -31.8572   23.2143 C   0  0  0  0  0  0
  -25.9129  -32.4751   23.8405 C   0  0  1  0  0  0
  -27.2363  -27.3941   20.0996 C   0  0  0  0  0  0
  -25.5966  -33.8545   24.2360 N   0  0  0  0  0  0
  -23.4070  -30.4912   21.5479 C   0  0  2  0  0  0
  -24.8579  -28.9578   20.1085 C   0  0  0  0  0  0
  -22.7388  -29.4689   22.4949 C   0  0  0  0  0  0
  -18.0278  -28.1394   22.8466 C   0  0  0  0  0  0
  -24.1486  -36.7342   23.2641 C   0  0  0  0  0  0
  -25.9420  -30.8154   21.3719 C   0  0  0  0  0  0
  -26.0183  -29.4468   20.7217 C   0  0  0  0  0  0
  -27.2043  -28.6694   20.7230 C   0  0  0  0  0  0
  -26.0557  -26.9508   19.4519 C   0  0  0  0  0  0
  -24.8759  -27.7112   19.4677 C   0  0  0  0  0  0
  -23.6170  -29.8216   20.1644 C   0  0  0  0  0  0
  -25.4092  -36.3056   24.0333 C   0  0  1  0  0  0
  -20.5858  -28.3699   23.1299 C   0  0  2  0  0  0
  -20.6769  -26.9433   22.5389 C   0  0  0  0  0  0
  -19.5790  -26.6398   21.5160 C   0  0  0  0  0  0
  -18.1956  -26.7950   22.1562 C   0  0  0  0  0  0
  -19.1512  -28.8868   23.2891 C   0  0  0  0  0  0
  -18.9441  -30.1459   23.8943 C   0  0  0  0  0  0
  -17.6434  -30.6599   24.0577 C   0  0  0  0  0  0
  -25.8999  -34.9419   23.5119 C   0  0  0  0  0  0
  -16.5332  -29.9079   23.6354 C   0  0  0  0  0  0
  -16.7258  -28.6493   23.0377 C   0  0  0  0  0  0
  -26.4534  -31.6555   25.0754 C   0  0  0  0  0  0
  -25.3809  -31.3604   26.1514 C   0  0  0  0  0  0
  -27.0421  -30.3008   24.6199 C   0  0  0  0  0  0
  -27.6129  -32.4258   25.7515 C   0  0  0  0  0  0
  -27.5573  -37.1803   24.8458 C   0  0  0  0  0  0
  -21.4116  -29.3083   22.3710 N   0  0  0  0  0  0
  -26.4274  -37.3749   23.9390 N   0  0  0  0  0  0
  -24.6757  -31.0672   22.1035 N   0  0  0  0  0  0
  -23.4116  -28.8207   23.3001 O   0  0  0  0  0  0
  -28.3904  -26.6139   20.1515 O   0  0  0  0  0  0
  -26.5515  -34.8880   22.4643 O   0  0  0  0  0  0
  -23.5428  -32.1310   23.7558 O   0  0  0  0  0  0
  -30.9586  -18.4102   23.2850 C   0  0  0  0  0  0
  -30.8503  -17.0904   22.7991 C   0  0  0  0  0  0
  -29.8355  -17.9549   20.7657 C   0  0  0  0  0  0
  -29.9034  -19.2978   21.2561 C   0  0  0  0  0  0
  -30.4725  -19.5148   22.5474 C   0  0  0  0  0  0
  -30.2737  -16.8460   21.5360 C   0  0  0  0  0  0
  -29.2806  -20.3826   20.4439 C   0  0  0  0  0  0
  -30.5331  -20.8856   23.2218 C   0  0  0  0  0  0
  -29.3326  -24.2212   20.3015 C   0  0  0  0  0  0
  -29.1628  -22.8115   19.6561 C   0  0  0  0  0  0
  -28.2938  -25.2287   19.7321 C   0  0  0  0  0  0
  -28.1997  -20.0914   19.7215 N   0  0  0  0  0  0
  -29.9262  -15.5091   21.1520 N   0  0  0  0  0  0
  -29.7326  -21.6618   20.4218 N   0  3  0  0  0  0
  -31.4872  -12.4847   19.1281 H   0  0  0  0  0  0
  -30.3696  -11.3466   19.8340 H   0  0  0  0  0  0
  -29.7724  -11.7890   17.4463 H   0  0  0  0  0  0
  -29.6759  -13.5029   17.7588 H   0  0  0  0  0  0
  -27.8625  -11.3010   18.8292 H   0  0  0  0  0  0
  -27.3858  -12.6061   17.7793 H   0  0  0  0  0  0
  -27.6958  -14.2503   19.5505 H   0  0  0  0  0  0
  -28.6900  -11.9784   21.3465 H   0  0  0  0  0  0
  -28.4398  -13.6171   21.8567 H   0  0  0  0  0  0
  -25.2765   -9.5732   22.4720 H   0  0  0  0  0  0
  -24.0048   -7.4660   22.7455 H   0  0  0  0  0  0
  -21.0863   -8.8724   19.8961 H   0  0  0  0  0  0
  -22.3661  -10.9638   19.6124 H   0  0  0  0  0  0
  -21.2004   -7.6134   23.9723 H   0  0  0  0  0  0
  -21.1466   -6.0511   25.9086 H   0  0  0  0  0  0
  -22.0614   -2.7608   23.2857 H   0  0  0  0  0  0
  -22.4187  -11.9827   22.4717 H   0  0  0  0  0  0
  -21.1150  -13.1190   22.2591 H   0  0  0  0  0  0
  -24.6628  -15.8371   20.5358 H   0  0  0  0  0  0
  -26.2835  -15.6402   20.1067 H   0  0  0  0  0  0
  -26.7198  -32.5430   23.1173 H   0  0  0  0  0  0
  -25.0189  -33.9649   25.0561 H   0  0  0  0  0  0
  -22.7035  -31.3154   21.4084 H   0  0  0  0  0  0
  -23.3689  -35.9738   23.3267 H   0  0  0  0  0  0
  -24.3631  -36.8979   22.2066 H   0  0  0  0  0  0
  -23.7277  -37.6557   23.6666 H   0  0  0  0  0  0
  -26.0518  -31.5817   20.6018 H   0  0  0  0  0  0
  -26.8297  -30.8695   21.9918 H   0  0  0  0  0  0
  -28.0914  -29.0307   21.2224 H   0  0  0  0  0  0
  -26.0110  -26.0137   18.9189 H   0  0  0  0  0  0
  -23.9934  -27.3348   18.9685 H   0  0  0  0  0  0
  -23.7177  -30.5909   19.3996 H   0  0  0  0  0  0
  -22.7410  -29.2384   19.8734 H   0  0  0  0  0  0
  -25.1259  -36.1910   25.0817 H   0  0  0  0  0  0
  -20.9965  -28.3263   24.1408 H   0  0  0  0  0  0
  -20.5662  -26.2282   23.3542 H   0  0  0  0  0  0
  -21.6645  -26.7480   22.1208 H   0  0  0  0  0  0
  -19.6965  -25.6293   21.1224 H   0  0  0  0  0  0
  -19.6792  -27.3175   20.6665 H   0  0  0  0  0  0
  -17.4204  -26.6687   21.3966 H   0  0  0  0  0  0
  -18.0431  -26.0072   22.8955 H   0  0  0  0  0  0
  -19.7902  -30.7263   24.2342 H   0  0  0  0  0  0
  -17.4979  -31.6283   24.5153 H   0  0  0  0  0  0
  -15.5335  -30.2977   23.7695 H   0  0  0  0  0  0
  -15.8641  -28.0797   22.7136 H   0  0  0  0  0  0
  -24.6074  -30.6838   25.7860 H   0  0  0  0  0  0
  -24.8937  -32.2718   26.4967 H   0  0  0  0  0  0
  -25.8223  -30.8800   27.0260 H   0  0  0  0  0  0
  -26.2994  -29.6648   24.1375 H   0  0  0  0  0  0
  -27.4283  -29.7363   25.4699 H   0  0  0  0  0  0
  -27.8771  -30.4314   23.9324 H   0  0  0  0  0  0
  -27.2813  -33.3570   26.2105 H   0  0  0  0  0  0
  -28.3964  -32.6737   25.0350 H   0  0  0  0  0  0
  -28.0776  -31.8325   26.5408 H   0  0  0  0  0  0
  -28.2543  -38.0139   24.7482 H   0  0  0  0  0  0
  -28.1077  -36.2644   24.6263 H   0  0  0  0  0  0
  -27.2286  -37.1459   25.8860 H   0  0  0  0  0  0
  -20.9251  -29.8816   21.6963 H   0  0  0  0  0  0
  -26.0145  -38.2805   24.1400 H   0  0  0  0  0  0
  -31.3780  -18.5660   24.2703 H   0  0  0  0  0  0
  -31.1610  -16.2727   23.4355 H   0  0  0  0  0  0
  -29.3766  -17.7584   19.8085 H   0  0  0  0  0  0
  -30.7252  -20.7953   24.2921 H   0  0  0  0  0  0
  -29.5911  -21.4277   23.1281 H   0  0  0  0  0  0
  -31.3352  -21.4932   22.8018 H   0  0  0  0  0  0
  -30.3398  -24.5857   20.0964 H   0  0  0  0  0  0
  -29.2259  -24.1550   21.3860 H   0  0  0  0  0  0
  -29.5780  -22.8157   18.6469 H   0  0  0  0  0  0
  -28.0954  -22.6338   19.5343 H   0  0  0  0  0  0
  -27.3293  -24.8153   20.0235 H   0  0  0  0  0  0
  -28.3432  -25.2076   18.6444 H   0  0  0  0  0  0
  -27.8202  -19.1580   19.7714 H   0  0  0  0  0  0
  -27.7086  -20.7725   19.1682 H   0  0  0  0  0  0
  -28.9731  -15.2403   21.3439 H   0  0  0  0  0  0
  -30.6115  -21.8147   20.8983 H   0  0  0  0  0  0
  1 25  1  0  0  0
  1 30  2  0  0  0
  1 83  1  0  0  0
  2  3  1  0  0  0
  2 25  1  0  0  0
  2 85  1  0  0  0
  2 86  1  0  0  0
  3  4  1  0  0  0
  3 87  1  0  0  0
  3 88  1  0  0  0
  4  5  1  0  0  0
  4 89  1  0  0  0
  4 90  1  0  0  0
  5  6  1  0  0  0
  5 26  1  0  0  0
  5 91  1  0  0  0
  6 25  1  0  0  0
  6 92  1  0  0  0
  6 93  1  0  0  0
  7  8  2  0  0  0
  7 26  1  0  0  0
  7 29  1  0  0  0
  8  9  1  0  0  0
  8 22  1  0  0  0
  9 10  1  0  0  0
  9 27  2  0  0  0
 10 11  2  0  0  0
 10 15  1  0  0  0
 11 12  1  0  0  0
 11 94  1  0  0  0
 12 13  2  0  0  0
 12 95  1  0  0  0
 13 14  1  0  0  0
 13 31  1  0  0  0
 14 15  2  0  0  0
 14 96  1  0  0  0
 15 97  1  0  0  0
 16 17  2  0  0  0
 16 21  1  0  0  0
 16 31  1  0  0  0
 17 18  1  0  0  0
 17 98  1  0  0  0
 18 19  2  0  0  0
 18 99  1  0  0  0
 19 20  1  0  0  0
 19 24  1  0  0  0
 20 21  2  0  0  0
 20100  1  0  0  0
 21 23  1  0  0  0
 22 28  1  0  0  0
 22 32  2  0  0  0
 26 27  1  0  0  0
 28101  1  0  0  0
 28102  1  0  0  0
 29103  1  0  0  0
 29104  1  0  0  0
 33 34  1  0  0  0
 33 66  1  0  0  0
 33 70  2  0  0  0
 34 36  1  0  0  0
 34 59  1  0  0  0
 34105  1  0  0  0
 35 44  2  0  0  0
 35 45  1  0  0  0
 35 68  1  0  0  0
 36 56  1  0  0  0
 36106  1  0  0  0
 37 39  1  0  0  0
 37 47  1  0  0  0
 37 66  1  0  0  0
 37107  1  0  0  0
 38 43  2  0  0  0
 38 46  1  0  0  0
 38 47  1  0  0  0
 39 64  1  0  0  0
 39 67  2  0  0  0
 40 52  1  0  0  0
 40 53  2  0  0  0
 40 58  1  0  0  0
 41108  1  0  0  0
 41109  1  0  0  0
 41110  1  0  0  0
 41 48  1  0  0  0
 42 43  1  0  0  0
 42 66  1  0  0  0
 42111  1  0  0  0
 42112  1  0  0  0
 43 44  1  0  0  0
 44113  1  0  0  0
 45 46  2  0  0  0
 45114  1  0  0  0
 46115  1  0  0  0
 47116  1  0  0  0
 47117  1  0  0  0
 48 56  1  0  0  0
 48 65  1  0  0  0
 48118  1  0  0  0
 49 50  1  0  0  0
 49 53  1  0  0  0
 49 64  1  0  0  0
 49119  1  0  0  0
 50 51  1  0  0  0
 50120  1  0  0  0
 50121  1  0  0  0
 51 52  1  0  0  0
 51122  1  0  0  0
 51123  1  0  0  0
 52124  1  0  0  0
 52125  1  0  0  0
 53 54  1  0  0  0
 54 55  2  0  0  0
 54126  1  0  0  0
 55 57  1  0  0  0
 55127  1  0  0  0
 56 69  2  0  0  0
 57 58  2  0  0  0
 57128  1  0  0  0
 58129  1  0  0  0
 59 60  1  0  0  0
 59 61  1  0  0  0
 59 62  1  0  0  0
 60130  1  0  0  0
 60131  1  0  0  0
 60132  1  0  0  0
 61133  1  0  0  0
 61134  1  0  0  0
 61135  1  0  0  0
 62136  1  0  0  0
 62137  1  0  0  0
 62138  1  0  0  0
 63 65  1  0  0  0
 63139  1  0  0  0
 63140  1  0  0  0
 63141  1  0  0  0
 64142  1  0  0  0
 65143  1  0  0  0
 68 81  1  0  0  0
 71 72  2  0  0  0
 71 75  1  0  0  0
 71144  1  0  0  0
 72 76  1  0  0  0
 72145  1  0  0  0
 73 74  1  0  0  0
 73 76  2  0  0  0
 73146  1  0  0  0
 74 75  2  0  0  0
 74 77  1  0  0  0
 75 78  1  0  0  0
 76 83  1  0  0  0
 77 82  1  0  0  0
 77 84  2  0  0  0
 78147  1  0  0  0
 78148  1  0  0  0
 78149  1  0  0  0
 79 80  1  0  0  0
 79 81  1  0  0  0
 79150  1  0  0  0
 79151  1  0  0  0
 80 84  1  0  0  0
 80152  1  0  0  0
 80153  1  0  0  0
 81154  1  0  0  0
 81155  1  0  0  0
 82156  1  0  0  0
 82157  1  0  0  0
 83158  1  0  0  0
 84159  1  0  0  0
M  CHG  1  84   1
M  ISO  4   1 100  68 101  81 101  83 100
M  END
> <chiral flag>
0

> <version>
0

> <s_m_source_file>
/data/baiqing/PycharmProjects/Reinvent-master-3.2/result/LINK_invent/BTK/process_docking_weight1_custom_product_contain_oxygen_bond_distance_aromatic_linkinvent_7_9_3/rearranged_h_0046.sdf

> <i_m_source_file_index>
50

> <r_mmod_Potential_Energy-OPLS-2005>
-199.314025878906

> <r_mmod_Stretch_Energy-OPLS-2005>
48.8166313171387

> <r_mmod_Bend_Energy-OPLS-2005>
110.469284057617

> <r_mmod_Torsional_Energy-OPLS-2005>
233.003997802734

> <r_mmod_Improper_Torsional_Energy-OPLS-2005>
5.40645599365234

> <r_mmod_Van_der_Waal_Energy-OPLS-2005>
164.308883666992

> <r_mmod_Electrostatic_Energy-OPLS-2005>
-358.347869873047

> <r_mmod_Solvation_Energy-OPLS-2005>
-425.434387207031

> <b_mmod_Minimization_Converged-OPLS-2005>
0

> <r_mmod_RMS_Derivative-OPLS-2005>
4.35342788696289

$$$$
50
                    3D
 Structure written by MMmdl.
161170  0  0  1  0            999 V2000
  -30.5749  -14.7720   20.4439 C   0  0  0  0  0  0
  -30.4402  -12.4739   19.4509 C   0  0  0  0  0  0
  -29.5054  -12.4952   18.2225 C   0  0  0  0  0  0
  -28.0341  -12.3151   18.6457 C   0  0  0  0  0  0
  -27.6340  -13.2250   19.8362 C   0  0  2  0  0  0
  -28.6845  -13.1762   20.9642 C   0  0  0  0  0  0
  -25.2485  -13.8175   20.5671 C   0  0  0  0  0  0
  -24.1766  -13.0435   20.9194 C   0  0  0  0  0  0
  -24.6361  -11.6903   20.8742 C   0  0  0  0  0  0
  -23.9044  -10.4287   21.0414 C   0  0  0  0  0  0
  -24.3593   -9.4204   21.9189 C   0  0  0  0  0  0
  -23.6264   -8.2248   22.0759 C   0  0  0  0  0  0
  -22.4256   -8.0277   21.3547 C   0  0  0  0  0  0
  -21.9888   -9.0259   20.4656 C   0  0  0  0  0  0
  -22.7220  -10.2130   20.3065 C   0  0  0  0  0  0
  -21.6859   -6.0729   22.5276 C   0  0  0  0  0  0
  -21.4024   -6.5635   23.8206 C   0  0  0  0  0  0
  -21.3647   -5.6783   24.9169 C   0  0  0  0  0  0
  -21.6046   -4.3053   24.7223 C   0  0  0  0  0  0
  -21.8816   -3.8134   23.4351 C   0  0  0  0  0  0
  -21.9191   -4.6950   22.3400 C   0  0  0  0  0  0
  -22.7795  -13.5223   21.1856 C   0  0  0  0  0  0
  -22.1656   -4.2124   21.0980 F   0  0  0  0  0  0
  -21.5614   -3.4535   25.7748 F   0  0  0  0  0  0
  -29.9736  -13.5375   20.3627 N   0  0  0  0  0  0
  -26.2890  -12.9363   20.3217 N   0  0  0  0  0  0
  -25.9285  -11.6523   20.5720 N   0  0  0  0  0  0
  -22.0434  -12.8231   22.0427 N   0  0  0  0  0  0
  -25.4170  -15.1902   20.4101 N   0  0  0  0  0  0
  -31.7917  -14.8811   20.2710 O   0  0  0  0  0  0
  -21.6634   -6.8872   21.4237 O   0  0  0  0  0  0
  -22.3483  -14.5518   20.6681 O   0  0  0  0  0  0
  -24.6303  -31.8552   23.1972 C   0  0  0  0  0  0
  -25.9116  -32.4767   23.8326 C   0  0  1  0  0  0
  -27.2202  -27.2671   20.1294 C   0  0  0  0  0  0
  -25.5889  -33.8571   24.2236 N   0  0  0  0  0  0
  -23.4284  -30.4744   21.5420 C   0  0  2  0  0  0
  -24.8750  -28.9140   20.1192 C   0  0  0  0  0  0
  -22.7496  -29.4593   22.4934 C   0  0  0  0  0  0
  -18.0275  -28.1396   22.8493 C   0  0  0  0  0  0
  -24.1479  -36.7297   23.2641 C   0  0  0  0  0  0
  -25.9727  -30.7685   21.3762 C   0  0  0  0  0  0
  -26.0469  -29.3893   20.7218 C   0  0  0  0  0  0
  -27.2286  -28.5798   20.7103 C   0  0  0  0  0  0
  -26.0256  -26.8477   19.5127 C   0  0  0  0  0  0
  -24.8674  -27.6506   19.5046 C   0  0  0  0  0  0
  -23.6464  -29.8020   20.1616 C   0  0  0  0  0  0
  -25.4111  -36.3087   24.0317 C   0  0  1  0  0  0
  -20.5877  -28.3699   23.1274 C   0  0  2  0  0  0
  -20.6761  -26.9421   22.5407 C   0  0  0  0  0  0
  -19.5734  -26.6395   21.5210 C   0  0  0  0  0  0
  -18.1915  -26.7942   22.1624 C   0  0  0  0  0  0
  -19.1533  -28.8866   23.2880 C   0  0  0  0  0  0
  -18.9459  -30.1460   23.8907 C   0  0  0  0  0  0
  -17.6460  -30.6601   24.0562 C   0  0  0  0  0  0
  -25.9054  -34.9456   23.5096 C   0  0  0  0  0  0
  -16.5348  -29.9102   23.6332 C   0  0  0  0  0  0
  -16.7261  -28.6511   23.0373 C   0  0  0  0  0  0
  -26.4478  -31.6598   25.0726 C   0  0  0  0  0  0
  -25.3701  -31.3742   26.1450 C   0  0  0  0  0  0
  -27.0312  -30.3003   24.6233 C   0  0  0  0  0  0
  -27.6033  -32.4349   25.7492 C   0  0  0  0  0  0
  -27.5579  -37.1791   24.8454 C   0  0  0  0  0  0
  -21.4203  -29.3050   22.3676 N   0  0  0  0  0  0
  -26.4283  -37.3786   23.9418 N   0  0  0  0  0  0
  -24.6962  -31.0513   22.0949 N   0  0  0  0  0  0
  -23.4193  -28.8150   23.3045 O   0  0  0  0  0  0
  -28.3212  -26.3888   20.0913 O   0  0  0  0  0  0
  -26.5655  -34.8929   22.4685 O   0  0  0  0  0  0
  -23.5448  -32.1369   23.7255 O   0  0  0  0  0  0
  -29.2648  -19.7967   22.1230 C   0  0  0  0  0  0
  -29.7618  -17.3858   22.2682 C   0  0  0  0  0  0
  -29.5411  -18.4809   20.1060 C   0  0  0  0  0  0
  -29.4956  -18.6301   22.8858 C   0  0  0  0  0  0
  -29.3288  -19.7925   20.7134 C   0  0  0  0  0  0
  -29.7596  -17.2514   20.8627 C   0  0  0  0  0  0
  -28.4277  -23.6969   19.9507 C   0  0  0  0  0  0
  -29.6121  -23.8045   22.5776 C   0  0  0  0  0  0
  -29.2120  -25.1626   21.9848 C   0  0  0  0  0  0
  -30.1374  -22.8819   21.4664 C   0  0  0  0  0  0
  -28.2371  -25.0637   20.7944 C   0  0  1  0  0  0
  -29.4199  -18.7207   24.3993 C   0  0  0  0  0  0
  -29.1006  -21.1534   19.8849 C   0  0  0  0  0  0
  -29.0915  -22.5821   20.4792 N   0  0  0  0  0  0
  -29.7366  -15.8735   20.3127 N   0  0  0  0  0  0
  -27.8773  -23.6303   18.8478 O   0  0  0  0  0  0
  -31.4752  -12.6303   19.1411 H   0  0  0  0  0  0
  -30.4083  -11.5035   19.9478 H   0  0  0  0  0  0
  -29.7876  -11.7119   17.5176 H   0  0  0  0  0  0
  -29.6202  -13.4411   17.6899 H   0  0  0  0  0  0
  -27.8978  -11.2685   18.9200 H   0  0  0  0  0  0
  -27.3740  -12.4915   17.7971 H   0  0  0  0  0  0
  -27.6168  -14.2384   19.4362 H   0  0  0  0  0  0
  -28.7314  -12.1835   21.4121 H   0  0  0  0  0  0
  -28.4205  -13.8689   21.7662 H   0  0  0  0  0  0
  -25.2749   -9.5659   22.4763 H   0  0  0  0  0  0
  -23.9959   -7.4636   22.7483 H   0  0  0  0  0  0
  -21.0815   -8.8793   19.8969 H   0  0  0  0  0  0
  -22.3692  -10.9671   19.6168 H   0  0  0  0  0  0
  -21.2037   -7.6154   23.9701 H   0  0  0  0  0  0
  -21.1462   -6.0526   25.9065 H   0  0  0  0  0  0
  -22.0603   -2.7598   23.2869 H   0  0  0  0  0  0
  -22.4071  -11.9918   22.4845 H   0  0  0  0  0  0
  -21.1053  -13.1254   22.2630 H   0  0  0  0  0  0
  -24.6496  -15.8420   20.5335 H   0  0  0  0  0  0
  -26.2645  -15.6384   20.0880 H   0  0  0  0  0  0
  -26.7192  -32.5405   23.1075 H   0  0  0  0  0  0
  -24.9947  -33.9712   25.0319 H   0  0  0  0  0  0
  -22.7242  -31.2955   21.3928 H   0  0  0  0  0  0
  -23.3752  -35.9616   23.3291 H   0  0  0  0  0  0
  -24.3565  -36.8947   22.2059 H   0  0  0  0  0  0
  -23.7218  -37.6482   23.6690 H   0  0  0  0  0  0
  -26.1083  -31.5253   20.6029 H   0  0  0  0  0  0
  -26.8514  -30.8214   22.0083 H   0  0  0  0  0  0
  -28.1351  -28.9427   21.1733 H   0  0  0  0  0  0
  -25.9863  -25.8772   19.0371 H   0  0  0  0  0  0
  -23.9692  -27.2821   19.0295 H   0  0  0  0  0  0
  -23.7729  -30.5745   19.4026 H   0  0  0  0  0  0
  -22.7651  -29.2344   19.8583 H   0  0  0  0  0  0
  -25.1290  -36.1935   25.0802 H   0  0  0  0  0  0
  -20.9948  -28.3286   24.1403 H   0  0  0  0  0  0
  -20.5643  -26.2323   23.3620 H   0  0  0  0  0  0
  -21.6634  -26.7448   22.1212 H   0  0  0  0  0  0
  -19.6901  -25.6310   21.1241 H   0  0  0  0  0  0
  -19.6668  -27.3208   20.6744 H   0  0  0  0  0  0
  -17.4177  -26.6684   21.4035 H   0  0  0  0  0  0
  -18.0321  -26.0085   22.9019 H   0  0  0  0  0  0
  -19.7935  -30.7260   24.2308 H   0  0  0  0  0  0
  -17.5018  -31.6284   24.5163 H   0  0  0  0  0  0
  -15.5352  -30.3007   23.7664 H   0  0  0  0  0  0
  -15.8654  -28.0819   22.7122 H   0  0  0  0  0  0
  -24.5857  -30.7128   25.7758 H   0  0  0  0  0  0
  -24.8915  -32.2907   26.4908 H   0  0  0  0  0  0
  -25.7998  -30.8874   27.0214 H   0  0  0  0  0  0
  -26.2887  -29.6766   24.1245 H   0  0  0  0  0  0
  -27.3947  -29.7267   25.4769 H   0  0  0  0  0  0
  -27.8791  -30.4254   23.9499 H   0  0  0  0  0  0
  -27.2638  -33.3648   26.2070 H   0  0  0  0  0  0
  -28.3829  -32.6924   25.0311 H   0  0  0  0  0  0
  -28.0729  -31.8492   26.5406 H   0  0  0  0  0  0
  -28.2577  -38.0109   24.7546 H   0  0  0  0  0  0
  -28.1094  -36.2644   24.6220 H   0  0  0  0  0  0
  -27.2306  -37.1370   25.8856 H   0  0  0  0  0  0
  -20.9407  -29.8763   21.6864 H   0  0  0  0  0  0
  -26.0162  -38.2853   24.1457 H   0  0  0  0  0  0
  -29.0244  -20.7115   22.6462 H   0  0  0  0  0  0
  -29.8890  -16.5082   22.8887 H   0  0  0  0  0  0
  -29.5091  -18.4175   19.0276 H   0  0  0  0  0  0
  -28.7620  -23.3433   23.0815 H   0  0  0  0  0  0
  -30.3812  -23.9520   23.3371 H   0  0  0  0  0  0
  -30.1147  -25.6794   21.6604 H   0  0  0  0  0  0
  -28.7711  -25.7859   22.7634 H   0  0  0  0  0  0
  -30.5866  -21.9868   21.8882 H   0  0  0  0  0  0
  -30.9607  -23.3769   20.9483 H   0  0  0  0  0  0
  -27.2357  -24.9709   21.2165 H   0  0  0  0  0  0
  -30.2390  -19.3305   24.7827 H   0  0  0  0  0  0
  -29.4793  -17.7394   24.8702 H   0  0  0  0  0  0
  -28.4822  -19.1826   24.7125 H   0  0  0  0  0  0
  -28.1556  -21.0181   19.3587 H   0  0  0  0  0  0
  -29.8570  -21.1623   19.0990 H   0  0  0  0  0  0
  -28.8237  -15.6010   19.9849 H   0  0  0  0  0  0
  1 25  1  0  0  0
  1 30  2  0  0  0
  1 85  1  0  0  0
  2  3  1  0  0  0
  2 25  1  0  0  0
  2 87  1  0  0  0
  2 88  1  0  0  0
  3  4  1  0  0  0
  3 89  1  0  0  0
  3 90  1  0  0  0
  4  5  1  0  0  0
  4 91  1  0  0  0
  4 92  1  0  0  0
  5  6  1  0  0  0
  5 26  1  0  0  0
  5 93  1  0  0  0
  6 25  1  0  0  0
  6 94  1  0  0  0
  6 95  1  0  0  0
  7  8  2  0  0  0
  7 26  1  0  0  0
  7 29  1  0  0  0
  8  9  1  0  0  0
  8 22  1  0  0  0
  9 10  1  0  0  0
  9 27  2  0  0  0
 10 11  2  0  0  0
 10 15  1  0  0  0
 11 12  1  0  0  0
 11 96  1  0  0  0
 12 13  2  0  0  0
 12 97  1  0  0  0
 13 14  1  0  0  0
 13 31  1  0  0  0
 14 15  2  0  0  0
 14 98  1  0  0  0
 15 99  1  0  0  0
 16 17  2  0  0  0
 16 21  1  0  0  0
 16 31  1  0  0  0
 17 18  1  0  0  0
 17100  1  0  0  0
 18 19  2  0  0  0
 18101  1  0  0  0
 19 20  1  0  0  0
 19 24  1  0  0  0
 20 21  2  0  0  0
 20102  1  0  0  0
 21 23  1  0  0  0
 22 28  1  0  0  0
 22 32  2  0  0  0
 26 27  1  0  0  0
 28103  1  0  0  0
 28104  1  0  0  0
 29105  1  0  0  0
 29106  1  0  0  0
 33 34  1  0  0  0
 33 66  1  0  0  0
 33 70  2  0  0  0
 34 36  1  0  0  0
 34 59  1  0  0  0
 34107  1  0  0  0
 35 44  2  0  0  0
 35 45  1  0  0  0
 35 68  1  0  0  0
 36 56  1  0  0  0
 36108  1  0  0  0
 37 39  1  0  0  0
 37 47  1  0  0  0
 37 66  1  0  0  0
 37109  1  0  0  0
 38 43  2  0  0  0
 38 46  1  0  0  0
 38 47  1  0  0  0
 39 64  1  0  0  0
 39 67  2  0  0  0
 40 52  1  0  0  0
 40 53  2  0  0  0
 40 58  1  0  0  0
 41110  1  0  0  0
 41111  1  0  0  0
 41112  1  0  0  0
 41 48  1  0  0  0
 42 43  1  0  0  0
 42 66  1  0  0  0
 42113  1  0  0  0
 42114  1  0  0  0
 43 44  1  0  0  0
 44115  1  0  0  0
 45 46  2  0  0  0
 45116  1  0  0  0
 46117  1  0  0  0
 47118  1  0  0  0
 47119  1  0  0  0
 48 56  1  0  0  0
 48 65  1  0  0  0
 48120  1  0  0  0
 49 50  1  0  0  0
 49 53  1  0  0  0
 49 64  1  0  0  0
 49121  1  0  0  0
 50 51  1  0  0  0
 50122  1  0  0  0
 50123  1  0  0  0
 51 52  1  0  0  0
 51124  1  0  0  0
 51125  1  0  0  0
 52126  1  0  0  0
 52127  1  0  0  0
 53 54  1  0  0  0
 54 55  2  0  0  0
 54128  1  0  0  0
 55 57  1  0  0  0
 55129  1  0  0  0
 56 69  2  0  0  0
 57 58  2  0  0  0
 57130  1  0  0  0
 58131  1  0  0  0
 59 60  1  0  0  0
 59 61  1  0  0  0
 59 62  1  0  0  0
 60132  1  0  0  0
 60133  1  0  0  0
 60134  1  0  0  0
 61135  1  0  0  0
 61136  1  0  0  0
 61137  1  0  0  0
 62138  1  0  0  0
 62139  1  0  0  0
 62140  1  0  0  0
 63 65  1  0  0  0
 63141  1  0  0  0
 63142  1  0  0  0
 63143  1  0  0  0
 64144  1  0  0  0
 65145  1  0  0  0
 68 81  1  0  0  0
 71 74  2  0  0  0
 71 75  1  0  0  0
 71146  1  0  0  0
 72 74  1  0  0  0
 72 76  2  0  0  0
 72147  1  0  0  0
 73 75  2  0  0  0
 73 76  1  0  0  0
 73148  1  0  0  0
 74 82  1  0  0  0
 75 83  1  0  0  0
 76 85  1  0  0  0
 77 81  1  0  0  0
 77 84  1  0  0  0
 77 86  2  0  0  0
 78 79  1  0  0  0
 78 80  1  0  0  0
 78149  1  0  0  0
 78150  1  0  0  0
 79 81  1  0  0  0
 79151  1  0  0  0
 79152  1  0  0  0
 80 84  1  0  0  0
 80153  1  0  0  0
 80154  1  0  0  0
 81155  1  0  0  0
 82156  1  0  0  0
 82157  1  0  0  0
 82158  1  0  0  0
 83 84  1  0  0  0
 83159  1  0  0  0
 83160  1  0  0  0
 85161  1  0  0  0
M  ISO  4   1 100  68 101  81 101  85 100
M  END
> <chiral flag>
0

> <version>
0

> <s_m_source_file>
/data/baiqing/PycharmProjects/Reinvent-master-3.2/result/LINK_invent/BTK/process_docking_weight1_custom_product_contain_oxygen_bond_distance_aromatic_linkinvent_7_9_3/rearranged_h_0046.sdf

> <i_m_source_file_index>
51

> <r_mmod_Potential_Energy-OPLS-2005>
286.359802246094

> <r_mmod_Stretch_Energy-OPLS-2005>
132.111572265625

> <r_mmod_Bend_Energy-OPLS-2005>
169.152160644531

> <r_mmod_Torsional_Energy-OPLS-2005>
302.801788330078

> <r_mmod_Improper_Torsional_Energy-OPLS-2005>
15.0166091918945

> <r_mmod_Van_der_Waal_Energy-OPLS-2005>
136.817718505859

> <r_mmod_Electrostatic_Energy-OPLS-2005>
-332.485748291016

> <r_mmod_Solvation_Energy-OPLS-2005>
-231.31770324707

> <b_mmod_Minimization_Converged-OPLS-2005>
0

> <r_mmod_RMS_Derivative-OPLS-2005>
2.45699453353882

$$$$
51
                    3D
 Structure written by MMmdl.
161170  0  0  1  0            999 V2000
  -30.5889  -14.7778   20.4530 C   0  0  0  0  0  0
  -30.4453  -12.4793   19.4588 C   0  0  0  0  0  0
  -29.5126  -12.5074   18.2275 C   0  0  0  0  0  0
  -28.0399  -12.3216   18.6470 C   0  0  0  0  0  0
  -27.6405  -13.2274   19.8420 C   0  0  2  0  0  0
  -28.6909  -13.1715   20.9715 C   0  0  0  0  0  0
  -25.2518  -13.8181   20.5681 C   0  0  0  0  0  0
  -24.1810  -13.0433   20.9212 C   0  0  0  0  0  0
  -24.6396  -11.6909   20.8749 C   0  0  0  0  0  0
  -23.9069  -10.4289   21.0410 C   0  0  0  0  0  0
  -24.3621   -9.4204   21.9186 C   0  0  0  0  0  0
  -23.6295   -8.2241   22.0754 C   0  0  0  0  0  0
  -22.4276   -8.0281   21.3546 C   0  0  0  0  0  0
  -21.9912   -9.0253   20.4646 C   0  0  0  0  0  0
  -22.7242  -10.2132   20.3057 C   0  0  0  0  0  0
  -21.6853   -6.0733   22.5279 C   0  0  0  0  0  0
  -21.4014   -6.5638   23.8211 C   0  0  0  0  0  0
  -21.3660   -5.6791   24.9175 C   0  0  0  0  0  0
  -21.6047   -4.3054   24.7224 C   0  0  0  0  0  0
  -21.8819   -3.8145   23.4346 C   0  0  0  0  0  0
  -21.9193   -4.6962   22.3402 C   0  0  0  0  0  0
  -22.7831  -13.5219   21.1869 C   0  0  0  0  0  0
  -22.1661   -4.2147   21.0980 F   0  0  0  0  0  0
  -21.5629   -3.4538   25.7737 F   0  0  0  0  0  0
  -29.9843  -13.5411   20.3797 N   0  0  0  0  0  0
  -26.2937  -12.9376   20.3249 N   0  0  0  0  0  0
  -25.9323  -11.6526   20.5740 N   0  0  0  0  0  0
  -22.0475  -12.8213   22.0426 N   0  0  0  0  0  0
  -25.4190  -15.1908   20.4082 N   0  0  0  0  0  0
  -31.8006  -14.8783   20.2479 O   0  0  0  0  0  0
  -21.6641   -6.8878   21.4240 O   0  0  0  0  0  0
  -22.3518  -14.5524   20.6710 O   0  0  0  0  0  0
  -24.6386  -31.8538   23.1993 C   0  0  0  0  0  0
  -25.9195  -32.4744   23.8337 C   0  0  1  0  0  0
  -27.2063  -27.2093   20.1002 C   0  0  0  0  0  0
  -25.5973  -33.8547   24.2253 N   0  0  0  0  0  0
  -23.4341  -30.4843   21.5465 C   0  0  2  0  0  0
  -24.8734  -28.9380   20.1128 C   0  0  0  0  0  0
  -22.7536  -29.4614   22.4902 C   0  0  0  0  0  0
  -18.0300  -28.1391   22.8479 C   0  0  0  0  0  0
  -24.1493  -36.7274   23.2637 C   0  0  0  0  0  0
  -25.9902  -30.7516   21.3868 C   0  0  0  0  0  0
  -26.0560  -29.3748   20.7186 C   0  0  0  0  0  0
  -27.2198  -28.5265   20.6993 C   0  0  0  0  0  0
  -25.9711  -26.8600   19.5042 C   0  0  0  0  0  0
  -24.8396  -27.6873   19.4982 C   0  0  0  0  0  0
  -23.6519  -29.8327   20.1602 C   0  0  0  0  0  0
  -25.4121  -36.3060   24.0320 C   0  0  1  0  0  0
  -20.5910  -28.3712   23.1249 C   0  0  2  0  0  0
  -20.6791  -26.9425   22.5396 C   0  0  0  0  0  0
  -19.5760  -26.6385   21.5208 C   0  0  0  0  0  0
  -18.1943  -26.7931   22.1625 C   0  0  0  0  0  0
  -19.1555  -28.8869   23.2858 C   0  0  0  0  0  0
  -18.9472  -30.1467   23.8879 C   0  0  0  0  0  0
  -17.6469  -30.6589   24.0561 C   0  0  0  0  0  0
  -25.9070  -34.9432   23.5085 C   0  0  0  0  0  0
  -16.5361  -29.9083   23.6333 C   0  0  0  0  0  0
  -16.7286  -28.6503   23.0353 C   0  0  0  0  0  0
  -26.4529  -31.6578   25.0744 C   0  0  0  0  0  0
  -25.3731  -31.3743   26.1447 C   0  0  0  0  0  0
  -27.0380  -30.2984   24.6272 C   0  0  0  0  0  0
  -27.6072  -32.4325   25.7526 C   0  0  0  0  0  0
  -27.5578  -37.1797   24.8465 C   0  0  0  0  0  0
  -21.4237  -29.3060   22.3641 N   0  0  0  0  0  0
  -26.4290  -37.3764   23.9407 N   0  0  0  0  0  0
  -24.7079  -31.0475   22.0994 N   0  0  0  0  0  0
  -23.4218  -28.8129   23.2996 O   0  0  0  0  0  0
  -28.3186  -26.3055   20.1632 O   0  0  0  0  0  0
  -26.5633  -34.8911   22.4650 O   0  0  0  0  0  0
  -23.5524  -32.1384   23.7262 O   0  0  0  0  0  0
  -31.4044  -17.8696   18.8883 C   0  0  0  0  0  0
  -32.2951  -18.6023   18.0926 C   0  0  0  0  0  0
  -31.4353  -20.6395   19.0635 C   0  0  0  0  0  0
  -30.5085  -18.4730   19.8058 C   0  0  0  0  0  0
  -30.4241  -19.9620   19.7944 C   0  0  0  0  0  0
  -32.3427  -19.9911   18.2161 C   0  0  0  0  0  0
  -28.8945  -23.6318   20.4220 C   0  0  0  0  0  0
  -27.8824  -23.1336   17.7151 C   0  0  0  0  0  0
  -27.4694  -24.3985   18.4846 C   0  0  0  0  0  0
  -29.0411  -22.3443   18.3452 C   0  0  0  0  0  0
  -28.4975  -24.9162   19.5145 C   0  0  1  0  0  0
  -29.3922  -20.9901   20.4730 C   0  0  0  0  0  0
  -29.8503  -17.4130   20.7906 C   0  0  0  0  0  0
  -29.1032  -22.3783   19.8196 N   0  0  0  0  0  0
  -29.7512  -15.8871   20.5353 N   0  0  0  0  0  0
  -28.9865  -23.7755   21.6448 O   0  0  0  0  0  0
  -33.4905  -20.9069   17.3099 Cl  0  0  0  0  0  0
  -31.4808  -12.6307   19.1491 H   0  0  0  0  0  0
  -30.4142  -11.5055   19.9501 H   0  0  0  0  0  0
  -29.8005  -11.7311   17.5172 H   0  0  0  0  0  0
  -29.6262  -13.4580   17.7042 H   0  0  0  0  0  0
  -27.9067  -11.2743   18.9198 H   0  0  0  0  0  0
  -27.3792  -12.5007   17.7983 H   0  0  0  0  0  0
  -27.6276  -14.2447   19.4517 H   0  0  0  0  0  0
  -28.7395  -12.1735   21.4098 H   0  0  0  0  0  0
  -28.4234  -13.8493   21.7841 H   0  0  0  0  0  0
  -25.2766   -9.5682   22.4760 H   0  0  0  0  0  0
  -24.0005   -7.4632   22.7473 H   0  0  0  0  0  0
  -21.0842   -8.8773   19.8951 H   0  0  0  0  0  0
  -22.3700  -10.9672   19.6168 H   0  0  0  0  0  0
  -21.2005   -7.6145   23.9713 H   0  0  0  0  0  0
  -21.1484   -6.0522   25.9078 H   0  0  0  0  0  0
  -22.0598   -2.7607   23.2847 H   0  0  0  0  0  0
  -22.4090  -11.9880   22.4825 H   0  0  0  0  0  0
  -21.1091  -13.1237   22.2623 H   0  0  0  0  0  0
  -24.6450  -15.8379   20.5134 H   0  0  0  0  0  0
  -26.2520  -15.6329   20.0428 H   0  0  0  0  0  0
  -26.7258  -32.5368   23.1069 H   0  0  0  0  0  0
  -25.0120  -33.9678   25.0399 H   0  0  0  0  0  0
  -22.7328  -31.3095   21.4063 H   0  0  0  0  0  0
  -23.3758  -35.9604   23.3292 H   0  0  0  0  0  0
  -24.3583  -36.8908   22.2054 H   0  0  0  0  0  0
  -23.7245  -37.6471   23.6671 H   0  0  0  0  0  0
  -26.1412  -31.5149   20.6223 H   0  0  0  0  0  0
  -26.8638  -30.7914   22.0259 H   0  0  0  0  0  0
  -28.1250  -28.8642   21.1843 H   0  0  0  0  0  0
  -25.7571  -25.9205   19.0541 H   0  0  0  0  0  0
  -23.9279  -27.3347   19.0353 H   0  0  0  0  0  0
  -23.7875  -30.6153   19.4130 H   0  0  0  0  0  0
  -22.7659  -29.2782   19.8457 H   0  0  0  0  0  0
  -25.1304  -36.1898   25.0812 H   0  0  0  0  0  0
  -21.0001  -28.3290   24.1370 H   0  0  0  0  0  0
  -20.5697  -26.2322   23.3605 H   0  0  0  0  0  0
  -21.6657  -26.7448   22.1184 H   0  0  0  0  0  0
  -19.6922  -25.6293   21.1246 H   0  0  0  0  0  0
  -19.6691  -27.3188   20.6731 H   0  0  0  0  0  0
  -17.4209  -26.6669   21.4034 H   0  0  0  0  0  0
  -18.0351  -26.0079   22.9029 H   0  0  0  0  0  0
  -19.7948  -30.7291   24.2238 H   0  0  0  0  0  0
  -17.5023  -31.6266   24.5167 H   0  0  0  0  0  0
  -15.5361  -30.2978   23.7669 H   0  0  0  0  0  0
  -15.8687  -28.0818   22.7073 H   0  0  0  0  0  0
  -24.5919  -30.7080   25.7771 H   0  0  0  0  0  0
  -24.8909  -32.2916   26.4836 H   0  0  0  0  0  0
  -25.8031  -30.8945   27.0248 H   0  0  0  0  0  0
  -26.2981  -29.6724   24.1269 H   0  0  0  0  0  0
  -27.4006  -29.7258   25.4818 H   0  0  0  0  0  0
  -27.8887  -30.4234   23.9570 H   0  0  0  0  0  0
  -27.2676  -33.3637   26.2072 H   0  0  0  0  0  0
  -28.3905  -32.6864   25.0371 H   0  0  0  0  0  0
  -28.0715  -31.8468   26.5470 H   0  0  0  0  0  0
  -28.2589  -38.0100   24.7513 H   0  0  0  0  0  0
  -28.1081  -36.2629   24.6290 H   0  0  0  0  0  0
  -27.2294  -37.1442   25.8868 H   0  0  0  0  0  0
  -20.9426  -29.8803   21.6860 H   0  0  0  0  0  0
  -26.0161  -38.2834   24.1414 H   0  0  0  0  0  0
  -31.4627  -16.7992   18.7978 H   0  0  0  0  0  0
  -32.9751  -18.0922   17.4257 H   0  0  0  0  0  0
  -31.5147  -21.7138   19.1179 H   0  0  0  0  0  0
  -28.1597  -23.4000   16.6940 H   0  0  0  0  0  0
  -27.0123  -22.4824   17.6154 H   0  0  0  0  0  0
  -26.5663  -24.1116   19.0234 H   0  0  0  0  0  0
  -27.2279  -25.1697   17.7529 H   0  0  0  0  0  0
  -29.9716  -22.7650   17.9617 H   0  0  0  0  0  0
  -28.9941  -21.3202   17.9728 H   0  0  0  0  0  0
  -29.4040  -25.0870   18.9330 H   0  0  0  0  0  0
  -29.7361  -21.1621   21.4936 H   0  0  0  0  0  0
  -28.4355  -20.4768   20.5721 H   0  0  0  0  0  0
  -28.8328  -17.7581   20.9771 H   0  0  0  0  0  0
  -30.3641  -17.5286   21.7457 H   0  0  0  0  0  0
  -28.7898  -15.5862   20.5563 H   0  0  0  0  0  0
  1 25  1  0  0  0
  1 30  2  0  0  0
  1 85  1  0  0  0
  2  3  1  0  0  0
  2 25  1  0  0  0
  2 88  1  0  0  0
  2 89  1  0  0  0
  3  4  1  0  0  0
  3 90  1  0  0  0
  3 91  1  0  0  0
  4  5  1  0  0  0
  4 92  1  0  0  0
  4 93  1  0  0  0
  5  6  1  0  0  0
  5 26  1  0  0  0
  5 94  1  0  0  0
  6 25  1  0  0  0
  6 95  1  0  0  0
  6 96  1  0  0  0
  7  8  2  0  0  0
  7 26  1  0  0  0
  7 29  1  0  0  0
  8  9  1  0  0  0
  8 22  1  0  0  0
  9 10  1  0  0  0
  9 27  2  0  0  0
 10 11  2  0  0  0
 10 15  1  0  0  0
 11 12  1  0  0  0
 11 97  1  0  0  0
 12 13  2  0  0  0
 12 98  1  0  0  0
 13 14  1  0  0  0
 13 31  1  0  0  0
 14 15  2  0  0  0
 14 99  1  0  0  0
 15100  1  0  0  0
 16 17  2  0  0  0
 16 21  1  0  0  0
 16 31  1  0  0  0
 17 18  1  0  0  0
 17101  1  0  0  0
 18 19  2  0  0  0
 18102  1  0  0  0
 19 20  1  0  0  0
 19 24  1  0  0  0
 20 21  2  0  0  0
 20103  1  0  0  0
 21 23  1  0  0  0
 22 28  1  0  0  0
 22 32  2  0  0  0
 26 27  1  0  0  0
 28104  1  0  0  0
 28105  1  0  0  0
 29106  1  0  0  0
 29107  1  0  0  0
 33 34  1  0  0  0
 33 66  1  0  0  0
 33 70  2  0  0  0
 34 36  1  0  0  0
 34 59  1  0  0  0
 34108  1  0  0  0
 35 44  2  0  0  0
 35 45  1  0  0  0
 35 68  1  0  0  0
 36 56  1  0  0  0
 36109  1  0  0  0
 37 39  1  0  0  0
 37 47  1  0  0  0
 37 66  1  0  0  0
 37110  1  0  0  0
 38 43  2  0  0  0
 38 46  1  0  0  0
 38 47  1  0  0  0
 39 64  1  0  0  0
 39 67  2  0  0  0
 40 52  1  0  0  0
 40 53  2  0  0  0
 40 58  1  0  0  0
 41111  1  0  0  0
 41112  1  0  0  0
 41113  1  0  0  0
 41 48  1  0  0  0
 42 43  1  0  0  0
 42 66  1  0  0  0
 42114  1  0  0  0
 42115  1  0  0  0
 43 44  1  0  0  0
 44116  1  0  0  0
 45 46  2  0  0  0
 45117  1  0  0  0
 46118  1  0  0  0
 47119  1  0  0  0
 47120  1  0  0  0
 48 56  1  0  0  0
 48 65  1  0  0  0
 48121  1  0  0  0
 49 50  1  0  0  0
 49 53  1  0  0  0
 49 64  1  0  0  0
 49122  1  0  0  0
 50 51  1  0  0  0
 50123  1  0  0  0
 50124  1  0  0  0
 51 52  1  0  0  0
 51125  1  0  0  0
 51126  1  0  0  0
 52127  1  0  0  0
 52128  1  0  0  0
 53 54  1  0  0  0
 54 55  2  0  0  0
 54129  1  0  0  0
 55 57  1  0  0  0
 55130  1  0  0  0
 56 69  2  0  0  0
 57 58  2  0  0  0
 57131  1  0  0  0
 58132  1  0  0  0
 59 60  1  0  0  0
 59 61  1  0  0  0
 59 62  1  0  0  0
 60133  1  0  0  0
 60134  1  0  0  0
 60135  1  0  0  0
 61136  1  0  0  0
 61137  1  0  0  0
 61138  1  0  0  0
 62139  1  0  0  0
 62140  1  0  0  0
 62141  1  0  0  0
 63 65  1  0  0  0
 63142  1  0  0  0
 63143  1  0  0  0
 63144  1  0  0  0
 64145  1  0  0  0
 65146  1  0  0  0
 68 81  1  0  0  0
 71 72  2  0  0  0
 71 74  1  0  0  0
 71147  1  0  0  0
 72 76  1  0  0  0
 72148  1  0  0  0
 73 75  1  0  0  0
 73 76  2  0  0  0
 73149  1  0  0  0
 74 75  2  0  0  0
 74 83  1  0  0  0
 75 82  1  0  0  0
 76 87  1  0  0  0
 77 81  1  0  0  0
 77 84  1  0  0  0
 77 86  2  0  0  0
 78 79  1  0  0  0
 78 80  1  0  0  0
 78150  1  0  0  0
 78151  1  0  0  0
 79 81  1  0  0  0
 79152  1  0  0  0
 79153  1  0  0  0
 80 84  1  0  0  0
 80154  1  0  0  0
 80155  1  0  0  0
 81156  1  0  0  0
 82 84  1  0  0  0
 82157  1  0  0  0
 82158  1  0  0  0
 83 85  1  0  0  0
 83159  1  0  0  0
 83160  1  0  0  0
 85161  1  0  0  0
M  ISO  4   1 100  68 101  81 101  85 100
M  END
> <chiral flag>
0

> <version>
0

> <s_m_source_file>
/data/baiqing/PycharmProjects/Reinvent-master-3.2/result/LINK_invent/BTK/process_docking_weight1_custom_product_contain_oxygen_bond_distance_aromatic_linkinvent_7_9_3/rearranged_h_0046.sdf

> <i_m_source_file_index>
52

> <r_mmod_Potential_Energy-OPLS-2005>
367.262329101562

> <r_mmod_Stretch_Energy-OPLS-2005>
178.083770751953

> <r_mmod_Bend_Energy-OPLS-2005>
269.333709716797

> <r_mmod_Torsional_Energy-OPLS-2005>
245.374389648438

> <r_mmod_Improper_Torsional_Energy-OPLS-2005>
5.86878108978271

> <r_mmod_Van_der_Waal_Energy-OPLS-2005>
165.262542724609

> <r_mmod_Electrostatic_Energy-OPLS-2005>
-360.951324462891

> <r_mmod_Solvation_Energy-OPLS-2005>
-244.298141479492

> <b_mmod_Minimization_Converged-OPLS-2005>
0

> <r_mmod_RMS_Derivative-OPLS-2005>
0.451775372028351

$$$$
52
                    3D
 Structure written by MMmdl.
161170  0  0  1  0            999 V2000
  -30.5868  -14.7351   20.5006 C   0  0  0  0  0  0
  -30.4376  -12.4550   19.4722 C   0  0  0  0  0  0
  -29.5215  -12.5375   18.2333 C   0  0  0  0  0  0
  -28.0439  -12.3476   18.6361 C   0  0  0  0  0  0
  -27.6432  -13.2300   19.8496 C   0  0  2  0  0  0
  -28.6810  -13.1331   20.9886 C   0  0  0  0  0  0
  -25.2500  -13.8155   20.5636 C   0  0  0  0  0  0
  -24.1807  -13.0410   20.9179 C   0  0  0  0  0  0
  -24.6400  -11.6889   20.8712 C   0  0  0  0  0  0
  -23.9070  -10.4279   21.0380 C   0  0  0  0  0  0
  -24.3619   -9.4204   21.9172 C   0  0  0  0  0  0
  -23.6306   -8.2239   22.0751 C   0  0  0  0  0  0
  -22.4290   -8.0262   21.3539 C   0  0  0  0  0  0
  -21.9922   -9.0239   20.4631 C   0  0  0  0  0  0
  -22.7238  -10.2117   20.3036 C   0  0  0  0  0  0
  -21.6857   -6.0733   22.5277 C   0  0  0  0  0  0
  -21.4027   -6.5640   23.8211 C   0  0  0  0  0  0
  -21.3658   -5.6780   24.9162 C   0  0  0  0  0  0
  -21.6051   -4.3043   24.7203 C   0  0  0  0  0  0
  -21.8816   -3.8141   23.4326 C   0  0  0  0  0  0
  -21.9192   -4.6973   22.3385 C   0  0  0  0  0  0
  -22.7815  -13.5182   21.1829 C   0  0  0  0  0  0
  -22.1647   -4.2156   21.0967 F   0  0  0  0  0  0
  -21.5626   -3.4534   25.7713 F   0  0  0  0  0  0
  -29.9827  -13.5002   20.4185 N   0  0  0  0  0  0
  -26.2944  -12.9361   20.3213 N   0  0  0  0  0  0
  -25.9326  -11.6513   20.5717 N   0  0  0  0  0  0
  -22.0454  -12.8237   22.0399 N   0  0  0  0  0  0
  -25.4098  -15.1892   20.3999 N   0  0  0  0  0  0
  -31.7689  -14.8571   20.1657 O   0  0  0  0  0  0
  -21.6624   -6.8878   21.4246 O   0  0  0  0  0  0
  -22.3490  -14.5468   20.6613 O   0  0  0  0  0  0
  -24.6308  -31.8517   23.2009 C   0  0  0  0  0  0
  -25.9124  -32.4727   23.8364 C   0  0  1  0  0  0
  -27.1937  -27.2411   20.1485 C   0  0  0  0  0  0
  -25.5895  -33.8543   24.2256 N   0  0  0  0  0  0
  -23.4272  -30.4794   21.5391 C   0  0  2  0  0  0
  -24.8711  -28.9260   20.1050 C   0  0  0  0  0  0
  -22.7486  -29.4611   22.4869 C   0  0  0  0  0  0
  -18.0313  -28.1425   22.8474 C   0  0  0  0  0  0
  -24.1461  -36.7321   23.2627 C   0  0  0  0  0  0
  -25.9749  -30.7580   21.3855 C   0  0  0  0  0  0
  -26.0421  -29.3810   20.7258 C   0  0  0  0  0  0
  -27.2081  -28.5507   20.7387 C   0  0  0  0  0  0
  -26.0205  -26.8698   19.4663 C   0  0  0  0  0  0
  -24.8661  -27.6765   19.4656 C   0  0  0  0  0  0
  -23.6436  -29.8132   20.1541 C   0  0  0  0  0  0
  -25.4084  -36.3065   24.0302 C   0  0  1  0  0  0
  -20.5911  -28.3710   23.1262 C   0  0  2  0  0  0
  -20.6800  -26.9433   22.5400 C   0  0  0  0  0  0
  -19.5767  -26.6398   21.5217 C   0  0  0  0  0  0
  -18.1944  -26.7967   22.1624 C   0  0  0  0  0  0
  -19.1569  -28.8890   23.2873 C   0  0  0  0  0  0
  -18.9480  -30.1499   23.8894 C   0  0  0  0  0  0
  -17.6485  -30.6624   24.0563 C   0  0  0  0  0  0
  -25.9012  -34.9429   23.5087 C   0  0  0  0  0  0
  -16.5371  -29.9115   23.6339 C   0  0  0  0  0  0
  -16.7298  -28.6543   23.0349 C   0  0  0  0  0  0
  -26.4486  -31.6585   25.0778 C   0  0  0  0  0  0
  -25.3671  -31.3781   26.1464 C   0  0  0  0  0  0
  -27.0392  -30.2993   24.6308 C   0  0  0  0  0  0
  -27.6022  -32.4335   25.7559 C   0  0  0  0  0  0
  -27.5572  -37.1813   24.8418 C   0  0  0  0  0  0
  -21.4195  -29.3057   22.3615 N   0  0  0  0  0  0
  -26.4254  -37.3768   23.9398 N   0  0  0  0  0  0
  -24.6966  -31.0483   22.0983 N   0  0  0  0  0  0
  -23.4183  -28.8144   23.2965 O   0  0  0  0  0  0
  -28.2668  -26.3243   20.1690 O   0  0  0  0  0  0
  -26.5617  -34.8914   22.4687 O   0  0  0  0  0  0
  -23.5464  -32.1374   23.7301 O   0  0  0  0  0  0
  -30.5478  -20.0449   21.6727 C   0  0  0  0  0  0
  -29.3333  -18.3787   20.4013 C   0  0  0  0  0  0
  -29.5575  -19.7854   20.7091 C   0  0  0  0  0  0
  -31.2549  -19.0043   22.3174 C   0  0  0  0  0  0
  -30.0677  -17.2742   21.0055 C   0  0  0  0  0  0
  -31.0178  -17.6371   22.0022 C   0  0  0  0  0  0
  -28.6374  -23.6476   20.0106 C   0  0  0  0  0  0
  -26.7143  -23.1404   22.0567 C   0  0  0  0  0  0
  -26.8106  -24.6110   21.5588 C   0  0  0  0  0  0
  -28.0556  -22.3710   21.9959 C   0  0  0  0  0  0
  -28.1349  -24.9506   20.8126 C   0  0  2  0  0  0
  -32.2739  -19.4068   23.3783 C   0  0  0  0  0  0
  -28.8172  -21.0134   19.9959 C   0  0  0  0  0  0
  -28.6155  -22.3966   20.6392 N   0  0  0  0  0  0
  -29.7725  -15.8387   20.7342 N   0  0  0  0  0  0
  -29.0022  -23.7793   18.8384 O   0  0  0  0  0  0
  -31.8490  -16.4209   22.9191 Cl  0  0  0  0  0  0
  -31.4817  -12.5905   19.1874 H   0  0  0  0  0  0
  -30.3766  -11.4678   19.9296 H   0  0  0  0  0  0
  -29.8114  -11.7906   17.4934 H   0  0  0  0  0  0
  -29.6476  -13.5100   17.7553 H   0  0  0  0  0  0
  -27.8995  -11.2929   18.8794 H   0  0  0  0  0  0
  -27.3935  -12.5560   17.7866 H   0  0  0  0  0  0
  -27.6415  -14.2571   19.4864 H   0  0  0  0  0  0
  -28.7116  -12.1197   21.3907 H   0  0  0  0  0  0
  -28.4108  -13.7818   21.8225 H   0  0  0  0  0  0
  -25.2793   -9.5663   22.4718 H   0  0  0  0  0  0
  -24.0015   -7.4627   22.7468 H   0  0  0  0  0  0
  -21.0853   -8.8749   19.8946 H   0  0  0  0  0  0
  -22.3704  -10.9651   19.6125 H   0  0  0  0  0  0
  -21.2026   -7.6141   23.9721 H   0  0  0  0  0  0
  -21.1490   -6.0496   25.9064 H   0  0  0  0  0  0
  -22.0600   -2.7609   23.2808 H   0  0  0  0  0  0
  -22.4077  -11.9980   22.4960 H   0  0  0  0  0  0
  -21.1028  -13.1232   22.2467 H   0  0  0  0  0  0
  -24.6214  -15.8219   20.4712 H   0  0  0  0  0  0
  -26.2383  -15.6388   20.0364 H   0  0  0  0  0  0
  -26.7188  -32.5355   23.1107 H   0  0  0  0  0  0
  -24.9929  -33.9678   25.0308 H   0  0  0  0  0  0
  -22.7238  -31.3036   21.3925 H   0  0  0  0  0  0
  -23.3716  -35.9655   23.3203 H   0  0  0  0  0  0
  -24.3582  -36.9037   22.2062 H   0  0  0  0  0  0
  -23.7197  -37.6497   23.6713 H   0  0  0  0  0  0
  -26.1212  -31.5207   20.6187 H   0  0  0  0  0  0
  -26.8480  -30.8022   22.0248 H   0  0  0  0  0  0
  -28.1020  -28.8895   21.2428 H   0  0  0  0  0  0
  -25.9847  -25.9194   18.9523 H   0  0  0  0  0  0
  -23.9760  -27.3248   18.9631 H   0  0  0  0  0  0
  -23.7726  -30.5873   19.3978 H   0  0  0  0  0  0
  -22.7640  -29.2433   19.8479 H   0  0  0  0  0  0
  -25.1265  -36.1885   25.0788 H   0  0  0  0  0  0
  -21.0024  -28.3306   24.1379 H   0  0  0  0  0  0
  -20.5722  -26.2326   23.3597 H   0  0  0  0  0  0
  -21.6654  -26.7459   22.1174 H   0  0  0  0  0  0
  -19.6906  -25.6293   21.1287 H   0  0  0  0  0  0
  -19.6736  -27.3163   20.6712 H   0  0  0  0  0  0
  -17.4213  -26.6730   21.4029 H   0  0  0  0  0  0
  -18.0355  -26.0134   22.9054 H   0  0  0  0  0  0
  -19.7954  -30.7337   24.2244 H   0  0  0  0  0  0
  -17.5031  -31.6287   24.5190 H   0  0  0  0  0  0
  -15.5384  -30.3023   23.7686 H   0  0  0  0  0  0
  -15.8683  -28.0868   22.7066 H   0  0  0  0  0  0
  -24.5732  -30.7319   25.7746 H   0  0  0  0  0  0
  -24.9007  -32.3005   26.4943 H   0  0  0  0  0  0
  -25.7867  -30.8851   27.0225 H   0  0  0  0  0  0
  -26.3032  -29.6656   24.1358 H   0  0  0  0  0  0
  -27.4156  -29.7375   25.4879 H   0  0  0  0  0  0
  -27.8858  -30.4310   23.9576 H   0  0  0  0  0  0
  -27.2656  -33.3732   26.1963 H   0  0  0  0  0  0
  -28.0563  -31.8520   26.5611 H   0  0  0  0  0  0
  -28.3917  -32.6769   25.0429 H   0  0  0  0  0  0
  -28.2522  -38.0171   24.7508 H   0  0  0  0  0  0
  -28.1146  -36.2702   24.6153 H   0  0  0  0  0  0
  -27.2331  -37.1349   25.8830 H   0  0  0  0  0  0
  -20.9387  -29.8711   21.6740 H   0  0  0  0  0  0
  -26.0124  -38.2835   24.1420 H   0  0  0  0  0  0
  -30.7728  -21.0703   21.9287 H   0  0  0  0  0  0
  -28.5795  -18.1374   19.6660 H   0  0  0  0  0  0
  -25.9918  -22.6065   21.4340 H   0  0  0  0  0  0
  -26.3051  -23.1113   23.0669 H   0  0  0  0  0  0
  -26.7010  -25.2866   22.4091 H   0  0  0  0  0  0
  -25.9391  -24.7806   20.9316 H   0  0  0  0  0  0
  -27.9051  -21.3447   22.3327 H   0  0  0  0  0  0
  -28.7776  -22.8110   22.6863 H   0  0  0  0  0  0
  -28.8770  -25.0219   21.6088 H   0  0  0  0  0  0
  -31.9185  -20.2743   23.9352 H   0  0  0  0  0  0
  -33.2216  -19.6679   22.9095 H   0  0  0  0  0  0
  -32.4691  -18.6296   24.1125 H   0  0  0  0  0  0
  -27.8177  -20.6771   19.7158 H   0  0  0  0  0  0
  -29.3361  -21.1577   19.0470 H   0  0  0  0  0  0
  -28.7956  -15.6068   20.7793 H   0  0  0  0  0  0
  1 25  1  0  0  0
  1 30  2  0  0  0
  1 85  1  0  0  0
  2  3  1  0  0  0
  2 25  1  0  0  0
  2 88  1  0  0  0
  2 89  1  0  0  0
  3  4  1  0  0  0
  3 90  1  0  0  0
  3 91  1  0  0  0
  4  5  1  0  0  0
  4 92  1  0  0  0
  4 93  1  0  0  0
  5  6  1  0  0  0
  5 26  1  0  0  0
  5 94  1  0  0  0
  6 25  1  0  0  0
  6 95  1  0  0  0
  6 96  1  0  0  0
  7  8  2  0  0  0
  7 26  1  0  0  0
  7 29  1  0  0  0
  8  9  1  0  0  0
  8 22  1  0  0  0
  9 10  1  0  0  0
  9 27  2  0  0  0
 10 11  2  0  0  0
 10 15  1  0  0  0
 11 12  1  0  0  0
 11 97  1  0  0  0
 12 13  2  0  0  0
 12 98  1  0  0  0
 13 14  1  0  0  0
 13 31  1  0  0  0
 14 15  2  0  0  0
 14 99  1  0  0  0
 15100  1  0  0  0
 16 17  2  0  0  0
 16 21  1  0  0  0
 16 31  1  0  0  0
 17 18  1  0  0  0
 17101  1  0  0  0
 18 19  2  0  0  0
 18102  1  0  0  0
 19 20  1  0  0  0
 19 24  1  0  0  0
 20 21  2  0  0  0
 20103  1  0  0  0
 21 23  1  0  0  0
 22 28  1  0  0  0
 22 32  2  0  0  0
 26 27  1  0  0  0
 28104  1  0  0  0
 28105  1  0  0  0
 29106  1  0  0  0
 29107  1  0  0  0
 33 34  1  0  0  0
 33 66  1  0  0  0
 33 70  2  0  0  0
 34 36  1  0  0  0
 34 59  1  0  0  0
 34108  1  0  0  0
 35 44  2  0  0  0
 35 45  1  0  0  0
 35 68  1  0  0  0
 36 56  1  0  0  0
 36109  1  0  0  0
 37 39  1  0  0  0
 37 47  1  0  0  0
 37 66  1  0  0  0
 37110  1  0  0  0
 38 43  2  0  0  0
 38 46  1  0  0  0
 38 47  1  0  0  0
 39 64  1  0  0  0
 39 67  2  0  0  0
 40 52  1  0  0  0
 40 53  2  0  0  0
 40 58  1  0  0  0
 41111  1  0  0  0
 41112  1  0  0  0
 41113  1  0  0  0
 41 48  1  0  0  0
 42 43  1  0  0  0
 42 66  1  0  0  0
 42114  1  0  0  0
 42115  1  0  0  0
 43 44  1  0  0  0
 44116  1  0  0  0
 45 46  2  0  0  0
 45117  1  0  0  0
 46118  1  0  0  0
 47119  1  0  0  0
 47120  1  0  0  0
 48 56  1  0  0  0
 48 65  1  0  0  0
 48121  1  0  0  0
 49 50  1  0  0  0
 49 53  1  0  0  0
 49 64  1  0  0  0
 49122  1  0  0  0
 50 51  1  0  0  0
 50123  1  0  0  0
 50124  1  0  0  0
 51 52  1  0  0  0
 51125  1  0  0  0
 51126  1  0  0  0
 52127  1  0  0  0
 52128  1  0  0  0
 53 54  1  0  0  0
 54 55  2  0  0  0
 54129  1  0  0  0
 55 57  1  0  0  0
 55130  1  0  0  0
 56 69  2  0  0  0
 57 58  2  0  0  0
 57131  1  0  0  0
 58132  1  0  0  0
 59 60  1  0  0  0
 59 61  1  0  0  0
 59 62  1  0  0  0
 60133  1  0  0  0
 60134  1  0  0  0
 60135  1  0  0  0
 61136  1  0  0  0
 61137  1  0  0  0
 61138  1  0  0  0
 62139  1  0  0  0
 62140  1  0  0  0
 62141  1  0  0  0
 63 65  1  0  0  0
 63142  1  0  0  0
 63143  1  0  0  0
 63144  1  0  0  0
 64145  1  0  0  0
 65146  1  0  0  0
 68 81  1  0  0  0
 71 73  2  0  0  0
 71 74  1  0  0  0
 71147  1  0  0  0
 72 73  1  0  0  0
 72 75  2  0  0  0
 72148  1  0  0  0
 73 83  1  0  0  0
 74 76  2  0  0  0
 74 82  1  0  0  0
 75 76  1  0  0  0
 75 85  1  0  0  0
 76 87  1  0  0  0
 77 81  1  0  0  0
 77 84  1  0  0  0
 77 86  2  0  0  0
 78 79  1  0  0  0
 78 80  1  0  0  0
 78149  1  0  0  0
 78150  1  0  0  0
 79 81  1  0  0  0
 79151  1  0  0  0
 79152  1  0  0  0
 80 84  1  0  0  0
 80153  1  0  0  0
 80154  1  0  0  0
 81155  1  0  0  0
 82156  1  0  0  0
 82157  1  0  0  0
 82158  1  0  0  0
 83 84  1  0  0  0
 83159  1  0  0  0
 83160  1  0  0  0
 85161  1  0  0  0
M  ISO  4   1 100  68 101  81 101  85 100
M  END
> <chiral flag>
0

> <version>
0

> <s_m_source_file>
/data/baiqing/PycharmProjects/Reinvent-master-3.2/result/LINK_invent/BTK/process_docking_weight1_custom_product_contain_oxygen_bond_distance_aromatic_linkinvent_7_9_3/rearranged_h_0046.sdf

> <i_m_source_file_index>
53

> <r_mmod_Potential_Energy-OPLS-2005>
260.205230712891

> <r_mmod_Stretch_Energy-OPLS-2005>
137.080993652344

> <r_mmod_Bend_Energy-OPLS-2005>
174.715209960938

> <r_mmod_Torsional_Energy-OPLS-2005>
279.783843994141

> <r_mmod_Improper_Torsional_Energy-OPLS-2005>
6.83459568023682

> <r_mmod_Van_der_Waal_Energy-OPLS-2005>
153.619171142578

> <r_mmod_Electrostatic_Energy-OPLS-2005>
-348.55517578125

> <r_mmod_Solvation_Energy-OPLS-2005>
-232.516860961914

> <b_mmod_Minimization_Converged-OPLS-2005>
0

> <r_mmod_RMS_Derivative-OPLS-2005>
4.95106363296509

$$$$
53
                    3D
 Structure written by MMmdl.
167176  0  0  1  0            999 V2000
  -30.6722  -14.5453   20.5543 C   0  0  0  0  0  0
  -30.4229  -12.3524   19.4252 C   0  0  0  0  0  0
  -29.4915  -12.5076   18.2054 C   0  0  0  0  0  0
  -28.0149  -12.3548   18.6210 C   0  0  0  0  0  0
  -27.6512  -13.2122   19.8625 C   0  0  2  0  0  0
  -28.6958  -13.0395   20.9868 C   0  0  0  0  0  0
  -25.2559  -13.8175   20.5685 C   0  0  0  0  0  0
  -24.1822  -13.0444   20.9194 C   0  0  0  0  0  0
  -24.6385  -11.6917   20.8750 C   0  0  0  0  0  0
  -23.9062  -10.4298   21.0417 C   0  0  0  0  0  0
  -24.3617   -9.4213   21.9191 C   0  0  0  0  0  0
  -23.6300   -8.2243   22.0754 C   0  0  0  0  0  0
  -22.4283   -8.0286   21.3545 C   0  0  0  0  0  0
  -21.9921   -9.0258   20.4646 C   0  0  0  0  0  0
  -22.7242  -10.2138   20.3059 C   0  0  0  0  0  0
  -21.6851   -6.0746   22.5280 C   0  0  0  0  0  0
  -21.4009   -6.5648   23.8215 C   0  0  0  0  0  0
  -21.3659   -5.6799   24.9177 C   0  0  0  0  0  0
  -21.6046   -4.3063   24.7227 C   0  0  0  0  0  0
  -21.8820   -3.8156   23.4349 C   0  0  0  0  0  0
  -21.9193   -4.6972   22.3407 C   0  0  0  0  0  0
  -22.7850  -13.5246   21.1861 C   0  0  0  0  0  0
  -22.1665   -4.2165   21.0985 F   0  0  0  0  0  0
  -21.5630   -3.4543   25.7736 F   0  0  0  0  0  0
  -30.0133  -13.3588   20.4197 N   0  0  0  0  0  0
  -26.2974  -12.9342   20.3321 N   0  0  0  0  0  0
  -25.9304  -11.6501   20.5750 N   0  0  0  0  0  0
  -22.0487  -12.8226   22.0402 N   0  0  0  0  0  0
  -25.4307  -15.1888   20.4099 N   0  0  0  0  0  0
  -31.8341  -14.6963   20.1659 O   0  0  0  0  0  0
  -21.6638   -6.8889   21.4245 O   0  0  0  0  0  0
  -22.3548  -14.5559   20.6724 O   0  0  0  0  0  0
  -24.6190  -31.8631   23.2089 C   0  0  0  0  0  0
  -25.9062  -32.4802   23.8389 C   0  0  1  0  0  0
  -27.2251  -27.3806   20.1172 C   0  0  0  0  0  0
  -25.5900  -33.8606   24.2314 N   0  0  0  0  0  0
  -23.4096  -30.4850   21.5516 C   0  0  2  0  0  0
  -24.8550  -28.9381   20.1263 C   0  0  0  0  0  0
  -22.7429  -29.4628   22.5007 C   0  0  0  0  0  0
  -18.0268  -28.1375   22.8507 C   0  0  0  0  0  0
  -24.1484  -36.7306   23.2643 C   0  0  0  0  0  0
  -25.9437  -30.8116   21.3702 C   0  0  0  0  0  0
  -26.0193  -29.4391   20.7243 C   0  0  0  0  0  0
  -27.2107  -28.6677   20.7162 C   0  0  0  0  0  0
  -26.0495  -26.9099   19.5019 C   0  0  0  0  0  0
  -24.8653  -27.6722   19.5157 C   0  0  0  0  0  0
  -23.6205  -29.8124   20.1697 C   0  0  0  0  0  0
  -25.4110  -36.3104   24.0335 C   0  0  1  0  0  0
  -20.5866  -28.3657   23.1324 C   0  0  2  0  0  0
  -20.6752  -26.9388   22.5432 C   0  0  0  0  0  0
  -19.5732  -26.6379   21.5227 C   0  0  0  0  0  0
  -18.1906  -26.7931   22.1624 C   0  0  0  0  0  0
  -19.1522  -28.8835   23.2904 C   0  0  0  0  0  0
  -18.9449  -30.1455   23.8896 C   0  0  0  0  0  0
  -17.6448  -30.6585   24.0564 C   0  0  0  0  0  0
  -25.9040  -34.9467   23.5127 C   0  0  0  0  0  0
  -16.5340  -29.9077   23.6346 C   0  0  0  0  0  0
  -16.7257  -28.6496   23.0366 C   0  0  0  0  0  0
  -26.4482  -31.6606   25.0737 C   0  0  0  0  0  0
  -25.3743  -31.3706   26.1481 C   0  0  0  0  0  0
  -27.0330  -30.3048   24.6156 C   0  0  0  0  0  0
  -27.6049  -32.4346   25.7493 C   0  0  0  0  0  0
  -27.5585  -37.1804   24.8466 C   0  0  0  0  0  0
  -21.4156  -29.3016   22.3733 N   0  0  0  0  0  0
  -26.4291  -37.3793   23.9419 N   0  0  0  0  0  0
  -24.6760  -31.0691   22.1009 N   0  0  0  0  0  0
  -23.4179  -28.8169   23.3063 O   0  0  0  0  0  0
  -28.3702  -26.6069   20.0449 O   0  0  0  0  0  0
  -26.5606  -34.8920   22.4691 O   0  0  0  0  0  0
  -23.5374  -32.1400   23.7460 O   0  0  0  0  0  0
  -30.0710  -18.1300   20.7646 C   0  0  0  0  0  0
  -31.1891  -16.9122   22.5508 C   0  0  0  0  0  0
  -30.6240  -19.3788   21.2087 C   0  0  0  0  0  0
  -31.5197  -19.3320   22.3258 C   0  0  0  0  0  0
  -30.3973  -16.8867   21.3907 C   0  0  0  0  0  0
  -31.7320  -18.1156   23.0218 C   0  0  0  0  0  0
  -29.4371  -23.0252   21.1300 C   0  0  0  0  0  0
  -30.2136  -23.2503   22.2046 C   0  0  0  0  0  0
  -26.8689  -21.9957   20.2124 C   0  0  0  0  0  0
  -27.0176  -23.4657   20.6755 C   0  0  0  0  0  0
  -27.9501  -21.0577   20.8003 C   0  0  0  0  0  0
  -28.4472  -24.0397   20.4838 C   0  0  1  0  0  0
  -32.3608  -20.5203   22.7781 C   0  0  0  0  0  0
  -30.4321  -20.6751   20.3428 C   0  0  0  0  0  0
  -28.5366  -25.5354   21.0089 C   0  0  0  0  0  0
  -29.9154  -15.6123   20.9259 N   0  0  0  0  0  0
  -29.2749  -21.6374   20.5130 N   0  3  2  0  0  0
  -32.7103  -18.0520   24.4488 Cl  0  0  0  0  0  0
  -31.4640  -12.4680   19.1202 H   0  0  0  0  0  0
  -30.3431  -11.3493   19.8474 H   0  0  0  0  0  0
  -29.7413  -11.7718   17.4394 H   0  0  0  0  0  0
  -29.6420  -13.4873   17.7490 H   0  0  0  0  0  0
  -27.8381  -11.2998   18.8339 H   0  0  0  0  0  0
  -27.3618  -12.6095   17.7855 H   0  0  0  0  0  0
  -27.6792  -14.2522   19.5368 H   0  0  0  0  0  0
  -28.6894  -12.0145   21.3607 H   0  0  0  0  0  0
  -28.4555  -13.6708   21.8436 H   0  0  0  0  0  0
  -25.2763   -9.5684   22.4770 H   0  0  0  0  0  0
  -24.0015   -7.4628   22.7465 H   0  0  0  0  0  0
  -21.0856   -8.8775   19.8943 H   0  0  0  0  0  0
  -22.3710  -10.9681   19.6169 H   0  0  0  0  0  0
  -21.1994   -7.6152   23.9724 H   0  0  0  0  0  0
  -21.1482   -6.0529   25.9085 H   0  0  0  0  0  0
  -22.0599   -2.7620   23.2842 H   0  0  0  0  0  0
  -22.4107  -11.9875   22.4761 H   0  0  0  0  0  0
  -21.1102  -13.1242   22.2609 H   0  0  0  0  0  0
  -24.6668  -15.8474   20.5183 H   0  0  0  0  0  0
  -26.2807  -15.6229   20.0737 H   0  0  0  0  0  0
  -26.7137  -32.5498   23.1153 H   0  0  0  0  0  0
  -25.0044  -33.9769   25.0455 H   0  0  0  0  0  0
  -22.7021  -31.3039   21.4089 H   0  0  0  0  0  0
  -23.3758  -35.9626   23.3289 H   0  0  0  0  0  0
  -24.3581  -36.8949   22.2065 H   0  0  0  0  0  0
  -23.7221  -37.6493   23.6680 H   0  0  0  0  0  0
  -26.0639  -31.5717   20.5969 H   0  0  0  0  0  0
  -26.8292  -30.8663   21.9921 H   0  0  0  0  0  0
  -28.1139  -29.0530   21.1687 H   0  0  0  0  0  0
  -26.0514  -25.9536   18.9995 H   0  0  0  0  0  0
  -23.9700  -27.2825   19.0507 H   0  0  0  0  0  0
  -23.7332  -30.5839   19.4078 H   0  0  0  0  0  0
  -22.7421  -29.2346   19.8754 H   0  0  0  0  0  0
  -25.1291  -36.1963   25.0827 H   0  0  0  0  0  0
  -20.9950  -28.3210   24.1446 H   0  0  0  0  0  0
  -20.5658  -26.2252   23.3611 H   0  0  0  0  0  0
  -21.6617  -26.7418   22.1220 H   0  0  0  0  0  0
  -19.6879  -25.6291   21.1244 H   0  0  0  0  0  0
  -19.6684  -27.3200   20.6766 H   0  0  0  0  0  0
  -17.4190  -26.6720   21.4005 H   0  0  0  0  0  0
  -18.0269  -26.0054   22.8990 H   0  0  0  0  0  0
  -19.7925  -30.7285   24.2246 H   0  0  0  0  0  0
  -17.5000  -31.6271   24.5155 H   0  0  0  0  0  0
  -15.5342  -30.2971   23.7683 H   0  0  0  0  0  0
  -15.8658  -28.0821   22.7075 H   0  0  0  0  0  0
  -24.5944  -30.7016   25.7832 H   0  0  0  0  0  0
  -24.8889  -32.2842   26.4917 H   0  0  0  0  0  0
  -25.8095  -30.8906   27.0254 H   0  0  0  0  0  0
  -26.2887  -29.6788   24.1222 H   0  0  0  0  0  0
  -27.4098  -29.7318   25.4640 H   0  0  0  0  0  0
  -27.8720  -30.4368   23.9320 H   0  0  0  0  0  0
  -27.2674  -33.3669   26.2037 H   0  0  0  0  0  0
  -28.3856  -32.6875   25.0306 H   0  0  0  0  0  0
  -28.0710  -31.8489   26.5427 H   0  0  0  0  0  0
  -28.2598  -38.0108   24.7539 H   0  0  0  0  0  0
  -28.1085  -36.2645   24.6262 H   0  0  0  0  0  0
  -27.2306  -37.1420   25.8867 H   0  0  0  0  0  0
  -20.9327  -29.8718   21.6937 H   0  0  0  0  0  0
  -26.0177  -38.2866   24.1434 H   0  0  0  0  0  0
  -29.4452  -18.1133   19.8826 H   0  0  0  0  0  0
  -31.4120  -15.9981   23.0822 H   0  0  0  0  0  0
  -30.2687  -24.2117   22.6906 H   0  0  0  0  0  0
  -30.7824  -22.4692   22.6614 H   0  0  0  0  0  0
  -26.9102  -21.9627   19.1225 H   0  0  0  0  0  0
  -25.8782  -21.6251   20.4793 H   0  0  0  0  0  0
  -26.7563  -23.5243   21.7333 H   0  0  0  0  0  0
  -26.2834  -24.0805   20.1578 H   0  0  0  0  0  0
  -27.8567  -20.0678   20.3538 H   0  0  0  0  0  0
  -27.8318  -20.9371   21.8776 H   0  0  0  0  0  0
  -28.6842  -24.0621   19.4187 H   0  0  0  0  0  0
  -32.4631  -21.3100   22.0421 H   0  0  0  0  0  0
  -33.3848  -20.1991   22.9694 H   0  0  0  0  0  0
  -31.9744  -20.9347   23.7095 H   0  0  0  0  0  0
  -30.3147  -20.3050   19.3241 H   0  0  0  0  0  0
  -31.3537  -21.2468   20.2723 H   0  0  0  0  0  0
  -29.5385  -25.7227   21.3891 H   0  0  0  0  0  0
  -27.8795  -25.6772   21.8688 H   0  0  0  0  0  0
  -28.9241  -15.4461   21.0106 H   0  0  0  0  0  0
  -29.1583  -21.8425   19.5326 H   0  0  0  0  0  0
  1 25  1  0  0  0
  1 30  2  0  0  0
  1 86  1  0  0  0
  2  3  1  0  0  0
  2 25  1  0  0  0
  2 89  1  0  0  0
  2 90  1  0  0  0
  3  4  1  0  0  0
  3 91  1  0  0  0
  3 92  1  0  0  0
  4  5  1  0  0  0
  4 93  1  0  0  0
  4 94  1  0  0  0
  5  6  1  0  0  0
  5 26  1  0  0  0
  5 95  1  0  0  0
  6 25  1  0  0  0
  6 96  1  0  0  0
  6 97  1  0  0  0
  7  8  2  0  0  0
  7 26  1  0  0  0
  7 29  1  0  0  0
  8  9  1  0  0  0
  8 22  1  0  0  0
  9 10  1  0  0  0
  9 27  2  0  0  0
 10 11  2  0  0  0
 10 15  1  0  0  0
 11 12  1  0  0  0
 11 98  1  0  0  0
 12 13  2  0  0  0
 12 99  1  0  0  0
 13 14  1  0  0  0
 13 31  1  0  0  0
 14 15  2  0  0  0
 14100  1  0  0  0
 15101  1  0  0  0
 16 17  2  0  0  0
 16 21  1  0  0  0
 16 31  1  0  0  0
 17 18  1  0  0  0
 17102  1  0  0  0
 18 19  2  0  0  0
 18103  1  0  0  0
 19 20  1  0  0  0
 19 24  1  0  0  0
 20 21  2  0  0  0
 20104  1  0  0  0
 21 23  1  0  0  0
 22 28  1  0  0  0
 22 32  2  0  0  0
 26 27  1  0  0  0
 28105  1  0  0  0
 28106  1  0  0  0
 29107  1  0  0  0
 29108  1  0  0  0
 33 34  1  0  0  0
 33 66  1  0  0  0
 33 70  2  0  0  0
 34 36  1  0  0  0
 34 59  1  0  0  0
 34109  1  0  0  0
 35 44  2  0  0  0
 35 45  1  0  0  0
 35 68  1  0  0  0
 36 56  1  0  0  0
 36110  1  0  0  0
 37 39  1  0  0  0
 37 47  1  0  0  0
 37 66  1  0  0  0
 37111  1  0  0  0
 38 43  2  0  0  0
 38 46  1  0  0  0
 38 47  1  0  0  0
 39 64  1  0  0  0
 39 67  2  0  0  0
 40 52  1  0  0  0
 40 53  2  0  0  0
 40 58  1  0  0  0
 41112  1  0  0  0
 41113  1  0  0  0
 41114  1  0  0  0
 41 48  1  0  0  0
 42 43  1  0  0  0
 42 66  1  0  0  0
 42115  1  0  0  0
 42116  1  0  0  0
 43 44  1  0  0  0
 44117  1  0  0  0
 45 46  2  0  0  0
 45118  1  0  0  0
 46119  1  0  0  0
 47120  1  0  0  0
 47121  1  0  0  0
 48 56  1  0  0  0
 48 65  1  0  0  0
 48122  1  0  0  0
 49 50  1  0  0  0
 49 53  1  0  0  0
 49 64  1  0  0  0
 49123  1  0  0  0
 50 51  1  0  0  0
 50124  1  0  0  0
 50125  1  0  0  0
 51 52  1  0  0  0
 51126  1  0  0  0
 51127  1  0  0  0
 52128  1  0  0  0
 52129  1  0  0  0
 53 54  1  0  0  0
 54 55  2  0  0  0
 54130  1  0  0  0
 55 57  1  0  0  0
 55131  1  0  0  0
 56 69  2  0  0  0
 57 58  2  0  0  0
 57132  1  0  0  0
 58133  1  0  0  0
 59 60  1  0  0  0
 59 61  1  0  0  0
 59 62  1  0  0  0
 60134  1  0  0  0
 60135  1  0  0  0
 60136  1  0  0  0
 61137  1  0  0  0
 61138  1  0  0  0
 61139  1  0  0  0
 62140  1  0  0  0
 62141  1  0  0  0
 62142  1  0  0  0
 63 65  1  0  0  0
 63143  1  0  0  0
 63144  1  0  0  0
 63145  1  0  0  0
 64146  1  0  0  0
 65147  1  0  0  0
 68 85  1  0  0  0
 71 73  2  0  0  0
 71 75  1  0  0  0
 71148  1  0  0  0
 72 75  2  0  0  0
 72 76  1  0  0  0
 72149  1  0  0  0
 73 74  1  0  0  0
 73 84  1  0  0  0
 74 76  2  0  0  0
 74 83  1  0  0  0
 75 86  1  0  0  0
 76 88  1  0  0  0
 77 78  2  0  0  0
 77 82  1  0  0  0
 77 87  1  0  0  0
 78150  1  0  0  0
 78151  1  0  0  0
 79 80  1  0  0  0
 79 81  1  0  0  0
 79152  1  0  0  0
 79153  1  0  0  0
 80 82  1  0  0  0
 80154  1  0  0  0
 80155  1  0  0  0
 81 87  1  0  0  0
 81156  1  0  0  0
 81157  1  0  0  0
 82 85  1  0  0  0
 82158  1  0  0  0
 83159  1  0  0  0
 83160  1  0  0  0
 83161  1  0  0  0
 84162  1  0  0  0
 84163  1  0  0  0
 84 87  1  0  0  0
 85164  1  0  0  0
 85165  1  0  0  0
 86166  1  0  0  0
 87167  1  0  0  0
M  CHG  1  87   1
M  ISO  4   1 100  68 101  85 101  86 100
M  END
> <chiral flag>
0

> <version>
0

> <s_m_source_file>
/data/baiqing/PycharmProjects/Reinvent-master-3.2/result/LINK_invent/BTK/process_docking_weight1_custom_product_contain_oxygen_bond_distance_aromatic_linkinvent_7_9_3/rearranged_h_0046.sdf

> <i_m_source_file_index>
54

> <r_mmod_Potential_Energy-OPLS-2005>
-4.93604326248169

> <r_mmod_Stretch_Energy-OPLS-2005>
63.6203727722168

> <r_mmod_Bend_Energy-OPLS-2005>
156.759567260742

> <r_mmod_Torsional_Energy-OPLS-2005>
284.504272460938

> <r_mmod_Improper_Torsional_Energy-OPLS-2005>
6.84781360626221

> <r_mmod_Van_der_Waal_Energy-OPLS-2005>
151.803100585938

> <r_mmod_Electrostatic_Energy-OPLS-2005>
-233.346954345703

> <r_mmod_Solvation_Energy-OPLS-2005>
-458.693206787109

> <b_mmod_Minimization_Converged-OPLS-2005>
0

> <r_mmod_RMS_Derivative-OPLS-2005>
1.48647379875183

$$$$
54
                    3D
 Structure written by MMmdl.
161169  0  0  1  0            999 V2000
  -30.7263  -14.4043   20.6027 C   0  0  0  0  0  0
  -30.4181  -12.2792   19.4014 C   0  0  0  0  0  0
  -29.4865  -12.5137   18.1955 C   0  0  0  0  0  0
  -28.0086  -12.3767   18.6107 C   0  0  0  0  0  0
  -27.6655  -13.2014   19.8800 C   0  0  2  0  0  0
  -28.7063  -12.9481   20.9940 C   0  0  0  0  0  0
  -25.2615  -13.8151   20.5679 C   0  0  0  0  0  0
  -24.1852  -13.0441   20.9166 C   0  0  0  0  0  0
  -24.6394  -11.6902   20.8727 C   0  0  0  0  0  0
  -23.9060  -10.4293   21.0401 C   0  0  0  0  0  0
  -24.3612   -9.4212   21.9184 C   0  0  0  0  0  0
  -23.6291   -8.2247   22.0753 C   0  0  0  0  0  0
  -22.4277   -8.0283   21.3543 C   0  0  0  0  0  0
  -21.9909   -9.0251   20.4644 C   0  0  0  0  0  0
  -22.7233  -10.2133   20.3055 C   0  0  0  0  0  0
  -21.6856   -6.0741   22.5285 C   0  0  0  0  0  0
  -21.4008   -6.5643   23.8216 C   0  0  0  0  0  0
  -21.3657   -5.6796   24.9176 C   0  0  0  0  0  0
  -21.6046   -4.3059   24.7226 C   0  0  0  0  0  0
  -21.8820   -3.8151   23.4346 C   0  0  0  0  0  0
  -21.9191   -4.6969   22.3401 C   0  0  0  0  0  0
  -22.7878  -13.5251   21.1835 C   0  0  0  0  0  0
  -22.1664   -4.2158   21.0979 F   0  0  0  0  0  0
  -21.5627   -3.4545   25.7738 F   0  0  0  0  0  0
  -30.0440  -13.2404   20.4477 N   0  0  0  0  0  0
  -26.3045  -12.9307   20.3391 N   0  0  0  0  0  0
  -25.9320  -11.6469   20.5766 N   0  0  0  0  0  0
  -22.0513  -12.8236   22.0380 N   0  0  0  0  0  0
  -25.4368  -15.1863   20.4092 N   0  0  0  0  0  0
  -31.8344  -14.6126   20.0978 O   0  0  0  0  0  0
  -21.6641   -6.8883   21.4246 O   0  0  0  0  0  0
  -22.3573  -14.5573   20.6706 O   0  0  0  0  0  0
  -24.6109  -31.8702   23.2122 C   0  0  0  0  0  0
  -25.9020  -32.4833   23.8411 C   0  0  1  0  0  0
  -27.2362  -27.4746   20.0896 C   0  0  0  0  0  0
  -25.5894  -33.8631   24.2345 N   0  0  0  0  0  0
  -23.3971  -30.4924   21.5523 C   0  0  2  0  0  0
  -24.8438  -28.9597   20.1176 C   0  0  0  0  0  0
  -22.7385  -29.4671   22.5020 C   0  0  0  0  0  0
  -18.0265  -28.1379   22.8495 C   0  0  0  0  0  0
  -24.1481  -36.7316   23.2638 C   0  0  0  0  0  0
  -25.9206  -30.8480   21.3578 C   0  0  0  0  0  0
  -26.0010  -29.4844   20.7079 C   0  0  0  0  0  0
  -27.2040  -28.7484   20.6903 C   0  0  0  0  0  0
  -26.0675  -26.9504   19.4999 C   0  0  0  0  0  0
  -24.8695  -27.6895   19.5126 C   0  0  0  0  0  0
  -23.6026  -29.8208   20.1676 C   0  0  0  0  0  0
  -25.4103  -36.3118   24.0341 C   0  0  1  0  0  0
  -20.5852  -28.3654   23.1334 C   0  0  2  0  0  0
  -20.6755  -26.9393   22.5425 C   0  0  0  0  0  0
  -19.5736  -26.6386   21.5218 C   0  0  0  0  0  0
  -18.1906  -26.7935   22.1614 C   0  0  0  0  0  0
  -19.1511  -28.8834   23.2916 C   0  0  0  0  0  0
  -18.9445  -30.1443   23.8920 C   0  0  0  0  0  0
  -17.6448  -30.6583   24.0574 C   0  0  0  0  0  0
  -25.9029  -34.9479   23.5140 C   0  0  0  0  0  0
  -16.5340  -29.9087   23.6334 C   0  0  0  0  0  0
  -16.7256  -28.6508   23.0352 C   0  0  0  0  0  0
  -26.4460  -31.6599   25.0724 C   0  0  0  0  0  0
  -25.3746  -31.3688   26.1488 C   0  0  0  0  0  0
  -27.0281  -30.3048   24.6067 C   0  0  0  0  0  0
  -27.6058  -32.4302   25.7474 C   0  0  0  0  0  0
  -27.5582  -37.1812   24.8464 C   0  0  0  0  0  0
  -21.4122  -29.3029   22.3747 N   0  0  0  0  0  0
  -26.4293  -37.3798   23.9412 N   0  0  0  0  0  0
  -24.6612  -31.0833   22.1001 N   0  0  0  0  0  0
  -23.4171  -28.8223   23.3059 O   0  0  0  0  0  0
  -28.4008  -26.7540   20.0671 O   0  0  0  0  0  0
  -26.5591  -34.8927   22.4700 O   0  0  0  0  0  0
  -23.5315  -32.1438   23.7545 O   0  0  0  0  0  0
  -31.6108  -18.7259   21.7324 C   0  0  0  0  0  0
  -30.8742  -19.4848   20.8020 C   0  0  0  0  0  0
  -31.3452  -17.3526   21.8942 C   0  0  0  0  0  0
  -29.5810  -17.5052   20.2096 C   0  0  0  0  0  0
  -29.8547  -18.8786   20.0349 C   0  0  0  0  0  0
  -30.3364  -16.7390   21.1233 C   0  0  0  0  0  0
  -28.3602  -23.2417   20.0633 C   0  0  0  0  0  0
  -28.9971  -24.4166   20.2336 C   0  0  0  0  0  0
  -29.0247  -22.1238   19.4006 C   0  0  0  0  0  0
  -25.9434  -20.8837   19.4911 C   0  0  0  0  0  0
  -29.0642  -19.6862   19.0091 C   0  0  0  0  0  0
  -28.3920  -25.6176   20.9244 C   0  0  0  0  0  0
  -27.2106  -20.6155   20.3220 C   0  0  0  0  0  0
  -30.0653  -15.3611   21.2674 N   0  0  0  0  0  0
  -28.4433  -20.9018   19.5634 N   0  0  0  0  0  0
  -30.0615  -22.2678   18.7437 O   0  0  0  0  0  0
  -31.4621  -12.3746   19.0978 H   0  0  0  0  0  0
  -30.3108  -11.2598   19.7759 H   0  0  0  0  0  0
  -29.7170  -11.8078   17.3963 H   0  0  0  0  0  0
  -29.6592  -13.5090   17.7838 H   0  0  0  0  0  0
  -27.8116  -11.3188   18.7911 H   0  0  0  0  0  0
  -27.3573  -12.6697   17.7856 H   0  0  0  0  0  0
  -27.7208  -14.2544   19.6017 H   0  0  0  0  0  0
  -28.6695  -11.9062   21.3148 H   0  0  0  0  0  0
  -28.4706  -13.5273   21.8873 H   0  0  0  0  0  0
  -25.2755   -9.5690   22.4763 H   0  0  0  0  0  0
  -24.0003   -7.4642   22.7473 H   0  0  0  0  0  0
  -21.0841   -8.8765   19.8946 H   0  0  0  0  0  0
  -22.3693  -10.9671   19.6166 H   0  0  0  0  0  0
  -21.1996   -7.6148   23.9719 H   0  0  0  0  0  0
  -21.1480   -6.0526   25.9079 H   0  0  0  0  0  0
  -22.0598   -2.7616   23.2847 H   0  0  0  0  0  0
  -22.4117  -11.9874   22.4736 H   0  0  0  0  0  0
  -21.1136  -13.1268   22.2594 H   0  0  0  0  0  0
  -24.6736  -15.8454   20.5161 H   0  0  0  0  0  0
  -26.2964  -15.6234   20.1025 H   0  0  0  0  0  0
  -26.7098  -32.5553   23.1191 H   0  0  0  0  0  0
  -25.0070  -33.9803   25.0509 H   0  0  0  0  0  0
  -22.6852  -31.3084   21.4131 H   0  0  0  0  0  0
  -23.3754  -35.9636   23.3286 H   0  0  0  0  0  0
  -24.3583  -36.8947   22.2058 H   0  0  0  0  0  0
  -23.7208  -37.6505   23.6663 H   0  0  0  0  0  0
  -26.0240  -31.6145   20.5888 H   0  0  0  0  0  0
  -26.8115  -30.9062   21.9708 H   0  0  0  0  0  0
  -28.1016  -29.1505   21.1387 H   0  0  0  0  0  0
  -26.0876  -25.9768   19.0296 H   0  0  0  0  0  0
  -23.9787  -27.2801   19.0561 H   0  0  0  0  0  0
  -23.7038  -30.5933   19.4042 H   0  0  0  0  0  0
  -22.7284  -29.2351   19.8769 H   0  0  0  0  0  0
  -25.1277  -36.1991   25.0836 H   0  0  0  0  0  0
  -20.9939  -28.3209   24.1458 H   0  0  0  0  0  0
  -20.5652  -26.2262   23.3608 H   0  0  0  0  0  0
  -21.6628  -26.7438   22.1220 H   0  0  0  0  0  0
  -19.6894  -25.6303   21.1232 H   0  0  0  0  0  0
  -19.6684  -27.3215   20.6761 H   0  0  0  0  0  0
  -17.4187  -26.6716   21.3999 H   0  0  0  0  0  0
  -18.0282  -26.0058   22.8984 H   0  0  0  0  0  0
  -19.7918  -30.7263   24.2293 H   0  0  0  0  0  0
  -17.4996  -31.6268   24.5169 H   0  0  0  0  0  0
  -15.5341  -30.2997   23.7647 H   0  0  0  0  0  0
  -15.8653  -28.0835   22.7054 H   0  0  0  0  0  0
  -24.5919  -30.7034   25.7824 H   0  0  0  0  0  0
  -24.8946  -32.2838   26.4970 H   0  0  0  0  0  0
  -25.8118  -30.8833   27.0222 H   0  0  0  0  0  0
  -26.2802  -29.6809   24.1161 H   0  0  0  0  0  0
  -27.4106  -29.7282   25.4497 H   0  0  0  0  0  0
  -27.8611  -30.4378   23.9162 H   0  0  0  0  0  0
  -27.2714  -33.3618   26.2050 H   0  0  0  0  0  0
  -28.3872  -32.6825   25.0293 H   0  0  0  0  0  0
  -28.0715  -31.8417   26.5387 H   0  0  0  0  0  0
  -28.2603  -38.0109   24.7517 H   0  0  0  0  0  0
  -28.1078  -36.2642   24.6277 H   0  0  0  0  0  0
  -27.2308  -37.1450   25.8871 H   0  0  0  0  0  0
  -20.9276  -29.8750   21.6975 H   0  0  0  0  0  0
  -26.0184  -38.2875   24.1426 H   0  0  0  0  0  0
  -32.3887  -19.1956   22.3180 H   0  0  0  0  0  0
  -31.1047  -20.5340   20.6781 H   0  0  0  0  0  0
  -31.9227  -16.7758   22.6032 H   0  0  0  0  0  0
  -28.8052  -17.0340   19.6227 H   0  0  0  0  0  0
  -27.3488  -23.1599   20.4275 H   0  0  0  0  0  0
  -30.0096  -24.5488   19.8765 H   0  0  0  0  0  0
  -25.0484  -20.6443   20.0659 H   0  0  0  0  0  0
  -25.9264  -20.2708   18.5890 H   0  0  0  0  0  0
  -25.8628  -21.9260   19.1833 H   0  0  0  0  0  0
  -28.2816  -19.0620   18.5748 H   0  0  0  0  0  0
  -29.7248  -19.9091   18.1697 H   0  0  0  0  0  0
  -28.9900  -25.8477   21.8065 H   0  0  0  0  0  0
  -27.3923  -25.3658   21.2867 H   0  0  0  0  0  0
  -27.2017  -19.5700   20.6346 H   0  0  0  0  0  0
  -27.1890  -21.1683   21.2614 H   0  0  0  0  0  0
  -29.1441  -15.1040   21.5875 H   0  0  0  0  0  0
  1 25  1  0  0  0
  1 30  2  0  0  0
  1 84  1  0  0  0
  2  3  1  0  0  0
  2 25  1  0  0  0
  2 87  1  0  0  0
  2 88  1  0  0  0
  3  4  1  0  0  0
  3 89  1  0  0  0
  3 90  1  0  0  0
  4  5  1  0  0  0
  4 91  1  0  0  0
  4 92  1  0  0  0
  5  6  1  0  0  0
  5 26  1  0  0  0
  5 93  1  0  0  0
  6 25  1  0  0  0
  6 94  1  0  0  0
  6 95  1  0  0  0
  7  8  2  0  0  0
  7 26  1  0  0  0
  7 29  1  0  0  0
  8  9  1  0  0  0
  8 22  1  0  0  0
  9 10  1  0  0  0
  9 27  2  0  0  0
 10 11  2  0  0  0
 10 15  1  0  0  0
 11 12  1  0  0  0
 11 96  1  0  0  0
 12 13  2  0  0  0
 12 97  1  0  0  0
 13 14  1  0  0  0
 13 31  1  0  0  0
 14 15  2  0  0  0
 14 98  1  0  0  0
 15 99  1  0  0  0
 16 17  2  0  0  0
 16 21  1  0  0  0
 16 31  1  0  0  0
 17 18  1  0  0  0
 17100  1  0  0  0
 18 19  2  0  0  0
 18101  1  0  0  0
 19 20  1  0  0  0
 19 24  1  0  0  0
 20 21  2  0  0  0
 20102  1  0  0  0
 21 23  1  0  0  0
 22 28  1  0  0  0
 22 32  2  0  0  0
 26 27  1  0  0  0
 28103  1  0  0  0
 28104  1  0  0  0
 29105  1  0  0  0
 29106  1  0  0  0
 33 34  1  0  0  0
 33 66  1  0  0  0
 33 70  2  0  0  0
 34 36  1  0  0  0
 34 59  1  0  0  0
 34107  1  0  0  0
 35 44  2  0  0  0
 35 45  1  0  0  0
 35 68  1  0  0  0
 36 56  1  0  0  0
 36108  1  0  0  0
 37 39  1  0  0  0
 37 47  1  0  0  0
 37 66  1  0  0  0
 37109  1  0  0  0
 38 43  2  0  0  0
 38 46  1  0  0  0
 38 47  1  0  0  0
 39 64  1  0  0  0
 39 67  2  0  0  0
 40 52  1  0  0  0
 40 53  2  0  0  0
 40 58  1  0  0  0
 41110  1  0  0  0
 41111  1  0  0  0
 41112  1  0  0  0
 41 48  1  0  0  0
 42 43  1  0  0  0
 42 66  1  0  0  0
 42113  1  0  0  0
 42114  1  0  0  0
 43 44  1  0  0  0
 44115  1  0  0  0
 45 46  2  0  0  0
 45116  1  0  0  0
 46117  1  0  0  0
 47118  1  0  0  0
 47119  1  0  0  0
 48 56  1  0  0  0
 48 65  1  0  0  0
 48120  1  0  0  0
 49 50  1  0  0  0
 49 53  1  0  0  0
 49 64  1  0  0  0
 49121  1  0  0  0
 50 51  1  0  0  0
 50122  1  0  0  0
 50123  1  0  0  0
 51 52  1  0  0  0
 51124  1  0  0  0
 51125  1  0  0  0
 52126  1  0  0  0
 52127  1  0  0  0
 53 54  1  0  0  0
 54 55  2  0  0  0
 54128  1  0  0  0
 55 57  1  0  0  0
 55129  1  0  0  0
 56 69  2  0  0  0
 57 58  2  0  0  0
 57130  1  0  0  0
 58131  1  0  0  0
 59 60  1  0  0  0
 59 61  1  0  0  0
 59 62  1  0  0  0
 60132  1  0  0  0
 60133  1  0  0  0
 60134  1  0  0  0
 61135  1  0  0  0
 61136  1  0  0  0
 61137  1  0  0  0
 62138  1  0  0  0
 62139  1  0  0  0
 62140  1  0  0  0
 63 65  1  0  0  0
 63141  1  0  0  0
 63142  1  0  0  0
 63143  1  0  0  0
 64144  1  0  0  0
 65145  1  0  0  0
 68 82  1  0  0  0
 71 72  2  0  0  0
 71 73  1  0  0  0
 71146  1  0  0  0
 72 75  1  0  0  0
 72147  1  0  0  0
 73 76  2  0  0  0
 73148  1  0  0  0
 74 75  2  0  0  0
 74 76  1  0  0  0
 74149  1  0  0  0
 75 81  1  0  0  0
 76 84  1  0  0  0
 77 78  2  0  0  0
 77 79  1  0  0  0
 77150  1  0  0  0
 78 82  1  0  0  0
 78151  1  0  0  0
 79 85  1  0  0  0
 79 86  2  0  0  0
 80 83  1  0  0  0
 80152  1  0  0  0
 80153  1  0  0  0
 80154  1  0  0  0
 81 85  1  0  0  0
 81155  1  0  0  0
 81156  1  0  0  0
 82157  1  0  0  0
 82158  1  0  0  0
 83 85  1  0  0  0
 83159  1  0  0  0
 83160  1  0  0  0
 84161  1  0  0  0
M  ISO  4   1 100  68 101  82 101  84 100
M  END
> <chiral flag>
0

> <version>
0

> <s_m_source_file>
/data/baiqing/PycharmProjects/Reinvent-master-3.2/result/LINK_invent/BTK/process_docking_weight1_custom_product_contain_oxygen_bond_distance_aromatic_linkinvent_7_9_3/rearranged_h_0046.sdf

> <i_m_source_file_index>
55

> <r_mmod_Potential_Energy-OPLS-2005>
-28.4074039459229

> <r_mmod_Stretch_Energy-OPLS-2005>
34.3645401000977

> <r_mmod_Bend_Energy-OPLS-2005>
87.9781341552734

> <r_mmod_Torsional_Energy-OPLS-2005>
269.830108642578

> <r_mmod_Improper_Torsional_Energy-OPLS-2005>
3.87270975112915

> <r_mmod_Van_der_Waal_Energy-OPLS-2005>
164.806671142578

> <r_mmod_Electrostatic_Energy-OPLS-2005>
-372.639282226562

> <r_mmod_Solvation_Energy-OPLS-2005>
-224.502685546875

> <b_mmod_Minimization_Converged-OPLS-2005>
0

> <r_mmod_RMS_Derivative-OPLS-2005>
0.999998688697815

$$$$
55
                    3D
 Structure written by MMmdl.
167176  0  0  1  0            999 V2000
  -30.6749  -14.5409   20.4515 C   0  0  0  0  0  0
  -30.4296  -12.3233   19.4387 C   0  0  0  0  0  0
  -29.4917  -12.4367   18.2152 C   0  0  0  0  0  0
  -28.0154  -12.3253   18.6383 C   0  0  0  0  0  0
  -27.6538  -13.2088   19.8577 C   0  0  2  0  0  0
  -28.7021  -13.0634   20.9822 C   0  0  0  0  0  0
  -25.2576  -13.8194   20.5708 C   0  0  0  0  0  0
  -24.1809  -13.0478   20.9212 C   0  0  0  0  0  0
  -24.6341  -11.6928   20.8730 C   0  0  0  0  0  0
  -23.8997  -10.4306   21.0405 C   0  0  0  0  0  0
  -24.3559   -9.4212   21.9168 C   0  0  0  0  0  0
  -23.6245   -8.2245   22.0758 C   0  0  0  0  0  0
  -22.4233   -8.0280   21.3563 C   0  0  0  0  0  0
  -21.9837   -9.0238   20.4668 C   0  0  0  0  0  0
  -22.7167  -10.2122   20.3071 C   0  0  0  0  0  0
  -21.6856   -6.0712   22.5260 C   0  0  0  0  0  0
  -21.4016   -6.5605   23.8182 C   0  0  0  0  0  0
  -21.3659   -5.6770   24.9148 C   0  0  0  0  0  0
  -21.6048   -4.3026   24.7222 C   0  0  0  0  0  0
  -21.8814   -3.8127   23.4341 C   0  0  0  0  0  0
  -21.9184   -4.6938   22.3397 C   0  0  0  0  0  0
  -22.7825  -13.5265   21.1844 C   0  0  0  0  0  0
  -22.1668   -4.2115   21.0981 F   0  0  0  0  0  0
  -21.5621   -3.4514   25.7744 F   0  0  0  0  0  0
  -30.0246  -13.3494   20.4104 N   0  0  0  0  0  0
  -26.2982  -12.9350   20.3333 N   0  0  0  0  0  0
  -25.9259  -11.6514   20.5737 N   0  0  0  0  0  0
  -22.0416  -12.8301   22.0404 N   0  0  0  0  0  0
  -25.4336  -15.1910   20.4133 N   0  0  0  0  0  0
  -31.8842  -14.6448   20.2241 O   0  0  0  0  0  0
  -21.6656   -6.8851   21.4227 O   0  0  0  0  0  0
  -22.3511  -14.5568   20.6677 O   0  0  0  0  0  0
  -24.6139  -31.8689   23.2110 C   0  0  0  0  0  0
  -25.9035  -32.4818   23.8420 C   0  0  1  0  0  0
  -27.2481  -27.4486   20.0688 C   0  0  0  0  0  0
  -25.5898  -33.8627   24.2355 N   0  0  0  0  0  0
  -23.4025  -30.4896   21.5548 C   0  0  2  0  0  0
  -24.8454  -28.9515   20.1212 C   0  0  0  0  0  0
  -22.7413  -29.4675   22.5066 C   0  0  0  0  0  0
  -18.0282  -28.1377   22.8531 C   0  0  0  0  0  0
  -24.1475  -36.7312   23.2640 C   0  0  0  0  0  0
  -25.9288  -30.8291   21.3686 C   0  0  0  0  0  0
  -26.0028  -29.4637   20.7187 C   0  0  0  0  0  0
  -27.1989  -28.7136   20.6990 C   0  0  0  0  0  0
  -26.0608  -26.9361   19.4937 C   0  0  0  0  0  0
  -24.8673  -27.6829   19.5150 C   0  0  0  0  0  0
  -23.6054  -29.8123   20.1723 C   0  0  0  0  0  0
  -25.4087  -36.3137   24.0357 C   0  0  1  0  0  0
  -20.5870  -28.3661   23.1346 C   0  0  2  0  0  0
  -20.6773  -26.9411   22.5431 C   0  0  0  0  0  0
  -19.5740  -26.6403   21.5234 C   0  0  0  0  0  0
  -18.1920  -26.7939   22.1643 C   0  0  0  0  0  0
  -19.1533  -28.8837   23.2931 C   0  0  0  0  0  0
  -18.9451  -30.1441   23.8943 C   0  0  0  0  0  0
  -17.6452  -30.6580   24.0590 C   0  0  0  0  0  0
  -25.9011  -34.9484   23.5156 C   0  0  0  0  0  0
  -16.5350  -29.9086   23.6333 C   0  0  0  0  0  0
  -16.7270  -28.6495   23.0374 C   0  0  0  0  0  0
  -26.4475  -31.6610   25.0751 C   0  0  0  0  0  0
  -25.3737  -31.3776   26.1514 C   0  0  0  0  0  0
  -27.0317  -30.3048   24.6155 C   0  0  0  0  0  0
  -27.6082  -32.4343   25.7456 C   0  0  0  0  0  0
  -27.5596  -37.1792   24.8458 C   0  0  0  0  0  0
  -21.4149  -29.3029   22.3759 N   0  0  0  0  0  0
  -26.4294  -37.3806   23.9427 N   0  0  0  0  0  0
  -24.6673  -31.0791   22.1018 N   0  0  0  0  0  0
  -23.4178  -28.8253   23.3148 O   0  0  0  0  0  0
  -28.4675  -26.7969   20.0321 O   0  0  0  0  0  0
  -26.5585  -34.8951   22.4730 O   0  0  0  0  0  0
  -23.5320  -32.1502   23.7448 O   0  0  0  0  0  0
  -29.4695  -18.0688   20.2659 C   0  0  0  0  0  0
  -30.5944  -18.1360   17.7171 C   0  0  0  0  0  0
  -29.4573  -19.2984   19.5392 C   0  0  0  0  0  0
  -30.0380  -19.3153   18.2373 C   0  0  0  0  0  0
  -30.0227  -16.8638   19.7365 C   0  0  0  0  0  0
  -30.5823  -16.9243   18.4216 C   0  0  0  0  0  0
  -28.3692  -23.0092   19.5065 C   0  0  0  0  0  0
  -27.3626  -22.8273   18.6263 C   0  0  0  0  0  0
  -30.1247  -23.0824   21.8291 C   0  0  0  0  0  0
  -29.7788  -24.4328   21.2287 C   0  0  0  0  0  0
  -30.5021  -22.1483   20.6846 C   0  0  0  0  0  0
  -28.5939  -24.3578   20.2442 C   0  0  1  0  0  0
  -30.0674  -20.5328   17.3214 C   0  0  0  0  0  0
  -28.7209  -20.5270   20.1355 C   0  0  0  0  0  0
  -28.6426  -25.5824   19.2898 C   0  0  0  0  0  0
  -29.8834  -15.6391   20.4930 N   0  0  0  0  0  0
  -29.3330  -21.8601   19.8201 N   0  3  1  0  0  0
  -31.1836  -15.5703   17.5292 Cl  0  0  0  0  0  0
  -31.4693  -12.4373   19.1241 H   0  0  0  0  0  0
  -30.3599  -11.3330   19.8895 H   0  0  0  0  0  0
  -29.7241  -11.6503   17.4971 H   0  0  0  0  0  0
  -29.6475  -13.3778   17.6894 H   0  0  0  0  0  0
  -27.8164  -11.2776   18.8642 H   0  0  0  0  0  0
  -27.3711  -12.5758   17.7978 H   0  0  0  0  0  0
  -27.6776  -14.2381   19.5002 H   0  0  0  0  0  0
  -28.6867  -12.0515   21.3873 H   0  0  0  0  0  0
  -28.4744  -13.7257   21.8169 H   0  0  0  0  0  0
  -25.2679   -9.5690   22.4740 H   0  0  0  0  0  0
  -23.9954   -7.4618   22.7453 H   0  0  0  0  0  0
  -21.0767   -8.8744   19.8957 H   0  0  0  0  0  0
  -22.3602  -10.9652   19.6188 H   0  0  0  0  0  0
  -21.2031   -7.6104   23.9677 H   0  0  0  0  0  0
  -21.1485   -6.0503   25.9040 H   0  0  0  0  0  0
  -22.0609   -2.7588   23.2868 H   0  0  0  0  0  0
  -22.4025  -11.9975   22.4826 H   0  0  0  0  0  0
  -21.1035  -13.1386   22.2593 H   0  0  0  0  0  0
  -24.6683  -15.8501   20.5134 H   0  0  0  0  0  0
  -26.2815  -15.6175   20.0628 H   0  0  0  0  0  0
  -26.7110  -32.5515   23.1185 H   0  0  0  0  0  0
  -25.0119  -33.9797   25.0555 H   0  0  0  0  0  0
  -22.6932  -31.3072   21.4131 H   0  0  0  0  0  0
  -23.3770  -35.9608   23.3266 H   0  0  0  0  0  0
  -24.3607  -36.8957   22.2067 H   0  0  0  0  0  0
  -23.7159  -37.6484   23.6663 H   0  0  0  0  0  0
  -26.0445  -31.5880   20.5948 H   0  0  0  0  0  0
  -26.8156  -30.8826   21.9883 H   0  0  0  0  0  0
  -28.0956  -29.1120   21.1553 H   0  0  0  0  0  0
  -26.0277  -25.9692   19.0166 H   0  0  0  0  0  0
  -23.9746  -27.2812   19.0575 H   0  0  0  0  0  0
  -23.6974  -30.5784   19.4017 H   0  0  0  0  0  0
  -22.7326  -29.2184   19.8921 H   0  0  0  0  0  0
  -25.1240  -36.2047   25.0845 H   0  0  0  0  0  0
  -20.9952  -28.3224   24.1471 H   0  0  0  0  0  0
  -20.5707  -26.2275   23.3613 H   0  0  0  0  0  0
  -21.6639  -26.7476   22.1205 H   0  0  0  0  0  0
  -19.6891  -25.6326   21.1226 H   0  0  0  0  0  0
  -19.6643  -27.3245   20.6789 H   0  0  0  0  0  0
  -17.4198  -26.6740   21.4028 H   0  0  0  0  0  0
  -18.0272  -26.0049   22.8993 H   0  0  0  0  0  0
  -19.7916  -30.7256   24.2330 H   0  0  0  0  0  0
  -17.4995  -31.6257   24.5193 H   0  0  0  0  0  0
  -15.5347  -30.2984   23.7614 H   0  0  0  0  0  0
  -15.8683  -28.0786   22.7096 H   0  0  0  0  0  0
  -24.5785  -30.7283   25.7849 H   0  0  0  0  0  0
  -24.9071  -32.2964   26.5069 H   0  0  0  0  0  0
  -25.8021  -30.8820   27.0225 H   0  0  0  0  0  0
  -26.2873  -29.6778   24.1224 H   0  0  0  0  0  0
  -27.4126  -29.7330   25.4632 H   0  0  0  0  0  0
  -27.8694  -30.4402   23.9308 H   0  0  0  0  0  0
  -27.2743  -33.3647   26.2069 H   0  0  0  0  0  0
  -28.3808  -32.6900   25.0192 H   0  0  0  0  0  0
  -28.0845  -31.8461   26.5310 H   0  0  0  0  0  0
  -28.2593  -38.0116   24.7573 H   0  0  0  0  0  0
  -28.1125  -36.2660   24.6178 H   0  0  0  0  0  0
  -27.2364  -37.1320   25.8878 H   0  0  0  0  0  0
  -20.9337  -29.8710   21.6924 H   0  0  0  0  0  0
  -26.0210  -38.2906   24.1424 H   0  0  0  0  0  0
  -28.9973  -18.0382   21.2400 H   0  0  0  0  0  0
  -31.0058  -18.1338   16.7164 H   0  0  0  0  0  0
  -26.6650  -23.6208   18.4030 H   0  0  0  0  0  0
  -27.1870  -21.8918   18.1180 H   0  0  0  0  0  0
  -29.2814  -22.6891   22.3964 H   0  0  0  0  0  0
  -30.9577  -23.1878   22.5233 H   0  0  0  0  0  0
  -30.6636  -24.8368   20.7325 H   0  0  0  0  0  0
  -29.5435  -25.1420   22.0225 H   0  0  0  0  0  0
  -30.9366  -21.2286   21.0762 H   0  0  0  0  0  0
  -31.2856  -22.6088   20.0792 H   0  0  0  0  0  0
  -27.6907  -24.4750   20.8422 H   0  0  0  0  0  0
  -30.3143  -20.2443   16.2963 H   0  0  0  0  0  0
  -30.8261  -21.2512   17.6388 H   0  0  0  0  0  0
  -29.0980  -21.0225   17.2638 H   0  0  0  0  0  0
  -28.6289  -20.4343   21.2203 H   0  0  0  0  0  0
  -27.6986  -20.4714   19.7629 H   0  0  0  0  0  0
  -27.9679  -25.5048   18.4393 H   0  0  0  0  0  0
  -29.6291  -25.6324   18.8259 H   0  0  0  0  0  0
  -28.9794  -15.4971   20.9191 H   0  0  0  0  0  0
  -29.7710  -21.6437   18.9353 H   0  0  0  0  0  0
  1 25  1  0  0  0
  1 30  2  0  0  0
  1 86  1  0  0  0
  2  3  1  0  0  0
  2 25  1  0  0  0
  2 89  1  0  0  0
  2 90  1  0  0  0
  3  4  1  0  0  0
  3 91  1  0  0  0
  3 92  1  0  0  0
  4  5  1  0  0  0
  4 93  1  0  0  0
  4 94  1  0  0  0
  5  6  1  0  0  0
  5 26  1  0  0  0
  5 95  1  0  0  0
  6 25  1  0  0  0
  6 96  1  0  0  0
  6 97  1  0  0  0
  7  8  2  0  0  0
  7 26  1  0  0  0
  7 29  1  0  0  0
  8  9  1  0  0  0
  8 22  1  0  0  0
  9 10  1  0  0  0
  9 27  2  0  0  0
 10 11  2  0  0  0
 10 15  1  0  0  0
 11 12  1  0  0  0
 11 98  1  0  0  0
 12 13  2  0  0  0
 12 99  1  0  0  0
 13 14  1  0  0  0
 13 31  1  0  0  0
 14 15  2  0  0  0
 14100  1  0  0  0
 15101  1  0  0  0
 16 17  2  0  0  0
 16 21  1  0  0  0
 16 31  1  0  0  0
 17 18  1  0  0  0
 17102  1  0  0  0
 18 19  2  0  0  0
 18103  1  0  0  0
 19 20  1  0  0  0
 19 24  1  0  0  0
 20 21  2  0  0  0
 20104  1  0  0  0
 21 23  1  0  0  0
 22 28  1  0  0  0
 22 32  2  0  0  0
 26 27  1  0  0  0
 28105  1  0  0  0
 28106  1  0  0  0
 29107  1  0  0  0
 29108  1  0  0  0
 33 34  1  0  0  0
 33 66  1  0  0  0
 33 70  2  0  0  0
 34 36  1  0  0  0
 34 59  1  0  0  0
 34109  1  0  0  0
 35 44  2  0  0  0
 35 45  1  0  0  0
 35 68  1  0  0  0
 36 56  1  0  0  0
 36110  1  0  0  0
 37 39  1  0  0  0
 37 47  1  0  0  0
 37 66  1  0  0  0
 37111  1  0  0  0
 38 43  2  0  0  0
 38 46  1  0  0  0
 38 47  1  0  0  0
 39 64  1  0  0  0
 39 67  2  0  0  0
 40 52  1  0  0  0
 40 53  2  0  0  0
 40 58  1  0  0  0
 41112  1  0  0  0
 41113  1  0  0  0
 41114  1  0  0  0
 41 48  1  0  0  0
 42 43  1  0  0  0
 42 66  1  0  0  0
 42115  1  0  0  0
 42116  1  0  0  0
 43 44  1  0  0  0
 44117  1  0  0  0
 45 46  2  0  0  0
 45118  1  0  0  0
 46119  1  0  0  0
 47120  1  0  0  0
 47121  1  0  0  0
 48 56  1  0  0  0
 48 65  1  0  0  0
 48122  1  0  0  0
 49 50  1  0  0  0
 49 53  1  0  0  0
 49 64  1  0  0  0
 49123  1  0  0  0
 50 51  1  0  0  0
 50124  1  0  0  0
 50125  1  0  0  0
 51 52  1  0  0  0
 51126  1  0  0  0
 51127  1  0  0  0
 52128  1  0  0  0
 52129  1  0  0  0
 53 54  1  0  0  0
 54 55  2  0  0  0
 54130  1  0  0  0
 55 57  1  0  0  0
 55131  1  0  0  0
 56 69  2  0  0  0
 57 58  2  0  0  0
 57132  1  0  0  0
 58133  1  0  0  0
 59 60  1  0  0  0
 59 61  1  0  0  0
 59 62  1  0  0  0
 60134  1  0  0  0
 60135  1  0  0  0
 60136  1  0  0  0
 61137  1  0  0  0
 61138  1  0  0  0
 61139  1  0  0  0
 62140  1  0  0  0
 62141  1  0  0  0
 62142  1  0  0  0
 63 65  1  0  0  0
 63143  1  0  0  0
 63144  1  0  0  0
 63145  1  0  0  0
 64146  1  0  0  0
 65147  1  0  0  0
 68 85  1  0  0  0
 71 73  2  0  0  0
 71 75  1  0  0  0
 71148  1  0  0  0
 72 74  2  0  0  0
 72 76  1  0  0  0
 72149  1  0  0  0
 73 74  1  0  0  0
 73 84  1  0  0  0
 74 83  1  0  0  0
 75 76  2  0  0  0
 75 86  1  0  0  0
 76 88  1  0  0  0
 77 78  2  0  0  0
 77 82  1  0  0  0
 77 87  1  0  0  0
 78150  1  0  0  0
 78151  1  0  0  0
 79 80  1  0  0  0
 79 81  1  0  0  0
 79152  1  0  0  0
 79153  1  0  0  0
 80 82  1  0  0  0
 80154  1  0  0  0
 80155  1  0  0  0
 81 87  1  0  0  0
 81156  1  0  0  0
 81157  1  0  0  0
 82 85  1  0  0  0
 82158  1  0  0  0
 83159  1  0  0  0
 83160  1  0  0  0
 83161  1  0  0  0
 84162  1  0  0  0
 84163  1  0  0  0
 84 87  1  0  0  0
 85164  1  0  0  0
 85165  1  0  0  0
 86166  1  0  0  0
 87167  1  0  0  0
M  CHG  1  87   1
M  ISO  4   1 100  68 101  85 101  86 100
M  END
> <chiral flag>
0

> <version>
0

> <s_m_source_file>
/data/baiqing/PycharmProjects/Reinvent-master-3.2/result/LINK_invent/BTK/process_docking_weight1_custom_product_contain_oxygen_bond_distance_aromatic_linkinvent_7_9_3/rearranged_h_0046.sdf

> <i_m_source_file_index>
56

> <r_mmod_Potential_Energy-OPLS-2005>
-48.405460357666

> <r_mmod_Stretch_Energy-OPLS-2005>
51.2897529602051

> <r_mmod_Bend_Energy-OPLS-2005>
143.504760742188

> <r_mmod_Torsional_Energy-OPLS-2005>
261.263519287109

> <r_mmod_Improper_Torsional_Energy-OPLS-2005>
7.79288387298584

> <r_mmod_Van_der_Waal_Energy-OPLS-2005>
169.878448486328

> <r_mmod_Electrostatic_Energy-OPLS-2005>
-250.704254150391

> <r_mmod_Solvation_Energy-OPLS-2005>
-458.297210693359

> <b_mmod_Minimization_Converged-OPLS-2005>
0

> <r_mmod_RMS_Derivative-OPLS-2005>
5.00990295410156

$$$$
56
                    3D
 Structure written by MMmdl.
171180  0  0  1  0            999 V2000
  -30.7584  -14.4413   20.5956 C   0  0  0  0  0  0
  -30.3972  -12.2837   19.4607 C   0  0  0  0  0  0
  -29.4937  -12.4927   18.2306 C   0  0  0  0  0  0
  -28.0175  -12.3439   18.6428 C   0  0  0  0  0  0
  -27.6558  -13.2148   19.8757 C   0  0  2  0  0  0
  -28.6880  -13.0471   21.0147 C   0  0  0  0  0  0
  -25.2533  -13.8188   20.5657 C   0  0  0  0  0  0
  -24.1777  -13.0424   20.9129 C   0  0  0  0  0  0
  -24.6367  -11.6910   20.8727 C   0  0  0  0  0  0
  -23.9054  -10.4282   21.0391 C   0  0  0  0  0  0
  -24.3615   -9.4224   21.9189 C   0  0  0  0  0  0
  -23.6300   -8.2256   22.0766 C   0  0  0  0  0  0
  -22.4284   -8.0280   21.3542 C   0  0  0  0  0  0
  -21.9900   -9.0243   20.4644 C   0  0  0  0  0  0
  -22.7223  -10.2125   20.3059 C   0  0  0  0  0  0
  -21.6851   -6.0745   22.5269 C   0  0  0  0  0  0
  -21.4009   -6.5649   23.8216 C   0  0  0  0  0  0
  -21.3690   -5.6806   24.9170 C   0  0  0  0  0  0
  -21.6036   -4.3057   24.7201 C   0  0  0  0  0  0
  -21.8826   -3.8164   23.4329 C   0  0  0  0  0  0
  -21.9178   -4.6985   22.3384 C   0  0  0  0  0  0
  -22.7802  -13.5207   21.1820 C   0  0  0  0  0  0
  -22.1657   -4.2168   21.0966 F   0  0  0  0  0  0
  -21.5623   -3.4545   25.7720 F   0  0  0  0  0  0
  -30.0289  -13.3007   20.4638 N   0  0  0  0  0  0
  -26.2985  -12.9365   20.3381 N   0  0  0  0  0  0
  -25.9301  -11.6516   20.5800 N   0  0  0  0  0  0
  -22.0479  -12.8184   22.0404 N   0  0  0  0  0  0
  -25.4212  -15.1870   20.4065 N   0  0  0  0  0  0
  -31.8592  -14.5814   20.0530 O   0  0  0  0  0  0
  -21.6643   -6.8873   21.4232 O   0  0  0  0  0  0
  -22.3503  -14.5557   20.6773 O   0  0  0  0  0  0
  -24.6204  -31.8692   23.2116 C   0  0  0  0  0  0
  -25.9049  -32.4857   23.8421 C   0  0  1  0  0  0
  -27.2070  -27.3961   20.0847 C   0  0  0  0  0  0
  -25.5875  -33.8646   24.2370 N   0  0  0  0  0  0
  -23.4115  -30.5015   21.5588 C   0  0  2  0  0  0
  -24.8472  -28.9777   20.1177 C   0  0  0  0  0  0
  -22.7522  -29.4660   22.5019 C   0  0  0  0  0  0
  -18.0368  -28.1251   22.8675 C   0  0  0  0  0  0
  -24.1485  -36.7300   23.2651 C   0  0  0  0  0  0
  -25.9508  -30.8262   21.3712 C   0  0  0  0  0  0
  -26.0201  -29.4630   20.7102 C   0  0  0  0  0  0
  -27.2075  -28.6836   20.6829 C   0  0  0  0  0  0
  -26.0059  -26.9564   19.4729 C   0  0  0  0  0  0
  -24.8357  -27.7216   19.5032 C   0  0  0  0  0  0
  -23.6169  -29.8466   20.1693 C   0  0  0  0  0  0
  -25.4112  -36.3146   24.0363 C   0  0  1  0  0  0
  -20.5956  -28.3719   23.1489 C   0  0  2  0  0  0
  -20.6922  -26.9484   22.5505 C   0  0  0  0  0  0
  -19.5823  -26.6501   21.5374 C   0  0  0  0  0  0
  -18.2167  -26.7670   22.2166 C   0  0  0  0  0  0
  -19.1557  -28.8819   23.3071 C   0  0  0  0  0  0
  -18.9362  -30.1431   23.8996 C   0  0  0  0  0  0
  -17.6333  -30.6545   24.0476 C   0  0  0  0  0  0
  -25.9042  -34.9499   23.5171 C   0  0  0  0  0  0
  -16.5306  -29.8970   23.6160 C   0  0  0  0  0  0
  -16.7324  -28.6346   23.0329 C   0  0  0  0  0  0
  -26.4447  -31.6627   25.0761 C   0  0  0  0  0  0
  -25.3686  -31.3685   26.1483 C   0  0  0  0  0  0
  -27.0279  -30.3080   24.6158 C   0  0  0  0  0  0
  -27.6067  -32.4324   25.7490 C   0  0  0  0  0  0
  -27.5589  -37.1826   24.8475 C   0  0  0  0  0  0
  -21.4199  -29.3200   22.3969 N   0  0  0  0  0  0
  -26.4306  -37.3820   23.9420 N   0  0  0  0  0  0
  -24.6805  -31.0795   22.1038 N   0  0  0  0  0  0
  -23.4372  -28.8016   23.2855 O   0  0  0  0  0  0
  -28.3351  -26.5792   20.1425 O   0  0  0  0  0  0
  -26.5602  -34.8924   22.4736 O   0  0  0  0  0  0
  -23.5371  -32.1389   23.7485 O   0  0  0  0  0  0
  -30.5912  -18.3383   23.2506 C   0  0  0  0  0  0
  -30.0951  -19.5102   23.8412 C   0  0  0  0  0  0
  -29.2703  -18.7960   21.2586 C   0  0  0  0  0  0
  -30.1931  -17.9745   21.9507 C   0  0  0  0  0  0
  -29.1888  -20.3441   23.1526 C   0  0  0  0  0  0
  -28.7717  -19.9963   21.8372 C   0  0  0  0  0  0
  -28.9497  -22.7778   19.7686 C   0  0  0  0  0  0
  -27.3686  -20.8547   17.6443 C   0  0  0  0  0  0
  -29.2193  -22.1419   18.6055 C   0  0  0  0  0  0
  -28.6353  -20.9149   18.1002 C   0  0  0  0  0  0
  -29.3663  -24.2371   20.0419 C   0  0  0  0  0  0
  -27.2286  -24.6345   21.2386 C   0  0  0  0  0  0
  -26.8578  -23.1537   21.0576 C   0  0  0  0  0  0
  -28.1057  -25.1404   20.0652 C   0  0  1  0  0  0
  -28.6807  -21.5829   23.8724 C   0  0  0  0  0  0
  -30.8827  -16.7895   21.2727 C   0  0  0  0  0  0
  -27.7230  -20.8381   21.0932 C   0  0  0  0  0  0
  -30.2074  -15.4819   21.2523 N   0  0  0  0  0  0
  -28.0585  -22.2912   20.8980 N   0  3  1  0  0  0
  -31.4494  -12.3300   19.1720 H   0  0  0  0  0  0
  -30.2483  -11.2845   19.8735 H   0  0  0  0  0  0
  -29.7395  -11.7721   17.4498 H   0  0  0  0  0  0
  -29.6620  -13.4833   17.8054 H   0  0  0  0  0  0
  -27.8527  -11.2925   18.8851 H   0  0  0  0  0  0
  -27.3554  -12.5708   17.8050 H   0  0  0  0  0  0
  -27.6832  -14.2538   19.5475 H   0  0  0  0  0  0
  -28.6443  -12.0425   21.4350 H   0  0  0  0  0  0
  -28.4487  -13.7208   21.8376 H   0  0  0  0  0  0
  -25.2761   -9.5725   22.4766 H   0  0  0  0  0  0
  -24.0028   -7.4652   22.7484 H   0  0  0  0  0  0
  -21.0838   -8.8754   19.8929 H   0  0  0  0  0  0
  -22.3681  -10.9668   19.6185 H   0  0  0  0  0  0
  -21.2022   -7.6157   23.9728 H   0  0  0  0  0  0
  -21.1507   -6.0521   25.9080 H   0  0  0  0  0  0
  -22.0584   -2.7619   23.2803 H   0  0  0  0  0  0
  -22.4133  -11.9840   22.4758 H   0  0  0  0  0  0
  -21.1135  -13.1257   22.2702 H   0  0  0  0  0  0
  -24.6604  -15.8432   20.5396 H   0  0  0  0  0  0
  -26.2832  -15.6354   20.1194 H   0  0  0  0  0  0
  -26.7157  -32.5594   23.1220 H   0  0  0  0  0  0
  -25.0050  -33.9809   25.0532 H   0  0  0  0  0  0
  -22.6969  -31.3155   21.4210 H   0  0  0  0  0  0
  -23.3770  -35.9610   23.3361 H   0  0  0  0  0  0
  -24.3569  -36.8859   22.2055 H   0  0  0  0  0  0
  -23.7188  -37.6512   23.6610 H   0  0  0  0  0  0
  -26.0766  -31.5988   20.6104 H   0  0  0  0  0  0
  -26.8312  -30.8695   22.0000 H   0  0  0  0  0  0
  -28.1099  -29.0443   21.1552 H   0  0  0  0  0  0
  -25.8974  -26.0001   18.9907 H   0  0  0  0  0  0
  -23.9285  -27.3240   19.0696 H   0  0  0  0  0  0
  -23.7277  -30.6178   19.4028 H   0  0  0  0  0  0
  -22.7383  -29.2647   19.8838 H   0  0  0  0  0  0
  -25.1291  -36.2071   25.0859 H   0  0  0  0  0  0
  -21.0032  -28.3242   24.1642 H   0  0  0  0  0  0
  -21.6801  -26.7629   22.1263 H   0  0  0  0  0  0
  -20.5919  -26.2314   23.3696 H   0  0  0  0  0  0
  -19.6452  -27.3561   20.7093 H   0  0  0  0  0  0
  -19.7013  -25.6546   21.1146 H   0  0  0  0  0  0
  -17.4177  -26.5776   21.5005 H   0  0  0  0  0  0
  -18.1300  -26.0079   22.9949 H   0  0  0  0  0  0
  -19.7775  -30.7311   24.2421 H   0  0  0  0  0  0
  -17.4807  -31.6240   24.4978 H   0  0  0  0  0  0
  -15.5258  -30.2813   23.7285 H   0  0  0  0  0  0
  -15.8801  -28.0569   22.6970 H   0  0  0  0  0  0
  -24.5921  -30.6992   25.7755 H   0  0  0  0  0  0
  -24.8763  -32.2798   26.4911 H   0  0  0  0  0  0
  -25.7993  -30.8852   27.0265 H   0  0  0  0  0  0
  -26.2841  -29.6875   24.1167 H   0  0  0  0  0  0
  -27.3996  -29.7319   25.4633 H   0  0  0  0  0  0
  -27.8690  -30.4419   23.9357 H   0  0  0  0  0  0
  -27.2779  -33.3662   26.2058 H   0  0  0  0  0  0
  -28.3837  -32.6819   25.0253 H   0  0  0  0  0  0
  -28.0769  -31.8438   26.5387 H   0  0  0  0  0  0
  -28.2656  -38.0087   24.7531 H   0  0  0  0  0  0
  -28.1049  -36.2627   24.6323 H   0  0  0  0  0  0
  -27.2291  -37.1498   25.8873 H   0  0  0  0  0  0
  -20.9209  -29.9349   21.7705 H   0  0  0  0  0  0
  -26.0235  -38.2928   24.1376 H   0  0  0  0  0  0
  -31.3151  -17.7500   23.8028 H   0  0  0  0  0  0
  -30.4265  -19.7640   24.8414 H   0  0  0  0  0  0
  -28.9438  -18.5030   20.2703 H   0  0  0  0  0  0
  -26.9549  -19.9308   17.2589 H   0  0  0  0  0  0
  -26.7228  -21.7251   17.6385 H   0  0  0  0  0  0
  -29.8496  -22.6680   17.9043 H   0  0  0  0  0  0
  -29.2389  -20.0148   18.0893 H   0  0  0  0  0  0
  -30.0604  -24.5739   19.2729 H   0  0  0  0  0  0
  -29.9129  -24.3073   20.9814 H   0  0  0  0  0  0
  -27.7682  -24.7763   22.1768 H   0  0  0  0  0  0
  -26.2994  -25.1934   21.3462 H   0  0  0  0  0  0
  -26.2079  -23.0219   20.1911 H   0  0  0  0  0  0
  -26.2823  -22.8567   21.9374 H   0  0  0  0  0  0
  -27.6234  -24.9274   19.1136 H   0  0  0  0  0  0
  -28.8818  -21.5219   24.9422 H   0  0  0  0  0  0
  -27.5998  -21.7010   23.7774 H   0  0  0  0  0  0
  -29.1822  -22.4783   23.5021 H   0  0  0  0  0  0
  -31.8481  -16.6543   21.7655 H   0  0  0  0  0  0
  -31.1196  -17.0797   20.2479 H   0  0  0  0  0  0
  -26.8495  -20.7764   21.7420 H   0  0  0  0  0  0
  -27.3737  -20.3458   20.1946 H   0  0  0  0  0  0
  -29.3038  -15.3780   21.6847 H   0  0  0  0  0  0
  -28.5859  -22.4515   21.7414 H   0  0  0  0  0  0
  1 25  1  0  0  0
  1 30  2  0  0  0
  1 88  1  0  0  0
  2  3  1  0  0  0
  2 25  1  0  0  0
  2 90  1  0  0  0
  2 91  1  0  0  0
  3  4  1  0  0  0
  3 92  1  0  0  0
  3 93  1  0  0  0
  4  5  1  0  0  0
  4 94  1  0  0  0
  4 95  1  0  0  0
  5  6  1  0  0  0
  5 26  1  0  0  0
  5 96  1  0  0  0
  6 25  1  0  0  0
  6 97  1  0  0  0
  6 98  1  0  0  0
  7  8  2  0  0  0
  7 26  1  0  0  0
  7 29  1  0  0  0
  8  9  1  0  0  0
  8 22  1  0  0  0
  9 10  1  0  0  0
  9 27  2  0  0  0
 10 11  2  0  0  0
 10 15  1  0  0  0
 11 12  1  0  0  0
 11 99  1  0  0  0
 12 13  2  0  0  0
 12100  1  0  0  0
 13 14  1  0  0  0
 13 31  1  0  0  0
 14 15  2  0  0  0
 14101  1  0  0  0
 15102  1  0  0  0
 16 17  2  0  0  0
 16 21  1  0  0  0
 16 31  1  0  0  0
 17 18  1  0  0  0
 17103  1  0  0  0
 18 19  2  0  0  0
 18104  1  0  0  0
 19 20  1  0  0  0
 19 24  1  0  0  0
 20 21  2  0  0  0
 20105  1  0  0  0
 21 23  1  0  0  0
 22 28  1  0  0  0
 22 32  2  0  0  0
 26 27  1  0  0  0
 28106  1  0  0  0
 28107  1  0  0  0
 29108  1  0  0  0
 29109  1  0  0  0
 33 34  1  0  0  0
 33 66  1  0  0  0
 33 70  2  0  0  0
 34 36  1  0  0  0
 34 59  1  0  0  0
 34110  1  0  0  0
 35 44  2  0  0  0
 35 45  1  0  0  0
 35 68  1  0  0  0
 36 56  1  0  0  0
 36111  1  0  0  0
 37 39  1  0  0  0
 37 47  1  0  0  0
 37 66  1  0  0  0
 37112  1  0  0  0
 38 43  2  0  0  0
 38 46  1  0  0  0
 38 47  1  0  0  0
 39 64  1  0  0  0
 39 67  2  0  0  0
 40 52  1  0  0  0
 40 53  2  0  0  0
 40 58  1  0  0  0
 41113  1  0  0  0
 41114  1  0  0  0
 41115  1  0  0  0
 41 48  1  0  0  0
 42 43  1  0  0  0
 42 66  1  0  0  0
 42116  1  0  0  0
 42117  1  0  0  0
 43 44  1  0  0  0
 44118  1  0  0  0
 45 46  2  0  0  0
 45119  1  0  0  0
 46120  1  0  0  0
 47121  1  0  0  0
 47122  1  0  0  0
 48 56  1  0  0  0
 48 65  1  0  0  0
 48123  1  0  0  0
 49 50  1  0  0  0
 49 53  1  0  0  0
 49 64  1  0  0  0
 49124  1  0  0  0
 50 51  1  0  0  0
 50125  1  0  0  0
 50126  1  0  0  0
 51 52  1  0  0  0
 51127  1  0  0  0
 51128  1  0  0  0
 52129  1  0  0  0
 52130  1  0  0  0
 53 54  1  0  0  0
 54 55  2  0  0  0
 54131  1  0  0  0
 55 57  1  0  0  0
 55132  1  0  0  0
 56 69  2  0  0  0
 57 58  2  0  0  0
 57133  1  0  0  0
 58134  1  0  0  0
 59 60  1  0  0  0
 59 61  1  0  0  0
 59 62  1  0  0  0
 60135  1  0  0  0
 60136  1  0  0  0
 60137  1  0  0  0
 61138  1  0  0  0
 61139  1  0  0  0
 61140  1  0  0  0
 62141  1  0  0  0
 62142  1  0  0  0
 62143  1  0  0  0
 63 65  1  0  0  0
 63144  1  0  0  0
 63145  1  0  0  0
 63146  1  0  0  0
 64147  1  0  0  0
 65148  1  0  0  0
 68 84  1  0  0  0
 71 72  2  0  0  0
 71 74  1  0  0  0
 71149  1  0  0  0
 72 75  1  0  0  0
 72150  1  0  0  0
 73 74  2  0  0  0
 73 76  1  0  0  0
 73151  1  0  0  0
 74 86  1  0  0  0
 75 76  2  0  0  0
 75 85  1  0  0  0
 76 87  1  0  0  0
 77 79  2  0  0  0
 77 81  1  0  0  0
 77 89  1  0  0  0
 78 80  2  0  0  0
 78152  1  0  0  0
 78153  1  0  0  0
 79 80  1  0  0  0
 79154  1  0  0  0
 80155  1  0  0  0
 81 84  1  0  0  0
 81156  1  0  0  0
 81157  1  0  0  0
 82 83  1  0  0  0
 82 84  1  0  0  0
 82158  1  0  0  0
 82159  1  0  0  0
 83 89  1  0  0  0
 83160  1  0  0  0
 83161  1  0  0  0
 84162  1  0  0  0
 85163  1  0  0  0
 85164  1  0  0  0
 85165  1  0  0  0
 86 88  1  0  0  0
 86166  1  0  0  0
 86167  1  0  0  0
 87168  1  0  0  0
 87169  1  0  0  0
 87 89  1  0  0  0
 88170  1  0  0  0
 89171  1  0  0  0
M  CHG  1  89   1
M  ISO  4   1 100  68 101  84 101  88 100
M  END
> <chiral flag>
0

> <version>
0

> <s_m_source_file>
/data/baiqing/PycharmProjects/Reinvent-master-3.2/result/LINK_invent/BTK/process_docking_weight1_custom_product_contain_oxygen_bond_distance_aromatic_linkinvent_7_9_3/rearranged_h_0046.sdf

> <i_m_source_file_index>
57

> <r_mmod_Potential_Energy-OPLS-2005>
-131.377029418945

> <r_mmod_Stretch_Energy-OPLS-2005>
48.765022277832

> <r_mmod_Bend_Energy-OPLS-2005>
140.098434448242

> <r_mmod_Torsional_Energy-OPLS-2005>
236.799362182617

> <r_mmod_Improper_Torsional_Energy-OPLS-2005>
3.55054903030396

> <r_mmod_Van_der_Waal_Energy-OPLS-2005>
172.938552856445

> <r_mmod_Electrostatic_Energy-OPLS-2005>
-330.128723144531

> <r_mmod_Solvation_Energy-OPLS-2005>
-424.740966796875

> <b_mmod_Minimization_Converged-OPLS-2005>
0

> <r_mmod_RMS_Derivative-OPLS-2005>
7.20869064331055

$$$$
57
                    3D
 Structure written by MMmdl.
164173  0  0  1  0            999 V2000
  -30.6175  -14.7642   20.3751 C   0  0  0  0  0  0
  -30.4344  -12.4384   19.4689 C   0  0  0  0  0  0
  -29.5153  -12.4007   18.2283 C   0  0  0  0  0  0
  -28.0297  -12.3012   18.6406 C   0  0  0  0  0  0
  -27.6353  -13.2216   19.8310 C   0  0  2  0  0  0
  -28.6900  -13.2007   20.9542 C   0  0  0  0  0  0
  -25.2561  -13.8179   20.5698 C   0  0  0  0  0  0
  -24.1823  -13.0436   20.9164 C   0  0  0  0  0  0
  -24.6393  -11.6911   20.8725 C   0  0  0  0  0  0
  -23.9070  -10.4296   21.0393 C   0  0  0  0  0  0
  -24.3631   -9.4225   21.9183 C   0  0  0  0  0  0
  -23.6318   -8.2256   22.0748 C   0  0  0  0  0  0
  -22.4301   -8.0281   21.3532 C   0  0  0  0  0  0
  -21.9928   -9.0254   20.4641 C   0  0  0  0  0  0
  -22.7243  -10.2144   20.3047 C   0  0  0  0  0  0
  -21.6864   -6.0743   22.5283 C   0  0  0  0  0  0
  -21.4024   -6.5650   23.8220 C   0  0  0  0  0  0
  -21.3651   -5.6806   24.9176 C   0  0  0  0  0  0
  -21.6040   -4.3065   24.7231 C   0  0  0  0  0  0
  -21.8825   -3.8148   23.4360 C   0  0  0  0  0  0
  -21.9203   -4.6968   22.3411 C   0  0  0  0  0  0
  -22.7844  -13.5244   21.1855 C   0  0  0  0  0  0
  -22.1664   -4.2141   21.0994 F   0  0  0  0  0  0
  -21.5631   -3.4557   25.7750 F   0  0  0  0  0  0
  -29.9755  -13.5438   20.3375 N   0  0  0  0  0  0
  -26.2950  -12.9337   20.3270 N   0  0  0  0  0  0
  -25.9331  -11.6500   20.5783 N   0  0  0  0  0  0
  -22.0503  -12.8202   22.0405 N   0  0  0  0  0  0
  -25.4349  -15.1896   20.4206 N   0  0  0  0  0  0
  -31.8447  -14.8024   20.2529 O   0  0  0  0  0  0
  -21.6663   -6.8878   21.4235 O   0  0  0  0  0  0
  -22.3524  -14.5557   20.6727 O   0  0  0  0  0  0
  -24.6290  -31.8556   23.1991 C   0  0  0  0  0  0
  -25.9125  -32.4762   23.8344 C   0  0  1  0  0  0
  -27.2394  -27.2827   20.1430 C   0  0  0  0  0  0
  -25.5927  -33.8556   24.2277 N   0  0  0  0  0  0
  -23.4262  -30.4739   21.5409 C   0  0  2  0  0  0
  -24.8811  -28.9138   20.1219 C   0  0  0  0  0  0
  -22.7482  -29.4616   22.4938 C   0  0  0  0  0  0
  -18.0313  -28.1389   22.8496 C   0  0  0  0  0  0
  -24.1495  -36.7263   23.2640 C   0  0  0  0  0  0
  -25.9703  -30.7782   21.3760 C   0  0  0  0  0  0
  -26.0505  -29.3988   20.7234 C   0  0  0  0  0  0
  -27.2358  -28.5978   20.7145 C   0  0  0  0  0  0
  -26.0486  -26.8510   19.5253 C   0  0  0  0  0  0
  -24.8837  -27.6469   19.5127 C   0  0  0  0  0  0
  -23.6454  -29.7928   20.1637 C   0  0  0  0  0  0
  -25.4128  -36.3068   24.0331 C   0  0  1  0  0  0
  -20.5908  -28.3712   23.1307 C   0  0  2  0  0  0
  -20.6822  -26.9429   22.5454 C   0  0  0  0  0  0
  -19.5812  -26.6405   21.5245 C   0  0  0  0  0  0
  -18.1984  -26.7932   22.1645 C   0  0  0  0  0  0
  -19.1552  -28.8873   23.2881 C   0  0  0  0  0  0
  -18.9464  -30.1476   23.8887 C   0  0  0  0  0  0
  -17.6448  -30.6596   24.0557 C   0  0  0  0  0  0
  -25.9060  -34.9436   23.5108 C   0  0  0  0  0  0
  -16.5363  -29.9069   23.6326 C   0  0  0  0  0  0
  -16.7296  -28.6475   23.0367 C   0  0  0  0  0  0
  -26.4505  -31.6580   25.0726 C   0  0  0  0  0  0
  -25.3729  -31.3715   26.1448 C   0  0  0  0  0  0
  -27.0366  -30.3005   24.6207 C   0  0  0  0  0  0
  -27.6069  -32.4305   25.7496 C   0  0  0  0  0  0
  -27.5589  -37.1786   24.8468 C   0  0  0  0  0  0
  -21.4193  -29.3050   22.3667 N   0  0  0  0  0  0
  -26.4308  -37.3762   23.9396 N   0  0  0  0  0  0
  -24.6933  -31.0538   22.0950 N   0  0  0  0  0  0
  -23.4181  -28.8181   23.3066 O   0  0  0  0  0  0
  -28.3582  -26.4273   20.1056 O   0  0  0  0  0  0
  -26.5615  -34.8895   22.4671 O   0  0  0  0  0  0
  -23.5441  -32.1370   23.7291 O   0  0  0  0  0  0
  -28.3894  -18.0906   22.6379 C   0  0  0  0  0  0
  -28.4565  -19.3934   22.1140 C   0  0  0  0  0  0
  -28.9551  -16.9934   21.9718 C   0  0  0  0  0  0
  -29.1729  -19.7073   20.9320 C   0  0  0  0  0  0
  -29.7765  -18.5438   20.2697 C   0  0  0  0  0  0
  -29.6149  -17.1551   20.7404 C   0  0  0  0  0  0
  -28.7929  -23.7732   20.2183 C   0  0  0  0  0  0
  -27.7174  -23.8619   22.9204 C   0  0  0  0  0  0
  -27.3135  -24.9754   21.9523 C   0  0  0  0  0  0
  -28.0536  -22.5203   22.2277 C   0  0  0  0  0  0
  -28.4323  -25.1696   20.9271 C   0  0  2  0  0  0
  -30.6411  -18.8225   19.0459 C   0  0  0  0  0  0
  -29.6694  -15.9788   18.5333 C   0  0  0  0  0  0
  -29.3026  -21.2241   20.3601 C   0  0  0  0  0  0
  -28.7228  -22.5578   20.9123 N   0  0  0  0  0  0
  -29.8891  -15.8971   19.9861 N   0  0  0  0  0  0
  -29.2049  -23.8116   19.0539 O   0  0  0  0  0  0
  -31.4762  -12.5553   19.1661 H   0  0  0  0  0  0
  -30.3782  -11.4889   20.0042 H   0  0  0  0  0  0
  -29.7730  -11.5377   17.6126 H   0  0  0  0  0  0
  -29.6953  -13.2558   17.5818 H   0  0  0  0  0  0
  -27.8555  -11.2606   18.9134 H   0  0  0  0  0  0
  -27.3822  -12.4910   17.7842 H   0  0  0  0  0  0
  -27.6002  -14.2326   19.4353 H   0  0  0  0  0  0
  -28.7346  -12.2224   21.4339 H   0  0  0  0  0  0
  -28.4330  -13.9173   21.7334 H   0  0  0  0  0  0
  -25.2783   -9.5709   22.4750 H   0  0  0  0  0  0
  -24.0030   -7.4657   22.7471 H   0  0  0  0  0  0
  -21.0860   -8.8772   19.8961 H   0  0  0  0  0  0
  -22.3702  -10.9672   19.6151 H   0  0  0  0  0  0
  -21.2019   -7.6162   23.9721 H   0  0  0  0  0  0
  -21.1457   -6.0533   25.9081 H   0  0  0  0  0  0
  -22.0610   -2.7607   23.2870 H   0  0  0  0  0  0
  -22.4148  -11.9864   22.4747 H   0  0  0  0  0  0
  -21.1113  -13.1179   22.2662 H   0  0  0  0  0  0
  -24.6852  -15.8576   20.5552 H   0  0  0  0  0  0
  -26.3197  -15.6285   20.1946 H   0  0  0  0  0  0
  -26.7197  -32.5427   23.1091 H   0  0  0  0  0  0
  -25.0083  -33.9705   25.0429 H   0  0  0  0  0  0
  -22.7238  -31.2945   21.3867 H   0  0  0  0  0  0
  -23.3774  -35.9578   23.3309 H   0  0  0  0  0  0
  -24.3582  -36.8879   22.2053 H   0  0  0  0  0  0
  -23.7239  -37.6460   23.6656 H   0  0  0  0  0  0
  -26.1075  -31.5421   20.6092 H   0  0  0  0  0  0
  -26.8468  -30.8275   22.0101 H   0  0  0  0  0  0
  -28.1411  -28.9747   21.1690 H   0  0  0  0  0  0
  -26.0178  -25.8751   19.0601 H   0  0  0  0  0  0
  -23.9859  -27.2699   19.0429 H   0  0  0  0  0  0
  -23.7527  -30.5575   19.3940 H   0  0  0  0  0  0
  -22.7700  -29.2083   19.8750 H   0  0  0  0  0  0
  -25.1319  -36.1926   25.0826 H   0  0  0  0  0  0
  -20.9994  -28.3306   24.1429 H   0  0  0  0  0  0
  -20.5768  -26.2306   23.3653 H   0  0  0  0  0  0
  -21.6680  -26.7503   22.1211 H   0  0  0  0  0  0
  -19.7008  -25.6330   21.1250 H   0  0  0  0  0  0
  -19.6764  -27.3247   20.6798 H   0  0  0  0  0  0
  -17.4266  -26.6659   21.4037 H   0  0  0  0  0  0
  -18.0414  -26.0090   22.9067 H   0  0  0  0  0  0
  -19.7926  -30.7326   24.2220 H   0  0  0  0  0  0
  -17.4991  -31.6280   24.5152 H   0  0  0  0  0  0
  -15.5359  -30.2950   23.7636 H   0  0  0  0  0  0
  -15.8716  -28.0767   22.7099 H   0  0  0  0  0  0
  -24.5918  -30.7054   25.7769 H   0  0  0  0  0  0
  -24.8898  -32.2874   26.4856 H   0  0  0  0  0  0
  -25.8047  -30.8904   27.0237 H   0  0  0  0  0  0
  -26.2965  -29.6732   24.1229 H   0  0  0  0  0  0
  -27.4068  -29.7281   25.4726 H   0  0  0  0  0  0
  -27.8822  -30.4294   23.9446 H   0  0  0  0  0  0
  -27.2709  -33.3621   26.2055 H   0  0  0  0  0  0
  -28.3889  -32.6841   25.0325 H   0  0  0  0  0  0
  -28.0727  -31.8437   26.5427 H   0  0  0  0  0  0
  -28.2611  -38.0077   24.7516 H   0  0  0  0  0  0
  -28.1081  -36.2611   24.6309 H   0  0  0  0  0  0
  -27.2282  -37.1439   25.8862 H   0  0  0  0  0  0
  -20.9378  -29.8689   21.6797 H   0  0  0  0  0  0
  -26.0196  -38.2836   24.1390 H   0  0  0  0  0  0
  -27.8452  -17.9215   23.5568 H   0  0  0  0  0  0
  -27.9222  -20.1193   22.6922 H   0  0  0  0  0  0
  -28.8066  -16.0101   22.3905 H   0  0  0  0  0  0
  -26.9217  -23.7014   23.6494 H   0  0  0  0  0  0
  -28.5803  -24.1946   23.5011 H   0  0  0  0  0  0
  -27.1610  -25.8933   22.5216 H   0  0  0  0  0  0
  -26.3747  -24.7402   21.4511 H   0  0  0  0  0  0
  -27.1170  -21.9754   22.0959 H   0  0  0  0  0  0
  -28.6945  -21.9791   22.9236 H   0  0  0  0  0  0
  -29.3292  -25.3603   21.5193 H   0  0  0  0  0  0
  -30.0227  -18.9932   18.1641 H   0  0  0  0  0  0
  -31.2676  -19.7007   19.1937 H   0  0  0  0  0  0
  -31.3297  -18.0057   18.8372 H   0  0  0  0  0  0
  -29.0901  -16.8535   18.2441 H   0  0  0  0  0  0
  -29.0774  -15.1493   18.1710 H   0  0  0  0  0  0
  -30.6090  -15.9796   17.9781 H   0  0  0  0  0  0
  -30.3743  -21.4157   20.3098 H   0  0  0  0  0  0
  -28.9770  -21.1628   19.3215 H   0  0  0  0  0  0
  1 25  1  0  0  0
  1 30  2  0  0  0
  1 86  1  0  0  0
  2  3  1  0  0  0
  2 25  1  0  0  0
  2 88  1  0  0  0
  2 89  1  0  0  0
  3  4  1  0  0  0
  3 90  1  0  0  0
  3 91  1  0  0  0
  4  5  1  0  0  0
  4 92  1  0  0  0
  4 93  1  0  0  0
  5  6  1  0  0  0
  5 26  1  0  0  0
  5 94  1  0  0  0
  6 25  1  0  0  0
  6 95  1  0  0  0
  6 96  1  0  0  0
  7  8  2  0  0  0
  7 26  1  0  0  0
  7 29  1  0  0  0
  8  9  1  0  0  0
  8 22  1  0  0  0
  9 10  1  0  0  0
  9 27  2  0  0  0
 10 11  2  0  0  0
 10 15  1  0  0  0
 11 12  1  0  0  0
 11 97  1  0  0  0
 12 13  2  0  0  0
 12 98  1  0  0  0
 13 14  1  0  0  0
 13 31  1  0  0  0
 14 15  2  0  0  0
 14 99  1  0  0  0
 15100  1  0  0  0
 16 17  2  0  0  0
 16 21  1  0  0  0
 16 31  1  0  0  0
 17 18  1  0  0  0
 17101  1  0  0  0
 18 19  2  0  0  0
 18102  1  0  0  0
 19 20  1  0  0  0
 19 24  1  0  0  0
 20 21  2  0  0  0
 20103  1  0  0  0
 21 23  1  0  0  0
 22 28  1  0  0  0
 22 32  2  0  0  0
 26 27  1  0  0  0
 28104  1  0  0  0
 28105  1  0  0  0
 29106  1  0  0  0
 29107  1  0  0  0
 33 34  1  0  0  0
 33 66  1  0  0  0
 33 70  2  0  0  0
 34 36  1  0  0  0
 34 59  1  0  0  0
 34108  1  0  0  0
 35 44  2  0  0  0
 35 45  1  0  0  0
 35 68  1  0  0  0
 36 56  1  0  0  0
 36109  1  0  0  0
 37 39  1  0  0  0
 37 47  1  0  0  0
 37 66  1  0  0  0
 37110  1  0  0  0
 38 43  2  0  0  0
 38 46  1  0  0  0
 38 47  1  0  0  0
 39 64  1  0  0  0
 39 67  2  0  0  0
 40 52  1  0  0  0
 40 53  2  0  0  0
 40 58  1  0  0  0
 41111  1  0  0  0
 41112  1  0  0  0
 41113  1  0  0  0
 41 48  1  0  0  0
 42 43  1  0  0  0
 42 66  1  0  0  0
 42114  1  0  0  0
 42115  1  0  0  0
 43 44  1  0  0  0
 44116  1  0  0  0
 45 46  2  0  0  0
 45117  1  0  0  0
 46118  1  0  0  0
 47119  1  0  0  0
 47120  1  0  0  0
 48 56  1  0  0  0
 48 65  1  0  0  0
 48121  1  0  0  0
 49 50  1  0  0  0
 49 53  1  0  0  0
 49 64  1  0  0  0
 49122  1  0  0  0
 50 51  1  0  0  0
 50123  1  0  0  0
 50124  1  0  0  0
 51 52  1  0  0  0
 51125  1  0  0  0
 51126  1  0  0  0
 52127  1  0  0  0
 52128  1  0  0  0
 53 54  1  0  0  0
 54 55  2  0  0  0
 54129  1  0  0  0
 55 57  1  0  0  0
 55130  1  0  0  0
 56 69  2  0  0  0
 57 58  2  0  0  0
 57131  1  0  0  0
 58132  1  0  0  0
 59 60  1  0  0  0
 59 61  1  0  0  0
 59 62  1  0  0  0
 60133  1  0  0  0
 60134  1  0  0  0
 60135  1  0  0  0
 61136  1  0  0  0
 61137  1  0  0  0
 61138  1  0  0  0
 62139  1  0  0  0
 62140  1  0  0  0
 62141  1  0  0  0
 63 65  1  0  0  0
 63142  1  0  0  0
 63143  1  0  0  0
 63144  1  0  0  0
 64145  1  0  0  0
 65146  1  0  0  0
 68 81  1  0  0  0
 71 72  2  0  0  0
 71 73  1  0  0  0
 71147  1  0  0  0
 72 74  1  0  0  0
 72148  1  0  0  0
 73 76  2  0  0  0
 73149  1  0  0  0
 74 75  2  0  0  0
 74 84  1  0  0  0
 75 76  1  0  0  0
 75 82  1  0  0  0
 76 86  1  0  0  0
 77 81  1  0  0  0
 77 85  1  0  0  0
 77 87  2  0  0  0
 78 79  1  0  0  0
 78 80  1  0  0  0
 78150  1  0  0  0
 78151  1  0  0  0
 79 81  1  0  0  0
 79152  1  0  0  0
 79153  1  0  0  0
 80 85  1  0  0  0
 80154  1  0  0  0
 80155  1  0  0  0
 81156  1  0  0  0
 82157  1  0  0  0
 82158  1  0  0  0
 82159  1  0  0  0
 83 86  1  0  0  0
 83160  1  0  0  0
 83161  1  0  0  0
 83162  1  0  0  0
 84 85  1  0  0  0
 84163  1  0  0  0
 84164  1  0  0  0
M  ISO  4   1 100  68 101  81 101  86 100
M  END
> <chiral flag>
0

> <version>
0

> <s_m_source_file>
/data/baiqing/PycharmProjects/Reinvent-master-3.2/result/LINK_invent/BTK/process_docking_weight1_custom_product_contain_oxygen_bond_distance_aromatic_linkinvent_7_9_3/rearranged_h_0046.sdf

> <i_m_source_file_index>
58

> <r_mmod_Potential_Energy-OPLS-2005>
499.081359863281

> <r_mmod_Stretch_Energy-OPLS-2005>
150.411544799805

> <r_mmod_Bend_Energy-OPLS-2005>
209.277893066406

> <r_mmod_Torsional_Energy-OPLS-2005>
366.225189208984

> <r_mmod_Improper_Torsional_Energy-OPLS-2005>
20.5131034851074

> <r_mmod_Van_der_Waal_Energy-OPLS-2005>
156.547912597656

> <r_mmod_Electrostatic_Energy-OPLS-2005>
-273.114501953125

> <r_mmod_Solvation_Energy-OPLS-2005>
-221.322265625

> <b_mmod_Minimization_Converged-OPLS-2005>
0

> <r_mmod_RMS_Derivative-OPLS-2005>
2.6136167049408

$$$$
58
                    3D
 Structure written by MMmdl.
167176  0  0  1  0            999 V2000
  -30.6402  -14.6140   20.4794 C   0  0  0  0  0  0
  -30.4424  -12.3751   19.4346 C   0  0  0  0  0  0
  -29.5101  -12.5108   18.2086 C   0  0  0  0  0  0
  -28.0286  -12.3575   18.6186 C   0  0  0  0  0  0
  -27.6528  -13.2126   19.8557 C   0  0  2  0  0  0
  -28.7026  -13.0621   20.9824 C   0  0  0  0  0  0
  -25.2514  -13.8115   20.5693 C   0  0  0  0  0  0
  -24.1774  -13.0397   20.9171 C   0  0  0  0  0  0
  -24.6345  -11.6868   20.8692 C   0  0  0  0  0  0
  -23.9016  -10.4270   21.0374 C   0  0  0  0  0  0
  -24.3584   -9.4203   21.9182 C   0  0  0  0  0  0
  -23.6273   -8.2236   22.0751 C   0  0  0  0  0  0
  -22.4265   -8.0267   21.3543 C   0  0  0  0  0  0
  -21.9873   -9.0237   20.4655 C   0  0  0  0  0  0
  -22.7188  -10.2115   20.3043 C   0  0  0  0  0  0
  -21.6861   -6.0716   22.5273 C   0  0  0  0  0  0
  -21.4009   -6.5625   23.8193 C   0  0  0  0  0  0
  -21.3661   -5.6783   24.9161 C   0  0  0  0  0  0
  -21.6045   -4.3045   24.7210 C   0  0  0  0  0  0
  -21.8832   -3.8135   23.4316 C   0  0  0  0  0  0
  -21.9199   -4.6952   22.3390 C   0  0  0  0  0  0
  -22.7794  -13.5225   21.1842 C   0  0  0  0  0  0
  -22.1686   -4.2153   21.0972 F   0  0  0  0  0  0
  -21.5626   -3.4509   25.7698 F   0  0  0  0  0  0
  -30.0234  -13.3909   20.4169 N   0  0  0  0  0  0
  -26.2969  -12.9329   20.3267 N   0  0  0  0  0  0
  -25.9283  -11.6476   20.5649 N   0  0  0  0  0  0
  -22.0408  -12.8238   22.0399 N   0  0  0  0  0  0
  -25.4107  -15.1817   20.4165 N   0  0  0  0  0  0
  -31.8135  -14.7730   20.1329 O   0  0  0  0  0  0
  -21.6657   -6.8842   21.4223 O   0  0  0  0  0  0
  -22.3453  -14.5503   20.6663 O   0  0  0  0  0  0
  -24.6274  -31.8575   23.2010 C   0  0  0  0  0  0
  -25.9128  -32.4760   23.8340 C   0  0  1  0  0  0
  -27.2433  -27.3274   20.0842 C   0  0  0  0  0  0
  -25.5946  -33.8546   24.2274 N   0  0  0  0  0  0
  -23.4198  -30.4792   21.5451 C   0  0  2  0  0  0
  -24.8683  -28.9323   20.1122 C   0  0  0  0  0  0
  -22.7470  -29.4589   22.4948 C   0  0  0  0  0  0
  -18.0276  -28.1357   22.8479 C   0  0  0  0  0  0
  -24.1499  -36.7274   23.2635 C   0  0  0  0  0  0
  -25.9647  -30.7832   21.3795 C   0  0  0  0  0  0
  -26.0357  -29.4106   20.7189 C   0  0  0  0  0  0
  -27.2184  -28.6140   20.7054 C   0  0  0  0  0  0
  -26.0469  -26.8974   19.4650 C   0  0  0  0  0  0
  -24.8736  -27.6775   19.4840 C   0  0  0  0  0  0
  -23.6335  -29.8081   20.1625 C   0  0  0  0  0  0
  -25.4117  -36.3055   24.0328 C   0  0  1  0  0  0
  -20.5867  -28.3658   23.1293 C   0  0  2  0  0  0
  -20.6755  -26.9384   22.5412 C   0  0  0  0  0  0
  -19.5748  -26.6357   21.5202 C   0  0  0  0  0  0
  -18.1917  -26.7901   22.1598 C   0  0  0  0  0  0
  -19.1522  -28.8829   23.2863 C   0  0  0  0  0  0
  -18.9445  -30.1437   23.8874 C   0  0  0  0  0  0
  -17.6448  -30.6575   24.0527 C   0  0  0  0  0  0
  -25.9063  -34.9437   23.5094 C   0  0  0  0  0  0
  -16.5342  -29.9057   23.6332 C   0  0  0  0  0  0
  -16.7262  -28.6465   23.0361 C   0  0  0  0  0  0
  -26.4513  -31.6585   25.0722 C   0  0  0  0  0  0
  -25.3748  -31.3748   26.1472 C   0  0  0  0  0  0
  -27.0328  -30.2979   24.6236 C   0  0  0  0  0  0
  -27.6086  -32.4304   25.7493 C   0  0  0  0  0  0
  -27.5614  -37.1741   24.8424 C   0  0  0  0  0  0
  -21.4187  -29.3013   22.3699 N   0  0  0  0  0  0
  -26.4263  -37.3792   23.9470 N   0  0  0  0  0  0
  -24.6887  -31.0578   22.0970 N   0  0  0  0  0  0
  -23.4195  -28.8128   23.3017 O   0  0  0  0  0  0
  -28.3919  -26.5164   20.1200 O   0  0  0  0  0  0
  -26.5619  -34.8910   22.4659 O   0  0  0  0  0  0
  -23.5440  -32.1394   23.7327 O   0  0  0  0  0  0
  -29.0308  -19.1838   19.5053 C   0  0  0  0  0  0
  -31.0268  -17.8804   20.9610 C   0  0  0  0  0  0
  -30.0843  -19.9867   20.0064 C   0  0  0  0  0  0
  -29.9699  -17.0867   20.4545 C   0  0  0  0  0  0
  -28.9720  -17.7787   19.7144 C   0  0  0  0  0  0
  -31.0972  -19.2870   20.7300 C   0  0  0  0  0  0
  -30.6323  -23.9509   20.1327 C   0  0  0  0  0  0
  -31.7919  -24.2843   20.7294 C   0  0  0  0  0  0
  -29.9440  -24.8159   19.0616 C   0  0  0  0  0  0
  -27.7191  -23.9706   19.8178 C   0  0  0  0  0  0
  -28.4555  -22.9501   20.7565 C   0  0  0  0  0  0
  -28.4876  -25.2527   19.3579 C   0  0  1  0  0  0
  -33.5100  -24.3347   22.6093 C   0  0  0  0  0  0
  -30.2044  -21.4856   19.5347 C   0  0  0  0  0  0
  -32.5552  -23.4766   21.7642 C   0  0  0  0  0  0
  -29.8146  -15.6658   20.7429 N   0  0  0  0  0  0
  -29.8885  -22.6653   20.4435 N   0  3  1  0  0  0
  -27.6650  -16.9118   18.9982 Cl  0  0  0  0  0  0
  -32.4869  -20.1171   21.3177 Cl  0  0  0  0  0  0
  -31.4839  -12.4973   19.1331 H   0  0  0  0  0  0
  -30.3673  -11.3724   19.8618 H   0  0  0  0  0  0
  -29.7731  -11.7734   17.4488 H   0  0  0  0  0  0
  -29.6588  -13.4878   17.7426 H   0  0  0  0  0  0
  -27.8471  -11.3044   18.8321 H   0  0  0  0  0  0
  -27.3830  -12.6189   17.7774 H   0  0  0  0  0  0
  -27.6708  -14.2474   19.5200 H   0  0  0  0  0  0
  -28.6981  -12.0436   21.3739 H   0  0  0  0  0  0
  -28.4528  -13.7037   21.8286 H   0  0  0  0  0  0
  -25.2749   -9.5740   22.4689 H   0  0  0  0  0  0
  -24.0041   -7.4656   22.7459 H   0  0  0  0  0  0
  -21.0818   -8.8730   19.8981 H   0  0  0  0  0  0
  -22.3651  -10.9622   19.6102 H   0  0  0  0  0  0
  -21.1996   -7.6120   23.9676 H   0  0  0  0  0  0
  -21.1490   -6.0513   25.9062 H   0  0  0  0  0  0
  -22.0613   -2.7597   23.2806 H   0  0  0  0  0  0
  -22.4011  -11.9953   22.4888 H   0  0  0  0  0  0
  -21.1003  -13.1258   22.2534 H   0  0  0  0  0  0
  -24.6166  -15.8073   20.4874 H   0  0  0  0  0  0
  -26.2324  -15.6356   20.0336 H   0  0  0  0  0  0
  -26.7194  -32.5417   23.1085 H   0  0  0  0  0  0
  -25.0099  -33.9692   25.0415 H   0  0  0  0  0  0
  -22.7165  -31.3011   21.4000 H   0  0  0  0  0  0
  -23.3799  -35.9547   23.3151 H   0  0  0  0  0  0
  -24.3664  -36.9055   22.2084 H   0  0  0  0  0  0
  -23.7166  -37.6398   23.6750 H   0  0  0  0  0  0
  -26.1150  -31.5487   20.6155 H   0  0  0  0  0  0
  -26.8374  -30.8199   22.0197 H   0  0  0  0  0  0
  -28.1152  -28.9788   21.1872 H   0  0  0  0  0  0
  -25.9872  -25.9417   18.9694 H   0  0  0  0  0  0
  -23.9765  -27.3009   19.0114 H   0  0  0  0  0  0
  -23.7516  -30.5813   19.4045 H   0  0  0  0  0  0
  -22.7554  -29.2338   19.8587 H   0  0  0  0  0  0
  -25.1262  -36.1882   25.0809 H   0  0  0  0  0  0
  -20.9956  -28.3227   24.1415 H   0  0  0  0  0  0
  -20.5672  -26.2248   23.3594 H   0  0  0  0  0  0
  -21.6624  -26.7418   22.1220 H   0  0  0  0  0  0
  -19.6915  -25.6262   21.1250 H   0  0  0  0  0  0
  -19.6710  -27.3138   20.6702 H   0  0  0  0  0  0
  -17.4195  -26.6648   21.3990 H   0  0  0  0  0  0
  -18.0323  -26.0048   22.9002 H   0  0  0  0  0  0
  -19.7926  -30.7233   24.2266 H   0  0  0  0  0  0
  -17.5008  -31.6277   24.5100 H   0  0  0  0  0  0
  -15.5328  -30.2935   23.7701 H   0  0  0  0  0  0
  -15.8656  -28.0775   22.7107 H   0  0  0  0  0  0
  -24.5824  -30.7227   25.7781 H   0  0  0  0  0  0
  -24.9047  -32.2928   26.4994 H   0  0  0  0  0  0
  -25.8053  -30.8808   27.0194 H   0  0  0  0  0  0
  -26.2882  -29.6737   24.1272 H   0  0  0  0  0  0
  -27.3989  -29.7249   25.4773 H   0  0  0  0  0  0
  -27.8798  -30.4208   23.9474 H   0  0  0  0  0  0
  -27.2720  -33.3605   26.2076 H   0  0  0  0  0  0
  -28.3887  -32.6866   25.0310 H   0  0  0  0  0  0
  -28.0770  -31.8420   26.5402 H   0  0  0  0  0  0
  -28.2446  -38.0210   24.7712 H   0  0  0  0  0  0
  -28.1263  -36.2755   24.5888 H   0  0  0  0  0  0
  -27.2390  -37.0977   25.8821 H   0  0  0  0  0  0
  -20.9367  -29.8744   21.6921 H   0  0  0  0  0  0
  -26.0113  -38.2828   24.1583 H   0  0  0  0  0  0
  -28.2634  -19.6352   18.8895 H   0  0  0  0  0  0
  -31.8043  -17.4038   21.5381 H   0  0  0  0  0  0
  -32.2705  -25.2068   20.4251 H   0  0  0  0  0  0
  -29.9481  -24.2282   18.1401 H   0  0  0  0  0  0
  -30.5468  -25.6967   18.8411 H   0  0  0  0  0  0
  -26.7588  -24.2386   20.2564 H   0  0  0  0  0  0
  -27.4628  -23.4167   18.9111 H   0  0  0  0  0  0
  -27.8921  -22.0190   20.8202 H   0  0  0  0  0  0
  -28.4480  -23.3638   21.7666 H   0  0  0  0  0  0
  -28.0881  -25.5159   18.3785 H   0  0  0  0  0  0
  -34.1287  -23.7090   23.2542 H   0  0  0  0  0  0
  -32.9743  -25.0372   23.2490 H   0  0  0  0  0  0
  -34.1912  -24.9107   21.9793 H   0  0  0  0  0  0
  -29.6194  -21.5948   18.6213 H   0  0  0  0  0  0
  -31.2403  -21.5998   19.2093 H   0  0  0  0  0  0
  -33.1515  -22.7444   21.2207 H   0  0  0  0  0  0
  -31.8662  -22.9304   22.4119 H   0  0  0  0  0  0
  -28.8647  -15.3723   20.9006 H   0  0  0  0  0  0
  -30.2447  -22.3493   21.3335 H   0  0  0  0  0  0
  1 25  1  0  0  0
  1 30  2  0  0  0
  1 86  1  0  0  0
  2  3  1  0  0  0
  2 25  1  0  0  0
  2 90  1  0  0  0
  2 91  1  0  0  0
  3  4  1  0  0  0
  3 92  1  0  0  0
  3 93  1  0  0  0
  4  5  1  0  0  0
  4 94  1  0  0  0
  4 95  1  0  0  0
  5  6  1  0  0  0
  5 26  1  0  0  0
  5 96  1  0  0  0
  6 25  1  0  0  0
  6 97  1  0  0  0
  6 98  1  0  0  0
  7  8  2  0  0  0
  7 26  1  0  0  0
  7 29  1  0  0  0
  8  9  1  0  0  0
  8 22  1  0  0  0
  9 10  1  0  0  0
  9 27  2  0  0  0
 10 11  2  0  0  0
 10 15  1  0  0  0
 11 12  1  0  0  0
 11 99  1  0  0  0
 12 13  2  0  0  0
 12100  1  0  0  0
 13 14  1  0  0  0
 13 31  1  0  0  0
 14 15  2  0  0  0
 14101  1  0  0  0
 15102  1  0  0  0
 16 17  2  0  0  0
 16 21  1  0  0  0
 16 31  1  0  0  0
 17 18  1  0  0  0
 17103  1  0  0  0
 18 19  2  0  0  0
 18104  1  0  0  0
 19 20  1  0  0  0
 19 24  1  0  0  0
 20 21  2  0  0  0
 20105  1  0  0  0
 21 23  1  0  0  0
 22 28  1  0  0  0
 22 32  2  0  0  0
 26 27  1  0  0  0
 28106  1  0  0  0
 28107  1  0  0  0
 29108  1  0  0  0
 29109  1  0  0  0
 33 34  1  0  0  0
 33 66  1  0  0  0
 33 70  2  0  0  0
 34 36  1  0  0  0
 34 59  1  0  0  0
 34110  1  0  0  0
 35 44  2  0  0  0
 35 45  1  0  0  0
 35 68  1  0  0  0
 36 56  1  0  0  0
 36111  1  0  0  0
 37 39  1  0  0  0
 37 47  1  0  0  0
 37 66  1  0  0  0
 37112  1  0  0  0
 38 43  2  0  0  0
 38 46  1  0  0  0
 38 47  1  0  0  0
 39 64  1  0  0  0
 39 67  2  0  0  0
 40 52  1  0  0  0
 40 53  2  0  0  0
 40 58  1  0  0  0
 41113  1  0  0  0
 41114  1  0  0  0
 41115  1  0  0  0
 41 48  1  0  0  0
 42 43  1  0  0  0
 42 66  1  0  0  0
 42116  1  0  0  0
 42117  1  0  0  0
 43 44  1  0  0  0
 44118  1  0  0  0
 45 46  2  0  0  0
 45119  1  0  0  0
 46120  1  0  0  0
 47121  1  0  0  0
 47122  1  0  0  0
 48 56  1  0  0  0
 48 65  1  0  0  0
 48123  1  0  0  0
 49 50  1  0  0  0
 49 53  1  0  0  0
 49 64  1  0  0  0
 49124  1  0  0  0
 50 51  1  0  0  0
 50125  1  0  0  0
 50126  1  0  0  0
 51 52  1  0  0  0
 51127  1  0  0  0
 51128  1  0  0  0
 52129  1  0  0  0
 52130  1  0  0  0
 53 54  1  0  0  0
 54 55  2  0  0  0
 54131  1  0  0  0
 55 57  1  0  0  0
 55132  1  0  0  0
 56 69  2  0  0  0
 57 58  2  0  0  0
 57133  1  0  0  0
 58134  1  0  0  0
 59 60  1  0  0  0
 59 61  1  0  0  0
 59 62  1  0  0  0
 60135  1  0  0  0
 60136  1  0  0  0
 60137  1  0  0  0
 61138  1  0  0  0
 61139  1  0  0  0
 61140  1  0  0  0
 62141  1  0  0  0
 62142  1  0  0  0
 62143  1  0  0  0
 63 65  1  0  0  0
 63144  1  0  0  0
 63145  1  0  0  0
 63146  1  0  0  0
 64147  1  0  0  0
 65148  1  0  0  0
 68 82  1  0  0  0
 71 73  2  0  0  0
 71 75  1  0  0  0
 71149  1  0  0  0
 72 74  1  0  0  0
 72 76  2  0  0  0
 72150  1  0  0  0
 73 76  1  0  0  0
 73 84  1  0  0  0
 74 75  2  0  0  0
 74 86  1  0  0  0
 75 88  1  0  0  0
 76 89  1  0  0  0
 77 78  2  0  0  0
 77 79  1  0  0  0
 77 87  1  0  0  0
 78 85  1  0  0  0
 78151  1  0  0  0
 79 82  1  0  0  0
 79152  1  0  0  0
 79153  1  0  0  0
 80 81  1  0  0  0
 80 82  1  0  0  0
 80154  1  0  0  0
 80155  1  0  0  0
 81 87  1  0  0  0
 81156  1  0  0  0
 81157  1  0  0  0
 82158  1  0  0  0
 83 85  1  0  0  0
 83159  1  0  0  0
 83160  1  0  0  0
 83161  1  0  0  0
 84162  1  0  0  0
 84163  1  0  0  0
 84 87  1  0  0  0
 85164  1  0  0  0
 85165  1  0  0  0
 86166  1  0  0  0
 87167  1  0  0  0
M  CHG  1  87   1
M  ISO  4   1 100  68 101  82 101  86 100
M  END
> <chiral flag>
0

> <version>
0

> <s_m_source_file>
/data/baiqing/PycharmProjects/Reinvent-master-3.2/result/LINK_invent/BTK/process_docking_weight1_custom_product_contain_oxygen_bond_distance_aromatic_linkinvent_7_9_3/rearranged_h_0046.sdf

> <i_m_source_file_index>
59

> <r_mmod_Potential_Energy-OPLS-2005>
-92.1758651733398

> <r_mmod_Stretch_Energy-OPLS-2005>
74.5407943725586

> <r_mmod_Bend_Energy-OPLS-2005>
172.038925170898

> <r_mmod_Torsional_Energy-OPLS-2005>
251.490493774414

> <r_mmod_Improper_Torsional_Energy-OPLS-2005>
7.82104682922363

> <r_mmod_Van_der_Waal_Energy-OPLS-2005>
133.038513183594

> <r_mmod_Electrostatic_Energy-OPLS-2005>
-333.126220703125

> <r_mmod_Solvation_Energy-OPLS-2005>
-440.163238525391

> <b_mmod_Minimization_Converged-OPLS-2005>
0

> <r_mmod_RMS_Derivative-OPLS-2005>
5.20176315307617

$$$$
59
                    3D
 Structure written by MMmdl.
160168  0  0  1  0            999 V2000
  -30.6074  -14.6450   20.5305 C   0  0  0  0  0  0
  -30.4358  -12.4022   19.4550 C   0  0  0  0  0  0
  -29.5017  -12.5033   18.2284 C   0  0  0  0  0  0
  -28.0264  -12.3354   18.6427 C   0  0  0  0  0  0
  -27.6468  -13.2129   19.8639 C   0  0  2  0  0  0
  -28.6877  -13.0648   20.9963 C   0  0  0  0  0  0
  -25.2536  -13.8179   20.5698 C   0  0  0  0  0  0
  -24.1809  -13.0456   20.9210 C   0  0  0  0  0  0
  -24.6358  -11.6913   20.8755 C   0  0  0  0  0  0
  -23.9038  -10.4300   21.0422 C   0  0  0  0  0  0
  -24.3586   -9.4214   21.9199 C   0  0  0  0  0  0
  -23.6264   -8.2247   22.0760 C   0  0  0  0  0  0
  -22.4250   -8.0279   21.3549 C   0  0  0  0  0  0
  -21.9888   -9.0254   20.4653 C   0  0  0  0  0  0
  -22.7210  -10.2143   20.3071 C   0  0  0  0  0  0
  -21.6841   -6.0734   22.5276 C   0  0  0  0  0  0
  -21.4012   -6.5636   23.8211 C   0  0  0  0  0  0
  -21.3661   -5.6790   24.9177 C   0  0  0  0  0  0
  -21.6045   -4.3049   24.7222 C   0  0  0  0  0  0
  -21.8817   -3.8142   23.4344 C   0  0  0  0  0  0
  -21.9190   -4.6964   22.3402 C   0  0  0  0  0  0
  -22.7832  -13.5249   21.1873 C   0  0  0  0  0  0
  -22.1660   -4.2146   21.0976 F   0  0  0  0  0  0
  -21.5628   -3.4535   25.7741 F   0  0  0  0  0  0
  -30.0021  -13.4176   20.4375 N   0  0  0  0  0  0
  -26.2930  -12.9339   20.3303 N   0  0  0  0  0  0
  -25.9270  -11.6503   20.5766 N   0  0  0  0  0  0
  -22.0463  -12.8253   22.0428 N   0  0  0  0  0  0
  -25.4276  -15.1909   20.4128 N   0  0  0  0  0  0
  -31.7678  -14.8110   20.1432 O   0  0  0  0  0  0
  -21.6631   -6.8870   21.4232 O   0  0  0  0  0  0
  -22.3531  -14.5554   20.6713 O   0  0  0  0  0  0
  -24.6233  -31.8594   23.2021 C   0  0  0  0  0  0
  -25.9086  -32.4776   23.8341 C   0  0  1  0  0  0
  -27.2351  -27.3242   20.1216 C   0  0  0  0  0  0
  -25.5893  -33.8581   24.2257 N   0  0  0  0  0  0
  -23.4199  -30.4818   21.5444 C   0  0  2  0  0  0
  -24.8692  -28.9392   20.1126 C   0  0  0  0  0  0
  -22.7458  -29.4619   22.4908 C   0  0  0  0  0  0
  -18.0277  -28.1362   22.8471 C   0  0  0  0  0  0
  -24.1493  -36.7314   23.2635 C   0  0  0  0  0  0
  -25.9598  -30.7928   21.3759 C   0  0  0  0  0  0
  -26.0370  -29.4213   20.7168 C   0  0  0  0  0  0
  -27.2223  -28.6269   20.7103 C   0  0  0  0  0  0
  -26.0423  -26.8991   19.4862 C   0  0  0  0  0  0
  -24.8724  -27.6813   19.4918 C   0  0  0  0  0  0
  -23.6361  -29.8163   20.1604 C   0  0  0  0  0  0
  -25.4117  -36.3081   24.0321 C   0  0  1  0  0  0
  -20.5879  -28.3685   23.1252 C   0  0  2  0  0  0
  -20.6770  -26.9397   22.5401 C   0  0  0  0  0  0
  -19.5766  -26.6358   21.5181 C   0  0  0  0  0  0
  -18.1936  -26.7910   22.1595 C   0  0  0  0  0  0
  -19.1528  -28.8832   23.2870 C   0  0  0  0  0  0
  -18.9467  -30.1422   23.8900 C   0  0  0  0  0  0
  -17.6475  -30.6584   24.0530 C   0  0  0  0  0  0
  -25.9052  -34.9454   23.5102 C   0  0  0  0  0  0
  -16.5361  -29.9085   23.6305 C   0  0  0  0  0  0
  -16.7273  -28.6485   23.0356 C   0  0  0  0  0  0
  -26.4483  -31.6603   25.0719 C   0  0  0  0  0  0
  -25.3700  -31.3758   26.1429 C   0  0  0  0  0  0
  -27.0334  -30.3010   24.6226 C   0  0  0  0  0  0
  -27.5999  -32.4384   25.7505 C   0  0  0  0  0  0
  -27.5615  -37.1781   24.8444 C   0  0  0  0  0  0
  -21.4164  -29.3036   22.3643 N   0  0  0  0  0  0
  -26.4292  -37.3783   23.9434 N   0  0  0  0  0  0
  -24.6858  -31.0608   22.0975 N   0  0  0  0  0  0
  -23.4167  -28.8151   23.3005 O   0  0  0  0  0  0
  -28.3553  -26.4780   20.1985 O   0  0  0  0  0  0
  -26.5641  -34.8915   22.4685 O   0  0  0  0  0  0
  -23.5396  -32.1410   23.7343 O   0  0  0  0  0  0
  -28.8401  -19.3910   20.9683 C   0  0  0  0  0  0
  -28.7703  -17.9659   20.9880 C   0  0  0  0  0  0
  -31.1525  -17.8312   20.7869 C   0  0  0  0  0  0
  -30.0695  -20.0938   20.8463 C   0  0  0  0  0  0
  -31.2456  -19.2607   20.8196 C   0  0  0  0  0  0
  -29.9221  -17.1400   20.8720 C   0  0  0  0  0  0
  -29.2281  -24.0259   20.5233 C   0  0  0  0  0  0
  -33.1905  -20.1233   19.4355 C   0  0  0  0  0  0
  -28.1767  -22.1191   19.3453 C   0  0  0  0  0  0
  -30.1660  -21.6831   20.8649 C   0  0  0  0  0  0
  -28.1694  -25.0325   19.9091 C   0  0  0  0  0  0
  -32.6678  -19.8375   20.8443 C   0  0  0  0  0  0
  -29.7876  -15.6805   20.9113 N   0  0  0  0  0  0
  -29.1489  -22.6548   20.3008 N   0  0  0  0  0  0
  -30.1321  -24.4999   21.2225 O   0  0  0  0  0  0
  -33.5068  -18.9589   21.3976 F   0  0  0  0  0  0
  -32.7508  -20.9380   21.5931 F   0  0  0  0  0  0
  -31.4728  -12.5413   19.1474 H   0  0  0  0  0  0
  -30.3851  -11.4074   19.8984 H   0  0  0  0  0  0
  -29.7661  -11.7463   17.4885 H   0  0  0  0  0  0
  -29.6356  -13.4696   17.7397 H   0  0  0  0  0  0
  -27.8684  -11.2830   18.8829 H   0  0  0  0  0  0
  -27.3672  -12.5535   17.8017 H   0  0  0  0  0  0
  -27.6654  -14.2472   19.5190 H   0  0  0  0  0  0
  -28.7025  -12.0405   21.3713 H   0  0  0  0  0  0
  -28.4251  -13.6890   21.8536 H   0  0  0  0  0  0
  -25.2728   -9.5698   22.4788 H   0  0  0  0  0  0
  -23.9973   -7.4642   22.7480 H   0  0  0  0  0  0
  -21.0821   -8.8772   19.8956 H   0  0  0  0  0  0
  -22.3647  -10.9690   19.6185 H   0  0  0  0  0  0
  -21.2009   -7.6141   23.9707 H   0  0  0  0  0  0
  -21.1486   -6.0528   25.9082 H   0  0  0  0  0  0
  -22.0597   -2.7607   23.2848 H   0  0  0  0  0  0
  -22.4043  -11.9885   22.4803 H   0  0  0  0  0  0
  -21.1104  -13.1333   22.2670 H   0  0  0  0  0  0
  -24.6643  -15.8487   20.5286 H   0  0  0  0  0  0
  -26.2685  -15.6192   20.0505 H   0  0  0  0  0  0
  -26.7151  -32.5462   23.1090 H   0  0  0  0  0  0
  -24.9932  -33.9679   25.0331 H   0  0  0  0  0  0
  -22.7122  -31.3019   21.4022 H   0  0  0  0  0  0
  -23.3766  -35.9630   23.3213 H   0  0  0  0  0  0
  -24.3599  -36.9054   22.2074 H   0  0  0  0  0  0
  -23.7202  -37.6466   23.6733 H   0  0  0  0  0  0
  -26.0949  -31.5581   20.6096 H   0  0  0  0  0  0
  -26.8357  -30.8372   22.0107 H   0  0  0  0  0  0
  -28.1180  -28.9977   21.1915 H   0  0  0  0  0  0
  -25.9812  -25.9427   18.9890 H   0  0  0  0  0  0
  -23.9754  -27.3044   19.0181 H   0  0  0  0  0  0
  -23.7539  -30.5923   19.4031 H   0  0  0  0  0  0
  -22.7574  -29.2430   19.8615 H   0  0  0  0  0  0
  -25.1289  -36.1936   25.0804 H   0  0  0  0  0  0
  -20.9963  -28.3287   24.1376 H   0  0  0  0  0  0
  -20.5648  -26.2291   23.3606 H   0  0  0  0  0  0
  -21.6651  -26.7415   22.1232 H   0  0  0  0  0  0
  -19.6919  -25.6261   21.1240 H   0  0  0  0  0  0
  -19.6719  -27.3117   20.6680 H   0  0  0  0  0  0
  -17.4208  -26.6612   21.3996 H   0  0  0  0  0  0
  -18.0371  -26.0054   22.9000 H   0  0  0  0  0  0
  -19.7951  -30.7195   24.2307 H   0  0  0  0  0  0
  -17.5055  -31.6259   24.5146 H   0  0  0  0  0  0
  -15.5364  -30.2998   23.7633 H   0  0  0  0  0  0
  -15.8658  -28.0785   22.7122 H   0  0  0  0  0  0
  -24.5835  -30.7161   25.7748 H   0  0  0  0  0  0
  -24.8919  -32.2940   26.4865 H   0  0  0  0  0  0
  -25.7994  -30.8905   27.0203 H   0  0  0  0  0  0
  -26.2923  -29.6744   24.1251 H   0  0  0  0  0  0
  -27.3990  -29.7303   25.4776 H   0  0  0  0  0  0
  -27.8818  -30.4262   23.9493 H   0  0  0  0  0  0
  -27.2561  -33.3694   26.2039 H   0  0  0  0  0  0
  -28.3817  -32.6961   25.0348 H   0  0  0  0  0  0
  -28.0663  -31.8565   26.5465 H   0  0  0  0  0  0
  -28.2522  -38.0193   24.7646 H   0  0  0  0  0  0
  -28.1225  -36.2722   24.6087 H   0  0  0  0  0  0
  -27.2346  -37.1223   25.8842 H   0  0  0  0  0  0
  -20.9326  -29.8792   21.6884 H   0  0  0  0  0  0
  -26.0176  -38.2836   24.1541 H   0  0  0  0  0  0
  -27.9196  -19.9481   21.0726 H   0  0  0  0  0  0
  -27.7970  -17.5113   21.0974 H   0  0  0  0  0  0
  -32.0615  -17.2522   20.7234 H   0  0  0  0  0  0
  -33.2127  -19.2107   18.8394 H   0  0  0  0  0  0
  -34.2027  -20.5255   19.4705 H   0  0  0  0  0  0
  -32.5620  -20.8419   18.9115 H   0  0  0  0  0  0
  -27.1845  -22.0724   19.7967 H   0  0  0  0  0  0
  -28.4416  -21.1228   18.9963 H   0  0  0  0  0  0
  -28.1162  -22.7295   18.4443 H   0  0  0  0  0  0
  -31.0787  -21.9605   20.3409 H   0  0  0  0  0  0
  -30.3302  -21.9555   21.9089 H   0  0  0  0  0  0
  -27.2058  -24.6899   20.2897 H   0  0  0  0  0  0
  -28.1599  -24.9228   18.8245 H   0  0  0  0  0  0
  -28.8696  -15.3552   21.1706 H   0  0  0  0  0  0
  1 25  1  0  0  0
  1 30  2  0  0  0
  1 83  1  0  0  0
  2  3  1  0  0  0
  2 25  1  0  0  0
  2 88  1  0  0  0
  2 89  1  0  0  0
  3  4  1  0  0  0
  3 90  1  0  0  0
  3 91  1  0  0  0
  4  5  1  0  0  0
  4 92  1  0  0  0
  4 93  1  0  0  0
  5  6  1  0  0  0
  5 26  1  0  0  0
  5 94  1  0  0  0
  6 25  1  0  0  0
  6 95  1  0  0  0
  6 96  1  0  0  0
  7  8  2  0  0  0
  7 26  1  0  0  0
  7 29  1  0  0  0
  8  9  1  0  0  0
  8 22  1  0  0  0
  9 10  1  0  0  0
  9 27  2  0  0  0
 10 11  2  0  0  0
 10 15  1  0  0  0
 11 12  1  0  0  0
 11 97  1  0  0  0
 12 13  2  0  0  0
 12 98  1  0  0  0
 13 14  1  0  0  0
 13 31  1  0  0  0
 14 15  2  0  0  0
 14 99  1  0  0  0
 15100  1  0  0  0
 16 17  2  0  0  0
 16 21  1  0  0  0
 16 31  1  0  0  0
 17 18  1  0  0  0
 17101  1  0  0  0
 18 19  2  0  0  0
 18102  1  0  0  0
 19 20  1  0  0  0
 19 24  1  0  0  0
 20 21  2  0  0  0
 20103  1  0  0  0
 21 23  1  0  0  0
 22 28  1  0  0  0
 22 32  2  0  0  0
 26 27  1  0  0  0
 28104  1  0  0  0
 28105  1  0  0  0
 29106  1  0  0  0
 29107  1  0  0  0
 33 34  1  0  0  0
 33 66  1  0  0  0
 33 70  2  0  0  0
 34 36  1  0  0  0
 34 59  1  0  0  0
 34108  1  0  0  0
 35 44  2  0  0  0
 35 45  1  0  0  0
 35 68  1  0  0  0
 36 56  1  0  0  0
 36109  1  0  0  0
 37 39  1  0  0  0
 37 47  1  0  0  0
 37 66  1  0  0  0
 37110  1  0  0  0
 38 43  2  0  0  0
 38 46  1  0  0  0
 38 47  1  0  0  0
 39 64  1  0  0  0
 39 67  2  0  0  0
 40 52  1  0  0  0
 40 53  2  0  0  0
 40 58  1  0  0  0
 41111  1  0  0  0
 41112  1  0  0  0
 41113  1  0  0  0
 41 48  1  0  0  0
 42 43  1  0  0  0
 42 66  1  0  0  0
 42114  1  0  0  0
 42115  1  0  0  0
 43 44  1  0  0  0
 44116  1  0  0  0
 45 46  2  0  0  0
 45117  1  0  0  0
 46118  1  0  0  0
 47119  1  0  0  0
 47120  1  0  0  0
 48 56  1  0  0  0
 48 65  1  0  0  0
 48121  1  0  0  0
 49 50  1  0  0  0
 49 53  1  0  0  0
 49 64  1  0  0  0
 49122  1  0  0  0
 50 51  1  0  0  0
 50123  1  0  0  0
 50124  1  0  0  0
 51 52  1  0  0  0
 51125  1  0  0  0
 51126  1  0  0  0
 52127  1  0  0  0
 52128  1  0  0  0
 53 54  1  0  0  0
 54 55  2  0  0  0
 54129  1  0  0  0
 55 57  1  0  0  0
 55130  1  0  0  0
 56 69  2  0  0  0
 57 58  2  0  0  0
 57131  1  0  0  0
 58132  1  0  0  0
 59 60  1  0  0  0
 59 61  1  0  0  0
 59 62  1  0  0  0
 60133  1  0  0  0
 60134  1  0  0  0
 60135  1  0  0  0
 61136  1  0  0  0
 61137  1  0  0  0
 61138  1  0  0  0
 62139  1  0  0  0
 62140  1  0  0  0
 62141  1  0  0  0
 63 65  1  0  0  0
 63142  1  0  0  0
 63143  1  0  0  0
 63144  1  0  0  0
 64145  1  0  0  0
 65146  1  0  0  0
 68 81  1  0  0  0
 71 72  2  0  0  0
 71 74  1  0  0  0
 71147  1  0  0  0
 72 76  1  0  0  0
 72148  1  0  0  0
 73 75  1  0  0  0
 73 76  2  0  0  0
 73149  1  0  0  0
 74 75  2  0  0  0
 74 80  1  0  0  0
 75 82  1  0  0  0
 76 83  1  0  0  0
 77 81  1  0  0  0
 77 84  1  0  0  0
 77 85  2  0  0  0
 78150  1  0  0  0
 78151  1  0  0  0
 78152  1  0  0  0
 78 82  1  0  0  0
 79 84  1  0  0  0
 79153  1  0  0  0
 79154  1  0  0  0
 79155  1  0  0  0
 80 84  1  0  0  0
 80156  1  0  0  0
 80157  1  0  0  0
 81158  1  0  0  0
 81159  1  0  0  0
 82 86  1  0  0  0
 82 87  1  0  0  0
 83160  1  0  0  0
M  ISO  4   1 100  68 101  81 101  83 100
M  END
> <chiral flag>
0

> <version>
0

> <s_m_source_file>
/data/baiqing/PycharmProjects/Reinvent-master-3.2/result/LINK_invent/BTK/process_docking_weight1_custom_product_contain_oxygen_bond_distance_aromatic_linkinvent_7_9_3/rearranged_h_0046.sdf

> <i_m_source_file_index>
60

> <r_mmod_Potential_Energy-OPLS-2005>
70.9065933227539

> <r_mmod_Stretch_Energy-OPLS-2005>
91.795783996582

> <r_mmod_Bend_Energy-OPLS-2005>
151.868057250977

> <r_mmod_Torsional_Energy-OPLS-2005>
220.421844482422

> <r_mmod_Improper_Torsional_Energy-OPLS-2005>
4.68225193023682

> <r_mmod_Van_der_Waal_Energy-OPLS-2005>
162.111206054688

> <r_mmod_Electrostatic_Energy-OPLS-2005>
-369.612609863281

> <r_mmod_Solvation_Energy-OPLS-2005>
-239.97395324707

> <b_mmod_Minimization_Converged-OPLS-2005>
0

> <r_mmod_RMS_Derivative-OPLS-2005>
2.7088098526001

$$$$
60
                    3D
 Structure written by MMmdl.
158167  0  0  1  0            999 V2000
  -30.6374  -14.6472   20.6196 C   0  0  0  0  0  0
  -30.4382  -12.4202   19.4893 C   0  0  0  0  0  0
  -29.5187  -12.5465   18.2534 C   0  0  0  0  0  0
  -28.0420  -12.3733   18.6538 C   0  0  0  0  0  0
  -27.6609  -13.2312   19.8889 C   0  0  2  0  0  0
  -28.6922  -13.0729   21.0306 C   0  0  0  0  0  0
  -25.2520  -13.8189   20.5659 C   0  0  0  0  0  0
  -24.1792  -13.0419   20.9156 C   0  0  0  0  0  0
  -24.6412  -11.6908   20.8744 C   0  0  0  0  0  0
  -23.9085  -10.4279   21.0437 C   0  0  0  0  0  0
  -24.3622   -9.4189   21.9203 C   0  0  0  0  0  0
  -23.6286   -8.2226   22.0762 C   0  0  0  0  0  0
  -22.4278   -8.0271   21.3547 C   0  0  0  0  0  0
  -21.9914   -9.0256   20.4644 C   0  0  0  0  0  0
  -22.7251  -10.2130   20.3071 C   0  0  0  0  0  0
  -21.6836   -6.0726   22.5276 C   0  0  0  0  0  0
  -21.4033   -6.5636   23.8213 C   0  0  0  0  0  0
  -21.3669   -5.6786   24.9186 C   0  0  0  0  0  0
  -21.6025   -4.3045   24.7232 C   0  0  0  0  0  0
  -21.8821   -3.8146   23.4358 C   0  0  0  0  0  0
  -21.9193   -4.6960   22.3405 C   0  0  0  0  0  0
  -22.7822  -13.5208   21.1835 C   0  0  0  0  0  0
  -22.1643   -4.2149   21.0971 F   0  0  0  0  0  0
  -21.5638   -3.4523   25.7743 F   0  0  0  0  0  0
  -30.0231  -13.4199   20.5036 N   0  0  0  0  0  0
  -26.3015  -12.9422   20.3421 N   0  0  0  0  0  0
  -25.9370  -11.6556   20.5828 N   0  0  0  0  0  0
  -22.0457  -12.8204   22.0400 N   0  0  0  0  0  0
  -25.4172  -15.1915   20.4032 N   0  0  0  0  0  0
  -31.7141  -14.8610   20.0479 O   0  0  0  0  0  0
  -21.6629   -6.8884   21.4237 O   0  0  0  0  0  0
  -22.3495  -14.5505   20.6703 O   0  0  0  0  0  0
  -24.6224  -31.8629   23.1989 C   0  0  0  0  0  0
  -25.9068  -32.4761   23.8359 C   0  0  1  0  0  0
  -27.1992  -27.2891   20.1689 C   0  0  0  0  0  0
  -25.5915  -33.8571   24.2304 N   0  0  0  0  0  0
  -23.4178  -30.4830   21.5391 C   0  0  2  0  0  0
  -24.8700  -28.9333   20.1118 C   0  0  0  0  0  0
  -22.7439  -29.4620   22.4855 C   0  0  0  0  0  0
  -18.0299  -28.1345   22.8445 C   0  0  0  0  0  0
  -24.1513  -36.7290   23.2639 C   0  0  0  0  0  0
  -25.9621  -30.7802   21.3796 C   0  0  0  0  0  0
  -26.0341  -29.4079   20.7258 C   0  0  0  0  0  0
  -27.2083  -28.5946   20.7445 C   0  0  0  0  0  0
  -26.0245  -26.8749   19.5111 C   0  0  0  0  0  0
  -24.8684  -27.6765   19.4891 C   0  0  0  0  0  0
  -23.6382  -29.8150   20.1569 C   0  0  0  0  0  0
  -25.4128  -36.3084   24.0333 C   0  0  1  0  0  0
  -20.5882  -28.3684   23.1214 C   0  0  2  0  0  0
  -20.6764  -26.9391   22.5388 C   0  0  0  0  0  0
  -19.5772  -26.6348   21.5160 C   0  0  0  0  0  0
  -18.1951  -26.7895   22.1556 C   0  0  0  0  0  0
  -19.1545  -28.8824   23.2833 C   0  0  0  0  0  0
  -18.9486  -30.1405   23.8890 C   0  0  0  0  0  0
  -17.6492  -30.6567   24.0548 C   0  0  0  0  0  0
  -25.9051  -34.9436   23.5127 C   0  0  0  0  0  0
  -16.5377  -29.9068   23.6315 C   0  0  0  0  0  0
  -16.7283  -28.6456   23.0364 C   0  0  0  0  0  0
  -26.4501  -31.6565   25.0717 C   0  0  0  0  0  0
  -25.3773  -31.3727   26.1452 C   0  0  0  0  0  0
  -27.0375  -30.3004   24.6179 C   0  0  0  0  0  0
  -27.6096  -32.4302   25.7468 C   0  0  0  0  0  0
  -27.5604  -37.1769   24.8443 C   0  0  0  0  0  0
  -21.4156  -29.3064   22.3607 N   0  0  0  0  0  0
  -26.4312  -37.3772   23.9410 N   0  0  0  0  0  0
  -24.6854  -31.0597   22.0974 N   0  0  0  0  0  0
  -23.4131  -28.8144   23.2952 O   0  0  0  0  0  0
  -28.2770  -26.3965   20.2210 O   0  0  0  0  0  0
  -26.5609  -34.8877   22.4688 O   0  0  0  0  0  0
  -23.5375  -32.1446   23.7302 O   0  0  0  0  0  0
  -29.3486  -18.9683   19.6658 C   0  0  0  0  0  0
  -29.7783  -17.6256   19.8958 C   0  0  0  0  0  0
  -29.2552  -17.8884   22.2268 C   0  0  0  0  0  0
  -28.8631  -19.8310   20.6920 C   0  0  0  0  0  0
  -29.7317  -17.0290   21.1803 C   0  0  0  0  0  0
  -28.8279  -19.2432   21.9960 C   0  0  0  0  0  0
  -27.9254  -23.7688   20.4082 C   0  0  0  0  0  0
  -29.6071  -23.8155   22.7440 C   0  0  0  0  0  0
  -29.3791  -25.1748   22.0525 C   0  0  0  0  0  0
  -29.7466  -22.6914   21.7064 C   0  0  0  0  0  0
  -28.1609  -25.1929   21.1041 C   0  0  1  0  0  0
  -28.2182  -21.2336   20.2885 C   0  0  0  0  0  0
  -28.5785  -22.6105   20.8267 N   0  0  0  0  0  0
  -30.0438  -15.6023   21.4141 N   0  0  0  0  0  0
  -27.0561  -23.7053   19.5354 O   0  0  0  0  0  0
  -28.3390  -19.9650   23.0375 F   0  0  0  0  0  0
  -31.4828  -12.5330   19.1953 H   0  0  0  0  0  0
  -30.3622  -11.4158   19.9068 H   0  0  0  0  0  0
  -29.7925  -11.8080   17.4964 H   0  0  0  0  0  0
  -29.6600  -13.5269   17.7917 H   0  0  0  0  0  0
  -27.8844  -11.3179   18.8757 H   0  0  0  0  0  0
  -27.3897  -12.6113   17.8138 H   0  0  0  0  0  0
  -27.6864  -14.2745   19.5684 H   0  0  0  0  0  0
  -28.6967  -12.0481   21.4085 H   0  0  0  0  0  0
  -28.4135  -13.6976   21.8821 H   0  0  0  0  0  0
  -25.2796   -9.5640   22.4745 H   0  0  0  0  0  0
  -23.9988   -7.4628   22.7495 H   0  0  0  0  0  0
  -21.0842   -8.8797   19.8949 H   0  0  0  0  0  0
  -22.3751  -10.9673   19.6153 H   0  0  0  0  0  0
  -21.2029   -7.6135   23.9731 H   0  0  0  0  0  0
  -21.1482   -6.0513   25.9085 H   0  0  0  0  0  0
  -22.0594   -2.7610   23.2867 H   0  0  0  0  0  0
  -22.4079  -11.9879   22.4804 H   0  0  0  0  0  0
  -21.1084  -13.1266   22.2631 H   0  0  0  0  0  0
  -24.6410  -15.8402   20.4783 H   0  0  0  0  0  0
  -26.2766  -15.6353   20.1016 H   0  0  0  0  0  0
  -26.7103  -32.5447   23.1071 H   0  0  0  0  0  0
  -25.0173  -33.9821   25.0499 H   0  0  0  0  0  0
  -22.7158  -31.3047   21.3848 H   0  0  0  0  0  0
  -23.3796  -35.9591   23.3258 H   0  0  0  0  0  0
  -24.3598  -36.8972   22.2063 H   0  0  0  0  0  0
  -23.7219  -37.6452   23.6691 H   0  0  0  0  0  0
  -26.1027  -31.5337   20.6062 H   0  0  0  0  0  0
  -26.8385  -30.8289   22.0138 H   0  0  0  0  0  0
  -28.0977  -28.9432   21.2455 H   0  0  0  0  0  0
  -25.9851  -25.9095   19.0281 H   0  0  0  0  0  0
  -23.9733  -27.3131   19.0064 H   0  0  0  0  0  0
  -23.7623  -30.5878   19.4011 H   0  0  0  0  0  0
  -22.7642  -29.2405   19.8496 H   0  0  0  0  0  0
  -25.1279  -36.1982   25.0820 H   0  0  0  0  0  0
  -21.0005  -28.3299   24.1313 H   0  0  0  0  0  0
  -20.5644  -26.2317   23.3593 H   0  0  0  0  0  0
  -21.6648  -26.7399   22.1212 H   0  0  0  0  0  0
  -19.6990  -25.6257   21.1212 H   0  0  0  0  0  0
  -19.6754  -27.3131   20.6664 H   0  0  0  0  0  0
  -17.4230  -26.6634   21.3957 H   0  0  0  0  0  0
  -18.0365  -26.0011   22.8938 H   0  0  0  0  0  0
  -19.7994  -30.7176   24.2291 H   0  0  0  0  0  0
  -17.5080  -31.6256   24.5138 H   0  0  0  0  0  0
  -15.5394  -30.2979   23.7642 H   0  0  0  0  0  0
  -15.8657  -28.0753   22.7150 H   0  0  0  0  0  0
  -24.5860  -30.7198   25.7760 H   0  0  0  0  0  0
  -24.9074  -32.2936   26.4940 H   0  0  0  0  0  0
  -25.8088  -30.8828   27.0202 H   0  0  0  0  0  0
  -26.2976  -29.6660   24.1311 H   0  0  0  0  0  0
  -27.4215  -29.7330   25.4675 H   0  0  0  0  0  0
  -27.8760  -30.4280   23.9324 H   0  0  0  0  0  0
  -27.2726  -33.3623   26.1994 H   0  0  0  0  0  0
  -28.3882  -32.6832   25.0271 H   0  0  0  0  0  0
  -28.0728  -31.8459   26.5407 H   0  0  0  0  0  0
  -28.2543  -38.0154   24.7543 H   0  0  0  0  0  0
  -28.1208  -36.2669   24.6211 H   0  0  0  0  0  0
  -27.2323  -37.1292   25.8850 H   0  0  0  0  0  0
  -20.9310  -29.8837   21.6871 H   0  0  0  0  0  0
  -26.0221  -38.2851   24.1484 H   0  0  0  0  0  0
  -29.3516  -19.3210   18.6422 H   0  0  0  0  0  0
  -30.1140  -17.0322   19.0543 H   0  0  0  0  0  0
  -29.1764  -17.5059   23.2381 H   0  0  0  0  0  0
  -28.7827  -23.5867   23.4236 H   0  0  0  0  0  0
  -30.5143  -23.8526   23.3514 H   0  0  0  0  0  0
  -30.2676  -25.4329   21.4784 H   0  0  0  0  0  0
  -29.2619  -25.9534   22.8083 H   0  0  0  0  0  0
  -29.9094  -21.7482   22.2225 H   0  0  0  0  0  0
  -30.6344  -22.8537   21.0895 H   0  0  0  0  0  0
  -27.2844  -25.3360   21.7414 H   0  0  0  0  0  0
  -27.1463  -21.1114   20.4551 H   0  0  0  0  0  0
  -28.3323  -21.3171   19.2052 H   0  0  0  0  0  0
  -29.5901  -15.2027   22.2237 H   0  0  0  0  0  0
  1 25  1  0  0  0
  1 30  2  0  0  0
  1 84  1  0  0  0
  2  3  1  0  0  0
  2 25  1  0  0  0
  2 87  1  0  0  0
  2 88  1  0  0  0
  3  4  1  0  0  0
  3 89  1  0  0  0
  3 90  1  0  0  0
  4  5  1  0  0  0
  4 91  1  0  0  0
  4 92  1  0  0  0
  5  6  1  0  0  0
  5 26  1  0  0  0
  5 93  1  0  0  0
  6 25  1  0  0  0
  6 94  1  0  0  0
  6 95  1  0  0  0
  7  8  2  0  0  0
  7 26  1  0  0  0
  7 29  1  0  0  0
  8  9  1  0  0  0
  8 22  1  0  0  0
  9 10  1  0  0  0
  9 27  2  0  0  0
 10 11  2  0  0  0
 10 15  1  0  0  0
 11 12  1  0  0  0
 11 96  1  0  0  0
 12 13  2  0  0  0
 12 97  1  0  0  0
 13 14  1  0  0  0
 13 31  1  0  0  0
 14 15  2  0  0  0
 14 98  1  0  0  0
 15 99  1  0  0  0
 16 17  2  0  0  0
 16 21  1  0  0  0
 16 31  1  0  0  0
 17 18  1  0  0  0
 17100  1  0  0  0
 18 19  2  0  0  0
 18101  1  0  0  0
 19 20  1  0  0  0
 19 24  1  0  0  0
 20 21  2  0  0  0
 20102  1  0  0  0
 21 23  1  0  0  0
 22 28  1  0  0  0
 22 32  2  0  0  0
 26 27  1  0  0  0
 28103  1  0  0  0
 28104  1  0  0  0
 29105  1  0  0  0
 29106  1  0  0  0
 33 34  1  0  0  0
 33 66  1  0  0  0
 33 70  2  0  0  0
 34 36  1  0  0  0
 34 59  1  0  0  0
 34107  1  0  0  0
 35 44  2  0  0  0
 35 45  1  0  0  0
 35 68  1  0  0  0
 36 56  1  0  0  0
 36108  1  0  0  0
 37 39  1  0  0  0
 37 47  1  0  0  0
 37 66  1  0  0  0
 37109  1  0  0  0
 38 43  2  0  0  0
 38 46  1  0  0  0
 38 47  1  0  0  0
 39 64  1  0  0  0
 39 67  2  0  0  0
 40 52  1  0  0  0
 40 53  2  0  0  0
 40 58  1  0  0  0
 41110  1  0  0  0
 41111  1  0  0  0
 41112  1  0  0  0
 41 48  1  0  0  0
 42 43  1  0  0  0
 42 66  1  0  0  0
 42113  1  0  0  0
 42114  1  0  0  0
 43 44  1  0  0  0
 44115  1  0  0  0
 45 46  2  0  0  0
 45116  1  0  0  0
 46117  1  0  0  0
 47118  1  0  0  0
 47119  1  0  0  0
 48 56  1  0  0  0
 48 65  1  0  0  0
 48120  1  0  0  0
 49 50  1  0  0  0
 49 53  1  0  0  0
 49 64  1  0  0  0
 49121  1  0  0  0
 50 51  1  0  0  0
 50122  1  0  0  0
 50123  1  0  0  0
 51 52  1  0  0  0
 51124  1  0  0  0
 51125  1  0  0  0
 52126  1  0  0  0
 52127  1  0  0  0
 53 54  1  0  0  0
 54 55  2  0  0  0
 54128  1  0  0  0
 55 57  1  0  0  0
 55129  1  0  0  0
 56 69  2  0  0  0
 57 58  2  0  0  0
 57130  1  0  0  0
 58131  1  0  0  0
 59 60  1  0  0  0
 59 61  1  0  0  0
 59 62  1  0  0  0
 60132  1  0  0  0
 60133  1  0  0  0
 60134  1  0  0  0
 61135  1  0  0  0
 61136  1  0  0  0
 61137  1  0  0  0
 62138  1  0  0  0
 62139  1  0  0  0
 62140  1  0  0  0
 63 65  1  0  0  0
 63141  1  0  0  0
 63142  1  0  0  0
 63143  1  0  0  0
 64144  1  0  0  0
 65145  1  0  0  0
 68 81  1  0  0  0
 71 72  2  0  0  0
 71 74  1  0  0  0
 71146  1  0  0  0
 72 75  1  0  0  0
 72147  1  0  0  0
 73 75  2  0  0  0
 73 76  1  0  0  0
 73148  1  0  0  0
 74 76  2  0  0  0
 74 82  1  0  0  0
 75 84  1  0  0  0
 76 86  1  0  0  0
 77 81  1  0  0  0
 77 83  1  0  0  0
 77 85  2  0  0  0
 78 79  1  0  0  0
 78 80  1  0  0  0
 78149  1  0  0  0
 78150  1  0  0  0
 79 81  1  0  0  0
 79151  1  0  0  0
 79152  1  0  0  0
 80 83  1  0  0  0
 80153  1  0  0  0
 80154  1  0  0  0
 81155  1  0  0  0
 82 83  1  0  0  0
 82156  1  0  0  0
 82157  1  0  0  0
 84158  1  0  0  0
M  ISO  4   1 100  68 101  81 101  84 100
M  END
> <chiral flag>
0

> <version>
0

> <s_m_source_file>
/data/baiqing/PycharmProjects/Reinvent-master-3.2/result/LINK_invent/BTK/process_docking_weight1_custom_product_contain_oxygen_bond_distance_aromatic_linkinvent_7_9_3/rearranged_h_0046.sdf

> <i_m_source_file_index>
61

> <r_mmod_Potential_Energy-OPLS-2005>
202.933334350586

> <r_mmod_Stretch_Energy-OPLS-2005>
106.001037597656

> <r_mmod_Bend_Energy-OPLS-2005>
159.222366333008

> <r_mmod_Torsional_Energy-OPLS-2005>
281.824401855469

> <r_mmod_Improper_Torsional_Energy-OPLS-2005>
4.84484529495239

> <r_mmod_Van_der_Waal_Energy-OPLS-2005>
141.881103515625

> <r_mmod_Electrostatic_Energy-OPLS-2005>
-328.339813232422

> <r_mmod_Solvation_Energy-OPLS-2005>
-223.76985168457

> <b_mmod_Minimization_Converged-OPLS-2005>
0

> <r_mmod_RMS_Derivative-OPLS-2005>
6.76123380661011

$$$$
61
                    3D
 Structure written by MMmdl.
164173  0  0  1  0            999 V2000
  -30.7163  -14.4307   20.6296 C   0  0  0  0  0  0
  -30.4281  -12.3084   19.3994 C   0  0  0  0  0  0
  -29.4827  -12.5184   18.1980 C   0  0  0  0  0  0
  -28.0086  -12.3676   18.6218 C   0  0  0  0  0  0
  -27.6660  -13.1997   19.8857 C   0  0  2  0  0  0
  -28.7110  -12.9466   20.9965 C   0  0  0  0  0  0
  -25.2610  -13.8153   20.5714 C   0  0  0  0  0  0
  -24.1836  -13.0440   20.9193 C   0  0  0  0  0  0
  -24.6375  -11.6901   20.8749 C   0  0  0  0  0  0
  -23.9039  -10.4293   21.0416 C   0  0  0  0  0  0
  -24.3600   -9.4206   21.9187 C   0  0  0  0  0  0
  -23.6285   -8.2231   22.0742 C   0  0  0  0  0  0
  -22.4262   -8.0280   21.3539 C   0  0  0  0  0  0
  -21.9886   -9.0252   20.4648 C   0  0  0  0  0  0
  -22.7213  -10.2131   20.3055 C   0  0  0  0  0  0
  -21.6851   -6.0738   22.5283 C   0  0  0  0  0  0
  -21.4021   -6.5640   23.8216 C   0  0  0  0  0  0
  -21.3654   -5.6786   24.9174 C   0  0  0  0  0  0
  -21.6050   -4.3055   24.7220 C   0  0  0  0  0  0
  -21.8825   -3.8147   23.4336 C   0  0  0  0  0  0
  -21.9189   -4.6965   22.3401 C   0  0  0  0  0  0
  -22.7857  -13.5244   21.1844 C   0  0  0  0  0  0
  -22.1656   -4.2159   21.0974 F   0  0  0  0  0  0
  -21.5617   -3.4535   25.7728 F   0  0  0  0  0  0
  -30.0434  -13.2635   20.4501 N   0  0  0  0  0  0
  -26.3048  -12.9305   20.3453 N   0  0  0  0  0  0
  -25.9308  -11.6466   20.5807 N   0  0  0  0  0  0
  -22.0444  -12.8192   22.0329 N   0  0  0  0  0  0
  -25.4357  -15.1850   20.4104 N   0  0  0  0  0  0
  -31.8055  -14.6718   20.0998 O   0  0  0  0  0  0
  -21.6626   -6.8884   21.4244 O   0  0  0  0  0  0
  -22.3559  -14.5566   20.6724 O   0  0  0  0  0  0
  -24.6143  -31.8683   23.2097 C   0  0  0  0  0  0
  -25.9040  -32.4830   23.8393 C   0  0  1  0  0  0
  -27.2332  -27.4236   20.0963 C   0  0  0  0  0  0
  -25.5901  -33.8628   24.2334 N   0  0  0  0  0  0
  -23.4016  -30.4915   21.5514 C   0  0  2  0  0  0
  -24.8475  -28.9562   20.1180 C   0  0  0  0  0  0
  -22.7404  -29.4662   22.5001 C   0  0  0  0  0  0
  -18.0273  -28.1369   22.8494 C   0  0  0  0  0  0
  -24.1481  -36.7311   23.2635 C   0  0  0  0  0  0
  -25.9318  -30.8312   21.3625 C   0  0  0  0  0  0
  -26.0092  -29.4649   20.7103 C   0  0  0  0  0  0
  -27.2048  -28.7073   20.6927 C   0  0  0  0  0  0
  -26.0489  -26.9389   19.4913 C   0  0  0  0  0  0
  -24.8626  -27.6937   19.5049 C   0  0  0  0  0  0
  -23.6101  -29.8236   20.1664 C   0  0  0  0  0  0
  -25.4106  -36.3123   24.0340 C   0  0  1  0  0  0
  -20.5860  -28.3660   23.1325 C   0  0  2  0  0  0
  -20.6769  -26.9403   22.5413 C   0  0  0  0  0  0
  -19.5755  -26.6388   21.5206 C   0  0  0  0  0  0
  -18.1932  -26.7919   22.1615 C   0  0  0  0  0  0
  -19.1517  -28.8830   23.2907 C   0  0  0  0  0  0
  -18.9452  -30.1441   23.8916 C   0  0  0  0  0  0
  -17.6454  -30.6580   24.0569 C   0  0  0  0  0  0
  -25.9031  -34.9487   23.5132 C   0  0  0  0  0  0
  -16.5346  -29.9084   23.6324 C   0  0  0  0  0  0
  -16.7263  -28.6497   23.0350 C   0  0  0  0  0  0
  -26.4479  -31.6585   25.0698 C   0  0  0  0  0  0
  -25.3758  -31.3670   26.1445 C   0  0  0  0  0  0
  -27.0294  -30.3033   24.6040 C   0  0  0  0  0  0
  -27.6072  -32.4276   25.7472 C   0  0  0  0  0  0
  -27.5580  -37.1812   24.8470 C   0  0  0  0  0  0
  -21.4134  -29.3030   22.3737 N   0  0  0  0  0  0
  -26.4292  -37.3810   23.9415 N   0  0  0  0  0  0
  -24.6679  -31.0775   22.1003 N   0  0  0  0  0  0
  -23.4183  -28.8205   23.3040 O   0  0  0  0  0  0
  -28.4089  -26.6895   20.1181 O   0  0  0  0  0  0
  -26.5590  -34.8942   22.4688 O   0  0  0  0  0  0
  -23.5334  -32.1436   23.7490 O   0  0  0  0  0  0
  -28.0148  -17.3675   22.0149 C   0  0  0  0  0  0
  -26.9260  -18.2519   21.9160 C   0  0  0  0  0  0
  -29.4319  -19.0167   20.9171 C   0  0  0  0  0  0
  -29.2750  -17.7312   21.4950 C   0  0  0  0  0  0
  -28.3399  -19.9184   20.8078 C   0  0  0  0  0  0
  -27.0734  -19.5094   21.2989 C   0  0  0  0  0  0
  -29.9963  -23.2489   20.5715 C   0  0  0  0  0  0
  -31.2212  -22.7643   20.8410 C   0  0  0  0  0  0
  -29.7408  -24.6387   19.9540 C   0  0  0  0  0  0
  -27.7449  -24.7167   21.4441 C   0  0  0  0  0  0
  -27.5437  -23.1969   21.3211 C   0  0  0  0  0  0
  -28.3346  -25.2459   20.1321 C   0  0  1  0  0  0
  -30.4513  -16.7505   21.5576 C   0  0  0  0  0  0
  -28.5249  -21.2589   20.0758 C   0  0  0  0  0  0
  -30.0624  -15.3511   21.3538 N   0  0  0  0  0  0
  -28.7799  -22.4404   20.9610 N   0  3  2  0  0  0
  -25.6697  -20.5015   21.1372 Cl  0  0  0  0  0  0
  -31.4656  -12.4305   19.0847 H   0  0  0  0  0  0
  -30.3522  -11.2874   19.7767 H   0  0  0  0  0  0
  -29.7167  -11.8081   17.4039 H   0  0  0  0  0  0
  -29.6373  -13.5108   17.7727 H   0  0  0  0  0  0
  -27.8269  -11.3095   18.8167 H   0  0  0  0  0  0
  -27.3451  -12.6397   17.8005 H   0  0  0  0  0  0
  -27.7197  -14.2524   19.6030 H   0  0  0  0  0  0
  -28.6950  -11.8983   21.2980 H   0  0  0  0  0  0
  -28.4672  -13.5054   21.9012 H   0  0  0  0  0  0
  -25.2748   -9.5678   22.4754 H   0  0  0  0  0  0
  -24.0004   -7.4602   22.7432 H   0  0  0  0  0  0
  -21.0815   -8.8759   19.8952 H   0  0  0  0  0  0
  -22.3675  -10.9677   19.6174 H   0  0  0  0  0  0
  -21.2016   -7.6148   23.9732 H   0  0  0  0  0  0
  -21.1470   -6.0504   25.9082 H   0  0  0  0  0  0
  -22.0600   -2.7611   23.2815 H   0  0  0  0  0  0
  -22.3980  -11.9782   22.4653 H   0  0  0  0  0  0
  -21.1053  -13.1224   22.2484 H   0  0  0  0  0  0
  -24.6726  -15.8431   20.5175 H   0  0  0  0  0  0
  -26.2937  -15.6230   20.0989 H   0  0  0  0  0  0
  -26.7102  -32.5551   23.1149 H   0  0  0  0  0  0
  -25.0097  -33.9798   25.0511 H   0  0  0  0  0  0
  -22.6898  -31.3078   21.4121 H   0  0  0  0  0  0
  -23.3752  -35.9634   23.3308 H   0  0  0  0  0  0
  -24.3574  -36.8902   22.2044 H   0  0  0  0  0  0
  -23.7214  -37.6515   23.6635 H   0  0  0  0  0  0
  -26.0381  -31.5961   20.5918 H   0  0  0  0  0  0
  -26.8218  -30.8885   21.9773 H   0  0  0  0  0  0
  -28.1018  -29.0990   21.1518 H   0  0  0  0  0  0
  -26.0130  -25.9839   18.9933 H   0  0  0  0  0  0
  -23.9706  -27.2970   19.0401 H   0  0  0  0  0  0
  -23.7243  -30.5985   19.4077 H   0  0  0  0  0  0
  -22.7344  -29.2442   19.8677 H   0  0  0  0  0  0
  -25.1280  -36.1993   25.0834 H   0  0  0  0  0  0
  -20.9953  -28.3219   24.1447 H   0  0  0  0  0  0
  -20.5673  -26.2271   23.3590 H   0  0  0  0  0  0
  -21.6644  -26.7453   22.1211 H   0  0  0  0  0  0
  -19.6919  -25.6308   21.1214 H   0  0  0  0  0  0
  -19.6690  -27.3216   20.6751 H   0  0  0  0  0  0
  -17.4201  -26.6670   21.4014 H   0  0  0  0  0  0
  -18.0343  -26.0050   22.9002 H   0  0  0  0  0  0
  -19.7930  -30.7254   24.2287 H   0  0  0  0  0  0
  -17.5011  -31.6268   24.5161 H   0  0  0  0  0  0
  -15.5347  -30.2994   23.7635 H   0  0  0  0  0  0
  -15.8666  -28.0823   22.7052 H   0  0  0  0  0  0
  -24.5970  -30.6965   25.7790 H   0  0  0  0  0  0
  -24.8903  -32.2806   26.4887 H   0  0  0  0  0  0
  -25.8129  -30.8867   27.0203 H   0  0  0  0  0  0
  -26.2830  -29.6830   24.1055 H   0  0  0  0  0  0
  -27.4038  -29.7227   25.4481 H   0  0  0  0  0  0
  -27.8685  -30.4363   23.9201 H   0  0  0  0  0  0
  -27.2720  -33.3581   26.2070 H   0  0  0  0  0  0
  -28.3892  -32.6799   25.0297 H   0  0  0  0  0  0
  -28.0723  -31.8362   26.5368 H   0  0  0  0  0  0
  -28.2610  -38.0103   24.7539 H   0  0  0  0  0  0
  -28.1062  -36.2635   24.6276 H   0  0  0  0  0  0
  -27.2300  -37.1442   25.8874 H   0  0  0  0  0  0
  -20.9282  -29.8758   21.6972 H   0  0  0  0  0  0
  -26.0179  -38.2884   24.1434 H   0  0  0  0  0  0
  -27.8668  -16.4048   22.4840 H   0  0  0  0  0  0
  -25.9594  -17.9556   22.3013 H   0  0  0  0  0  0
  -30.3982  -19.2977   20.5189 H   0  0  0  0  0  0
  -32.1045  -23.3390   20.6021 H   0  0  0  0  0  0
  -31.3743  -21.7988   21.3027 H   0  0  0  0  0  0
  -29.9988  -24.6056   18.8946 H   0  0  0  0  0  0
  -30.4658  -25.3128   20.4118 H   0  0  0  0  0  0
  -28.4005  -24.9591   22.2822 H   0  0  0  0  0  0
  -26.7840  -25.1852   21.6560 H   0  0  0  0  0  0
  -26.7669  -23.0333   20.5741 H   0  0  0  0  0  0
  -27.1499  -22.7989   22.2563 H   0  0  0  0  0  0
  -27.7429  -24.8862   19.2906 H   0  0  0  0  0  0
  -30.9271  -16.8382   22.5354 H   0  0  0  0  0  0
  -31.2021  -17.0457   20.8218 H   0  0  0  0  0  0
  -27.6880  -21.4363   19.4005 H   0  0  0  0  0  0
  -29.3737  -21.1302   19.4036 H   0  0  0  0  0  0
  -29.1742  -15.0611   21.7323 H   0  0  0  0  0  0
  -29.0293  -22.0050   21.8365 H   0  0  0  0  0  0
  1 25  1  0  0  0
  1 30  2  0  0  0
  1 85  1  0  0  0
  2  3  1  0  0  0
  2 25  1  0  0  0
  2 88  1  0  0  0
  2 89  1  0  0  0
  3  4  1  0  0  0
  3 90  1  0  0  0
  3 91  1  0  0  0
  4  5  1  0  0  0
  4 92  1  0  0  0
  4 93  1  0  0  0
  5  6  1  0  0  0
  5 26  1  0  0  0
  5 94  1  0  0  0
  6 25  1  0  0  0
  6 95  1  0  0  0
  6 96  1  0  0  0
  7  8  2  0  0  0
  7 26  1  0  0  0
  7 29  1  0  0  0
  8  9  1  0  0  0
  8 22  1  0  0  0
  9 10  1  0  0  0
  9 27  2  0  0  0
 10 11  2  0  0  0
 10 15  1  0  0  0
 11 12  1  0  0  0
 11 97  1  0  0  0
 12 13  2  0  0  0
 12 98  1  0  0  0
 13 14  1  0  0  0
 13 31  1  0  0  0
 14 15  2  0  0  0
 14 99  1  0  0  0
 15100  1  0  0  0
 16 17  2  0  0  0
 16 21  1  0  0  0
 16 31  1  0  0  0
 17 18  1  0  0  0
 17101  1  0  0  0
 18 19  2  0  0  0
 18102  1  0  0  0
 19 20  1  0  0  0
 19 24  1  0  0  0
 20 21  2  0  0  0
 20103  1  0  0  0
 21 23  1  0  0  0
 22 28  1  0  0  0
 22 32  2  0  0  0
 26 27  1  0  0  0
 28104  1  0  0  0
 28105  1  0  0  0
 29106  1  0  0  0
 29107  1  0  0  0
 33 34  1  0  0  0
 33 66  1  0  0  0
 33 70  2  0  0  0
 34 36  1  0  0  0
 34 59  1  0  0  0
 34108  1  0  0  0
 35 44  2  0  0  0
 35 45  1  0  0  0
 35 68  1  0  0  0
 36 56  1  0  0  0
 36109  1  0  0  0
 37 39  1  0  0  0
 37 47  1  0  0  0
 37 66  1  0  0  0
 37110  1  0  0  0
 38 43  2  0  0  0
 38 46  1  0  0  0
 38 47  1  0  0  0
 39 64  1  0  0  0
 39 67  2  0  0  0
 40 52  1  0  0  0
 40 53  2  0  0  0
 40 58  1  0  0  0
 41111  1  0  0  0
 41112  1  0  0  0
 41113  1  0  0  0
 41 48  1  0  0  0
 42 43  1  0  0  0
 42 66  1  0  0  0
 42114  1  0  0  0
 42115  1  0  0  0
 43 44  1  0  0  0
 44116  1  0  0  0
 45 46  2  0  0  0
 45117  1  0  0  0
 46118  1  0  0  0
 47119  1  0  0  0
 47120  1  0  0  0
 48 56  1  0  0  0
 48 65  1  0  0  0
 48121  1  0  0  0
 49 50  1  0  0  0
 49 53  1  0  0  0
 49 64  1  0  0  0
 49122  1  0  0  0
 50 51  1  0  0  0
 50123  1  0  0  0
 50124  1  0  0  0
 51 52  1  0  0  0
 51125  1  0  0  0
 51126  1  0  0  0
 52127  1  0  0  0
 52128  1  0  0  0
 53 54  1  0  0  0
 54 55  2  0  0  0
 54129  1  0  0  0
 55 57  1  0  0  0
 55130  1  0  0  0
 56 69  2  0  0  0
 57 58  2  0  0  0
 57131  1  0  0  0
 58132  1  0  0  0
 59 60  1  0  0  0
 59 61  1  0  0  0
 59 62  1  0  0  0
 60133  1  0  0  0
 60134  1  0  0  0
 60135  1  0  0  0
 61136  1  0  0  0
 61137  1  0  0  0
 61138  1  0  0  0
 62139  1  0  0  0
 62140  1  0  0  0
 62141  1  0  0  0
 63 65  1  0  0  0
 63142  1  0  0  0
 63143  1  0  0  0
 63144  1  0  0  0
 64145  1  0  0  0
 65146  1  0  0  0
 68 82  1  0  0  0
 71 72  2  0  0  0
 71 74  1  0  0  0
 71147  1  0  0  0
 72 76  1  0  0  0
 72148  1  0  0  0
 73 74  2  0  0  0
 73 75  1  0  0  0
 73149  1  0  0  0
 74 83  1  0  0  0
 75 76  2  0  0  0
 75 84  1  0  0  0
 76 87  1  0  0  0
 77 78  2  0  0  0
 77 79  1  0  0  0
 77 86  1  0  0  0
 78150  1  0  0  0
 78151  1  0  0  0
 79 82  1  0  0  0
 79152  1  0  0  0
 79153  1  0  0  0
 80 81  1  0  0  0
 80 82  1  0  0  0
 80154  1  0  0  0
 80155  1  0  0  0
 81 86  1  0  0  0
 81156  1  0  0  0
 81157  1  0  0  0
 82158  1  0  0  0
 83 85  1  0  0  0
 83159  1  0  0  0
 83160  1  0  0  0
 84161  1  0  0  0
 84162  1  0  0  0
 84 86  1  0  0  0
 85163  1  0  0  0
 86164  1  0  0  0
M  CHG  1  86   1
M  ISO  4   1 100  68 101  82 101  85 100
M  END
> <chiral flag>
0

> <version>
0

> <s_m_source_file>
/data/baiqing/PycharmProjects/Reinvent-master-3.2/result/LINK_invent/BTK/process_docking_weight1_custom_product_contain_oxygen_bond_distance_aromatic_linkinvent_7_9_3/rearranged_h_0046.sdf

> <i_m_source_file_index>
62

> <r_mmod_Potential_Energy-OPLS-2005>
-229.815368652344

> <r_mmod_Stretch_Energy-OPLS-2005>
42.4339599609375

> <r_mmod_Bend_Energy-OPLS-2005>
115.928131103516

> <r_mmod_Torsional_Energy-OPLS-2005>
215.381011962891

> <r_mmod_Improper_Torsional_Energy-OPLS-2005>
2.66688561439514

> <r_mmod_Van_der_Waal_Energy-OPLS-2005>
156.711059570312

> <r_mmod_Electrostatic_Energy-OPLS-2005>
-339.886993408203

> <r_mmod_Solvation_Energy-OPLS-2005>
-433.639495849609

> <b_mmod_Minimization_Converged-OPLS-2005>
0

> <r_mmod_RMS_Derivative-OPLS-2005>
2.01957893371582

$$$$
62
                    3D
 Structure written by MMmdl.
171180  0  0  1  0            999 V2000
  -30.6112  -14.6321   20.5060 C   0  0  0  0  0  0
  -30.4403  -12.3912   19.4471 C   0  0  0  0  0  0
  -29.5083  -12.5251   18.2217 C   0  0  0  0  0  0
  -28.0306  -12.3629   18.6286 C   0  0  0  0  0  0
  -27.6567  -13.2175   19.8688 C   0  0  2  0  0  0
  -28.7018  -13.0491   20.9954 C   0  0  0  0  0  0
  -25.2571  -13.8173   20.5680 C   0  0  0  0  0  0
  -24.1826  -13.0440   20.9150 C   0  0  0  0  0  0
  -24.6390  -11.6905   20.8695 C   0  0  0  0  0  0
  -23.9057  -10.4283   21.0379 C   0  0  0  0  0  0
  -24.3606   -9.4208   21.9169 C   0  0  0  0  0  0
  -23.6279   -8.2257   22.0759 C   0  0  0  0  0  0
  -22.4267   -8.0286   21.3550 C   0  0  0  0  0  0
  -21.9884   -9.0259   20.4652 C   0  0  0  0  0  0
  -22.7224  -10.2132   20.3045 C   0  0  0  0  0  0
  -21.6861   -6.0728   22.5266 C   0  0  0  0  0  0
  -21.4020   -6.5627   23.8202 C   0  0  0  0  0  0
  -21.3659   -5.6777   24.9158 C   0  0  0  0  0  0
  -21.6051   -4.3045   24.7215 C   0  0  0  0  0  0
  -21.8823   -3.8135   23.4330 C   0  0  0  0  0  0
  -21.9196   -4.6948   22.3383 C   0  0  0  0  0  0
  -22.7854  -13.5254   21.1816 C   0  0  0  0  0  0
  -22.1669   -4.2136   21.0957 F   0  0  0  0  0  0
  -21.5621   -3.4527   25.7730 F   0  0  0  0  0  0
  -30.0182  -13.3984   20.4399 N   0  0  0  0  0  0
  -26.3007  -12.9355   20.3330 N   0  0  0  0  0  0
  -25.9326  -11.6505   20.5731 N   0  0  0  0  0  0
  -22.0484  -12.8271   22.0369 N   0  0  0  0  0  0
  -25.4278  -15.1898   20.4148 N   0  0  0  0  0  0
  -31.7703  -14.8093   20.1209 O   0  0  0  0  0  0
  -21.6645   -6.8876   21.4237 O   0  0  0  0  0  0
  -22.3549  -14.5565   20.6670 O   0  0  0  0  0  0
  -24.6232  -31.8601   23.2018 C   0  0  0  0  0  0
  -25.9081  -32.4785   23.8343 C   0  0  1  0  0  0
  -27.2252  -27.3386   20.1281 C   0  0  0  0  0  0
  -25.5901  -33.8581   24.2272 N   0  0  0  0  0  0
  -23.4158  -30.4808   21.5451 C   0  0  2  0  0  0
  -24.8616  -28.9285   20.1202 C   0  0  0  0  0  0
  -22.7448  -29.4618   22.4960 C   0  0  0  0  0  0
  -18.0283  -28.1384   22.8488 C   0  0  0  0  0  0
  -24.1484  -36.7299   23.2640 C   0  0  0  0  0  0
  -25.9521  -30.7980   21.3672 C   0  0  0  0  0  0
  -26.0281  -29.4230   20.7180 C   0  0  0  0  0  0
  -27.2165  -28.6411   20.7061 C   0  0  0  0  0  0
  -26.0383  -26.8745   19.5263 C   0  0  0  0  0  0
  -24.8664  -27.6575   19.5180 C   0  0  0  0  0  0
  -23.6298  -29.8086   20.1625 C   0  0  0  0  0  0
  -25.4106  -36.3086   24.0333 C   0  0  1  0  0  0
  -20.5872  -28.3674   23.1307 C   0  0  2  0  0  0
  -20.6768  -26.9402   22.5422 C   0  0  0  0  0  0
  -19.5746  -26.6385   21.5218 C   0  0  0  0  0  0
  -18.1924  -26.7933   22.1627 C   0  0  0  0  0  0
  -19.1533  -28.8848   23.2893 C   0  0  0  0  0  0
  -18.9460  -30.1454   23.8910 C   0  0  0  0  0  0
  -17.6457  -30.6581   24.0576 C   0  0  0  0  0  0
  -25.9043  -34.9458   23.5109 C   0  0  0  0  0  0
  -16.5353  -29.9085   23.6331 C   0  0  0  0  0  0
  -16.7267  -28.6508   23.0343 C   0  0  0  0  0  0
  -26.4470  -31.6595   25.0713 C   0  0  0  0  0  0
  -25.3710  -31.3748   26.1448 C   0  0  0  0  0  0
  -27.0305  -30.3019   24.6156 C   0  0  0  0  0  0
  -27.6031  -32.4328   25.7478 C   0  0  0  0  0  0
  -27.5575  -37.1802   24.8457 C   0  0  0  0  0  0
  -21.4166  -29.3030   22.3701 N   0  0  0  0  0  0
  -26.4285  -37.3778   23.9407 N   0  0  0  0  0  0
  -24.6823  -31.0626   22.0958 N   0  0  0  0  0  0
  -23.4182  -28.8175   23.3043 O   0  0  0  0  0  0
  -28.3729  -26.5500   20.0820 O   0  0  0  0  0  0
  -26.5623  -34.8922   22.4680 O   0  0  0  0  0  0
  -23.5401  -32.1387   23.7365 O   0  0  0  0  0  0
  -29.0299  -19.3094   21.5419 C   0  0  0  0  0  0
  -29.4090  -17.9508   21.7174 C   0  0  0  0  0  0
  -28.8796  -19.9041   20.2624 C   0  0  0  0  0  0
  -29.2039  -19.0487   19.1495 C   0  0  0  0  0  0
  -29.6595  -17.6862   19.3335 C   0  0  0  0  0  0
  -29.7116  -17.0912   20.6338 C   0  0  0  0  0  0
  -28.3992  -23.9802   19.7505 C   0  0  0  0  0  0
  -28.2898  -23.1887   16.1342 C   0  0  0  0  0  0
  -28.3307  -24.1040   18.4069 C   0  0  0  0  0  0
  -28.6318  -23.0830   17.4272 C   0  0  0  0  0  0
  -30.0958  -23.8637   22.1397 C   0  0  0  0  0  0
  -29.7057  -25.2222   21.5118 C   0  0  0  0  0  0
  -30.0699  -22.7026   21.1223 C   0  0  0  0  0  0
  -28.3810  -25.2157   20.7085 C   0  0  1  0  0  0
  -28.9715  -19.5427   17.7204 C   0  0  0  0  0  0
  -30.0016  -16.8313   18.1128 C   0  0  0  0  0  0
  -28.1382  -21.3110   20.1343 C   0  0  0  0  0  0
  -29.7938  -15.6532   20.9153 N   0  0  0  0  0  0
  -28.7246  -22.6673   20.5217 N   0  3  2  0  0  0
  -31.4808  -12.5185   19.1441 H   0  0  0  0  0  0
  -30.3735  -11.3909   19.8760 H   0  0  0  0  0  0
  -29.7673  -11.7860   17.4624 H   0  0  0  0  0  0
  -29.6552  -13.5021   17.7588 H   0  0  0  0  0  0
  -27.8564  -11.3079   18.8388 H   0  0  0  0  0  0
  -27.3838  -12.6180   17.7879 H   0  0  0  0  0  0
  -27.6781  -14.2570   19.5424 H   0  0  0  0  0  0
  -28.7133  -12.0198   21.3557 H   0  0  0  0  0  0
  -28.4465  -13.6591   21.8632 H   0  0  0  0  0  0
  -25.2751   -9.5688   22.4749 H   0  0  0  0  0  0
  -23.9978   -7.4649   22.7494 H   0  0  0  0  0  0
  -21.0809   -8.8791   19.8969 H   0  0  0  0  0  0
  -22.3681  -10.9675   19.6159 H   0  0  0  0  0  0
  -21.2022   -7.6137   23.9703 H   0  0  0  0  0  0
  -21.1480   -6.0504   25.9063 H   0  0  0  0  0  0
  -22.0599   -2.7597   23.2838 H   0  0  0  0  0  0
  -22.4098  -11.9942   22.4777 H   0  0  0  0  0  0
  -21.1121  -13.1351   22.2586 H   0  0  0  0  0  0
  -24.6598  -15.8429   20.5295 H   0  0  0  0  0  0
  -26.2876  -15.6376   20.1213 H   0  0  0  0  0  0
  -26.7156  -32.5464   23.1101 H   0  0  0  0  0  0
  -25.0024  -33.9722   25.0403 H   0  0  0  0  0  0
  -22.7090  -31.3001   21.4001 H   0  0  0  0  0  0
  -23.3740  -35.9637   23.3310 H   0  0  0  0  0  0
  -24.3574  -36.8913   22.2053 H   0  0  0  0  0  0
  -23.7243  -37.6505   23.6662 H   0  0  0  0  0  0
  -26.0758  -31.5588   20.5952 H   0  0  0  0  0  0
  -26.8343  -30.8513   21.9928 H   0  0  0  0  0  0
  -28.1204  -29.0240   21.1588 H   0  0  0  0  0  0
  -26.0163  -25.9023   19.0537 H   0  0  0  0  0  0
  -23.9703  -27.2731   19.0495 H   0  0  0  0  0  0
  -23.7482  -30.5809   19.4016 H   0  0  0  0  0  0
  -22.7490  -29.2370   19.8651 H   0  0  0  0  0  0
  -25.1280  -36.1945   25.0825 H   0  0  0  0  0  0
  -20.9960  -28.3251   24.1430 H   0  0  0  0  0  0
  -20.5667  -26.2277   23.3609 H   0  0  0  0  0  0
  -21.6641  -26.7435   22.1221 H   0  0  0  0  0  0
  -19.6906  -25.6301   21.1238 H   0  0  0  0  0  0
  -19.6689  -27.3205   20.6759 H   0  0  0  0  0  0
  -17.4187  -26.6674   21.4036 H   0  0  0  0  0  0
  -18.0330  -26.0075   22.9023 H   0  0  0  0  0  0
  -19.7932  -30.7269   24.2280 H   0  0  0  0  0  0
  -17.5011  -31.6260   24.5178 H   0  0  0  0  0  0
  -15.5352  -30.2992   23.7648 H   0  0  0  0  0  0
  -15.8669  -28.0839   22.7039 H   0  0  0  0  0  0
  -24.5865  -30.7115   25.7786 H   0  0  0  0  0  0
  -24.8930  -32.2931   26.4873 H   0  0  0  0  0  0
  -25.8034  -30.8923   27.0222 H   0  0  0  0  0  0
  -26.2880  -29.6786   24.1161 H   0  0  0  0  0  0
  -27.3979  -29.7254   25.4654 H   0  0  0  0  0  0
  -27.8754  -30.4296   23.9388 H   0  0  0  0  0  0
  -27.2632  -33.3613   26.2072 H   0  0  0  0  0  0
  -28.3830  -32.6910   25.0308 H   0  0  0  0  0  0
  -28.0711  -31.8453   26.5384 H   0  0  0  0  0  0
  -28.2592  -38.0097   24.7501 H   0  0  0  0  0  0
  -28.1073  -36.2634   24.6283 H   0  0  0  0  0  0
  -27.2303  -37.1452   25.8862 H   0  0  0  0  0  0
  -20.9335  -29.8736   21.6905 H   0  0  0  0  0  0
  -26.0172  -38.2854   24.1405 H   0  0  0  0  0  0
  -28.7626  -19.8738   22.4246 H   0  0  0  0  0  0
  -29.4104  -17.5501   22.7215 H   0  0  0  0  0  0
  -28.5527  -22.4154   15.4258 H   0  0  0  0  0  0
  -27.7447  -24.0432   15.7568 H   0  0  0  0  0  0
  -28.1532  -25.0986   18.0209 H   0  0  0  0  0  0
  -29.1918  -22.2155   17.7328 H   0  0  0  0  0  0
  -29.4200  -23.6447   22.9680 H   0  0  0  0  0  0
  -31.0894  -23.9399   22.5835 H   0  0  0  0  0  0
  -30.5115  -25.5246   20.8397 H   0  0  0  0  0  0
  -29.6603  -25.9889   22.2856 H   0  0  0  0  0  0
  -30.3109  -21.7731   21.6353 H   0  0  0  0  0  0
  -30.8187  -22.8377   20.3405 H   0  0  0  0  0  0
  -27.5329  -25.1192   21.3894 H   0  0  0  0  0  0
  -28.1459  -20.2382   17.6223 H   0  0  0  0  0  0
  -28.6719  -18.7380   17.0513 H   0  0  0  0  0  0
  -29.8734  -20.0047   17.3174 H   0  0  0  0  0  0
  -30.3417  -17.4209   17.2641 H   0  0  0  0  0  0
  -29.1401  -16.2392   17.8052 H   0  0  0  0  0  0
  -30.8317  -16.1595   18.2991 H   0  0  0  0  0  0
  -27.3041  -21.2119   20.8297 H   0  0  0  0  0  0
  -27.6020  -21.4092   19.1993 H   0  0  0  0  0  0
  -28.9886  -15.3002   21.4084 H   0  0  0  0  0  0
  -28.1852  -22.7660   21.3688 H   0  0  0  0  0  0
  1 25  1  0  0  0
  1 30  2  0  0  0
  1 88  1  0  0  0
  2  3  1  0  0  0
  2 25  1  0  0  0
  2 90  1  0  0  0
  2 91  1  0  0  0
  3  4  1  0  0  0
  3 92  1  0  0  0
  3 93  1  0  0  0
  4  5  1  0  0  0
  4 94  1  0  0  0
  4 95  1  0  0  0
  5  6  1  0  0  0
  5 26  1  0  0  0
  5 96  1  0  0  0
  6 25  1  0  0  0
  6 97  1  0  0  0
  6 98  1  0  0  0
  7  8  2  0  0  0
  7 26  1  0  0  0
  7 29  1  0  0  0
  8  9  1  0  0  0
  8 22  1  0  0  0
  9 10  1  0  0  0
  9 27  2  0  0  0
 10 11  2  0  0  0
 10 15  1  0  0  0
 11 12  1  0  0  0
 11 99  1  0  0  0
 12 13  2  0  0  0
 12100  1  0  0  0
 13 14  1  0  0  0
 13 31  1  0  0  0
 14 15  2  0  0  0
 14101  1  0  0  0
 15102  1  0  0  0
 16 17  2  0  0  0
 16 21  1  0  0  0
 16 31  1  0  0  0
 17 18  1  0  0  0
 17103  1  0  0  0
 18 19  2  0  0  0
 18104  1  0  0  0
 19 20  1  0  0  0
 19 24  1  0  0  0
 20 21  2  0  0  0
 20105  1  0  0  0
 21 23  1  0  0  0
 22 28  1  0  0  0
 22 32  2  0  0  0
 26 27  1  0  0  0
 28106  1  0  0  0
 28107  1  0  0  0
 29108  1  0  0  0
 29109  1  0  0  0
 33 34  1  0  0  0
 33 66  1  0  0  0
 33 70  2  0  0  0
 34 36  1  0  0  0
 34 59  1  0  0  0
 34110  1  0  0  0
 35 44  2  0  0  0
 35 45  1  0  0  0
 35 68  1  0  0  0
 36 56  1  0  0  0
 36111  1  0  0  0
 37 39  1  0  0  0
 37 47  1  0  0  0
 37 66  1  0  0  0
 37112  1  0  0  0
 38 43  2  0  0  0
 38 46  1  0  0  0
 38 47  1  0  0  0
 39 64  1  0  0  0
 39 67  2  0  0  0
 40 52  1  0  0  0
 40 53  2  0  0  0
 40 58  1  0  0  0
 41113  1  0  0  0
 41114  1  0  0  0
 41115  1  0  0  0
 41 48  1  0  0  0
 42 43  1  0  0  0
 42 66  1  0  0  0
 42116  1  0  0  0
 42117  1  0  0  0
 43 44  1  0  0  0
 44118  1  0  0  0
 45 46  2  0  0  0
 45119  1  0  0  0
 46120  1  0  0  0
 47121  1  0  0  0
 47122  1  0  0  0
 48 56  1  0  0  0
 48 65  1  0  0  0
 48123  1  0  0  0
 49 50  1  0  0  0
 49 53  1  0  0  0
 49 64  1  0  0  0
 49124  1  0  0  0
 50 51  1  0  0  0
 50125  1  0  0  0
 50126  1  0  0  0
 51 52  1  0  0  0
 51127  1  0  0  0
 51128  1  0  0  0
 52129  1  0  0  0
 52130  1  0  0  0
 53 54  1  0  0  0
 54 55  2  0  0  0
 54131  1  0  0  0
 55 57  1  0  0  0
 55132  1  0  0  0
 56 69  2  0  0  0
 57 58  2  0  0  0
 57133  1  0  0  0
 58134  1  0  0  0
 59 60  1  0  0  0
 59 61  1  0  0  0
 59 62  1  0  0  0
 60135  1  0  0  0
 60136  1  0  0  0
 60137  1  0  0  0
 61138  1  0  0  0
 61139  1  0  0  0
 61140  1  0  0  0
 62141  1  0  0  0
 62142  1  0  0  0
 62143  1  0  0  0
 63 65  1  0  0  0
 63144  1  0  0  0
 63145  1  0  0  0
 63146  1  0  0  0
 64147  1  0  0  0
 65148  1  0  0  0
 68 84  1  0  0  0
 71 72  2  0  0  0
 71 73  1  0  0  0
 71149  1  0  0  0
 72 76  1  0  0  0
 72150  1  0  0  0
 73 74  2  0  0  0
 73 87  1  0  0  0
 74 75  1  0  0  0
 74 85  1  0  0  0
 75 76  2  0  0  0
 75 86  1  0  0  0
 76 88  1  0  0  0
 77 79  2  0  0  0
 77 84  1  0  0  0
 77 89  1  0  0  0
 78 80  2  0  0  0
 78151  1  0  0  0
 78152  1  0  0  0
 79 80  1  0  0  0
 79153  1  0  0  0
 80154  1  0  0  0
 81 82  1  0  0  0
 81 83  1  0  0  0
 81155  1  0  0  0
 81156  1  0  0  0
 82 84  1  0  0  0
 82157  1  0  0  0
 82158  1  0  0  0
 83 89  1  0  0  0
 83159  1  0  0  0
 83160  1  0  0  0
 84161  1  0  0  0
 85162  1  0  0  0
 85163  1  0  0  0
 85164  1  0  0  0
 86165  1  0  0  0
 86166  1  0  0  0
 86167  1  0  0  0
 87168  1  0  0  0
 87169  1  0  0  0
 87 89  1  0  0  0
 88170  1  0  0  0
 89171  1  0  0  0
M  CHG  1  89   1
M  ISO  4   1 100  68 101  84 101  88 100
M  END
> <chiral flag>
0

> <version>
0

> <s_m_source_file>
/data/baiqing/PycharmProjects/Reinvent-master-3.2/result/LINK_invent/BTK/process_docking_weight1_custom_product_contain_oxygen_bond_distance_aromatic_linkinvent_7_9_3/rearranged_h_0046.sdf

> <i_m_source_file_index>
63

> <r_mmod_Potential_Energy-OPLS-2005>
35.7422523498535

> <r_mmod_Stretch_Energy-OPLS-2005>
89.8649215698242

> <r_mmod_Bend_Energy-OPLS-2005>
197.231826782227

> <r_mmod_Torsional_Energy-OPLS-2005>
284.816436767578

> <r_mmod_Improper_Torsional_Energy-OPLS-2005>
7.40447664260864

> <r_mmod_Van_der_Waal_Energy-OPLS-2005>
148.475189208984

> <r_mmod_Electrostatic_Energy-OPLS-2005>
-301.993988037109

> <r_mmod_Solvation_Energy-OPLS-2005>
-429.820831298828

> <b_mmod_Minimization_Converged-OPLS-2005>
0

> <r_mmod_RMS_Derivative-OPLS-2005>
2.167325258255

$$$$
63
                    3D
 Structure written by MMmdl.
158166  0  0  1  0            999 V2000
  -30.7038  -14.4372   20.6005 C   0  0  0  0  0  0
  -30.4205  -12.2855   19.4280 C   0  0  0  0  0  0
  -29.4959  -12.5104   18.2151 C   0  0  0  0  0  0
  -28.0175  -12.3661   18.6225 C   0  0  0  0  0  0
  -27.6645  -13.2007   19.8820 C   0  0  2  0  0  0
  -28.7009  -12.9626   21.0040 C   0  0  0  0  0  0
  -25.2586  -13.8149   20.5646 C   0  0  0  0  0  0
  -24.1830  -13.0441   20.9147 C   0  0  0  0  0  0
  -24.6380  -11.6910   20.8742 C   0  0  0  0  0  0
  -23.9051  -10.4296   21.0409 C   0  0  0  0  0  0
  -24.3604   -9.4211   21.9190 C   0  0  0  0  0  0
  -23.6276   -8.2248   22.0761 C   0  0  0  0  0  0
  -22.4261   -8.0286   21.3544 C   0  0  0  0  0  0
  -21.9891   -9.0267   20.4652 C   0  0  0  0  0  0
  -22.7226  -10.2141   20.3060 C   0  0  0  0  0  0
  -21.6859   -6.0738   22.5279 C   0  0  0  0  0  0
  -21.4036   -6.5638   23.8220 C   0  0  0  0  0  0
  -21.3655   -5.6777   24.9176 C   0  0  0  0  0  0
  -21.6033   -4.3042   24.7218 C   0  0  0  0  0  0
  -21.8822   -3.8145   23.4340 C   0  0  0  0  0  0
  -21.9197   -4.6965   22.3400 C   0  0  0  0  0  0
  -22.7857  -13.5259   21.1784 C   0  0  0  0  0  0
  -22.1651   -4.2154   21.0978 F   0  0  0  0  0  0
  -21.5619   -3.4523   25.7724 F   0  0  0  0  0  0
  -30.0394  -13.2587   20.4633 N   0  0  0  0  0  0
  -26.3032  -12.9309   20.3386 N   0  0  0  0  0  0
  -25.9317  -11.6478   20.5806 N   0  0  0  0  0  0
  -22.0462  -12.8320   22.0362 N   0  0  0  0  0  0
  -25.4306  -15.1865   20.4038 N   0  0  0  0  0  0
  -31.8040  -14.6560   20.0855 O   0  0  0  0  0  0
  -21.6634   -6.8879   21.4241 O   0  0  0  0  0  0
  -22.3566  -14.5558   20.6601 O   0  0  0  0  0  0
  -24.6146  -31.8664   23.2114 C   0  0  0  0  0  0
  -25.9035  -32.4833   23.8416 C   0  0  1  0  0  0
  -27.2400  -27.4430   20.1048 C   0  0  0  0  0  0
  -25.5889  -33.8627   24.2332 N   0  0  0  0  0  0
  -23.4060  -30.4898   21.5479 C   0  0  2  0  0  0
  -24.8563  -28.9535   20.1160 C   0  0  0  0  0  0
  -22.7422  -29.4646   22.4958 C   0  0  0  0  0  0
  -18.0270  -28.1396   22.8508 C   0  0  0  0  0  0
  -24.1480  -36.7332   23.2646 C   0  0  0  0  0  0
  -25.9318  -30.8333   21.3645 C   0  0  0  0  0  0
  -26.0117  -29.4654   20.7206 C   0  0  0  0  0  0
  -27.2092  -28.7151   20.7181 C   0  0  0  0  0  0
  -26.0749  -26.9410   19.4917 C   0  0  0  0  0  0
  -24.8810  -27.6881   19.5008 C   0  0  0  0  0  0
  -23.6191  -29.8221   20.1615 C   0  0  0  0  0  0
  -25.4092  -36.3122   24.0349 C   0  0  1  0  0  0
  -20.5864  -28.3671   23.1312 C   0  0  2  0  0  0
  -20.6754  -26.9405   22.5412 C   0  0  0  0  0  0
  -19.5723  -26.6380   21.5226 C   0  0  0  0  0  0
  -18.1902  -26.7945   22.1635 C   0  0  0  0  0  0
  -19.1526  -28.8846   23.2912 C   0  0  0  0  0  0
  -18.9459  -30.1456   23.8927 C   0  0  0  0  0  0
  -17.6461  -30.6598   24.0590 C   0  0  0  0  0  0
  -25.9018  -34.9487   23.5131 C   0  0  0  0  0  0
  -16.5348  -29.9118   23.6333 C   0  0  0  0  0  0
  -16.7263  -28.6532   23.0349 C   0  0  0  0  0  0
  -26.4461  -31.6632   25.0755 C   0  0  0  0  0  0
  -25.3735  -31.3738   26.1522 C   0  0  0  0  0  0
  -27.0300  -30.3091   24.6116 C   0  0  0  0  0  0
  -27.6041  -32.4358   25.7509 C   0  0  0  0  0  0
  -27.5571  -37.1808   24.8464 C   0  0  0  0  0  0
  -21.4140  -29.3053   22.3735 N   0  0  0  0  0  0
  -26.4280  -37.3797   23.9419 N   0  0  0  0  0  0
  -24.6691  -31.0773   22.1014 N   0  0  0  0  0  0
  -23.4196  -28.8161   23.2985 O   0  0  0  0  0  0
  -28.3859  -26.6852   20.0748 O   0  0  0  0  0  0
  -26.5582  -34.8942   22.4701 O   0  0  0  0  0  0
  -23.5331  -32.1402   23.7510 O   0  0  0  0  0  0
  -30.5592  -16.7648   23.6962 C   0  0  0  0  0  0
  -30.7829  -17.3658   24.9470 C   0  0  0  0  0  0
  -30.8680  -19.5467   23.8745 C   0  0  0  0  0  0
  -30.4927  -17.5431   22.5139 C   0  0  0  0  0  0
  -30.6315  -18.9619   22.6078 C   0  0  0  0  0  0
  -30.9496  -18.7577   25.0361 C   0  0  0  0  0  0
  -29.1386  -23.3408   21.2330 C   0  0  0  0  0  0
  -29.4113  -24.6182   20.8831 C   0  0  0  0  0  0
  -30.0399  -22.2570   20.8592 C   0  0  0  0  0  0
  -30.2917  -16.8493   21.1604 C   0  0  0  0  0  0
  -30.5896  -19.8819   21.3781 C   0  0  0  0  0  0
  -28.5444  -25.8284   21.2090 C   0  0  0  0  0  0
  -29.8626  -21.1411   21.5847 N   0  0  0  0  0  0
  -30.0098  -15.4094   21.2126 N   0  0  0  0  0  0
  -30.8815  -22.3224   19.9584 O   0  0  0  0  0  0
  -31.2659  -19.4927   26.5658 Cl  0  0  0  0  0  0
  -31.4652  -12.3823   19.1305 H   0  0  0  0  0  0
  -30.3162  -11.2661   19.8061 H   0  0  0  0  0  0
  -29.7342  -11.8060   17.4179 H   0  0  0  0  0  0
  -29.6696  -13.5079   17.8083 H   0  0  0  0  0  0
  -27.8274  -11.3097   18.8146 H   0  0  0  0  0  0
  -27.3687  -12.6414   17.7911 H   0  0  0  0  0  0
  -27.7162  -14.2506   19.5944 H   0  0  0  0  0  0
  -28.6655  -11.9251   21.3371 H   0  0  0  0  0  0
  -28.4605  -13.5536   21.8885 H   0  0  0  0  0  0
  -25.2747   -9.5687   22.4770 H   0  0  0  0  0  0
  -23.9973   -7.4646   22.7498 H   0  0  0  0  0  0
  -21.0810   -8.8821   19.8966 H   0  0  0  0  0  0
  -22.3701  -10.9693   19.6176 H   0  0  0  0  0  0
  -21.2055   -7.6147   23.9731 H   0  0  0  0  0  0
  -21.1454   -6.0503   25.9073 H   0  0  0  0  0  0
  -22.0604   -2.7610   23.2843 H   0  0  0  0  0  0
  -22.4035  -12.0002   22.4818 H   0  0  0  0  0  0
  -21.1096  -13.1431   22.2518 H   0  0  0  0  0  0
  -24.6624  -15.8406   20.5041 H   0  0  0  0  0  0
  -26.2912  -15.6291   20.1063 H   0  0  0  0  0  0
  -26.7106  -32.5541   23.1183 H   0  0  0  0  0  0
  -25.0083  -33.9804   25.0506 H   0  0  0  0  0  0
  -22.6967  -31.3056   21.4045 H   0  0  0  0  0  0
  -23.3743  -35.9666   23.3322 H   0  0  0  0  0  0
  -24.3577  -36.8928   22.2058 H   0  0  0  0  0  0
  -23.7221  -37.6539   23.6645 H   0  0  0  0  0  0
  -26.0338  -31.5898   20.5859 H   0  0  0  0  0  0
  -26.8251  -30.8966   21.9741 H   0  0  0  0  0  0
  -28.1023  -29.1055   21.1846 H   0  0  0  0  0  0
  -26.0933  -25.9712   19.0136 H   0  0  0  0  0  0
  -23.9928  -27.2897   19.0301 H   0  0  0  0  0  0
  -23.7374  -30.5989   19.4039 H   0  0  0  0  0  0
  -22.7437  -29.2453   19.8573 H   0  0  0  0  0  0
  -25.1250  -36.1995   25.0834 H   0  0  0  0  0  0
  -20.9948  -28.3232   24.1437 H   0  0  0  0  0  0
  -20.5637  -26.2284   23.3605 H   0  0  0  0  0  0
  -21.6621  -26.7430   22.1207 H   0  0  0  0  0  0
  -19.6877  -25.6287   21.1259 H   0  0  0  0  0  0
  -19.6673  -27.3202   20.6777 H   0  0  0  0  0  0
  -17.4169  -26.6713   21.4045 H   0  0  0  0  0  0
  -18.0295  -26.0080   22.9024 H   0  0  0  0  0  0
  -19.7934  -30.7269   24.2289 H   0  0  0  0  0  0
  -17.5030  -31.6286   24.5193 H   0  0  0  0  0  0
  -15.5358  -30.3051   23.7634 H   0  0  0  0  0  0
  -15.8655  -28.0889   22.7025 H   0  0  0  0  0  0
  -24.5899  -30.7085   25.7887 H   0  0  0  0  0  0
  -24.8949  -32.2895   26.5001 H   0  0  0  0  0  0
  -25.8104  -30.8904   27.0268 H   0  0  0  0  0  0
  -26.2838  -29.6854   24.1185 H   0  0  0  0  0  0
  -27.4107  -29.7326   25.4552 H   0  0  0  0  0  0
  -27.8660  -30.4455   23.9252 H   0  0  0  0  0  0
  -27.2666  -33.3642   26.2123 H   0  0  0  0  0  0
  -28.3832  -32.6939   25.0330 H   0  0  0  0  0  0
  -28.0740  -31.8471   26.5392 H   0  0  0  0  0  0
  -28.2577  -38.0117   24.7520 H   0  0  0  0  0  0
  -28.1055  -36.2640   24.6250 H   0  0  0  0  0  0
  -27.2298  -37.1442   25.8870 H   0  0  0  0  0  0
  -20.9278  -29.8868   21.7057 H   0  0  0  0  0  0
  -26.0177  -38.2866   24.1456 H   0  0  0  0  0  0
  -30.4513  -15.6904   23.6658 H   0  0  0  0  0  0
  -30.8354  -16.7538   25.8367 H   0  0  0  0  0  0
  -31.0103  -20.6152   23.9613 H   0  0  0  0  0  0
  -28.2364  -23.1242   21.7885 H   0  0  0  0  0  0
  -30.3188  -24.8409   20.3392 H   0  0  0  0  0  0
  -31.1600  -17.0610   20.5326 H   0  0  0  0  0  0
  -29.4323  -17.3017   20.6648 H   0  0  0  0  0  0
  -30.1416  -19.3913   20.5156 H   0  0  0  0  0  0
  -31.6245  -20.0924   21.1004 H   0  0  0  0  0  0
  -29.0300  -26.3958   22.0030 H   0  0  0  0  0  0
  -27.5807  -25.4950   21.5995 H   0  0  0  0  0  0
  -29.1572  -21.1499   22.3082 H   0  0  0  0  0  0
  -29.1209  -15.1439   21.6083 H   0  0  0  0  0  0
  1 25  1  0  0  0
  1 30  2  0  0  0
  1 84  1  0  0  0
  2  3  1  0  0  0
  2 25  1  0  0  0
  2 87  1  0  0  0
  2 88  1  0  0  0
  3  4  1  0  0  0
  3 89  1  0  0  0
  3 90  1  0  0  0
  4  5  1  0  0  0
  4 91  1  0  0  0
  4 92  1  0  0  0
  5  6  1  0  0  0
  5 26  1  0  0  0
  5 93  1  0  0  0
  6 25  1  0  0  0
  6 94  1  0  0  0
  6 95  1  0  0  0
  7  8  2  0  0  0
  7 26  1  0  0  0
  7 29  1  0  0  0
  8  9  1  0  0  0
  8 22  1  0  0  0
  9 10  1  0  0  0
  9 27  2  0  0  0
 10 11  2  0  0  0
 10 15  1  0  0  0
 11 12  1  0  0  0
 11 96  1  0  0  0
 12 13  2  0  0  0
 12 97  1  0  0  0
 13 14  1  0  0  0
 13 31  1  0  0  0
 14 15  2  0  0  0
 14 98  1  0  0  0
 15 99  1  0  0  0
 16 17  2  0  0  0
 16 21  1  0  0  0
 16 31  1  0  0  0
 17 18  1  0  0  0
 17100  1  0  0  0
 18 19  2  0  0  0
 18101  1  0  0  0
 19 20  1  0  0  0
 19 24  1  0  0  0
 20 21  2  0  0  0
 20102  1  0  0  0
 21 23  1  0  0  0
 22 28  1  0  0  0
 22 32  2  0  0  0
 26 27  1  0  0  0
 28103  1  0  0  0
 28104  1  0  0  0
 29105  1  0  0  0
 29106  1  0  0  0
 33 34  1  0  0  0
 33 66  1  0  0  0
 33 70  2  0  0  0
 34 36  1  0  0  0
 34 59  1  0  0  0
 34107  1  0  0  0
 35 44  2  0  0  0
 35 45  1  0  0  0
 35 68  1  0  0  0
 36 56  1  0  0  0
 36108  1  0  0  0
 37 39  1  0  0  0
 37 47  1  0  0  0
 37 66  1  0  0  0
 37109  1  0  0  0
 38 43  2  0  0  0
 38 46  1  0  0  0
 38 47  1  0  0  0
 39 64  1  0  0  0
 39 67  2  0  0  0
 40 52  1  0  0  0
 40 53  2  0  0  0
 40 58  1  0  0  0
 41110  1  0  0  0
 41111  1  0  0  0
 41112  1  0  0  0
 41 48  1  0  0  0
 42 43  1  0  0  0
 42 66  1  0  0  0
 42113  1  0  0  0
 42114  1  0  0  0
 43 44  1  0  0  0
 44115  1  0  0  0
 45 46  2  0  0  0
 45116  1  0  0  0
 46117  1  0  0  0
 47118  1  0  0  0
 47119  1  0  0  0
 48 56  1  0  0  0
 48 65  1  0  0  0
 48120  1  0  0  0
 49 50  1  0  0  0
 49 53  1  0  0  0
 49 64  1  0  0  0
 49121  1  0  0  0
 50 51  1  0  0  0
 50122  1  0  0  0
 50123  1  0  0  0
 51 52  1  0  0  0
 51124  1  0  0  0
 51125  1  0  0  0
 52126  1  0  0  0
 52127  1  0  0  0
 53 54  1  0  0  0
 54 55  2  0  0  0
 54128  1  0  0  0
 55 57  1  0  0  0
 55129  1  0  0  0
 56 69  2  0  0  0
 57 58  2  0  0  0
 57130  1  0  0  0
 58131  1  0  0  0
 59 60  1  0  0  0
 59 61  1  0  0  0
 59 62  1  0  0  0
 60132  1  0  0  0
 60133  1  0  0  0
 60134  1  0  0  0
 61135  1  0  0  0
 61136  1  0  0  0
 61137  1  0  0  0
 62138  1  0  0  0
 62139  1  0  0  0
 62140  1  0  0  0
 63 65  1  0  0  0
 63141  1  0  0  0
 63142  1  0  0  0
 63143  1  0  0  0
 64144  1  0  0  0
 65145  1  0  0  0
 68 82  1  0  0  0
 71 72  2  0  0  0
 71 74  1  0  0  0
 71146  1  0  0  0
 72 76  1  0  0  0
 72147  1  0  0  0
 73 75  1  0  0  0
 73 76  2  0  0  0
 73148  1  0  0  0
 74 75  2  0  0  0
 74 80  1  0  0  0
 75 81  1  0  0  0
 76 86  1  0  0  0
 77 78  2  0  0  0
 77 79  1  0  0  0
 77149  1  0  0  0
 78 82  1  0  0  0
 78150  1  0  0  0
 79 83  1  0  0  0
 79 85  2  0  0  0
 80 84  1  0  0  0
 80151  1  0  0  0
 80152  1  0  0  0
 81 83  1  0  0  0
 81153  1  0  0  0
 81154  1  0  0  0
 82155  1  0  0  0
 82156  1  0  0  0
 83157  1  0  0  0
 84158  1  0  0  0
M  ISO  4   1 100  68 101  82 101  84 100
M  END
> <chiral flag>
0

> <version>
0

> <s_m_source_file>
/data/baiqing/PycharmProjects/Reinvent-master-3.2/result/LINK_invent/BTK/process_docking_weight1_custom_product_contain_oxygen_bond_distance_aromatic_linkinvent_7_9_3/rearranged_h_0046.sdf

> <i_m_source_file_index>
64

> <r_mmod_Potential_Energy-OPLS-2005>
-245.56005859375

> <r_mmod_Stretch_Energy-OPLS-2005>
36.3948364257812

> <r_mmod_Bend_Energy-OPLS-2005>
87.2234268188477

> <r_mmod_Torsional_Energy-OPLS-2005>
216.982818603516

> <r_mmod_Improper_Torsional_Energy-OPLS-2005>
3.81675052642822

> <r_mmod_Van_der_Waal_Energy-OPLS-2005>
156.902542114258

> <r_mmod_Electrostatic_Energy-OPLS-2005>
-517.052368164062

> <r_mmod_Solvation_Energy-OPLS-2005>
-239.504455566406

> <b_mmod_Minimization_Converged-OPLS-2005>
0

> <r_mmod_RMS_Derivative-OPLS-2005>
2.68321704864502

$$$$
64
                    3D
 Structure written by MMmdl.
158167  0  0  1  0            999 V2000
  -30.6016  -14.6579   20.4952 C   0  0  0  0  0  0
  -30.4498  -12.4038   19.4424 C   0  0  0  0  0  0
  -29.5168  -12.5146   18.2153 C   0  0  0  0  0  0
  -28.0359  -12.3546   18.6214 C   0  0  0  0  0  0
  -27.6561  -13.2134   19.8571 C   0  0  2  0  0  0
  -28.7035  -13.0579   20.9846 C   0  0  0  0  0  0
  -25.2590  -13.8153   20.5666 C   0  0  0  0  0  0
  -24.1846  -13.0438   20.9194 C   0  0  0  0  0  0
  -24.6398  -11.6900   20.8717 C   0  0  0  0  0  0
  -23.9047  -10.4293   21.0387 C   0  0  0  0  0  0
  -24.3597   -9.4222   21.9165 C   0  0  0  0  0  0
  -23.6270   -8.2259   22.0750 C   0  0  0  0  0  0
  -22.4262   -8.0286   21.3546 C   0  0  0  0  0  0
  -21.9892   -9.0261   20.4657 C   0  0  0  0  0  0
  -22.7216  -10.2138   20.3041 C   0  0  0  0  0  0
  -21.6857   -6.0721   22.5269 C   0  0  0  0  0  0
  -21.4026   -6.5618   23.8207 C   0  0  0  0  0  0
  -21.3660   -5.6768   24.9166 C   0  0  0  0  0  0
  -21.6036   -4.3028   24.7215 C   0  0  0  0  0  0
  -21.8823   -3.8128   23.4338 C   0  0  0  0  0  0
  -21.9206   -4.6952   22.3396 C   0  0  0  0  0  0
  -22.7864  -13.5256   21.1836 C   0  0  0  0  0  0
  -22.1668   -4.2131   21.0979 F   0  0  0  0  0  0
  -21.5628   -3.4522   25.7729 F   0  0  0  0  0  0
  -30.0166  -13.4189   20.4229 N   0  0  0  0  0  0
  -26.3008  -12.9321   20.3259 N   0  0  0  0  0  0
  -25.9316  -11.6477   20.5675 N   0  0  0  0  0  0
  -22.0470  -12.8275   22.0381 N   0  0  0  0  0  0
  -25.4285  -15.1879   20.4072 N   0  0  0  0  0  0
  -31.7696  -14.8389   20.1341 O   0  0  0  0  0  0
  -21.6635   -6.8878   21.4237 O   0  0  0  0  0  0
  -22.3575  -14.5576   20.6679 O   0  0  0  0  0  0
  -24.6280  -31.8601   23.2046 C   0  0  0  0  0  0
  -25.9133  -32.4774   23.8368 C   0  0  1  0  0  0
  -27.2187  -27.3109   20.1119 C   0  0  0  0  0  0
  -25.5971  -33.8578   24.2308 N   0  0  0  0  0  0
  -23.4197  -30.4867   21.5477 C   0  0  2  0  0  0
  -24.8619  -28.9443   20.1108 C   0  0  0  0  0  0
  -22.7479  -29.4631   22.4949 C   0  0  0  0  0  0
  -18.0286  -28.1398   22.8488 C   0  0  0  0  0  0
  -24.1474  -36.7258   23.2627 C   0  0  0  0  0  0
  -25.9597  -30.7916   21.3733 C   0  0  0  0  0  0
  -26.0319  -29.4181   20.7138 C   0  0  0  0  0  0
  -27.2083  -28.6135   20.7048 C   0  0  0  0  0  0
  -26.0157  -26.8876   19.4966 C   0  0  0  0  0  0
  -24.8565  -27.6855   19.4955 C   0  0  0  0  0  0
  -23.6316  -29.8254   20.1612 C   0  0  0  0  0  0
  -25.4092  -36.3075   24.0333 C   0  0  1  0  0  0
  -20.5888  -28.3698   23.1286 C   0  0  2  0  0  0
  -20.6763  -26.9424   22.5415 C   0  0  0  0  0  0
  -19.5745  -26.6407   21.5203 C   0  0  0  0  0  0
  -18.1920  -26.7957   22.1601 C   0  0  0  0  0  0
  -19.1541  -28.8868   23.2883 C   0  0  0  0  0  0
  -18.9460  -30.1468   23.8902 C   0  0  0  0  0  0
  -17.6460  -30.6603   24.0567 C   0  0  0  0  0  0
  -25.9042  -34.9454   23.5111 C   0  0  0  0  0  0
  -16.5346  -29.9098   23.6340 C   0  0  0  0  0  0
  -16.7271  -28.6513   23.0365 C   0  0  0  0  0  0
  -26.4518  -31.6588   25.0746 C   0  0  0  0  0  0
  -25.3764  -31.3775   26.1505 C   0  0  0  0  0  0
  -27.0319  -30.3002   24.6201 C   0  0  0  0  0  0
  -27.6115  -32.4293   25.7482 C   0  0  0  0  0  0
  -27.5587  -37.1740   24.8433 C   0  0  0  0  0  0
  -21.4195  -29.3050   22.3680 N   0  0  0  0  0  0
  -26.4249  -37.3796   23.9455 N   0  0  0  0  0  0
  -24.6877  -31.0625   22.0992 N   0  0  0  0  0  0
  -23.4208  -28.8166   23.3015 O   0  0  0  0  0  0
  -28.3630  -26.4955   20.1812 O   0  0  0  0  0  0
  -26.5595  -34.8918   22.4665 O   0  0  0  0  0  0
  -23.5439  -32.1404   23.7378 O   0  0  0  0  0  0
  -28.4784  -19.2752   20.9294 C   0  0  0  0  0  0
  -30.8587  -19.3891   20.6257 C   0  0  0  0  0  0
  -28.5582  -17.8518   20.8886 C   0  0  0  0  0  0
  -30.9389  -17.9591   20.5758 C   0  0  0  0  0  0
  -29.6342  -20.0886   20.8295 C   0  0  0  0  0  0
  -29.7829  -17.1458   20.7362 C   0  0  0  0  0  0
  -28.6665  -23.9579   20.6926 C   0  0  0  0  0  0
  -29.7533  -23.6786   17.9820 C   0  0  0  0  0  0
  -29.6115  -25.0573   18.6648 C   0  0  0  0  0  0
  -29.2167  -22.4719   18.8053 C   0  0  0  0  0  0
  -28.4262  -25.1113   19.6357 C   0  0  2  0  0  0
  -29.6036  -21.6303   21.1734 C   0  0  0  0  0  0
  -29.1020  -22.7193   20.2501 N   0  0  0  0  0  0
  -29.7421  -15.6808   20.8064 N   0  0  0  0  0  0
  -28.4960  -24.2020   21.8903 O   0  0  0  0  0  0
  -31.4913  -12.5384   19.1414 H   0  0  0  0  0  0
  -30.3883  -11.4066   19.8798 H   0  0  0  0  0  0
  -29.7858  -11.7640   17.4712 H   0  0  0  0  0  0
  -29.6627  -13.4836   17.7333 H   0  0  0  0  0  0
  -27.8616  -11.2985   18.8343 H   0  0  0  0  0  0
  -27.3913  -12.6058   17.7780 H   0  0  0  0  0  0
  -27.6766  -14.2503   19.5203 H   0  0  0  0  0  0
  -28.7248  -12.0292   21.3492 H   0  0  0  0  0  0
  -28.4469  -13.6761   21.8463 H   0  0  0  0  0  0
  -25.2742   -9.5705   22.4729 H   0  0  0  0  0  0
  -23.9984   -7.4660   22.7474 H   0  0  0  0  0  0
  -21.0823   -8.8785   19.8966 H   0  0  0  0  0  0
  -22.3674  -10.9668   19.6146 H   0  0  0  0  0  0
  -21.2014   -7.6114   23.9699 H   0  0  0  0  0  0
  -21.1473   -6.0494   25.9067 H   0  0  0  0  0  0
  -22.0601   -2.7588   23.2842 H   0  0  0  0  0  0
  -22.4015  -11.9922   22.4805 H   0  0  0  0  0  0
  -21.1083  -13.1349   22.2520 H   0  0  0  0  0  0
  -24.6584  -15.8378   20.5209 H   0  0  0  0  0  0
  -26.2508  -15.6193   20.0047 H   0  0  0  0  0  0
  -26.7205  -32.5448   23.1108 H   0  0  0  0  0  0
  -25.0193  -33.9727   25.0511 H   0  0  0  0  0  0
  -22.7134  -31.3080   21.4096 H   0  0  0  0  0  0
  -23.3785  -35.9531   23.3194 H   0  0  0  0  0  0
  -24.3601  -36.8975   22.2064 H   0  0  0  0  0  0
  -23.7132  -37.6394   23.6694 H   0  0  0  0  0  0
  -26.0914  -31.5575   20.6076 H   0  0  0  0  0  0
  -26.8406  -30.8407   22.0021 H   0  0  0  0  0  0
  -28.1085  -28.9740   21.1834 H   0  0  0  0  0  0
  -25.9020  -25.9289   19.0218 H   0  0  0  0  0  0
  -23.9561  -27.3136   19.0288 H   0  0  0  0  0  0
  -23.7544  -30.6037   19.4071 H   0  0  0  0  0  0
  -22.7487  -29.2595   19.8578 H   0  0  0  0  0  0
  -25.1242  -36.1908   25.0816 H   0  0  0  0  0  0
  -20.9986  -28.3273   24.1401 H   0  0  0  0  0  0
  -20.5658  -26.2301   23.3606 H   0  0  0  0  0  0
  -21.6635  -26.7450   22.1211 H   0  0  0  0  0  0
  -19.6890  -25.6321   21.1231 H   0  0  0  0  0  0
  -19.6685  -27.3219   20.6733 H   0  0  0  0  0  0
  -17.4197  -26.6748   21.3986 H   0  0  0  0  0  0
  -18.0283  -26.0090   22.8983 H   0  0  0  0  0  0
  -19.7940  -30.7285   24.2272 H   0  0  0  0  0  0
  -17.5015  -31.6281   24.5174 H   0  0  0  0  0  0
  -15.5351  -30.2987   23.7675 H   0  0  0  0  0  0
  -15.8672  -28.0820   22.7093 H   0  0  0  0  0  0
  -24.5916  -30.7127   25.7874 H   0  0  0  0  0  0
  -24.8981  -32.2972   26.4899 H   0  0  0  0  0  0
  -25.8122  -30.9000   27.0297 H   0  0  0  0  0  0
  -26.2878  -29.6766   24.1247 H   0  0  0  0  0  0
  -27.4020  -29.7261   25.4698 H   0  0  0  0  0  0
  -27.8745  -30.4253   23.9405 H   0  0  0  0  0  0
  -27.2799  -33.3638   26.2004 H   0  0  0  0  0  0
  -28.3946  -32.6765   25.0309 H   0  0  0  0  0  0
  -28.0740  -31.8438   26.5432 H   0  0  0  0  0  0
  -28.2511  -38.0133   24.7671 H   0  0  0  0  0  0
  -28.1181  -36.2691   24.6003 H   0  0  0  0  0  0
  -27.2366  -37.1099   25.8842 H   0  0  0  0  0  0
  -20.9372  -29.8771   21.6891 H   0  0  0  0  0  0
  -26.0123  -38.2833   24.1611 H   0  0  0  0  0  0
  -27.5174  -19.7367   21.1132 H   0  0  0  0  0  0
  -31.7785  -19.9558   20.5686 H   0  0  0  0  0  0
  -27.6417  -17.2942   21.0174 H   0  0  0  0  0  0
  -31.9104  -17.5006   20.4625 H   0  0  0  0  0  0
  -30.8051  -23.5276   17.7365 H   0  0  0  0  0  0
  -29.2366  -23.6986   17.0205 H   0  0  0  0  0  0
  -29.5274  -25.8431   17.9132 H   0  0  0  0  0  0
  -30.5240  -25.2703   19.2243 H   0  0  0  0  0  0
  -29.8382  -21.5988   18.6061 H   0  0  0  0  0  0
  -28.2189  -22.2081   18.4512 H   0  0  0  0  0  0
  -27.5486  -24.8280   19.0671 H   0  0  0  0  0  0
  -30.6209  -21.9140   21.4454 H   0  0  0  0  0  0
  -29.0478  -21.7021   22.1089 H   0  0  0  0  0  0
  -28.8334  -15.3196   21.0524 H   0  0  0  0  0  0
  1 25  1  0  0  0
  1 30  2  0  0  0
  1 84  1  0  0  0
  2  3  1  0  0  0
  2 25  1  0  0  0
  2 86  1  0  0  0
  2 87  1  0  0  0
  3  4  1  0  0  0
  3 88  1  0  0  0
  3 89  1  0  0  0
  4  5  1  0  0  0
  4 90  1  0  0  0
  4 91  1  0  0  0
  5  6  1  0  0  0
  5 26  1  0  0  0
  5 92  1  0  0  0
  6 25  1  0  0  0
  6 93  1  0  0  0
  6 94  1  0  0  0
  7  8  2  0  0  0
  7 26  1  0  0  0
  7 29  1  0  0  0
  8  9  1  0  0  0
  8 22  1  0  0  0
  9 10  1  0  0  0
  9 27  2  0  0  0
 10 11  2  0  0  0
 10 15  1  0  0  0
 11 12  1  0  0  0
 11 95  1  0  0  0
 12 13  2  0  0  0
 12 96  1  0  0  0
 13 14  1  0  0  0
 13 31  1  0  0  0
 14 15  2  0  0  0
 14 97  1  0  0  0
 15 98  1  0  0  0
 16 17  2  0  0  0
 16 21  1  0  0  0
 16 31  1  0  0  0
 17 18  1  0  0  0
 17 99  1  0  0  0
 18 19  2  0  0  0
 18100  1  0  0  0
 19 20  1  0  0  0
 19 24  1  0  0  0
 20 21  2  0  0  0
 20101  1  0  0  0
 21 23  1  0  0  0
 22 28  1  0  0  0
 22 32  2  0  0  0
 26 27  1  0  0  0
 28102  1  0  0  0
 28103  1  0  0  0
 29104  1  0  0  0
 29105  1  0  0  0
 33 34  1  0  0  0
 33 66  1  0  0  0
 33 70  2  0  0  0
 34 36  1  0  0  0
 34 59  1  0  0  0
 34106  1  0  0  0
 35 44  2  0  0  0
 35 45  1  0  0  0
 35 68  1  0  0  0
 36 56  1  0  0  0
 36107  1  0  0  0
 37 39  1  0  0  0
 37 47  1  0  0  0
 37 66  1  0  0  0
 37108  1  0  0  0
 38 43  2  0  0  0
 38 46  1  0  0  0
 38 47  1  0  0  0
 39 64  1  0  0  0
 39 67  2  0  0  0
 40 52  1  0  0  0
 40 53  2  0  0  0
 40 58  1  0  0  0
 41109  1  0  0  0
 41110  1  0  0  0
 41111  1  0  0  0
 41 48  1  0  0  0
 42 43  1  0  0  0
 42 66  1  0  0  0
 42112  1  0  0  0
 42113  1  0  0  0
 43 44  1  0  0  0
 44114  1  0  0  0
 45 46  2  0  0  0
 45115  1  0  0  0
 46116  1  0  0  0
 47117  1  0  0  0
 47118  1  0  0  0
 48 56  1  0  0  0
 48 65  1  0  0  0
 48119  1  0  0  0
 49 50  1  0  0  0
 49 53  1  0  0  0
 49 64  1  0  0  0
 49120  1  0  0  0
 50 51  1  0  0  0
 50121  1  0  0  0
 50122  1  0  0  0
 51 52  1  0  0  0
 51123  1  0  0  0
 51124  1  0  0  0
 52125  1  0  0  0
 52126  1  0  0  0
 53 54  1  0  0  0
 54 55  2  0  0  0
 54127  1  0  0  0
 55 57  1  0  0  0
 55128  1  0  0  0
 56 69  2  0  0  0
 57 58  2  0  0  0
 57129  1  0  0  0
 58130  1  0  0  0
 59 60  1  0  0  0
 59 61  1  0  0  0
 59 62  1  0  0  0
 60131  1  0  0  0
 60132  1  0  0  0
 60133  1  0  0  0
 61134  1  0  0  0
 61135  1  0  0  0
 61136  1  0  0  0
 62137  1  0  0  0
 62138  1  0  0  0
 62139  1  0  0  0
 63 65  1  0  0  0
 63140  1  0  0  0
 63141  1  0  0  0
 63142  1  0  0  0
 64143  1  0  0  0
 65144  1  0  0  0
 68 81  1  0  0  0
 71 73  2  0  0  0
 71 75  1  0  0  0
 71145  1  0  0  0
 72 74  1  0  0  0
 72 75  2  0  0  0
 72146  1  0  0  0
 73 76  1  0  0  0
 73147  1  0  0  0
 74 76  2  0  0  0
 74148  1  0  0  0
 75 82  1  0  0  0
 76 84  1  0  0  0
 77 81  1  0  0  0
 77 83  1  0  0  0
 77 85  2  0  0  0
 78 79  1  0  0  0
 78 80  1  0  0  0
 78149  1  0  0  0
 78150  1  0  0  0
 79 81  1  0  0  0
 79151  1  0  0  0
 79152  1  0  0  0
 80 83  1  0  0  0
 80153  1  0  0  0
 80154  1  0  0  0
 81155  1  0  0  0
 82 83  1  0  0  0
 82156  1  0  0  0
 82157  1  0  0  0
 84158  1  0  0  0
M  ISO  4   1 100  68 101  81 101  84 100
M  END
> <chiral flag>
0

> <version>
0

> <s_m_source_file>
/data/baiqing/PycharmProjects/Reinvent-master-3.2/result/LINK_invent/BTK/process_docking_weight1_custom_product_contain_oxygen_bond_distance_aromatic_linkinvent_7_9_3/rearranged_h_0046.sdf

> <i_m_source_file_index>
65

> <r_mmod_Potential_Energy-OPLS-2005>
146.667953491211

> <r_mmod_Stretch_Energy-OPLS-2005>
87.2171173095703

> <r_mmod_Bend_Energy-OPLS-2005>
163.951950073242

> <r_mmod_Torsional_Energy-OPLS-2005>
250.48030090332

> <r_mmod_Improper_Torsional_Energy-OPLS-2005>
6.37387323379517

> <r_mmod_Van_der_Waal_Energy-OPLS-2005>
151.747543334961

> <r_mmod_Electrostatic_Energy-OPLS-2005>
-330.418731689453

> <r_mmod_Solvation_Energy-OPLS-2005>
-234.783432006836

> <b_mmod_Minimization_Converged-OPLS-2005>
0

> <r_mmod_RMS_Derivative-OPLS-2005>
2.77487587928772

$$$$
65
                    3D
 Structure written by MMmdl.
161170  0  0  1  0            999 V2000
  -30.5576  -14.8020   20.4350 C   0  0  0  0  0  0
  -30.4428  -12.4867   19.4734 C   0  0  0  0  0  0
  -29.5179  -12.5138   18.2351 C   0  0  0  0  0  0
  -28.0428  -12.3262   18.6455 C   0  0  0  0  0  0
  -27.6377  -13.2227   19.8467 C   0  0  2  0  0  0
  -28.6837  -13.1690   20.9800 C   0  0  0  0  0  0
  -25.2502  -13.8155   20.5682 C   0  0  0  0  0  0
  -24.1789  -13.0409   20.9205 C   0  0  0  0  0  0
  -24.6370  -11.6901   20.8742 C   0  0  0  0  0  0
  -23.9051  -10.4288   21.0406 C   0  0  0  0  0  0
  -24.3606   -9.4204   21.9185 C   0  0  0  0  0  0
  -23.6279   -8.2232   22.0753 C   0  0  0  0  0  0
  -22.4258   -8.0276   21.3541 C   0  0  0  0  0  0
  -21.9896   -9.0255   20.4647 C   0  0  0  0  0  0
  -22.7223  -10.2133   20.3059 C   0  0  0  0  0  0
  -21.6851   -6.0737   22.5285 C   0  0  0  0  0  0
  -21.4011   -6.5637   23.8217 C   0  0  0  0  0  0
  -21.3651   -5.6788   24.9173 C   0  0  0  0  0  0
  -21.6046   -4.3056   24.7223 C   0  0  0  0  0  0
  -21.8819   -3.8150   23.4343 C   0  0  0  0  0  0
  -21.9190   -4.6967   22.3399 C   0  0  0  0  0  0
  -22.7823  -13.5223   21.1870 C   0  0  0  0  0  0
  -22.1667   -4.2147   21.0981 F   0  0  0  0  0  0
  -21.5621   -3.4542   25.7739 F   0  0  0  0  0  0
  -29.9767  -13.5497   20.3971 N   0  0  0  0  0  0
  -26.2904  -12.9337   20.3236 N   0  0  0  0  0  0
  -25.9284  -11.6491   20.5703 N   0  0  0  0  0  0
  -22.0454  -12.8216   22.0427 N   0  0  0  0  0  0
  -25.4190  -15.1874   20.4124 N   0  0  0  0  0  0
  -31.7522  -14.9241   20.1482 O   0  0  0  0  0  0
  -21.6630   -6.8869   21.4242 O   0  0  0  0  0  0
  -22.3505  -14.5526   20.6718 O   0  0  0  0  0  0
  -24.6325  -31.8521   23.1952 C   0  0  0  0  0  0
  -25.9149  -32.4734   23.8309 C   0  0  1  0  0  0
  -27.2211  -27.2385   20.1603 C   0  0  0  0  0  0
  -25.5937  -33.8534   24.2236 N   0  0  0  0  0  0
  -23.4331  -30.4719   21.5355 C   0  0  2  0  0  0
  -24.8871  -28.9130   20.1119 C   0  0  0  0  0  0
  -22.7515  -29.4584   22.4869 C   0  0  0  0  0  0
  -18.0293  -28.1401   22.8484 C   0  0  0  0  0  0
  -24.1494  -36.7264   23.2642 C   0  0  0  0  0  0
  -25.9806  -30.7592   21.3840 C   0  0  0  0  0  0
  -26.0550  -29.3774   20.7320 C   0  0  0  0  0  0
  -27.2269  -28.5508   20.7471 C   0  0  0  0  0  0
  -26.0438  -26.8544   19.4880 C   0  0  0  0  0  0
  -24.8882  -27.6608   19.4749 C   0  0  0  0  0  0
  -23.6566  -29.7995   20.1542 C   0  0  0  0  0  0
  -25.4123  -36.3047   24.0322 C   0  0  1  0  0  0
  -20.5903  -28.3719   23.1253 C   0  0  2  0  0  0
  -20.6782  -26.9430   22.5397 C   0  0  0  0  0  0
  -19.5758  -26.6400   21.5205 C   0  0  0  0  0  0
  -18.1940  -26.7940   22.1619 C   0  0  0  0  0  0
  -19.1544  -28.8877   23.2862 C   0  0  0  0  0  0
  -18.9469  -30.1474   23.8887 C   0  0  0  0  0  0
  -17.6463  -30.6598   24.0566 C   0  0  0  0  0  0
  -25.9067  -34.9419   23.5084 C   0  0  0  0  0  0
  -16.5352  -29.9095   23.6331 C   0  0  0  0  0  0
  -16.7282  -28.6512   23.0356 C   0  0  0  0  0  0
  -26.4514  -31.6565   25.0703 C   0  0  0  0  0  0
  -25.3723  -31.3731   26.1412 C   0  0  0  0  0  0
  -27.0378  -30.2968   24.6238 C   0  0  0  0  0  0
  -27.6063  -32.4311   25.7486 C   0  0  0  0  0  0
  -27.5577  -37.1789   24.8467 C   0  0  0  0  0  0
  -21.4215  -29.3067   22.3637 N   0  0  0  0  0  0
  -26.4291  -37.3749   23.9410 N   0  0  0  0  0  0
  -24.7001  -31.0471   22.0941 N   0  0  0  0  0  0
  -23.4198  -28.8123   23.2982 O   0  0  0  0  0  0
  -28.2964  -26.3178   20.1810 O   0  0  0  0  0  0
  -26.5638  -34.8904   22.4653 O   0  0  0  0  0  0
  -23.5472  -32.1360   23.7222 O   0  0  0  0  0  0
  -26.5595  -19.4663   18.1817 C   0  0  0  0  0  0
  -27.3192  -20.2588   19.0441 C   0  0  0  0  0  0
  -26.9891  -18.1732   17.9041 C   0  0  0  0  0  0
  -28.4548  -19.7838   19.7510 C   0  0  0  0  0  0
  -28.8204  -18.3365   19.5884 C   0  0  0  0  0  0
  -28.1194  -17.6424   18.5437 C   0  0  0  0  0  0
  -28.7573  -23.6239   20.2422 C   0  0  0  0  0  0
  -27.0068  -23.4852   22.5577 C   0  0  0  0  0  0
  -26.8604  -24.7124   21.6509 C   0  0  0  0  0  0
  -27.3674  -22.2137   21.7587 C   0  0  0  0  0  0
  -28.1842  -24.9865   20.9133 C   0  0  2  0  0  0
  -29.1822  -20.9906   20.5128 C   0  0  0  0  0  0
  -29.9118  -17.4458   20.3779 C   0  0  0  0  0  0
  -28.4705  -22.3548   20.7795 N   0  0  0  0  0  0
  -29.7214  -15.9136   20.5819 N   0  0  0  0  0  0
  -29.5348  -23.7380   19.2896 O   0  0  0  0  0  0
  -28.6430  -16.1372   17.8708 Cl  0  0  0  0  0  0
  -31.4787  -12.6365   19.1669 H   0  0  0  0  0  0
  -30.4115  -11.5100   19.9588 H   0  0  0  0  0  0
  -29.8126  -11.7441   17.5189 H   0  0  0  0  0  0
  -29.6352  -13.4668   17.7177 H   0  0  0  0  0  0
  -27.9036  -11.2760   18.9075 H   0  0  0  0  0  0
  -27.3898  -12.5160   17.7931 H   0  0  0  0  0  0
  -27.6191  -14.2412   19.4690 H   0  0  0  0  0  0
  -28.7308  -12.1664   21.4053 H   0  0  0  0  0  0
  -28.4045  -13.8360   21.7975 H   0  0  0  0  0  0
  -25.2747   -9.5682   22.4759 H   0  0  0  0  0  0
  -23.9999   -7.4616   22.7466 H   0  0  0  0  0  0
  -21.0819   -8.8764   19.8949 H   0  0  0  0  0  0
  -22.3671  -10.9672   19.6170 H   0  0  0  0  0  0
  -21.2010   -7.6149   23.9714 H   0  0  0  0  0  0
  -21.1469   -6.0524   25.9072 H   0  0  0  0  0  0
  -22.0605   -2.7613   23.2847 H   0  0  0  0  0  0
  -22.4066  -11.9881   22.4827 H   0  0  0  0  0  0
  -21.1065  -13.1242   22.2618 H   0  0  0  0  0  0
  -24.6448  -15.8332   20.5225 H   0  0  0  0  0  0
  -26.2474  -15.6274   20.0357 H   0  0  0  0  0  0
  -26.7215  -32.5386   23.1053 H   0  0  0  0  0  0
  -25.0070  -33.9671   25.0370 H   0  0  0  0  0  0
  -22.7310  -31.2939   21.3809 H   0  0  0  0  0  0
  -23.3755  -35.9596   23.3299 H   0  0  0  0  0  0
  -24.3583  -36.8894   22.2057 H   0  0  0  0  0  0
  -23.7252  -37.6462   23.6676 H   0  0  0  0  0  0
  -26.1278  -31.5169   20.6136 H   0  0  0  0  0  0
  -26.8543  -30.8080   22.0217 H   0  0  0  0  0  0
  -28.1183  -28.8960   21.2530 H   0  0  0  0  0  0
  -26.0137  -25.8958   18.9882 H   0  0  0  0  0  0
  -24.0005  -27.3046   18.9714 H   0  0  0  0  0  0
  -23.7818  -30.5702   19.3934 H   0  0  0  0  0  0
  -22.7799  -29.2263   19.8493 H   0  0  0  0  0  0
  -25.1309  -36.1882   25.0812 H   0  0  0  0  0  0
  -21.0001  -28.3311   24.1371 H   0  0  0  0  0  0
  -20.5679  -26.2335   23.3611 H   0  0  0  0  0  0
  -21.6656  -26.7452   22.1197 H   0  0  0  0  0  0
  -19.6924  -25.6313   21.1237 H   0  0  0  0  0  0
  -19.6694  -27.3211   20.6737 H   0  0  0  0  0  0
  -17.4205  -26.6681   21.4029 H   0  0  0  0  0  0
  -18.0350  -26.0090   22.9023 H   0  0  0  0  0  0
  -19.7944  -30.7294   24.2255 H   0  0  0  0  0  0
  -17.5021  -31.6278   24.5165 H   0  0  0  0  0  0
  -15.5360  -30.2993   23.7666 H   0  0  0  0  0  0
  -15.8680  -28.0829   22.7077 H   0  0  0  0  0  0
  -24.5913  -30.7070   25.7731 H   0  0  0  0  0  0
  -24.8902  -32.2906   26.4795 H   0  0  0  0  0  0
  -25.8025  -30.8932   27.0213 H   0  0  0  0  0  0
  -26.2983  -29.6689   24.1258 H   0  0  0  0  0  0
  -27.4029  -29.7264   25.4792 H   0  0  0  0  0  0
  -27.8874  -30.4217   23.9520 H   0  0  0  0  0  0
  -27.2674  -33.3627   26.2036 H   0  0  0  0  0  0
  -28.3898  -32.6844   25.0328 H   0  0  0  0  0  0
  -28.0709  -31.8447   26.5430 H   0  0  0  0  0  0
  -28.2589  -38.0087   24.7501 H   0  0  0  0  0  0
  -28.1076  -36.2616   24.6310 H   0  0  0  0  0  0
  -27.2293  -37.1454   25.8868 H   0  0  0  0  0  0
  -20.9409  -29.8791   21.6839 H   0  0  0  0  0  0
  -26.0161  -38.2820   24.1399 H   0  0  0  0  0  0
  -25.6962  -19.8772   17.6763 H   0  0  0  0  0  0
  -27.0041  -21.2887   19.1164 H   0  0  0  0  0  0
  -26.4676  -17.5907   17.1582 H   0  0  0  0  0  0
  -26.0718  -23.3282   23.0989 H   0  0  0  0  0  0
  -27.7669  -23.6727   23.3184 H   0  0  0  0  0  0
  -26.5811  -25.5699   22.2644 H   0  0  0  0  0  0
  -26.0464  -24.5460   20.9468 H   0  0  0  0  0  0
  -26.4751  -21.8909   21.2230 H   0  0  0  0  0  0
  -27.5933  -21.4157   22.4673 H   0  0  0  0  0  0
  -28.9054  -25.1426   21.7172 H   0  0  0  0  0  0
  -30.0877  -21.2069   19.9444 H   0  0  0  0  0  0
  -29.5380  -20.6047   21.4677 H   0  0  0  0  0  0
  -30.0127  -17.8857   21.3699 H   0  0  0  0  0  0
  -30.8768  -17.6069   19.8967 H   0  0  0  0  0  0
  -28.7647  -15.6567   20.7639 H   0  0  0  0  0  0
  1 25  1  0  0  0
  1 30  2  0  0  0
  1 85  1  0  0  0
  2  3  1  0  0  0
  2 25  1  0  0  0
  2 88  1  0  0  0
  2 89  1  0  0  0
  3  4  1  0  0  0
  3 90  1  0  0  0
  3 91  1  0  0  0
  4  5  1  0  0  0
  4 92  1  0  0  0
  4 93  1  0  0  0
  5  6  1  0  0  0
  5 26  1  0  0  0
  5 94  1  0  0  0
  6 25  1  0  0  0
  6 95  1  0  0  0
  6 96  1  0  0  0
  7  8  2  0  0  0
  7 26  1  0  0  0
  7 29  1  0  0  0
  8  9  1  0  0  0
  8 22  1  0  0  0
  9 10  1  0  0  0
  9 27  2  0  0  0
 10 11  2  0  0  0
 10 15  1  0  0  0
 11 12  1  0  0  0
 11 97  1  0  0  0
 12 13  2  0  0  0
 12 98  1  0  0  0
 13 14  1  0  0  0
 13 31  1  0  0  0
 14 15  2  0  0  0
 14 99  1  0  0  0
 15100  1  0  0  0
 16 17  2  0  0  0
 16 21  1  0  0  0
 16 31  1  0  0  0
 17 18  1  0  0  0
 17101  1  0  0  0
 18 19  2  0  0  0
 18102  1  0  0  0
 19 20  1  0  0  0
 19 24  1  0  0  0
 20 21  2  0  0  0
 20103  1  0  0  0
 21 23  1  0  0  0
 22 28  1  0  0  0
 22 32  2  0  0  0
 26 27  1  0  0  0
 28104  1  0  0  0
 28105  1  0  0  0
 29106  1  0  0  0
 29107  1  0  0  0
 33 34  1  0  0  0
 33 66  1  0  0  0
 33 70  2  0  0  0
 34 36  1  0  0  0
 34 59  1  0  0  0
 34108  1  0  0  0
 35 44  2  0  0  0
 35 45  1  0  0  0
 35 68  1  0  0  0
 36 56  1  0  0  0
 36109  1  0  0  0
 37 39  1  0  0  0
 37 47  1  0  0  0
 37 66  1  0  0  0
 37110  1  0  0  0
 38 43  2  0  0  0
 38 46  1  0  0  0
 38 47  1  0  0  0
 39 64  1  0  0  0
 39 67  2  0  0  0
 40 52  1  0  0  0
 40 53  2  0  0  0
 40 58  1  0  0  0
 41111  1  0  0  0
 41112  1  0  0  0
 41113  1  0  0  0
 41 48  1  0  0  0
 42 43  1  0  0  0
 42 66  1  0  0  0
 42114  1  0  0  0
 42115  1  0  0  0
 43 44  1  0  0  0
 44116  1  0  0  0
 45 46  2  0  0  0
 45117  1  0  0  0
 46118  1  0  0  0
 47119  1  0  0  0
 47120  1  0  0  0
 48 56  1  0  0  0
 48 65  1  0  0  0
 48121  1  0  0  0
 49 50  1  0  0  0
 49 53  1  0  0  0
 49 64  1  0  0  0
 49122  1  0  0  0
 50 51  1  0  0  0
 50123  1  0  0  0
 50124  1  0  0  0
 51 52  1  0  0  0
 51125  1  0  0  0
 51126  1  0  0  0
 52127  1  0  0  0
 52128  1  0  0  0
 53 54  1  0  0  0
 54 55  2  0  0  0
 54129  1  0  0  0
 55 57  1  0  0  0
 55130  1  0  0  0
 56 69  2  0  0  0
 57 58  2  0  0  0
 57131  1  0  0  0
 58132  1  0  0  0
 59 60  1  0  0  0
 59 61  1  0  0  0
 59 62  1  0  0  0
 60133  1  0  0  0
 60134  1  0  0  0
 60135  1  0  0  0
 61136  1  0  0  0
 61137  1  0  0  0
 61138  1  0  0  0
 62139  1  0  0  0
 62140  1  0  0  0
 62141  1  0  0  0
 63 65  1  0  0  0
 63142  1  0  0  0
 63143  1  0  0  0
 63144  1  0  0  0
 64145  1  0  0  0
 65146  1  0  0  0
 68 81  1  0  0  0
 71 72  2  0  0  0
 71 73  1  0  0  0
 71147  1  0  0  0
 72 74  1  0  0  0
 72148  1  0  0  0
 73 76  2  0  0  0
 73149  1  0  0  0
 74 75  2  0  0  0
 74 82  1  0  0  0
 75 76  1  0  0  0
 75 83  1  0  0  0
 76 87  1  0  0  0
 77 81  1  0  0  0
 77 84  1  0  0  0
 77 86  2  0  0  0
 78 79  1  0  0  0
 78 80  1  0  0  0
 78150  1  0  0  0
 78151  1  0  0  0
 79 81  1  0  0  0
 79152  1  0  0  0
 79153  1  0  0  0
 80 84  1  0  0  0
 80154  1  0  0  0
 80155  1  0  0  0
 81156  1  0  0  0
 82 84  1  0  0  0
 82157  1  0  0  0
 82158  1  0  0  0
 83 85  1  0  0  0
 83159  1  0  0  0
 83160  1  0  0  0
 85161  1  0  0  0
M  ISO  4   1 100  68 101  81 101  85 100
M  END
> <chiral flag>
0

> <version>
0

> <s_m_source_file>
/data/baiqing/PycharmProjects/Reinvent-master-3.2/result/LINK_invent/BTK/process_docking_weight1_custom_product_contain_oxygen_bond_distance_aromatic_linkinvent_7_9_3/rearranged_h_0046.sdf

> <i_m_source_file_index>
66

> <r_mmod_Potential_Energy-OPLS-2005>
345.10986328125

> <r_mmod_Stretch_Energy-OPLS-2005>
180.529510498047

> <r_mmod_Bend_Energy-OPLS-2005>
219.232666015625

> <r_mmod_Torsional_Energy-OPLS-2005>
262.162750244141

> <r_mmod_Improper_Torsional_Energy-OPLS-2005>
6.39241552352905

> <r_mmod_Van_der_Waal_Energy-OPLS-2005>
144.006286621094

> <r_mmod_Electrostatic_Energy-OPLS-2005>
-343.385925292969

> <r_mmod_Solvation_Energy-OPLS-2005>
-232.429107666016

> <b_mmod_Minimization_Converged-OPLS-2005>
0

> <r_mmod_RMS_Derivative-OPLS-2005>
2.98028945922852

$$$$
66
                    3D
 Structure written by MMmdl.
160168  0  0  1  0            999 V2000
  -30.6107  -14.7723   20.4995 C   0  0  0  0  0  0
  -30.4379  -12.4813   19.4846 C   0  0  0  0  0  0
  -29.5180  -12.5320   18.2455 C   0  0  0  0  0  0
  -28.0469  -12.3297   18.6562 C   0  0  0  0  0  0
  -27.6406  -13.2328   19.8509 C   0  0  2  0  0  0
  -28.6827  -13.1813   20.9900 C   0  0  0  0  0  0
  -25.2469  -13.8144   20.5653 C   0  0  0  0  0  0
  -24.1772  -13.0402   20.9196 C   0  0  0  0  0  0
  -24.6386  -11.6892   20.8740 C   0  0  0  0  0  0
  -23.9064  -10.4274   21.0396 C   0  0  0  0  0  0
  -24.3599   -9.4188   21.9177 C   0  0  0  0  0  0
  -23.6262   -8.2238   22.0759 C   0  0  0  0  0  0
  -22.4248   -8.0282   21.3550 C   0  0  0  0  0  0
  -21.9885   -9.0256   20.4647 C   0  0  0  0  0  0
  -22.7238  -10.2120   20.3046 C   0  0  0  0  0  0
  -21.6851   -6.0715   22.5270 C   0  0  0  0  0  0
  -21.4023   -6.5618   23.8204 C   0  0  0  0  0  0
  -21.3661   -5.6778   24.9166 C   0  0  0  0  0  0
  -21.6035   -4.3039   24.7223 C   0  0  0  0  0  0
  -21.8820   -3.8135   23.4344 C   0  0  0  0  0  0
  -21.9193   -4.6945   22.3395 C   0  0  0  0  0  0
  -22.7801  -13.5203   21.1845 C   0  0  0  0  0  0
  -22.1655   -4.2130   21.0969 F   0  0  0  0  0  0
  -21.5623   -3.4529   25.7736 F   0  0  0  0  0  0
  -29.9842  -13.5439   20.4117 N   0  0  0  0  0  0
  -26.2924  -12.9374   20.3269 N   0  0  0  0  0  0
  -25.9318  -11.6516   20.5742 N   0  0  0  0  0  0
  -22.0434  -12.8231   22.0412 N   0  0  0  0  0  0
  -25.4089  -15.1842   20.3973 N   0  0  0  0  0  0
  -31.7996  -14.8678   20.1807 O   0  0  0  0  0  0
  -21.6627   -6.8872   21.4239 O   0  0  0  0  0  0
  -22.3492  -14.5515   20.6688 O   0  0  0  0  0  0
  -24.6301  -31.8561   23.1978 C   0  0  0  0  0  0
  -25.9135  -32.4755   23.8332 C   0  0  1  0  0  0
  -27.2363  -27.2723   20.1536 C   0  0  0  0  0  0
  -25.5937  -33.8554   24.2271 N   0  0  0  0  0  0
  -23.4281  -30.4755   21.5404 C   0  0  2  0  0  0
  -24.8802  -28.9137   20.1215 C   0  0  0  0  0  0
  -22.7502  -29.4602   22.4912 C   0  0  0  0  0  0
  -18.0296  -28.1398   22.8481 C   0  0  0  0  0  0
  -24.1476  -36.7263   23.2641 C   0  0  0  0  0  0
  -25.9709  -30.7744   21.3743 C   0  0  0  0  0  0
  -26.0485  -29.3922   20.7285 C   0  0  0  0  0  0
  -27.2304  -28.5861   20.7306 C   0  0  0  0  0  0
  -26.0467  -26.8486   19.5284 C   0  0  0  0  0  0
  -24.8831  -27.6481   19.5097 C   0  0  0  0  0  0
  -23.6497  -29.8025   20.1591 C   0  0  0  0  0  0
  -25.4101  -36.3061   24.0333 C   0  0  1  0  0  0
  -20.5900  -28.3699   23.1274 C   0  0  2  0  0  0
  -20.6779  -26.9413   22.5417 C   0  0  0  0  0  0
  -19.5754  -26.6385   21.5216 C   0  0  0  0  0  0
  -18.1929  -26.7939   22.1618 C   0  0  0  0  0  0
  -19.1547  -28.8866   23.2875 C   0  0  0  0  0  0
  -18.9471  -30.1458   23.8890 C   0  0  0  0  0  0
  -17.6466  -30.6590   24.0570 C   0  0  0  0  0  0
  -25.9053  -34.9433   23.5103 C   0  0  0  0  0  0
  -16.5360  -29.9089   23.6328 C   0  0  0  0  0  0
  -16.7281  -28.6517   23.0346 C   0  0  0  0  0  0
  -26.4492  -31.6572   25.0718 C   0  0  0  0  0  0
  -25.3730  -31.3730   26.1456 C   0  0  0  0  0  0
  -27.0331  -30.2991   24.6188 C   0  0  0  0  0  0
  -27.6049  -32.4304   25.7490 C   0  0  0  0  0  0
  -27.5568  -37.1779   24.8457 C   0  0  0  0  0  0
  -21.4217  -29.3037   22.3655 N   0  0  0  0  0  0
  -26.4265  -37.3770   23.9427 N   0  0  0  0  0  0
  -24.6949  -31.0541   22.0937 N   0  0  0  0  0  0
  -23.4200  -28.8149   23.3031 O   0  0  0  0  0  0
  -28.3532  -26.4154   20.1050 O   0  0  0  0  0  0
  -26.5618  -34.8913   22.4669 O   0  0  0  0  0  0
  -23.5461  -32.1360   23.7291 O   0  0  0  0  0  0
  -30.6918  -20.0429   21.8037 C   0  0  0  0  0  0
  -31.4094  -18.9424   22.3158 C   0  0  0  0  0  0
  -29.6949  -19.8902   20.8166 C   0  0  0  0  0  0
  -29.4183  -18.4999   20.4279 C   0  0  0  0  0  0
  -30.1469  -17.3364   20.9479 C   0  0  0  0  0  0
  -31.1517  -17.6190   21.9034 C   0  0  0  0  0  0
  -28.2976  -23.7187   20.3013 C   0  0  0  0  0  0
  -26.9365  -18.1652   20.2358 C   0  0  0  0  0  0
  -30.6044  -23.0440   20.7516 C   0  0  0  0  0  0
  -28.2637  -18.2466   19.4746 C   0  0  0  0  0  0
  -28.9186  -21.1839   20.2278 C   0  0  0  0  0  0
  -28.4132  -25.1865   20.9610 C   0  0  0  0  0  0
  -29.8155  -15.9036   20.6694 N   0  0  0  0  0  0
  -29.2025  -22.6750   20.5375 N   0  0  0  0  0  0
  -27.2781  -23.4976   19.6407 O   0  0  0  0  0  0
  -31.8357  -16.6138   22.5031 F   0  0  0  0  0  0
  -31.4804  -12.6074   19.1882 H   0  0  0  0  0  0
  -30.3801  -11.5059   19.9706 H   0  0  0  0  0  0
  -29.8152  -11.7781   17.5163 H   0  0  0  0  0  0
  -29.6313  -13.4981   17.7501 H   0  0  0  0  0  0
  -27.9197  -11.2814   18.9303 H   0  0  0  0  0  0
  -27.3894  -12.5050   17.8036 H   0  0  0  0  0  0
  -27.6278  -14.2503   19.4588 H   0  0  0  0  0  0
  -28.7223  -12.1868   21.4375 H   0  0  0  0  0  0
  -28.4053  -13.8665   21.7927 H   0  0  0  0  0  0
  -25.2730   -9.5657   22.4758 H   0  0  0  0  0  0
  -23.9957   -7.4625   22.7478 H   0  0  0  0  0  0
  -21.0820   -8.8788   19.8946 H   0  0  0  0  0  0
  -22.3708  -10.9656   19.6155 H   0  0  0  0  0  0
  -21.2029   -7.6124   23.9704 H   0  0  0  0  0  0
  -21.1471   -6.0502   25.9068 H   0  0  0  0  0  0
  -22.0597   -2.7597   23.2853 H   0  0  0  0  0  0
  -22.4022  -11.9917   22.4862 H   0  0  0  0  0  0
  -21.1062  -13.1302   22.2584 H   0  0  0  0  0  0
  -24.6291  -15.8271   20.4769 H   0  0  0  0  0  0
  -26.2397  -15.6210   20.0242 H   0  0  0  0  0  0
  -26.7211  -32.5419   23.1087 H   0  0  0  0  0  0
  -25.0102  -33.9675   25.0430 H   0  0  0  0  0  0
  -22.7241  -31.2962   21.3916 H   0  0  0  0  0  0
  -23.3752  -35.9579   23.3278 H   0  0  0  0  0  0
  -24.3575  -36.8910   22.2061 H   0  0  0  0  0  0
  -23.7207  -37.6448   23.6679 H   0  0  0  0  0  0
  -26.1049  -31.5306   20.5992 H   0  0  0  0  0  0
  -26.8487  -30.8312   22.0050 H   0  0  0  0  0  0
  -28.1310  -28.9566   21.1986 H   0  0  0  0  0  0
  -26.0181  -25.8772   19.0562 H   0  0  0  0  0  0
  -23.9905  -27.2727   19.0295 H   0  0  0  0  0  0
  -23.7781  -30.5751   19.4002 H   0  0  0  0  0  0
  -22.7673  -29.2373   19.8539 H   0  0  0  0  0  0
  -25.1276  -36.1894   25.0823 H   0  0  0  0  0  0
  -20.9990  -28.3282   24.1396 H   0  0  0  0  0  0
  -20.5668  -26.2309   23.3625 H   0  0  0  0  0  0
  -21.6651  -26.7428   22.1219 H   0  0  0  0  0  0
  -19.6905  -25.6291   21.1249 H   0  0  0  0  0  0
  -19.6687  -27.3192   20.6742 H   0  0  0  0  0  0
  -17.4201  -26.6696   21.4016 H   0  0  0  0  0  0
  -18.0306  -26.0083   22.9011 H   0  0  0  0  0  0
  -19.7943  -30.7283   24.2254 H   0  0  0  0  0  0
  -17.5023  -31.6259   24.5184 H   0  0  0  0  0  0
  -15.5359  -30.2991   23.7663 H   0  0  0  0  0  0
  -15.8681  -28.0832   22.7065 H   0  0  0  0  0  0
  -24.5882  -30.7091   25.7805 H   0  0  0  0  0  0
  -24.8944  -32.2908   26.4887 H   0  0  0  0  0  0
  -25.8062  -30.8909   27.0229 H   0  0  0  0  0  0
  -26.2909  -29.6738   24.1215 H   0  0  0  0  0  0
  -27.4024  -29.7248   25.4693 H   0  0  0  0  0  0
  -27.8778  -30.4259   23.9415 H   0  0  0  0  0  0
  -27.2657  -33.3608   26.2056 H   0  0  0  0  0  0
  -28.3870  -32.6856   25.0326 H   0  0  0  0  0  0
  -28.0702  -31.8435   26.5421 H   0  0  0  0  0  0
  -28.2570  -38.0091   24.7542 H   0  0  0  0  0  0
  -28.1077  -36.2630   24.6224 H   0  0  0  0  0  0
  -27.2301  -37.1372   25.8862 H   0  0  0  0  0  0
  -20.9407  -29.8755   21.6845 H   0  0  0  0  0  0
  -26.0132  -38.2830   24.1471 H   0  0  0  0  0  0
  -30.9230  -21.0122   22.2135 H   0  0  0  0  0  0
  -32.1626  -19.1154   23.0712 H   0  0  0  0  0  0
  -26.1074  -17.9619   19.5588 H   0  0  0  0  0  0
  -26.7140  -19.0937   20.7610 H   0  0  0  0  0  0
  -26.9657  -17.3763   20.9863 H   0  0  0  0  0  0
  -30.8210  -23.1667   21.8129 H   0  0  0  0  0  0
  -30.8651  -23.9791   20.2529 H   0  0  0  0  0  0
  -31.2788  -22.2939   20.3377 H   0  0  0  0  0  0
  -28.4359  -17.3281   18.9145 H   0  0  0  0  0  0
  -28.2154  -19.0314   18.7215 H   0  0  0  0  0  0
  -27.8660  -21.0268   20.4611 H   0  0  0  0  0  0
  -28.9817  -21.1086   19.1420 H   0  0  0  0  0  0
  -29.3324  -25.2493   21.5435 H   0  0  0  0  0  0
  -27.6154  -25.2530   21.7017 H   0  0  0  0  0  0
  -28.8293  -15.7018   20.6693 H   0  0  0  0  0  0
  1 25  1  0  0  0
  1 30  2  0  0  0
  1 83  1  0  0  0
  2  3  1  0  0  0
  2 25  1  0  0  0
  2 87  1  0  0  0
  2 88  1  0  0  0
  3  4  1  0  0  0
  3 89  1  0  0  0
  3 90  1  0  0  0
  4  5  1  0  0  0
  4 91  1  0  0  0
  4 92  1  0  0  0
  5  6  1  0  0  0
  5 26  1  0  0  0
  5 93  1  0  0  0
  6 25  1  0  0  0
  6 94  1  0  0  0
  6 95  1  0  0  0
  7  8  2  0  0  0
  7 26  1  0  0  0
  7 29  1  0  0  0
  8  9  1  0  0  0
  8 22  1  0  0  0
  9 10  1  0  0  0
  9 27  2  0  0  0
 10 11  2  0  0  0
 10 15  1  0  0  0
 11 12  1  0  0  0
 11 96  1  0  0  0
 12 13  2  0  0  0
 12 97  1  0  0  0
 13 14  1  0  0  0
 13 31  1  0  0  0
 14 15  2  0  0  0
 14 98  1  0  0  0
 15 99  1  0  0  0
 16 17  2  0  0  0
 16 21  1  0  0  0
 16 31  1  0  0  0
 17 18  1  0  0  0
 17100  1  0  0  0
 18 19  2  0  0  0
 18101  1  0  0  0
 19 20  1  0  0  0
 19 24  1  0  0  0
 20 21  2  0  0  0
 20102  1  0  0  0
 21 23  1  0  0  0
 22 28  1  0  0  0
 22 32  2  0  0  0
 26 27  1  0  0  0
 28103  1  0  0  0
 28104  1  0  0  0
 29105  1  0  0  0
 29106  1  0  0  0
 33 34  1  0  0  0
 33 66  1  0  0  0
 33 70  2  0  0  0
 34 36  1  0  0  0
 34 59  1  0  0  0
 34107  1  0  0  0
 35 44  2  0  0  0
 35 45  1  0  0  0
 35 68  1  0  0  0
 36 56  1  0  0  0
 36108  1  0  0  0
 37 39  1  0  0  0
 37 47  1  0  0  0
 37 66  1  0  0  0
 37109  1  0  0  0
 38 43  2  0  0  0
 38 46  1  0  0  0
 38 47  1  0  0  0
 39 64  1  0  0  0
 39 67  2  0  0  0
 40 52  1  0  0  0
 40 53  2  0  0  0
 40 58  1  0  0  0
 41110  1  0  0  0
 41111  1  0  0  0
 41112  1  0  0  0
 41 48  1  0  0  0
 42 43  1  0  0  0
 42 66  1  0  0  0
 42113  1  0  0  0
 42114  1  0  0  0
 43 44  1  0  0  0
 44115  1  0  0  0
 45 46  2  0  0  0
 45116  1  0  0  0
 46117  1  0  0  0
 47118  1  0  0  0
 47119  1  0  0  0
 48 56  1  0  0  0
 48 65  1  0  0  0
 48120  1  0  0  0
 49 50  1  0  0  0
 49 53  1  0  0  0
 49 64  1  0  0  0
 49121  1  0  0  0
 50 51  1  0  0  0
 50122  1  0  0  0
 50123  1  0  0  0
 51 52  1  0  0  0
 51124  1  0  0  0
 51125  1  0  0  0
 52126  1  0  0  0
 52127  1  0  0  0
 53 54  1  0  0  0
 54 55  2  0  0  0
 54128  1  0  0  0
 55 57  1  0  0  0
 55129  1  0  0  0
 56 69  2  0  0  0
 57 58  2  0  0  0
 57130  1  0  0  0
 58131  1  0  0  0
 59 60  1  0  0  0
 59 61  1  0  0  0
 59 62  1  0  0  0
 60132  1  0  0  0
 60133  1  0  0  0
 60134  1  0  0  0
 61135  1  0  0  0
 61136  1  0  0  0
 61137  1  0  0  0
 62138  1  0  0  0
 62139  1  0  0  0
 62140  1  0  0  0
 63 65  1  0  0  0
 63141  1  0  0  0
 63142  1  0  0  0
 63143  1  0  0  0
 64144  1  0  0  0
 65145  1  0  0  0
 68 82  1  0  0  0
 71 72  2  0  0  0
 71 73  1  0  0  0
 71146  1  0  0  0
 72 76  1  0  0  0
 72147  1  0  0  0
 73 74  2  0  0  0
 73 81  1  0  0  0
 74 75  1  0  0  0
 74 80  1  0  0  0
 75 76  2  0  0  0
 75 83  1  0  0  0
 76 86  1  0  0  0
 77 82  1  0  0  0
 77 84  1  0  0  0
 77 85  2  0  0  0
 78 80  1  0  0  0
 78148  1  0  0  0
 78149  1  0  0  0
 78150  1  0  0  0
 79 84  1  0  0  0
 79151  1  0  0  0
 79152  1  0  0  0
 79153  1  0  0  0
 80154  1  0  0  0
 80155  1  0  0  0
 81 84  1  0  0  0
 81156  1  0  0  0
 81157  1  0  0  0
 82158  1  0  0  0
 82159  1  0  0  0
 83160  1  0  0  0
M  ISO  4   1 100  68 101  82 101  83 100
M  END
> <chiral flag>
0

> <version>
0

> <s_m_source_file>
/data/baiqing/PycharmProjects/Reinvent-master-3.2/result/LINK_invent/BTK/process_docking_weight1_custom_product_contain_oxygen_bond_distance_aromatic_linkinvent_7_9_3/rearranged_h_0046.sdf

> <i_m_source_file_index>
67

> <r_mmod_Potential_Energy-OPLS-2005>
206.853363037109

> <r_mmod_Stretch_Energy-OPLS-2005>
142.820068359375

> <r_mmod_Bend_Energy-OPLS-2005>
176.757247924805

> <r_mmod_Torsional_Energy-OPLS-2005>
270.082946777344

> <r_mmod_Improper_Torsional_Energy-OPLS-2005>
9.57280540466309

> <r_mmod_Van_der_Waal_Energy-OPLS-2005>
137.209976196289

> <r_mmod_Electrostatic_Energy-OPLS-2005>
-384.795959472656

> <r_mmod_Solvation_Energy-OPLS-2005>
-229.740707397461

> <b_mmod_Minimization_Converged-OPLS-2005>
0

> <r_mmod_RMS_Derivative-OPLS-2005>
2.42060136795044

$$$$
67
                    3D
 Structure written by MMmdl.
161170  0  0  1  0            999 V2000
  -30.6037  -14.7522   20.4475 C   0  0  0  0  0  0
  -30.4289  -12.4568   19.4713 C   0  0  0  0  0  0
  -29.5049  -12.5016   18.2347 C   0  0  0  0  0  0
  -28.0341  -12.3194   18.6552 C   0  0  0  0  0  0
  -27.6378  -13.2284   19.8493 C   0  0  2  0  0  0
  -28.6828  -13.1724   20.9848 C   0  0  0  0  0  0
  -25.2485  -13.8173   20.5676 C   0  0  0  0  0  0
  -24.1788  -13.0427   20.9224 C   0  0  0  0  0  0
  -24.6381  -11.6908   20.8780 C   0  0  0  0  0  0
  -23.9068  -10.4282   21.0427 C   0  0  0  0  0  0
  -24.3620   -9.4197   21.9202 C   0  0  0  0  0  0
  -23.6292   -8.2235   22.0768 C   0  0  0  0  0  0
  -22.4277   -8.0279   21.3554 C   0  0  0  0  0  0
  -21.9910   -9.0253   20.4652 C   0  0  0  0  0  0
  -22.7245  -10.2129   20.3066 C   0  0  0  0  0  0
  -21.6847   -6.0732   22.5278 C   0  0  0  0  0  0
  -21.4010   -6.5640   23.8211 C   0  0  0  0  0  0
  -21.3658   -5.6798   24.9177 C   0  0  0  0  0  0
  -21.6041   -4.3056   24.7225 C   0  0  0  0  0  0
  -21.8825   -3.8144   23.4346 C   0  0  0  0  0  0
  -21.9191   -4.6960   22.3397 C   0  0  0  0  0  0
  -22.7815  -13.5220   21.1874 C   0  0  0  0  0  0
  -22.1662   -4.2146   21.0975 F   0  0  0  0  0  0
  -21.5625   -3.4539   25.7735 F   0  0  0  0  0  0
  -29.9817  -13.5237   20.3977 N   0  0  0  0  0  0
  -26.2913  -12.9379   20.3281 N   0  0  0  0  0  0
  -25.9311  -11.6525   20.5782 N   0  0  0  0  0  0
  -22.0455  -12.8211   22.0423 N   0  0  0  0  0  0
  -25.4139  -15.1884   20.4010 N   0  0  0  0  0  0
  -31.7976  -14.8302   20.1412 O   0  0  0  0  0  0
  -21.6642   -6.8876   21.4244 O   0  0  0  0  0  0
  -22.3508  -14.5530   20.6721 O   0  0  0  0  0  0
  -24.6310  -31.8535   23.1940 C   0  0  0  0  0  0
  -25.9140  -32.4733   23.8290 C   0  0  1  0  0  0
  -27.2211  -27.2565   20.1238 C   0  0  0  0  0  0
  -25.5925  -33.8545   24.2221 N   0  0  0  0  0  0
  -23.4279  -30.4734   21.5376 C   0  0  2  0  0  0
  -24.8726  -28.9171   20.1056 C   0  0  0  0  0  0
  -22.7499  -29.4590   22.4913 C   0  0  0  0  0  0
  -18.0290  -28.1392   22.8500 C   0  0  0  0  0  0
  -24.1495  -36.7266   23.2642 C   0  0  0  0  0  0
  -25.9737  -30.7631   21.3735 C   0  0  0  0  0  0
  -26.0417  -29.3858   20.7142 C   0  0  0  0  0  0
  -27.2148  -28.5666   20.7137 C   0  0  0  0  0  0
  -26.0241  -26.8462   19.4961 C   0  0  0  0  0  0
  -24.8680  -27.6549   19.4883 C   0  0  0  0  0  0
  -23.6434  -29.8038   20.1532 C   0  0  0  0  0  0
  -25.4128  -36.3058   24.0322 C   0  0  1  0  0  0
  -20.5892  -28.3693   23.1273 C   0  0  2  0  0  0
  -20.6792  -26.9411   22.5410 C   0  0  0  0  0  0
  -19.5766  -26.6387   21.5215 C   0  0  0  0  0  0
  -18.1942  -26.7939   22.1621 C   0  0  0  0  0  0
  -19.1547  -28.8864   23.2879 C   0  0  0  0  0  0
  -18.9468  -30.1474   23.8878 C   0  0  0  0  0  0
  -17.6471  -30.6589   24.0577 C   0  0  0  0  0  0
  -25.9061  -34.9431   23.5079 C   0  0  0  0  0  0
  -16.5357  -29.9095   23.6336 C   0  0  0  0  0  0
  -16.7275  -28.6516   23.0353 C   0  0  0  0  0  0
  -26.4503  -31.6578   25.0698 C   0  0  0  0  0  0
  -25.3711  -31.3735   26.1404 C   0  0  0  0  0  0
  -27.0368  -30.3008   24.6199 C   0  0  0  0  0  0
  -27.6049  -32.4334   25.7466 C   0  0  0  0  0  0
  -27.5582  -37.1797   24.8476 C   0  0  0  0  0  0
  -21.4213  -29.3044   22.3676 N   0  0  0  0  0  0
  -26.4298  -37.3767   23.9407 N   0  0  0  0  0  0
  -24.6966  -31.0506   22.0900 N   0  0  0  0  0  0
  -23.4203  -28.8154   23.3024 O   0  0  0  0  0  0
  -28.3409  -26.3991   20.2272 O   0  0  0  0  0  0
  -26.5662  -34.8912   22.4660 O   0  0  0  0  0  0
  -23.5460  -32.1346   23.7242 O   0  0  0  0  0  0
  -31.7982  -19.1432   20.9037 C   0  0  0  0  0  0
  -30.8387  -20.1592   20.7280 C   0  0  0  0  0  0
  -31.4530  -17.7773   20.8491 C   0  0  0  0  0  0
  -29.4898  -19.8531   20.4626 C   0  0  0  0  0  0
  -29.1519  -18.4269   20.3972 C   0  0  0  0  0  0
  -30.1276  -17.3513   20.5989 C   0  0  0  0  0  0
  -28.3005  -23.7052   20.3776 C   0  0  0  0  0  0
  -30.6080  -23.7518   18.6963 C   0  0  0  0  0  0
  -29.9196  -25.1179   18.9125 C   0  0  0  0  0  0
  -29.6169  -22.5723   18.6624 C   0  0  0  0  0  0
  -28.5038  -25.0688   19.5402 C   0  0  2  0  0  0
  -27.7115  -18.0551   20.0862 C   0  0  0  0  0  0
  -28.4502  -21.0695   20.3316 C   0  0  0  0  0  0
  -28.8258  -22.5005   19.8980 N   0  0  0  0  0  0
  -29.8117  -15.8887   20.6092 N   0  0  0  0  0  0
  -27.6229  -23.7468   21.4087 O   0  0  0  0  0  0
  -31.4691  -12.5798   19.1654 H   0  0  0  0  0  0
  -30.3747  -11.4829   19.9598 H   0  0  0  0  0  0
  -29.7893  -11.7262   17.5226 H   0  0  0  0  0  0
  -29.6241  -13.4543   17.7162 H   0  0  0  0  0  0
  -27.9016  -11.2719   18.9318 H   0  0  0  0  0  0
  -27.3704  -12.4934   17.8070 H   0  0  0  0  0  0
  -27.6291  -14.2463   19.4605 H   0  0  0  0  0  0
  -28.7206  -12.1791   21.4323 H   0  0  0  0  0  0
  -28.4158  -13.8594   21.7895 H   0  0  0  0  0  0
  -25.2758   -9.5667   22.4783 H   0  0  0  0  0  0
  -23.9991   -7.4620   22.7483 H   0  0  0  0  0  0
  -21.0842   -8.8775   19.8945 H   0  0  0  0  0  0
  -22.3715  -10.9673   19.6170 H   0  0  0  0  0  0
  -21.2010   -7.6152   23.9714 H   0  0  0  0  0  0
  -21.1473   -6.0525   25.9078 H   0  0  0  0  0  0
  -22.0604   -2.7605   23.2843 H   0  0  0  0  0  0
  -22.4056  -11.9851   22.4779 H   0  0  0  0  0  0
  -21.1088  -13.1252   22.2657 H   0  0  0  0  0  0
  -24.6355  -15.8324   20.4853 H   0  0  0  0  0  0
  -26.2348  -15.6103   19.9908 H   0  0  0  0  0  0
  -26.7210  -32.5366   23.1027 H   0  0  0  0  0  0
  -25.0090  -33.9697   25.0373 H   0  0  0  0  0  0
  -22.7264  -31.2972   21.3900 H   0  0  0  0  0  0
  -23.3765  -35.9583   23.3298 H   0  0  0  0  0  0
  -24.3588  -36.8897   22.2056 H   0  0  0  0  0  0
  -23.7235  -37.6462   23.6676 H   0  0  0  0  0  0
  -26.1217  -31.5254   20.6066 H   0  0  0  0  0  0
  -26.8485  -30.8062   22.0115 H   0  0  0  0  0  0
  -28.1091  -28.9200   21.2062 H   0  0  0  0  0  0
  -25.9371  -25.8705   19.0455 H   0  0  0  0  0  0
  -23.9653  -27.2885   19.0182 H   0  0  0  0  0  0
  -23.7691  -30.5777   19.3938 H   0  0  0  0  0  0
  -22.7600  -29.2380   19.8501 H   0  0  0  0  0  0
  -25.1315  -36.1890   25.0817 H   0  0  0  0  0  0
  -20.9989  -28.3247   24.1385 H   0  0  0  0  0  0
  -20.5715  -26.2293   23.3611 H   0  0  0  0  0  0
  -21.6658  -26.7462   22.1183 H   0  0  0  0  0  0
  -19.6929  -25.6296   21.1245 H   0  0  0  0  0  0
  -19.6690  -27.3216   20.6755 H   0  0  0  0  0  0
  -17.4224  -26.6697   21.4016 H   0  0  0  0  0  0
  -18.0321  -26.0082   22.9006 H   0  0  0  0  0  0
  -19.7948  -30.7321   24.2207 H   0  0  0  0  0  0
  -17.5016  -31.6256   24.5209 H   0  0  0  0  0  0
  -15.5358  -30.2999   23.7679 H   0  0  0  0  0  0
  -15.8671  -28.0843   22.7052 H   0  0  0  0  0  0
  -24.5885  -30.7095   25.7729 H   0  0  0  0  0  0
  -24.8889  -32.2907   26.4806 H   0  0  0  0  0  0
  -25.7990  -30.8921   27.0199 H   0  0  0  0  0  0
  -26.2959  -29.6747   24.1231 H   0  0  0  0  0  0
  -27.4092  -29.7289   25.4703 H   0  0  0  0  0  0
  -27.8803  -30.4322   23.9416 H   0  0  0  0  0  0
  -27.2664  -33.3673   26.1978 H   0  0  0  0  0  0
  -28.3877  -32.6852   25.0291 H   0  0  0  0  0  0
  -28.0704  -31.8506   26.5429 H   0  0  0  0  0  0
  -28.2612  -38.0093   24.7532 H   0  0  0  0  0  0
  -28.1073  -36.2626   24.6286 H   0  0  0  0  0  0
  -27.2306  -37.1419   25.8886 H   0  0  0  0  0  0
  -20.9406  -29.8725   21.6843 H   0  0  0  0  0  0
  -26.0162  -38.2835   24.1403 H   0  0  0  0  0  0
  -32.8237  -19.4185   21.1025 H   0  0  0  0  0  0
  -31.1529  -21.1904   20.8117 H   0  0  0  0  0  0
  -32.2402  -17.0602   21.0269 H   0  0  0  0  0  0
  -31.3234  -23.5840   19.5039 H   0  0  0  0  0  0
  -31.1996  -23.7740   17.7798 H   0  0  0  0  0  0
  -29.8435  -25.6354   17.9560 H   0  0  0  0  0  0
  -30.5759  -25.7408   19.5217 H   0  0  0  0  0  0
  -30.1626  -21.6436   18.4981 H   0  0  0  0  0  0
  -28.9424  -22.6766   17.8107 H   0  0  0  0  0  0
  -27.8103  -24.9948   18.7042 H   0  0  0  0  0  0
  -27.0378  -18.4714   20.8347 H   0  0  0  0  0  0
  -27.5527  -16.9801   20.0576 H   0  0  0  0  0  0
  -27.4258  -18.4448   19.1082 H   0  0  0  0  0  0
  -27.9309  -21.1312   21.2889 H   0  0  0  0  0  0
  -27.6820  -20.7577   19.6243 H   0  0  0  0  0  0
  -28.8356  -15.6712   20.7319 H   0  0  0  0  0  0
  1 25  1  0  0  0
  1 30  2  0  0  0
  1 85  1  0  0  0
  2  3  1  0  0  0
  2 25  1  0  0  0
  2 87  1  0  0  0
  2 88  1  0  0  0
  3  4  1  0  0  0
  3 89  1  0  0  0
  3 90  1  0  0  0
  4  5  1  0  0  0
  4 91  1  0  0  0
  4 92  1  0  0  0
  5  6  1  0  0  0
  5 26  1  0  0  0
  5 93  1  0  0  0
  6 25  1  0  0  0
  6 94  1  0  0  0
  6 95  1  0  0  0
  7  8  2  0  0  0
  7 26  1  0  0  0
  7 29  1  0  0  0
  8  9  1  0  0  0
  8 22  1  0  0  0
  9 10  1  0  0  0
  9 27  2  0  0  0
 10 11  2  0  0  0
 10 15  1  0  0  0
 11 12  1  0  0  0
 11 96  1  0  0  0
 12 13  2  0  0  0
 12 97  1  0  0  0
 13 14  1  0  0  0
 13 31  1  0  0  0
 14 15  2  0  0  0
 14 98  1  0  0  0
 15 99  1  0  0  0
 16 17  2  0  0  0
 16 21  1  0  0  0
 16 31  1  0  0  0
 17 18  1  0  0  0
 17100  1  0  0  0
 18 19  2  0  0  0
 18101  1  0  0  0
 19 20  1  0  0  0
 19 24  1  0  0  0
 20 21  2  0  0  0
 20102  1  0  0  0
 21 23  1  0  0  0
 22 28  1  0  0  0
 22 32  2  0  0  0
 26 27  1  0  0  0
 28103  1  0  0  0
 28104  1  0  0  0
 29105  1  0  0  0
 29106  1  0  0  0
 33 34  1  0  0  0
 33 66  1  0  0  0
 33 70  2  0  0  0
 34 36  1  0  0  0
 34 59  1  0  0  0
 34107  1  0  0  0
 35 44  2  0  0  0
 35 45  1  0  0  0
 35 68  1  0  0  0
 36 56  1  0  0  0
 36108  1  0  0  0
 37 39  1  0  0  0
 37 47  1  0  0  0
 37 66  1  0  0  0
 37109  1  0  0  0
 38 43  2  0  0  0
 38 46  1  0  0  0
 38 47  1  0  0  0
 39 64  1  0  0  0
 39 67  2  0  0  0
 40 52  1  0  0  0
 40 53  2  0  0  0
 40 58  1  0  0  0
 41110  1  0  0  0
 41111  1  0  0  0
 41112  1  0  0  0
 41 48  1  0  0  0
 42 43  1  0  0  0
 42 66  1  0  0  0
 42113  1  0  0  0
 42114  1  0  0  0
 43 44  1  0  0  0
 44115  1  0  0  0
 45 46  2  0  0  0
 45116  1  0  0  0
 46117  1  0  0  0
 47118  1  0  0  0
 47119  1  0  0  0
 48 56  1  0  0  0
 48 65  1  0  0  0
 48120  1  0  0  0
 49 50  1  0  0  0
 49 53  1  0  0  0
 49 64  1  0  0  0
 49121  1  0  0  0
 50 51  1  0  0  0
 50122  1  0  0  0
 50123  1  0  0  0
 51 52  1  0  0  0
 51124  1  0  0  0
 51125  1  0  0  0
 52126  1  0  0  0
 52127  1  0  0  0
 53 54  1  0  0  0
 54 55  2  0  0  0
 54128  1  0  0  0
 55 57  1  0  0  0
 55129  1  0  0  0
 56 69  2  0  0  0
 57 58  2  0  0  0
 57130  1  0  0  0
 58131  1  0  0  0
 59 60  1  0  0  0
 59 61  1  0  0  0
 59 62  1  0  0  0
 60132  1  0  0  0
 60133  1  0  0  0
 60134  1  0  0  0
 61135  1  0  0  0
 61136  1  0  0  0
 61137  1  0  0  0
 62138  1  0  0  0
 62139  1  0  0  0
 62140  1  0  0  0
 63 65  1  0  0  0
 63141  1  0  0  0
 63142  1  0  0  0
 63143  1  0  0  0
 64144  1  0  0  0
 65145  1  0  0  0
 68 81  1  0  0  0
 71 72  2  0  0  0
 71 73  1  0  0  0
 71146  1  0  0  0
 72 74  1  0  0  0
 72147  1  0  0  0
 73 76  2  0  0  0
 73148  1  0  0  0
 74 75  2  0  0  0
 74 83  1  0  0  0
 75 76  1  0  0  0
 75 82  1  0  0  0
 76 85  1  0  0  0
 77 81  1  0  0  0
 77 84  1  0  0  0
 77 86  2  0  0  0
 78 79  1  0  0  0
 78 80  1  0  0  0
 78149  1  0  0  0
 78150  1  0  0  0
 79 81  1  0  0  0
 79151  1  0  0  0
 79152  1  0  0  0
 80 84  1  0  0  0
 80153  1  0  0  0
 80154  1  0  0  0
 81155  1  0  0  0
 82156  1  0  0  0
 82157  1  0  0  0
 82158  1  0  0  0
 83 84  1  0  0  0
 83159  1  0  0  0
 83160  1  0  0  0
 85161  1  0  0  0
M  ISO  4   1 100  68 101  81 101  85 100
M  END
> <chiral flag>
0

> <version>
0

> <s_m_source_file>
/data/baiqing/PycharmProjects/Reinvent-master-3.2/result/LINK_invent/BTK/process_docking_weight1_custom_product_contain_oxygen_bond_distance_aromatic_linkinvent_7_9_3/rearranged_h_0046.sdf

> <i_m_source_file_index>
68

> <r_mmod_Potential_Energy-OPLS-2005>
220.310195922852

> <r_mmod_Stretch_Energy-OPLS-2005>
139.211883544922

> <r_mmod_Bend_Energy-OPLS-2005>
176.576812744141

> <r_mmod_Torsional_Energy-OPLS-2005>
242.835494995117

> <r_mmod_Improper_Torsional_Energy-OPLS-2005>
6.75346612930298

> <r_mmod_Van_der_Waal_Energy-OPLS-2005>
147.470001220703

> <r_mmod_Electrostatic_Energy-OPLS-2005>
-345.661926269531

> <r_mmod_Solvation_Energy-OPLS-2005>
-234.506744384766

> <b_mmod_Minimization_Converged-OPLS-2005>
0

> <r_mmod_RMS_Derivative-OPLS-2005>
2.37469029426575

$$$$
68
                    3D
 Structure written by MMmdl.
161170  0  0  1  0            999 V2000
  -30.6037  -14.7522   20.4475 C   0  0  0  0  0  0
  -30.4289  -12.4568   19.4713 C   0  0  0  0  0  0
  -29.5049  -12.5016   18.2347 C   0  0  0  0  0  0
  -28.0341  -12.3194   18.6552 C   0  0  0  0  0  0
  -27.6378  -13.2284   19.8493 C   0  0  2  0  0  0
  -28.6828  -13.1724   20.9848 C   0  0  0  0  0  0
  -25.2485  -13.8173   20.5676 C   0  0  0  0  0  0
  -24.1788  -13.0427   20.9224 C   0  0  0  0  0  0
  -24.6381  -11.6908   20.8780 C   0  0  0  0  0  0
  -23.9068  -10.4282   21.0427 C   0  0  0  0  0  0
  -24.3620   -9.4197   21.9202 C   0  0  0  0  0  0
  -23.6292   -8.2235   22.0768 C   0  0  0  0  0  0
  -22.4277   -8.0279   21.3554 C   0  0  0  0  0  0
  -21.9910   -9.0253   20.4652 C   0  0  0  0  0  0
  -22.7245  -10.2129   20.3066 C   0  0  0  0  0  0
  -21.6847   -6.0732   22.5278 C   0  0  0  0  0  0
  -21.4010   -6.5640   23.8211 C   0  0  0  0  0  0
  -21.3658   -5.6798   24.9177 C   0  0  0  0  0  0
  -21.6041   -4.3056   24.7225 C   0  0  0  0  0  0
  -21.8825   -3.8144   23.4346 C   0  0  0  0  0  0
  -21.9191   -4.6960   22.3397 C   0  0  0  0  0  0
  -22.7815  -13.5220   21.1874 C   0  0  0  0  0  0
  -22.1662   -4.2146   21.0975 F   0  0  0  0  0  0
  -21.5625   -3.4539   25.7735 F   0  0  0  0  0  0
  -29.9817  -13.5237   20.3977 N   0  0  0  0  0  0
  -26.2913  -12.9379   20.3281 N   0  0  0  0  0  0
  -25.9311  -11.6525   20.5782 N   0  0  0  0  0  0
  -22.0455  -12.8211   22.0423 N   0  0  0  0  0  0
  -25.4139  -15.1884   20.4010 N   0  0  0  0  0  0
  -31.7976  -14.8302   20.1412 O   0  0  0  0  0  0
  -21.6642   -6.8876   21.4244 O   0  0  0  0  0  0
  -22.3508  -14.5530   20.6721 O   0  0  0  0  0  0
  -24.6310  -31.8535   23.1940 C   0  0  0  0  0  0
  -25.9140  -32.4733   23.8290 C   0  0  1  0  0  0
  -27.2211  -27.2565   20.1238 C   0  0  0  0  0  0
  -25.5925  -33.8545   24.2221 N   0  0  0  0  0  0
  -23.4279  -30.4734   21.5376 C   0  0  2  0  0  0
  -24.8726  -28.9171   20.1056 C   0  0  0  0  0  0
  -22.7499  -29.4590   22.4913 C   0  0  0  0  0  0
  -18.0290  -28.1392   22.8500 C   0  0  0  0  0  0
  -24.1495  -36.7266   23.2642 C   0  0  0  0  0  0
  -25.9737  -30.7631   21.3735 C   0  0  0  0  0  0
  -26.0417  -29.3858   20.7142 C   0  0  0  0  0  0
  -27.2148  -28.5666   20.7137 C   0  0  0  0  0  0
  -26.0241  -26.8462   19.4961 C   0  0  0  0  0  0
  -24.8680  -27.6549   19.4883 C   0  0  0  0  0  0
  -23.6434  -29.8038   20.1532 C   0  0  0  0  0  0
  -25.4128  -36.3058   24.0322 C   0  0  1  0  0  0
  -20.5892  -28.3693   23.1273 C   0  0  2  0  0  0
  -20.6792  -26.9411   22.5410 C   0  0  0  0  0  0
  -19.5766  -26.6387   21.5215 C   0  0  0  0  0  0
  -18.1942  -26.7939   22.1621 C   0  0  0  0  0  0
  -19.1547  -28.8864   23.2879 C   0  0  0  0  0  0
  -18.9468  -30.1474   23.8878 C   0  0  0  0  0  0
  -17.6471  -30.6589   24.0577 C   0  0  0  0  0  0
  -25.9061  -34.9431   23.5079 C   0  0  0  0  0  0
  -16.5357  -29.9095   23.6336 C   0  0  0  0  0  0
  -16.7275  -28.6516   23.0353 C   0  0  0  0  0  0
  -26.4503  -31.6578   25.0698 C   0  0  0  0  0  0
  -25.3711  -31.3735   26.1404 C   0  0  0  0  0  0
  -27.0368  -30.3008   24.6199 C   0  0  0  0  0  0
  -27.6049  -32.4334   25.7466 C   0  0  0  0  0  0
  -27.5582  -37.1797   24.8476 C   0  0  0  0  0  0
  -21.4213  -29.3044   22.3676 N   0  0  0  0  0  0
  -26.4298  -37.3767   23.9407 N   0  0  0  0  0  0
  -24.6966  -31.0506   22.0900 N   0  0  0  0  0  0
  -23.4203  -28.8154   23.3024 O   0  0  0  0  0  0
  -28.3409  -26.3991   20.2272 O   0  0  0  0  0  0
  -26.5662  -34.8912   22.4660 O   0  0  0  0  0  0
  -23.5460  -32.1346   23.7242 O   0  0  0  0  0  0
  -31.7982  -19.1432   20.9037 C   0  0  0  0  0  0
  -30.8387  -20.1592   20.7280 C   0  0  0  0  0  0
  -31.4530  -17.7773   20.8491 C   0  0  0  0  0  0
  -29.4898  -19.8531   20.4626 C   0  0  0  0  0  0
  -29.1519  -18.4269   20.3972 C   0  0  0  0  0  0
  -30.1276  -17.3513   20.5989 C   0  0  0  0  0  0
  -28.3005  -23.7052   20.3776 C   0  0  0  0  0  0
  -30.6080  -23.7518   18.6963 C   0  0  0  0  0  0
  -29.9196  -25.1179   18.9125 C   0  0  0  0  0  0
  -29.6169  -22.5723   18.6624 C   0  0  0  0  0  0
  -28.5038  -25.0688   19.5402 C   0  0  2  0  0  0
  -27.7115  -18.0551   20.0862 C   0  0  0  0  0  0
  -28.4502  -21.0695   20.3316 C   0  0  0  0  0  0
  -28.8258  -22.5005   19.8980 N   0  0  0  0  0  0
  -29.8117  -15.8887   20.6092 N   0  0  0  0  0  0
  -27.6229  -23.7468   21.4087 O   0  0  0  0  0  0
  -31.4691  -12.5798   19.1654 H   0  0  0  0  0  0
  -30.3747  -11.4829   19.9598 H   0  0  0  0  0  0
  -29.7893  -11.7262   17.5226 H   0  0  0  0  0  0
  -29.6241  -13.4543   17.7162 H   0  0  0  0  0  0
  -27.9016  -11.2719   18.9318 H   0  0  0  0  0  0
  -27.3704  -12.4934   17.8070 H   0  0  0  0  0  0
  -27.6291  -14.2463   19.4605 H   0  0  0  0  0  0
  -28.7206  -12.1791   21.4323 H   0  0  0  0  0  0
  -28.4158  -13.8594   21.7895 H   0  0  0  0  0  0
  -25.2758   -9.5667   22.4783 H   0  0  0  0  0  0
  -23.9991   -7.4620   22.7483 H   0  0  0  0  0  0
  -21.0842   -8.8775   19.8945 H   0  0  0  0  0  0
  -22.3715  -10.9673   19.6170 H   0  0  0  0  0  0
  -21.2010   -7.6152   23.9714 H   0  0  0  0  0  0
  -21.1473   -6.0525   25.9078 H   0  0  0  0  0  0
  -22.0604   -2.7605   23.2843 H   0  0  0  0  0  0
  -22.4056  -11.9851   22.4779 H   0  0  0  0  0  0
  -21.1088  -13.1252   22.2657 H   0  0  0  0  0  0
  -24.6355  -15.8324   20.4853 H   0  0  0  0  0  0
  -26.2348  -15.6103   19.9908 H   0  0  0  0  0  0
  -26.7210  -32.5366   23.1027 H   0  0  0  0  0  0
  -25.0090  -33.9697   25.0373 H   0  0  0  0  0  0
  -22.7264  -31.2972   21.3900 H   0  0  0  0  0  0
  -23.3765  -35.9583   23.3298 H   0  0  0  0  0  0
  -24.3588  -36.8897   22.2056 H   0  0  0  0  0  0
  -23.7235  -37.6462   23.6676 H   0  0  0  0  0  0
  -26.1217  -31.5254   20.6066 H   0  0  0  0  0  0
  -26.8485  -30.8062   22.0115 H   0  0  0  0  0  0
  -28.1091  -28.9200   21.2062 H   0  0  0  0  0  0
  -25.9371  -25.8705   19.0455 H   0  0  0  0  0  0
  -23.9653  -27.2885   19.0182 H   0  0  0  0  0  0
  -23.7691  -30.5777   19.3938 H   0  0  0  0  0  0
  -22.7600  -29.2380   19.8501 H   0  0  0  0  0  0
  -25.1315  -36.1890   25.0817 H   0  0  0  0  0  0
  -20.9989  -28.3247   24.1385 H   0  0  0  0  0  0
  -20.5715  -26.2293   23.3611 H   0  0  0  0  0  0
  -21.6658  -26.7462   22.1183 H   0  0  0  0  0  0
  -19.6929  -25.6296   21.1245 H   0  0  0  0  0  0
  -19.6690  -27.3216   20.6755 H   0  0  0  0  0  0
  -17.4224  -26.6697   21.4016 H   0  0  0  0  0  0
  -18.0321  -26.0082   22.9006 H   0  0  0  0  0  0
  -19.7948  -30.7321   24.2207 H   0  0  0  0  0  0
  -17.5016  -31.6256   24.5209 H   0  0  0  0  0  0
  -15.5358  -30.2999   23.7679 H   0  0  0  0  0  0
  -15.8671  -28.0843   22.7052 H   0  0  0  0  0  0
  -24.5885  -30.7095   25.7729 H   0  0  0  0  0  0
  -24.8889  -32.2907   26.4806 H   0  0  0  0  0  0
  -25.7990  -30.8921   27.0199 H   0  0  0  0  0  0
  -26.2959  -29.6747   24.1231 H   0  0  0  0  0  0
  -27.4092  -29.7289   25.4703 H   0  0  0  0  0  0
  -27.8803  -30.4322   23.9416 H   0  0  0  0  0  0
  -27.2664  -33.3673   26.1978 H   0  0  0  0  0  0
  -28.3877  -32.6852   25.0291 H   0  0  0  0  0  0
  -28.0704  -31.8506   26.5429 H   0  0  0  0  0  0
  -28.2612  -38.0093   24.7532 H   0  0  0  0  0  0
  -28.1073  -36.2626   24.6286 H   0  0  0  0  0  0
  -27.2306  -37.1419   25.8886 H   0  0  0  0  0  0
  -20.9406  -29.8725   21.6843 H   0  0  0  0  0  0
  -26.0162  -38.2835   24.1403 H   0  0  0  0  0  0
  -32.8237  -19.4185   21.1025 H   0  0  0  0  0  0
  -31.1529  -21.1904   20.8117 H   0  0  0  0  0  0
  -32.2402  -17.0602   21.0269 H   0  0  0  0  0  0
  -31.3234  -23.5840   19.5039 H   0  0  0  0  0  0
  -31.1996  -23.7740   17.7798 H   0  0  0  0  0  0
  -29.8435  -25.6354   17.9560 H   0  0  0  0  0  0
  -30.5759  -25.7408   19.5217 H   0  0  0  0  0  0
  -30.1626  -21.6436   18.4981 H   0  0  0  0  0  0
  -28.9424  -22.6766   17.8107 H   0  0  0  0  0  0
  -27.8103  -24.9948   18.7042 H   0  0  0  0  0  0
  -27.0378  -18.4714   20.8347 H   0  0  0  0  0  0
  -27.5527  -16.9801   20.0576 H   0  0  0  0  0  0
  -27.4258  -18.4448   19.1082 H   0  0  0  0  0  0
  -27.9309  -21.1312   21.2889 H   0  0  0  0  0  0
  -27.6820  -20.7577   19.6243 H   0  0  0  0  0  0
  -28.8356  -15.6712   20.7319 H   0  0  0  0  0  0
  1 25  1  0  0  0
  1 30  2  0  0  0
  1 85  1  0  0  0
  2  3  1  0  0  0
  2 25  1  0  0  0
  2 87  1  0  0  0
  2 88  1  0  0  0
  3  4  1  0  0  0
  3 89  1  0  0  0
  3 90  1  0  0  0
  4  5  1  0  0  0
  4 91  1  0  0  0
  4 92  1  0  0  0
  5  6  1  0  0  0
  5 26  1  0  0  0
  5 93  1  0  0  0
  6 25  1  0  0  0
  6 94  1  0  0  0
  6 95  1  0  0  0
  7  8  2  0  0  0
  7 26  1  0  0  0
  7 29  1  0  0  0
  8  9  1  0  0  0
  8 22  1  0  0  0
  9 10  1  0  0  0
  9 27  2  0  0  0
 10 11  2  0  0  0
 10 15  1  0  0  0
 11 12  1  0  0  0
 11 96  1  0  0  0
 12 13  2  0  0  0
 12 97  1  0  0  0
 13 14  1  0  0  0
 13 31  1  0  0  0
 14 15  2  0  0  0
 14 98  1  0  0  0
 15 99  1  0  0  0
 16 17  2  0  0  0
 16 21  1  0  0  0
 16 31  1  0  0  0
 17 18  1  0  0  0
 17100  1  0  0  0
 18 19  2  0  0  0
 18101  1  0  0  0
 19 20  1  0  0  0
 19 24  1  0  0  0
 20 21  2  0  0  0
 20102  1  0  0  0
 21 23  1  0  0  0
 22 28  1  0  0  0
 22 32  2  0  0  0
 26 27  1  0  0  0
 28103  1  0  0  0
 28104  1  0  0  0
 29105  1  0  0  0
 29106  1  0  0  0
 33 34  1  0  0  0
 33 66  1  0  0  0
 33 70  2  0  0  0
 34 36  1  0  0  0
 34 59  1  0  0  0
 34107  1  0  0  0
 35 44  2  0  0  0
 35 45  1  0  0  0
 35 68  1  0  0  0
 36 56  1  0  0  0
 36108  1  0  0  0
 37 39  1  0  0  0
 37 47  1  0  0  0
 37 66  1  0  0  0
 37109  1  0  0  0
 38 43  2  0  0  0
 38 46  1  0  0  0
 38 47  1  0  0  0
 39 64  1  0  0  0
 39 67  2  0  0  0
 40 52  1  0  0  0
 40 53  2  0  0  0
 40 58  1  0  0  0
 41110  1  0  0  0
 41111  1  0  0  0
 41112  1  0  0  0
 41 48  1  0  0  0
 42 43  1  0  0  0
 42 66  1  0  0  0
 42113  1  0  0  0
 42114  1  0  0  0
 43 44  1  0  0  0
 44115  1  0  0  0
 45 46  2  0  0  0
 45116  1  0  0  0
 46117  1  0  0  0
 47118  1  0  0  0
 47119  1  0  0  0
 48 56  1  0  0  0
 48 65  1  0  0  0
 48120  1  0  0  0
 49 50  1  0  0  0
 49 53  1  0  0  0
 49 64  1  0  0  0
 49121  1  0  0  0
 50 51  1  0  0  0
 50122  1  0  0  0
 50123  1  0  0  0
 51 52  1  0  0  0
 51124  1  0  0  0
 51125  1  0  0  0
 52126  1  0  0  0
 52127  1  0  0  0
 53 54  1  0  0  0
 54 55  2  0  0  0
 54128  1  0  0  0
 55 57  1  0  0  0
 55129  1  0  0  0
 56 69  2  0  0  0
 57 58  2  0  0  0
 57130  1  0  0  0
 58131  1  0  0  0
 59 60  1  0  0  0
 59 61  1  0  0  0
 59 62  1  0  0  0
 60132  1  0  0  0
 60133  1  0  0  0
 60134  1  0  0  0
 61135  1  0  0  0
 61136  1  0  0  0
 61137  1  0  0  0
 62138  1  0  0  0
 62139  1  0  0  0
 62140  1  0  0  0
 63 65  1  0  0  0
 63141  1  0  0  0
 63142  1  0  0  0
 63143  1  0  0  0
 64144  1  0  0  0
 65145  1  0  0  0
 68 81  1  0  0  0
 71 72  2  0  0  0
 71 73  1  0  0  0
 71146  1  0  0  0
 72 74  1  0  0  0
 72147  1  0  0  0
 73 76  2  0  0  0
 73148  1  0  0  0
 74 75  2  0  0  0
 74 83  1  0  0  0
 75 76  1  0  0  0
 75 82  1  0  0  0
 76 85  1  0  0  0
 77 81  1  0  0  0
 77 84  1  0  0  0
 77 86  2  0  0  0
 78 79  1  0  0  0
 78 80  1  0  0  0
 78149  1  0  0  0
 78150  1  0  0  0
 79 81  1  0  0  0
 79151  1  0  0  0
 79152  1  0  0  0
 80 84  1  0  0  0
 80153  1  0  0  0
 80154  1  0  0  0
 81155  1  0  0  0
 82156  1  0  0  0
 82157  1  0  0  0
 82158  1  0  0  0
 83 84  1  0  0  0
 83159  1  0  0  0
 83160  1  0  0  0
 85161  1  0  0  0
M  ISO  4   1 100  68 101  81 101  85 100
M  END
> <chiral flag>
0

> <version>
0

> <s_m_source_file>
/data/baiqing/PycharmProjects/Reinvent-master-3.2/result/LINK_invent/BTK/process_docking_weight1_custom_product_contain_oxygen_bond_distance_aromatic_linkinvent_7_9_3/rearranged_h_0046.sdf

> <i_m_source_file_index>
69

> <r_mmod_Potential_Energy-OPLS-2005>
220.310195922852

> <r_mmod_Stretch_Energy-OPLS-2005>
139.211883544922

> <r_mmod_Bend_Energy-OPLS-2005>
176.576812744141

> <r_mmod_Torsional_Energy-OPLS-2005>
242.835494995117

> <r_mmod_Improper_Torsional_Energy-OPLS-2005>
6.75346612930298

> <r_mmod_Van_der_Waal_Energy-OPLS-2005>
147.470001220703

> <r_mmod_Electrostatic_Energy-OPLS-2005>
-345.661926269531

> <r_mmod_Solvation_Energy-OPLS-2005>
-234.506744384766

> <b_mmod_Minimization_Converged-OPLS-2005>
0

> <r_mmod_RMS_Derivative-OPLS-2005>
2.37469029426575

$$$$
69
                    3D
 Structure written by MMmdl.
158167  0  0  1  0            999 V2000
  -30.5231  -15.0203   20.4181 C   0  0  0  0  0  0
  -30.4375  -12.6418   19.4915 C   0  0  0  0  0  0
  -29.5155  -12.5232   18.2561 C   0  0  0  0  0  0
  -28.0561  -12.2919   18.6887 C   0  0  0  0  0  0
  -27.6234  -13.2485   19.8305 C   0  0  2  0  0  0
  -28.6683  -13.3143   20.9639 C   0  0  0  0  0  0
  -25.2437  -13.8205   20.5705 C   0  0  0  0  0  0
  -24.1768  -13.0429   20.9214 C   0  0  0  0  0  0
  -24.6397  -11.6915   20.8762 C   0  0  0  0  0  0
  -23.9074  -10.4283   21.0406 C   0  0  0  0  0  0
  -24.3615   -9.4195   21.9185 C   0  0  0  0  0  0
  -23.6282   -8.2226   22.0756 C   0  0  0  0  0  0
  -22.4267   -8.0267   21.3537 C   0  0  0  0  0  0
  -21.9904   -9.0243   20.4649 C   0  0  0  0  0  0
  -22.7236  -10.2123   20.3062 C   0  0  0  0  0  0
  -21.6854   -6.0731   22.5278 C   0  0  0  0  0  0
  -21.4016   -6.5639   23.8209 C   0  0  0  0  0  0
  -21.3660   -5.6788   24.9171 C   0  0  0  0  0  0
  -21.6047   -4.3048   24.7217 C   0  0  0  0  0  0
  -21.8823   -3.8141   23.4336 C   0  0  0  0  0  0
  -21.9187   -4.6962   22.3397 C   0  0  0  0  0  0
  -22.7785  -13.5200   21.1850 C   0  0  0  0  0  0
  -22.1657   -4.2146   21.0971 F   0  0  0  0  0  0
  -21.5624   -3.4534   25.7730 F   0  0  0  0  0  0
  -29.9238  -13.7571   20.3464 N   0  0  0  0  0  0
  -26.2858  -12.9449   20.3232 N   0  0  0  0  0  0
  -25.9328  -11.6582   20.5744 N   0  0  0  0  0  0
  -22.0445  -12.8204   22.0426 N   0  0  0  0  0  0
  -25.4067  -15.1932   20.4121 N   0  0  0  0  0  0
  -31.7362  -15.0348   20.1754 O   0  0  0  0  0  0
  -21.6638   -6.8863   21.4235 O   0  0  0  0  0  0
  -22.3470  -14.5490   20.6676 O   0  0  0  0  0  0
  -24.6470  -31.8401   23.1857 C   0  0  0  0  0  0
  -25.9231  -32.4663   23.8253 C   0  0  1  0  0  0
  -27.2080  -27.0858   20.1452 C   0  0  0  0  0  0
  -25.5976  -33.8483   24.2154 N   0  0  0  0  0  0
  -23.4517  -30.4604   21.5310 C   0  0  2  0  0  0
  -24.9046  -28.8901   20.0956 C   0  0  0  0  0  0
  -22.7586  -29.4524   22.4817 C   0  0  0  0  0  0
  -18.0314  -28.1413   22.8461 C   0  0  0  0  0  0
  -24.1498  -36.7242   23.2635 C   0  0  0  0  0  0
  -26.0138  -30.6930   21.4007 C   0  0  0  0  0  0
  -26.0808  -29.3039   20.7352 C   0  0  0  0  0  0
  -27.2299  -28.4160   20.7484 C   0  0  0  0  0  0
  -26.0279  -26.8226   19.4137 C   0  0  0  0  0  0
  -24.8955  -27.6657   19.4164 C   0  0  0  0  0  0
  -23.6812  -29.7947   20.1477 C   0  0  0  0  0  0
  -25.4130  -36.3003   24.0297 C   0  0  1  0  0  0
  -20.5926  -28.3744   23.1209 C   0  0  2  0  0  0
  -20.6802  -26.9443   22.5391 C   0  0  0  0  0  0
  -19.5777  -26.6392   21.5205 C   0  0  0  0  0  0
  -18.1957  -26.7943   22.1621 C   0  0  0  0  0  0
  -19.1564  -28.8897   23.2828 C   0  0  0  0  0  0
  -18.9486  -30.1491   23.8863 C   0  0  0  0  0  0
  -17.6481  -30.6606   24.0565 C   0  0  0  0  0  0
  -25.9082  -34.9385   23.5029 C   0  0  0  0  0  0
  -16.5374  -29.9100   23.6342 C   0  0  0  0  0  0
  -16.7294  -28.6524   23.0346 C   0  0  0  0  0  0
  -26.4530  -31.6552   25.0721 C   0  0  0  0  0  0
  -25.3705  -31.3814   26.1415 C   0  0  0  0  0  0
  -27.0391  -30.2906   24.6403 C   0  0  0  0  0  0
  -27.6039  -32.4344   25.7534 C   0  0  0  0  0  0
  -27.5567  -37.1780   24.8457 C   0  0  0  0  0  0
  -21.4271  -29.3049   22.3565 N   0  0  0  0  0  0
  -26.4277  -37.3719   23.9393 N   0  0  0  0  0  0
  -24.7232  -31.0214   22.0927 N   0  0  0  0  0  0
  -23.4212  -28.8068   23.2978 O   0  0  0  0  0  0
  -28.2111  -26.0334   20.2685 O   0  0  0  0  0  0
  -26.5673  -34.8894   22.4613 O   0  0  0  0  0  0
  -23.5583  -32.1330   23.7038 O   0  0  0  0  0  0
  -31.7388  -19.2204   18.9714 C   0  0  0  0  0  0
  -30.3328  -19.3513   18.8687 C   0  0  0  0  0  0
  -32.3067  -18.6408   20.1303 C   0  0  0  0  0  0
  -29.5693  -19.0088   20.0069 C   0  0  0  0  0  0
  -30.1367  -17.7516   20.6495 C   0  0  0  0  0  0
  -31.4842  -17.9328   21.0253 C   0  0  0  0  0  0
  -28.9840  -23.2405   20.3458 C   0  0  0  0  0  0
  -26.2047  -22.5615   20.2087 C   0  0  0  0  0  0
  -26.6431  -23.9701   20.7048 C   0  0  0  0  0  0
  -27.3172  -21.6889   19.5500 C   0  0  0  0  0  0
  -27.9186  -24.4924   19.9973 C   0  0  2  0  0  0
  -29.2483  -20.4766   20.7549 C   0  0  0  0  0  0
  -28.6365  -21.8516   20.1728 N   0  0  0  0  0  0
  -29.7588  -16.2443   20.4985 N   0  0  0  0  0  0
  -30.0753  -23.5422   20.8375 O   0  0  0  0  0  0
  -32.1678  -17.1481   22.4081 Cl  0  0  0  0  0  0
  -31.4653  -12.8126   19.1652 H   0  0  0  0  0  0
  -30.4571  -11.7055   20.0500 H   0  0  0  0  0  0
  -29.8444  -11.7080   17.6093 H   0  0  0  0  0  0
  -29.5801  -13.4344   17.6601 H   0  0  0  0  0  0
  -27.9751  -11.2572   19.0257 H   0  0  0  0  0  0
  -27.3831  -12.3826   17.8351 H   0  0  0  0  0  0
  -27.5734  -14.2381   19.3745 H   0  0  0  0  0  0
  -28.7854  -12.3445   21.4498 H   0  0  0  0  0  0
  -28.3588  -14.0167   21.7383 H   0  0  0  0  0  0
  -25.2771   -9.5664   22.4751 H   0  0  0  0  0  0
  -23.9988   -7.4634   22.7503 H   0  0  0  0  0  0
  -21.0818   -8.8776   19.8977 H   0  0  0  0  0  0
  -22.3696  -10.9657   19.6169 H   0  0  0  0  0  0
  -21.2026   -7.6145   23.9703 H   0  0  0  0  0  0
  -21.1475   -6.0522   25.9068 H   0  0  0  0  0  0
  -22.0601   -2.7599   23.2839 H   0  0  0  0  0  0
  -22.4068  -11.9882   22.4846 H   0  0  0  0  0  0
  -21.1061  -13.1240   22.2633 H   0  0  0  0  0  0
  -24.6280  -15.8331   20.5231 H   0  0  0  0  0  0
  -26.2399  -15.6438   20.0577 H   0  0  0  0  0  0
  -26.7292  -32.5234   23.0976 H   0  0  0  0  0  0
  -25.0102  -33.9607   25.0283 H   0  0  0  0  0  0
  -22.7547  -31.2875   21.3763 H   0  0  0  0  0  0
  -23.3738  -35.9595   23.3311 H   0  0  0  0  0  0
  -24.3558  -36.8871   22.2040 H   0  0  0  0  0  0
  -23.7290  -37.6457   23.6674 H   0  0  0  0  0  0
  -26.1863  -31.4467   20.6311 H   0  0  0  0  0  0
  -26.8789  -30.7338   22.0504 H   0  0  0  0  0  0
  -28.1166  -28.7193   21.2861 H   0  0  0  0  0  0
  -25.9393  -25.9026   18.8576 H   0  0  0  0  0  0
  -24.0092  -27.3551   18.8796 H   0  0  0  0  0  0
  -23.8195  -30.5753   19.3991 H   0  0  0  0  0  0
  -22.7943  -29.2420   19.8311 H   0  0  0  0  0  0
  -25.1318  -36.1814   25.0784 H   0  0  0  0  0  0
  -21.0014  -28.3349   24.1334 H   0  0  0  0  0  0
  -20.5710  -26.2353   23.3612 H   0  0  0  0  0  0
  -21.6667  -26.7465   22.1178 H   0  0  0  0  0  0
  -19.6946  -25.6294   21.1254 H   0  0  0  0  0  0
  -19.6716  -27.3188   20.6723 H   0  0  0  0  0  0
  -17.4217  -26.6660   21.4036 H   0  0  0  0  0  0
  -18.0387  -26.0110   22.9049 H   0  0  0  0  0  0
  -19.7960  -30.7314   24.2214 H   0  0  0  0  0  0
  -17.5041  -31.6281   24.5175 H   0  0  0  0  0  0
  -15.5371  -30.3003   23.7691 H   0  0  0  0  0  0
  -15.8688  -28.0852   22.7068 H   0  0  0  0  0  0
  -24.5917  -30.7098   25.7778 H   0  0  0  0  0  0
  -24.8858  -32.3026   26.4662 H   0  0  0  0  0  0
  -25.7985  -30.9147   27.0296 H   0  0  0  0  0  0
  -26.3032  -29.6617   24.1377 H   0  0  0  0  0  0
  -27.3876  -29.7233   25.5042 H   0  0  0  0  0  0
  -27.9003  -30.4045   23.9821 H   0  0  0  0  0  0
  -27.2593  -33.3676   26.2008 H   0  0  0  0  0  0
  -28.3927  -32.6856   25.0429 H   0  0  0  0  0  0
  -28.0618  -31.8539   26.5557 H   0  0  0  0  0  0
  -28.2567  -38.0087   24.7472 H   0  0  0  0  0  0
  -28.1084  -36.2608   24.6322 H   0  0  0  0  0  0
  -27.2281  -37.1472   25.8861 H   0  0  0  0  0  0
  -20.9494  -29.8748   21.6725 H   0  0  0  0  0  0
  -26.0138  -38.2779   24.1395 H   0  0  0  0  0  0
  -32.3824  -19.6845   18.2370 H   0  0  0  0  0  0
  -29.9711  -20.0691   18.1459 H   0  0  0  0  0  0
  -33.3739  -18.6686   20.2944 H   0  0  0  0  0  0
  -25.3902  -22.6730   19.4904 H   0  0  0  0  0  0
  -25.7792  -22.0169   21.0519 H   0  0  0  0  0  0
  -26.8509  -23.9228   21.7747 H   0  0  0  0  0  0
  -25.7905  -24.6373   20.6336 H   0  0  0  0  0  0
  -27.4167  -21.9663   18.4984 H   0  0  0  0  0  0
  -27.0116  -20.6418   19.5448 H   0  0  0  0  0  0
  -27.7576  -24.4463   18.9189 H   0  0  0  0  0  0
  -30.1939  -20.7648   21.2158 H   0  0  0  0  0  0
  -28.6137  -20.2251   21.6043 H   0  0  0  0  0  0
  -28.7663  -16.0828   20.4259 H   0  0  0  0  0  0
  1 25  1  0  0  0
  1 30  2  0  0  0
  1 84  1  0  0  0
  2  3  1  0  0  0
  2 25  1  0  0  0
  2 87  1  0  0  0
  2 88  1  0  0  0
  3  4  1  0  0  0
  3 89  1  0  0  0
  3 90  1  0  0  0
  4  5  1  0  0  0
  4 91  1  0  0  0
  4 92  1  0  0  0
  5  6  1  0  0  0
  5 26  1  0  0  0
  5 93  1  0  0  0
  6 25  1  0  0  0
  6 94  1  0  0  0
  6 95  1  0  0  0
  7  8  2  0  0  0
  7 26  1  0  0  0
  7 29  1  0  0  0
  8  9  1  0  0  0
  8 22  1  0  0  0
  9 10  1  0  0  0
  9 27  2  0  0  0
 10 11  2  0  0  0
 10 15  1  0  0  0
 11 12  1  0  0  0
 11 96  1  0  0  0
 12 13  2  0  0  0
 12 97  1  0  0  0
 13 14  1  0  0  0
 13 31  1  0  0  0
 14 15  2  0  0  0
 14 98  1  0  0  0
 15 99  1  0  0  0
 16 17  2  0  0  0
 16 21  1  0  0  0
 16 31  1  0  0  0
 17 18  1  0  0  0
 17100  1  0  0  0
 18 19  2  0  0  0
 18101  1  0  0  0
 19 20  1  0  0  0
 19 24  1  0  0  0
 20 21  2  0  0  0
 20102  1  0  0  0
 21 23  1  0  0  0
 22 28  1  0  0  0
 22 32  2  0  0  0
 26 27  1  0  0  0
 28103  1  0  0  0
 28104  1  0  0  0
 29105  1  0  0  0
 29106  1  0  0  0
 33 34  1  0  0  0
 33 66  1  0  0  0
 33 70  2  0  0  0
 34 36  1  0  0  0
 34 59  1  0  0  0
 34107  1  0  0  0
 35 44  2  0  0  0
 35 45  1  0  0  0
 35 68  1  0  0  0
 36 56  1  0  0  0
 36108  1  0  0  0
 37 39  1  0  0  0
 37 47  1  0  0  0
 37 66  1  0  0  0
 37109  1  0  0  0
 38 43  2  0  0  0
 38 46  1  0  0  0
 38 47  1  0  0  0
 39 64  1  0  0  0
 39 67  2  0  0  0
 40 52  1  0  0  0
 40 53  2  0  0  0
 40 58  1  0  0  0
 41110  1  0  0  0
 41111  1  0  0  0
 41112  1  0  0  0
 41 48  1  0  0  0
 42 43  1  0  0  0
 42 66  1  0  0  0
 42113  1  0  0  0
 42114  1  0  0  0
 43 44  1  0  0  0
 44115  1  0  0  0
 45 46  2  0  0  0
 45116  1  0  0  0
 46117  1  0  0  0
 47118  1  0  0  0
 47119  1  0  0  0
 48 56  1  0  0  0
 48 65  1  0  0  0
 48120  1  0  0  0
 49 50  1  0  0  0
 49 53  1  0  0  0
 49 64  1  0  0  0
 49121  1  0  0  0
 50 51  1  0  0  0
 50122  1  0  0  0
 50123  1  0  0  0
 51 52  1  0  0  0
 51124  1  0  0  0
 51125  1  0  0  0
 52126  1  0  0  0
 52127  1  0  0  0
 53 54  1  0  0  0
 54 55  2  0  0  0
 54128  1  0  0  0
 55 57  1  0  0  0
 55129  1  0  0  0
 56 69  2  0  0  0
 57 58  2  0  0  0
 57130  1  0  0  0
 58131  1  0  0  0
 59 60  1  0  0  0
 59 61  1  0  0  0
 59 62  1  0  0  0
 60132  1  0  0  0
 60133  1  0  0  0
 60134  1  0  0  0
 61135  1  0  0  0
 61136  1  0  0  0
 61137  1  0  0  0
 62138  1  0  0  0
 62139  1  0  0  0
 62140  1  0  0  0
 63 65  1  0  0  0
 63141  1  0  0  0
 63142  1  0  0  0
 63143  1  0  0  0
 64144  1  0  0  0
 65145  1  0  0  0
 68 81  1  0  0  0
 71 72  2  0  0  0
 71 73  1  0  0  0
 71146  1  0  0  0
 72 74  1  0  0  0
 72147  1  0  0  0
 73 76  2  0  0  0
 73148  1  0  0  0
 74 75  2  0  0  0
 74 82  1  0  0  0
 75 76  1  0  0  0
 75 84  1  0  0  0
 76 86  1  0  0  0
 77 81  1  0  0  0
 77 83  1  0  0  0
 77 85  2  0  0  0
 78 79  1  0  0  0
 78 80  1  0  0  0
 78149  1  0  0  0
 78150  1  0  0  0
 79 81  1  0  0  0
 79151  1  0  0  0
 79152  1  0  0  0
 80 83  1  0  0  0
 80153  1  0  0  0
 80154  1  0  0  0
 81155  1  0  0  0
 82 83  1  0  0  0
 82156  1  0  0  0
 82157  1  0  0  0
 84158  1  0  0  0
M  ISO  4   1 100  68 101  81 101  84 100
M  END
> <chiral flag>
0

> <version>
0

> <s_m_source_file>
/data/baiqing/PycharmProjects/Reinvent-master-3.2/result/LINK_invent/BTK/process_docking_weight1_custom_product_contain_oxygen_bond_distance_aromatic_linkinvent_7_9_3/rearranged_h_0046.sdf

> <i_m_source_file_index>
70

> <r_mmod_Potential_Energy-OPLS-2005>
1002.38537597656

> <r_mmod_Stretch_Energy-OPLS-2005>
345.193023681641

> <r_mmod_Bend_Energy-OPLS-2005>
317.672973632812

> <r_mmod_Torsional_Energy-OPLS-2005>
485.571411132812

> <r_mmod_Improper_Torsional_Energy-OPLS-2005>
36.2118339538574

> <r_mmod_Van_der_Waal_Energy-OPLS-2005>
151.804077148438

> <r_mmod_Electrostatic_Energy-OPLS-2005>
-349.204223632812

> <r_mmod_Solvation_Energy-OPLS-2005>
-235.83854675293

> <b_mmod_Minimization_Converged-OPLS-2005>
0

> <r_mmod_RMS_Derivative-OPLS-2005>
3.24913477897644

$$$$
70
                    3D
 Structure written by MMmdl.
161170  0  0  1  0            999 V2000
  -30.7466  -14.4463   20.6297 C   0  0  0  0  0  0
  -30.4157  -12.3175   19.4160 C   0  0  0  0  0  0
  -29.4886  -12.5146   18.2020 C   0  0  0  0  0  0
  -28.0128  -12.3695   18.6175 C   0  0  0  0  0  0
  -27.6599  -13.2113   19.8726 C   0  0  2  0  0  0
  -28.7006  -13.0023   20.9949 C   0  0  0  0  0  0
  -25.2577  -13.8171   20.5671 C   0  0  0  0  0  0
  -24.1833  -13.0443   20.9170 C   0  0  0  0  0  0
  -24.6395  -11.6913   20.8733 C   0  0  0  0  0  0
  -23.9066  -10.4295   21.0401 C   0  0  0  0  0  0
  -24.3616   -9.4209   21.9178 C   0  0  0  0  0  0
  -23.6291   -8.2246   22.0752 C   0  0  0  0  0  0
  -22.4272   -8.0282   21.3546 C   0  0  0  0  0  0
  -21.9909   -9.0256   20.4646 C   0  0  0  0  0  0
  -22.7239  -10.2134   20.3053 C   0  0  0  0  0  0
  -21.6853   -6.0735   22.5277 C   0  0  0  0  0  0
  -21.4014   -6.5639   23.8209 C   0  0  0  0  0  0
  -21.3659   -5.6792   24.9173 C   0  0  0  0  0  0
  -21.6046   -4.3055   24.7222 C   0  0  0  0  0  0
  -21.8820   -3.8146   23.4345 C   0  0  0  0  0  0
  -21.9194   -4.6964   22.3399 C   0  0  0  0  0  0
  -22.7857  -13.5238   21.1839 C   0  0  0  0  0  0
  -22.1663   -4.2147   21.0978 F   0  0  0  0  0  0
  -21.5630   -3.4538   25.7736 F   0  0  0  0  0  0
  -30.0331  -13.3015   20.4431 N   0  0  0  0  0  0
  -26.3016  -12.9350   20.3356 N   0  0  0  0  0  0
  -25.9322  -11.6506   20.5761 N   0  0  0  0  0  0
  -22.0499  -12.8229   22.0395 N   0  0  0  0  0  0
  -25.4305  -15.1887   20.4063 N   0  0  0  0  0  0
  -31.8276  -14.6497   20.0697 O   0  0  0  0  0  0
  -21.6641   -6.8877   21.4238 O   0  0  0  0  0  0
  -22.3542  -14.5546   20.6692 O   0  0  0  0  0  0
  -24.6173  -31.8683   23.2115 C   0  0  0  0  0  0
  -25.9064  -32.4820   23.8405 C   0  0  1  0  0  0
  -27.2158  -27.4050   20.0934 C   0  0  0  0  0  0
  -25.5923  -33.8625   24.2338 N   0  0  0  0  0  0
  -23.4045  -30.4967   21.5536 C   0  0  2  0  0  0
  -24.8450  -28.9680   20.1106 C   0  0  0  0  0  0
  -22.7421  -29.4673   22.4984 C   0  0  0  0  0  0
  -18.0280  -28.1388   22.8507 C   0  0  0  0  0  0
  -24.1487  -36.7304   23.2637 C   0  0  0  0  0  0
  -25.9393  -30.8233   21.3710 C   0  0  0  0  0  0
  -26.0097  -29.4589   20.7129 C   0  0  0  0  0  0
  -27.1972  -28.6850   20.7030 C   0  0  0  0  0  0
  -26.0319  -26.9553   19.4589 C   0  0  0  0  0  0
  -24.8524  -27.7160   19.4798 C   0  0  0  0  0  0
  -23.6111  -29.8394   20.1649 C   0  0  0  0  0  0
  -25.4110  -36.3113   24.0339 C   0  0  1  0  0  0
  -20.5873  -28.3676   23.1316 C   0  0  2  0  0  0
  -20.6779  -26.9412   22.5416 C   0  0  0  0  0  0
  -19.5748  -26.6393   21.5223 C   0  0  0  0  0  0
  -18.1926  -26.7938   22.1631 C   0  0  0  0  0  0
  -19.1530  -28.8848   23.2913 C   0  0  0  0  0  0
  -18.9457  -30.1458   23.8917 C   0  0  0  0  0  0
  -17.6458  -30.6597   24.0571 C   0  0  0  0  0  0
  -25.9041  -34.9475   23.5131 C   0  0  0  0  0  0
  -16.5348  -29.9100   23.6332 C   0  0  0  0  0  0
  -16.7268  -28.6514   23.0358 C   0  0  0  0  0  0
  -26.4479  -31.6600   25.0739 C   0  0  0  0  0  0
  -25.3741  -31.3719   26.1487 C   0  0  0  0  0  0
  -27.0301  -30.3038   24.6123 C   0  0  0  0  0  0
  -27.6065  -32.4306   25.7498 C   0  0  0  0  0  0
  -27.5583  -37.1811   24.8467 C   0  0  0  0  0  0
  -21.4151  -29.3042   22.3719 N   0  0  0  0  0  0
  -26.4295  -37.3796   23.9411 N   0  0  0  0  0  0
  -24.6722  -31.0774   22.1028 N   0  0  0  0  0  0
  -23.4188  -28.8205   23.3018 O   0  0  0  0  0  0
  -28.3652  -26.6272   20.1439 O   0  0  0  0  0  0
  -26.5594  -34.8925   22.4688 O   0  0  0  0  0  0
  -23.5363  -32.1446   23.7502 O   0  0  0  0  0  0
  -31.5491  -18.8313   21.3678 C   0  0  0  0  0  0
  -29.2656  -18.3765   22.0396 C   0  0  0  0  0  0
  -30.5687  -17.9013   21.7759 C   0  0  0  0  0  0
  -30.0003  -20.7075   21.7030 C   0  0  0  0  0  0
  -31.2747  -20.2151   21.3264 C   0  0  0  0  0  0
  -28.9819  -19.7639   22.0060 C   0  0  0  0  0  0
  -29.0185  -24.3866   21.0411 C   0  0  0  0  0  0
  -28.3591  -23.2321   18.4369 C   0  0  0  0  0  0
  -28.5614  -24.7451   18.5607 C   0  0  0  0  0  0
  -29.2124  -22.4586   19.4603 C   0  0  0  0  0  0
  -28.2165  -25.1891   19.9881 C   0  0  2  0  0  0
  -29.7780  -22.2225   21.9152 C   0  0  0  0  0  0
  -30.9854  -16.4557   22.0789 C   0  0  0  0  0  0
  -29.2698  -23.0642   20.8061 N   0  0  0  0  0  0
  -30.2199  -15.3599   21.4661 N   0  0  0  0  0  0
  -29.3253  -24.9386   22.1047 O   0  0  0  0  0  0
  -32.5508  -21.2897   20.8717 Cl  0  0  0  0  0  0
  -27.3830  -20.2856   22.4070 Cl  0  0  0  0  0  0
  -31.4597  -12.4106   19.1120 H   0  0  0  0  0  0
  -30.3157  -11.3066   19.8140 H   0  0  0  0  0  0
  -29.7298  -11.7908   17.4227 H   0  0  0  0  0  0
  -29.6551  -13.5012   17.7664 H   0  0  0  0  0  0
  -27.8274  -11.3133   18.8159 H   0  0  0  0  0  0
  -27.3595  -12.6409   17.7872 H   0  0  0  0  0  0
  -27.7027  -14.2587   19.5726 H   0  0  0  0  0  0
  -28.6772  -11.9700   21.3465 H   0  0  0  0  0  0
  -28.4505  -13.6098   21.8651 H   0  0  0  0  0  0
  -25.2760   -9.5685   22.4752 H   0  0  0  0  0  0
  -24.0002   -7.4637   22.7469 H   0  0  0  0  0  0
  -21.0843   -8.8773   19.8950 H   0  0  0  0  0  0
  -22.3697  -10.9671   19.6160 H   0  0  0  0  0  0
  -21.2005   -7.6147   23.9713 H   0  0  0  0  0  0
  -21.1481   -6.0522   25.9075 H   0  0  0  0  0  0
  -22.0600   -2.7609   23.2843 H   0  0  0  0  0  0
  -22.4115  -11.9890   22.4782 H   0  0  0  0  0  0
  -21.1115  -13.1251   22.2596 H   0  0  0  0  0  0
  -24.6665  -15.8472   20.5105 H   0  0  0  0  0  0
  -26.2883  -15.6239   20.0893 H   0  0  0  0  0  0
  -26.7134  -32.5510   23.1164 H   0  0  0  0  0  0
  -25.0111  -33.9787   25.0511 H   0  0  0  0  0  0
  -22.6946  -31.3156   21.4206 H   0  0  0  0  0  0
  -23.3748  -35.9637   23.3321 H   0  0  0  0  0  0
  -24.3590  -36.8890   22.2047 H   0  0  0  0  0  0
  -23.7236  -37.6517   23.6632 H   0  0  0  0  0  0
  -26.0614  -31.5909   20.6056 H   0  0  0  0  0  0
  -26.8251  -30.8687   21.9933 H   0  0  0  0  0  0
  -28.0915  -29.0565   21.1834 H   0  0  0  0  0  0
  -25.9844  -26.0134   18.9341 H   0  0  0  0  0  0
  -23.9601  -27.3376   18.9995 H   0  0  0  0  0  0
  -23.7227  -30.6198   19.4110 H   0  0  0  0  0  0
  -22.7323  -29.2659   19.8654 H   0  0  0  0  0  0
  -25.1285  -36.1979   25.0830 H   0  0  0  0  0  0
  -20.9974  -28.3239   24.1433 H   0  0  0  0  0  0
  -20.5706  -26.2277   23.3601 H   0  0  0  0  0  0
  -21.6645  -26.7473   22.1186 H   0  0  0  0  0  0
  -19.6908  -25.6312   21.1235 H   0  0  0  0  0  0
  -19.6686  -27.3227   20.6770 H   0  0  0  0  0  0
  -17.4197  -26.6704   21.4025 H   0  0  0  0  0  0
  -18.0319  -26.0083   22.9023 H   0  0  0  0  0  0
  -19.7931  -30.7282   24.2281 H   0  0  0  0  0  0
  -17.5010  -31.6278   24.5175 H   0  0  0  0  0  0
  -15.5350  -30.3005   23.7654 H   0  0  0  0  0  0
  -15.8667  -28.0841   22.7060 H   0  0  0  0  0  0
  -24.5912  -30.7066   25.7832 H   0  0  0  0  0  0
  -24.8935  -32.2880   26.4929 H   0  0  0  0  0  0
  -25.8090  -30.8896   27.0247 H   0  0  0  0  0  0
  -26.2853  -29.6816   24.1149 H   0  0  0  0  0  0
  -27.4038  -29.7257   25.4583 H   0  0  0  0  0  0
  -27.8708  -30.4359   23.9309 H   0  0  0  0  0  0
  -27.2705  -33.3608   26.2092 H   0  0  0  0  0  0
  -28.3868  -32.6854   25.0315 H   0  0  0  0  0  0
  -28.0735  -31.8410   26.5395 H   0  0  0  0  0  0
  -28.2607  -38.0103   24.7520 H   0  0  0  0  0  0
  -28.1071  -36.2637   24.6287 H   0  0  0  0  0  0
  -27.2307  -37.1452   25.8872 H   0  0  0  0  0  0
  -20.9304  -29.8754   21.6938 H   0  0  0  0  0  0
  -26.0182  -38.2871   24.1417 H   0  0  0  0  0  0
  -32.5516  -18.4944   21.1451 H   0  0  0  0  0  0
  -28.4919  -17.6859   22.3428 H   0  0  0  0  0  0
  -28.5960  -22.8986   17.4260 H   0  0  0  0  0  0
  -27.3046  -22.9961   18.5923 H   0  0  0  0  0  0
  -27.9315  -25.2624   17.8378 H   0  0  0  0  0  0
  -29.5917  -25.0111   18.3222 H   0  0  0  0  0  0
  -30.2371  -22.3881   19.0923 H   0  0  0  0  0  0
  -28.8340  -21.4377   19.5097 H   0  0  0  0  0  0
  -27.1999  -24.8740   20.2219 H   0  0  0  0  0  0
  -30.7141  -22.6574   22.2673 H   0  0  0  0  0  0
  -29.1051  -22.3407   22.7656 H   0  0  0  0  0  0
  -30.9040  -16.3260   23.1588 H   0  0  0  0  0  0
  -32.0527  -16.3449   21.8764 H   0  0  0  0  0  0
  -29.3184  -15.1462   21.8646 H   0  0  0  0  0  0
  1 25  1  0  0  0
  1 30  2  0  0  0
  1 85  1  0  0  0
  2  3  1  0  0  0
  2 25  1  0  0  0
  2 89  1  0  0  0
  2 90  1  0  0  0
  3  4  1  0  0  0
  3 91  1  0  0  0
  3 92  1  0  0  0
  4  5  1  0  0  0
  4 93  1  0  0  0
  4 94  1  0  0  0
  5  6  1  0  0  0
  5 26  1  0  0  0
  5 95  1  0  0  0
  6 25  1  0  0  0
  6 96  1  0  0  0
  6 97  1  0  0  0
  7  8  2  0  0  0
  7 26  1  0  0  0
  7 29  1  0  0  0
  8  9  1  0  0  0
  8 22  1  0  0  0
  9 10  1  0  0  0
  9 27  2  0  0  0
 10 11  2  0  0  0
 10 15  1  0  0  0
 11 12  1  0  0  0
 11 98  1  0  0  0
 12 13  2  0  0  0
 12 99  1  0  0  0
 13 14  1  0  0  0
 13 31  1  0  0  0
 14 15  2  0  0  0
 14100  1  0  0  0
 15101  1  0  0  0
 16 17  2  0  0  0
 16 21  1  0  0  0
 16 31  1  0  0  0
 17 18  1  0  0  0
 17102  1  0  0  0
 18 19  2  0  0  0
 18103  1  0  0  0
 19 20  1  0  0  0
 19 24  1  0  0  0
 20 21  2  0  0  0
 20104  1  0  0  0
 21 23  1  0  0  0
 22 28  1  0  0  0
 22 32  2  0  0  0
 26 27  1  0  0  0
 28105  1  0  0  0
 28106  1  0  0  0
 29107  1  0  0  0
 29108  1  0  0  0
 33 34  1  0  0  0
 33 66  1  0  0  0
 33 70  2  0  0  0
 34 36  1  0  0  0
 34 59  1  0  0  0
 34109  1  0  0  0
 35 44  2  0  0  0
 35 45  1  0  0  0
 35 68  1  0  0  0
 36 56  1  0  0  0
 36110  1  0  0  0
 37 39  1  0  0  0
 37 47  1  0  0  0
 37 66  1  0  0  0
 37111  1  0  0  0
 38 43  2  0  0  0
 38 46  1  0  0  0
 38 47  1  0  0  0
 39 64  1  0  0  0
 39 67  2  0  0  0
 40 52  1  0  0  0
 40 53  2  0  0  0
 40 58  1  0  0  0
 41112  1  0  0  0
 41113  1  0  0  0
 41114  1  0  0  0
 41 48  1  0  0  0
 42 43  1  0  0  0
 42 66  1  0  0  0
 42115  1  0  0  0
 42116  1  0  0  0
 43 44  1  0  0  0
 44117  1  0  0  0
 45 46  2  0  0  0
 45118  1  0  0  0
 46119  1  0  0  0
 47120  1  0  0  0
 47121  1  0  0  0
 48 56  1  0  0  0
 48 65  1  0  0  0
 48122  1  0  0  0
 49 50  1  0  0  0
 49 53  1  0  0  0
 49 64  1  0  0  0
 49123  1  0  0  0
 50 51  1  0  0  0
 50124  1  0  0  0
 50125  1  0  0  0
 51 52  1  0  0  0
 51126  1  0  0  0
 51127  1  0  0  0
 52128  1  0  0  0
 52129  1  0  0  0
 53 54  1  0  0  0
 54 55  2  0  0  0
 54130  1  0  0  0
 55 57  1  0  0  0
 55131  1  0  0  0
 56 69  2  0  0  0
 57 58  2  0  0  0
 57132  1  0  0  0
 58133  1  0  0  0
 59 60  1  0  0  0
 59 61  1  0  0  0
 59 62  1  0  0  0
 60134  1  0  0  0
 60135  1  0  0  0
 60136  1  0  0  0
 61137  1  0  0  0
 61138  1  0  0  0
 61139  1  0  0  0
 62140  1  0  0  0
 62141  1  0  0  0
 62142  1  0  0  0
 63 65  1  0  0  0
 63143  1  0  0  0
 63144  1  0  0  0
 63145  1  0  0  0
 64146  1  0  0  0
 65147  1  0  0  0
 68 81  1  0  0  0
 71 73  2  0  0  0
 71 75  1  0  0  0
 71148  1  0  0  0
 72 73  1  0  0  0
 72 76  2  0  0  0
 72149  1  0  0  0
 73 83  1  0  0  0
 74 75  2  0  0  0
 74 76  1  0  0  0
 74 82  1  0  0  0
 75 87  1  0  0  0
 76 88  1  0  0  0
 77 81  1  0  0  0
 77 84  1  0  0  0
 77 86  2  0  0  0
 78 79  1  0  0  0
 78 80  1  0  0  0
 78150  1  0  0  0
 78151  1  0  0  0
 79 81  1  0  0  0
 79152  1  0  0  0
 79153  1  0  0  0
 80 84  1  0  0  0
 80154  1  0  0  0
 80155  1  0  0  0
 81156  1  0  0  0
 82 84  1  0  0  0
 82157  1  0  0  0
 82158  1  0  0  0
 83 85  1  0  0  0
 83159  1  0  0  0
 83160  1  0  0  0
 85161  1  0  0  0
M  ISO  4   1 100  68 101  81 101  85 100
M  END
> <chiral flag>
0

> <version>
0

> <s_m_source_file>
/data/baiqing/PycharmProjects/Reinvent-master-3.2/result/LINK_invent/BTK/process_docking_weight1_custom_product_contain_oxygen_bond_distance_aromatic_linkinvent_7_9_3/rearranged_h_0046.sdf

> <i_m_source_file_index>
71

> <r_mmod_Potential_Energy-OPLS-2005>
-30.3621807098389

> <r_mmod_Stretch_Energy-OPLS-2005>
45.6884803771973

> <r_mmod_Bend_Energy-OPLS-2005>
110.326065063477

> <r_mmod_Torsional_Energy-OPLS-2005>
234.223709106445

> <r_mmod_Improper_Torsional_Energy-OPLS-2005>
4.28489828109741

> <r_mmod_Van_der_Waal_Energy-OPLS-2005>
168.082977294922

> <r_mmod_Electrostatic_Energy-OPLS-2005>
-380.752319335938

> <r_mmod_Solvation_Energy-OPLS-2005>
-227.438674926758

> <b_mmod_Minimization_Converged-OPLS-2005>
0

> <r_mmod_RMS_Derivative-OPLS-2005>
0.85552704334259

$$$$
71
                    3D
 Structure written by MMmdl.
161170  0  0  1  0            999 V2000
  -30.6196  -14.7497   20.4629 C   0  0  0  0  0  0
  -30.4348  -12.4585   19.4722 C   0  0  0  0  0  0
  -29.5104  -12.4932   18.2353 C   0  0  0  0  0  0
  -28.0387  -12.3147   18.6556 C   0  0  0  0  0  0
  -27.6402  -13.2279   19.8461 C   0  0  2  0  0  0
  -28.6864  -13.1816   20.9812 C   0  0  0  0  0  0
  -25.2511  -13.8175   20.5695 C   0  0  0  0  0  0
  -24.1798  -13.0428   20.9203 C   0  0  0  0  0  0
  -24.6379  -11.6908   20.8739 C   0  0  0  0  0  0
  -23.9052  -10.4292   21.0389 C   0  0  0  0  0  0
  -24.3602   -9.4214   21.9170 C   0  0  0  0  0  0
  -23.6284   -8.2248   22.0749 C   0  0  0  0  0  0
  -22.4271   -8.0273   21.3542 C   0  0  0  0  0  0
  -21.9895   -9.0244   20.4649 C   0  0  0  0  0  0
  -22.7215  -10.2127   20.3052 C   0  0  0  0  0  0
  -21.6860   -6.0717   22.5267 C   0  0  0  0  0  0
  -21.4022   -6.5624   23.8197 C   0  0  0  0  0  0
  -21.3661   -5.6781   24.9160 C   0  0  0  0  0  0
  -21.6042   -4.3045   24.7215 C   0  0  0  0  0  0
  -21.8823   -3.8133   23.4341 C   0  0  0  0  0  0
  -21.9196   -4.6944   22.3394 C   0  0  0  0  0  0
  -22.7823  -13.5226   21.1854 C   0  0  0  0  0  0
  -22.1664   -4.2128   21.0971 F   0  0  0  0  0  0
  -21.5628   -3.4532   25.7728 F   0  0  0  0  0  0
  -29.9849  -13.5288   20.3911 N   0  0  0  0  0  0
  -26.2929  -12.9378   20.3268 N   0  0  0  0  0  0
  -25.9310  -11.6525   20.5739 N   0  0  0  0  0  0
  -22.0475  -12.8233   22.0421 N   0  0  0  0  0  0
  -25.4190  -15.1897   20.4102 N   0  0  0  0  0  0
  -31.8167  -14.8229   20.1695 O   0  0  0  0  0  0
  -21.6644   -6.8864   21.4232 O   0  0  0  0  0  0
  -22.3513  -14.5528   20.6682 O   0  0  0  0  0  0
  -24.6296  -31.8549   23.1959 C   0  0  0  0  0  0
  -25.9123  -32.4750   23.8306 C   0  0  1  0  0  0
  -27.2289  -27.2698   20.1453 C   0  0  0  0  0  0
  -25.5918  -33.8551   24.2235 N   0  0  0  0  0  0
  -23.4265  -30.4735   21.5392 C   0  0  2  0  0  0
  -24.8759  -28.9109   20.1173 C   0  0  0  0  0  0
  -22.7489  -29.4603   22.4923 C   0  0  0  0  0  0
  -18.0287  -28.1394   22.8491 C   0  0  0  0  0  0
  -24.1484  -36.7283   23.2637 C   0  0  0  0  0  0
  -25.9684  -30.7729   21.3693 C   0  0  0  0  0  0
  -26.0456  -29.3909   20.7214 C   0  0  0  0  0  0
  -27.2273  -28.5849   20.7185 C   0  0  0  0  0  0
  -26.0389  -26.8438   19.5225 C   0  0  0  0  0  0
  -24.8768  -27.6444   19.5070 C   0  0  0  0  0  0
  -23.6449  -29.7971   20.1584 C   0  0  0  0  0  0
  -25.4112  -36.3067   24.0321 C   0  0  1  0  0  0
  -20.5893  -28.3693   23.1278 C   0  0  2  0  0  0
  -20.6771  -26.9412   22.5413 C   0  0  0  0  0  0
  -19.5749  -26.6385   21.5213 C   0  0  0  0  0  0
  -18.1933  -26.7937   22.1629 C   0  0  0  0  0  0
  -19.1543  -28.8857   23.2880 C   0  0  0  0  0  0
  -18.9465  -30.1462   23.8898 C   0  0  0  0  0  0
  -17.6466  -30.6594   24.0564 C   0  0  0  0  0  0
  -25.9055  -34.9439   23.5080 C   0  0  0  0  0  0
  -16.5356  -29.9096   23.6335 C   0  0  0  0  0  0
  -16.7275  -28.6512   23.0356 C   0  0  0  0  0  0
  -26.4502  -31.6575   25.0692 C   0  0  0  0  0  0
  -25.3730  -31.3728   26.1415 C   0  0  0  0  0  0
  -27.0334  -30.2994   24.6152 C   0  0  0  0  0  0
  -27.6044  -32.4317   25.7479 C   0  0  0  0  0  0
  -27.5575  -37.1797   24.8470 C   0  0  0  0  0  0
  -21.4197  -29.3041   22.3663 N   0  0  0  0  0  0
  -26.4287  -37.3766   23.9410 N   0  0  0  0  0  0
  -24.6941  -31.0520   22.0925 N   0  0  0  0  0  0
  -23.4192  -28.8150   23.3022 O   0  0  0  0  0  0
  -28.3432  -26.4045   20.1342 O   0  0  0  0  0  0
  -26.5634  -34.8919   22.4656 O   0  0  0  0  0  0
  -23.5445  -32.1365   23.7264 O   0  0  0  0  0  0
  -31.4905  -17.6751   21.2330 C   0  0  0  0  0  0
  -31.8912  -19.0185   21.3755 C   0  0  0  0  0  0
  -29.3556  -18.4670   20.3950 C   0  0  0  0  0  0
  -29.7423  -19.8714   20.5327 C   0  0  0  0  0  0
  -30.2179  -17.3350   20.7241 C   0  0  0  0  0  0
  -31.0530  -20.0968   21.0254 C   0  0  0  0  0  0
  -28.6054  -23.7198   20.1595 C   0  0  0  0  0  0
  -27.9116  -24.4534   23.3815 C   0  0  0  0  0  0
  -28.8922  -23.2862   23.1987 C   0  0  0  0  0  0
  -27.3548  -25.0415   22.0736 C   0  0  0  0  0  0
  -28.3996  -22.2218   22.2070 C   0  0  0  0  0  0
  -28.4030  -25.1261   20.9396 C   0  0  1  0  0  0
  -28.8397  -21.1098   20.0450 C   0  0  0  0  0  0
  -28.7155  -22.4597   20.7842 N   0  0  0  0  0  0
  -29.8420  -15.8970   20.6100 N   0  0  0  0  0  0
  -28.6952  -23.7940   18.9302 O   0  0  0  0  0  0
  -31.7072  -21.6898   21.1759 Cl  0  0  0  0  0  0
  -31.4738  -12.5872   19.1646 H   0  0  0  0  0  0
  -30.3865  -11.4872   19.9672 H   0  0  0  0  0  0
  -29.7954  -11.7096   17.5312 H   0  0  0  0  0  0
  -29.6318  -13.4397   17.7068 H   0  0  0  0  0  0
  -27.9083  -11.2692   18.9372 H   0  0  0  0  0  0
  -27.3772  -12.4854   17.8054 H   0  0  0  0  0  0
  -27.6295  -14.2433   19.4506 H   0  0  0  0  0  0
  -28.7256  -12.1931   21.4406 H   0  0  0  0  0  0
  -28.4198  -13.8793   21.7775 H   0  0  0  0  0  0
  -25.2747   -9.5686   22.4738 H   0  0  0  0  0  0
  -23.9985   -7.4643   22.7475 H   0  0  0  0  0  0
  -21.0822   -8.8757   19.8964 H   0  0  0  0  0  0
  -22.3661  -10.9657   19.6163 H   0  0  0  0  0  0
  -21.2027   -7.6134   23.9691 H   0  0  0  0  0  0
  -21.1479   -6.0513   25.9058 H   0  0  0  0  0  0
  -22.0607   -2.7594   23.2842 H   0  0  0  0  0  0
  -22.4102  -11.9917   22.4839 H   0  0  0  0  0  0
  -21.1087  -13.1251   22.2605 H   0  0  0  0  0  0
  -24.6479  -15.8388   20.5218 H   0  0  0  0  0  0
  -26.2572  -15.6331   20.0578 H   0  0  0  0  0  0
  -26.7190  -32.5413   23.1048 H   0  0  0  0  0  0
  -25.0049  -33.9689   25.0367 H   0  0  0  0  0  0
  -22.7229  -31.2948   21.3887 H   0  0  0  0  0  0
  -23.3741  -35.9625   23.3317 H   0  0  0  0  0  0
  -24.3562  -36.8890   22.2050 H   0  0  0  0  0  0
  -23.7255  -37.6490   23.6656 H   0  0  0  0  0  0
  -26.0958  -31.5289   20.5926 H   0  0  0  0  0  0
  -26.8498  -30.8324   21.9959 H   0  0  0  0  0  0
  -28.1286  -28.9527   21.1889 H   0  0  0  0  0  0
  -26.0070  -25.8684   19.0575 H   0  0  0  0  0  0
  -23.9806  -27.2695   19.0316 H   0  0  0  0  0  0
  -23.7680  -30.5680   19.3973 H   0  0  0  0  0  0
  -22.7642  -29.2266   19.8566 H   0  0  0  0  0  0
  -25.1302  -36.1906   25.0814 H   0  0  0  0  0  0
  -20.9990  -28.3272   24.1397 H   0  0  0  0  0  0
  -20.5660  -26.2306   23.3617 H   0  0  0  0  0  0
  -21.6642  -26.7437   22.1216 H   0  0  0  0  0  0
  -19.6910  -25.6292   21.1249 H   0  0  0  0  0  0
  -19.6691  -27.3188   20.6739 H   0  0  0  0  0  0
  -17.4201  -26.6679   21.4036 H   0  0  0  0  0  0
  -18.0344  -26.0084   22.9031 H   0  0  0  0  0  0
  -19.7938  -30.7274   24.2278 H   0  0  0  0  0  0
  -17.5021  -31.6279   24.5154 H   0  0  0  0  0  0
  -15.5358  -30.2995   23.7656 H   0  0  0  0  0  0
  -15.8678  -28.0822   22.7084 H   0  0  0  0  0  0
  -24.5910  -30.7068   25.7749 H   0  0  0  0  0  0
  -24.8916  -32.2898   26.4823 H   0  0  0  0  0  0
  -25.8054  -30.8923   27.0198 H   0  0  0  0  0  0
  -26.2904  -29.6753   24.1172 H   0  0  0  0  0  0
  -27.4018  -29.7243   25.4653 H   0  0  0  0  0  0
  -27.8778  -30.4266   23.9376 H   0  0  0  0  0  0
  -27.2640  -33.3615   26.2048 H   0  0  0  0  0  0
  -28.3872  -32.6882   25.0330 H   0  0  0  0  0  0
  -28.0693  -31.8448   26.5409 H   0  0  0  0  0  0
  -28.2603  -38.0080   24.7495 H   0  0  0  0  0  0
  -28.1054  -36.2612   24.6323 H   0  0  0  0  0  0
  -27.2288  -37.1483   25.8869 H   0  0  0  0  0  0
  -20.9382  -29.8748   21.6854 H   0  0  0  0  0  0
  -26.0163  -38.2835   24.1408 H   0  0  0  0  0  0
  -32.1916  -16.9080   21.5279 H   0  0  0  0  0  0
  -32.8830  -19.2246   21.7504 H   0  0  0  0  0  0
  -28.3733  -18.2563   19.9953 H   0  0  0  0  0  0
  -28.4155  -25.2391   23.9464 H   0  0  0  0  0  0
  -27.0746  -24.1330   24.0054 H   0  0  0  0  0  0
  -29.0344  -22.8191   24.1747 H   0  0  0  0  0  0
  -29.8865  -23.6374   22.9175 H   0  0  0  0  0  0
  -26.9476  -26.0192   22.3240 H   0  0  0  0  0  0
  -26.5022  -24.4540   21.7306 H   0  0  0  0  0  0
  -27.3227  -22.0836   22.3080 H   0  0  0  0  0  0
  -28.8352  -21.2744   22.5234 H   0  0  0  0  0  0
  -29.3665  -25.2749   21.4262 H   0  0  0  0  0  0
  -27.8234  -20.7337   19.9238 H   0  0  0  0  0  0
  -29.1784  -21.3156   19.0291 H   0  0  0  0  0  0
  -28.8511  -15.7118   20.6283 H   0  0  0  0  0  0
  1 25  1  0  0  0
  1 30  2  0  0  0
  1 85  1  0  0  0
  2  3  1  0  0  0
  2 25  1  0  0  0
  2 88  1  0  0  0
  2 89  1  0  0  0
  3  4  1  0  0  0
  3 90  1  0  0  0
  3 91  1  0  0  0
  4  5  1  0  0  0
  4 92  1  0  0  0
  4 93  1  0  0  0
  5  6  1  0  0  0
  5 26  1  0  0  0
  5 94  1  0  0  0
  6 25  1  0  0  0
  6 95  1  0  0  0
  6 96  1  0  0  0
  7  8  2  0  0  0
  7 26  1  0  0  0
  7 29  1  0  0  0
  8  9  1  0  0  0
  8 22  1  0  0  0
  9 10  1  0  0  0
  9 27  2  0  0  0
 10 11  2  0  0  0
 10 15  1  0  0  0
 11 12  1  0  0  0
 11 97  1  0  0  0
 12 13  2  0  0  0
 12 98  1  0  0  0
 13 14  1  0  0  0
 13 31  1  0  0  0
 14 15  2  0  0  0
 14 99  1  0  0  0
 15100  1  0  0  0
 16 17  2  0  0  0
 16 21  1  0  0  0
 16 31  1  0  0  0
 17 18  1  0  0  0
 17101  1  0  0  0
 18 19  2  0  0  0
 18102  1  0  0  0
 19 20  1  0  0  0
 19 24  1  0  0  0
 20 21  2  0  0  0
 20103  1  0  0  0
 21 23  1  0  0  0
 22 28  1  0  0  0
 22 32  2  0  0  0
 26 27  1  0  0  0
 28104  1  0  0  0
 28105  1  0  0  0
 29106  1  0  0  0
 29107  1  0  0  0
 33 34  1  0  0  0
 33 66  1  0  0  0
 33 70  2  0  0  0
 34 36  1  0  0  0
 34 59  1  0  0  0
 34108  1  0  0  0
 35 44  2  0  0  0
 35 45  1  0  0  0
 35 68  1  0  0  0
 36 56  1  0  0  0
 36109  1  0  0  0
 37 39  1  0  0  0
 37 47  1  0  0  0
 37 66  1  0  0  0
 37110  1  0  0  0
 38 43  2  0  0  0
 38 46  1  0  0  0
 38 47  1  0  0  0
 39 64  1  0  0  0
 39 67  2  0  0  0
 40 52  1  0  0  0
 40 53  2  0  0  0
 40 58  1  0  0  0
 41111  1  0  0  0
 41112  1  0  0  0
 41113  1  0  0  0
 41 48  1  0  0  0
 42 43  1  0  0  0
 42 66  1  0  0  0
 42114  1  0  0  0
 42115  1  0  0  0
 43 44  1  0  0  0
 44116  1  0  0  0
 45 46  2  0  0  0
 45117  1  0  0  0
 46118  1  0  0  0
 47119  1  0  0  0
 47120  1  0  0  0
 48 56  1  0  0  0
 48 65  1  0  0  0
 48121  1  0  0  0
 49 50  1  0  0  0
 49 53  1  0  0  0
 49 64  1  0  0  0
 49122  1  0  0  0
 50 51  1  0  0  0
 50123  1  0  0  0
 50124  1  0  0  0
 51 52  1  0  0  0
 51125  1  0  0  0
 51126  1  0  0  0
 52127  1  0  0  0
 52128  1  0  0  0
 53 54  1  0  0  0
 54 55  2  0  0  0
 54129  1  0  0  0
 55 57  1  0  0  0
 55130  1  0  0  0
 56 69  2  0  0  0
 57 58  2  0  0  0
 57131  1  0  0  0
 58132  1  0  0  0
 59 60  1  0  0  0
 59 61  1  0  0  0
 59 62  1  0  0  0
 60133  1  0  0  0
 60134  1  0  0  0
 60135  1  0  0  0
 61136  1  0  0  0
 61137  1  0  0  0
 61138  1  0  0  0
 62139  1  0  0  0
 62140  1  0  0  0
 62141  1  0  0  0
 63 65  1  0  0  0
 63142  1  0  0  0
 63143  1  0  0  0
 63144  1  0  0  0
 64145  1  0  0  0
 65146  1  0  0  0
 68 82  1  0  0  0
 71 72  2  0  0  0
 71 75  1  0  0  0
 71147  1  0  0  0
 72 76  1  0  0  0
 72148  1  0  0  0
 73 74  1  0  0  0
 73 75  2  0  0  0
 73149  1  0  0  0
 74 76  2  0  0  0
 74 83  1  0  0  0
 75 85  1  0  0  0
 76 87  1  0  0  0
 77 82  1  0  0  0
 77 84  1  0  0  0
 77 86  2  0  0  0
 78 79  1  0  0  0
 78 80  1  0  0  0
 78150  1  0  0  0
 78151  1  0  0  0
 79 81  1  0  0  0
 79152  1  0  0  0
 79153  1  0  0  0
 80 82  1  0  0  0
 80154  1  0  0  0
 80155  1  0  0  0
 81 84  1  0  0  0
 81156  1  0  0  0
 81157  1  0  0  0
 82158  1  0  0  0
 83 84  1  0  0  0
 83159  1  0  0  0
 83160  1  0  0  0
 85161  1  0  0  0
M  ISO  4   1 100  68 101  82 101  85 100
M  END
> <chiral flag>
0

> <version>
0

> <s_m_source_file>
/data/baiqing/PycharmProjects/Reinvent-master-3.2/result/LINK_invent/BTK/process_docking_weight1_custom_product_contain_oxygen_bond_distance_aromatic_linkinvent_7_9_3/rearranged_h_0046.sdf

> <i_m_source_file_index>
72

> <r_mmod_Potential_Energy-OPLS-2005>
292.190887451172

> <r_mmod_Stretch_Energy-OPLS-2005>
142.215560913086

> <r_mmod_Bend_Energy-OPLS-2005>
185.431900024414

> <r_mmod_Torsional_Energy-OPLS-2005>
284.835723876953

> <r_mmod_Improper_Torsional_Energy-OPLS-2005>
6.98951101303101

> <r_mmod_Van_der_Waal_Energy-OPLS-2005>
143.928482055664

> <r_mmod_Electrostatic_Energy-OPLS-2005>
-325.321929931641

> <r_mmod_Solvation_Energy-OPLS-2005>
-228.13102722168

> <b_mmod_Minimization_Converged-OPLS-2005>
0

> <r_mmod_RMS_Derivative-OPLS-2005>
1.5353182554245

$$$$
72
                    3D
 Structure written by MMmdl.
159167  0  0  1  0            999 V2000
  -30.6911  -14.5791   20.5181 C   0  0  0  0  0  0
  -30.4254  -12.3656   19.4481 C   0  0  0  0  0  0
  -29.5032  -12.5083   18.2169 C   0  0  0  0  0  0
  -28.0258  -12.3605   18.6250 C   0  0  0  0  0  0
  -27.6525  -13.2225   19.8601 C   0  0  2  0  0  0
  -28.6954  -13.0841   20.9921 C   0  0  0  0  0  0
  -25.2561  -13.8190   20.5763 C   0  0  0  0  0  0
  -24.1797  -13.0432   20.9155 C   0  0  0  0  0  0
  -24.6355  -11.6906   20.8657 C   0  0  0  0  0  0
  -23.9013  -10.4287   21.0341 C   0  0  0  0  0  0
  -24.3586   -9.4220   21.9141 C   0  0  0  0  0  0
  -23.6267   -8.2261   22.0742 C   0  0  0  0  0  0
  -22.4247   -8.0265   21.3531 C   0  0  0  0  0  0
  -21.9857   -9.0226   20.4631 C   0  0  0  0  0  0
  -22.7170  -10.2116   20.3018 C   0  0  0  0  0  0
  -21.6862   -6.0681   22.5249 C   0  0  0  0  0  0
  -21.4021   -6.5592   23.8176 C   0  0  0  0  0  0
  -21.3680   -5.6746   24.9136 C   0  0  0  0  0  0
  -21.6074   -4.3010   24.7198 C   0  0  0  0  0  0
  -21.8814   -3.8099   23.4315 C   0  0  0  0  0  0
  -21.9198   -4.6912   22.3363 C   0  0  0  0  0  0
  -22.7816  -13.5225   21.1811 C   0  0  0  0  0  0
  -22.1671   -4.2106   21.0939 F   0  0  0  0  0  0
  -21.5673   -3.4497   25.7717 F   0  0  0  0  0  0
  -30.0171  -13.3930   20.4264 N   0  0  0  0  0  0
  -26.2974  -12.9381   20.3298 N   0  0  0  0  0  0
  -25.9283  -11.6521   20.5675 N   0  0  0  0  0  0
  -22.0431  -12.8266   22.0368 N   0  0  0  0  0  0
  -25.4316  -15.1928   20.4338 N   0  0  0  0  0  0
  -31.8561  -14.6898   20.1342 O   0  0  0  0  0  0
  -21.6647   -6.8829   21.4217 O   0  0  0  0  0  0
  -22.3505  -14.5531   20.6653 O   0  0  0  0  0  0
  -24.6215  -31.8635   23.2068 C   0  0  0  0  0  0
  -25.9078  -32.4815   23.8377 C   0  0  1  0  0  0
  -27.2450  -27.3714   20.1247 C   0  0  0  0  0  0
  -25.5930  -33.8612   24.2338 N   0  0  0  0  0  0
  -23.4145  -30.4842   21.5463 C   0  0  2  0  0  0
  -24.8657  -28.9365   20.1190 C   0  0  0  0  0  0
  -22.7437  -29.4647   22.4959 C   0  0  0  0  0  0
  -18.0280  -28.1354   22.8475 C   0  0  0  0  0  0
  -24.1482  -36.7294   23.2624 C   0  0  0  0  0  0
  -25.9459  -30.8130   21.3644 C   0  0  0  0  0  0
  -26.0263  -29.4384   20.7178 C   0  0  0  0  0  0
  -27.2166  -28.6671   20.7088 C   0  0  0  0  0  0
  -26.0606  -26.8935   19.5227 C   0  0  0  0  0  0
  -24.8811  -27.6670   19.5126 C   0  0  0  0  0  0
  -23.6307  -29.8120   20.1613 C   0  0  0  0  0  0
  -25.4097  -36.3115   24.0345 C   0  0  1  0  0  0
  -20.5861  -28.3682   23.1299 C   0  0  2  0  0  0
  -20.6794  -26.9401   22.5443 C   0  0  0  0  0  0
  -19.5782  -26.6358   21.5231 C   0  0  0  0  0  0
  -18.1945  -26.7892   22.1613 C   0  0  0  0  0  0
  -19.1513  -28.8833   23.2890 C   0  0  0  0  0  0
  -18.9421  -30.1438   23.8901 C   0  0  0  0  0  0
  -17.6415  -30.6583   24.0541 C   0  0  0  0  0  0
  -25.9016  -34.9466   23.5129 C   0  0  0  0  0  0
  -16.5313  -29.9068   23.6293 C   0  0  0  0  0  0
  -16.7268  -28.6477   23.0318 C   0  0  0  0  0  0
  -26.4499  -31.6602   25.0716 C   0  0  0  0  0  0
  -25.3765  -31.3705   26.1471 C   0  0  0  0  0  0
  -27.0311  -30.3056   24.6073 C   0  0  0  0  0  0
  -27.6088  -32.4299   25.7474 C   0  0  0  0  0  0
  -27.5574  -37.1799   24.8464 C   0  0  0  0  0  0
  -21.4155  -29.3068   22.3723 N   0  0  0  0  0  0
  -26.4283  -37.3800   23.9417 N   0  0  0  0  0  0
  -24.6802  -31.0669   22.0999 N   0  0  0  0  0  0
  -23.4179  -28.8175   23.3027 O   0  0  0  0  0  0
  -28.4175  -26.6205   20.1114 O   0  0  0  0  0  0
  -26.5560  -34.8915   22.4675 O   0  0  0  0  0  0
  -23.5395  -32.1439   23.7397 O   0  0  0  0  0  0
  -28.3523  -18.0754   21.7665 C   0  0  0  0  0  0
  -27.5231  -19.1614   22.1117 C   0  0  0  0  0  0
  -29.8683  -19.6402   20.6824 C   0  0  0  0  0  0
  -29.5408  -18.2881   21.0406 C   0  0  0  0  0  0
  -27.8553  -20.4904   21.7632 C   0  0  0  0  0  0
  -29.0428  -20.7624   21.0306 C   0  0  0  0  0  0
  -28.5548  -24.1220   19.4415 C   0  0  0  0  0  0
  -26.9232  -21.6016   22.2263 C   0  0  0  0  0  0
  -28.2343  -24.6053   18.0405 C   0  0  0  0  0  0
  -29.4867  -22.2378   20.7530 C   0  0  0  0  0  0
  -30.4837  -17.0939   20.6999 C   0  0  0  0  0  0
  -28.3955  -25.2184   20.5443 C   0  0  0  0  0  0
  -28.9122  -22.8752   19.5530 N   0  0  0  0  0  0
  -29.9759  -15.6931   20.8441 N   0  0  0  0  0  0
  -31.4717  -12.4570   19.1517 H   0  0  0  0  0  0
  -30.3348  -11.3756   19.8948 H   0  0  0  0  0  0
  -29.7531  -11.7561   17.4649 H   0  0  0  0  0  0
  -29.6558  -13.4816   17.7465 H   0  0  0  0  0  0
  -27.8526  -11.3055   18.8431 H   0  0  0  0  0  0
  -27.3790  -12.6155   17.7839 H   0  0  0  0  0  0
  -27.6733  -14.2619   19.5277 H   0  0  0  0  0  0
  -28.6905  -12.0735   21.4069 H   0  0  0  0  0  0
  -28.4462  -13.7468   21.8208 H   0  0  0  0  0  0
  -25.2716   -9.5728   22.4724 H   0  0  0  0  0  0
  -23.9971   -7.4678   22.7494 H   0  0  0  0  0  0
  -21.0773   -8.8707   19.8951 H   0  0  0  0  0  0
  -22.3580  -10.9655   19.6144 H   0  0  0  0  0  0
  -21.2018   -7.6103   23.9666 H   0  0  0  0  0  0
  -21.1527   -6.0474   25.9036 H   0  0  0  0  0  0
  -22.0588   -2.7565   23.2819 H   0  0  0  0  0  0
  -22.3999  -11.9957   22.4829 H   0  0  0  0  0  0
  -21.1070  -13.1381   22.2561 H   0  0  0  0  0  0
  -24.6668  -15.8483   20.5558 H   0  0  0  0  0  0
  -26.2991  -15.6403   20.1668 H   0  0  0  0  0  0
  -26.7130  -32.5547   23.1116 H   0  0  0  0  0  0
  -25.0204  -33.9745   25.0577 H   0  0  0  0  0  0
  -22.7100  -31.3058   21.4031 H   0  0  0  0  0  0
  -23.3737  -35.9628   23.3294 H   0  0  0  0  0  0
  -24.3573  -36.8915   22.2036 H   0  0  0  0  0  0
  -23.7223  -37.6492   23.6633 H   0  0  0  0  0  0
  -26.0469  -31.5668   20.5816 H   0  0  0  0  0  0
  -26.8345  -30.8829   21.9801 H   0  0  0  0  0  0
  -28.1158  -29.0543   21.1648 H   0  0  0  0  0  0
  -26.0409  -25.9271   19.0417 H   0  0  0  0  0  0
  -23.9923  -27.2807   19.0332 H   0  0  0  0  0  0
  -23.7517  -30.5869   19.4036 H   0  0  0  0  0  0
  -22.7559  -29.2365   19.8580 H   0  0  0  0  0  0
  -25.1261  -36.1974   25.0840 H   0  0  0  0  0  0
  -20.9929  -28.3252   24.1420 H   0  0  0  0  0  0
  -20.5700  -26.2269   23.3636 H   0  0  0  0  0  0
  -21.6664  -26.7431   22.1223 H   0  0  0  0  0  0
  -19.6968  -25.6260   21.1301 H   0  0  0  0  0  0
  -19.6750  -27.3141   20.6740 H   0  0  0  0  0  0
  -17.4223  -26.6628   21.4005 H   0  0  0  0  0  0
  -18.0346  -26.0032   22.9006 H   0  0  0  0  0  0
  -19.7895  -30.7256   24.2275 H   0  0  0  0  0  0
  -17.4950  -31.6283   24.5099 H   0  0  0  0  0  0
  -15.5303  -30.2959   23.7552 H   0  0  0  0  0  0
  -15.8691  -28.0783   22.6983 H   0  0  0  0  0  0
  -24.5947  -30.7060   25.7787 H   0  0  0  0  0  0
  -24.8940  -32.2861   26.4910 H   0  0  0  0  0  0
  -25.8119  -30.8882   27.0237 H   0  0  0  0  0  0
  -26.2850  -29.6833   24.1142 H   0  0  0  0  0  0
  -27.4109  -29.7294   25.4505 H   0  0  0  0  0  0
  -27.8671  -30.4371   23.9205 H   0  0  0  0  0  0
  -27.2745  -33.3595   26.2078 H   0  0  0  0  0  0
  -28.3883  -32.6860   25.0289 H   0  0  0  0  0  0
  -28.0773  -31.8415   26.5379 H   0  0  0  0  0  0
  -28.2592  -38.0091   24.7519 H   0  0  0  0  0  0
  -28.1080  -36.2628   24.6291 H   0  0  0  0  0  0
  -27.2302  -37.1464   25.8872 H   0  0  0  0  0  0
  -20.9341  -29.8860   21.6985 H   0  0  0  0  0  0
  -26.0177  -38.2875   24.1447 H   0  0  0  0  0  0
  -28.0713  -17.0820   22.0940 H   0  0  0  0  0  0
  -26.6270  -18.9690   22.6860 H   0  0  0  0  0  0
  -30.7979  -19.8249   20.1608 H   0  0  0  0  0  0
  -26.3032  -21.2649   23.0586 H   0  0  0  0  0  0
  -26.2583  -21.9042   21.4172 H   0  0  0  0  0  0
  -27.4560  -22.4790   22.5939 H   0  0  0  0  0  0
  -27.2192  -24.3269   17.7592 H   0  0  0  0  0  0
  -28.9269  -24.1505   17.3316 H   0  0  0  0  0  0
  -28.3456  -25.6844   17.9388 H   0  0  0  0  0  0
  -30.5688  -22.2057   20.6139 H   0  0  0  0  0  0
  -29.3636  -22.8498   21.6443 H   0  0  0  0  0  0
  -31.3786  -17.1863   21.3163 H   0  0  0  0  0  0
  -30.8180  -17.2260   19.6698 H   0  0  0  0  0  0
  -29.2326  -25.1178   21.2344 H   0  0  0  0  0  0
  -27.4994  -25.0009   21.1280 H   0  0  0  0  0  0
  -29.0053  -15.5653   21.0776 H   0  0  0  0  0  0
  1 25  1  0  0  0
  1 30  2  0  0  0
  1 84  1  0  0  0
  2  3  1  0  0  0
  2 25  1  0  0  0
  2 85  1  0  0  0
  2 86  1  0  0  0
  3  4  1  0  0  0
  3 87  1  0  0  0
  3 88  1  0  0  0
  4  5  1  0  0  0
  4 89  1  0  0  0
  4 90  1  0  0  0
  5  6  1  0  0  0
  5 26  1  0  0  0
  5 91  1  0  0  0
  6 25  1  0  0  0
  6 92  1  0  0  0
  6 93  1  0  0  0
  7  8  2  0  0  0
  7 26  1  0  0  0
  7 29  1  0  0  0
  8  9  1  0  0  0
  8 22  1  0  0  0
  9 10  1  0  0  0
  9 27  2  0  0  0
 10 11  2  0  0  0
 10 15  1  0  0  0
 11 12  1  0  0  0
 11 94  1  0  0  0
 12 13  2  0  0  0
 12 95  1  0  0  0
 13 14  1  0  0  0
 13 31  1  0  0  0
 14 15  2  0  0  0
 14 96  1  0  0  0
 15 97  1  0  0  0
 16 17  2  0  0  0
 16 21  1  0  0  0
 16 31  1  0  0  0
 17 18  1  0  0  0
 17 98  1  0  0  0
 18 19  2  0  0  0
 18 99  1  0  0  0
 19 20  1  0  0  0
 19 24  1  0  0  0
 20 21  2  0  0  0
 20100  1  0  0  0
 21 23  1  0  0  0
 22 28  1  0  0  0
 22 32  2  0  0  0
 26 27  1  0  0  0
 28101  1  0  0  0
 28102  1  0  0  0
 29103  1  0  0  0
 29104  1  0  0  0
 33 34  1  0  0  0
 33 66  1  0  0  0
 33 70  2  0  0  0
 34 36  1  0  0  0
 34 59  1  0  0  0
 34105  1  0  0  0
 35 44  2  0  0  0
 35 45  1  0  0  0
 35 68  1  0  0  0
 36 56  1  0  0  0
 36106  1  0  0  0
 37 39  1  0  0  0
 37 47  1  0  0  0
 37 66  1  0  0  0
 37107  1  0  0  0
 38 43  2  0  0  0
 38 46  1  0  0  0
 38 47  1  0  0  0
 39 64  1  0  0  0
 39 67  2  0  0  0
 40 52  1  0  0  0
 40 53  2  0  0  0
 40 58  1  0  0  0
 41108  1  0  0  0
 41109  1  0  0  0
 41110  1  0  0  0
 41 48  1  0  0  0
 42 43  1  0  0  0
 42 66  1  0  0  0
 42111  1  0  0  0
 42112  1  0  0  0
 43 44  1  0  0  0
 44113  1  0  0  0
 45 46  2  0  0  0
 45114  1  0  0  0
 46115  1  0  0  0
 47116  1  0  0  0
 47117  1  0  0  0
 48 56  1  0  0  0
 48 65  1  0  0  0
 48118  1  0  0  0
 49 50  1  0  0  0
 49 53  1  0  0  0
 49 64  1  0  0  0
 49119  1  0  0  0
 50 51  1  0  0  0
 50120  1  0  0  0
 50121  1  0  0  0
 51 52  1  0  0  0
 51122  1  0  0  0
 51123  1  0  0  0
 52124  1  0  0  0
 52125  1  0  0  0
 53 54  1  0  0  0
 54 55  2  0  0  0
 54126  1  0  0  0
 55 57  1  0  0  0
 55127  1  0  0  0
 56 69  2  0  0  0
 57 58  2  0  0  0
 57128  1  0  0  0
 58129  1  0  0  0
 59 60  1  0  0  0
 59 61  1  0  0  0
 59 62  1  0  0  0
 60130  1  0  0  0
 60131  1  0  0  0
 60132  1  0  0  0
 61133  1  0  0  0
 61134  1  0  0  0
 61135  1  0  0  0
 62136  1  0  0  0
 62137  1  0  0  0
 62138  1  0  0  0
 63 65  1  0  0  0
 63139  1  0  0  0
 63140  1  0  0  0
 63141  1  0  0  0
 64142  1  0  0  0
 65143  1  0  0  0
 68 82  1  0  0  0
 71 72  2  0  0  0
 71 74  1  0  0  0
 71144  1  0  0  0
 72 75  1  0  0  0
 72145  1  0  0  0
 73 74  2  0  0  0
 73 76  1  0  0  0
 73146  1  0  0  0
 74 81  1  0  0  0
 75 76  2  0  0  0
 75 78  1  0  0  0
 76 80  1  0  0  0
 77 79  1  0  0  0
 77 82  1  0  0  0
 77 83  2  0  0  0
 78147  1  0  0  0
 78148  1  0  0  0
 78149  1  0  0  0
 79150  1  0  0  0
 79151  1  0  0  0
 79152  1  0  0  0
 80 83  1  0  0  0
 80153  1  0  0  0
 80154  1  0  0  0
 81 84  1  0  0  0
 81155  1  0  0  0
 81156  1  0  0  0
 82157  1  0  0  0
 82158  1  0  0  0
 84159  1  0  0  0
M  ISO  4   1 100  68 101  82 101  84 100
M  END
> <chiral flag>
0

> <version>
0

> <s_m_source_file>
/data/baiqing/PycharmProjects/Reinvent-master-3.2/result/LINK_invent/BTK/process_docking_weight1_custom_product_contain_oxygen_bond_distance_aromatic_linkinvent_7_9_3/rearranged_h_0046.sdf

> <i_m_source_file_index>
73

> <r_mmod_Potential_Energy-OPLS-2005>
-41.5112533569336

> <r_mmod_Stretch_Energy-OPLS-2005>
66.5941009521484

> <r_mmod_Bend_Energy-OPLS-2005>
134.909698486328

> <r_mmod_Torsional_Energy-OPLS-2005>
211.728775024414

> <r_mmod_Improper_Torsional_Energy-OPLS-2005>
5.18292760848999

> <r_mmod_Van_der_Waal_Energy-OPLS-2005>
141.422485351562

> <r_mmod_Electrostatic_Energy-OPLS-2005>
-418.447143554688

> <r_mmod_Solvation_Energy-OPLS-2005>
-212.187438964844

> <b_mmod_Minimization_Converged-OPLS-2005>
0

> <r_mmod_RMS_Derivative-OPLS-2005>
4.37820339202881

$$$$
73
                    3D
 Structure written by MMmdl.
164173  0  0  1  0            999 V2000
  -30.6391  -14.6423   20.5330 C   0  0  0  0  0  0
  -30.4478  -12.4120   19.4557 C   0  0  0  0  0  0
  -29.5203  -12.5399   18.2244 C   0  0  0  0  0  0
  -28.0392  -12.3755   18.6212 C   0  0  0  0  0  0
  -27.6607  -13.2159   19.8705 C   0  0  2  0  0  0
  -28.7048  -13.0654   21.0017 C   0  0  0  0  0  0
  -25.2621  -13.8172   20.5628 C   0  0  0  0  0  0
  -24.1828  -13.0467   20.9106 C   0  0  0  0  0  0
  -24.6370  -11.6924   20.8650 C   0  0  0  0  0  0
  -23.9009  -10.4313   21.0334 C   0  0  0  0  0  0
  -24.3567   -9.4241   21.9121 C   0  0  0  0  0  0
  -23.6266   -8.2266   22.0717 C   0  0  0  0  0  0
  -22.4267   -8.0275   21.3509 C   0  0  0  0  0  0
  -21.9863   -9.0239   20.4620 C   0  0  0  0  0  0
  -22.7178  -10.2130   20.3009 C   0  0  0  0  0  0
  -21.6849   -6.0722   22.5257 C   0  0  0  0  0  0
  -21.4025   -6.5614   23.8192 C   0  0  0  0  0  0
  -21.3673   -5.6771   24.9143 C   0  0  0  0  0  0
  -21.6054   -4.3024   24.7203 C   0  0  0  0  0  0
  -21.8834   -3.8126   23.4315 C   0  0  0  0  0  0
  -21.9190   -4.6938   22.3376 C   0  0  0  0  0  0
  -22.7864  -13.5307   21.1783 C   0  0  0  0  0  0
  -22.1658   -4.2121   21.0955 F   0  0  0  0  0  0
  -21.5643   -3.4521   25.7714 F   0  0  0  0  0  0
  -30.0217  -13.4185   20.4536 N   0  0  0  0  0  0
  -26.3025  -12.9315   20.3294 N   0  0  0  0  0  0
  -25.9310  -11.6480   20.5678 N   0  0  0  0  0  0
  -22.0455  -12.8328   22.0337 N   0  0  0  0  0  0
  -25.4548  -15.1859   20.4078 N   0  0  0  0  0  0
  -31.7655  -14.8176   20.0625 O   0  0  0  0  0  0
  -21.6635   -6.8861   21.4223 O   0  0  0  0  0  0
  -22.3572  -14.5623   20.6649 O   0  0  0  0  0  0
  -24.6335  -31.8502   23.1931 C   0  0  0  0  0  0
  -25.9170  -32.4716   23.8259 C   0  0  1  0  0  0
  -27.2342  -27.2987   20.1149 C   0  0  0  0  0  0
  -25.5961  -33.8519   24.2178 N   0  0  0  0  0  0
  -23.4217  -30.4692   21.5425 C   0  0  2  0  0  0
  -24.8646  -28.9089   20.1000 C   0  0  0  0  0  0
  -22.7495  -29.4572   22.4999 C   0  0  0  0  0  0
  -18.0262  -28.1397   22.8461 C   0  0  0  0  0  0
  -24.1483  -36.7332   23.2631 C   0  0  0  0  0  0
  -25.9591  -30.7664   21.3613 C   0  0  0  0  0  0
  -26.0264  -29.3901   20.7150 C   0  0  0  0  0  0
  -27.2070  -28.5947   20.7130 C   0  0  0  0  0  0
  -26.0622  -26.8744   19.4485 C   0  0  0  0  0  0
  -24.8904  -27.6637   19.4468 C   0  0  0  0  0  0
  -23.6258  -29.7854   20.1602 C   0  0  0  0  0  0
  -25.4106  -36.3048   24.0291 C   0  0  1  0  0  0
  -20.5857  -28.3677   23.1300 C   0  0  2  0  0  0
  -20.6739  -26.9405   22.5412 C   0  0  0  0  0  0
  -19.5733  -26.6361   21.5208 C   0  0  0  0  0  0
  -18.1902  -26.7937   22.1595 C   0  0  0  0  0  0
  -19.1512  -28.8867   23.2850 C   0  0  0  0  0  0
  -18.9442  -30.1485   23.8844 C   0  0  0  0  0  0
  -17.6440  -30.6593   24.0539 C   0  0  0  0  0  0
  -25.9052  -34.9423   23.5039 C   0  0  0  0  0  0
  -16.5329  -29.9075   23.6343 C   0  0  0  0  0  0
  -16.7249  -28.6501   23.0341 C   0  0  0  0  0  0
  -26.4501  -31.6579   25.0696 C   0  0  0  0  0  0
  -25.3728  -31.3774   26.1445 C   0  0  0  0  0  0
  -27.0321  -30.2986   24.6185 C   0  0  0  0  0  0
  -27.6025  -32.4338   25.7508 C   0  0  0  0  0  0
  -27.5573  -37.1802   24.8433 C   0  0  0  0  0  0
  -21.4203  -29.3019   22.3736 N   0  0  0  0  0  0
  -26.4270  -37.3755   23.9398 N   0  0  0  0  0  0
  -24.6914  -31.0484   22.0893 N   0  0  0  0  0  0
  -23.4213  -28.8116   23.3080 O   0  0  0  0  0  0
  -28.3853  -26.5024   20.2164 O   0  0  0  0  0  0
  -26.5633  -34.8926   22.4610 O   0  0  0  0  0  0
  -23.5505  -32.1328   23.7267 O   0  0  0  0  0  0
  -28.8541  -19.3861   19.1049 C   0  0  0  0  0  0
  -28.9625  -16.9376   19.2001 C   0  0  0  0  0  0
  -29.8873  -18.2723   21.0124 C   0  0  0  0  0  0
  -28.5700  -18.1214   18.5485 C   0  0  0  0  0  0
  -29.5285  -19.5068   20.3381 C   0  0  0  0  0  0
  -29.6311  -16.9691   20.4418 C   0  0  0  0  0  0
  -30.1841  -23.4330   21.1537 C   0  0  0  0  0  0
  -31.1193  -23.4790   22.1200 C   0  0  0  0  0  0
  -29.9464  -24.5664   20.1128 C   0  0  0  0  0  0
  -27.5302  -24.0149   20.4787 C   0  0  0  0  0  0
  -28.0336  -22.5252   20.2733 C   0  0  0  0  0  0
  -28.4861  -25.0667   19.8383 C   0  0  1  0  0  0
  -27.8743  -18.0246   17.2074 C   0  0  0  0  0  0
  -30.0927  -20.9291   20.7257 C   0  0  0  0  0  0
  -29.9322  -15.6862   21.0777 N   0  0  0  0  0  0
  -29.2926  -22.2066   21.0210 N   0  3  1  0  0  0
  -31.4893  -12.5448   19.1577 H   0  0  0  0  0  0
  -30.3932  -11.4108   19.8833 H   0  0  0  0  0  0
  -29.7925  -11.8045   17.4666 H   0  0  0  0  0  0
  -29.6608  -13.5169   17.7580 H   0  0  0  0  0  0
  -27.8561  -11.3170   18.8087 H   0  0  0  0  0  0
  -27.4006  -12.6519   17.7795 H   0  0  0  0  0  0
  -27.6772  -14.2546   19.5459 H   0  0  0  0  0  0
  -28.7221  -12.0377   21.3678 H   0  0  0  0  0  0
  -28.4403  -13.6822   21.8591 H   0  0  0  0  0  0
  -25.2698   -9.5748   22.4679 H   0  0  0  0  0  0
  -23.9982   -7.4678   22.7447 H   0  0  0  0  0  0
  -21.0780   -8.8755   19.8939 H   0  0  0  0  0  0
  -22.3606  -10.9650   19.6109 H   0  0  0  0  0  0
  -21.2031   -7.6126   23.9682 H   0  0  0  0  0  0
  -21.1489   -6.0488   25.9053 H   0  0  0  0  0  0
  -22.0608   -2.7585   23.2801 H   0  0  0  0  0  0
  -22.4008  -11.9980   22.4739 H   0  0  0  0  0  0
  -21.1100  -13.1448   22.2543 H   0  0  0  0  0  0
  -24.7237  -15.8793   20.5193 H   0  0  0  0  0  0
  -26.3426  -15.5876   20.1354 H   0  0  0  0  0  0
  -26.7255  -32.5332   23.1007 H   0  0  0  0  0  0
  -25.0114  -33.9587   25.0334 H   0  0  0  0  0  0
  -22.7174  -31.2912   21.4006 H   0  0  0  0  0  0
  -23.3692  -35.9715   23.3251 H   0  0  0  0  0  0
  -24.3570  -36.9017   22.2054 H   0  0  0  0  0  0
  -23.7285  -37.6537   23.6705 H   0  0  0  0  0  0
  -26.0851  -31.5040   20.5670 H   0  0  0  0  0  0
  -26.8454  -30.8230   21.9833 H   0  0  0  0  0  0
  -28.1027  -28.9596   21.1955 H   0  0  0  0  0  0
  -26.0356  -25.9351   18.9153 H   0  0  0  0  0  0
  -24.0128  -27.3093   18.9231 H   0  0  0  0  0  0
  -23.7145  -30.5494   19.3882 H   0  0  0  0  0  0
  -22.7436  -29.2020   19.8881 H   0  0  0  0  0  0
  -25.1283  -36.1851   25.0773 H   0  0  0  0  0  0
  -20.9908  -28.3236   24.1440 H   0  0  0  0  0  0
  -20.5619  -26.2309   23.3615 H   0  0  0  0  0  0
  -21.6613  -26.7417   22.1231 H   0  0  0  0  0  0
  -19.6880  -25.6251   21.1290 H   0  0  0  0  0  0
  -19.6693  -27.3122   20.6705 H   0  0  0  0  0  0
  -17.4191  -26.6710   21.3972 H   0  0  0  0  0  0
  -18.0263  -26.0073   22.8982 H   0  0  0  0  0  0
  -19.7917  -30.7313   24.2171 H   0  0  0  0  0  0
  -17.4992  -31.6278   24.5135 H   0  0  0  0  0  0
  -15.5323  -30.2955   23.7708 H   0  0  0  0  0  0
  -15.8651  -28.0816   22.7069 H   0  0  0  0  0  0
  -24.5859  -30.7152   25.7818 H   0  0  0  0  0  0
  -24.8990  -32.2980   26.4872 H   0  0  0  0  0  0
  -25.8063  -30.8968   27.0226 H   0  0  0  0  0  0
  -26.2882  -29.6779   24.1193 H   0  0  0  0  0  0
  -27.3955  -29.7212   25.4690 H   0  0  0  0  0  0
  -27.8782  -30.4225   23.9425 H   0  0  0  0  0  0
  -27.2559  -33.3596   26.2108 H   0  0  0  0  0  0
  -28.3859  -32.6975   25.0394 H   0  0  0  0  0  0
  -28.0694  -31.8484   26.5437 H   0  0  0  0  0  0
  -28.2553  -38.0132   24.7492 H   0  0  0  0  0  0
  -28.1091  -36.2661   24.6200 H   0  0  0  0  0  0
  -27.2319  -37.1402   25.8841 H   0  0  0  0  0  0
  -20.9440  -29.8804   21.6963 H   0  0  0  0  0  0
  -26.0132  -38.2826   24.1372 H   0  0  0  0  0  0
  -28.6164  -20.2769   18.5424 H   0  0  0  0  0  0
  -28.7516  -15.9924   18.7212 H   0  0  0  0  0  0
  -30.4305  -18.3183   21.9470 H   0  0  0  0  0  0
  -31.7795  -24.3285   22.2166 H   0  0  0  0  0  0
  -31.2487  -22.6758   22.8329 H   0  0  0  0  0  0
  -30.3962  -24.2227   19.1820 H   0  0  0  0  0  0
  -30.5437  -25.4267   20.4089 H   0  0  0  0  0  0
  -27.3937  -24.2479   21.5368 H   0  0  0  0  0  0
  -26.5418  -24.0910   20.0247 H   0  0  0  0  0  0
  -28.1655  -22.3642   19.2059 H   0  0  0  0  0  0
  -27.2718  -21.8182   20.5992 H   0  0  0  0  0  0
  -28.3486  -25.0183   18.7550 H   0  0  0  0  0  0
  -27.8803  -18.9831   16.6883 H   0  0  0  0  0  0
  -26.8398  -17.7066   17.3382 H   0  0  0  0  0  0
  -28.3719  -17.2934   16.5694 H   0  0  0  0  0  0
  -30.7787  -21.1931   19.9192 H   0  0  0  0  0  0
  -30.7311  -20.7707   21.5960 H   0  0  0  0  0  0
  -29.2083  -15.3606   21.7012 H   0  0  0  0  0  0
  -28.9490  -22.0142   21.9489 H   0  0  0  0  0  0
  1 25  1  0  0  0
  1 30  2  0  0  0
  1 85  1  0  0  0
  2  3  1  0  0  0
  2 25  1  0  0  0
  2 87  1  0  0  0
  2 88  1  0  0  0
  3  4  1  0  0  0
  3 89  1  0  0  0
  3 90  1  0  0  0
  4  5  1  0  0  0
  4 91  1  0  0  0
  4 92  1  0  0  0
  5  6  1  0  0  0
  5 26  1  0  0  0
  5 93  1  0  0  0
  6 25  1  0  0  0
  6 94  1  0  0  0
  6 95  1  0  0  0
  7  8  2  0  0  0
  7 26  1  0  0  0
  7 29  1  0  0  0
  8  9  1  0  0  0
  8 22  1  0  0  0
  9 10  1  0  0  0
  9 27  2  0  0  0
 10 11  2  0  0  0
 10 15  1  0  0  0
 11 12  1  0  0  0
 11 96  1  0  0  0
 12 13  2  0  0  0
 12 97  1  0  0  0
 13 14  1  0  0  0
 13 31  1  0  0  0
 14 15  2  0  0  0
 14 98  1  0  0  0
 15 99  1  0  0  0
 16 17  2  0  0  0
 16 21  1  0  0  0
 16 31  1  0  0  0
 17 18  1  0  0  0
 17100  1  0  0  0
 18 19  2  0  0  0
 18101  1  0  0  0
 19 20  1  0  0  0
 19 24  1  0  0  0
 20 21  2  0  0  0
 20102  1  0  0  0
 21 23  1  0  0  0
 22 28  1  0  0  0
 22 32  2  0  0  0
 26 27  1  0  0  0
 28103  1  0  0  0
 28104  1  0  0  0
 29105  1  0  0  0
 29106  1  0  0  0
 33 34  1  0  0  0
 33 66  1  0  0  0
 33 70  2  0  0  0
 34 36  1  0  0  0
 34 59  1  0  0  0
 34107  1  0  0  0
 35 44  2  0  0  0
 35 45  1  0  0  0
 35 68  1  0  0  0
 36 56  1  0  0  0
 36108  1  0  0  0
 37 39  1  0  0  0
 37 47  1  0  0  0
 37 66  1  0  0  0
 37109  1  0  0  0
 38 43  2  0  0  0
 38 46  1  0  0  0
 38 47  1  0  0  0
 39 64  1  0  0  0
 39 67  2  0  0  0
 40 52  1  0  0  0
 40 53  2  0  0  0
 40 58  1  0  0  0
 41110  1  0  0  0
 41111  1  0  0  0
 41112  1  0  0  0
 41 48  1  0  0  0
 42 43  1  0  0  0
 42 66  1  0  0  0
 42113  1  0  0  0
 42114  1  0  0  0
 43 44  1  0  0  0
 44115  1  0  0  0
 45 46  2  0  0  0
 45116  1  0  0  0
 46117  1  0  0  0
 47118  1  0  0  0
 47119  1  0  0  0
 48 56  1  0  0  0
 48 65  1  0  0  0
 48120  1  0  0  0
 49 50  1  0  0  0
 49 53  1  0  0  0
 49 64  1  0  0  0
 49121  1  0  0  0
 50 51  1  0  0  0
 50122  1  0  0  0
 50123  1  0  0  0
 51 52  1  0  0  0
 51124  1  0  0  0
 51125  1  0  0  0
 52126  1  0  0  0
 52127  1  0  0  0
 53 54  1  0  0  0
 54 55  2  0  0  0
 54128  1  0  0  0
 55 57  1  0  0  0
 55129  1  0  0  0
 56 69  2  0  0  0
 57 58  2  0  0  0
 57130  1  0  0  0
 58131  1  0  0  0
 59 60  1  0  0  0
 59 61  1  0  0  0
 59 62  1  0  0  0
 60132  1  0  0  0
 60133  1  0  0  0
 60134  1  0  0  0
 61135  1  0  0  0
 61136  1  0  0  0
 61137  1  0  0  0
 62138  1  0  0  0
 62139  1  0  0  0
 62140  1  0  0  0
 63 65  1  0  0  0
 63141  1  0  0  0
 63142  1  0  0  0
 63143  1  0  0  0
 64144  1  0  0  0
 65145  1  0  0  0
 68 82  1  0  0  0
 71 74  2  0  0  0
 71 75  1  0  0  0
 71146  1  0  0  0
 72 74  1  0  0  0
 72 76  2  0  0  0
 72147  1  0  0  0
 73 75  2  0  0  0
 73 76  1  0  0  0
 73148  1  0  0  0
 74 83  1  0  0  0
 75 84  1  0  0  0
 76 85  1  0  0  0
 77 78  2  0  0  0
 77 79  1  0  0  0
 77 86  1  0  0  0
 78149  1  0  0  0
 78150  1  0  0  0
 79 82  1  0  0  0
 79151  1  0  0  0
 79152  1  0  0  0
 80 81  1  0  0  0
 80 82  1  0  0  0
 80153  1  0  0  0
 80154  1  0  0  0
 81 86  1  0  0  0
 81155  1  0  0  0
 81156  1  0  0  0
 82157  1  0  0  0
 83158  1  0  0  0
 83159  1  0  0  0
 83160  1  0  0  0
 84161  1  0  0  0
 84162  1  0  0  0
 84 86  1  0  0  0
 85163  1  0  0  0
 86164  1  0  0  0
M  CHG  1  86   1
M  ISO  4   1 100  68 101  82 101  85 100
M  END
> <chiral flag>
0

> <version>
0

> <s_m_source_file>
/data/baiqing/PycharmProjects/Reinvent-master-3.2/result/LINK_invent/BTK/process_docking_weight1_custom_product_contain_oxygen_bond_distance_aromatic_linkinvent_7_9_3/rearranged_h_0046.sdf

> <i_m_source_file_index>
74

> <r_mmod_Potential_Energy-OPLS-2005>
32.8998069763184

> <r_mmod_Stretch_Energy-OPLS-2005>
90.6726226806641

> <r_mmod_Bend_Energy-OPLS-2005>
193.833389282227

> <r_mmod_Torsional_Energy-OPLS-2005>
272.737091064453

> <r_mmod_Improper_Torsional_Energy-OPLS-2005>
6.86266803741455

> <r_mmod_Van_der_Waal_Energy-OPLS-2005>
138.166564941406

> <r_mmod_Electrostatic_Energy-OPLS-2005>
-270.522674560547

> <r_mmod_Solvation_Energy-OPLS-2005>
-450.881072998047

> <b_mmod_Minimization_Converged-OPLS-2005>
0

> <r_mmod_RMS_Derivative-OPLS-2005>
5.57241868972778

$$$$
74
                    3D
 Structure written by MMmdl.
164173  0  0  1  0            999 V2000
  -30.6172  -14.6587   20.4927 C   0  0  0  0  0  0
  -30.4367  -12.4060   19.4545 C   0  0  0  0  0  0
  -29.5067  -12.5101   18.2245 C   0  0  0  0  0  0
  -28.0314  -12.3433   18.6387 C   0  0  0  0  0  0
  -27.6508  -13.2198   19.8611 C   0  0  2  0  0  0
  -28.6949  -13.0894   20.9925 C   0  0  0  0  0  0
  -25.2552  -13.8179   20.5682 C   0  0  0  0  0  0
  -24.1820  -13.0435   20.9189 C   0  0  0  0  0  0
  -24.6394  -11.6911   20.8744 C   0  0  0  0  0  0
  -23.9063  -10.4291   21.0420 C   0  0  0  0  0  0
  -24.3615   -9.4201   21.9198 C   0  0  0  0  0  0
  -23.6286   -8.2242   22.0768 C   0  0  0  0  0  0
  -22.4270   -8.0287   21.3555 C   0  0  0  0  0  0
  -21.9906   -9.0263   20.4653 C   0  0  0  0  0  0
  -22.7240  -10.2140   20.3062 C   0  0  0  0  0  0
  -21.6850   -6.0730   22.5277 C   0  0  0  0  0  0
  -21.4016   -6.5637   23.8210 C   0  0  0  0  0  0
  -21.3655   -5.6793   24.9173 C   0  0  0  0  0  0
  -21.6038   -4.3053   24.7221 C   0  0  0  0  0  0
  -21.8820   -3.8141   23.4344 C   0  0  0  0  0  0
  -21.9194   -4.6957   22.3401 C   0  0  0  0  0  0
  -22.7843  -13.5235   21.1857 C   0  0  0  0  0  0
  -22.1664   -4.2139   21.0981 F   0  0  0  0  0  0
  -21.5628   -3.4540   25.7736 F   0  0  0  0  0  0
  -30.0070  -13.4333   20.4245 N   0  0  0  0  0  0
  -26.2974  -12.9359   20.3300 N   0  0  0  0  0  0
  -25.9321  -11.6514   20.5758 N   0  0  0  0  0  0
  -22.0483  -12.8218   22.0408 N   0  0  0  0  0  0
  -25.4254  -15.1898   20.4110 N   0  0  0  0  0  0
  -31.7875  -14.8117   20.1339 O   0  0  0  0  0  0
  -21.6635   -6.8883   21.4244 O   0  0  0  0  0  0
  -22.3535  -14.5550   20.6719 O   0  0  0  0  0  0
  -24.6264  -31.8571   23.2012 C   0  0  0  0  0  0
  -25.9111  -32.4764   23.8341 C   0  0  1  0  0  0
  -27.2328  -27.3097   20.1218 C   0  0  0  0  0  0
  -25.5926  -33.8566   24.2274 N   0  0  0  0  0  0
  -23.4204  -30.4781   21.5439 C   0  0  2  0  0  0
  -24.8687  -28.9262   20.1133 C   0  0  0  0  0  0
  -22.7467  -29.4610   22.4948 C   0  0  0  0  0  0
  -18.0274  -28.1377   22.8483 C   0  0  0  0  0  0
  -24.1486  -36.7287   23.2638 C   0  0  0  0  0  0
  -25.9601  -30.7863   21.3710 C   0  0  0  0  0  0
  -26.0356  -29.4116   20.7148 C   0  0  0  0  0  0
  -27.2183  -28.6152   20.7065 C   0  0  0  0  0  0
  -26.0398  -26.8711   19.5039 C   0  0  0  0  0  0
  -24.8723  -27.6619   19.5000 C   0  0  0  0  0  0
  -23.6358  -29.8062   20.1613 C   0  0  0  0  0  0
  -25.4114  -36.3081   24.0326 C   0  0  1  0  0  0
  -20.5873  -28.3683   23.1286 C   0  0  2  0  0  0
  -20.6768  -26.9409   22.5407 C   0  0  0  0  0  0
  -19.5748  -26.6382   21.5205 C   0  0  0  0  0  0
  -18.1924  -26.7920   22.1615 C   0  0  0  0  0  0
  -19.1526  -28.8848   23.2875 C   0  0  0  0  0  0
  -18.9452  -30.1449   23.8892 C   0  0  0  0  0  0
  -17.6457  -30.6591   24.0561 C   0  0  0  0  0  0
  -25.9049  -34.9447   23.5102 C   0  0  0  0  0  0
  -16.5347  -29.9085   23.6335 C   0  0  0  0  0  0
  -16.7261  -28.6499   23.0364 C   0  0  0  0  0  0
  -26.4502  -31.6580   25.0715 C   0  0  0  0  0  0
  -25.3744  -31.3707   26.1447 C   0  0  0  0  0  0
  -27.0353  -30.3009   24.6173 C   0  0  0  0  0  0
  -27.6062  -32.4316   25.7484 C   0  0  0  0  0  0
  -27.5578  -37.1796   24.8466 C   0  0  0  0  0  0
  -21.4180  -29.3038   22.3688 N   0  0  0  0  0  0
  -26.4294  -37.3780   23.9407 N   0  0  0  0  0  0
  -24.6877  -31.0571   22.0964 N   0  0  0  0  0  0
  -23.4184  -28.8162   23.3040 O   0  0  0  0  0  0
  -28.3775  -26.4968   20.1764 O   0  0  0  0  0  0
  -26.5618  -34.8920   22.4668 O   0  0  0  0  0  0
  -23.5432  -32.1369   23.7344 O   0  0  0  0  0  0
  -28.5987  -19.8721   18.0831 C   0  0  0  0  0  0
  -28.3799  -19.0068   17.0006 C   0  0  0  0  0  0
  -29.2060  -17.1679   18.3282 C   0  0  0  0  0  0
  -29.1259  -19.4335   19.3314 C   0  0  0  0  0  0
  -29.4338  -17.9995   19.4564 C   0  0  0  0  0  0
  -28.6863  -17.6504   17.1212 C   0  0  0  0  0  0
  -27.6500  -22.6099   20.8096 C   0  0  0  0  0  0
  -26.6293  -21.8322   21.2175 C   0  0  0  0  0  0
  -27.6206  -24.1639   20.9712 C   0  0  0  0  0  0
  -29.7680  -24.4374   19.8995 C   0  0  0  0  0  0
  -29.8600  -22.9253   19.4940 C   0  0  0  0  0  0
  -28.3448  -25.0344   19.9064 C   0  0  2  0  0  0
  -30.0357  -17.2292   20.6848 C   0  0  0  0  0  0
  -29.3157  -20.5707   20.4153 C   0  0  0  0  0  0
  -29.8035  -15.7299   20.7651 N   0  0  0  0  0  0
  -28.8182  -21.9842   20.0365 N   0  3  1  0  0  0
  -28.4349  -16.5786   15.7931 Cl  0  0  0  0  0  0
  -31.4789  -12.5307   19.1541 H   0  0  0  0  0  0
  -30.3732  -11.4138   19.9037 H   0  0  0  0  0  0
  -29.7740  -11.7540   17.4846 H   0  0  0  0  0  0
  -29.6420  -13.4766   17.7354 H   0  0  0  0  0  0
  -27.8782  -11.2909   18.8795 H   0  0  0  0  0  0
  -27.3724  -12.5651   17.7981 H   0  0  0  0  0  0
  -27.6654  -14.2523   19.5124 H   0  0  0  0  0  0
  -28.7097  -12.0725   21.3881 H   0  0  0  0  0  0
  -28.4401  -13.7340   21.8349 H   0  0  0  0  0  0
  -25.2767   -9.5662   22.4762 H   0  0  0  0  0  0
  -23.9982   -7.4628   22.7489 H   0  0  0  0  0  0
  -21.0841   -8.8798   19.8955 H   0  0  0  0  0  0
  -22.3724  -10.9685   19.6162 H   0  0  0  0  0  0
  -21.2019   -7.6146   23.9712 H   0  0  0  0  0  0
  -21.1473   -6.0524   25.9078 H   0  0  0  0  0  0
  -22.0602   -2.7601   23.2850 H   0  0  0  0  0  0
  -22.4102  -11.9860   22.4752 H   0  0  0  0  0  0
  -21.1113  -13.1258   22.2654 H   0  0  0  0  0  0
  -24.6543  -15.8398   20.5193 H   0  0  0  0  0  0
  -26.2662  -15.6306   20.0608 H   0  0  0  0  0  0
  -26.7173  -32.5437   23.1085 H   0  0  0  0  0  0
  -25.0087  -33.9702   25.0430 H   0  0  0  0  0  0
  -22.7150  -31.2988   21.3976 H   0  0  0  0  0  0
  -23.3760  -35.9608   23.3298 H   0  0  0  0  0  0
  -24.3575  -36.8914   22.2055 H   0  0  0  0  0  0
  -23.7230  -37.6480   23.6667 H   0  0  0  0  0  0
  -26.0886  -31.5494   20.6020 H   0  0  0  0  0  0
  -26.8414  -30.8390   21.9990 H   0  0  0  0  0  0
  -28.1173  -28.9846   21.1800 H   0  0  0  0  0  0
  -25.9828  -25.9023   19.0309 H   0  0  0  0  0  0
  -23.9756  -27.2821   19.0295 H   0  0  0  0  0  0
  -23.7526  -30.5786   19.4004 H   0  0  0  0  0  0
  -22.7566  -29.2323   19.8637 H   0  0  0  0  0  0
  -25.1299  -36.1926   25.0820 H   0  0  0  0  0  0
  -20.9952  -28.3258   24.1413 H   0  0  0  0  0  0
  -20.5668  -26.2291   23.3604 H   0  0  0  0  0  0
  -21.6636  -26.7445   22.1201 H   0  0  0  0  0  0
  -19.6912  -25.6294   21.1235 H   0  0  0  0  0  0
  -19.6685  -27.3189   20.6737 H   0  0  0  0  0  0
  -17.4193  -26.6666   21.4021 H   0  0  0  0  0  0
  -18.0327  -26.0060   22.9010 H   0  0  0  0  0  0
  -19.7933  -30.7255   24.2269 H   0  0  0  0  0  0
  -17.5020  -31.6275   24.5156 H   0  0  0  0  0  0
  -15.5348  -30.2993   23.7666 H   0  0  0  0  0  0
  -15.8656  -28.0816   22.7095 H   0  0  0  0  0  0
  -24.5938  -30.7025   25.7786 H   0  0  0  0  0  0
  -24.8907  -32.2861   26.4863 H   0  0  0  0  0  0
  -25.8082  -30.8907   27.0228 H   0  0  0  0  0  0
  -26.2928  -29.6741   24.1217 H   0  0  0  0  0  0
  -27.4082  -29.7281   25.4674 H   0  0  0  0  0  0
  -27.8779  -30.4302   23.9378 H   0  0  0  0  0  0
  -27.2681  -33.3629   26.2039 H   0  0  0  0  0  0
  -28.3878  -32.6846   25.0308 H   0  0  0  0  0  0
  -28.0719  -31.8452   26.5415 H   0  0  0  0  0  0
  -28.2593  -38.0098   24.7533 H   0  0  0  0  0  0
  -28.1080  -36.2631   24.6277 H   0  0  0  0  0  0
  -27.2293  -37.1423   25.8868 H   0  0  0  0  0  0
  -20.9370  -29.8743   21.6875 H   0  0  0  0  0  0
  -26.0173  -38.2849   24.1432 H   0  0  0  0  0  0
  -28.3430  -20.8998   17.8849 H   0  0  0  0  0  0
  -27.9840  -19.3898   16.0706 H   0  0  0  0  0  0
  -29.4419  -16.1155   18.3528 H   0  0  0  0  0  0
  -25.7782  -22.2659   21.7225 H   0  0  0  0  0  0
  -26.6028  -20.7640   21.0570 H   0  0  0  0  0  0
  -28.0318  -24.3917   21.9559 H   0  0  0  0  0  0
  -26.5774  -24.4767   21.0190 H   0  0  0  0  0  0
  -30.4006  -25.0189   19.2270 H   0  0  0  0  0  0
  -30.2085  -24.5622   20.8899 H   0  0  0  0  0  0
  -30.8600  -22.5646   19.7346 H   0  0  0  0  0  0
  -29.7905  -22.8635   18.4083 H   0  0  0  0  0  0
  -27.9076  -24.8687   18.9210 H   0  0  0  0  0  0
  -29.6256  -17.6725   21.5925 H   0  0  0  0  0  0
  -31.1087  -17.4252   20.7132 H   0  0  0  0  0  0
  -30.3727  -20.6112   20.6795 H   0  0  0  0  0  0
  -28.8238  -20.2428   21.3307 H   0  0  0  0  0  0
  -28.8675  -15.4685   21.0339 H   0  0  0  0  0  0
  -28.3853  -21.7211   19.1653 H   0  0  0  0  0  0
  1 25  1  0  0  0
  1 30  2  0  0  0
  1 85  1  0  0  0
  2  3  1  0  0  0
  2 25  1  0  0  0
  2 88  1  0  0  0
  2 89  1  0  0  0
  3  4  1  0  0  0
  3 90  1  0  0  0
  3 91  1  0  0  0
  4  5  1  0  0  0
  4 92  1  0  0  0
  4 93  1  0  0  0
  5  6  1  0  0  0
  5 26  1  0  0  0
  5 94  1  0  0  0
  6 25  1  0  0  0
  6 95  1  0  0  0
  6 96  1  0  0  0
  7  8  2  0  0  0
  7 26  1  0  0  0
  7 29  1  0  0  0
  8  9  1  0  0  0
  8 22  1  0  0  0
  9 10  1  0  0  0
  9 27  2  0  0  0
 10 11  2  0  0  0
 10 15  1  0  0  0
 11 12  1  0  0  0
 11 97  1  0  0  0
 12 13  2  0  0  0
 12 98  1  0  0  0
 13 14  1  0  0  0
 13 31  1  0  0  0
 14 15  2  0  0  0
 14 99  1  0  0  0
 15100  1  0  0  0
 16 17  2  0  0  0
 16 21  1  0  0  0
 16 31  1  0  0  0
 17 18  1  0  0  0
 17101  1  0  0  0
 18 19  2  0  0  0
 18102  1  0  0  0
 19 20  1  0  0  0
 19 24  1  0  0  0
 20 21  2  0  0  0
 20103  1  0  0  0
 21 23  1  0  0  0
 22 28  1  0  0  0
 22 32  2  0  0  0
 26 27  1  0  0  0
 28104  1  0  0  0
 28105  1  0  0  0
 29106  1  0  0  0
 29107  1  0  0  0
 33 34  1  0  0  0
 33 66  1  0  0  0
 33 70  2  0  0  0
 34 36  1  0  0  0
 34 59  1  0  0  0
 34108  1  0  0  0
 35 44  2  0  0  0
 35 45  1  0  0  0
 35 68  1  0  0  0
 36 56  1  0  0  0
 36109  1  0  0  0
 37 39  1  0  0  0
 37 47  1  0  0  0
 37 66  1  0  0  0
 37110  1  0  0  0
 38 43  2  0  0  0
 38 46  1  0  0  0
 38 47  1  0  0  0
 39 64  1  0  0  0
 39 67  2  0  0  0
 40 52  1  0  0  0
 40 53  2  0  0  0
 40 58  1  0  0  0
 41111  1  0  0  0
 41112  1  0  0  0
 41113  1  0  0  0
 41 48  1  0  0  0
 42 43  1  0  0  0
 42 66  1  0  0  0
 42114  1  0  0  0
 42115  1  0  0  0
 43 44  1  0  0  0
 44116  1  0  0  0
 45 46  2  0  0  0
 45117  1  0  0  0
 46118  1  0  0  0
 47119  1  0  0  0
 47120  1  0  0  0
 48 56  1  0  0  0
 48 65  1  0  0  0
 48121  1  0  0  0
 49 50  1  0  0  0
 49 53  1  0  0  0
 49 64  1  0  0  0
 49122  1  0  0  0
 50 51  1  0  0  0
 50123  1  0  0  0
 50124  1  0  0  0
 51 52  1  0  0  0
 51125  1  0  0  0
 51126  1  0  0  0
 52127  1  0  0  0
 52128  1  0  0  0
 53 54  1  0  0  0
 54 55  2  0  0  0
 54129  1  0  0  0
 55 57  1  0  0  0
 55130  1  0  0  0
 56 69  2  0  0  0
 57 58  2  0  0  0
 57131  1  0  0  0
 58132  1  0  0  0
 59 60  1  0  0  0
 59 61  1  0  0  0
 59 62  1  0  0  0
 60133  1  0  0  0
 60134  1  0  0  0
 60135  1  0  0  0
 61136  1  0  0  0
 61137  1  0  0  0
 61138  1  0  0  0
 62139  1  0  0  0
 62140  1  0  0  0
 62141  1  0  0  0
 63 65  1  0  0  0
 63142  1  0  0  0
 63143  1  0  0  0
 63144  1  0  0  0
 64145  1  0  0  0
 65146  1  0  0  0
 68 82  1  0  0  0
 71 72  2  0  0  0
 71 74  1  0  0  0
 71147  1  0  0  0
 72 76  1  0  0  0
 72148  1  0  0  0
 73 75  1  0  0  0
 73 76  2  0  0  0
 73149  1  0  0  0
 74 75  2  0  0  0
 74 84  1  0  0  0
 75 83  1  0  0  0
 76 87  1  0  0  0
 77 78  2  0  0  0
 77 79  1  0  0  0
 77 86  1  0  0  0
 78150  1  0  0  0
 78151  1  0  0  0
 79 82  1  0  0  0
 79152  1  0  0  0
 79153  1  0  0  0
 80 81  1  0  0  0
 80 82  1  0  0  0
 80154  1  0  0  0
 80155  1  0  0  0
 81 86  1  0  0  0
 81156  1  0  0  0
 81157  1  0  0  0
 82158  1  0  0  0
 83 85  1  0  0  0
 83159  1  0  0  0
 83160  1  0  0  0
 84161  1  0  0  0
 84162  1  0  0  0
 84 86  1  0  0  0
 85163  1  0  0  0
 86164  1  0  0  0
M  CHG  1  86   1
M  ISO  4   1 100  68 101  82 101  85 100
M  END
> <chiral flag>
0

> <version>
0

> <s_m_source_file>
/data/baiqing/PycharmProjects/Reinvent-master-3.2/result/LINK_invent/BTK/process_docking_weight1_custom_product_contain_oxygen_bond_distance_aromatic_linkinvent_7_9_3/rearranged_h_0046.sdf

> <i_m_source_file_index>
75

> <r_mmod_Potential_Energy-OPLS-2005>
-42.1511726379395

> <r_mmod_Stretch_Energy-OPLS-2005>
100.845230102539

> <r_mmod_Bend_Energy-OPLS-2005>
189.243530273438

> <r_mmod_Torsional_Energy-OPLS-2005>
221.781433105469

> <r_mmod_Improper_Torsional_Energy-OPLS-2005>
5.03547477722168

> <r_mmod_Van_der_Waal_Energy-OPLS-2005>
142.958206176758

> <r_mmod_Electrostatic_Energy-OPLS-2005>
-284.380981445312

> <r_mmod_Solvation_Energy-OPLS-2005>
-469.769317626953

> <b_mmod_Minimization_Converged-OPLS-2005>
0

> <r_mmod_RMS_Derivative-OPLS-2005>
1.34954166412354

$$$$
75
                    3D
 Structure written by MMmdl.
165173  0  0  1  0            999 V2000
  -30.7361  -14.3863   20.6755 C   0  0  0  0  0  0
  -30.4300  -12.2941   19.4012 C   0  0  0  0  0  0
  -29.4920  -12.5331   18.2008 C   0  0  0  0  0  0
  -28.0146  -12.3903   18.6138 C   0  0  0  0  0  0
  -27.6722  -13.2029   19.8897 C   0  0  2  0  0  0
  -28.7096  -12.9248   21.0010 C   0  0  0  0  0  0
  -25.2629  -13.8174   20.5706 C   0  0  0  0  0  0
  -24.1856  -13.0456   20.9172 C   0  0  0  0  0  0
  -24.6392  -11.6926   20.8720 C   0  0  0  0  0  0
  -23.9056  -10.4315   21.0410 C   0  0  0  0  0  0
  -24.3612   -9.4234   21.9189 C   0  0  0  0  0  0
  -23.6305   -8.2252   22.0738 C   0  0  0  0  0  0
  -22.4293   -8.0277   21.3524 C   0  0  0  0  0  0
  -21.9913   -9.0257   20.4635 C   0  0  0  0  0  0
  -22.7227  -10.2151   20.3062 C   0  0  0  0  0  0
  -21.6849   -6.0743   22.5279 C   0  0  0  0  0  0
  -21.4020   -6.5646   23.8212 C   0  0  0  0  0  0
  -21.3662   -5.6794   24.9168 C   0  0  0  0  0  0
  -21.6047   -4.3052   24.7219 C   0  0  0  0  0  0
  -21.8824   -3.8151   23.4337 C   0  0  0  0  0  0
  -21.9201   -4.6974   22.3397 C   0  0  0  0  0  0
  -22.7881  -13.5256   21.1864 C   0  0  0  0  0  0
  -22.1663   -4.2159   21.0971 F   0  0  0  0  0  0
  -21.5625   -3.4534   25.7730 F   0  0  0  0  0  0
  -30.0595  -13.2245   20.4780 N   0  0  0  0  0  0
  -26.3072  -12.9336   20.3427 N   0  0  0  0  0  0
  -25.9323  -11.6496   20.5765 N   0  0  0  0  0  0
  -22.0510  -12.8233   22.0406 N   0  0  0  0  0  0
  -25.4392  -15.1880   20.4138 N   0  0  0  0  0  0
  -31.7474  -14.7017   20.0394 O   0  0  0  0  0  0
  -21.6642   -6.8881   21.4238 O   0  0  0  0  0  0
  -22.3573  -14.5563   20.6723 O   0  0  0  0  0  0
  -24.6146  -31.8692   23.2115 C   0  0  0  0  0  0
  -25.9041  -32.4834   23.8409 C   0  0  1  0  0  0
  -27.2323  -27.4480   20.0951 C   0  0  0  0  0  0
  -25.5889  -33.8630   24.2333 N   0  0  0  0  0  0
  -23.4022  -30.4943   21.5512 C   0  0  2  0  0  0
  -24.8515  -28.9734   20.1045 C   0  0  0  0  0  0
  -22.7413  -29.4662   22.4976 C   0  0  0  0  0  0
  -18.0276  -28.1386   22.8507 C   0  0  0  0  0  0
  -24.1475  -36.7313   23.2640 C   0  0  0  0  0  0
  -25.9314  -30.8403   21.3640 C   0  0  0  0  0  0
  -26.0115  -29.4792   20.7063 C   0  0  0  0  0  0
  -27.2078  -28.7238   20.7001 C   0  0  0  0  0  0
  -26.0639  -26.9744   19.4540 C   0  0  0  0  0  0
  -24.8731  -27.7196   19.4728 C   0  0  0  0  0  0
  -23.6087  -29.8315   20.1639 C   0  0  0  0  0  0
  -25.4100  -36.3113   24.0339 C   0  0  1  0  0  0
  -20.5861  -28.3660   23.1326 C   0  0  2  0  0  0
  -20.6751  -26.9393   22.5422 C   0  0  0  0  0  0
  -19.5722  -26.6388   21.5223 C   0  0  0  0  0  0
  -18.1909  -26.7932   22.1641 C   0  0  0  0  0  0
  -19.1526  -28.8847   23.2916 C   0  0  0  0  0  0
  -18.9457  -30.1455   23.8914 C   0  0  0  0  0  0
  -17.6458  -30.6594   24.0573 C   0  0  0  0  0  0
  -25.9026  -34.9482   23.5133 C   0  0  0  0  0  0
  -16.5349  -29.9094   23.6336 C   0  0  0  0  0  0
  -16.7262  -28.6516   23.0352 C   0  0  0  0  0  0
  -26.4470  -31.6607   25.0728 C   0  0  0  0  0  0
  -25.3741  -31.3720   26.1477 C   0  0  0  0  0  0
  -27.0285  -30.3046   24.6097 C   0  0  0  0  0  0
  -27.6034  -32.4334   25.7494 C   0  0  0  0  0  0
  -27.5571  -37.1811   24.8472 C   0  0  0  0  0  0
  -21.4138  -29.3029   22.3731 N   0  0  0  0  0  0
  -26.4285  -37.3795   23.9412 N   0  0  0  0  0  0
  -24.6672  -31.0810   22.1002 N   0  0  0  0  0  0
  -23.4198  -28.8204   23.3009 O   0  0  0  0  0  0
  -28.3517  -26.6432   20.1699 O   0  0  0  0  0  0
  -26.5591  -34.8934   22.4693 O   0  0  0  0  0  0
  -23.5339  -32.1427   23.7522 O   0  0  0  0  0  0
  -29.2684  -17.0463   22.7665 C   0  0  0  0  0  0
  -30.3642  -17.4267   20.6310 C   0  0  0  0  0  0
  -29.0924  -19.2439   21.6888 C   0  0  0  0  0  0
  -28.8257  -18.3855   22.7968 C   0  0  0  0  0  0
  -29.9999  -16.5403   21.6750 C   0  0  0  0  0  0
  -29.9116  -18.7647   20.6365 C   0  0  0  0  0  0
  -28.4185  -20.5530   21.5731 C   0  0  0  0  0  0
  -28.0546  -18.8385   24.0342 C   0  0  0  0  0  0
  -30.3260  -24.6039   21.6999 C   0  0  0  0  0  0
  -29.5411  -24.0050   19.3703 C   0  0  0  0  0  0
  -28.3473  -23.0334   21.3873 C   0  0  0  0  0  0
  -28.0662  -25.4223   20.8812 C   0  0  0  0  0  0
  -29.1063  -24.2673   20.8239 C   0  0  0  0  0  0
  -27.0856  -20.5648   21.6826 N   0  0  0  0  0  0
  -30.2609  -15.1393   21.6767 N   0  0  0  0  0  0
  -29.0516  -21.7311   21.3791 N   0  3  0  0  0  0
  -30.2192  -19.5624   19.5849 F   0  0  0  0  0  0
  -31.4718  -12.4127   19.0949 H   0  0  0  0  0  0
  -30.3395  -11.2656   19.7543 H   0  0  0  0  0  0
  -29.7227  -11.8328   17.3972 H   0  0  0  0  0  0
  -29.6616  -13.5326   17.7979 H   0  0  0  0  0  0
  -27.8168  -11.3323   18.7871 H   0  0  0  0  0  0
  -27.3637  -12.6911   17.7911 H   0  0  0  0  0  0
  -27.7367  -14.2601   19.6302 H   0  0  0  0  0  0
  -28.6676  -11.8754   21.2947 H   0  0  0  0  0  0
  -28.4477  -13.4795   21.9028 H   0  0  0  0  0  0
  -25.2756   -9.5717   22.4764 H   0  0  0  0  0  0
  -24.0024   -7.4643   22.7443 H   0  0  0  0  0  0
  -21.0843   -8.8783   19.8929 H   0  0  0  0  0  0
  -22.3686  -10.9699   19.6165 H   0  0  0  0  0  0
  -21.2001   -7.6151   23.9726 H   0  0  0  0  0  0
  -21.1480   -6.0506   25.9073 H   0  0  0  0  0  0
  -22.0600   -2.7619   23.2826 H   0  0  0  0  0  0
  -22.4119  -11.9887   22.4792 H   0  0  0  0  0  0
  -21.1135  -13.1279   22.2622 H   0  0  0  0  0  0
  -24.6785  -15.8503   20.5206 H   0  0  0  0  0  0
  -26.3012  -15.6199   20.1064 H   0  0  0  0  0  0
  -26.7118  -32.5555   23.1181 H   0  0  0  0  0  0
  -25.0028  -33.9785   25.0473 H   0  0  0  0  0  0
  -22.6911  -31.3118   21.4153 H   0  0  0  0  0  0
  -23.3731  -35.9654   23.3328 H   0  0  0  0  0  0
  -24.3562  -36.8895   22.2047 H   0  0  0  0  0  0
  -23.7236  -37.6532   23.6637 H   0  0  0  0  0  0
  -26.0421  -31.6093   20.5990 H   0  0  0  0  0  0
  -26.8200  -30.8936   21.9812 H   0  0  0  0  0  0
  -28.0962  -29.1006   21.1882 H   0  0  0  0  0  0
  -26.0595  -26.0176   18.9538 H   0  0  0  0  0  0
  -23.9854  -27.3295   18.9952 H   0  0  0  0  0  0
  -23.7055  -30.6079   19.4042 H   0  0  0  0  0  0
  -22.7360  -29.2440   19.8732 H   0  0  0  0  0  0
  -25.1274  -36.1976   25.0832 H   0  0  0  0  0  0
  -20.9974  -28.3228   24.1439 H   0  0  0  0  0  0
  -20.5660  -26.2265   23.3607 H   0  0  0  0  0  0
  -21.6620  -26.7429   22.1212 H   0  0  0  0  0  0
  -19.6871  -25.6311   21.1225 H   0  0  0  0  0  0
  -19.6662  -27.3234   20.6781 H   0  0  0  0  0  0
  -17.4173  -26.6705   21.4046 H   0  0  0  0  0  0
  -18.0299  -26.0076   22.9035 H   0  0  0  0  0  0
  -19.7929  -30.7272   24.2279 H   0  0  0  0  0  0
  -17.5008  -31.6268   24.5171 H   0  0  0  0  0  0
  -15.5348  -30.2996   23.7643 H   0  0  0  0  0  0
  -15.8664  -28.0839   22.7041 H   0  0  0  0  0  0
  -24.5909  -30.7063   25.7840 H   0  0  0  0  0  0
  -24.8938  -32.2873   26.4944 H   0  0  0  0  0  0
  -25.8100  -30.8896   27.0232 H   0  0  0  0  0  0
  -26.2821  -29.6830   24.1133 H   0  0  0  0  0  0
  -27.4025  -29.7265   25.4561 H   0  0  0  0  0  0
  -27.8676  -30.4354   23.9259 H   0  0  0  0  0  0
  -27.2630  -33.3616   26.2104 H   0  0  0  0  0  0
  -28.3831  -32.6927   25.0320 H   0  0  0  0  0  0
  -28.0714  -31.8443   26.5387 H   0  0  0  0  0  0
  -28.2615  -38.0085   24.7489 H   0  0  0  0  0  0
  -28.1032  -36.2610   24.6328 H   0  0  0  0  0  0
  -27.2279  -37.1504   25.8875 H   0  0  0  0  0  0
  -20.9298  -29.8756   21.6963 H   0  0  0  0  0  0
  -26.0172  -38.2873   24.1419 H   0  0  0  0  0  0
  -29.0079  -16.3890   23.5851 H   0  0  0  0  0  0
  -30.9486  -17.0911   19.7892 H   0  0  0  0  0  0
  -28.3601  -18.2666   24.9115 H   0  0  0  0  0  0
  -26.9836  -18.6911   23.8984 H   0  0  0  0  0  0
  -28.2319  -19.8893   24.2659 H   0  0  0  0  0  0
  -30.0362  -24.7753   22.7378 H   0  0  0  0  0  0
  -30.8241  -25.5089   21.3489 H   0  0  0  0  0  0
  -31.0609  -23.7987   21.6975 H   0  0  0  0  0  0
  -30.2450  -23.1746   19.3049 H   0  0  0  0  0  0
  -30.0287  -24.8801   18.9403 H   0  0  0  0  0  0
  -28.6870  -23.7596   18.7382 H   0  0  0  0  0  0
  -27.4354  -22.9081   20.8002 H   0  0  0  0  0  0
  -28.0226  -23.2343   22.4100 H   0  0  0  0  0  0
  -27.8728  -25.6848   21.9232 H   0  0  0  0  0  0
  -27.1282  -25.0004   20.5240 H   0  0  0  0  0  0
  -26.5967  -19.6866   21.7675 H   0  0  0  0  0  0
  -26.5358  -21.4021   21.6091 H   0  0  0  0  0  0
  -29.6834  -14.6143   22.3157 H   0  0  0  0  0  0
  -30.0620  -21.7302   21.3250 H   0  0  0  0  0  0
  1 25  1  0  0  0
  1 30  2  0  0  0
  1 85  1  0  0  0
  2  3  1  0  0  0
  2 25  1  0  0  0
  2 88  1  0  0  0
  2 89  1  0  0  0
  3  4  1  0  0  0
  3 90  1  0  0  0
  3 91  1  0  0  0
  4  5  1  0  0  0
  4 92  1  0  0  0
  4 93  1  0  0  0
  5  6  1  0  0  0
  5 26  1  0  0  0
  5 94  1  0  0  0
  6 25  1  0  0  0
  6 95  1  0  0  0
  6 96  1  0  0  0
  7  8  2  0  0  0
  7 26  1  0  0  0
  7 29  1  0  0  0
  8  9  1  0  0  0
  8 22  1  0  0  0
  9 10  1  0  0  0
  9 27  2  0  0  0
 10 11  2  0  0  0
 10 15  1  0  0  0
 11 12  1  0  0  0
 11 97  1  0  0  0
 12 13  2  0  0  0
 12 98  1  0  0  0
 13 14  1  0  0  0
 13 31  1  0  0  0
 14 15  2  0  0  0
 14 99  1  0  0  0
 15100  1  0  0  0
 16 17  2  0  0  0
 16 21  1  0  0  0
 16 31  1  0  0  0
 17 18  1  0  0  0
 17101  1  0  0  0
 18 19  2  0  0  0
 18102  1  0  0  0
 19 20  1  0  0  0
 19 24  1  0  0  0
 20 21  2  0  0  0
 20103  1  0  0  0
 21 23  1  0  0  0
 22 28  1  0  0  0
 22 32  2  0  0  0
 26 27  1  0  0  0
 28104  1  0  0  0
 28105  1  0  0  0
 29106  1  0  0  0
 29107  1  0  0  0
 33 34  1  0  0  0
 33 66  1  0  0  0
 33 70  2  0  0  0
 34 36  1  0  0  0
 34 59  1  0  0  0
 34108  1  0  0  0
 35 44  2  0  0  0
 35 45  1  0  0  0
 35 68  1  0  0  0
 36 56  1  0  0  0
 36109  1  0  0  0
 37 39  1  0  0  0
 37 47  1  0  0  0
 37 66  1  0  0  0
 37110  1  0  0  0
 38 43  2  0  0  0
 38 46  1  0  0  0
 38 47  1  0  0  0
 39 64  1  0  0  0
 39 67  2  0  0  0
 40 52  1  0  0  0
 40 53  2  0  0  0
 40 58  1  0  0  0
 41111  1  0  0  0
 41112  1  0  0  0
 41113  1  0  0  0
 41 48  1  0  0  0
 42 43  1  0  0  0
 42 66  1  0  0  0
 42114  1  0  0  0
 42115  1  0  0  0
 43 44  1  0  0  0
 44116  1  0  0  0
 45 46  2  0  0  0
 45117  1  0  0  0
 46118  1  0  0  0
 47119  1  0  0  0
 47120  1  0  0  0
 48 56  1  0  0  0
 48 65  1  0  0  0
 48121  1  0  0  0
 49 50  1  0  0  0
 49 53  1  0  0  0
 49 64  1  0  0  0
 49122  1  0  0  0
 50 51  1  0  0  0
 50123  1  0  0  0
 50124  1  0  0  0
 51 52  1  0  0  0
 51125  1  0  0  0
 51126  1  0  0  0
 52127  1  0  0  0
 52128  1  0  0  0
 53 54  1  0  0  0
 54 55  2  0  0  0
 54129  1  0  0  0
 55 57  1  0  0  0
 55130  1  0  0  0
 56 69  2  0  0  0
 57 58  2  0  0  0
 57131  1  0  0  0
 58132  1  0  0  0
 59 60  1  0  0  0
 59 61  1  0  0  0
 59 62  1  0  0  0
 60133  1  0  0  0
 60134  1  0  0  0
 60135  1  0  0  0
 61136  1  0  0  0
 61137  1  0  0  0
 61138  1  0  0  0
 62139  1  0  0  0
 62140  1  0  0  0
 62141  1  0  0  0
 63 65  1  0  0  0
 63142  1  0  0  0
 63143  1  0  0  0
 63144  1  0  0  0
 64145  1  0  0  0
 65146  1  0  0  0
 68 82  1  0  0  0
 71 74  2  0  0  0
 71 75  1  0  0  0
 71147  1  0  0  0
 72 75  2  0  0  0
 72 76  1  0  0  0
 72148  1  0  0  0
 73 74  1  0  0  0
 73 76  2  0  0  0
 73 77  1  0  0  0
 74 78  1  0  0  0
 75 85  1  0  0  0
 76 87  1  0  0  0
 77 84  1  0  0  0
 77 86  2  0  0  0
 78149  1  0  0  0
 78150  1  0  0  0
 78151  1  0  0  0
 79152  1  0  0  0
 79153  1  0  0  0
 79154  1  0  0  0
 79 83  1  0  0  0
 80 83  1  0  0  0
 80155  1  0  0  0
 80156  1  0  0  0
 80157  1  0  0  0
 81 83  1  0  0  0
 81 86  1  0  0  0
 81158  1  0  0  0
 81159  1  0  0  0
 82 83  1  0  0  0
 82160  1  0  0  0
 82161  1  0  0  0
 84162  1  0  0  0
 84163  1  0  0  0
 85164  1  0  0  0
 86165  1  0  0  0
M  CHG  1  86   1
M  ISO  4   1 100  68 101  82 101  85 100
M  END
> <chiral flag>
0

> <version>
0

> <s_m_source_file>
/data/baiqing/PycharmProjects/Reinvent-master-3.2/result/LINK_invent/BTK/process_docking_weight1_custom_product_contain_oxygen_bond_distance_aromatic_linkinvent_7_9_3/rearranged_h_0046.sdf

> <i_m_source_file_index>
76

> <r_mmod_Potential_Energy-OPLS-2005>
-119.154655456543

> <r_mmod_Stretch_Energy-OPLS-2005>
38.7041358947754

> <r_mmod_Bend_Energy-OPLS-2005>
110.874572753906

> <r_mmod_Torsional_Energy-OPLS-2005>
265.903717041016

> <r_mmod_Improper_Torsional_Energy-OPLS-2005>
4.96507406234741

> <r_mmod_Van_der_Waal_Energy-OPLS-2005>
170.973754882812

> <r_mmod_Electrostatic_Energy-OPLS-2005>
-315.767883300781

> <r_mmod_Solvation_Energy-OPLS-2005>
-406.360015869141

> <b_mmod_Minimization_Converged-OPLS-2005>
0

> <r_mmod_RMS_Derivative-OPLS-2005>
2.29233074188232

$$$$
76
                    3D
 Structure written by MMmdl.
154162  0  0  1  0            999 V2000
  -30.6191  -14.6455   20.4992 C   0  0  0  0  0  0
  -30.4393  -12.3940   19.4566 C   0  0  0  0  0  0
  -29.5097  -12.5077   18.2272 C   0  0  0  0  0  0
  -28.0323  -12.3441   18.6378 C   0  0  0  0  0  0
  -27.6542  -13.2159   19.8649 C   0  0  2  0  0  0
  -28.6981  -13.0712   20.9957 C   0  0  0  0  0  0
  -25.2567  -13.8168   20.5686 C   0  0  0  0  0  0
  -24.1830  -13.0438   20.9186 C   0  0  0  0  0  0
  -24.6395  -11.6907   20.8736 C   0  0  0  0  0  0
  -23.9061  -10.4292   21.0404 C   0  0  0  0  0  0
  -24.3614   -9.4208   21.9183 C   0  0  0  0  0  0
  -23.6290   -8.2243   22.0753 C   0  0  0  0  0  0
  -22.4273   -8.0280   21.3544 C   0  0  0  0  0  0
  -21.9906   -9.0251   20.4646 C   0  0  0  0  0  0
  -22.7233  -10.2132   20.3055 C   0  0  0  0  0  0
  -21.6853   -6.0736   22.5279 C   0  0  0  0  0  0
  -21.4014   -6.5640   23.8212 C   0  0  0  0  0  0
  -21.3659   -5.6793   24.9174 C   0  0  0  0  0  0
  -21.6044   -4.3056   24.7225 C   0  0  0  0  0  0
  -21.8820   -3.8147   23.4346 C   0  0  0  0  0  0
  -21.9192   -4.6964   22.3403 C   0  0  0  0  0  0
  -22.7855  -13.5234   21.1850 C   0  0  0  0  0  0
  -22.1662   -4.2150   21.0981 F   0  0  0  0  0  0
  -21.5628   -3.4539   25.7737 F   0  0  0  0  0  0
  -30.0143  -13.4161   20.4346 N   0  0  0  0  0  0
  -26.2993  -12.9347   20.3323 N   0  0  0  0  0  0
  -25.9323  -11.6502   20.5755 N   0  0  0  0  0  0
  -22.0495  -12.8225   22.0406 N   0  0  0  0  0  0
  -25.4288  -15.1890   20.4106 N   0  0  0  0  0  0
  -31.7767  -14.8079   20.1020 O   0  0  0  0  0  0
  -21.6639   -6.8877   21.4240 O   0  0  0  0  0  0
  -22.3541  -14.5541   20.6700 O   0  0  0  0  0  0
  -24.6264  -31.8598   23.2018 C   0  0  0  0  0  0
  -25.9108  -32.4778   23.8351 C   0  0  1  0  0  0
  -27.2263  -27.3188   20.1154 C   0  0  0  0  0  0
  -25.5924  -33.8579   24.2275 N   0  0  0  0  0  0
  -23.4196  -30.4830   21.5450 C   0  0  2  0  0  0
  -24.8663  -28.9382   20.1113 C   0  0  0  0  0  0
  -22.7476  -29.4617   22.4937 C   0  0  0  0  0  0
  -18.0284  -28.1383   22.8479 C   0  0  0  0  0  0
  -24.1490  -36.7293   23.2640 C   0  0  0  0  0  0
  -25.9611  -30.7911   21.3724 C   0  0  0  0  0  0
  -26.0358  -29.4188   20.7137 C   0  0  0  0  0  0
  -27.2184  -28.6214   20.7046 C   0  0  0  0  0  0
  -26.0311  -26.8903   19.4924 C   0  0  0  0  0  0
  -24.8658  -27.6792   19.4922 C   0  0  0  0  0  0
  -23.6345  -29.8185   20.1601 C   0  0  0  0  0  0
  -25.4116  -36.3082   24.0330 C   0  0  1  0  0  0
  -20.5884  -28.3682   23.1286 C   0  0  2  0  0  0
  -20.6774  -26.9405   22.5412 C   0  0  0  0  0  0
  -19.5754  -26.6381   21.5212 C   0  0  0  0  0  0
  -18.1931  -26.7925   22.1620 C   0  0  0  0  0  0
  -19.1537  -28.8849   23.2876 C   0  0  0  0  0  0
  -18.9465  -30.1452   23.8890 C   0  0  0  0  0  0
  -17.6466  -30.6583   24.0561 C   0  0  0  0  0  0
  -25.9052  -34.9452   23.5101 C   0  0  0  0  0  0
  -16.5354  -29.9083   23.6333 C   0  0  0  0  0  0
  -16.7273  -28.6506   23.0343 C   0  0  0  0  0  0
  -26.4493  -31.6587   25.0722 C   0  0  0  0  0  0
  -25.3725  -31.3734   26.1448 C   0  0  0  0  0  0
  -27.0339  -30.3015   24.6171 C   0  0  0  0  0  0
  -27.6050  -32.4322   25.7494 C   0  0  0  0  0  0
  -27.5578  -37.1801   24.8466 C   0  0  0  0  0  0
  -21.4188  -29.3036   22.3683 N   0  0  0  0  0  0
  -26.4292  -37.3776   23.9408 N   0  0  0  0  0  0
  -24.6878  -31.0610   22.0969 N   0  0  0  0  0  0
  -23.4202  -28.8155   23.3015 O   0  0  0  0  0  0
  -28.3491  -26.4759   20.1640 O   0  0  0  0  0  0
  -26.5622  -34.8920   22.4667 O   0  0  0  0  0  0
  -23.5428  -32.1396   23.7348 O   0  0  0  0  0  0
  -28.9683  -17.9825   21.3923 C   0  0  0  0  0  0
  -30.8586  -17.8295   19.9271 C   0  0  0  0  0  0
  -29.9518  -20.0983   20.5097 C   0  0  0  0  0  0
  -28.9807  -19.4129   21.3057 C   0  0  0  0  0  0
  -29.9124  -17.1474   20.7326 C   0  0  0  0  0  0
  -30.8769  -19.2532   19.8183 C   0  0  0  0  0  0
  -30.1616  -21.6371   20.5126 C   0  0  0  0  0  0
  -27.9553  -20.1811   22.1271 C   0  0  0  0  0  0
  -29.3553  -24.0516   20.4060 C   0  0  0  0  0  0
  -28.1437  -25.0115   20.0423 C   0  0  0  0  0  0
  -29.8179  -15.6894   20.8886 N   0  0  0  0  0  0
  -29.1529  -22.5509   20.3471 N   0  0  0  0  0  0
  -31.3110  -22.0527   20.6771 O   0  0  0  0  0  0
  -31.8301  -19.8031   19.0260 F   0  0  0  0  0  0
  -31.4810  -12.5190   19.1556 H   0  0  0  0  0  0
  -30.3742  -11.3987   19.8985 H   0  0  0  0  0  0
  -29.7755  -11.7559   17.4828 H   0  0  0  0  0  0
  -29.6512  -13.4771   17.7465 H   0  0  0  0  0  0
  -27.8705  -11.2908   18.8706 H   0  0  0  0  0  0
  -27.3780  -12.5723   17.7956 H   0  0  0  0  0  0
  -27.6727  -14.2511   19.5233 H   0  0  0  0  0  0
  -28.7100  -12.0490   21.3769 H   0  0  0  0  0  0
  -28.4406  -13.7009   21.8485 H   0  0  0  0  0  0
  -25.2759   -9.5688   22.4755 H   0  0  0  0  0  0
  -24.0002   -7.4637   22.7473 H   0  0  0  0  0  0
  -21.0838   -8.8768   19.8951 H   0  0  0  0  0  0
  -22.3690  -10.9670   19.6164 H   0  0  0  0  0  0
  -21.2007   -7.6147   23.9716 H   0  0  0  0  0  0
  -21.1481   -6.0523   25.9077 H   0  0  0  0  0  0
  -22.0598   -2.7609   23.2846 H   0  0  0  0  0  0
  -22.4109  -11.9886   22.4795 H   0  0  0  0  0  0
  -21.1113  -13.1254   22.2611 H   0  0  0  0  0  0
  -24.6598  -15.8422   20.5133 H   0  0  0  0  0  0
  -26.2761  -15.6272   20.0722 H   0  0  0  0  0  0
  -26.7175  -32.5447   23.1099 H   0  0  0  0  0  0
  -25.0073  -33.9727   25.0421 H   0  0  0  0  0  0
  -22.7134  -31.3037   21.4025 H   0  0  0  0  0  0
  -23.3751  -35.9626   23.3308 H   0  0  0  0  0  0
  -24.3583  -36.8909   22.2052 H   0  0  0  0  0  0
  -23.7250  -37.6499   23.6660 H   0  0  0  0  0  0
  -26.0931  -31.5556   20.6053 H   0  0  0  0  0  0
  -26.8414  -30.8386   22.0021 H   0  0  0  0  0  0
  -28.1159  -28.9860   21.1846 H   0  0  0  0  0  0
  -25.9671  -25.9293   19.0056 H   0  0  0  0  0  0
  -23.9691  -27.3041   19.0183 H   0  0  0  0  0  0
  -23.7545  -30.5959   19.4049 H   0  0  0  0  0  0
  -22.7543  -29.2490   19.8557 H   0  0  0  0  0  0
  -25.1296  -36.1934   25.0825 H   0  0  0  0  0  0
  -20.9972  -28.3250   24.1410 H   0  0  0  0  0  0
  -20.5681  -26.2285   23.3607 H   0  0  0  0  0  0
  -21.6642  -26.7437   22.1202 H   0  0  0  0  0  0
  -19.6920  -25.6296   21.1237 H   0  0  0  0  0  0
  -19.6696  -27.3192   20.6744 H   0  0  0  0  0  0
  -17.4201  -26.6665   21.4022 H   0  0  0  0  0  0
  -18.0332  -26.0073   22.9024 H   0  0  0  0  0  0
  -19.7944  -30.7267   24.2252 H   0  0  0  0  0  0
  -17.5026  -31.6265   24.5162 H   0  0  0  0  0  0
  -15.5356  -30.2985   23.7667 H   0  0  0  0  0  0
  -15.8672  -28.0833   22.7051 H   0  0  0  0  0  0
  -24.5898  -30.7084   25.7781 H   0  0  0  0  0  0
  -24.8920  -32.2903   26.4866 H   0  0  0  0  0  0
  -25.8046  -30.8918   27.0228 H   0  0  0  0  0  0
  -26.2914  -29.6765   24.1195 H   0  0  0  0  0  0
  -27.4048  -29.7273   25.4671 H   0  0  0  0  0  0
  -27.8777  -30.4314   23.9391 H   0  0  0  0  0  0
  -27.2659  -33.3625   26.2064 H   0  0  0  0  0  0
  -28.3862  -32.6874   25.0322 H   0  0  0  0  0  0
  -28.0712  -31.8452   26.5417 H   0  0  0  0  0  0
  -28.2593  -38.0099   24.7506 H   0  0  0  0  0  0
  -28.1074  -36.2627   24.6296 H   0  0  0  0  0  0
  -27.2296  -37.1457   25.8869 H   0  0  0  0  0  0
  -20.9365  -29.8773   21.6907 H   0  0  0  0  0  0
  -26.0173  -38.2853   24.1408 H   0  0  0  0  0  0
  -28.2164  -17.5113   22.0110 H   0  0  0  0  0  0
  -31.5971  -17.2697   19.3729 H   0  0  0  0  0  0
  -27.4435  -19.5311   22.8373 H   0  0  0  0  0  0
  -27.1985  -20.6222   21.4784 H   0  0  0  0  0  0
  -28.4258  -20.9780   22.7043 H   0  0  0  0  0  0
  -29.6887  -24.2954   21.4154 H   0  0  0  0  0  0
  -30.1897  -24.3072   19.7510 H   0  0  0  0  0  0
  -27.3002  -24.7303   20.6751 H   0  0  0  0  0  0
  -27.8522  -24.7914   19.0151 H   0  0  0  0  0  0
  -28.9459  -15.3702   21.2826 H   0  0  0  0  0  0
  -28.2161  -22.2031   20.1971 H   0  0  0  0  0  0
  1 25  1  0  0  0
  1 30  2  0  0  0
  1 81  1  0  0  0
  2  3  1  0  0  0
  2 25  1  0  0  0
  2 85  1  0  0  0
  2 86  1  0  0  0
  3  4  1  0  0  0
  3 87  1  0  0  0
  3 88  1  0  0  0
  4  5  1  0  0  0
  4 89  1  0  0  0
  4 90  1  0  0  0
  5  6  1  0  0  0
  5 26  1  0  0  0
  5 91  1  0  0  0
  6 25  1  0  0  0
  6 92  1  0  0  0
  6 93  1  0  0  0
  7  8  2  0  0  0
  7 26  1  0  0  0
  7 29  1  0  0  0
  8  9  1  0  0  0
  8 22  1  0  0  0
  9 10  1  0  0  0
  9 27  2  0  0  0
 10 11  2  0  0  0
 10 15  1  0  0  0
 11 12  1  0  0  0
 11 94  1  0  0  0
 12 13  2  0  0  0
 12 95  1  0  0  0
 13 14  1  0  0  0
 13 31  1  0  0  0
 14 15  2  0  0  0
 14 96  1  0  0  0
 15 97  1  0  0  0
 16 17  2  0  0  0
 16 21  1  0  0  0
 16 31  1  0  0  0
 17 18  1  0  0  0
 17 98  1  0  0  0
 18 19  2  0  0  0
 18 99  1  0  0  0
 19 20  1  0  0  0
 19 24  1  0  0  0
 20 21  2  0  0  0
 20100  1  0  0  0
 21 23  1  0  0  0
 22 28  1  0  0  0
 22 32  2  0  0  0
 26 27  1  0  0  0
 28101  1  0  0  0
 28102  1  0  0  0
 29103  1  0  0  0
 29104  1  0  0  0
 33 34  1  0  0  0
 33 66  1  0  0  0
 33 70  2  0  0  0
 34 36  1  0  0  0
 34 59  1  0  0  0
 34105  1  0  0  0
 35 44  2  0  0  0
 35 45  1  0  0  0
 35 68  1  0  0  0
 36 56  1  0  0  0
 36106  1  0  0  0
 37 39  1  0  0  0
 37 47  1  0  0  0
 37 66  1  0  0  0
 37107  1  0  0  0
 38 43  2  0  0  0
 38 46  1  0  0  0
 38 47  1  0  0  0
 39 64  1  0  0  0
 39 67  2  0  0  0
 40 52  1  0  0  0
 40 53  2  0  0  0
 40 58  1  0  0  0
 41108  1  0  0  0
 41109  1  0  0  0
 41110  1  0  0  0
 41 48  1  0  0  0
 42 43  1  0  0  0
 42 66  1  0  0  0
 42111  1  0  0  0
 42112  1  0  0  0
 43 44  1  0  0  0
 44113  1  0  0  0
 45 46  2  0  0  0
 45114  1  0  0  0
 46115  1  0  0  0
 47116  1  0  0  0
 47117  1  0  0  0
 48 56  1  0  0  0
 48 65  1  0  0  0
 48118  1  0  0  0
 49 50  1  0  0  0
 49 53  1  0  0  0
 49 64  1  0  0  0
 49119  1  0  0  0
 50 51  1  0  0  0
 50120  1  0  0  0
 50121  1  0  0  0
 51 52  1  0  0  0
 51122  1  0  0  0
 51123  1  0  0  0
 52124  1  0  0  0
 52125  1  0  0  0
 53 54  1  0  0  0
 54 55  2  0  0  0
 54126  1  0  0  0
 55 57  1  0  0  0
 55127  1  0  0  0
 56 69  2  0  0  0
 57 58  2  0  0  0
 57128  1  0  0  0
 58129  1  0  0  0
 59 60  1  0  0  0
 59 61  1  0  0  0
 59 62  1  0  0  0
 60130  1  0  0  0
 60131  1  0  0  0
 60132  1  0  0  0
 61133  1  0  0  0
 61134  1  0  0  0
 61135  1  0  0  0
 62136  1  0  0  0
 62137  1  0  0  0
 62138  1  0  0  0
 63 65  1  0  0  0
 63139  1  0  0  0
 63140  1  0  0  0
 63141  1  0  0  0
 64142  1  0  0  0
 65143  1  0  0  0
 68 80  1  0  0  0
 71 74  2  0  0  0
 71 75  1  0  0  0
 71144  1  0  0  0
 72 75  2  0  0  0
 72 76  1  0  0  0
 72145  1  0  0  0
 73 74  1  0  0  0
 73 76  2  0  0  0
 73 77  1  0  0  0
 74 78  1  0  0  0
 75 81  1  0  0  0
 76 84  1  0  0  0
 77 82  1  0  0  0
 77 83  2  0  0  0
 78146  1  0  0  0
 78147  1  0  0  0
 78148  1  0  0  0
 79 80  1  0  0  0
 79 82  1  0  0  0
 79149  1  0  0  0
 79150  1  0  0  0
 80151  1  0  0  0
 80152  1  0  0  0
 81153  1  0  0  0
 82154  1  0  0  0
M  ISO  4   1 100  68 101  80 101  81 100
M  END
> <chiral flag>
0

> <version>
0

> <s_m_source_file>
/data/baiqing/PycharmProjects/Reinvent-master-3.2/result/LINK_invent/BTK/process_docking_weight1_custom_product_contain_oxygen_bond_distance_aromatic_linkinvent_7_9_3/rearranged_h_0046.sdf

> <i_m_source_file_index>
77

> <r_mmod_Potential_Energy-OPLS-2005>
60.3446922302246

> <r_mmod_Stretch_Energy-OPLS-2005>
83.045295715332

> <r_mmod_Bend_Energy-OPLS-2005>
140.287750244141

> <r_mmod_Torsional_Energy-OPLS-2005>
225.857406616211

> <r_mmod_Improper_Torsional_Energy-OPLS-2005>
4.35589647293091

> <r_mmod_Van_der_Waal_Energy-OPLS-2005>
148.778915405273

> <r_mmod_Electrostatic_Energy-OPLS-2005>
-351.594299316406

> <r_mmod_Solvation_Energy-OPLS-2005>
-239.243453979492

> <b_mmod_Minimization_Converged-OPLS-2005>
0

> <r_mmod_RMS_Derivative-OPLS-2005>
0.611391246318817

$$$$
77
                    3D
 Structure written by MMmdl.
154162  0  0  1  0            999 V2000
  -31.6560  -14.7860   20.2672 C   0  0  0  0  0  0
  -30.6826  -12.5540   19.6258 C   0  0  0  0  0  0
  -29.3205  -12.1395   18.4743 C   0  0  0  0  0  0
  -27.6207  -12.7825   18.3846 C   0  0  0  0  0  0
  -26.9563  -14.1771   19.5162 C   0  0  2  0  0  0
  -29.6020  -14.8496   21.3668 C   0  0  0  0  0  0
  -24.7891  -14.0169   20.5221 C   0  0  0  0  0  0
  -23.9243  -13.0883   20.9501 C   0  0  0  0  0  0
  -24.5263  -11.7980   20.8273 C   0  0  0  0  0  0
  -23.9034  -10.4661   21.0060 C   0  0  0  0  0  0
  -24.3767   -9.4664   21.8910 C   0  0  0  0  0  0
  -23.6540   -8.2584   22.0651 C   0  0  0  0  0  0
  -22.4481   -8.0388   21.3539 C   0  0  0  0  0  0
  -22.0011   -9.0212   20.4559 C   0  0  0  0  0  0
  -22.7214  -10.2132   20.2815 C   0  0  0  0  0  0
  -21.7010   -6.0790   22.5302 C   0  0  0  0  0  0
  -21.4124   -6.5680   23.8226 C   0  0  0  0  0  0
  -21.3697   -5.6821   24.9177 C   0  0  0  0  0  0
  -21.6039   -4.3076   24.7225 C   0  0  0  0  0  0
  -21.8808   -3.8166   23.4345 C   0  0  0  0  0  0
  -21.9239   -4.6995   22.3411 C   0  0  0  0  0  0
  -22.5389  -13.4620   21.2713 C   0  0  0  0  0  0
  -22.1676   -4.2170   21.0986 F   0  0  0  0  0  0
  -21.5603   -3.4556   25.7737 F   0  0  0  0  0  0
  -30.8115  -13.8582   20.7420 N   0  0  0  0  0  0
  -25.8199  -13.3451   20.0445 N   0  0  0  0  0  0
  -25.7509  -11.9744   20.3359 N   0  0  0  0  0  0
  -21.8989  -12.7217   22.1548 N   0  0  0  0  0  0
  -24.7764  -15.4009   20.4308 N   0  0  0  0  0  0
  -32.7980  -14.4831   20.1273 O   0  0  0  0  0  0
  -21.6884   -6.8944   21.4273 O   0  0  0  0  0  0
  -22.0490  -14.4727   20.7684 O   0  0  0  0  0  0
  -24.6882  -31.7962   23.1519 C   0  0  0  0  0  0
  -25.9458  -32.4441   23.8061 C   0  0  1  0  0  0
  -27.0588  -26.5991   20.2339 C   0  0  0  0  0  0
  -25.6024  -33.8277   24.1938 N   0  0  0  0  0  0
  -23.5077  -30.4107   21.5068 C   0  0  2  0  0  0
  -24.9356  -28.7512   20.0992 C   0  0  0  0  0  0
  -22.7760  -29.4315   22.4651 C   0  0  0  0  0  0
  -18.0329  -28.1425   22.8443 C   0  0  0  0  0  0
  -24.1487  -36.7143   23.2654 C   0  0  0  0  0  0
  -26.0910  -30.4909   21.4325 C   0  0  0  0  0  0
  -26.1223  -29.0534   20.7753 C   0  0  0  0  0  0
  -27.1806  -27.9988   20.8154 C   0  0  0  0  0  0
  -25.8844  -26.5441   19.4583 C   0  0  0  0  0  0
  -24.8638  -27.5322   19.4098 C   0  0  0  0  0  0
  -23.7559  -29.7307   20.1313 C   0  0  0  0  0  0
  -25.4143  -36.2892   24.0281 C   0  0  1  0  0  0
  -20.5968  -28.3786   23.1118 C   0  0  2  0  0  0
  -20.6793  -26.9439   22.5394 C   0  0  0  0  0  0
  -19.5775  -26.6363   21.5206 C   0  0  0  0  0  0
  -18.1956  -26.7947   22.1606 C   0  0  0  0  0  0
  -19.1600  -28.8927   23.2764 C   0  0  0  0  0  0
  -18.9508  -30.1505   23.8821 C   0  0  0  0  0  0
  -17.6500  -30.6606   24.0552 C   0  0  0  0  0  0
  -25.9133  -34.9278   23.4949 C   0  0  0  0  0  0
  -16.5386  -29.9093   23.6353 C   0  0  0  0  0  0
  -16.7307  -28.6517   23.0366 C   0  0  0  0  0  0
  -26.4606  -31.6516   25.0723 C   0  0  0  0  0  0
  -25.3646  -31.3873   26.1325 C   0  0  0  0  0  0
  -27.0565  -30.2845   24.6718 C   0  0  0  0  0  0
  -27.6040  -32.4400   25.7542 C   0  0  0  0  0  0
  -27.5561  -37.1737   24.8466 C   0  0  0  0  0  0
  -21.4402  -29.3039   22.3426 N   0  0  0  0  0  0
  -26.4266  -37.3662   23.9408 N   0  0  0  0  0  0
  -24.7881  -30.9358   22.0810 N   0  0  0  0  0  0
  -23.4206  -28.7884   23.2973 O   0  0  0  0  0  0
  -27.8484  -25.2660   20.3745 O   0  0  0  0  0  0
  -26.5772  -34.8862   22.4567 O   0  0  0  0  0  0
  -23.5897  -32.1085   23.6439 O   0  0  0  0  0  0
  -27.3081  -15.7149   21.5635 C   0  0  0  0  0  0
  -27.4804  -14.0828   21.8214 C   0  0  0  0  0  0
  -29.0907  -14.4842   19.2458 C   0  0  0  0  0  0
  -27.9069  -16.7862   20.5014 C   0  0  0  0  0  0
  -28.7835  -16.0420   19.4174 C   0  0  0  0  0  0
  -28.4205  -13.1370   20.7426 C   0  0  0  0  0  0
  -27.8989  -21.8442   20.6461 C   0  0  0  0  0  0
  -27.9214  -18.6589   20.8518 C   0  0  0  0  0  0
  -30.1220  -16.6831   19.0780 C   0  0  0  0  0  0
  -27.4363  -23.5661   20.0121 C   0  0  0  0  0  0
  -27.6975  -20.3370   20.2326 N   0  0  0  0  0  0
  -31.3145  -16.0220   19.7384 N   0  0  0  0  0  0
  -28.5102  -21.9331   21.7130 O   0  0  0  0  0  0
  -28.5844  -11.4354   21.1824 Cl  0  0  0  0  0  0
  -31.5495  -12.6187   18.9661 H   0  0  0  0  0  0
  -30.9449  -11.6604   20.1912 H   0  0  0  0  0  0
  -29.2213  -11.0538   18.5105 H   0  0  0  0  0  0
  -29.7314  -12.2811   17.4726 H   0  0  0  0  0  0
  -26.9430  -11.9395   18.2595 H   0  0  0  0  0  0
  -27.5516  -13.2156   17.3858 H   0  0  0  0  0  0
  -26.5874  -14.9676   18.8537 H   0  0  0  0  0  0
  -29.6508  -14.4981   22.4098 H   0  0  0  0  0  0
  -29.8711  -15.8821   21.6201 H   0  0  0  0  0  0
  -25.2861   -9.6359   22.4501 H   0  0  0  0  0  0
  -24.0331   -7.5094   22.7450 H   0  0  0  0  0  0
  -21.0929   -8.8595   19.8928 H   0  0  0  0  0  0
  -22.3453  -10.9562   19.5925 H   0  0  0  0  0  0
  -21.2160   -7.6191   23.9739 H   0  0  0  0  0  0
  -21.1514   -6.0546   25.9080 H   0  0  0  0  0  0
  -22.0535   -2.7622   23.2839 H   0  0  0  0  0  0
  -22.3367  -11.9132   22.5710 H   0  0  0  0  0  0
  -20.9540  -12.9616   22.4191 H   0  0  0  0  0  0
  -23.9838  -15.9607   20.7239 H   0  0  0  0  0  0
  -25.5884  -15.9459   20.1668 H   0  0  0  0  0  0
  -26.7539  -32.4859   23.0756 H   0  0  0  0  0  0
  -25.0081  -33.9321   25.0032 H   0  0  0  0  0  0
  -22.8352  -31.2528   21.3308 H   0  0  0  0  0  0
  -23.3779  -35.9441   23.3265 H   0  0  0  0  0  0
  -24.3544  -36.8859   22.2077 H   0  0  0  0  0  0
  -23.7206  -37.6293   23.6763 H   0  0  0  0  0  0
  -26.3176  -31.2101   20.6447 H   0  0  0  0  0  0
  -26.9371  -30.5411   22.1058 H   0  0  0  0  0  0
  -28.0635  -28.2120   21.4011 H   0  0  0  0  0  0
  -25.6804  -25.6238   18.9295 H   0  0  0  0  0  0
  -23.9720  -27.3083   18.8414 H   0  0  0  0  0  0
  -23.9552  -30.5008   19.3857 H   0  0  0  0  0  0
  -22.8502  -29.2246   19.7935 H   0  0  0  0  0  0
  -25.1347  -36.1657   25.0770 H   0  0  0  0  0  0
  -21.0054  -28.3421   24.1243 H   0  0  0  0  0  0
  -20.5650  -26.2410   23.3663 H   0  0  0  0  0  0
  -21.6652  -26.7372   22.1218 H   0  0  0  0  0  0
  -19.6933  -25.6252   21.1293 H   0  0  0  0  0  0
  -19.6727  -27.3120   20.6699 H   0  0  0  0  0  0
  -17.4221  -26.6673   21.4016 H   0  0  0  0  0  0
  -18.0354  -26.0118   22.9035 H   0  0  0  0  0  0
  -19.7986  -30.7334   24.2162 H   0  0  0  0  0  0
  -17.5057  -31.6281   24.5163 H   0  0  0  0  0  0
  -15.5386  -30.2978   23.7725 H   0  0  0  0  0  0
  -15.8703  -28.0818   22.7128 H   0  0  0  0  0  0
  -24.5843  -30.7211   25.7632 H   0  0  0  0  0  0
  -24.8821  -32.3111   26.4531 H   0  0  0  0  0  0
  -25.7793  -30.9179   27.0254 H   0  0  0  0  0  0
  -26.3301  -29.6400   24.1764 H   0  0  0  0  0  0
  -27.3997  -29.7377   25.5513 H   0  0  0  0  0  0
  -27.9280  -30.3954   24.0263 H   0  0  0  0  0  0
  -27.2572  -33.3777   26.1899 H   0  0  0  0  0  0
  -28.3962  -32.6845   25.0455 H   0  0  0  0  0  0
  -28.0590  -31.8687   26.5644 H   0  0  0  0  0  0
  -28.2547  -38.0064   24.7526 H   0  0  0  0  0  0
  -28.1091  -36.2589   24.6277 H   0  0  0  0  0  0
  -27.2281  -37.1348   25.8870 H   0  0  0  0  0  0
  -20.9690  -29.8747   21.6554 H   0  0  0  0  0  0
  -26.0093  -38.2712   24.1422 H   0  0  0  0  0  0
  -26.7401  -16.1871   22.3530 H   0  0  0  0  0  0
  -27.0150  -13.6159   22.6770 H   0  0  0  0  0  0
  -29.7487  -14.3405   18.3962 H   0  0  0  0  0  0
  -28.8994  -18.7564   21.3233 H   0  0  0  0  0  0
  -27.2383  -18.6862   21.7013 H   0  0  0  0  0  0
  -30.2595  -16.6645   17.9965 H   0  0  0  0  0  0
  -30.1124  -17.7344   19.3651 H   0  0  0  0  0  0
  -26.3480  -23.5545   20.0644 H   0  0  0  0  0  0
  -27.6429  -23.4905   18.9440 H   0  0  0  0  0  0
  -27.2146  -20.3077   19.3433 H   0  0  0  0  0  0
  -32.1585  -16.5393   19.5391 H   0  0  0  0  0  0
  1 25  1  0  0  0
  1 30  2  0  0  0
  1 82  1  0  0  0
  2  3  1  0  0  0
  2 25  1  0  0  0
  2 85  1  0  0  0
  2 86  1  0  0  0
  3  4  1  0  0  0
  3 87  1  0  0  0
  3 88  1  0  0  0
  4  5  1  0  0  0
  4 89  1  0  0  0
  4 90  1  0  0  0
  5  6  1  0  0  0
  5 26  1  0  0  0
  5 91  1  0  0  0
  6 25  1  0  0  0
  6 92  1  0  0  0
  6 93  1  0  0  0
  7  8  2  0  0  0
  7 26  1  0  0  0
  7 29  1  0  0  0
  8  9  1  0  0  0
  8 22  1  0  0  0
  9 10  1  0  0  0
  9 27  2  0  0  0
 10 11  2  0  0  0
 10 15  1  0  0  0
 11 12  1  0  0  0
 11 94  1  0  0  0
 12 13  2  0  0  0
 12 95  1  0  0  0
 13 14  1  0  0  0
 13 31  1  0  0  0
 14 15  2  0  0  0
 14 96  1  0  0  0
 15 97  1  0  0  0
 16 17  2  0  0  0
 16 21  1  0  0  0
 16 31  1  0  0  0
 17 18  1  0  0  0
 17 98  1  0  0  0
 18 19  2  0  0  0
 18 99  1  0  0  0
 19 20  1  0  0  0
 19 24  1  0  0  0
 20 21  2  0  0  0
 20100  1  0  0  0
 21 23  1  0  0  0
 22 28  1  0  0  0
 22 32  2  0  0  0
 26 27  1  0  0  0
 28101  1  0  0  0
 28102  1  0  0  0
 29103  1  0  0  0
 29104  1  0  0  0
 33 34  1  0  0  0
 33 66  1  0  0  0
 33 70  2  0  0  0
 34 36  1  0  0  0
 34 59  1  0  0  0
 34105  1  0  0  0
 35 44  2  0  0  0
 35 45  1  0  0  0
 35 68  1  0  0  0
 36 56  1  0  0  0
 36106  1  0  0  0
 37 39  1  0  0  0
 37 47  1  0  0  0
 37 66  1  0  0  0
 37107  1  0  0  0
 38 43  2  0  0  0
 38 46  1  0  0  0
 38 47  1  0  0  0
 39 64  1  0  0  0
 39 67  2  0  0  0
 40 52  1  0  0  0
 40 53  2  0  0  0
 40 58  1  0  0  0
 41108  1  0  0  0
 41109  1  0  0  0
 41110  1  0  0  0
 41 48  1  0  0  0
 42 43  1  0  0  0
 42 66  1  0  0  0
 42111  1  0  0  0
 42112  1  0  0  0
 43 44  1  0  0  0
 44113  1  0  0  0
 45 46  2  0  0  0
 45114  1  0  0  0
 46115  1  0  0  0
 47116  1  0  0  0
 47117  1  0  0  0
 48 56  1  0  0  0
 48 65  1  0  0  0
 48118  1  0  0  0
 49 50  1  0  0  0
 49 53  1  0  0  0
 49 64  1  0  0  0
 49119  1  0  0  0
 50 51  1  0  0  0
 50120  1  0  0  0
 50121  1  0  0  0
 51 52  1  0  0  0
 51122  1  0  0  0
 51123  1  0  0  0
 52124  1  0  0  0
 52125  1  0  0  0
 53 54  1  0  0  0
 54 55  2  0  0  0
 54126  1  0  0  0
 55 57  1  0  0  0
 55127  1  0  0  0
 56 69  2  0  0  0
 57 58  2  0  0  0
 57128  1  0  0  0
 58129  1  0  0  0
 59 60  1  0  0  0
 59 61  1  0  0  0
 59 62  1  0  0  0
 60130  1  0  0  0
 60131  1  0  0  0
 60132  1  0  0  0
 61133  1  0  0  0
 61134  1  0  0  0
 61135  1  0  0  0
 62136  1  0  0  0
 62137  1  0  0  0
 62138  1  0  0  0
 63 65  1  0  0  0
 63139  1  0  0  0
 63140  1  0  0  0
 63141  1  0  0  0
 64142  1  0  0  0
 65143  1  0  0  0
 68 80  1  0  0  0
 71 72  2  0  0  0
 71 74  1  0  0  0
 71144  1  0  0  0
 72 76  1  0  0  0
 72145  1  0  0  0
 73 75  1  0  0  0
 73 76  2  0  0  0
 73146  1  0  0  0
 74 75  2  0  0  0
 74 78  1  0  0  0
 75 79  1  0  0  0
 76 84  1  0  0  0
 77 80  1  0  0  0
 77 81  1  0  0  0
 77 83  2  0  0  0
 78 81  1  0  0  0
 78147  1  0  0  0
 78148  1  0  0  0
 79 82  1  0  0  0
 79149  1  0  0  0
 79150  1  0  0  0
 80151  1  0  0  0
 80152  1  0  0  0
 81153  1  0  0  0
 82154  1  0  0  0
M  ISO  4   1 100  68 101  80 101  82 100
M  END
> <chiral flag>
0

> <version>
0

> <s_m_source_file>
/data/baiqing/PycharmProjects/Reinvent-master-3.2/result/LINK_invent/BTK/process_docking_weight1_custom_product_contain_oxygen_bond_distance_aromatic_linkinvent_7_9_3/rearranged_h_0046.sdf

> <i_m_source_file_index>
78

> <r_mmod_Potential_Energy-OPLS-2005>
11921.837890625

> <r_mmod_Stretch_Energy-OPLS-2005>
6716.16845703125

> <r_mmod_Bend_Energy-OPLS-2005>
969.716430664062

> <r_mmod_Torsional_Energy-OPLS-2005>
396.706909179688

> <r_mmod_Improper_Torsional_Energy-OPLS-2005>
25.4566974639893

> <r_mmod_Van_der_Waal_Energy-OPLS-2005>
2824.86157226562

> <r_mmod_Electrostatic_Energy-OPLS-2005>
-445.973602294922

> <r_mmod_Solvation_Energy-OPLS-2005>
-264.423248291016

> <b_mmod_Minimization_Converged-OPLS-2005>
0

> <r_mmod_RMS_Derivative-OPLS-2005>
3.31154441833496

$$$$
78
                    3D
 Structure written by MMmdl.
161170  0  0  1  0            999 V2000
  -30.6084  -14.7287   20.4946 C   0  0  0  0  0  0
  -30.4418  -12.4483   19.4881 C   0  0  0  0  0  0
  -29.5228  -12.5260   18.2471 C   0  0  0  0  0  0
  -28.0476  -12.3507   18.6516 C   0  0  0  0  0  0
  -27.6546  -13.2309   19.8672 C   0  0  2  0  0  0
  -28.6942  -13.1321   21.0072 C   0  0  0  0  0  0
  -25.2572  -13.8197   20.5699 C   0  0  0  0  0  0
  -24.1847  -13.0446   20.9180 C   0  0  0  0  0  0
  -24.6426  -11.6918   20.8735 C   0  0  0  0  0  0
  -23.9097  -10.4305   21.0404 C   0  0  0  0  0  0
  -24.3636   -9.4215   21.9185 C   0  0  0  0  0  0
  -23.6298   -8.2261   22.0767 C   0  0  0  0  0  0
  -22.4281   -8.0307   21.3550 C   0  0  0  0  0  0
  -21.9915   -9.0290   20.4661 C   0  0  0  0  0  0
  -22.7255  -10.2164   20.3062 C   0  0  0  0  0  0
  -21.6867   -6.0743   22.5275 C   0  0  0  0  0  0
  -21.4016   -6.5641   23.8204 C   0  0  0  0  0  0
  -21.3654   -5.6797   24.9166 C   0  0  0  0  0  0
  -21.6043   -4.3064   24.7213 C   0  0  0  0  0  0
  -21.8821   -3.8145   23.4336 C   0  0  0  0  0  0
  -21.9191   -4.6969   22.3389 C   0  0  0  0  0  0
  -22.7863  -13.5241   21.1822 C   0  0  0  0  0  0
  -22.1661   -4.2150   21.0964 F   0  0  0  0  0  0
  -21.5625   -3.4532   25.7726 F   0  0  0  0  0  0
  -30.0038  -13.4914   20.4476 N   0  0  0  0  0  0
  -26.3013  -12.9407   20.3338 N   0  0  0  0  0  0
  -25.9372  -11.6545   20.5764 N   0  0  0  0  0  0
  -22.0500  -12.8246   22.0384 N   0  0  0  0  0  0
  -25.4294  -15.1921   20.4134 N   0  0  0  0  0  0
  -31.7539  -14.8689   20.0594 O   0  0  0  0  0  0
  -21.6655   -6.8895   21.4244 O   0  0  0  0  0  0
  -22.3551  -14.5535   20.6659 O   0  0  0  0  0  0
  -24.6321  -31.8536   23.2009 C   0  0  0  0  0  0
  -25.9150  -32.4749   23.8341 C   0  0  1  0  0  0
  -27.2021  -27.2436   20.1425 C   0  0  0  0  0  0
  -25.5941  -33.8553   24.2262 N   0  0  0  0  0  0
  -23.4306  -30.4791   21.5416 C   0  0  2  0  0  0
  -24.8801  -28.9415   20.0963 C   0  0  0  0  0  0
  -22.7509  -29.4582   22.4866 C   0  0  0  0  0  0
  -18.0293  -28.1401   22.8465 C   0  0  0  0  0  0
  -24.1493  -36.7285   23.2640 C   0  0  0  0  0  0
  -25.9788  -30.7610   21.3903 C   0  0  0  0  0  0
  -26.0491  -29.3865   20.7279 C   0  0  0  0  0  0
  -27.2129  -28.5477   20.7475 C   0  0  0  0  0  0
  -26.0314  -26.9078   19.4220 C   0  0  0  0  0  0
  -24.8806  -27.7140   19.4245 C   0  0  0  0  0  0
  -23.6506  -29.8265   20.1519 C   0  0  0  0  0  0
  -25.4120  -36.3061   24.0318 C   0  0  1  0  0  0
  -20.5899  -28.3704   23.1253 C   0  0  2  0  0  0
  -20.6784  -26.9416   22.5394 C   0  0  0  0  0  0
  -19.5767  -26.6376   21.5198 C   0  0  0  0  0  0
  -18.1944  -26.7932   22.1609 C   0  0  0  0  0  0
  -19.1546  -28.8873   23.2853 C   0  0  0  0  0  0
  -18.9465  -30.1466   23.8886 C   0  0  0  0  0  0
  -17.6468  -30.6594   24.0567 C   0  0  0  0  0  0
  -25.9054  -34.9432   23.5092 C   0  0  0  0  0  0
  -16.5363  -29.9092   23.6344 C   0  0  0  0  0  0
  -16.7273  -28.6516   23.0348 C   0  0  0  0  0  0
  -26.4511  -31.6579   25.0740 C   0  0  0  0  0  0
  -25.3727  -31.3758   26.1459 C   0  0  0  0  0  0
  -27.0367  -30.2981   24.6274 C   0  0  0  0  0  0
  -27.6060  -32.4324   25.7518 C   0  0  0  0  0  0
  -27.5573  -37.1805   24.8460 C   0  0  0  0  0  0
  -21.4205  -29.3048   22.3621 N   0  0  0  0  0  0
  -26.4293  -37.3758   23.9386 N   0  0  0  0  0  0
  -24.6987  -31.0489   22.1008 N   0  0  0  0  0  0
  -23.4187  -28.8100   23.2957 O   0  0  0  0  0  0
  -28.2358  -26.2780   20.2832 O   0  0  0  0  0  0
  -26.5621  -34.8907   22.4656 O   0  0  0  0  0  0
  -23.5462  -32.1372   23.7287 O   0  0  0  0  0  0
  -29.0087  -18.3651   18.3018 C   0  0  0  0  0  0
  -29.3358  -17.1659   18.9582 C   0  0  0  0  0  0
  -29.0555  -19.6187   18.9501 C   0  0  0  0  0  0
  -29.4281  -19.7138   20.3184 C   0  0  0  0  0  0
  -29.7014  -17.1492   20.3186 C   0  0  0  0  0  0
  -29.7269  -18.4445   20.9919 C   0  0  0  0  0  0
  -28.9916  -23.6739   20.4382 C   0  0  0  0  0  0
  -26.2271  -23.0316   21.0041 C   0  0  0  0  0  0
  -26.7225  -24.4580   21.2702 C   0  0  0  0  0  0
  -27.3305  -22.0072   21.3024 C   0  0  0  0  0  0
  -27.8530  -24.8034   20.2705 C   0  0  1  0  0  0
  -28.7202  -20.8472   18.1204 C   0  0  0  0  0  0
  -29.6225  -21.1669   20.9754 C   0  0  0  0  0  0
  -28.6628  -22.3492   20.7725 N   0  0  0  0  0  0
  -29.8824  -15.8177   20.9472 N   0  0  0  0  0  0
  -30.1623  -23.9969   20.2144 O   0  0  0  0  0  0
  -30.1450  -18.4602   22.6691 Cl  0  0  0  0  0  0
  -31.4852  -12.5722   19.1923 H   0  0  0  0  0  0
  -30.3830  -11.4622   19.9515 H   0  0  0  0  0  0
  -29.8064  -11.7643   17.5208 H   0  0  0  0  0  0
  -29.6562  -13.4894   17.7498 H   0  0  0  0  0  0
  -27.8983  -11.2970   18.8942 H   0  0  0  0  0  0
  -27.3957  -12.5622   17.8032 H   0  0  0  0  0  0
  -27.6609  -14.2614   19.5095 H   0  0  0  0  0  0
  -28.7206  -12.1205   21.4142 H   0  0  0  0  0  0
  -28.4261  -13.7870   21.8371 H   0  0  0  0  0  0
  -25.2788   -9.5691   22.4762 H   0  0  0  0  0  0
  -23.9996   -7.4650   22.7502 H   0  0  0  0  0  0
  -21.0835   -8.8830   19.8981 H   0  0  0  0  0  0
  -22.3719  -10.9709   19.6180 H   0  0  0  0  0  0
  -21.2024   -7.6149   23.9706 H   0  0  0  0  0  0
  -21.1469   -6.0528   25.9071 H   0  0  0  0  0  0
  -22.0607   -2.7602   23.2842 H   0  0  0  0  0  0
  -22.4076  -11.9887   22.4762 H   0  0  0  0  0  0
  -21.1146  -13.1348   22.2622 H   0  0  0  0  0  0
  -24.6658  -15.8501   20.5282 H   0  0  0  0  0  0
  -26.2831  -15.6303   20.0929 H   0  0  0  0  0  0
  -26.7217  -32.5388   23.1077 H   0  0  0  0  0  0
  -25.0097  -33.9686   25.0412 H   0  0  0  0  0  0
  -22.7300  -31.3038   21.4008 H   0  0  0  0  0  0
  -23.3730  -35.9644   23.3328 H   0  0  0  0  0  0
  -24.3575  -36.8877   22.2047 H   0  0  0  0  0  0
  -23.7275  -37.6507   23.6651 H   0  0  0  0  0  0
  -26.1267  -31.5243   20.6251 H   0  0  0  0  0  0
  -26.8537  -30.8036   22.0267 H   0  0  0  0  0  0
  -28.0926  -28.8661   21.2898 H   0  0  0  0  0  0
  -25.9526  -25.9784   18.8824 H   0  0  0  0  0  0
  -23.9985  -27.3840   18.8939 H   0  0  0  0  0  0
  -23.7732  -30.6110   19.4036 H   0  0  0  0  0  0
  -22.7698  -29.2608   19.8424 H   0  0  0  0  0  0
  -25.1302  -36.1921   25.0810 H   0  0  0  0  0  0
  -20.9998  -28.3302   24.1377 H   0  0  0  0  0  0
  -20.5685  -26.2311   23.3597 H   0  0  0  0  0  0
  -21.6653  -26.7430   22.1206 H   0  0  0  0  0  0
  -19.6928  -25.6282   21.1239 H   0  0  0  0  0  0
  -19.6719  -27.3174   20.6725 H   0  0  0  0  0  0
  -17.4204  -26.6661   21.4026 H   0  0  0  0  0  0
  -18.0351  -26.0088   22.9022 H   0  0  0  0  0  0
  -19.7943  -30.7276   24.2249 H   0  0  0  0  0  0
  -17.5027  -31.6278   24.5157 H   0  0  0  0  0  0
  -15.5366  -30.2996   23.7673 H   0  0  0  0  0  0
  -15.8666  -28.0831   22.7075 H   0  0  0  0  0  0
  -24.5889  -30.7125   25.7784 H   0  0  0  0  0  0
  -24.8948  -32.2952   26.4857 H   0  0  0  0  0  0
  -25.8033  -30.8941   27.0249 H   0  0  0  0  0  0
  -26.2980  -29.6719   24.1268 H   0  0  0  0  0  0
  -27.3980  -29.7262   25.4829 H   0  0  0  0  0  0
  -27.8881  -30.4223   23.9583 H   0  0  0  0  0  0
  -27.2657  -33.3613   26.2109 H   0  0  0  0  0  0
  -28.3877  -32.6904   25.0359 H   0  0  0  0  0  0
  -28.0733  -31.8447   26.5432 H   0  0  0  0  0  0
  -28.2606  -38.0085   24.7465 H   0  0  0  0  0  0
  -28.1051  -36.2611   24.6340 H   0  0  0  0  0  0
  -27.2280  -37.1520   25.8863 H   0  0  0  0  0  0
  -20.9376  -29.8798   21.6860 H   0  0  0  0  0  0
  -26.0169  -38.2830   24.1380 H   0  0  0  0  0  0
  -28.7180  -18.3148   17.2615 H   0  0  0  0  0  0
  -29.2654  -16.2433   18.4008 H   0  0  0  0  0  0
  -25.9084  -22.9348   19.9642 H   0  0  0  0  0  0
  -25.3467  -22.8140   21.6109 H   0  0  0  0  0  0
  -27.0816  -24.5485   22.2960 H   0  0  0  0  0  0
  -25.8709  -25.1300   21.1997 H   0  0  0  0  0  0
  -27.0209  -21.0282   20.9342 H   0  0  0  0  0  0
  -27.4208  -21.9058   22.3854 H   0  0  0  0  0  0
  -27.4943  -24.6083   19.2610 H   0  0  0  0  0  0
  -28.5942  -20.6014   17.0661 H   0  0  0  0  0  0
  -29.5134  -21.5914   18.1834 H   0  0  0  0  0  0
  -27.7862  -21.2967   18.4563 H   0  0  0  0  0  0
  -30.6205  -21.4865   20.6766 H   0  0  0  0  0  0
  -29.7051  -21.0379   22.0541 H   0  0  0  0  0  0
  -29.1301  -15.5630   21.5703 H   0  0  0  0  0  0
  1 25  1  0  0  0
  1 30  2  0  0  0
  1 85  1  0  0  0
  2  3  1  0  0  0
  2 25  1  0  0  0
  2 88  1  0  0  0
  2 89  1  0  0  0
  3  4  1  0  0  0
  3 90  1  0  0  0
  3 91  1  0  0  0
  4  5  1  0  0  0
  4 92  1  0  0  0
  4 93  1  0  0  0
  5  6  1  0  0  0
  5 26  1  0  0  0
  5 94  1  0  0  0
  6 25  1  0  0  0
  6 95  1  0  0  0
  6 96  1  0  0  0
  7  8  2  0  0  0
  7 26  1  0  0  0
  7 29  1  0  0  0
  8  9  1  0  0  0
  8 22  1  0  0  0
  9 10  1  0  0  0
  9 27  2  0  0  0
 10 11  2  0  0  0
 10 15  1  0  0  0
 11 12  1  0  0  0
 11 97  1  0  0  0
 12 13  2  0  0  0
 12 98  1  0  0  0
 13 14  1  0  0  0
 13 31  1  0  0  0
 14 15  2  0  0  0
 14 99  1  0  0  0
 15100  1  0  0  0
 16 17  2  0  0  0
 16 21  1  0  0  0
 16 31  1  0  0  0
 17 18  1  0  0  0
 17101  1  0  0  0
 18 19  2  0  0  0
 18102  1  0  0  0
 19 20  1  0  0  0
 19 24  1  0  0  0
 20 21  2  0  0  0
 20103  1  0  0  0
 21 23  1  0  0  0
 22 28  1  0  0  0
 22 32  2  0  0  0
 26 27  1  0  0  0
 28104  1  0  0  0
 28105  1  0  0  0
 29106  1  0  0  0
 29107  1  0  0  0
 33 34  1  0  0  0
 33 66  1  0  0  0
 33 70  2  0  0  0
 34 36  1  0  0  0
 34 59  1  0  0  0
 34108  1  0  0  0
 35 44  2  0  0  0
 35 45  1  0  0  0
 35 68  1  0  0  0
 36 56  1  0  0  0
 36109  1  0  0  0
 37 39  1  0  0  0
 37 47  1  0  0  0
 37 66  1  0  0  0
 37110  1  0  0  0
 38 43  2  0  0  0
 38 46  1  0  0  0
 38 47  1  0  0  0
 39 64  1  0  0  0
 39 67  2  0  0  0
 40 52  1  0  0  0
 40 53  2  0  0  0
 40 58  1  0  0  0
 41111  1  0  0  0
 41112  1  0  0  0
 41113  1  0  0  0
 41 48  1  0  0  0
 42 43  1  0  0  0
 42 66  1  0  0  0
 42114  1  0  0  0
 42115  1  0  0  0
 43 44  1  0  0  0
 44116  1  0  0  0
 45 46  2  0  0  0
 45117  1  0  0  0
 46118  1  0  0  0
 47119  1  0  0  0
 47120  1  0  0  0
 48 56  1  0  0  0
 48 65  1  0  0  0
 48121  1  0  0  0
 49 50  1  0  0  0
 49 53  1  0  0  0
 49 64  1  0  0  0
 49122  1  0  0  0
 50 51  1  0  0  0
 50123  1  0  0  0
 50124  1  0  0  0
 51 52  1  0  0  0
 51125  1  0  0  0
 51126  1  0  0  0
 52127  1  0  0  0
 52128  1  0  0  0
 53 54  1  0  0  0
 54 55  2  0  0  0
 54129  1  0  0  0
 55 57  1  0  0  0
 55130  1  0  0  0
 56 69  2  0  0  0
 57 58  2  0  0  0
 57131  1  0  0  0
 58132  1  0  0  0
 59 60  1  0  0  0
 59 61  1  0  0  0
 59 62  1  0  0  0
 60133  1  0  0  0
 60134  1  0  0  0
 60135  1  0  0  0
 61136  1  0  0  0
 61137  1  0  0  0
 61138  1  0  0  0
 62139  1  0  0  0
 62140  1  0  0  0
 62141  1  0  0  0
 63 65  1  0  0  0
 63142  1  0  0  0
 63143  1  0  0  0
 63144  1  0  0  0
 64145  1  0  0  0
 65146  1  0  0  0
 68 81  1  0  0  0
 71 72  2  0  0  0
 71 73  1  0  0  0
 71147  1  0  0  0
 72 75  1  0  0  0
 72148  1  0  0  0
 73 74  2  0  0  0
 73 82  1  0  0  0
 74 76  1  0  0  0
 74 83  1  0  0  0
 75 76  2  0  0  0
 75 85  1  0  0  0
 76 87  1  0  0  0
 77 81  1  0  0  0
 77 84  1  0  0  0
 77 86  2  0  0  0
 78 79  1  0  0  0
 78 80  1  0  0  0
 78149  1  0  0  0
 78150  1  0  0  0
 79 81  1  0  0  0
 79151  1  0  0  0
 79152  1  0  0  0
 80 84  1  0  0  0
 80153  1  0  0  0
 80154  1  0  0  0
 81155  1  0  0  0
 82156  1  0  0  0
 82157  1  0  0  0
 82158  1  0  0  0
 83 84  1  0  0  0
 83159  1  0  0  0
 83160  1  0  0  0
 85161  1  0  0  0
M  ISO  4   1 100  68 101  81 101  85 100
M  END
> <chiral flag>
0

> <version>
0

> <s_m_source_file>
/data/baiqing/PycharmProjects/Reinvent-master-3.2/result/LINK_invent/BTK/process_docking_weight1_custom_product_contain_oxygen_bond_distance_aromatic_linkinvent_7_9_3/rearranged_h_0046.sdf

> <i_m_source_file_index>
79

> <r_mmod_Potential_Energy-OPLS-2005>
254.194869995117

> <r_mmod_Stretch_Energy-OPLS-2005>
140.074996948242

> <r_mmod_Bend_Energy-OPLS-2005>
168.230331420898

> <r_mmod_Torsional_Energy-OPLS-2005>
271.230133056641

> <r_mmod_Improper_Torsional_Energy-OPLS-2005>
5.844801902771

> <r_mmod_Van_der_Waal_Energy-OPLS-2005>
150.192474365234

> <r_mmod_Electrostatic_Energy-OPLS-2005>
-346.175567626953

> <r_mmod_Solvation_Energy-OPLS-2005>
-232.103546142578

> <b_mmod_Minimization_Converged-OPLS-2005>
0

> <r_mmod_RMS_Derivative-OPLS-2005>
2.98550605773926

$$$$
79
                    3D
 Structure written by MMmdl.
158167  0  0  1  0            999 V2000
  -30.5590  -15.0492   20.3862 C   0  0  0  0  0  0
  -30.4278  -12.6558   19.5179 C   0  0  0  0  0  0
  -29.5225  -12.5500   18.2676 C   0  0  0  0  0  0
  -28.0606  -12.3385   18.6752 C   0  0  0  0  0  0
  -27.6224  -13.2736   19.8304 C   0  0  2  0  0  0
  -28.6631  -13.3614   20.9653 C   0  0  0  0  0  0
  -25.2392  -13.8285   20.5679 C   0  0  0  0  0  0
  -24.1728  -13.0443   20.9237 C   0  0  0  0  0  0
  -24.6432  -11.6950   20.8736 C   0  0  0  0  0  0
  -23.9160  -10.4314   21.0431 C   0  0  0  0  0  0
  -24.3686   -9.4208   21.9214 C   0  0  0  0  0  0
  -23.6326   -8.2251   22.0774 C   0  0  0  0  0  0
  -22.4321   -8.0306   21.3549 C   0  0  0  0  0  0
  -21.9998   -9.0286   20.4646 C   0  0  0  0  0  0
  -22.7335  -10.2169   20.3081 C   0  0  0  0  0  0
  -21.6875   -6.0757   22.5282 C   0  0  0  0  0  0
  -21.4014   -6.5641   23.8223 C   0  0  0  0  0  0
  -21.3668   -5.6795   24.9176 C   0  0  0  0  0  0
  -21.6061   -4.3056   24.7238 C   0  0  0  0  0  0
  -21.8798   -3.8157   23.4365 C   0  0  0  0  0  0
  -21.9199   -4.6986   22.3409 C   0  0  0  0  0  0
  -22.7751  -13.5141   21.1909 C   0  0  0  0  0  0
  -22.1644   -4.2152   21.0981 F   0  0  0  0  0  0
  -21.5640   -3.4571   25.7753 F   0  0  0  0  0  0
  -29.9294  -13.7935   20.3607 N   0  0  0  0  0  0
  -26.2854  -12.9554   20.3222 N   0  0  0  0  0  0
  -25.9370  -11.6687   20.5753 N   0  0  0  0  0  0
  -22.0427  -12.8094   22.0467 N   0  0  0  0  0  0
  -25.4049  -15.2021   20.4092 N   0  0  0  0  0  0
  -31.7796  -15.0120   20.1881 O   0  0  0  0  0  0
  -21.6632   -6.8916   21.4253 O   0  0  0  0  0  0
  -22.3396  -14.5458   20.6805 O   0  0  0  0  0  0
  -24.6477  -31.8372   23.1854 C   0  0  0  0  0  0
  -25.9219  -32.4676   23.8216 C   0  0  1  0  0  0
  -27.2026  -27.0546   20.1693 C   0  0  0  0  0  0
  -25.5992  -33.8484   24.2131 N   0  0  0  0  0  0
  -23.4532  -30.4612   21.5269 C   0  0  2  0  0  0
  -24.9042  -28.8865   20.1126 C   0  0  0  0  0  0
  -22.7558  -29.4518   22.4739 C   0  0  0  0  0  0
  -18.0316  -28.1414   22.8479 C   0  0  0  0  0  0
  -24.1490  -36.7223   23.2639 C   0  0  0  0  0  0
  -26.0190  -30.6943   21.3931 C   0  0  0  0  0  0
  -26.0876  -29.3022   20.7315 C   0  0  0  0  0  0
  -27.2324  -28.4074   20.7361 C   0  0  0  0  0  0
  -25.9746  -26.7627   19.5282 C   0  0  0  0  0  0
  -24.8664  -27.6332   19.4939 C   0  0  0  0  0  0
  -23.6876  -29.7950   20.1481 C   0  0  0  0  0  0
  -25.4139  -36.3001   24.0297 C   0  0  1  0  0  0
  -20.5939  -28.3736   23.1211 C   0  0  2  0  0  0
  -20.6784  -26.9412   22.5419 C   0  0  0  0  0  0
  -19.5787  -26.6373   21.5213 C   0  0  0  0  0  0
  -18.1968  -26.7956   22.1601 C   0  0  0  0  0  0
  -19.1581  -28.8894   23.2865 C   0  0  0  0  0  0
  -18.9508  -30.1490   23.8894 C   0  0  0  0  0  0
  -17.6510  -30.6611   24.0575 C   0  0  0  0  0  0
  -25.9114  -34.9375   23.5009 C   0  0  0  0  0  0
  -16.5383  -29.9113   23.6358 C   0  0  0  0  0  0
  -16.7302  -28.6529   23.0374 C   0  0  0  0  0  0
  -26.4515  -31.6598   25.0692 C   0  0  0  0  0  0
  -25.3665  -31.3896   26.1375 C   0  0  0  0  0  0
  -27.0373  -30.2955   24.6354 C   0  0  0  0  0  0
  -27.6072  -32.4368   25.7467 C   0  0  0  0  0  0
  -27.5576  -37.1755   24.8463 C   0  0  0  0  0  0
  -21.4255  -29.3055   22.3537 N   0  0  0  0  0  0
  -26.4281  -37.3732   23.9424 N   0  0  0  0  0  0
  -24.7275  -31.0180   22.0906 N   0  0  0  0  0  0
  -23.4189  -28.8013   23.2861 O   0  0  0  0  0  0
  -28.2470  -26.0362   20.3035 O   0  0  0  0  0  0
  -26.5694  -34.8883   22.4584 O   0  0  0  0  0  0
  -23.5577  -32.1252   23.7048 O   0  0  0  0  0  0
  -31.9011  -19.4775   18.1491 C   0  0  0  0  0  0
  -31.6928  -18.1770   17.7101 C   0  0  0  0  0  0
  -30.1416  -19.2086   19.8885 C   0  0  0  0  0  0
  -30.2523  -17.6693   19.6892 C   0  0  0  0  0  0
  -31.1346  -19.9750   19.2022 C   0  0  0  0  0  0
  -30.8741  -17.3130   18.4488 C   0  0  0  0  0  0
  -28.7250  -23.1340   20.6502 C   0  0  0  0  0  0
  -28.0689  -22.8975   17.8738 C   0  0  0  0  0  0
  -27.4249  -24.0712   18.6330 C   0  0  0  0  0  0
  -28.2753  -21.6177   18.7200 C   0  0  0  0  0  0
  -28.3443  -24.5270   19.7678 C   0  0  1  0  0  0
  -29.1860  -20.3292   20.6779 C   0  0  0  0  0  0
  -28.8086  -21.7991   20.0860 N   0  0  0  0  0  0
  -29.8737  -16.3351   20.4213 N   0  0  0  0  0  0
  -28.9536  -23.2846   21.8550 O   0  0  0  0  0  0
  -31.3473  -21.2736   19.5244 F   0  0  0  0  0  0
  -30.6789  -16.0907   17.8970 F   0  0  0  0  0  0
  -31.4618  -12.7941   19.1999 H   0  0  0  0  0  0
  -30.4053  -11.7204   20.0839 H   0  0  0  0  0  0
  -29.8458  -11.7287   17.6271 H   0  0  0  0  0  0
  -29.6040  -13.4558   17.6621 H   0  0  0  0  0  0
  -27.9405  -11.2956   18.9657 H   0  0  0  0  0  0
  -27.4211  -12.4957   17.8060 H   0  0  0  0  0  0
  -27.5652  -14.2641   19.3809 H   0  0  0  0  0  0
  -28.7748  -12.3962   21.4588 H   0  0  0  0  0  0
  -28.3327  -14.0738   21.7190 H   0  0  0  0  0  0
  -25.2876   -9.5606   22.4745 H   0  0  0  0  0  0
  -24.0033   -7.4620   22.7490 H   0  0  0  0  0  0
  -21.0944   -8.8835   19.8926 H   0  0  0  0  0  0
  -22.3874  -10.9700   19.6134 H   0  0  0  0  0  0
  -21.1983   -7.6144   23.9717 H   0  0  0  0  0  0
  -21.1496   -6.0525   25.9064 H   0  0  0  0  0  0
  -22.0586   -2.7627   23.2871 H   0  0  0  0  0  0
  -22.4175  -11.9817   22.4851 H   0  0  0  0  0  0
  -21.1020  -13.1073   22.2668 H   0  0  0  0  0  0
  -24.6378  -15.8602   20.5056 H   0  0  0  0  0  0
  -26.2378  -15.6329   20.0316 H   0  0  0  0  0  0
  -26.7258  -32.5214   23.0913 H   0  0  0  0  0  0
  -25.0131  -33.9634   25.0261 H   0  0  0  0  0  0
  -22.7622  -31.2926   21.3661 H   0  0  0  0  0  0
  -23.3797  -35.9502   23.3241 H   0  0  0  0  0  0
  -24.3540  -36.8925   22.2059 H   0  0  0  0  0  0
  -23.7199  -37.6363   23.6746 H   0  0  0  0  0  0
  -26.1897  -31.4503   20.6265 H   0  0  0  0  0  0
  -26.8831  -30.7369   22.0473 H   0  0  0  0  0  0
  -28.1291  -28.7283   21.2480 H   0  0  0  0  0  0
  -25.7704  -25.8031   19.0998 H   0  0  0  0  0  0
  -23.9481  -27.3057   19.0238 H   0  0  0  0  0  0
  -23.8421  -30.5672   19.3958 H   0  0  0  0  0  0
  -22.8037  -29.2438   19.8227 H   0  0  0  0  0  0
  -25.1310  -36.1780   25.0785 H   0  0  0  0  0  0
  -21.0087  -28.3357   24.1310 H   0  0  0  0  0  0
  -20.5661  -26.2334   23.3650 H   0  0  0  0  0  0
  -21.6646  -26.7383   22.1223 H   0  0  0  0  0  0
  -19.6943  -25.6277   21.1291 H   0  0  0  0  0  0
  -19.6771  -27.3139   20.6731 H   0  0  0  0  0  0
  -17.4226  -26.6761   21.4001 H   0  0  0  0  0  0
  -18.0349  -26.0059   22.8968 H   0  0  0  0  0  0
  -19.7991  -30.7340   24.2228 H   0  0  0  0  0  0
  -17.5058  -31.6290   24.5180 H   0  0  0  0  0  0
  -15.5398  -30.3023   23.7712 H   0  0  0  0  0  0
  -15.8693  -28.0871   22.7097 H   0  0  0  0  0  0
  -24.5865  -30.7231   25.7693 H   0  0  0  0  0  0
  -24.8863  -32.3138   26.4570 H   0  0  0  0  0  0
  -25.7864  -30.9209   27.0274 H   0  0  0  0  0  0
  -26.2994  -29.6677   24.1343 H   0  0  0  0  0  0
  -27.3916  -29.7263   25.4961 H   0  0  0  0  0  0
  -27.8925  -30.4124   23.9699 H   0  0  0  0  0  0
  -27.2715  -33.3778   26.1818 H   0  0  0  0  0  0
  -28.3982  -32.6733   25.0342 H   0  0  0  0  0  0
  -28.0590  -31.8618   26.5553 H   0  0  0  0  0  0
  -28.2566  -38.0081   24.7511 H   0  0  0  0  0  0
  -28.1115  -36.2603   24.6285 H   0  0  0  0  0  0
  -27.2306  -37.1362   25.8872 H   0  0  0  0  0  0
  -20.9463  -29.8796   21.6751 H   0  0  0  0  0  0
  -26.0129  -38.2771   24.1505 H   0  0  0  0  0  0
  -32.5824  -20.1356   17.6258 H   0  0  0  0  0  0
  -32.1861  -17.8188   16.8203 H   0  0  0  0  0  0
  -29.0255  -23.2172   17.4513 H   0  0  0  0  0  0
  -27.4411  -22.6453   17.0209 H   0  0  0  0  0  0
  -26.4497  -23.7769   19.0328 H   0  0  0  0  0  0
  -27.2743  -24.8778   17.9208 H   0  0  0  0  0  0
  -28.9162  -20.9493   18.1431 H   0  0  0  0  0  0
  -27.3243  -21.0922   18.8058 H   0  0  0  0  0  0
  -29.3008  -24.6664   19.2585 H   0  0  0  0  0  0
  -29.6481  -20.4889   21.6551 H   0  0  0  0  0  0
  -28.2358  -19.8399   20.8881 H   0  0  0  0  0  0
  -28.9425  -16.3056   20.8126 H   0  0  0  0  0  0
  1 25  1  0  0  0
  1 30  2  0  0  0
  1 84  1  0  0  0
  2  3  1  0  0  0
  2 25  1  0  0  0
  2 88  1  0  0  0
  2 89  1  0  0  0
  3  4  1  0  0  0
  3 90  1  0  0  0
  3 91  1  0  0  0
  4  5  1  0  0  0
  4 92  1  0  0  0
  4 93  1  0  0  0
  5  6  1  0  0  0
  5 26  1  0  0  0
  5 94  1  0  0  0
  6 25  1  0  0  0
  6 95  1  0  0  0
  6 96  1  0  0  0
  7  8  2  0  0  0
  7 26  1  0  0  0
  7 29  1  0  0  0
  8  9  1  0  0  0
  8 22  1  0  0  0
  9 10  1  0  0  0
  9 27  2  0  0  0
 10 11  2  0  0  0
 10 15  1  0  0  0
 11 12  1  0  0  0
 11 97  1  0  0  0
 12 13  2  0  0  0
 12 98  1  0  0  0
 13 14  1  0  0  0
 13 31  1  0  0  0
 14 15  2  0  0  0
 14 99  1  0  0  0
 15100  1  0  0  0
 16 17  2  0  0  0
 16 21  1  0  0  0
 16 31  1  0  0  0
 17 18  1  0  0  0
 17101  1  0  0  0
 18 19  2  0  0  0
 18102  1  0  0  0
 19 20  1  0  0  0
 19 24  1  0  0  0
 20 21  2  0  0  0
 20103  1  0  0  0
 21 23  1  0  0  0
 22 28  1  0  0  0
 22 32  2  0  0  0
 26 27  1  0  0  0
 28104  1  0  0  0
 28105  1  0  0  0
 29106  1  0  0  0
 29107  1  0  0  0
 33 34  1  0  0  0
 33 66  1  0  0  0
 33 70  2  0  0  0
 34 36  1  0  0  0
 34 59  1  0  0  0
 34108  1  0  0  0
 35 44  2  0  0  0
 35 45  1  0  0  0
 35 68  1  0  0  0
 36 56  1  0  0  0
 36109  1  0  0  0
 37 39  1  0  0  0
 37 47  1  0  0  0
 37 66  1  0  0  0
 37110  1  0  0  0
 38 43  2  0  0  0
 38 46  1  0  0  0
 38 47  1  0  0  0
 39 64  1  0  0  0
 39 67  2  0  0  0
 40 52  1  0  0  0
 40 53  2  0  0  0
 40 58  1  0  0  0
 41111  1  0  0  0
 41112  1  0  0  0
 41113  1  0  0  0
 41 48  1  0  0  0
 42 43  1  0  0  0
 42 66  1  0  0  0
 42114  1  0  0  0
 42115  1  0  0  0
 43 44  1  0  0  0
 44116  1  0  0  0
 45 46  2  0  0  0
 45117  1  0  0  0
 46118  1  0  0  0
 47119  1  0  0  0
 47120  1  0  0  0
 48 56  1  0  0  0
 48 65  1  0  0  0
 48121  1  0  0  0
 49 50  1  0  0  0
 49 53  1  0  0  0
 49 64  1  0  0  0
 49122  1  0  0  0
 50 51  1  0  0  0
 50123  1  0  0  0
 50124  1  0  0  0
 51 52  1  0  0  0
 51125  1  0  0  0
 51126  1  0  0  0
 52127  1  0  0  0
 52128  1  0  0  0
 53 54  1  0  0  0
 54 55  2  0  0  0
 54129  1  0  0  0
 55 57  1  0  0  0
 55130  1  0  0  0
 56 69  2  0  0  0
 57 58  2  0  0  0
 57131  1  0  0  0
 58132  1  0  0  0
 59 60  1  0  0  0
 59 61  1  0  0  0
 59 62  1  0  0  0
 60133  1  0  0  0
 60134  1  0  0  0
 60135  1  0  0  0
 61136  1  0  0  0
 61137  1  0  0  0
 61138  1  0  0  0
 62139  1  0  0  0
 62140  1  0  0  0
 62141  1  0  0  0
 63 65  1  0  0  0
 63142  1  0  0  0
 63143  1  0  0  0
 63144  1  0  0  0
 64145  1  0  0  0
 65146  1  0  0  0
 68 81  1  0  0  0
 71 72  2  0  0  0
 71 75  1  0  0  0
 71147  1  0  0  0
 72 76  1  0  0  0
 72148  1  0  0  0
 73 74  1  0  0  0
 73 75  2  0  0  0
 73 82  1  0  0  0
 74 76  2  0  0  0
 74 84  1  0  0  0
 75 86  1  0  0  0
 76 87  1  0  0  0
 77 81  1  0  0  0
 77 83  1  0  0  0
 77 85  2  0  0  0
 78 79  1  0  0  0
 78 80  1  0  0  0
 78149  1  0  0  0
 78150  1  0  0  0
 79 81  1  0  0  0
 79151  1  0  0  0
 79152  1  0  0  0
 80 83  1  0  0  0
 80153  1  0  0  0
 80154  1  0  0  0
 81155  1  0  0  0
 82 83  1  0  0  0
 82156  1  0  0  0
 82157  1  0  0  0
 84158  1  0  0  0
M  ISO  4   1 100  68 101  81 101  84 100
M  END
> <chiral flag>
0

> <version>
0

> <s_m_source_file>
/data/baiqing/PycharmProjects/Reinvent-master-3.2/result/LINK_invent/BTK/process_docking_weight1_custom_product_contain_oxygen_bond_distance_aromatic_linkinvent_7_9_3/rearranged_h_0046.sdf

> <i_m_source_file_index>
80

> <r_mmod_Potential_Energy-OPLS-2005>
962.569152832031

> <r_mmod_Stretch_Energy-OPLS-2005>
401.639770507812

> <r_mmod_Bend_Energy-OPLS-2005>
413.081329345703

> <r_mmod_Torsional_Energy-OPLS-2005>
309.221801757812

> <r_mmod_Improper_Torsional_Energy-OPLS-2005>
5.67377614974976

> <r_mmod_Van_der_Waal_Energy-OPLS-2005>
166.45344543457

> <r_mmod_Electrostatic_Energy-OPLS-2005>
-362.483276367188

> <r_mmod_Solvation_Energy-OPLS-2005>
-239.449081420898

> <b_mmod_Minimization_Converged-OPLS-2005>
0

> <r_mmod_RMS_Derivative-OPLS-2005>
6.91605472564697

$$$$
80
                    3D
 Structure written by MMmdl.
162171  0  0  1  0            999 V2000
  -30.5416  -14.7862   20.4632 C   0  0  0  0  0  0
  -30.4271  -12.4850   19.4788 C   0  0  0  0  0  0
  -29.5111  -12.5287   18.2330 C   0  0  0  0  0  0
  -28.0361  -12.3414   18.6384 C   0  0  0  0  0  0
  -27.6333  -13.2264   19.8511 C   0  0  2  0  0  0
  -28.6682  -13.1573   20.9921 C   0  0  0  0  0  0
  -25.2436  -13.8061   20.5643 C   0  0  0  0  0  0
  -24.1755  -13.0306   20.9193 C   0  0  0  0  0  0
  -24.6374  -11.6815   20.8708 C   0  0  0  0  0  0
  -23.9067  -10.4205   21.0398 C   0  0  0  0  0  0
  -24.3637   -9.4147   21.9179 C   0  0  0  0  0  0
  -23.6289   -8.2197   22.0737 C   0  0  0  0  0  0
  -22.4272   -8.0258   21.3524 C   0  0  0  0  0  0
  -21.9929   -9.0220   20.4618 C   0  0  0  0  0  0
  -22.7259  -10.2086   20.3034 C   0  0  0  0  0  0
  -21.6851   -6.0728   22.5264 C   0  0  0  0  0  0
  -21.4009   -6.5632   23.8201 C   0  0  0  0  0  0
  -21.3659   -5.6792   24.9156 C   0  0  0  0  0  0
  -21.6064   -4.3052   24.7217 C   0  0  0  0  0  0
  -21.8820   -3.8138   23.4329 C   0  0  0  0  0  0
  -21.9182   -4.6947   22.3386 C   0  0  0  0  0  0
  -22.7794  -13.5142   21.1855 C   0  0  0  0  0  0
  -22.1654   -4.2148   21.0953 F   0  0  0  0  0  0
  -21.5641   -3.4532   25.7722 F   0  0  0  0  0  0
  -29.9651  -13.5365   20.4197 N   0  0  0  0  0  0
  -26.2868  -12.9289   20.3232 N   0  0  0  0  0  0
  -25.9300  -11.6431   20.5682 N   0  0  0  0  0  0
  -22.0489  -12.8097   22.0437 N   0  0  0  0  0  0
  -25.3968  -15.1737   20.4002 N   0  0  0  0  0  0
  -31.7348  -14.8907   20.1519 O   0  0  0  0  0  0
  -21.6616   -6.8868   21.4241 O   0  0  0  0  0  0
  -22.3468  -14.5454   20.6733 O   0  0  0  0  0  0
  -24.6312  -31.8514   23.1906 C   0  0  0  0  0  0
  -25.9107  -32.4751   23.8272 C   0  0  1  0  0  0
  -27.2000  -27.2420   20.1406 C   0  0  0  0  0  0
  -25.5885  -33.8548   24.2215 N   0  0  0  0  0  0
  -23.4300  -30.4744   21.5342 C   0  0  2  0  0  0
  -24.8697  -28.9031   20.1165 C   0  0  0  0  0  0
  -22.7473  -29.4640   22.4883 C   0  0  0  0  0  0
  -18.0290  -28.1410   22.8499 C   0  0  0  0  0  0
  -24.1455  -36.7237   23.2662 C   0  0  0  0  0  0
  -25.9792  -30.7576   21.3700 C   0  0  0  0  0  0
  -26.0439  -29.3760   20.7190 C   0  0  0  0  0  0
  -27.2181  -28.5575   20.7125 C   0  0  0  0  0  0
  -26.0116  -26.8305   19.5085 C   0  0  0  0  0  0
  -24.8576  -27.6396   19.5022 C   0  0  0  0  0  0
  -23.6430  -29.7924   20.1569 C   0  0  0  0  0  0
  -25.4106  -36.3078   24.0354 C   0  0  1  0  0  0
  -20.5909  -28.3730   23.1232 C   0  0  2  0  0  0
  -20.6810  -26.9435   22.5418 C   0  0  0  0  0  0
  -19.5777  -26.6391   21.5238 C   0  0  0  0  0  0
  -18.1946  -26.7962   22.1625 C   0  0  0  0  0  0
  -19.1559  -28.8885   23.2866 C   0  0  0  0  0  0
  -18.9505  -30.1499   23.8876 C   0  0  0  0  0  0
  -17.6516  -30.6624   24.0577 C   0  0  0  0  0  0
  -25.9047  -34.9450   23.5099 C   0  0  0  0  0  0
  -16.5385  -29.9128   23.6378 C   0  0  0  0  0  0
  -16.7291  -28.6532   23.0406 C   0  0  0  0  0  0
  -26.4465  -31.6610   25.0680 C   0  0  0  0  0  0
  -25.3679  -31.3780   26.1403 C   0  0  0  0  0  0
  -27.0357  -30.3057   24.6180 C   0  0  0  0  0  0
  -27.5995  -32.4391   25.7444 C   0  0  0  0  0  0
  -27.5572  -37.1769   24.8498 C   0  0  0  0  0  0
  -21.4188  -29.3055   22.3586 N   0  0  0  0  0  0
  -26.4277  -37.3792   23.9442 N   0  0  0  0  0  0
  -24.7008  -31.0469   22.0876 N   0  0  0  0  0  0
  -23.4155  -28.8178   23.3007 O   0  0  0  0  0  0
  -28.2967  -26.3590   20.1389 O   0  0  0  0  0  0
  -26.5655  -34.8946   22.4693 O   0  0  0  0  0  0
  -23.5444  -32.1334   23.7183 O   0  0  0  0  0  0
  -31.4261  -19.2627   19.9882 C   0  0  0  0  0  0
  -30.3880  -20.2117   20.0483 C   0  0  0  0  0  0
  -31.1893  -17.8889   20.1923 C   0  0  0  0  0  0
  -28.8361  -18.3917   20.5791 C   0  0  0  0  0  0
  -29.0713  -19.8258   20.3495 C   0  0  0  0  0  0
  -29.8976  -17.3770   20.4838 C   0  0  0  0  0  0
  -28.2416  -23.6374   20.0626 C   0  0  0  0  0  0
  -26.3625  -18.2186   20.2438 C   0  0  0  0  0  0
  -27.4759  -17.9480   20.9482 C   0  0  0  0  0  0
  -27.3535  -23.6152   22.8419 C   0  0  0  0  0  0
  -27.2901  -24.9553   22.0630 C   0  0  0  0  0  0
  -28.3459  -22.5742   22.2559 C   0  0  0  0  0  0
  -28.2677  -25.0321   20.8662 C   0  0  1  0  0  0
  -27.9736  -20.9918   20.3485 C   0  0  0  0  0  0
  -28.2553  -22.4419   20.7914 N   0  0  0  0  0  0
  -29.7081  -15.8943   20.6615 N   0  0  0  0  0  0
  -28.2008  -23.6524   18.8275 O   0  0  0  0  0  0
  -31.4728  -12.6086   19.1903 H   0  0  0  0  0  0
  -30.3547  -11.5067   19.9585 H   0  0  0  0  0  0
  -29.8063  -11.7547   17.5221 H   0  0  0  0  0  0
  -29.6290  -13.4797   17.7091 H   0  0  0  0  0  0
  -27.8929  -11.2858   18.8715 H   0  0  0  0  0  0
  -27.3802  -12.5428   17.7906 H   0  0  0  0  0  0
  -27.6204  -14.2522   19.4872 H   0  0  0  0  0  0
  -28.7115  -12.1529   21.4097 H   0  0  0  0  0  0
  -28.3816  -13.8151   21.8144 H   0  0  0  0  0  0
  -25.2828   -9.5591   22.4693 H   0  0  0  0  0  0
  -24.0004   -7.4584   22.7436 H   0  0  0  0  0  0
  -21.0873   -8.8751   19.8897 H   0  0  0  0  0  0
  -22.3786  -10.9618   19.6096 H   0  0  0  0  0  0
  -21.2013   -7.6145   23.9703 H   0  0  0  0  0  0
  -21.1488   -6.0512   25.9066 H   0  0  0  0  0  0
  -22.0604   -2.7599   23.2815 H   0  0  0  0  0  0
  -22.4215  -11.9794   22.4792 H   0  0  0  0  0  0
  -21.1086  -13.1006   22.2645 H   0  0  0  0  0  0
  -24.5992  -15.7938   20.4821 H   0  0  0  0  0  0
  -26.2198  -15.6415   20.0425 H   0  0  0  0  0  0
  -26.7164  -32.5362   23.0979 H   0  0  0  0  0  0
  -24.9999  -33.9675   25.0349 H   0  0  0  0  0  0
  -22.7334  -31.3006   21.3758 H   0  0  0  0  0  0
  -23.3772  -35.9514   23.3347 H   0  0  0  0  0  0
  -24.3541  -36.8828   22.2074 H   0  0  0  0  0  0
  -23.7143  -37.6418   23.6657 H   0  0  0  0  0  0
  -26.1239  -31.5049   20.5880 H   0  0  0  0  0  0
  -26.8593  -30.8049   22.0024 H   0  0  0  0  0  0
  -28.1301  -28.9071   21.1765 H   0  0  0  0  0  0
  -25.9681  -25.8579   19.0358 H   0  0  0  0  0  0
  -23.9534  -27.2694   19.0370 H   0  0  0  0  0  0
  -23.7579  -30.5526   19.3838 H   0  0  0  0  0  0
  -22.7629  -29.2140   19.8670 H   0  0  0  0  0  0
  -25.1289  -36.1928   25.0855 H   0  0  0  0  0  0
  -21.0053  -28.3351   24.1322 H   0  0  0  0  0  0
  -20.5762  -26.2324   23.3632 H   0  0  0  0  0  0
  -21.6672  -26.7481   22.1171 H   0  0  0  0  0  0
  -19.6954  -25.6301   21.1263 H   0  0  0  0  0  0
  -19.6742  -27.3208   20.6781 H   0  0  0  0  0  0
  -17.4232  -26.6741   21.4002 H   0  0  0  0  0  0
  -18.0302  -26.0112   22.9017 H   0  0  0  0  0  0
  -19.7997  -30.7333   24.2188 H   0  0  0  0  0  0
  -17.5086  -31.6297   24.5186 H   0  0  0  0  0  0
  -15.5400  -30.3044   23.7748 H   0  0  0  0  0  0
  -15.8664  -28.0859   22.7173 H   0  0  0  0  0  0
  -24.5841  -30.7142   25.7737 H   0  0  0  0  0  0
  -24.8866  -32.2944   26.4809 H   0  0  0  0  0  0
  -25.7963  -30.8967   27.0197 H   0  0  0  0  0  0
  -26.2945  -29.6756   24.1245 H   0  0  0  0  0  0
  -27.4135  -29.7374   25.4687 H   0  0  0  0  0  0
  -27.8748  -30.4412   23.9365 H   0  0  0  0  0  0
  -27.2591  -33.3736   26.1922 H   0  0  0  0  0  0
  -28.3805  -32.6908   25.0258 H   0  0  0  0  0  0
  -28.0637  -31.8592   26.5427 H   0  0  0  0  0  0
  -28.2629  -38.0037   24.7567 H   0  0  0  0  0  0
  -28.1022  -36.2572   24.6295 H   0  0  0  0  0  0
  -27.2278  -37.1394   25.8901 H   0  0  0  0  0  0
  -20.9381  -29.8640   21.6675 H   0  0  0  0  0  0
  -26.0159  -38.2854   24.1500 H   0  0  0  0  0  0
  -32.4326  -19.5916   19.7558 H   0  0  0  0  0  0
  -30.5968  -21.2530   19.8390 H   0  0  0  0  0  0
  -32.0519  -17.2468   20.1022 H   0  0  0  0  0  0
  -25.3817  -17.9145   20.5894 H   0  0  0  0  0  0
  -26.4127  -18.7499   19.3038 H   0  0  0  0  0  0
  -27.3903  -17.4048   21.8804 H   0  0  0  0  0  0
  -26.3549  -23.1762   22.8954 H   0  0  0  0  0  0
  -27.6192  -23.8147   23.8808 H   0  0  0  0  0  0
  -27.5075  -25.7776   22.7435 H   0  0  0  0  0  0
  -26.2669  -25.1060   21.7212 H   0  0  0  0  0  0
  -28.2032  -21.6122   22.7529 H   0  0  0  0  0  0
  -29.3645  -22.8670   22.5041 H   0  0  0  0  0  0
  -29.2643  -25.0193   21.3100 H   0  0  0  0  0  0
  -27.1667  -20.6440   20.9976 H   0  0  0  0  0  0
  -27.5163  -21.0005   19.3583 H   0  0  0  0  0  0
  -28.7604  -15.6143   20.8716 H   0  0  0  0  0  0
  1 25  1  0  0  0
  1 30  2  0  0  0
  1 86  1  0  0  0
  2  3  1  0  0  0
  2 25  1  0  0  0
  2 88  1  0  0  0
  2 89  1  0  0  0
  3  4  1  0  0  0
  3 90  1  0  0  0
  3 91  1  0  0  0
  4  5  1  0  0  0
  4 92  1  0  0  0
  4 93  1  0  0  0
  5  6  1  0  0  0
  5 26  1  0  0  0
  5 94  1  0  0  0
  6 25  1  0  0  0
  6 95  1  0  0  0
  6 96  1  0  0  0
  7  8  2  0  0  0
  7 26  1  0  0  0
  7 29  1  0  0  0
  8  9  1  0  0  0
  8 22  1  0  0  0
  9 10  1  0  0  0
  9 27  2  0  0  0
 10 11  2  0  0  0
 10 15  1  0  0  0
 11 12  1  0  0  0
 11 97  1  0  0  0
 12 13  2  0  0  0
 12 98  1  0  0  0
 13 14  1  0  0  0
 13 31  1  0  0  0
 14 15  2  0  0  0
 14 99  1  0  0  0
 15100  1  0  0  0
 16 17  2  0  0  0
 16 21  1  0  0  0
 16 31  1  0  0  0
 17 18  1  0  0  0
 17101  1  0  0  0
 18 19  2  0  0  0
 18102  1  0  0  0
 19 20  1  0  0  0
 19 24  1  0  0  0
 20 21  2  0  0  0
 20103  1  0  0  0
 21 23  1  0  0  0
 22 28  1  0  0  0
 22 32  2  0  0  0
 26 27  1  0  0  0
 28104  1  0  0  0
 28105  1  0  0  0
 29106  1  0  0  0
 29107  1  0  0  0
 33 34  1  0  0  0
 33 66  1  0  0  0
 33 70  2  0  0  0
 34 36  1  0  0  0
 34 59  1  0  0  0
 34108  1  0  0  0
 35 44  2  0  0  0
 35 45  1  0  0  0
 35 68  1  0  0  0
 36 56  1  0  0  0
 36109  1  0  0  0
 37 39  1  0  0  0
 37 47  1  0  0  0
 37 66  1  0  0  0
 37110  1  0  0  0
 38 43  2  0  0  0
 38 46  1  0  0  0
 38 47  1  0  0  0
 39 64  1  0  0  0
 39 67  2  0  0  0
 40 52  1  0  0  0
 40 53  2  0  0  0
 40 58  1  0  0  0
 41111  1  0  0  0
 41112  1  0  0  0
 41113  1  0  0  0
 41 48  1  0  0  0
 42 43  1  0  0  0
 42 66  1  0  0  0
 42114  1  0  0  0
 42115  1  0  0  0
 43 44  1  0  0  0
 44116  1  0  0  0
 45 46  2  0  0  0
 45117  1  0  0  0
 46118  1  0  0  0
 47119  1  0  0  0
 47120  1  0  0  0
 48 56  1  0  0  0
 48 65  1  0  0  0
 48121  1  0  0  0
 49 50  1  0  0  0
 49 53  1  0  0  0
 49 64  1  0  0  0
 49122  1  0  0  0
 50 51  1  0  0  0
 50123  1  0  0  0
 50124  1  0  0  0
 51 52  1  0  0  0
 51125  1  0  0  0
 51126  1  0  0  0
 52127  1  0  0  0
 52128  1  0  0  0
 53 54  1  0  0  0
 54 55  2  0  0  0
 54129  1  0  0  0
 55 57  1  0  0  0
 55130  1  0  0  0
 56 69  2  0  0  0
 57 58  2  0  0  0
 57131  1  0  0  0
 58132  1  0  0  0
 59 60  1  0  0  0
 59 61  1  0  0  0
 59 62  1  0  0  0
 60133  1  0  0  0
 60134  1  0  0  0
 60135  1  0  0  0
 61136  1  0  0  0
 61137  1  0  0  0
 61138  1  0  0  0
 62139  1  0  0  0
 62140  1  0  0  0
 62141  1  0  0  0
 63 65  1  0  0  0
 63142  1  0  0  0
 63143  1  0  0  0
 63144  1  0  0  0
 64145  1  0  0  0
 65146  1  0  0  0
 68 83  1  0  0  0
 71 72  2  0  0  0
 71 73  1  0  0  0
 71147  1  0  0  0
 72 75  1  0  0  0
 72148  1  0  0  0
 73 76  2  0  0  0
 73149  1  0  0  0
 74 75  2  0  0  0
 74 76  1  0  0  0
 74 79  1  0  0  0
 75 84  1  0  0  0
 76 86  1  0  0  0
 77 83  1  0  0  0
 77 85  1  0  0  0
 77 87  2  0  0  0
 78 79  2  0  0  0
 78150  1  0  0  0
 78151  1  0  0  0
 79152  1  0  0  0
 80 81  1  0  0  0
 80 82  1  0  0  0
 80153  1  0  0  0
 80154  1  0  0  0
 81 83  1  0  0  0
 81155  1  0  0  0
 81156  1  0  0  0
 82 85  1  0  0  0
 82157  1  0  0  0
 82158  1  0  0  0
 83159  1  0  0  0
 84 85  1  0  0  0
 84160  1  0  0  0
 84161  1  0  0  0
 86162  1  0  0  0
M  ISO  4   1 100  68 101  83 101  86 100
M  END
> <chiral flag>
0

> <version>
0

> <s_m_source_file>
/data/baiqing/PycharmProjects/Reinvent-master-3.2/result/LINK_invent/BTK/process_docking_weight1_custom_product_contain_oxygen_bond_distance_aromatic_linkinvent_7_9_3/rearranged_h_0046.sdf

> <i_m_source_file_index>
81

> <r_mmod_Potential_Energy-OPLS-2005>
296.969848632812

> <r_mmod_Stretch_Energy-OPLS-2005>
146.669570922852

> <r_mmod_Bend_Energy-OPLS-2005>
186.361419677734

> <r_mmod_Torsional_Energy-OPLS-2005>
287.547515869141

> <r_mmod_Improper_Torsional_Energy-OPLS-2005>
5.57507228851318

> <r_mmod_Van_der_Waal_Energy-OPLS-2005>
143.425643920898

> <r_mmod_Electrostatic_Energy-OPLS-2005>
-351.8896484375

> <r_mmod_Solvation_Energy-OPLS-2005>
-220.344039916992

> <b_mmod_Minimization_Converged-OPLS-2005>
0

> <r_mmod_RMS_Derivative-OPLS-2005>
5.9751124382019

$$$$
81
                    3D
 Structure written by MMmdl.
161170  0  0  1  0            999 V2000
  -30.7081  -14.6311   20.5070 C   0  0  0  0  0  0
  -30.4088  -12.3937   19.4791 C   0  0  0  0  0  0
  -29.4985  -12.5201   18.2404 C   0  0  0  0  0  0
  -28.0263  -12.3577   18.6526 C   0  0  0  0  0  0
  -27.6424  -13.2465   19.8659 C   0  0  2  0  0  0
  -28.6854  -13.1661   21.0045 C   0  0  0  0  0  0
  -25.2439  -13.8227   20.5696 C   0  0  0  0  0  0
  -24.1756  -13.0457   20.9194 C   0  0  0  0  0  0
  -24.6392  -11.6940   20.8747 C   0  0  0  0  0  0
  -23.9082  -10.4321   21.0408 C   0  0  0  0  0  0
  -24.3634   -9.4229   21.9179 C   0  0  0  0  0  0
  -23.6308   -8.2266   22.0773 C   0  0  0  0  0  0
  -22.4295   -8.0307   21.3554 C   0  0  0  0  0  0
  -21.9926   -9.0277   20.4655 C   0  0  0  0  0  0
  -22.7261  -10.2157   20.3062 C   0  0  0  0  0  0
  -21.6867   -6.0732   22.5272 C   0  0  0  0  0  0
  -21.4026   -6.5646   23.8201 C   0  0  0  0  0  0
  -21.3650   -5.6809   24.9173 C   0  0  0  0  0  0
  -21.6044   -4.3065   24.7225 C   0  0  0  0  0  0
  -21.8828   -3.8144   23.4345 C   0  0  0  0  0  0
  -21.9198   -4.6955   22.3393 C   0  0  0  0  0  0
  -22.7754  -13.5189   21.1831 C   0  0  0  0  0  0
  -22.1653   -4.2138   21.0965 F   0  0  0  0  0  0
  -21.5619   -3.4542   25.7720 F   0  0  0  0  0  0
  -30.0033  -13.4570   20.4295 N   0  0  0  0  0  0
  -26.2928  -12.9490   20.3387 N   0  0  0  0  0  0
  -25.9339  -11.6615   20.5820 N   0  0  0  0  0  0
  -22.0418  -12.8191   22.0418 N   0  0  0  0  0  0
  -25.4006  -15.1951   20.3973 N   0  0  0  0  0  0
  -31.8823  -14.6692   20.1380 O   0  0  0  0  0  0
  -21.6669   -6.8890   21.4244 O   0  0  0  0  0  0
  -22.3400  -14.5476   20.6668 O   0  0  0  0  0  0
  -24.6277  -31.8586   23.1999 C   0  0  0  0  0  0
  -25.9114  -32.4763   23.8350 C   0  0  1  0  0  0
  -27.2258  -27.3202   20.1192 C   0  0  0  0  0  0
  -25.5918  -33.8564   24.2286 N   0  0  0  0  0  0
  -23.4237  -30.4809   21.5418 C   0  0  2  0  0  0
  -24.8718  -28.9382   20.1073 C   0  0  0  0  0  0
  -22.7508  -29.4595   22.4921 C   0  0  0  0  0  0
  -18.0304  -28.1346   22.8470 C   0  0  0  0  0  0
  -24.1502  -36.7317   23.2641 C   0  0  0  0  0  0
  -25.9661  -30.7883   21.3725 C   0  0  0  0  0  0
  -26.0395  -29.4158   20.7158 C   0  0  0  0  0  0
  -27.2217  -28.6195   20.7100 C   0  0  0  0  0  0
  -26.0399  -26.8999   19.4746 C   0  0  0  0  0  0
  -24.8757  -27.6881   19.4716 C   0  0  0  0  0  0
  -23.6398  -29.8180   20.1554 C   0  0  0  0  0  0
  -25.4117  -36.3093   24.0348 C   0  0  1  0  0  0
  -20.5909  -28.3658   23.1278 C   0  0  2  0  0  0
  -20.6786  -26.9380   22.5401 C   0  0  0  0  0  0
  -19.5766  -26.6360   21.5196 C   0  0  0  0  0  0
  -18.1947  -26.7893   22.1600 C   0  0  0  0  0  0
  -19.1554  -28.8820   23.2866 C   0  0  0  0  0  0
  -18.9457  -30.1423   23.8881 C   0  0  0  0  0  0
  -17.6450  -30.6545   24.0544 C   0  0  0  0  0  0
  -25.9042  -34.9449   23.5123 C   0  0  0  0  0  0
  -16.5348  -29.9036   23.6311 C   0  0  0  0  0  0
  -16.7288  -28.6460   23.0325 C   0  0  0  0  0  0
  -26.4489  -31.6540   25.0704 C   0  0  0  0  0  0
  -25.3727  -31.3622   26.1426 C   0  0  0  0  0  0
  -27.0320  -30.2971   24.6124 C   0  0  0  0  0  0
  -27.6067  -32.4243   25.7467 C   0  0  0  0  0  0
  -27.5612  -37.1811   24.8460 C   0  0  0  0  0  0
  -21.4215  -29.3022   22.3688 N   0  0  0  0  0  0
  -26.4305  -37.3784   23.9417 N   0  0  0  0  0  0
  -24.6911  -31.0615   22.0938 N   0  0  0  0  0  0
  -23.4241  -28.8140   23.2995 O   0  0  0  0  0  0
  -28.3363  -26.4659   20.1589 O   0  0  0  0  0  0
  -26.5618  -34.8926   22.4694 O   0  0  0  0  0  0
  -23.5427  -32.1381   23.7307 O   0  0  0  0  0  0
  -28.8290  -18.9232   20.9886 C   0  0  0  0  0  0
  -30.6289  -21.0358   20.5846 C   0  0  0  0  0  0
  -30.1703  -18.5853   20.6680 C   0  0  0  0  0  0
  -29.3190  -21.3855   20.9868 C   0  0  0  0  0  0
  -28.4074  -20.2871   21.1402 C   0  0  0  0  0  0
  -31.0481  -19.6878   20.4430 C   0  0  0  0  0  0
  -29.0502  -22.9575   22.7671 C   0  0  0  0  0  0
  -29.6012  -24.2660   23.3809 C   0  0  0  0  0  0
  -30.3646  -25.2294   22.4388 C   0  0  0  0  0  0
  -30.5658  -24.6884   21.0180 C   0  0  0  0  0  0
  -29.2778  -23.9937   20.5434 C   0  0  2  0  0  0
  -30.7640  -17.1297   20.5380 C   0  0  0  0  0  0
  -28.0746  -25.0491   20.5117 C   0  0  0  0  0  0
  -29.0400  -22.7706   21.4136 N   0  0  0  0  0  0
  -30.0647  -15.8145   20.7851 N   0  0  0  0  0  0
  -28.6537  -22.0991   23.5629 O   0  0  0  0  0  0
  -26.7470  -20.5809   21.5325 Cl  0  0  0  0  0  0
  -32.7067  -19.4229   20.0255 Cl  0  0  0  0  0  0
  -31.4566  -12.4675   19.1781 H   0  0  0  0  0  0
  -30.2979  -11.4097   19.9369 H   0  0  0  0  0  0
  -29.7630  -11.7732   17.4901 H   0  0  0  0  0  0
  -29.6391  -13.4960   17.7731 H   0  0  0  0  0  0
  -27.8693  -11.3073   18.8982 H   0  0  0  0  0  0
  -27.3691  -12.5736   17.8111 H   0  0  0  0  0  0
  -27.6435  -14.2748   19.5030 H   0  0  0  0  0  0
  -28.6800  -12.1819   21.4711 H   0  0  0  0  0  0
  -28.4397  -13.8761   21.7944 H   0  0  0  0  0  0
  -25.2785   -9.5687   22.4744 H   0  0  0  0  0  0
  -23.9997   -7.4661   22.7529 H   0  0  0  0  0  0
  -21.0855   -8.8834   19.8952 H   0  0  0  0  0  0
  -22.3744  -10.9709   19.6179 H   0  0  0  0  0  0
  -21.2046   -7.6161   23.9696 H   0  0  0  0  0  0
  -21.1438   -6.0539   25.9068 H   0  0  0  0  0  0
  -22.0601   -2.7593   23.2856 H   0  0  0  0  0  0
  -22.4108  -11.9904   22.4833 H   0  0  0  0  0  0
  -21.1026  -13.1185   22.2629 H   0  0  0  0  0  0
  -24.6086  -15.8239   20.4737 H   0  0  0  0  0  0
  -26.2117  -15.6277   19.9753 H   0  0  0  0  0  0
  -26.7189  -32.5434   23.1099 H   0  0  0  0  0  0
  -25.0042  -33.9696   25.0420 H   0  0  0  0  0  0
  -22.7174  -31.3013   21.3964 H   0  0  0  0  0  0
  -23.3765  -35.9643   23.3254 H   0  0  0  0  0  0
  -24.3623  -36.8982   22.2067 H   0  0  0  0  0  0
  -23.7245  -37.6513   23.6669 H   0  0  0  0  0  0
  -26.1059  -31.5514   20.6043 H   0  0  0  0  0  0
  -26.8443  -30.8332   22.0039 H   0  0  0  0  0  0
  -28.1178  -28.9812   21.1941 H   0  0  0  0  0  0
  -25.9937  -25.9536   18.9574 H   0  0  0  0  0  0
  -23.9903  -27.3261   18.9662 H   0  0  0  0  0  0
  -23.7604  -30.5961   19.3993 H   0  0  0  0  0  0
  -22.7607  -29.2471   19.8504 H   0  0  0  0  0  0
  -25.1283  -36.1969   25.0842 H   0  0  0  0  0  0
  -20.9987  -28.3209   24.1401 H   0  0  0  0  0  0
  -20.5675  -26.2256   23.3592 H   0  0  0  0  0  0
  -21.6655  -26.7397   22.1200 H   0  0  0  0  0  0
  -19.6927  -25.6276   21.1211 H   0  0  0  0  0  0
  -19.6701  -27.3176   20.6732 H   0  0  0  0  0  0
  -17.4224  -26.6652   21.3989 H   0  0  0  0  0  0
  -18.0326  -26.0021   22.8976 H   0  0  0  0  0  0
  -19.7934  -30.7247   24.2247 H   0  0  0  0  0  0
  -17.4996  -31.6226   24.5137 H   0  0  0  0  0  0
  -15.5344  -30.2912   23.7639 H   0  0  0  0  0  0
  -15.8697  -28.0776   22.7013 H   0  0  0  0  0  0
  -24.5940  -30.6925   25.7752 H   0  0  0  0  0  0
  -24.8846  -32.2729   26.4887 H   0  0  0  0  0  0
  -25.8073  -30.8789   27.0183 H   0  0  0  0  0  0
  -26.2864  -29.6709   24.1189 H   0  0  0  0  0  0
  -27.4089  -29.7231   25.4605 H   0  0  0  0  0  0
  -27.8710  -30.4275   23.9282 H   0  0  0  0  0  0
  -27.2714  -33.3551   26.2040 H   0  0  0  0  0  0
  -28.3859  -32.6766   25.0264 H   0  0  0  0  0  0
  -28.0722  -31.8336   26.5365 H   0  0  0  0  0  0
  -28.2577  -38.0162   24.7571 H   0  0  0  0  0  0
  -28.1167  -36.2701   24.6180 H   0  0  0  0  0  0
  -27.2351  -37.1334   25.8867 H   0  0  0  0  0  0
  -20.9396  -29.8796   21.6938 H   0  0  0  0  0  0
  -26.0205  -38.2879   24.1367 H   0  0  0  0  0  0
  -28.1105  -18.1318   21.1460 H   0  0  0  0  0  0
  -31.3690  -21.8100   20.4557 H   0  0  0  0  0  0
  -30.2818  -23.9724   24.1837 H   0  0  0  0  0  0
  -28.7855  -24.7957   23.8783 H   0  0  0  0  0  0
  -31.3323  -25.4971   22.8666 H   0  0  0  0  0  0
  -29.8127  -26.1701   22.3770 H   0  0  0  0  0  0
  -31.4018  -23.9904   21.0045 H   0  0  0  0  0  0
  -30.8479  -25.4922   20.3374 H   0  0  0  0  0  0
  -29.4445  -23.6568   19.5188 H   0  0  0  0  0  0
  -31.6491  -17.1178   21.1766 H   0  0  0  0  0  0
  -31.1511  -17.0806   19.5164 H   0  0  0  0  0  0
  -27.5972  -25.0685   21.4931 H   0  0  0  0  0  0
  -27.3316  -24.6172   19.8468 H   0  0  0  0  0  0
  -29.0993  -15.8053   21.0775 H   0  0  0  0  0  0
  1 25  1  0  0  0
  1 30  2  0  0  0
  1 85  1  0  0  0
  2  3  1  0  0  0
  2 25  1  0  0  0
  2 89  1  0  0  0
  2 90  1  0  0  0
  3  4  1  0  0  0
  3 91  1  0  0  0
  3 92  1  0  0  0
  4  5  1  0  0  0
  4 93  1  0  0  0
  4 94  1  0  0  0
  5  6  1  0  0  0
  5 26  1  0  0  0
  5 95  1  0  0  0
  6 25  1  0  0  0
  6 96  1  0  0  0
  6 97  1  0  0  0
  7  8  2  0  0  0
  7 26  1  0  0  0
  7 29  1  0  0  0
  8  9  1  0  0  0
  8 22  1  0  0  0
  9 10  1  0  0  0
  9 27  2  0  0  0
 10 11  2  0  0  0
 10 15  1  0  0  0
 11 12  1  0  0  0
 11 98  1  0  0  0
 12 13  2  0  0  0
 12 99  1  0  0  0
 13 14  1  0  0  0
 13 31  1  0  0  0
 14 15  2  0  0  0
 14100  1  0  0  0
 15101  1  0  0  0
 16 17  2  0  0  0
 16 21  1  0  0  0
 16 31  1  0  0  0
 17 18  1  0  0  0
 17102  1  0  0  0
 18 19  2  0  0  0
 18103  1  0  0  0
 19 20  1  0  0  0
 19 24  1  0  0  0
 20 21  2  0  0  0
 20104  1  0  0  0
 21 23  1  0  0  0
 22 28  1  0  0  0
 22 32  2  0  0  0
 26 27  1  0  0  0
 28105  1  0  0  0
 28106  1  0  0  0
 29107  1  0  0  0
 29108  1  0  0  0
 33 34  1  0  0  0
 33 66  1  0  0  0
 33 70  2  0  0  0
 34 36  1  0  0  0
 34 59  1  0  0  0
 34109  1  0  0  0
 35 44  2  0  0  0
 35 45  1  0  0  0
 35 68  1  0  0  0
 36 56  1  0  0  0
 36110  1  0  0  0
 37 39  1  0  0  0
 37 47  1  0  0  0
 37 66  1  0  0  0
 37111  1  0  0  0
 38 43  2  0  0  0
 38 46  1  0  0  0
 38 47  1  0  0  0
 39 64  1  0  0  0
 39 67  2  0  0  0
 40 52  1  0  0  0
 40 53  2  0  0  0
 40 58  1  0  0  0
 41112  1  0  0  0
 41113  1  0  0  0
 41114  1  0  0  0
 41 48  1  0  0  0
 42 43  1  0  0  0
 42 66  1  0  0  0
 42115  1  0  0  0
 42116  1  0  0  0
 43 44  1  0  0  0
 44117  1  0  0  0
 45 46  2  0  0  0
 45118  1  0  0  0
 46119  1  0  0  0
 47120  1  0  0  0
 47121  1  0  0  0
 48 56  1  0  0  0
 48 65  1  0  0  0
 48122  1  0  0  0
 49 50  1  0  0  0
 49 53  1  0  0  0
 49 64  1  0  0  0
 49123  1  0  0  0
 50 51  1  0  0  0
 50124  1  0  0  0
 50125  1  0  0  0
 51 52  1  0  0  0
 51126  1  0  0  0
 51127  1  0  0  0
 52128  1  0  0  0
 52129  1  0  0  0
 53 54  1  0  0  0
 54 55  2  0  0  0
 54130  1  0  0  0
 55 57  1  0  0  0
 55131  1  0  0  0
 56 69  2  0  0  0
 57 58  2  0  0  0
 57132  1  0  0  0
 58133  1  0  0  0
 59 60  1  0  0  0
 59 61  1  0  0  0
 59 62  1  0  0  0
 60134  1  0  0  0
 60135  1  0  0  0
 60136  1  0  0  0
 61137  1  0  0  0
 61138  1  0  0  0
 61139  1  0  0  0
 62140  1  0  0  0
 62141  1  0  0  0
 62142  1  0  0  0
 63 65  1  0  0  0
 63143  1  0  0  0
 63144  1  0  0  0
 63145  1  0  0  0
 64146  1  0  0  0
 65147  1  0  0  0
 68 83  1  0  0  0
 71 73  2  0  0  0
 71 75  1  0  0  0
 71148  1  0  0  0
 72 74  1  0  0  0
 72 76  2  0  0  0
 72149  1  0  0  0
 73 76  1  0  0  0
 73 82  1  0  0  0
 74 75  2  0  0  0
 74 84  1  0  0  0
 75 87  1  0  0  0
 76 88  1  0  0  0
 77 78  1  0  0  0
 77 84  1  0  0  0
 77 86  2  0  0  0
 78 79  1  0  0  0
 78150  1  0  0  0
 78151  1  0  0  0
 79 80  1  0  0  0
 79152  1  0  0  0
 79153  1  0  0  0
 80 81  1  0  0  0
 80154  1  0  0  0
 80155  1  0  0  0
 81 83  1  0  0  0
 81 84  1  0  0  0
 81156  1  0  0  0
 82 85  1  0  0  0
 82157  1  0  0  0
 82158  1  0  0  0
 83159  1  0  0  0
 83160  1  0  0  0
 85161  1  0  0  0
M  ISO  4   1 100  68 101  83 101  85 100
M  END
> <chiral flag>
0

> <version>
0

> <s_m_source_file>
/data/baiqing/PycharmProjects/Reinvent-master-3.2/result/LINK_invent/BTK/process_docking_weight1_custom_product_contain_oxygen_bond_distance_aromatic_linkinvent_7_9_3/rearranged_h_0046.sdf

> <i_m_source_file_index>
82

> <r_mmod_Potential_Energy-OPLS-2005>
160.624984741211

> <r_mmod_Stretch_Energy-OPLS-2005>
91.8376846313477

> <r_mmod_Bend_Energy-OPLS-2005>
163.589889526367

> <r_mmod_Torsional_Energy-OPLS-2005>
317.274627685547

> <r_mmod_Improper_Torsional_Energy-OPLS-2005>
7.63029050827026

> <r_mmod_Van_der_Waal_Energy-OPLS-2005>
159.749588012695

> <r_mmod_Electrostatic_Energy-OPLS-2005>
-410.569274902344

> <r_mmod_Solvation_Energy-OPLS-2005>
-220.976501464844

> <b_mmod_Minimization_Converged-OPLS-2005>
0

> <r_mmod_RMS_Derivative-OPLS-2005>
3.73343801498413

$$$$
82
                    3D
 Structure written by MMmdl.
158167  0  0  1  0            999 V2000
  -30.5263  -15.0603   20.4093 C   0  0  0  0  0  0
  -30.4371  -12.6678   19.5088 C   0  0  0  0  0  0
  -29.5199  -12.5388   18.2708 C   0  0  0  0  0  0
  -28.0647  -12.2951   18.7064 C   0  0  0  0  0  0
  -27.6237  -13.2562   19.8395 C   0  0  2  0  0  0
  -28.6663  -13.3497   20.9745 C   0  0  0  0  0  0
  -25.2428  -13.8229   20.5737 C   0  0  0  0  0  0
  -24.1755  -13.0438   20.9239 C   0  0  0  0  0  0
  -24.6392  -11.6935   20.8785 C   0  0  0  0  0  0
  -23.9081  -10.4299   21.0421 C   0  0  0  0  0  0
  -24.3630   -9.4206   21.9193 C   0  0  0  0  0  0
  -23.6297   -8.2244   22.0767 C   0  0  0  0  0  0
  -22.4280   -8.0283   21.3552 C   0  0  0  0  0  0
  -21.9920   -9.0261   20.4654 C   0  0  0  0  0  0
  -22.7256  -10.2135   20.3065 C   0  0  0  0  0  0
  -21.6850   -6.0735   22.5270 C   0  0  0  0  0  0
  -21.4020   -6.5639   23.8204 C   0  0  0  0  0  0
  -21.3663   -5.6792   24.9164 C   0  0  0  0  0  0
  -21.6040   -4.3057   24.7215 C   0  0  0  0  0  0
  -21.8822   -3.8147   23.4340 C   0  0  0  0  0  0
  -21.9197   -4.6963   22.3394 C   0  0  0  0  0  0
  -22.7768  -13.5199   21.1876 C   0  0  0  0  0  0
  -22.1661   -4.2152   21.0972 F   0  0  0  0  0  0
  -21.5625   -3.4543   25.7728 F   0  0  0  0  0  0
  -29.9231  -13.7919   20.3556 N   0  0  0  0  0  0
  -26.2869  -12.9479   20.3307 N   0  0  0  0  0  0
  -25.9334  -11.6603   20.5813 N   0  0  0  0  0  0
  -22.0439  -12.8198   22.0453 N   0  0  0  0  0  0
  -25.4062  -15.1956   20.4113 N   0  0  0  0  0  0
  -31.7322  -15.0631   20.1402 O   0  0  0  0  0  0
  -21.6643   -6.8878   21.4233 O   0  0  0  0  0  0
  -22.3460  -14.5508   20.6717 O   0  0  0  0  0  0
  -24.6505  -31.8383   23.1829 C   0  0  0  0  0  0
  -25.9246  -32.4654   23.8227 C   0  0  1  0  0  0
  -27.2027  -27.0580   20.1517 C   0  0  0  0  0  0
  -25.5956  -33.8460   24.2128 N   0  0  0  0  0  0
  -23.4576  -30.4583   21.5319 C   0  0  2  0  0  0
  -24.9065  -28.8803   20.1067 C   0  0  0  0  0  0
  -22.7607  -29.4501   22.4813 C   0  0  0  0  0  0
  -18.0323  -28.1396   22.8477 C   0  0  0  0  0  0
  -24.1477  -36.7204   23.2650 C   0  0  0  0  0  0
  -26.0219  -30.6809   21.4020 C   0  0  0  0  0  0
  -26.0878  -29.2901   20.7352 C   0  0  0  0  0  0
  -27.2356  -28.3964   20.7417 C   0  0  0  0  0  0
  -25.9918  -26.7772   19.4812 C   0  0  0  0  0  0
  -24.8774  -27.6403   19.4589 C   0  0  0  0  0  0
  -23.6893  -29.7926   20.1496 C   0  0  0  0  0  0
  -25.4124  -36.2986   24.0303 C   0  0  1  0  0  0
  -20.5948  -28.3719   23.1213 C   0  0  2  0  0  0
  -20.6817  -26.9416   22.5386 C   0  0  0  0  0  0
  -19.5771  -26.6382   21.5212 C   0  0  0  0  0  0
  -18.1954  -26.7932   22.1632 C   0  0  0  0  0  0
  -19.1592  -28.8885   23.2832 C   0  0  0  0  0  0
  -18.9515  -30.1491   23.8846 C   0  0  0  0  0  0
  -17.6518  -30.6597   24.0570 C   0  0  0  0  0  0
  -25.9092  -34.9377   23.5032 C   0  0  0  0  0  0
  -16.5399  -29.9093   23.6350 C   0  0  0  0  0  0
  -16.7318  -28.6518   23.0346 C   0  0  0  0  0  0
  -26.4530  -31.6567   25.0718 C   0  0  0  0  0  0
  -25.3675  -31.3792   26.1384 C   0  0  0  0  0  0
  -27.0437  -30.2958   24.6393 C   0  0  0  0  0  0
  -27.6051  -32.4374   25.7476 C   0  0  0  0  0  0
  -27.5553  -37.1746   24.8473 C   0  0  0  0  0  0
  -21.4297  -29.3036   22.3577 N   0  0  0  0  0  0
  -26.4263  -37.3725   23.9422 N   0  0  0  0  0  0
  -24.7304  -31.0147   22.0929 N   0  0  0  0  0  0
  -23.4213  -28.8032   23.2985 O   0  0  0  0  0  0
  -28.2177  -26.0080   20.2357 O   0  0  0  0  0  0
  -26.5674  -34.8882   22.4604 O   0  0  0  0  0  0
  -23.5609  -32.1292   23.7007 O   0  0  0  0  0  0
  -31.6295  -19.5672   21.5634 C   0  0  0  0  0  0
  -29.2712  -19.0496   20.3014 C   0  0  0  0  0  0
  -31.2539  -18.2122   21.4219 C   0  0  0  0  0  0
  -29.6006  -20.5183   20.5114 C   0  0  0  0  0  0
  -30.0842  -17.8304   20.7003 C   0  0  0  0  0  0
  -30.8873  -20.6703   21.0989 C   0  0  0  0  0  0
  -28.7158  -23.1541   20.6274 C   0  0  0  0  0  0
  -28.4764  -22.9108   17.8367 C   0  0  0  0  0  0
  -27.9072  -24.2526   18.3513 C   0  0  0  0  0  0
  -28.1560  -21.7109   18.7591 C   0  0  0  0  0  0
  -27.9580  -24.4706   19.8901 C   0  0  2  0  0  0
  -32.1731  -17.2209   22.1166 C   0  0  0  0  0  0
  -28.8355  -21.8203   20.0559 N   0  0  0  0  0  0
  -29.7715  -16.2971   20.5171 N   0  0  0  0  0  0
  -29.0967  -23.3591   21.7841 O   0  0  0  0  0  0
  -31.7181  -22.1862   21.1876 Cl  0  0  0  0  0  0
  -31.4644  -12.8363   19.1820 H   0  0  0  0  0  0
  -30.4578  -11.7377   20.0782 H   0  0  0  0  0  0
  -29.8619  -11.7256   17.6300 H   0  0  0  0  0  0
  -29.5767  -13.4505   17.6742 H   0  0  0  0  0  0
  -28.0015  -11.2642   19.0596 H   0  0  0  0  0  0
  -27.3882  -12.3686   17.8547 H   0  0  0  0  0  0
  -27.5670  -14.2417   19.3773 H   0  0  0  0  0  0
  -28.7889  -12.3934   21.4857 H   0  0  0  0  0  0
  -28.3466  -14.0693   21.7297 H   0  0  0  0  0  0
  -25.2772   -9.5675   22.4779 H   0  0  0  0  0  0
  -23.9995   -7.4638   22.7502 H   0  0  0  0  0  0
  -21.0850   -8.8793   19.8966 H   0  0  0  0  0  0
  -22.3723  -10.9677   19.6187 H   0  0  0  0  0  0
  -21.2022   -7.6150   23.9708 H   0  0  0  0  0  0
  -21.1476   -6.0522   25.9065 H   0  0  0  0  0  0
  -22.0603   -2.7611   23.2837 H   0  0  0  0  0  0
  -22.4073  -11.9850   22.4811 H   0  0  0  0  0  0
  -21.1077  -13.1240   22.2715 H   0  0  0  0  0  0
  -24.6260  -15.8387   20.4948 H   0  0  0  0  0  0
  -26.2464  -15.6402   20.0672 H   0  0  0  0  0  0
  -26.7299  -32.5228   23.0931 H   0  0  0  0  0  0
  -25.0081  -33.9567   25.0258 H   0  0  0  0  0  0
  -22.7638  -31.2864   21.3754 H   0  0  0  0  0  0
  -23.3763  -35.9509   23.3310 H   0  0  0  0  0  0
  -24.3559  -36.8846   22.2065 H   0  0  0  0  0  0
  -23.7197  -37.6379   23.6711 H   0  0  0  0  0  0
  -26.1989  -31.4361   20.6354 H   0  0  0  0  0  0
  -26.8838  -30.7205   22.0557 H   0  0  0  0  0  0
  -28.1299  -28.7018   21.2665 H   0  0  0  0  0  0
  -25.8450  -25.8341   18.9881 H   0  0  0  0  0  0
  -23.9805  -27.3218   18.9451 H   0  0  0  0  0  0
  -23.8374  -30.5707   19.4002 H   0  0  0  0  0  0
  -22.8003  -29.2453   19.8315 H   0  0  0  0  0  0
  -25.1310  -36.1790   25.0793 H   0  0  0  0  0  0
  -21.0043  -28.3315   24.1337 H   0  0  0  0  0  0
  -20.5729  -26.2325   23.3611 H   0  0  0  0  0  0
  -21.6678  -26.7404   22.1172 H   0  0  0  0  0  0
  -19.6928  -25.6280   21.1276 H   0  0  0  0  0  0
  -19.6721  -27.3173   20.6722 H   0  0  0  0  0  0
  -17.4218  -26.6675   21.4039 H   0  0  0  0  0  0
  -18.0354  -26.0071   22.9024 H   0  0  0  0  0  0
  -19.7995  -30.7333   24.2160 H   0  0  0  0  0  0
  -17.5076  -31.6276   24.5173 H   0  0  0  0  0  0
  -15.5401  -30.2990   23.7734 H   0  0  0  0  0  0
  -15.8701  -28.0872   22.7033 H   0  0  0  0  0  0
  -24.5857  -30.7147   25.7681 H   0  0  0  0  0  0
  -24.8863  -32.3001   26.4707 H   0  0  0  0  0  0
  -25.7909  -30.9011   27.0227 H   0  0  0  0  0  0
  -26.3102  -29.6630   24.1403 H   0  0  0  0  0  0
  -27.4021  -29.7310   25.5006 H   0  0  0  0  0  0
  -27.9001  -30.4174   23.9757 H   0  0  0  0  0  0
  -27.2650  -33.3734   26.1902 H   0  0  0  0  0  0
  -28.3901  -32.6850   25.0316 H   0  0  0  0  0  0
  -28.0669  -31.8616   26.5495 H   0  0  0  0  0  0
  -28.2560  -38.0051   24.7542 H   0  0  0  0  0  0
  -28.1057  -36.2589   24.6292 H   0  0  0  0  0  0
  -27.2280  -37.1367   25.8875 H   0  0  0  0  0  0
  -20.9523  -29.8738   21.6738 H   0  0  0  0  0  0
  -26.0116  -38.2763   24.1515 H   0  0  0  0  0  0
  -32.5697  -19.7874   22.0499 H   0  0  0  0  0  0
  -28.3378  -18.8525   19.7932 H   0  0  0  0  0  0
  -29.5595  -22.9951   17.7250 H   0  0  0  0  0  0
  -28.0918  -22.7151   16.8351 H   0  0  0  0  0  0
  -26.8688  -24.2927   18.0240 H   0  0  0  0  0  0
  -28.4106  -25.0745   17.8424 H   0  0  0  0  0  0
  -28.4682  -20.7965   18.2557 H   0  0  0  0  0  0
  -27.0792  -21.6205   18.9148 H   0  0  0  0  0  0
  -26.9424  -24.3061   20.2505 H   0  0  0  0  0  0
  -32.6952  -17.6916   22.9500 H   0  0  0  0  0  0
  -32.9352  -16.8570   21.4282 H   0  0  0  0  0  0
  -31.6274  -16.3815   22.5424 H   0  0  0  0  0  0
  -28.7818  -16.1062   20.4746 H   0  0  0  0  0  0
  1 25  1  0  0  0
  1 30  2  0  0  0
  1 84  1  0  0  0
  2  3  1  0  0  0
  2 25  1  0  0  0
  2 87  1  0  0  0
  2 88  1  0  0  0
  3  4  1  0  0  0
  3 89  1  0  0  0
  3 90  1  0  0  0
  4  5  1  0  0  0
  4 91  1  0  0  0
  4 92  1  0  0  0
  5  6  1  0  0  0
  5 26  1  0  0  0
  5 93  1  0  0  0
  6 25  1  0  0  0
  6 94  1  0  0  0
  6 95  1  0  0  0
  7  8  2  0  0  0
  7 26  1  0  0  0
  7 29  1  0  0  0
  8  9  1  0  0  0
  8 22  1  0  0  0
  9 10  1  0  0  0
  9 27  2  0  0  0
 10 11  2  0  0  0
 10 15  1  0  0  0
 11 12  1  0  0  0
 11 96  1  0  0  0
 12 13  2  0  0  0
 12 97  1  0  0  0
 13 14  1  0  0  0
 13 31  1  0  0  0
 14 15  2  0  0  0
 14 98  1  0  0  0
 15 99  1  0  0  0
 16 17  2  0  0  0
 16 21  1  0  0  0
 16 31  1  0  0  0
 17 18  1  0  0  0
 17100  1  0  0  0
 18 19  2  0  0  0
 18101  1  0  0  0
 19 20  1  0  0  0
 19 24  1  0  0  0
 20 21  2  0  0  0
 20102  1  0  0  0
 21 23  1  0  0  0
 22 28  1  0  0  0
 22 32  2  0  0  0
 26 27  1  0  0  0
 28103  1  0  0  0
 28104  1  0  0  0
 29105  1  0  0  0
 29106  1  0  0  0
 33 34  1  0  0  0
 33 66  1  0  0  0
 33 70  2  0  0  0
 34 36  1  0  0  0
 34 59  1  0  0  0
 34107  1  0  0  0
 35 44  2  0  0  0
 35 45  1  0  0  0
 35 68  1  0  0  0
 36 56  1  0  0  0
 36108  1  0  0  0
 37 39  1  0  0  0
 37 47  1  0  0  0
 37 66  1  0  0  0
 37109  1  0  0  0
 38 43  2  0  0  0
 38 46  1  0  0  0
 38 47  1  0  0  0
 39 64  1  0  0  0
 39 67  2  0  0  0
 40 52  1  0  0  0
 40 53  2  0  0  0
 40 58  1  0  0  0
 41110  1  0  0  0
 41111  1  0  0  0
 41112  1  0  0  0
 41 48  1  0  0  0
 42 43  1  0  0  0
 42 66  1  0  0  0
 42113  1  0  0  0
 42114  1  0  0  0
 43 44  1  0  0  0
 44115  1  0  0  0
 45 46  2  0  0  0
 45116  1  0  0  0
 46117  1  0  0  0
 47118  1  0  0  0
 47119  1  0  0  0
 48 56  1  0  0  0
 48 65  1  0  0  0
 48120  1  0  0  0
 49 50  1  0  0  0
 49 53  1  0  0  0
 49 64  1  0  0  0
 49121  1  0  0  0
 50 51  1  0  0  0
 50122  1  0  0  0
 50123  1  0  0  0
 51 52  1  0  0  0
 51124  1  0  0  0
 51125  1  0  0  0
 52126  1  0  0  0
 52127  1  0  0  0
 53 54  1  0  0  0
 54 55  2  0  0  0
 54128  1  0  0  0
 55 57  1  0  0  0
 55129  1  0  0  0
 56 69  2  0  0  0
 57 58  2  0  0  0
 57130  1  0  0  0
 58131  1  0  0  0
 59 60  1  0  0  0
 59 61  1  0  0  0
 59 62  1  0  0  0
 60132  1  0  0  0
 60133  1  0  0  0
 60134  1  0  0  0
 61135  1  0  0  0
 61136  1  0  0  0
 61137  1  0  0  0
 62138  1  0  0  0
 62139  1  0  0  0
 62140  1  0  0  0
 63 65  1  0  0  0
 63141  1  0  0  0
 63142  1  0  0  0
 63143  1  0  0  0
 64144  1  0  0  0
 65145  1  0  0  0
 68 81  1  0  0  0
 71 73  2  0  0  0
 71 76  1  0  0  0
 71146  1  0  0  0
 72 74  1  0  0  0
 72 75  2  0  0  0
 72147  1  0  0  0
 73 75  1  0  0  0
 73 82  1  0  0  0
 74 76  2  0  0  0
 74 83  1  0  0  0
 75 84  1  0  0  0
 76 86  1  0  0  0
 77 81  1  0  0  0
 77 83  1  0  0  0
 77 85  2  0  0  0
 78 79  1  0  0  0
 78 80  1  0  0  0
 78148  1  0  0  0
 78149  1  0  0  0
 79 81  1  0  0  0
 79150  1  0  0  0
 79151  1  0  0  0
 80 83  1  0  0  0
 80152  1  0  0  0
 80153  1  0  0  0
 81154  1  0  0  0
 82155  1  0  0  0
 82156  1  0  0  0
 82157  1  0  0  0
 84158  1  0  0  0
M  ISO  4   1 100  68 101  81 101  84 100
M  END
> <chiral flag>
0

> <version>
0

> <s_m_source_file>
/data/baiqing/PycharmProjects/Reinvent-master-3.2/result/LINK_invent/BTK/process_docking_weight1_custom_product_contain_oxygen_bond_distance_aromatic_linkinvent_7_9_3/rearranged_h_0046.sdf

> <i_m_source_file_index>
83

> <r_mmod_Potential_Energy-OPLS-2005>
831.59765625

> <r_mmod_Stretch_Energy-OPLS-2005>
369.588012695312

> <r_mmod_Bend_Energy-OPLS-2005>
294.790435791016

> <r_mmod_Torsional_Energy-OPLS-2005>
281.591552734375

> <r_mmod_Improper_Torsional_Energy-OPLS-2005>
7.43137454986572

> <r_mmod_Van_der_Waal_Energy-OPLS-2005>
160.231994628906

> <r_mmod_Electrostatic_Energy-OPLS-2005>
-326.346527099609

> <r_mmod_Solvation_Energy-OPLS-2005>
-232.052642822266

> <b_mmod_Minimization_Converged-OPLS-2005>
0

> <r_mmod_RMS_Derivative-OPLS-2005>
2.55420255661011

$$$$
83
                    3D
 Structure written by MMmdl.
170179  0  0  1  0            999 V2000
  -30.6608  -14.6512   20.4630 C   0  0  0  0  0  0
  -30.4213  -12.3939   19.4682 C   0  0  0  0  0  0
  -29.5043  -12.4927   18.2314 C   0  0  0  0  0  0
  -28.0287  -12.3356   18.6438 C   0  0  0  0  0  0
  -27.6457  -13.2277   19.8554 C   0  0  2  0  0  0
  -28.6892  -13.1362   20.9905 C   0  0  0  0  0  0
  -25.2528  -13.8196   20.5695 C   0  0  0  0  0  0
  -24.1813  -13.0449   20.9204 C   0  0  0  0  0  0
  -24.6391  -11.6922   20.8749 C   0  0  0  0  0  0
  -23.9069  -10.4301   21.0406 C   0  0  0  0  0  0
  -24.3616   -9.4217   21.9185 C   0  0  0  0  0  0
  -23.6294   -8.2248   22.0756 C   0  0  0  0  0  0
  -22.4277   -8.0279   21.3545 C   0  0  0  0  0  0
  -21.9911   -9.0254   20.4646 C   0  0  0  0  0  0
  -22.7238  -10.2140   20.3057 C   0  0  0  0  0  0
  -21.6856   -6.0734   22.5275 C   0  0  0  0  0  0
  -21.4016   -6.5637   23.8209 C   0  0  0  0  0  0
  -21.3662   -5.6792   24.9173 C   0  0  0  0  0  0
  -21.6042   -4.3052   24.7223 C   0  0  0  0  0  0
  -21.8821   -3.8145   23.4343 C   0  0  0  0  0  0
  -21.9194   -4.6963   22.3400 C   0  0  0  0  0  0
  -22.7833  -13.5233   21.1861 C   0  0  0  0  0  0
  -22.1665   -4.2145   21.0979 F   0  0  0  0  0  0
  -21.5630   -3.4537   25.7737 F   0  0  0  0  0  0
  -30.0015  -13.4503   20.4135 N   0  0  0  0  0  0
  -26.2957  -12.9401   20.3300 N   0  0  0  0  0  0
  -25.9322  -11.6548   20.5761 N   0  0  0  0  0  0
  -22.0484  -12.8217   22.0414 N   0  0  0  0  0  0
  -25.4222  -15.1919   20.4096 N   0  0  0  0  0  0
  -31.8550  -14.7036   20.1619 O   0  0  0  0  0  0
  -21.6644   -6.8875   21.4234 O   0  0  0  0  0  0
  -22.3519  -14.5542   20.6713 O   0  0  0  0  0  0
  -24.6258  -31.8617   23.2059 C   0  0  0  0  0  0
  -25.9112  -32.4786   23.8374 C   0  0  1  0  0  0
  -27.2097  -27.3116   20.1177 C   0  0  0  0  0  0
  -25.5936  -33.8590   24.2286 N   0  0  0  0  0  0
  -23.4182  -30.4877   21.5496 C   0  0  2  0  0  0
  -24.8620  -28.9488   20.1105 C   0  0  0  0  0  0
  -22.7470  -29.4627   22.4953 C   0  0  0  0  0  0
  -18.0283  -28.1377   22.8482 C   0  0  0  0  0  0
  -24.1498  -36.7303   23.2638 C   0  0  0  0  0  0
  -25.9609  -30.7882   21.3816 C   0  0  0  0  0  0
  -26.0310  -29.4156   20.7240 C   0  0  0  0  0  0
  -27.2071  -28.6071   20.7235 C   0  0  0  0  0  0
  -26.0263  -26.9205   19.4481 C   0  0  0  0  0  0
  -24.8618  -27.7064   19.4639 C   0  0  0  0  0  0
  -23.6313  -29.8295   20.1623 C   0  0  0  0  0  0
  -25.4121  -36.3089   24.0321 C   0  0  1  0  0  0
  -20.5884  -28.3684   23.1286 C   0  0  2  0  0  0
  -20.6785  -26.9411   22.5402 C   0  0  0  0  0  0
  -19.5759  -26.6382   21.5209 C   0  0  0  0  0  0
  -18.1933  -26.7920   22.1618 C   0  0  0  0  0  0
  -19.1535  -28.8845   23.2880 C   0  0  0  0  0  0
  -18.9461  -30.1445   23.8902 C   0  0  0  0  0  0
  -17.6464  -30.6587   24.0548 C   0  0  0  0  0  0
  -25.9055  -34.9455   23.5098 C   0  0  0  0  0  0
  -16.5352  -29.9082   23.6323 C   0  0  0  0  0  0
  -16.7268  -28.6496   23.0349 C   0  0  0  0  0  0
  -26.4501  -31.6597   25.0741 C   0  0  0  0  0  0
  -25.3726  -31.3720   26.1458 C   0  0  0  0  0  0
  -27.0343  -30.3020   24.6196 C   0  0  0  0  0  0
  -27.6060  -32.4332   25.7510 C   0  0  0  0  0  0
  -27.5585  -37.1809   24.8460 C   0  0  0  0  0  0
  -21.4187  -29.3048   22.3692 N   0  0  0  0  0  0
  -26.4302  -37.3775   23.9397 N   0  0  0  0  0  0
  -24.6873  -31.0622   22.1023 N   0  0  0  0  0  0
  -23.4195  -28.8158   23.3024 O   0  0  0  0  0  0
  -28.3242  -26.4551   20.1638 O   0  0  0  0  0  0
  -26.5625  -34.8916   22.4667 O   0  0  0  0  0  0
  -23.5428  -32.1432   23.7380 O   0  0  0  0  0  0
  -31.6727  -18.7343   19.0255 C   0  0  0  0  0  0
  -31.2185  -17.4405   19.3099 C   0  0  0  0  0  0
  -31.1604  -19.8600   19.6951 C   0  0  0  0  0  0
  -30.0560  -19.7314   20.5862 C   0  0  0  0  0  0
  -29.6303  -18.3689   20.9031 C   0  0  0  0  0  0
  -30.2541  -17.1979   20.3121 C   0  0  0  0  0  0
  -27.7519  -22.8841   21.6802 C   0  0  0  0  0  0
  -26.7258  -22.4594   22.4437 C   0  0  0  0  0  0
  -28.2171  -24.3614   21.6367 C   0  0  0  0  0  0
  -29.0881  -24.1156   19.3779 C   0  0  0  0  0  0
  -28.6848  -22.5927   19.3664 C   0  0  0  0  0  0
  -28.1188  -24.9790   20.2235 C   0  0  2  0  0  0
  -31.9349  -21.1623   19.5094 C   0  0  0  0  0  0
  -28.5471  -18.1254   21.9436 C   0  0  0  0  0  0
  -26.1360  -21.0650   22.4835 C   0  0  0  0  0  0
  -29.5335  -21.0481   21.3090 C   0  0  0  0  0  0
  -29.9236  -15.8010   20.6672 N   0  0  0  0  0  0
  -28.4574  -21.9476   20.7036 N   0  3  2  0  0  0
  -31.4654  -12.4895   19.1661 H   0  0  0  0  0  0
  -30.3363  -11.4118   19.9367 H   0  0  0  0  0  0
  -29.7720  -11.7283   17.5007 H   0  0  0  0  0  0
  -29.6488  -13.4550   17.7368 H   0  0  0  0  0  0
  -27.8713  -11.2859   18.8961 H   0  0  0  0  0  0
  -27.3741  -12.5463   17.7972 H   0  0  0  0  0  0
  -27.6517  -14.2544   19.4893 H   0  0  0  0  0  0
  -28.6986  -12.1380   21.4303 H   0  0  0  0  0  0
  -28.4405  -13.8237   21.8002 H   0  0  0  0  0  0
  -25.2762   -9.5694   22.4760 H   0  0  0  0  0  0
  -24.0002   -7.4641   22.7478 H   0  0  0  0  0  0
  -21.0840   -8.8769   19.8948 H   0  0  0  0  0  0
  -22.3687  -10.9678   19.6164 H   0  0  0  0  0  0
  -21.2010   -7.6145   23.9710 H   0  0  0  0  0  0
  -21.1484   -6.0523   25.9077 H   0  0  0  0  0  0
  -22.0599   -2.7604   23.2846 H   0  0  0  0  0  0
  -22.4108  -11.9873   22.4791 H   0  0  0  0  0  0
  -21.1100  -13.1230   22.2626 H   0  0  0  0  0  0
  -24.6486  -15.8406   20.5073 H   0  0  0  0  0  0
  -26.2582  -15.6260   20.0404 H   0  0  0  0  0  0
  -26.7175  -32.5458   23.1117 H   0  0  0  0  0  0
  -25.0072  -33.9741   25.0424 H   0  0  0  0  0  0
  -22.7118  -31.3091   21.4118 H   0  0  0  0  0  0
  -23.3753  -35.9646   23.3302 H   0  0  0  0  0  0
  -24.3592  -36.8927   22.2055 H   0  0  0  0  0  0
  -23.7258  -37.6506   23.6670 H   0  0  0  0  0  0
  -26.0941  -31.5519   20.6145 H   0  0  0  0  0  0
  -26.8400  -30.8345   22.0129 H   0  0  0  0  0  0
  -28.1010  -28.9577   21.2209 H   0  0  0  0  0  0
  -25.9621  -26.0046   18.8827 H   0  0  0  0  0  0
  -23.9728  -27.3521   18.9589 H   0  0  0  0  0  0
  -23.7521  -30.6113   19.4106 H   0  0  0  0  0  0
  -22.7503  -29.2618   19.8575 H   0  0  0  0  0  0
  -25.1299  -36.1952   25.0813 H   0  0  0  0  0  0
  -20.9961  -28.3271   24.1412 H   0  0  0  0  0  0
  -20.5700  -26.2297   23.3604 H   0  0  0  0  0  0
  -21.6658  -26.7458   22.1189 H   0  0  0  0  0  0
  -19.6920  -25.6293   21.1251 H   0  0  0  0  0  0
  -19.6699  -27.3193   20.6741 H   0  0  0  0  0  0
  -17.4203  -26.6662   21.4019 H   0  0  0  0  0  0
  -18.0318  -26.0063   22.9017 H   0  0  0  0  0  0
  -19.7939  -30.7241   24.2296 H   0  0  0  0  0  0
  -17.5024  -31.6273   24.5145 H   0  0  0  0  0  0
  -15.5354  -30.2980   23.7657 H   0  0  0  0  0  0
  -15.8665  -28.0814   22.7066 H   0  0  0  0  0  0
  -24.5923  -30.7043   25.7777 H   0  0  0  0  0  0
  -24.8884  -32.2874   26.4873 H   0  0  0  0  0  0
  -25.8047  -30.8910   27.0238 H   0  0  0  0  0  0
  -26.2915  -29.6767   24.1226 H   0  0  0  0  0  0
  -27.4036  -29.7283   25.4708 H   0  0  0  0  0  0
  -27.8794  -30.4292   23.9421 H   0  0  0  0  0  0
  -27.2676  -33.3637   26.2073 H   0  0  0  0  0  0
  -28.3879  -32.6875   25.0341 H   0  0  0  0  0  0
  -28.0718  -31.8458   26.5435 H   0  0  0  0  0  0
  -28.2590  -38.0118   24.7513 H   0  0  0  0  0  0
  -28.1086  -36.2643   24.6279 H   0  0  0  0  0  0
  -27.2294  -37.1443   25.8860 H   0  0  0  0  0  0
  -20.9363  -29.8785   21.6917 H   0  0  0  0  0  0
  -26.0186  -38.2848   24.1398 H   0  0  0  0  0  0
  -32.4817  -18.8462   18.3159 H   0  0  0  0  0  0
  -31.6766  -16.6331   18.7593 H   0  0  0  0  0  0
  -26.2572  -23.1649   23.1158 H   0  0  0  0  0  0
  -29.2338  -24.4353   22.0237 H   0  0  0  0  0  0
  -27.5955  -24.9458   22.3166 H   0  0  0  0  0  0
  -29.0922  -24.4871   18.3523 H   0  0  0  0  0  0
  -30.1085  -24.2346   19.7424 H   0  0  0  0  0  0
  -29.3335  -21.9935   18.7326 H   0  0  0  0  0  0
  -27.7204  -22.5372   18.8607 H   0  0  0  0  0  0
  -27.1246  -24.7153   19.8793 H   0  0  0  0  0  0
  -32.5987  -21.1092   18.6460 H   0  0  0  0  0  0
  -32.5624  -21.3369   20.3847 H   0  0  0  0  0  0
  -31.3227  -22.0453   19.3754 H   0  0  0  0  0  0
  -28.9893  -17.9831   22.9303 H   0  0  0  0  0  0
  -27.9601  -17.2392   21.7051 H   0  0  0  0  0  0
  -27.8416  -18.9455   22.0023 H   0  0  0  0  0  0
  -26.3363  -20.5022   21.5735 H   0  0  0  0  0  0
  -25.0523  -21.1294   22.5870 H   0  0  0  0  0  0
  -26.5205  -20.5157   23.3444 H   0  0  0  0  0  0
  -30.3853  -21.6831   21.5498 H   0  0  0  0  0  0
  -29.1767  -20.7467   22.2926 H   0  0  0  0  0  0
  -28.9964  -15.6462   21.0309 H   0  0  0  0  0  0
  -27.7680  -21.2509   20.4653 H   0  0  0  0  0  0
  1 25  1  0  0  0
  1 30  2  0  0  0
  1 87  1  0  0  0
  2  3  1  0  0  0
  2 25  1  0  0  0
  2 89  1  0  0  0
  2 90  1  0  0  0
  3  4  1  0  0  0
  3 91  1  0  0  0
  3 92  1  0  0  0
  4  5  1  0  0  0
  4 93  1  0  0  0
  4 94  1  0  0  0
  5  6  1  0  0  0
  5 26  1  0  0  0
  5 95  1  0  0  0
  6 25  1  0  0  0
  6 96  1  0  0  0
  6 97  1  0  0  0
  7  8  2  0  0  0
  7 26  1  0  0  0
  7 29  1  0  0  0
  8  9  1  0  0  0
  8 22  1  0  0  0
  9 10  1  0  0  0
  9 27  2  0  0  0
 10 11  2  0  0  0
 10 15  1  0  0  0
 11 12  1  0  0  0
 11 98  1  0  0  0
 12 13  2  0  0  0
 12 99  1  0  0  0
 13 14  1  0  0  0
 13 31  1  0  0  0
 14 15  2  0  0  0
 14100  1  0  0  0
 15101  1  0  0  0
 16 17  2  0  0  0
 16 21  1  0  0  0
 16 31  1  0  0  0
 17 18  1  0  0  0
 17102  1  0  0  0
 18 19  2  0  0  0
 18103  1  0  0  0
 19 20  1  0  0  0
 19 24  1  0  0  0
 20 21  2  0  0  0
 20104  1  0  0  0
 21 23  1  0  0  0
 22 28  1  0  0  0
 22 32  2  0  0  0
 26 27  1  0  0  0
 28105  1  0  0  0
 28106  1  0  0  0
 29107  1  0  0  0
 29108  1  0  0  0
 33 34  1  0  0  0
 33 66  1  0  0  0
 33 70  2  0  0  0
 34 36  1  0  0  0
 34 59  1  0  0  0
 34109  1  0  0  0
 35 44  2  0  0  0
 35 45  1  0  0  0
 35 68  1  0  0  0
 36 56  1  0  0  0
 36110  1  0  0  0
 37 39  1  0  0  0
 37 47  1  0  0  0
 37 66  1  0  0  0
 37111  1  0  0  0
 38 43  2  0  0  0
 38 46  1  0  0  0
 38 47  1  0  0  0
 39 64  1  0  0  0
 39 67  2  0  0  0
 40 52  1  0  0  0
 40 53  2  0  0  0
 40 58  1  0  0  0
 41112  1  0  0  0
 41113  1  0  0  0
 41114  1  0  0  0
 41 48  1  0  0  0
 42 43  1  0  0  0
 42 66  1  0  0  0
 42115  1  0  0  0
 42116  1  0  0  0
 43 44  1  0  0  0
 44117  1  0  0  0
 45 46  2  0  0  0
 45118  1  0  0  0
 46119  1  0  0  0
 47120  1  0  0  0
 47121  1  0  0  0
 48 56  1  0  0  0
 48 65  1  0  0  0
 48122  1  0  0  0
 49 50  1  0  0  0
 49 53  1  0  0  0
 49 64  1  0  0  0
 49123  1  0  0  0
 50 51  1  0  0  0
 50124  1  0  0  0
 50125  1  0  0  0
 51 52  1  0  0  0
 51126  1  0  0  0
 51127  1  0  0  0
 52128  1  0  0  0
 52129  1  0  0  0
 53 54  1  0  0  0
 54 55  2  0  0  0
 54130  1  0  0  0
 55 57  1  0  0  0
 55131  1  0  0  0
 56 69  2  0  0  0
 57 58  2  0  0  0
 57132  1  0  0  0
 58133  1  0  0  0
 59 60  1  0  0  0
 59 61  1  0  0  0
 59 62  1  0  0  0
 60134  1  0  0  0
 60135  1  0  0  0
 60136  1  0  0  0
 61137  1  0  0  0
 61138  1  0  0  0
 61139  1  0  0  0
 62140  1  0  0  0
 62141  1  0  0  0
 62142  1  0  0  0
 63 65  1  0  0  0
 63143  1  0  0  0
 63144  1  0  0  0
 63145  1  0  0  0
 64146  1  0  0  0
 65147  1  0  0  0
 68 82  1  0  0  0
 71 72  2  0  0  0
 71 73  1  0  0  0
 71148  1  0  0  0
 72 76  1  0  0  0
 72149  1  0  0  0
 73 74  2  0  0  0
 73 83  1  0  0  0
 74 75  1  0  0  0
 74 86  1  0  0  0
 75 76  2  0  0  0
 75 84  1  0  0  0
 76 87  1  0  0  0
 77 78  2  0  0  0
 77 79  1  0  0  0
 77 88  1  0  0  0
 78 85  1  0  0  0
 78150  1  0  0  0
 79 82  1  0  0  0
 79151  1  0  0  0
 79152  1  0  0  0
 80 81  1  0  0  0
 80 82  1  0  0  0
 80153  1  0  0  0
 80154  1  0  0  0
 81 88  1  0  0  0
 81155  1  0  0  0
 81156  1  0  0  0
 82157  1  0  0  0
 83158  1  0  0  0
 83159  1  0  0  0
 83160  1  0  0  0
 84161  1  0  0  0
 84162  1  0  0  0
 84163  1  0  0  0
 85164  1  0  0  0
 85165  1  0  0  0
 85166  1  0  0  0
 86167  1  0  0  0
 86168  1  0  0  0
 86 88  1  0  0  0
 87169  1  0  0  0
 88170  1  0  0  0
M  CHG  1  88   1
M  ISO  4   1 100  68 101  82 101  87 100
M  END
> <chiral flag>
0

> <version>
0

> <s_m_source_file>
/data/baiqing/PycharmProjects/Reinvent-master-3.2/result/LINK_invent/BTK/process_docking_weight1_custom_product_contain_oxygen_bond_distance_aromatic_linkinvent_7_9_3/rearranged_h_0046.sdf

> <i_m_source_file_index>
84

> <r_mmod_Potential_Energy-OPLS-2005>
-2.9608142375946

> <r_mmod_Stretch_Energy-OPLS-2005>
97.9443130493164

> <r_mmod_Bend_Energy-OPLS-2005>
172.547012329102

> <r_mmod_Torsional_Energy-OPLS-2005>
249.001617431641

> <r_mmod_Improper_Torsional_Energy-OPLS-2005>
5.80629730224609

> <r_mmod_Van_der_Waal_Energy-OPLS-2005>
157.475067138672

> <r_mmod_Electrostatic_Energy-OPLS-2005>
-306.119750976562

> <r_mmod_Solvation_Energy-OPLS-2005>
-435.393676757812

> <b_mmod_Minimization_Converged-OPLS-2005>
0

> <r_mmod_RMS_Derivative-OPLS-2005>
1.45339691638947

$$$$
84
                    3D
 Structure written by MMmdl.
178187  0  0  1  0            999 V2000
  -30.6378  -14.7982   20.4249 C   0  0  0  0  0  0
  -30.4215  -12.4833   19.4869 C   0  0  0  0  0  0
  -29.5012  -12.5034   18.2474 C   0  0  0  0  0  0
  -28.0337  -12.3243   18.6699 C   0  0  0  0  0  0
  -27.6349  -13.2469   19.8513 C   0  0  2  0  0  0
  -28.6860  -13.2281   20.9852 C   0  0  0  0  0  0
  -25.2468  -13.8227   20.5736 C   0  0  0  0  0  0
  -24.1777  -13.0450   20.9244 C   0  0  0  0  0  0
  -24.6391  -11.6936   20.8771 C   0  0  0  0  0  0
  -23.9076  -10.4304   21.0437 C   0  0  0  0  0  0
  -24.3623   -9.4205   21.9204 C   0  0  0  0  0  0
  -23.6306   -8.2232   22.0766 C   0  0  0  0  0  0
  -22.4291   -8.0280   21.3549 C   0  0  0  0  0  0
  -21.9933   -9.0256   20.4648 C   0  0  0  0  0  0
  -22.7255  -10.2140   20.3072 C   0  0  0  0  0  0
  -21.6855   -6.0743   22.5281 C   0  0  0  0  0  0
  -21.4010   -6.5647   23.8211 C   0  0  0  0  0  0
  -21.3660   -5.6801   24.9177 C   0  0  0  0  0  0
  -21.6055   -4.3060   24.7226 C   0  0  0  0  0  0
  -21.8825   -3.8145   23.4347 C   0  0  0  0  0  0
  -21.9199   -4.6973   22.3409 C   0  0  0  0  0  0
  -22.7790  -13.5201   21.1912 C   0  0  0  0  0  0
  -22.1662   -4.2158   21.0990 F   0  0  0  0  0  0
  -21.5644   -3.4535   25.7732 F   0  0  0  0  0  0
  -29.9781  -13.5823   20.3819 N   0  0  0  0  0  0
  -26.2912  -12.9465   20.3342 N   0  0  0  0  0  0
  -25.9336  -11.6598   20.5836 N   0  0  0  0  0  0
  -22.0477  -12.8131   22.0457 N   0  0  0  0  0  0
  -25.4148  -15.1940   20.4120 N   0  0  0  0  0  0
  -31.8365  -14.8020   20.1332 O   0  0  0  0  0  0
  -21.6648   -6.8879   21.4242 O   0  0  0  0  0  0
  -22.3457  -14.5507   20.6778 O   0  0  0  0  0  0
  -24.6349  -31.8570   23.1980 C   0  0  0  0  0  0
  -25.9144  -32.4764   23.8314 C   0  0  1  0  0  0
  -27.1936  -27.2312   20.0873 C   0  0  0  0  0  0
  -25.5923  -33.8570   24.2241 N   0  0  0  0  0  0
  -23.4293  -30.4897   21.5467 C   0  0  2  0  0  0
  -24.8644  -28.9482   20.1035 C   0  0  0  0  0  0
  -22.7512  -29.4639   22.4896 C   0  0  0  0  0  0
  -18.0300  -28.1394   22.8497 C   0  0  0  0  0  0
  -24.1487  -36.7304   23.2643 C   0  0  0  0  0  0
  -25.9834  -30.7636   21.3780 C   0  0  0  0  0  0
  -26.0497  -29.3887   20.7058 C   0  0  0  0  0  0
  -27.2165  -28.5471   20.6817 C   0  0  0  0  0  0
  -25.9448  -26.8485   19.5524 C   0  0  0  0  0  0
  -24.8204  -27.6834   19.5160 C   0  0  0  0  0  0
  -23.6411  -29.8411   20.1576 C   0  0  0  0  0  0
  -25.4115  -36.3099   24.0320 C   0  0  1  0  0  0
  -20.5907  -28.3727   23.1261 C   0  0  2  0  0  0
  -20.6784  -26.9439   22.5405 C   0  0  0  0  0  0
  -19.5758  -26.6391   21.5213 C   0  0  0  0  0  0
  -18.1940  -26.7934   22.1631 C   0  0  0  0  0  0
  -19.1552  -28.8873   23.2869 C   0  0  0  0  0  0
  -18.9472  -30.1471   23.8886 C   0  0  0  0  0  0
  -17.6466  -30.6587   24.0570 C   0  0  0  0  0  0
  -25.9064  -34.9463   23.5099 C   0  0  0  0  0  0
  -16.5360  -29.9098   23.6323 C   0  0  0  0  0  0
  -16.7284  -28.6516   23.0350 C   0  0  0  0  0  0
  -26.4489  -31.6591   25.0718 C   0  0  0  0  0  0
  -25.3702  -31.3718   26.1418 C   0  0  0  0  0  0
  -27.0336  -30.3009   24.6206 C   0  0  0  0  0  0
  -27.6010  -32.4359   25.7509 C   0  0  0  0  0  0
  -27.5598  -37.1799   24.8458 C   0  0  0  0  0  0
  -21.4209  -29.3076   22.3637 N   0  0  0  0  0  0
  -26.4299  -37.3806   23.9425 N   0  0  0  0  0  0
  -24.7035  -31.0536   22.0969 N   0  0  0  0  0  0
  -23.4212  -28.8146   23.2970 O   0  0  0  0  0  0
  -28.2639  -26.2857   20.1580 O   0  0  0  0  0  0
  -26.5667  -34.8950   22.4689 O   0  0  0  0  0  0
  -23.5503  -32.1381   23.7293 O   0  0  0  0  0  0
  -32.2196  -19.0284   20.8913 C   0  0  0  0  0  0
  -31.7362  -17.7269   20.7132 C   0  0  0  0  0  0
  -31.3721  -20.1489   20.9462 C   0  0  0  0  0  0
  -29.9768  -20.0381   20.6660 C   0  0  0  0  0  0
  -29.4965  -18.6449   20.4966 C   0  0  0  0  0  0
  -30.3612  -17.4486   20.5649 C   0  0  0  0  0  0
  -29.4706  -23.8911   19.5892 C   0  0  0  0  0  0
  -34.6640  -21.5217   17.3383 C   0  0  0  0  0  0
  -30.7297  -23.7940   19.0966 C   0  0  0  0  0  0
  -33.3907  -21.4584   17.7561 C   0  0  0  0  0  0
  -31.4241  -22.5888   18.6924 C   0  0  0  0  0  0
  -32.6761  -22.6297   18.2110 C   0  0  0  0  0  0
  -26.7115  -23.4021   18.7454 C   0  0  0  0  0  0
  -27.4984  -24.5947   18.1859 C   0  0  0  0  0  0
  -27.6532  -22.2003   18.9390 C   0  0  0  0  0  0
  -28.5793  -25.1895   19.1461 C   0  0  1  0  0  0
  -32.0512  -21.4243   21.4342 C   0  0  0  0  0  0
  -28.0097  -18.4058   20.2956 C   0  0  0  0  0  0
  -29.3566  -26.1410   18.1915 C   0  0  0  0  0  0
  -29.0669  -21.3724   20.9008 C   0  0  0  0  0  0
  -29.9218  -16.0014   20.5545 N   0  0  0  0  0  0
  -28.6690  -22.5563   19.9475 N   0  3  1  0  0  0
  -31.4637  -12.5821   19.1788 H   0  0  0  0  0  0
  -30.3588  -11.5234   20.0027 H   0  0  0  0  0  0
  -29.7854  -11.7162   17.5477 H   0  0  0  0  0  0
  -29.6183  -13.4499   17.7199 H   0  0  0  0  0  0
  -27.9028  -11.2801   18.9557 H   0  0  0  0  0  0
  -27.3736  -12.4963   17.8190 H   0  0  0  0  0  0
  -27.6118  -14.2584   19.4466 H   0  0  0  0  0  0
  -28.7329  -12.2433   21.4545 H   0  0  0  0  0  0
  -28.4225  -13.9322   21.7747 H   0  0  0  0  0  0
  -25.2785   -9.5662   22.4748 H   0  0  0  0  0  0
  -24.0040   -7.4610   22.7458 H   0  0  0  0  0  0
  -21.0893   -8.8749   19.8915 H   0  0  0  0  0  0
  -22.3740  -10.9665   19.6153 H   0  0  0  0  0  0
  -21.1979   -7.6145   23.9705 H   0  0  0  0  0  0
  -21.1488   -6.0537   25.9085 H   0  0  0  0  0  0
  -22.0606   -2.7598   23.2848 H   0  0  0  0  0  0
  -22.4170  -11.9795   22.4777 H   0  0  0  0  0  0
  -21.1100  -13.1092   22.2728 H   0  0  0  0  0  0
  -24.6420  -15.8448   20.4979 H   0  0  0  0  0  0
  -26.2560  -15.6269   20.0567 H   0  0  0  0  0  0
  -26.7193  -32.5400   23.1041 H   0  0  0  0  0  0
  -24.9968  -33.9691   25.0311 H   0  0  0  0  0  0
  -22.7255  -31.3140   21.4162 H   0  0  0  0  0  0
  -23.3789  -35.9599   23.3276 H   0  0  0  0  0  0
  -24.3539  -36.8972   22.2056 H   0  0  0  0  0  0
  -23.7217  -37.6476   23.6709 H   0  0  0  0  0  0
  -26.1283  -31.5278   20.6135 H   0  0  0  0  0  0
  -26.8587  -30.8027   22.0142 H   0  0  0  0  0  0
  -28.1231  -28.8900   21.1598 H   0  0  0  0  0  0
  -25.7312  -25.8463   19.2435 H   0  0  0  0  0  0
  -23.8977  -27.3125   19.0896 H   0  0  0  0  0  0
  -23.7642  -30.6283   19.4129 H   0  0  0  0  0  0
  -22.7528  -29.2851   19.8508 H   0  0  0  0  0  0
  -25.1295  -36.1921   25.0816 H   0  0  0  0  0  0
  -20.9993  -28.3328   24.1385 H   0  0  0  0  0  0
  -20.5707  -26.2339   23.3610 H   0  0  0  0  0  0
  -21.6661  -26.7465   22.1207 H   0  0  0  0  0  0
  -19.6937  -25.6308   21.1236 H   0  0  0  0  0  0
  -19.6698  -27.3203   20.6744 H   0  0  0  0  0  0
  -17.4207  -26.6679   21.4024 H   0  0  0  0  0  0
  -18.0352  -26.0067   22.9032 H   0  0  0  0  0  0
  -19.7948  -30.7293   24.2241 H   0  0  0  0  0  0
  -17.5028  -31.6265   24.5207 H   0  0  0  0  0  0
  -15.5372  -30.3008   23.7645 H   0  0  0  0  0  0
  -15.8678  -28.0841   22.7060 H   0  0  0  0  0  0
  -24.5858  -30.7112   25.7714 H   0  0  0  0  0  0
  -24.8913  -32.2882   26.4863 H   0  0  0  0  0  0
  -25.7970  -30.8841   27.0182 H   0  0  0  0  0  0
  -26.2916  -29.6743   24.1244 H   0  0  0  0  0  0
  -27.4047  -29.7277   25.4705 H   0  0  0  0  0  0
  -27.8781  -30.4296   23.9438 H   0  0  0  0  0  0
  -27.2566  -33.3639   26.2083 H   0  0  0  0  0  0
  -28.3801  -32.6946   25.0335 H   0  0  0  0  0  0
  -28.0701  -31.8504   26.5422 H   0  0  0  0  0  0
  -28.2597  -38.0116   24.7554 H   0  0  0  0  0  0
  -28.1123  -36.2655   24.6242 H   0  0  0  0  0  0
  -27.2311  -37.1397   25.8857 H   0  0  0  0  0  0
  -20.9382  -29.8829   21.6873 H   0  0  0  0  0  0
  -26.0181  -38.2880   24.1451 H   0  0  0  0  0  0
  -33.2798  -19.1535   21.0717 H   0  0  0  0  0  0
  -32.4737  -16.9443   20.7631 H   0  0  0  0  0  0
  -35.1863  -20.6414   16.9947 H   0  0  0  0  0  0
  -35.2083  -22.4563   17.3315 H   0  0  0  0  0  0
  -31.2140  -24.6904   18.7446 H   0  0  0  0  0  0
  -32.8864  -20.5001   17.7437 H   0  0  0  0  0  0
  -30.9264  -21.6339   18.7431 H   0  0  0  0  0  0
  -33.1743  -23.5881   18.1484 H   0  0  0  0  0  0
  -25.9157  -23.1330   18.0506 H   0  0  0  0  0  0
  -26.2243  -23.6649   19.6844 H   0  0  0  0  0  0
  -26.8751  -25.3412   17.7000 H   0  0  0  0  0  0
  -28.0217  -24.1889   17.3184 H   0  0  0  0  0  0
  -28.1413  -21.9140   18.0052 H   0  0  0  0  0  0
  -27.0575  -21.3463   19.2606 H   0  0  0  0  0  0
  -32.2984  -21.3208   22.4912 H   0  0  0  0  0  0
  -31.4712  -22.3354   21.3299 H   0  0  0  0  0  0
  -32.9855  -21.5771   20.8914 H   0  0  0  0  0  0
  -27.5795  -19.1434   19.6219 H   0  0  0  0  0  0
  -27.4811  -18.4425   21.2485 H   0  0  0  0  0  0
  -27.8219  -17.4330   19.8414 H   0  0  0  0  0  0
  -29.7781  -25.6294   17.3244 H   0  0  0  0  0  0
  -30.1701  -26.6565   18.7026 H   0  0  0  0  0  0
  -28.7045  -26.9163   17.7911 H   0  0  0  0  0  0
  -29.4399  -21.8553   21.8030 H   0  0  0  0  0  0
  -28.1158  -20.9803   21.2592 H   0  0  0  0  0  0
  -28.9307  -15.8634   20.6738 H   0  0  0  0  0  0
  -28.0276  -22.9402   20.6256 H   0  0  0  0  0  0
  1 25  1  0  0  0
  1 30  2  0  0  0
  1 91  1  0  0  0
  2  3  1  0  0  0
  2 25  1  0  0  0
  2 93  1  0  0  0
  2 94  1  0  0  0
  3  4  1  0  0  0
  3 95  1  0  0  0
  3 96  1  0  0  0
  4  5  1  0  0  0
  4 97  1  0  0  0
  4 98  1  0  0  0
  5  6  1  0  0  0
  5 26  1  0  0  0
  5 99  1  0  0  0
  6 25  1  0  0  0
  6100  1  0  0  0
  6101  1  0  0  0
  7  8  2  0  0  0
  7 26  1  0  0  0
  7 29  1  0  0  0
  8  9  1  0  0  0
  8 22  1  0  0  0
  9 10  1  0  0  0
  9 27  2  0  0  0
 10 11  2  0  0  0
 10 15  1  0  0  0
 11 12  1  0  0  0
 11102  1  0  0  0
 12 13  2  0  0  0
 12103  1  0  0  0
 13 14  1  0  0  0
 13 31  1  0  0  0
 14 15  2  0  0  0
 14104  1  0  0  0
 15105  1  0  0  0
 16 17  2  0  0  0
 16 21  1  0  0  0
 16 31  1  0  0  0
 17 18  1  0  0  0
 17106  1  0  0  0
 18 19  2  0  0  0
 18107  1  0  0  0
 19 20  1  0  0  0
 19 24  1  0  0  0
 20 21  2  0  0  0
 20108  1  0  0  0
 21 23  1  0  0  0
 22 28  1  0  0  0
 22 32  2  0  0  0
 26 27  1  0  0  0
 28109  1  0  0  0
 28110  1  0  0  0
 29111  1  0  0  0
 29112  1  0  0  0
 33 34  1  0  0  0
 33 66  1  0  0  0
 33 70  2  0  0  0
 34 36  1  0  0  0
 34 59  1  0  0  0
 34113  1  0  0  0
 35 44  2  0  0  0
 35 45  1  0  0  0
 35 68  1  0  0  0
 36 56  1  0  0  0
 36114  1  0  0  0
 37 39  1  0  0  0
 37 47  1  0  0  0
 37 66  1  0  0  0
 37115  1  0  0  0
 38 43  2  0  0  0
 38 46  1  0  0  0
 38 47  1  0  0  0
 39 64  1  0  0  0
 39 67  2  0  0  0
 40 52  1  0  0  0
 40 53  2  0  0  0
 40 58  1  0  0  0
 41116  1  0  0  0
 41117  1  0  0  0
 41118  1  0  0  0
 41 48  1  0  0  0
 42 43  1  0  0  0
 42 66  1  0  0  0
 42119  1  0  0  0
 42120  1  0  0  0
 43 44  1  0  0  0
 44121  1  0  0  0
 45 46  2  0  0  0
 45122  1  0  0  0
 46123  1  0  0  0
 47124  1  0  0  0
 47125  1  0  0  0
 48 56  1  0  0  0
 48 65  1  0  0  0
 48126  1  0  0  0
 49 50  1  0  0  0
 49 53  1  0  0  0
 49 64  1  0  0  0
 49127  1  0  0  0
 50 51  1  0  0  0
 50128  1  0  0  0
 50129  1  0  0  0
 51 52  1  0  0  0
 51130  1  0  0  0
 51131  1  0  0  0
 52132  1  0  0  0
 52133  1  0  0  0
 53 54  1  0  0  0
 54 55  2  0  0  0
 54134  1  0  0  0
 55 57  1  0  0  0
 55135  1  0  0  0
 56 69  2  0  0  0
 57 58  2  0  0  0
 57136  1  0  0  0
 58137  1  0  0  0
 59 60  1  0  0  0
 59 61  1  0  0  0
 59 62  1  0  0  0
 60138  1  0  0  0
 60139  1  0  0  0
 60140  1  0  0  0
 61141  1  0  0  0
 61142  1  0  0  0
 61143  1  0  0  0
 62144  1  0  0  0
 62145  1  0  0  0
 62146  1  0  0  0
 63 65  1  0  0  0
 63147  1  0  0  0
 63148  1  0  0  0
 63149  1  0  0  0
 64150  1  0  0  0
 65151  1  0  0  0
 68 86  1  0  0  0
 71 72  2  0  0  0
 71 73  1  0  0  0
 71152  1  0  0  0
 72 76  1  0  0  0
 72153  1  0  0  0
 73 74  2  0  0  0
 73 87  1  0  0  0
 74 75  1  0  0  0
 74 90  1  0  0  0
 75 76  2  0  0  0
 75 88  1  0  0  0
 76 91  1  0  0  0
 77 79  2  0  0  0
 77 86  1  0  0  0
 77 92  1  0  0  0
 78 80  2  0  0  0
 78154  1  0  0  0
 78155  1  0  0  0
 79 81  1  0  0  0
 79156  1  0  0  0
 80 82  1  0  0  0
 80157  1  0  0  0
 81 82  2  0  0  0
 81158  1  0  0  0
 82159  1  0  0  0
 83 84  1  0  0  0
 83 85  1  0  0  0
 83160  1  0  0  0
 83161  1  0  0  0
 84 86  1  0  0  0
 84162  1  0  0  0
 84163  1  0  0  0
 85 92  1  0  0  0
 85164  1  0  0  0
 85165  1  0  0  0
 86 89  1  0  0  0
 87166  1  0  0  0
 87167  1  0  0  0
 87168  1  0  0  0
 88169  1  0  0  0
 88170  1  0  0  0
 88171  1  0  0  0
 89172  1  0  0  0
 89173  1  0  0  0
 89174  1  0  0  0
 90175  1  0  0  0
 90176  1  0  0  0
 90 92  1  0  0  0
 91177  1  0  0  0
 92178  1  0  0  0
M  CHG  1  92   1
M  ISO  4   1 100  68 101  86 101  91 100
M  END
> <chiral flag>
0

> <version>
0

> <s_m_source_file>
/data/baiqing/PycharmProjects/Reinvent-master-3.2/result/LINK_invent/BTK/process_docking_weight1_custom_product_contain_oxygen_bond_distance_aromatic_linkinvent_7_9_3/rearranged_h_0046.sdf

> <i_m_source_file_index>
85

> <r_mmod_Potential_Energy-OPLS-2005>
349.114471435547

> <r_mmod_Stretch_Energy-OPLS-2005>
200.914642333984

> <r_mmod_Bend_Energy-OPLS-2005>
337.342163085938

> <r_mmod_Torsional_Energy-OPLS-2005>
252.318923950195

> <r_mmod_Improper_Torsional_Energy-OPLS-2005>
11.7964954376221

> <r_mmod_Van_der_Waal_Energy-OPLS-2005>
176.014022827148

> <r_mmod_Electrostatic_Energy-OPLS-2005>
-313.626861572266

> <r_mmod_Solvation_Energy-OPLS-2005>
-428.009796142578

> <b_mmod_Minimization_Converged-OPLS-2005>
0

> <r_mmod_RMS_Derivative-OPLS-2005>
3.36093235015869

$$$$
85
                    3D
 Structure written by MMmdl.
160169  0  0  1  0            999 V2000
  -30.5194  -14.9299   20.4381 C   0  0  0  0  0  0
  -30.4512  -12.5753   19.4982 C   0  0  0  0  0  0
  -29.5260  -12.5352   18.2581 C   0  0  0  0  0  0
  -28.0578  -12.3202   18.6737 C   0  0  0  0  0  0
  -27.6368  -13.2419   19.8476 C   0  0  2  0  0  0
  -28.6798  -13.2353   20.9865 C   0  0  0  0  0  0
  -25.2491  -13.8204   20.5712 C   0  0  0  0  0  0
  -24.1795  -13.0433   20.9219 C   0  0  0  0  0  0
  -24.6401  -11.6917   20.8752 C   0  0  0  0  0  0
  -23.9081  -10.4289   21.0403 C   0  0  0  0  0  0
  -24.3625   -9.4204   21.9184 C   0  0  0  0  0  0
  -23.6293   -8.2244   22.0755 C   0  0  0  0  0  0
  -22.4277   -8.0283   21.3542 C   0  0  0  0  0  0
  -21.9914   -9.0256   20.4647 C   0  0  0  0  0  0
  -22.7250  -10.2132   20.3053 C   0  0  0  0  0  0
  -21.6854   -6.0737   22.5277 C   0  0  0  0  0  0
  -21.4016   -6.5644   23.8210 C   0  0  0  0  0  0
  -21.3657   -5.6792   24.9171 C   0  0  0  0  0  0
  -21.6040   -4.3052   24.7221 C   0  0  0  0  0  0
  -21.8821   -3.8144   23.4343 C   0  0  0  0  0  0
  -21.9195   -4.6963   22.3401 C   0  0  0  0  0  0
  -22.7814  -13.5209   21.1874 C   0  0  0  0  0  0
  -22.1661   -4.2148   21.0977 F   0  0  0  0  0  0
  -21.5626   -3.4536   25.7733 F   0  0  0  0  0  0
  -29.9621  -13.6535   20.4011 N   0  0  0  0  0  0
  -26.2919  -12.9425   20.3272 N   0  0  0  0  0  0
  -25.9336  -11.6556   20.5747 N   0  0  0  0  0  0
  -22.0462  -12.8201   22.0434 N   0  0  0  0  0  0
  -25.4163  -15.1935   20.4139 N   0  0  0  0  0  0
  -31.7081  -15.0492   20.1211 O   0  0  0  0  0  0
  -21.6642   -6.8878   21.4237 O   0  0  0  0  0  0
  -22.3492  -14.5515   20.6720 O   0  0  0  0  0  0
  -24.6433  -31.8444   23.1876 C   0  0  0  0  0  0
  -25.9197  -32.4706   23.8270 C   0  0  1  0  0  0
  -27.2194  -27.1334   20.1575 C   0  0  0  0  0  0
  -25.5945  -33.8511   24.2192 N   0  0  0  0  0  0
  -23.4481  -30.4632   21.5331 C   0  0  2  0  0  0
  -24.8981  -28.8872   20.1137 C   0  0  0  0  0  0
  -22.7574  -29.4551   22.4859 C   0  0  0  0  0  0
  -18.0308  -28.1402   22.8488 C   0  0  0  0  0  0
  -24.1479  -36.7246   23.2651 C   0  0  0  0  0  0
  -26.0044  -30.7163   21.3878 C   0  0  0  0  0  0
  -26.0753  -29.3255   20.7334 C   0  0  0  0  0  0
  -27.2376  -28.4656   20.7369 C   0  0  0  0  0  0
  -26.0193  -26.8017   19.4903 C   0  0  0  0  0  0
  -24.8827  -27.6378   19.4764 C   0  0  0  0  0  0
  -23.6756  -29.7905   20.1535 C   0  0  0  0  0  0
  -25.4114  -36.3039   24.0329 C   0  0  1  0  0  0
  -20.5926  -28.3727   23.1234 C   0  0  2  0  0  0
  -20.6794  -26.9429   22.5404 C   0  0  0  0  0  0
  -19.5763  -26.6383   21.5221 C   0  0  0  0  0  0
  -18.1944  -26.7946   22.1627 C   0  0  0  0  0  0
  -19.1570  -28.8881   23.2857 C   0  0  0  0  0  0
  -18.9489  -30.1478   23.8880 C   0  0  0  0  0  0
  -17.6488  -30.6606   24.0564 C   0  0  0  0  0  0
  -25.9068  -34.9418   23.5069 C   0  0  0  0  0  0
  -16.5374  -29.9100   23.6342 C   0  0  0  0  0  0
  -16.7294  -28.6515   23.0369 C   0  0  0  0  0  0
  -26.4516  -31.6579   25.0714 C   0  0  0  0  0  0
  -25.3690  -31.3767   26.1402 C   0  0  0  0  0  0
  -27.0397  -30.2986   24.6287 C   0  0  0  0  0  0
  -27.6045  -32.4348   25.7491 C   0  0  0  0  0  0
  -27.5570  -37.1779   24.8477 C   0  0  0  0  0  0
  -21.4268  -29.3054   22.3604 N   0  0  0  0  0  0
  -26.4277  -37.3754   23.9425 N   0  0  0  0  0  0
  -24.7185  -31.0295   22.0914 N   0  0  0  0  0  0
  -23.4216  -28.8109   23.3018 O   0  0  0  0  0  0
  -28.2792  -26.1521   20.1908 O   0  0  0  0  0  0
  -26.5661  -34.8918   22.4651 O   0  0  0  0  0  0
  -23.5547  -32.1318   23.7089 O   0  0  0  0  0  0
  -29.2356  -19.7609   21.8840 C   0  0  0  0  0  0
  -29.5983  -19.8995   19.5734 C   0  0  0  0  0  0
  -29.4152  -18.3218   21.8590 C   0  0  0  0  0  0
  -29.3308  -20.6632   20.7663 C   0  0  0  0  0  0
  -29.7162  -17.5691   20.6759 C   0  0  0  0  0  0
  -29.7802  -18.4436   19.5253 C   0  0  0  0  0  0
  -29.7913  -22.7280   22.1190 C   0  0  0  0  0  0
  -30.8733  -22.2263   22.7430 C   0  0  0  0  0  0
  -29.1977  -24.0427   22.6422 C   0  0  0  0  0  0
  -27.8709  -24.4701   21.9989 C   0  0  0  0  0  0
  -28.8453  -23.2745   19.9605 C   0  0  0  0  0  0
  -28.0098  -24.6397   20.4832 C   0  0  2  0  0  0
  -29.2667  -17.5691   23.1708 C   0  0  0  0  0  0
  -29.2260  -22.1511   20.9648 N   0  0  0  0  0  0
  -29.6684  -16.0340   20.6854 N   0  0  0  0  0  0
  -30.0382  -17.7216   17.9774 Cl  0  0  0  0  0  0
  -31.4834  -12.7463   19.1882 H   0  0  0  0  0  0
  -30.4505  -11.6140   20.0144 H   0  0  0  0  0  0
  -29.8419  -11.7456   17.5756 H   0  0  0  0  0  0
  -29.6146  -13.4717   17.7055 H   0  0  0  0  0  0
  -27.9516  -11.2765   18.9715 H   0  0  0  0  0  0
  -27.3937  -12.4620   17.8205 H   0  0  0  0  0  0
  -27.6097  -14.2509   19.4353 H   0  0  0  0  0  0
  -28.7606  -12.2447   21.4371 H   0  0  0  0  0  0
  -28.3796  -13.9108   21.7891 H   0  0  0  0  0  0
  -25.2770   -9.5679   22.4763 H   0  0  0  0  0  0
  -23.9997   -7.4635   22.7478 H   0  0  0  0  0  0
  -21.0845   -8.8775   19.8954 H   0  0  0  0  0  0
  -22.3708  -10.9669   19.6163 H   0  0  0  0  0  0
  -21.2012   -7.6154   23.9713 H   0  0  0  0  0  0
  -21.1475   -6.0523   25.9072 H   0  0  0  0  0  0
  -22.0603   -2.7604   23.2842 H   0  0  0  0  0  0
  -22.4080  -11.9855   22.4810 H   0  0  0  0  0  0
  -21.1088  -13.1225   22.2650 H   0  0  0  0  0  0
  -24.6412  -15.8403   20.5166 H   0  0  0  0  0  0
  -26.2539  -15.6363   20.0601 H   0  0  0  0  0  0
  -26.7266  -32.5309   23.1001 H   0  0  0  0  0  0
  -25.0070  -33.9625   25.0325 H   0  0  0  0  0  0
  -22.7512  -31.2891   21.3765 H   0  0  0  0  0  0
  -23.3761  -35.9559   23.3309 H   0  0  0  0  0  0
  -24.3560  -36.8867   22.2065 H   0  0  0  0  0  0
  -23.7204  -37.6432   23.6677 H   0  0  0  0  0  0
  -26.1591  -31.4669   20.6115 H   0  0  0  0  0  0
  -26.8761  -30.7694   22.0285 H   0  0  0  0  0  0
  -28.1353  -28.7984   21.2389 H   0  0  0  0  0  0
  -25.9325  -25.8581   18.9733 H   0  0  0  0  0  0
  -23.9874  -27.2987   18.9736 H   0  0  0  0  0  0
  -23.8141  -30.5636   19.3971 H   0  0  0  0  0  0
  -22.7905  -29.2325   19.8415 H   0  0  0  0  0  0
  -25.1298  -36.1869   25.0822 H   0  0  0  0  0  0
  -21.0016  -28.3313   24.1357 H   0  0  0  0  0  0
  -20.5692  -26.2346   23.3630 H   0  0  0  0  0  0
  -21.6656  -26.7443   22.1189 H   0  0  0  0  0  0
  -19.6926  -25.6288   21.1259 H   0  0  0  0  0  0
  -19.6697  -27.3188   20.6750 H   0  0  0  0  0  0
  -17.4215  -26.6709   21.4026 H   0  0  0  0  0  0
  -18.0329  -26.0091   22.9022 H   0  0  0  0  0  0
  -19.7966  -30.7300   24.2236 H   0  0  0  0  0  0
  -17.5046  -31.6283   24.5172 H   0  0  0  0  0  0
  -15.5379  -30.3005   23.7687 H   0  0  0  0  0  0
  -15.8689  -28.0831   22.7106 H   0  0  0  0  0  0
  -24.5883  -30.7105   25.7714 H   0  0  0  0  0  0
  -24.8866  -32.2949   26.4761 H   0  0  0  0  0  0
  -25.7960  -30.8980   27.0225 H   0  0  0  0  0  0
  -26.3030  -29.6700   24.1277 H   0  0  0  0  0  0
  -27.4022  -29.7287   25.4853 H   0  0  0  0  0  0
  -27.8919  -30.4257   23.9607 H   0  0  0  0  0  0
  -27.2646  -33.3684   26.1986 H   0  0  0  0  0  0
  -28.3889  -32.6847   25.0333 H   0  0  0  0  0  0
  -28.0674  -31.8524   26.5466 H   0  0  0  0  0  0
  -28.2587  -38.0077   24.7525 H   0  0  0  0  0  0
  -28.1057  -36.2607   24.6293 H   0  0  0  0  0  0
  -27.2291  -37.1411   25.8881 H   0  0  0  0  0  0
  -20.9484  -29.8756   21.6768 H   0  0  0  0  0  0
  -26.0145  -38.2819   24.1442 H   0  0  0  0  0  0
  -29.0142  -20.2031   22.8449 H   0  0  0  0  0  0
  -29.6902  -20.4422   18.6447 H   0  0  0  0  0  0
  -31.2906  -22.7177   23.6113 H   0  0  0  0  0  0
  -31.3809  -21.3342   22.4041 H   0  0  0  0  0  0
  -29.9358  -24.8351   22.5066 H   0  0  0  0  0  0
  -29.0468  -23.9487   23.7185 H   0  0  0  0  0  0
  -27.4927  -25.3829   22.4588 H   0  0  0  0  0  0
  -27.1271  -23.6990   22.2075 H   0  0  0  0  0  0
  -29.7815  -23.6150   19.5159 H   0  0  0  0  0  0
  -28.2937  -22.8213   19.1368 H   0  0  0  0  0  0
  -27.0080  -24.4530   20.1050 H   0  0  0  0  0  0
  -29.1883  -18.2470   24.0208 H   0  0  0  0  0  0
  -30.1316  -16.9271   23.3415 H   0  0  0  0  0  0
  -28.3742  -16.9435   23.1559 H   0  0  0  0  0  0
  -28.7692  -15.6951   20.9893 H   0  0  0  0  0  0
  1 25  1  0  0  0
  1 30  2  0  0  0
  1 85  1  0  0  0
  2  3  1  0  0  0
  2 25  1  0  0  0
  2 87  1  0  0  0
  2 88  1  0  0  0
  3  4  1  0  0  0
  3 89  1  0  0  0
  3 90  1  0  0  0
  4  5  1  0  0  0
  4 91  1  0  0  0
  4 92  1  0  0  0
  5  6  1  0  0  0
  5 26  1  0  0  0
  5 93  1  0  0  0
  6 25  1  0  0  0
  6 94  1  0  0  0
  6 95  1  0  0  0
  7  8  2  0  0  0
  7 26  1  0  0  0
  7 29  1  0  0  0
  8  9  1  0  0  0
  8 22  1  0  0  0
  9 10  1  0  0  0
  9 27  2  0  0  0
 10 11  2  0  0  0
 10 15  1  0  0  0
 11 12  1  0  0  0
 11 96  1  0  0  0
 12 13  2  0  0  0
 12 97  1  0  0  0
 13 14  1  0  0  0
 13 31  1  0  0  0
 14 15  2  0  0  0
 14 98  1  0  0  0
 15 99  1  0  0  0
 16 17  2  0  0  0
 16 21  1  0  0  0
 16 31  1  0  0  0
 17 18  1  0  0  0
 17100  1  0  0  0
 18 19  2  0  0  0
 18101  1  0  0  0
 19 20  1  0  0  0
 19 24  1  0  0  0
 20 21  2  0  0  0
 20102  1  0  0  0
 21 23  1  0  0  0
 22 28  1  0  0  0
 22 32  2  0  0  0
 26 27  1  0  0  0
 28103  1  0  0  0
 28104  1  0  0  0
 29105  1  0  0  0
 29106  1  0  0  0
 33 34  1  0  0  0
 33 66  1  0  0  0
 33 70  2  0  0  0
 34 36  1  0  0  0
 34 59  1  0  0  0
 34107  1  0  0  0
 35 44  2  0  0  0
 35 45  1  0  0  0
 35 68  1  0  0  0
 36 56  1  0  0  0
 36108  1  0  0  0
 37 39  1  0  0  0
 37 47  1  0  0  0
 37 66  1  0  0  0
 37109  1  0  0  0
 38 43  2  0  0  0
 38 46  1  0  0  0
 38 47  1  0  0  0
 39 64  1  0  0  0
 39 67  2  0  0  0
 40 52  1  0  0  0
 40 53  2  0  0  0
 40 58  1  0  0  0
 41110  1  0  0  0
 41111  1  0  0  0
 41112  1  0  0  0
 41 48  1  0  0  0
 42 43  1  0  0  0
 42 66  1  0  0  0
 42113  1  0  0  0
 42114  1  0  0  0
 43 44  1  0  0  0
 44115  1  0  0  0
 45 46  2  0  0  0
 45116  1  0  0  0
 46117  1  0  0  0
 47118  1  0  0  0
 47119  1  0  0  0
 48 56  1  0  0  0
 48 65  1  0  0  0
 48120  1  0  0  0
 49 50  1  0  0  0
 49 53  1  0  0  0
 49 64  1  0  0  0
 49121  1  0  0  0
 50 51  1  0  0  0
 50122  1  0  0  0
 50123  1  0  0  0
 51 52  1  0  0  0
 51124  1  0  0  0
 51125  1  0  0  0
 52126  1  0  0  0
 52127  1  0  0  0
 53 54  1  0  0  0
 54 55  2  0  0  0
 54128  1  0  0  0
 55 57  1  0  0  0
 55129  1  0  0  0
 56 69  2  0  0  0
 57 58  2  0  0  0
 57130  1  0  0  0
 58131  1  0  0  0
 59 60  1  0  0  0
 59 61  1  0  0  0
 59 62  1  0  0  0
 60132  1  0  0  0
 60133  1  0  0  0
 60134  1  0  0  0
 61135  1  0  0  0
 61136  1  0  0  0
 61137  1  0  0  0
 62138  1  0  0  0
 62139  1  0  0  0
 62140  1  0  0  0
 63 65  1  0  0  0
 63141  1  0  0  0
 63142  1  0  0  0
 63143  1  0  0  0
 64144  1  0  0  0
 65145  1  0  0  0
 68 82  1  0  0  0
 71 73  2  0  0  0
 71 74  1  0  0  0
 71146  1  0  0  0
 72 74  2  0  0  0
 72 76  1  0  0  0
 72147  1  0  0  0
 73 75  1  0  0  0
 73 83  1  0  0  0
 74 84  1  0  0  0
 75 76  2  0  0  0
 75 85  1  0  0  0
 76 86  1  0  0  0
 77 78  2  0  0  0
 77 79  1  0  0  0
 77 84  1  0  0  0
 78148  1  0  0  0
 78149  1  0  0  0
 79 80  1  0  0  0
 79150  1  0  0  0
 79151  1  0  0  0
 80 82  1  0  0  0
 80152  1  0  0  0
 80153  1  0  0  0
 81 82  1  0  0  0
 81 84  1  0  0  0
 81154  1  0  0  0
 81155  1  0  0  0
 82156  1  0  0  0
 83157  1  0  0  0
 83158  1  0  0  0
 83159  1  0  0  0
 85160  1  0  0  0
M  ISO  4   1 100  68 101  82 101  85 100
M  END
> <chiral flag>
0

> <version>
0

> <s_m_source_file>
/data/baiqing/PycharmProjects/Reinvent-master-3.2/result/LINK_invent/BTK/process_docking_weight1_custom_product_contain_oxygen_bond_distance_aromatic_linkinvent_7_9_3/rearranged_h_0046.sdf

> <i_m_source_file_index>
86

> <r_mmod_Potential_Energy-OPLS-2005>
489.087097167969

> <r_mmod_Stretch_Energy-OPLS-2005>
232.852172851562

> <r_mmod_Bend_Energy-OPLS-2005>
276.818939208984

> <r_mmod_Torsional_Energy-OPLS-2005>
286.211334228516

> <r_mmod_Improper_Torsional_Energy-OPLS-2005>
5.72704935073853

> <r_mmod_Van_der_Waal_Energy-OPLS-2005>
142.97932434082

> <r_mmod_Electrostatic_Energy-OPLS-2005>
-431.823028564453

> <r_mmod_Solvation_Energy-OPLS-2005>
-208.779113769531

> <b_mmod_Minimization_Converged-OPLS-2005>
0

> <r_mmod_RMS_Derivative-OPLS-2005>
1.08897078037262

$$$$
86
                    3D
 Structure written by MMmdl.
163172  0  0  1  0            999 V2000
  -30.5771  -14.6809   20.4979 C   0  0  0  0  0  0
  -30.4498  -12.4210   19.4442 C   0  0  0  0  0  0
  -29.5099  -12.5001   18.2194 C   0  0  0  0  0  0
  -28.0314  -12.3317   18.6323 C   0  0  0  0  0  0
  -27.6473  -13.2075   19.8526 C   0  0  2  0  0  0
  -28.6948  -13.0672   20.9758 C   0  0  0  0  0  0
  -25.2558  -13.8144   20.5692 C   0  0  0  0  0  0
  -24.1827  -13.0425   20.9219 C   0  0  0  0  0  0
  -24.6382  -11.6896   20.8758 C   0  0  0  0  0  0
  -23.9049  -10.4288   21.0420 C   0  0  0  0  0  0
  -24.3607   -9.4204   21.9197 C   0  0  0  0  0  0
  -23.6286   -8.2239   22.0755 C   0  0  0  0  0  0
  -22.4267   -8.0277   21.3543 C   0  0  0  0  0  0
  -21.9905   -9.0254   20.4646 C   0  0  0  0  0  0
  -22.7230  -10.2133   20.3059 C   0  0  0  0  0  0
  -21.6847   -6.0735   22.5284 C   0  0  0  0  0  0
  -21.4016   -6.5640   23.8218 C   0  0  0  0  0  0
  -21.3657   -5.6787   24.9179 C   0  0  0  0  0  0
  -21.6042   -4.3050   24.7225 C   0  0  0  0  0  0
  -21.8819   -3.8147   23.4345 C   0  0  0  0  0  0
  -21.9196   -4.6968   22.3402 C   0  0  0  0  0  0
  -22.7854  -13.5231   21.1885 C   0  0  0  0  0  0
  -22.1663   -4.2155   21.0981 F   0  0  0  0  0  0
  -21.5625   -3.4533   25.7736 F   0  0  0  0  0  0
  -29.9987  -13.4409   20.4081 N   0  0  0  0  0  0
  -26.2953  -12.9297   20.3276 N   0  0  0  0  0  0
  -25.9295  -11.6464   20.5741 N   0  0  0  0  0  0
  -22.0484  -12.8219   22.0430 N   0  0  0  0  0  0
  -25.4264  -15.1870   20.4090 N   0  0  0  0  0  0
  -31.7687  -14.8588   20.2293 O   0  0  0  0  0  0
  -21.6629   -6.8878   21.4239 O   0  0  0  0  0  0
  -22.3557  -14.5554   20.6748 O   0  0  0  0  0  0
  -24.6261  -31.8582   23.1973 C   0  0  0  0  0  0
  -25.9105  -32.4770   23.8310 C   0  0  1  0  0  0
  -27.2347  -27.3090   20.1328 C   0  0  0  0  0  0
  -25.5925  -33.8572   24.2248 N   0  0  0  0  0  0
  -23.4204  -30.4787   21.5403 C   0  0  2  0  0  0
  -24.8679  -28.9158   20.1227 C   0  0  0  0  0  0
  -22.7459  -29.4633   22.4929 C   0  0  0  0  0  0
  -18.0296  -28.1403   22.8502 C   0  0  0  0  0  0
  -24.1484  -36.7284   23.2642 C   0  0  0  0  0  0
  -25.9599  -30.7863   21.3661 C   0  0  0  0  0  0
  -26.0349  -29.4052   20.7236 C   0  0  0  0  0  0
  -27.2225  -28.6156   20.7130 C   0  0  0  0  0  0
  -26.0449  -26.8621   19.5235 C   0  0  0  0  0  0
  -24.8734  -27.6478   19.5161 C   0  0  0  0  0  0
  -23.6373  -29.8009   20.1602 C   0  0  0  0  0  0
  -25.4112  -36.3083   24.0331 C   0  0  1  0  0  0
  -20.5891  -28.3705   23.1290 C   0  0  2  0  0  0
  -20.6781  -26.9428   22.5414 C   0  0  0  0  0  0
  -19.5761  -26.6409   21.5217 C   0  0  0  0  0  0
  -18.1939  -26.7955   22.1622 C   0  0  0  0  0  0
  -19.1548  -28.8867   23.2894 C   0  0  0  0  0  0
  -18.9473  -30.1471   23.8910 C   0  0  0  0  0  0
  -17.6478  -30.6608   24.0581 C   0  0  0  0  0  0
  -25.9051  -34.9456   23.5097 C   0  0  0  0  0  0
  -16.5367  -29.9117   23.6342 C   0  0  0  0  0  0
  -16.7281  -28.6535   23.0357 C   0  0  0  0  0  0
  -26.4482  -31.6590   25.0695 C   0  0  0  0  0  0
  -25.3715  -31.3747   26.1421 C   0  0  0  0  0  0
  -27.0312  -30.3021   24.6131 C   0  0  0  0  0  0
  -27.6033  -32.4321   25.7484 C   0  0  0  0  0  0
  -27.5571  -37.1799   24.8470 C   0  0  0  0  0  0
  -21.4175  -29.3060   22.3673 N   0  0  0  0  0  0
  -26.4285  -37.3784   23.9415 N   0  0  0  0  0  0
  -24.6879  -31.0590   22.0922 N   0  0  0  0  0  0
  -23.4178  -28.8185   23.3022 O   0  0  0  0  0  0
  -28.3983  -26.5353   20.0259 O   0  0  0  0  0  0
  -26.5615  -34.8933   22.4659 O   0  0  0  0  0  0
  -23.5433  -32.1363   23.7316 O   0  0  0  0  0  0
  -29.2258  -19.6391   22.3039 C   0  0  0  0  0  0
  -28.9845  -18.4528   23.0198 C   0  0  0  0  0  0
  -29.9249  -18.2941   20.3927 C   0  0  0  0  0  0
  -29.7090  -19.6045   20.9814 C   0  0  0  0  0  0
  -29.6941  -17.0622   21.1199 C   0  0  0  0  0  0
  -29.2179  -17.1873   22.4487 C   0  0  0  0  0  0
  -27.5839  -24.0008   20.3430 C   0  0  0  0  0  0
  -29.9923  -24.6332   20.3562 C   0  0  0  0  0  0
  -28.1816  -22.5880   20.7674 C   0  0  0  0  0  0
  -28.5580  -25.1904   20.6348 C   0  0  1  0  0  0
  -30.0849  -23.3717   19.4108 C   0  0  1  0  0  0
  -31.5494  -23.1232   18.9822 C   0  0  0  0  0  0
  -30.2183  -20.9658   20.3685 C   0  0  0  0  0  0
  -29.6750  -15.7165   20.5385 N   0  0  0  0  0  0
  -29.3380  -22.1443   19.9145 N   0  3  1  0  0  0
  -28.8726  -15.7978   23.4162 Cl  0  0  0  0  0  0
  -31.4847  -12.5829   19.1384 H   0  0  0  0  0  0
  -30.4189  -11.4292   19.8975 H   0  0  0  0  0  0
  -29.7810  -11.7363   17.4893 H   0  0  0  0  0  0
  -29.6411  -13.4607   17.7187 H   0  0  0  0  0  0
  -27.8747  -11.2798   18.8729 H   0  0  0  0  0  0
  -27.3755  -12.5511   17.7892 H   0  0  0  0  0  0
  -27.6557  -14.2386   19.5008 H   0  0  0  0  0  0
  -28.7242  -12.0421   21.3491 H   0  0  0  0  0  0
  -28.4294  -13.6839   21.8315 H   0  0  0  0  0  0
  -25.2745   -9.5683   22.4781 H   0  0  0  0  0  0
  -23.9994   -7.4623   22.7467 H   0  0  0  0  0  0
  -21.0840   -8.8768   19.8947 H   0  0  0  0  0  0
  -22.3687  -10.9675   19.6172 H   0  0  0  0  0  0
  -21.2006   -7.6146   23.9727 H   0  0  0  0  0  0
  -21.1478   -6.0514   25.9083 H   0  0  0  0  0  0
  -22.0602   -2.7611   23.2840 H   0  0  0  0  0  0
  -22.4062  -11.9849   22.4782 H   0  0  0  0  0  0
  -21.1113  -13.1273   22.2652 H   0  0  0  0  0  0
  -24.6560  -15.8359   20.5284 H   0  0  0  0  0  0
  -26.2590  -15.6317   20.0483 H   0  0  0  0  0  0
  -26.7171  -32.5429   23.1054 H   0  0  0  0  0  0
  -25.0087  -33.9711   25.0411 H   0  0  0  0  0  0
  -22.7179  -31.3005   21.3904 H   0  0  0  0  0  0
  -23.3754  -35.9610   23.3313 H   0  0  0  0  0  0
  -24.3572  -36.8892   22.2052 H   0  0  0  0  0  0
  -23.7229  -37.6489   23.6652 H   0  0  0  0  0  0
  -26.0841  -31.5413   20.5883 H   0  0  0  0  0  0
  -26.8434  -30.8455   21.9888 H   0  0  0  0  0  0
  -28.1284  -29.0042   21.1572 H   0  0  0  0  0  0
  -26.0221  -25.9029   19.0282 H   0  0  0  0  0  0
  -23.9795  -27.2695   19.0385 H   0  0  0  0  0  0
  -23.7571  -30.5701   19.3962 H   0  0  0  0  0  0
  -22.7571  -29.2287   19.8605 H   0  0  0  0  0  0
  -25.1299  -36.1926   25.0824 H   0  0  0  0  0  0
  -20.9987  -28.3279   24.1408 H   0  0  0  0  0  0
  -20.5699  -26.2305   23.3611 H   0  0  0  0  0  0
  -21.6650  -26.7475   22.1196 H   0  0  0  0  0  0
  -19.6916  -25.6326   21.1241 H   0  0  0  0  0  0
  -19.6702  -27.3228   20.6761 H   0  0  0  0  0  0
  -17.4208  -26.6719   21.4025 H   0  0  0  0  0  0
  -18.0324  -26.0104   22.9026 H   0  0  0  0  0  0
  -19.7952  -30.7292   24.2267 H   0  0  0  0  0  0
  -17.5044  -31.6286   24.5191 H   0  0  0  0  0  0
  -15.5368  -30.3031   23.7675 H   0  0  0  0  0  0
  -15.8677  -28.0870   22.7053 H   0  0  0  0  0  0
  -24.5913  -30.7054   25.7776 H   0  0  0  0  0  0
  -24.8870  -32.2921   26.4780 H   0  0  0  0  0  0
  -25.8047  -30.9000   27.0234 H   0  0  0  0  0  0
  -26.2882  -29.6802   24.1118 H   0  0  0  0  0  0
  -27.3991  -29.7243   25.4619 H   0  0  0  0  0  0
  -27.8761  -30.4324   23.9363 H   0  0  0  0  0  0
  -27.2634  -33.3637   26.2018 H   0  0  0  0  0  0
  -28.3875  -32.6839   25.0334 H   0  0  0  0  0  0
  -28.0647  -31.8458   26.5434 H   0  0  0  0  0  0
  -28.2599  -38.0092   24.7515 H   0  0  0  0  0  0
  -28.1058  -36.2619   24.6301 H   0  0  0  0  0  0
  -27.2285  -37.1452   25.8876 H   0  0  0  0  0  0
  -20.9347  -29.8774   21.6879 H   0  0  0  0  0  0
  -26.0163  -38.2856   24.1428 H   0  0  0  0  0  0
  -29.0875  -20.5835   22.8116 H   0  0  0  0  0  0
  -28.6233  -18.5138   24.0364 H   0  0  0  0  0  0
  -30.2903  -18.2318   19.3774 H   0  0  0  0  0  0
  -26.6476  -24.1743   20.8730 H   0  0  0  0  0  0
  -27.3235  -23.9780   19.2849 H   0  0  0  0  0  0
  -30.4581  -24.3758   21.3089 H   0  0  0  0  0  0
  -30.6076  -25.4404   19.9576 H   0  0  0  0  0  0
  -27.4074  -21.8216   20.7226 H   0  0  0  0  0  0
  -28.5004  -22.6399   21.8091 H   0  0  0  0  0  0
  -28.5026  -25.3774   21.7080 H   0  0  0  0  0  0
  -29.5727  -23.6550   18.4900 H   0  0  0  0  0  0
  -32.1907  -22.8579   19.8224 H   0  0  0  0  0  0
  -31.9731  -24.0262   18.5415 H   0  0  0  0  0  0
  -31.6273  -22.3435   18.2225 H   0  0  0  0  0  0
  -30.8428  -20.6712   19.5262 H   0  0  0  0  0  0
  -30.9083  -21.3655   21.1124 H   0  0  0  0  0  0
  -28.7472  -15.3248   20.5500 H   0  0  0  0  0  0
  -28.8984  -21.7710   19.0849 H   0  0  0  0  0  0
  1 25  1  0  0  0
  1 30  2  0  0  0
  1 84  1  0  0  0
  2  3  1  0  0  0
  2 25  1  0  0  0
  2 87  1  0  0  0
  2 88  1  0  0  0
  3  4  1  0  0  0
  3 89  1  0  0  0
  3 90  1  0  0  0
  4  5  1  0  0  0
  4 91  1  0  0  0
  4 92  1  0  0  0
  5  6  1  0  0  0
  5 26  1  0  0  0
  5 93  1  0  0  0
  6 25  1  0  0  0
  6 94  1  0  0  0
  6 95  1  0  0  0
  7  8  2  0  0  0
  7 26  1  0  0  0
  7 29  1  0  0  0
  8  9  1  0  0  0
  8 22  1  0  0  0
  9 10  1  0  0  0
  9 27  2  0  0  0
 10 11  2  0  0  0
 10 15  1  0  0  0
 11 12  1  0  0  0
 11 96  1  0  0  0
 12 13  2  0  0  0
 12 97  1  0  0  0
 13 14  1  0  0  0
 13 31  1  0  0  0
 14 15  2  0  0  0
 14 98  1  0  0  0
 15 99  1  0  0  0
 16 17  2  0  0  0
 16 21  1  0  0  0
 16 31  1  0  0  0
 17 18  1  0  0  0
 17100  1  0  0  0
 18 19  2  0  0  0
 18101  1  0  0  0
 19 20  1  0  0  0
 19 24  1  0  0  0
 20 21  2  0  0  0
 20102  1  0  0  0
 21 23  1  0  0  0
 22 28  1  0  0  0
 22 32  2  0  0  0
 26 27  1  0  0  0
 28103  1  0  0  0
 28104  1  0  0  0
 29105  1  0  0  0
 29106  1  0  0  0
 33 34  1  0  0  0
 33 66  1  0  0  0
 33 70  2  0  0  0
 34 36  1  0  0  0
 34 59  1  0  0  0
 34107  1  0  0  0
 35 44  2  0  0  0
 35 45  1  0  0  0
 35 68  1  0  0  0
 36 56  1  0  0  0
 36108  1  0  0  0
 37 39  1  0  0  0
 37 47  1  0  0  0
 37 66  1  0  0  0
 37109  1  0  0  0
 38 43  2  0  0  0
 38 46  1  0  0  0
 38 47  1  0  0  0
 39 64  1  0  0  0
 39 67  2  0  0  0
 40 52  1  0  0  0
 40 53  2  0  0  0
 40 58  1  0  0  0
 41110  1  0  0  0
 41111  1  0  0  0
 41112  1  0  0  0
 41 48  1  0  0  0
 42 43  1  0  0  0
 42 66  1  0  0  0
 42113  1  0  0  0
 42114  1  0  0  0
 43 44  1  0  0  0
 44115  1  0  0  0
 45 46  2  0  0  0
 45116  1  0  0  0
 46117  1  0  0  0
 47118  1  0  0  0
 47119  1  0  0  0
 48 56  1  0  0  0
 48 65  1  0  0  0
 48120  1  0  0  0
 49 50  1  0  0  0
 49 53  1  0  0  0
 49 64  1  0  0  0
 49121  1  0  0  0
 50 51  1  0  0  0
 50122  1  0  0  0
 50123  1  0  0  0
 51 52  1  0  0  0
 51124  1  0  0  0
 51125  1  0  0  0
 52126  1  0  0  0
 52127  1  0  0  0
 53 54  1  0  0  0
 54 55  2  0  0  0
 54128  1  0  0  0
 55 57  1  0  0  0
 55129  1  0  0  0
 56 69  2  0  0  0
 57 58  2  0  0  0
 57130  1  0  0  0
 58131  1  0  0  0
 59 60  1  0  0  0
 59 61  1  0  0  0
 59 62  1  0  0  0
 60132  1  0  0  0
 60133  1  0  0  0
 60134  1  0  0  0
 61135  1  0  0  0
 61136  1  0  0  0
 61137  1  0  0  0
 62138  1  0  0  0
 62139  1  0  0  0
 62140  1  0  0  0
 63 65  1  0  0  0
 63141  1  0  0  0
 63142  1  0  0  0
 63143  1  0  0  0
 64144  1  0  0  0
 65145  1  0  0  0
 68 80  1  0  0  0
 71 72  2  0  0  0
 71 74  1  0  0  0
 71146  1  0  0  0
 72 76  1  0  0  0
 72147  1  0  0  0
 73 74  2  0  0  0
 73 75  1  0  0  0
 73148  1  0  0  0
 74 83  1  0  0  0
 75 76  2  0  0  0
 75 84  1  0  0  0
 76 86  1  0  0  0
 77 79  1  0  0  0
 77 80  1  0  0  0
 77149  1  0  0  0
 77150  1  0  0  0
 78 80  1  0  0  0
 78 81  1  0  0  0
 78151  1  0  0  0
 78152  1  0  0  0
 79 85  1  0  0  0
 79153  1  0  0  0
 79154  1  0  0  0
 80155  1  0  0  0
 81 82  1  0  0  0
 81 85  1  0  0  0
 81156  1  0  0  0
 82157  1  0  0  0
 82158  1  0  0  0
 82159  1  0  0  0
 83160  1  0  0  0
 83161  1  0  0  0
 83 85  1  0  0  0
 84162  1  0  0  0
 85163  1  0  0  0
M  CHG  1  85   1
M  ISO  4   1 100  68 101  80 101  84 100
M  END
> <chiral flag>
0

> <version>
0

> <s_m_source_file>
/data/baiqing/PycharmProjects/Reinvent-master-3.2/result/LINK_invent/BTK/process_docking_weight1_custom_product_contain_oxygen_bond_distance_aromatic_linkinvent_7_9_3/rearranged_h_0046.sdf

> <i_m_source_file_index>
87

> <r_mmod_Potential_Energy-OPLS-2005>
77.0355453491211

> <r_mmod_Stretch_Energy-OPLS-2005>
93.6882247924805

> <r_mmod_Bend_Energy-OPLS-2005>
192.839981079102

> <r_mmod_Torsional_Energy-OPLS-2005>
318.014801025391

> <r_mmod_Improper_Torsional_Energy-OPLS-2005>
15.2580213546753

> <r_mmod_Van_der_Waal_Energy-OPLS-2005>
144.893569946289

> <r_mmod_Electrostatic_Energy-OPLS-2005>
-290.480560302734

> <r_mmod_Solvation_Energy-OPLS-2005>
-452.640686035156

> <b_mmod_Minimization_Converged-OPLS-2005>
0

> <r_mmod_RMS_Derivative-OPLS-2005>
1.77211236953735

$$$$
87
                    3D
 Structure written by MMmdl.
158167  0  0  1  0            999 V2000
  -30.6570  -14.7299   20.4631 C   0  0  0  0  0  0
  -30.4251  -12.4421   19.4865 C   0  0  0  0  0  0
  -29.5119  -12.5169   18.2451 C   0  0  0  0  0  0
  -28.0392  -12.3369   18.6552 C   0  0  0  0  0  0
  -27.6464  -13.2336   19.8607 C   0  0  2  0  0  0
  -28.6923  -13.1904   20.9982 C   0  0  0  0  0  0
  -25.2539  -13.8220   20.5706 C   0  0  0  0  0  0
  -24.1837  -13.0469   20.9220 C   0  0  0  0  0  0
  -24.6442  -11.6940   20.8784 C   0  0  0  0  0  0
  -23.9122  -10.4311   21.0428 C   0  0  0  0  0  0
  -24.3666   -9.4225   21.9205 C   0  0  0  0  0  0
  -23.6328   -8.2259   22.0780 C   0  0  0  0  0  0
  -22.4294   -8.0309   21.3570 C   0  0  0  0  0  0
  -21.9962   -9.0285   20.4655 C   0  0  0  0  0  0
  -22.7300  -10.2160   20.3076 C   0  0  0  0  0  0
  -21.6870   -6.0764   22.5303 C   0  0  0  0  0  0
  -21.4004   -6.5655   23.8242 C   0  0  0  0  0  0
  -21.3676   -5.6809   24.9203 C   0  0  0  0  0  0
  -21.6043   -4.3071   24.7252 C   0  0  0  0  0  0
  -21.8806   -3.8163   23.4362 C   0  0  0  0  0  0
  -21.9194   -4.6988   22.3421 C   0  0  0  0  0  0
  -22.7837  -13.5251   21.1851 C   0  0  0  0  0  0
  -22.1659   -4.2185   21.0987 F   0  0  0  0  0  0
  -21.5649   -3.4567   25.7776 F   0  0  0  0  0  0
  -29.9963  -13.5210   20.4082 N   0  0  0  0  0  0
  -26.2990  -12.9431   20.3372 N   0  0  0  0  0  0
  -25.9381  -11.6577   20.5832 N   0  0  0  0  0  0
  -22.0490  -12.8233   22.0401 N   0  0  0  0  0  0
  -25.4190  -15.1945   20.4030 N   0  0  0  0  0  0
  -31.8452  -14.7737   20.1384 O   0  0  0  0  0  0
  -21.6653   -6.8903   21.4271 O   0  0  0  0  0  0
  -22.3510  -14.5570   20.6739 O   0  0  0  0  0  0
  -24.6298  -31.8556   23.1982 C   0  0  0  0  0  0
  -25.9128  -32.4748   23.8324 C   0  0  1  0  0  0
  -27.2181  -27.2577   20.1436 C   0  0  0  0  0  0
  -25.5930  -33.8549   24.2235 N   0  0  0  0  0  0
  -23.4285  -30.4734   21.5440 C   0  0  2  0  0  0
  -24.8779  -28.9198   20.1151 C   0  0  0  0  0  0
  -22.7495  -29.4574   22.4944 C   0  0  0  0  0  0
  -18.0293  -28.1410   22.8490 C   0  0  0  0  0  0
  -24.1504  -36.7282   23.2633 C   0  0  0  0  0  0
  -25.9719  -30.7653   21.3802 C   0  0  0  0  0  0
  -26.0480  -29.3845   20.7294 C   0  0  0  0  0  0
  -27.2225  -28.5643   20.7362 C   0  0  0  0  0  0
  -26.0315  -26.8644   19.4914 C   0  0  0  0  0  0
  -24.8736  -27.6644   19.4864 C   0  0  0  0  0  0
  -23.6493  -29.8069   20.1606 C   0  0  0  0  0  0
  -25.4131  -36.3036   24.0301 C   0  0  1  0  0  0
  -20.5890  -28.3695   23.1304 C   0  0  2  0  0  0
  -20.6788  -26.9423   22.5418 C   0  0  0  0  0  0
  -19.5760  -26.6398   21.5224 C   0  0  0  0  0  0
  -18.1939  -26.7955   22.1631 C   0  0  0  0  0  0
  -19.1547  -28.8871   23.2887 C   0  0  0  0  0  0
  -18.9468  -30.1486   23.8878 C   0  0  0  0  0  0
  -17.6467  -30.6612   24.0563 C   0  0  0  0  0  0
  -25.9079  -34.9422   23.5076 C   0  0  0  0  0  0
  -16.5359  -29.9105   23.6346 C   0  0  0  0  0  0
  -16.7278  -28.6531   23.0349 C   0  0  0  0  0  0
  -26.4499  -31.6571   25.0713 C   0  0  0  0  0  0
  -25.3732  -31.3740   26.1442 C   0  0  0  0  0  0
  -27.0333  -30.2977   24.6202 C   0  0  0  0  0  0
  -27.6051  -32.4303   25.7498 C   0  0  0  0  0  0
  -27.5566  -37.1798   24.8458 C   0  0  0  0  0  0
  -21.4198  -29.3033   22.3683 N   0  0  0  0  0  0
  -26.4291  -37.3737   23.9387 N   0  0  0  0  0  0
  -24.6959  -31.0488   22.0983 N   0  0  0  0  0  0
  -23.4174  -28.8126   23.3075 O   0  0  0  0  0  0
  -28.2970  -26.3441   20.1653 O   0  0  0  0  0  0
  -26.5647  -34.8892   22.4646 O   0  0  0  0  0  0
  -23.5451  -32.1391   23.7276 O   0  0  0  0  0  0
  -31.6949  -17.6986   20.7990 C   0  0  0  0  0  0
  -32.1176  -19.0424   20.7322 C   0  0  0  0  0  0
  -29.4217  -18.4564   20.4318 C   0  0  0  0  0  0
  -29.8291  -19.8586   20.3593 C   0  0  0  0  0  0
  -30.3357  -17.3354   20.6228 C   0  0  0  0  0  0
  -31.2194  -20.0995   20.4827 C   0  0  0  0  0  0
  -28.6659  -23.6785   19.9548 C   0  0  0  0  0  0
  -28.1264  -23.5385   22.8050 C   0  0  0  0  0  0
  -28.3633  -24.9312   22.1996 C   0  0  0  0  0  0
  -28.9736  -22.4626   22.0961 C   0  0  0  0  0  0
  -28.0335  -24.9556   20.7003 C   0  0  1  0  0  0
  -28.8287  -21.0585   19.9959 C   0  0  0  0  0  0
  -28.8430  -22.4635   20.6277 N   0  0  0  0  0  0
  -29.9262  -15.8999   20.6575 N   0  0  0  0  0  0
  -28.8669  -23.7643   18.7396 O   0  0  0  0  0  0
  -31.8898  -21.6769   20.2632 Cl  0  0  0  0  0  0
  -31.4726  -12.5279   19.1923 H   0  0  0  0  0  0
  -30.3328  -11.4686   19.9722 H   0  0  0  0  0  0
  -29.7940  -11.7573   17.5164 H   0  0  0  0  0  0
  -29.6450  -13.4815   17.7513 H   0  0  0  0  0  0
  -27.8902  -11.2831   18.8998 H   0  0  0  0  0  0
  -27.3863  -12.5427   17.8069 H   0  0  0  0  0  0
  -27.6378  -14.2543   19.4762 H   0  0  0  0  0  0
  -28.7245  -12.2075   21.4690 H   0  0  0  0  0  0
  -28.4307  -13.9017   21.7848 H   0  0  0  0  0  0
  -25.2820   -9.5720   22.4779 H   0  0  0  0  0  0
  -24.0063   -7.4639   22.7481 H   0  0  0  0  0  0
  -21.0931   -8.8822   19.8900 H   0  0  0  0  0  0
  -22.3806  -10.9708   19.6177 H   0  0  0  0  0  0
  -21.1966   -7.6146   23.9764 H   0  0  0  0  0  0
  -21.1511   -6.0531   25.9116 H   0  0  0  0  0  0
  -22.0556   -2.7615   23.2876 H   0  0  0  0  0  0
  -22.4136  -11.9859   22.4708 H   0  0  0  0  0  0
  -21.1088  -13.1218   22.2610 H   0  0  0  0  0  0
  -24.6362  -15.8350   20.4706 H   0  0  0  0  0  0
  -26.2560  -15.6349   20.0456 H   0  0  0  0  0  0
  -26.7191  -32.5386   23.1059 H   0  0  0  0  0  0
  -25.0037  -33.9700   25.0348 H   0  0  0  0  0  0
  -22.7232  -31.2936   21.3967 H   0  0  0  0  0  0
  -23.3730  -35.9658   23.3337 H   0  0  0  0  0  0
  -24.3561  -36.8876   22.2037 H   0  0  0  0  0  0
  -23.7335  -37.6516   23.6670 H   0  0  0  0  0  0
  -26.1042  -31.5234   20.6059 H   0  0  0  0  0  0
  -26.8513  -30.8204   22.0110 H   0  0  0  0  0  0
  -28.1149  -28.9103   21.2390 H   0  0  0  0  0  0
  -25.9885  -25.9062   18.9949 H   0  0  0  0  0  0
  -23.9799  -27.2992   18.9999 H   0  0  0  0  0  0
  -23.7754  -30.5854   19.4071 H   0  0  0  0  0  0
  -22.7677  -29.2412   19.8534 H   0  0  0  0  0  0
  -25.1332  -36.1857   25.0794 H   0  0  0  0  0  0
  -20.9965  -28.3270   24.1434 H   0  0  0  0  0  0
  -20.5741  -26.2286   23.3605 H   0  0  0  0  0  0
  -21.6656  -26.7492   22.1184 H   0  0  0  0  0  0
  -19.6931  -25.6307   21.1266 H   0  0  0  0  0  0
  -19.6727  -27.3200   20.6752 H   0  0  0  0  0  0
  -17.4213  -26.6699   21.4030 H   0  0  0  0  0  0
  -18.0344  -26.0110   22.9043 H   0  0  0  0  0  0
  -19.7941  -30.7325   24.2216 H   0  0  0  0  0  0
  -17.5022  -31.6289   24.5180 H   0  0  0  0  0  0
  -15.5364  -30.2999   23.7703 H   0  0  0  0  0  0
  -15.8672  -28.0859   22.7060 H   0  0  0  0  0  0
  -24.5880  -30.7114   25.7772 H   0  0  0  0  0  0
  -24.8962  -32.2934   26.4867 H   0  0  0  0  0  0
  -25.8045  -30.8899   27.0222 H   0  0  0  0  0  0
  -26.2914  -29.6726   24.1214 H   0  0  0  0  0  0
  -27.3989  -29.7221   25.4719 H   0  0  0  0  0  0
  -27.8811  -30.4217   23.9455 H   0  0  0  0  0  0
  -27.2645  -33.3585   26.2108 H   0  0  0  0  0  0
  -28.3873  -32.6896   25.0345 H   0  0  0  0  0  0
  -28.0733  -31.8415   26.5403 H   0  0  0  0  0  0
  -28.2591  -38.0077   24.7431 H   0  0  0  0  0  0
  -28.1044  -36.2595   24.6378 H   0  0  0  0  0  0
  -27.2256  -37.1564   25.8851 H   0  0  0  0  0  0
  -20.9394  -29.8692   21.6824 H   0  0  0  0  0  0
  -26.0146  -38.2798   24.1386 H   0  0  0  0  0  0
  -32.4574  -16.9548   20.9771 H   0  0  0  0  0  0
  -33.1718  -19.2639   20.8397 H   0  0  0  0  0  0
  -28.3754  -18.2356   20.2927 H   0  0  0  0  0  0
  -27.0678  -23.2780   22.7417 H   0  0  0  0  0  0
  -28.3681  -23.5591   23.8690 H   0  0  0  0  0  0
  -29.3989  -25.2310   22.3507 H   0  0  0  0  0  0
  -27.7510  -25.6651   22.7259 H   0  0  0  0  0  0
  -28.7243  -21.4822   22.5051 H   0  0  0  0  0  0
  -30.0216  -22.6351   22.3427 H   0  0  0  0  0  0
  -26.9654  -24.7519   20.6332 H   0  0  0  0  0  0
  -27.8170  -20.6807   20.1496 H   0  0  0  0  0  0
  -28.9065  -21.1786   18.9144 H   0  0  0  0  0  0
  -28.9379  -15.7392   20.7819 H   0  0  0  0  0  0
  1 25  1  0  0  0
  1 30  2  0  0  0
  1 84  1  0  0  0
  2  3  1  0  0  0
  2 25  1  0  0  0
  2 87  1  0  0  0
  2 88  1  0  0  0
  3  4  1  0  0  0
  3 89  1  0  0  0
  3 90  1  0  0  0
  4  5  1  0  0  0
  4 91  1  0  0  0
  4 92  1  0  0  0
  5  6  1  0  0  0
  5 26  1  0  0  0
  5 93  1  0  0  0
  6 25  1  0  0  0
  6 94  1  0  0  0
  6 95  1  0  0  0
  7  8  2  0  0  0
  7 26  1  0  0  0
  7 29  1  0  0  0
  8  9  1  0  0  0
  8 22  1  0  0  0
  9 10  1  0  0  0
  9 27  2  0  0  0
 10 11  2  0  0  0
 10 15  1  0  0  0
 11 12  1  0  0  0
 11 96  1  0  0  0
 12 13  2  0  0  0
 12 97  1  0  0  0
 13 14  1  0  0  0
 13 31  1  0  0  0
 14 15  2  0  0  0
 14 98  1  0  0  0
 15 99  1  0  0  0
 16 17  2  0  0  0
 16 21  1  0  0  0
 16 31  1  0  0  0
 17 18  1  0  0  0
 17100  1  0  0  0
 18 19  2  0  0  0
 18101  1  0  0  0
 19 20  1  0  0  0
 19 24  1  0  0  0
 20 21  2  0  0  0
 20102  1  0  0  0
 21 23  1  0  0  0
 22 28  1  0  0  0
 22 32  2  0  0  0
 26 27  1  0  0  0
 28103  1  0  0  0
 28104  1  0  0  0
 29105  1  0  0  0
 29106  1  0  0  0
 33 34  1  0  0  0
 33 66  1  0  0  0
 33 70  2  0  0  0
 34 36  1  0  0  0
 34 59  1  0  0  0
 34107  1  0  0  0
 35 44  2  0  0  0
 35 45  1  0  0  0
 35 68  1  0  0  0
 36 56  1  0  0  0
 36108  1  0  0  0
 37 39  1  0  0  0
 37 47  1  0  0  0
 37 66  1  0  0  0
 37109  1  0  0  0
 38 43  2  0  0  0
 38 46  1  0  0  0
 38 47  1  0  0  0
 39 64  1  0  0  0
 39 67  2  0  0  0
 40 52  1  0  0  0
 40 53  2  0  0  0
 40 58  1  0  0  0
 41110  1  0  0  0
 41111  1  0  0  0
 41112  1  0  0  0
 41 48  1  0  0  0
 42 43  1  0  0  0
 42 66  1  0  0  0
 42113  1  0  0  0
 42114  1  0  0  0
 43 44  1  0  0  0
 44115  1  0  0  0
 45 46  2  0  0  0
 45116  1  0  0  0
 46117  1  0  0  0
 47118  1  0  0  0
 47119  1  0  0  0
 48 56  1  0  0  0
 48 65  1  0  0  0
 48120  1  0  0  0
 49 50  1  0  0  0
 49 53  1  0  0  0
 49 64  1  0  0  0
 49121  1  0  0  0
 50 51  1  0  0  0
 50122  1  0  0  0
 50123  1  0  0  0
 51 52  1  0  0  0
 51124  1  0  0  0
 51125  1  0  0  0
 52126  1  0  0  0
 52127  1  0  0  0
 53 54  1  0  0  0
 54 55  2  0  0  0
 54128  1  0  0  0
 55 57  1  0  0  0
 55129  1  0  0  0
 56 69  2  0  0  0
 57 58  2  0  0  0
 57130  1  0  0  0
 58131  1  0  0  0
 59 60  1  0  0  0
 59 61  1  0  0  0
 59 62  1  0  0  0
 60132  1  0  0  0
 60133  1  0  0  0
 60134  1  0  0  0
 61135  1  0  0  0
 61136  1  0  0  0
 61137  1  0  0  0
 62138  1  0  0  0
 62139  1  0  0  0
 62140  1  0  0  0
 63 65  1  0  0  0
 63141  1  0  0  0
 63142  1  0  0  0
 63143  1  0  0  0
 64144  1  0  0  0
 65145  1  0  0  0
 68 81  1  0  0  0
 71 72  2  0  0  0
 71 75  1  0  0  0
 71146  1  0  0  0
 72 76  1  0  0  0
 72147  1  0  0  0
 73 74  1  0  0  0
 73 75  2  0  0  0
 73148  1  0  0  0
 74 76  2  0  0  0
 74 82  1  0  0  0
 75 84  1  0  0  0
 76 86  1  0  0  0
 77 81  1  0  0  0
 77 83  1  0  0  0
 77 85  2  0  0  0
 78 79  1  0  0  0
 78 80  1  0  0  0
 78149  1  0  0  0
 78150  1  0  0  0
 79 81  1  0  0  0
 79151  1  0  0  0
 79152  1  0  0  0
 80 83  1  0  0  0
 80153  1  0  0  0
 80154  1  0  0  0
 81155  1  0  0  0
 82 83  1  0  0  0
 82156  1  0  0  0
 82157  1  0  0  0
 84158  1  0  0  0
M  ISO  4   1 100  68 101  81 101  84 100
M  END
> <chiral flag>
0

> <version>
0

> <s_m_source_file>
/data/baiqing/PycharmProjects/Reinvent-master-3.2/result/LINK_invent/BTK/process_docking_weight1_custom_product_contain_oxygen_bond_distance_aromatic_linkinvent_7_9_3/rearranged_h_0046.sdf

> <i_m_source_file_index>
88

> <r_mmod_Potential_Energy-OPLS-2005>
225.621215820312

> <r_mmod_Stretch_Energy-OPLS-2005>
134.255874633789

> <r_mmod_Bend_Energy-OPLS-2005>
164.042922973633

> <r_mmod_Torsional_Energy-OPLS-2005>
259.438110351562

> <r_mmod_Improper_Torsional_Energy-OPLS-2005>
7.33725738525391

> <r_mmod_Van_der_Waal_Energy-OPLS-2005>
143.650787353516

> <r_mmod_Electrostatic_Energy-OPLS-2005>
-336.653656005859

> <r_mmod_Solvation_Energy-OPLS-2005>
-230.80078125

> <b_mmod_Minimization_Converged-OPLS-2005>
0

> <r_mmod_RMS_Derivative-OPLS-2005>
4.12359094619751

$$$$
88
                    3D
 Structure written by MMmdl.
158167  0  0  1  0            999 V2000
  -30.6162  -14.7663   20.4295 C   0  0  0  0  0  0
  -30.4300  -12.4743   19.4515 C   0  0  0  0  0  0
  -29.5002  -12.5002   18.2201 C   0  0  0  0  0  0
  -28.0281  -12.3301   18.6424 C   0  0  0  0  0  0
  -27.6347  -13.2378   19.8390 C   0  0  2  0  0  0
  -28.6878  -13.1962   20.9649 C   0  0  0  0  0  0
  -25.2488  -13.8220   20.5710 C   0  0  0  0  0  0
  -24.1788  -13.0447   20.9215 C   0  0  0  0  0  0
  -24.6394  -11.6925   20.8748 C   0  0  0  0  0  0
  -23.9070  -10.4296   21.0405 C   0  0  0  0  0  0
  -24.3617   -9.4212   21.9182 C   0  0  0  0  0  0
  -23.6296   -8.2246   22.0751 C   0  0  0  0  0  0
  -22.4276   -8.0281   21.3547 C   0  0  0  0  0  0
  -21.9915   -9.0253   20.4644 C   0  0  0  0  0  0
  -22.7242  -10.2136   20.3055 C   0  0  0  0  0  0
  -21.6852   -6.0730   22.5276 C   0  0  0  0  0  0
  -21.4018   -6.5636   23.8210 C   0  0  0  0  0  0
  -21.3666   -5.6788   24.9173 C   0  0  0  0  0  0
  -21.6040   -4.3048   24.7219 C   0  0  0  0  0  0
  -21.8824   -3.8143   23.4340 C   0  0  0  0  0  0
  -21.9194   -4.6959   22.3397 C   0  0  0  0  0  0
  -22.7801  -13.5218   21.1870 C   0  0  0  0  0  0
  -22.1659   -4.2147   21.0971 F   0  0  0  0  0  0
  -21.5631   -3.4532   25.7732 F   0  0  0  0  0  0
  -29.9723  -13.5520   20.3554 N   0  0  0  0  0  0
  -26.2914  -12.9437   20.3270 N   0  0  0  0  0  0
  -25.9326  -11.6569   20.5748 N   0  0  0  0  0  0
  -22.0447  -12.8203   22.0420 N   0  0  0  0  0  0
  -25.4161  -15.1947   20.4155 N   0  0  0  0  0  0
  -31.8373  -14.8054   20.2723 O   0  0  0  0  0  0
  -21.6639   -6.8876   21.4241 O   0  0  0  0  0  0
  -22.3476  -14.5509   20.6699 O   0  0  0  0  0  0
  -24.6360  -31.8555   23.1993 C   0  0  0  0  0  0
  -25.9179  -32.4758   23.8338 C   0  0  1  0  0  0
  -27.2020  -27.2326   20.1137 C   0  0  0  0  0  0
  -25.5969  -33.8562   24.2259 N   0  0  0  0  0  0
  -23.4305  -30.4847   21.5454 C   0  0  2  0  0  0
  -24.8701  -28.9354   20.1122 C   0  0  0  0  0  0
  -22.7518  -29.4620   22.4894 C   0  0  0  0  0  0
  -18.0303  -28.1391   22.8473 C   0  0  0  0  0  0
  -24.1493  -36.7284   23.2639 C   0  0  0  0  0  0
  -25.9831  -30.7600   21.3825 C   0  0  0  0  0  0
  -26.0515  -29.3836   20.7177 C   0  0  0  0  0  0
  -27.2210  -28.5483   20.7034 C   0  0  0  0  0  0
  -25.9802  -26.8635   19.4991 C   0  0  0  0  0  0
  -24.8417  -27.6834   19.4936 C   0  0  0  0  0  0
  -23.6480  -29.8302   20.1596 C   0  0  0  0  0  0
  -25.4121  -36.3068   24.0322 C   0  0  1  0  0  0
  -20.5903  -28.3710   23.1243 C   0  0  2  0  0  0
  -20.6799  -26.9420   22.5387 C   0  0  0  0  0  0
  -19.5761  -26.6371   21.5206 C   0  0  0  0  0  0
  -18.1947  -26.7932   22.1618 C   0  0  0  0  0  0
  -19.1553  -28.8863   23.2852 C   0  0  0  0  0  0
  -18.9477  -30.1460   23.8875 C   0  0  0  0  0  0
  -17.6475  -30.6585   24.0553 C   0  0  0  0  0  0
  -25.9066  -34.9441   23.5083 C   0  0  0  0  0  0
  -16.5365  -29.9080   23.6326 C   0  0  0  0  0  0
  -16.7288  -28.6503   23.0342 C   0  0  0  0  0  0
  -26.4525  -31.6583   25.0738 C   0  0  0  0  0  0
  -25.3729  -31.3736   26.1439 C   0  0  0  0  0  0
  -27.0375  -30.2990   24.6258 C   0  0  0  0  0  0
  -27.6063  -32.4326   25.7530 C   0  0  0  0  0  0
  -27.5569  -37.1807   24.8473 C   0  0  0  0  0  0
  -21.4220  -29.3064   22.3637 N   0  0  0  0  0  0
  -26.4299  -37.3764   23.9400 N   0  0  0  0  0  0
  -24.7033  -31.0509   22.0985 N   0  0  0  0  0  0
  -23.4202  -28.8133   23.2984 O   0  0  0  0  0  0
  -28.2821  -26.3024   20.1586 O   0  0  0  0  0  0
  -26.5619  -34.8919   22.4643 O   0  0  0  0  0  0
  -23.5505  -32.1396   23.7277 O   0  0  0  0  0  0
  -28.0922  -18.2881   22.3214 C   0  0  0  0  0  0
  -28.4181  -19.5649   21.8099 C   0  0  0  0  0  0
  -28.6299  -17.1026   21.7738 C   0  0  0  0  0  0
  -29.3085  -19.7134   20.7272 C   0  0  0  0  0  0
  -29.5109  -17.1478   20.6729 C   0  0  0  0  0  0
  -29.8316  -18.4745   20.1586 C   0  0  0  0  0  0
  -28.9275  -23.6746   20.4674 C   0  0  0  0  0  0
  -27.4073  -23.2070   18.0341 C   0  0  0  0  0  0
  -28.0077  -24.5941   18.3048 C   0  0  0  0  0  0
  -28.2279  -22.0646   18.6734 C   0  0  0  0  0  0
  -28.0215  -24.8397   19.8247 C   0  0  1  0  0  0
  -29.8010  -21.1914   20.3597 C   0  0  0  0  0  0
  -28.8881  -22.3636   19.9610 N   0  0  0  0  0  0
  -29.9137  -15.8861   20.0127 N   0  0  0  0  0  0
  -29.6454  -23.9649   21.4296 O   0  0  0  0  0  0
  -30.6658  -18.5558   19.0953 F   0  0  0  0  0  0
  -31.4655  -12.6126   19.1346 H   0  0  0  0  0  0
  -30.3911  -11.5066   19.9538 H   0  0  0  0  0  0
  -29.7817  -11.7163   17.5159 H   0  0  0  0  0  0
  -29.6200  -13.4453   17.6875 H   0  0  0  0  0  0
  -27.8849  -11.2824   18.9093 H   0  0  0  0  0  0
  -27.3679  -12.5196   17.7947 H   0  0  0  0  0  0
  -27.6182  -14.2560   19.4492 H   0  0  0  0  0  0
  -28.7354  -12.2076   21.4235 H   0  0  0  0  0  0
  -28.4320  -13.8980   21.7588 H   0  0  0  0  0  0
  -25.2766   -9.5684   22.4754 H   0  0  0  0  0  0
  -24.0003   -7.4634   22.7472 H   0  0  0  0  0  0
  -21.0848   -8.8770   19.8944 H   0  0  0  0  0  0
  -22.3703  -10.9669   19.6158 H   0  0  0  0  0  0
  -21.2013   -7.6144   23.9715 H   0  0  0  0  0  0
  -21.1484   -6.0514   25.9075 H   0  0  0  0  0  0
  -22.0600   -2.7604   23.2837 H   0  0  0  0  0  0
  -22.4069  -11.9878   22.4831 H   0  0  0  0  0  0
  -21.1053  -13.1208   22.2603 H   0  0  0  0  0  0
  -24.6507  -15.8485   20.5359 H   0  0  0  0  0  0
  -26.2764  -15.6399   20.1203 H   0  0  0  0  0  0
  -26.7242  -32.5384   23.1068 H   0  0  0  0  0  0
  -25.0150  -33.9708   25.0428 H   0  0  0  0  0  0
  -22.7284  -31.3089   21.4049 H   0  0  0  0  0  0
  -23.3759  -35.9616   23.3314 H   0  0  0  0  0  0
  -24.3567  -36.8902   22.2048 H   0  0  0  0  0  0
  -23.7257  -37.6491   23.6666 H   0  0  0  0  0  0
  -26.1293  -31.5225   20.6170 H   0  0  0  0  0  0
  -26.8574  -30.8013   22.0202 H   0  0  0  0  0  0
  -28.1250  -28.8892   21.1885 H   0  0  0  0  0  0
  -25.8359  -25.9057   19.0296 H   0  0  0  0  0  0
  -23.9339  -27.3285   19.0243 H   0  0  0  0  0  0
  -23.7854  -30.6136   19.4128 H   0  0  0  0  0  0
  -22.7604  -29.2786   19.8427 H   0  0  0  0  0  0
  -25.1311  -36.1906   25.0818 H   0  0  0  0  0  0
  -20.9981  -28.3299   24.1369 H   0  0  0  0  0  0
  -21.6658  -26.7439   22.1162 H   0  0  0  0  0  0
  -20.5716  -26.2312   23.3593 H   0  0  0  0  0  0
  -19.6916  -25.6282   21.1244 H   0  0  0  0  0  0
  -19.6696  -27.3171   20.6728 H   0  0  0  0  0  0
  -17.4222  -26.6678   21.4012 H   0  0  0  0  0  0
  -18.0323  -26.0072   22.9016 H   0  0  0  0  0  0
  -19.7954  -30.7272   24.2246 H   0  0  0  0  0  0
  -17.5032  -31.6268   24.5161 H   0  0  0  0  0  0
  -15.5366  -30.2977   23.7667 H   0  0  0  0  0  0
  -15.8688  -28.0817   22.7065 H   0  0  0  0  0  0
  -24.5924  -30.7067   25.7762 H   0  0  0  0  0  0
  -24.8897  -32.2903   26.4827 H   0  0  0  0  0  0
  -25.8030  -30.8936   27.0238 H   0  0  0  0  0  0
  -26.2965  -29.6713   24.1300 H   0  0  0  0  0  0
  -27.4057  -29.7283   25.4793 H   0  0  0  0  0  0
  -27.8847  -30.4250   23.9515 H   0  0  0  0  0  0
  -27.2680  -33.3660   26.2045 H   0  0  0  0  0  0
  -28.3926  -32.6825   25.0395 H   0  0  0  0  0  0
  -28.0676  -31.8481   26.5502 H   0  0  0  0  0  0
  -28.2613  -38.0075   24.7471 H   0  0  0  0  0  0
  -28.1039  -36.2600   24.6373 H   0  0  0  0  0  0
  -27.2273  -37.1543   25.8875 H   0  0  0  0  0  0
  -20.9407  -29.8819   21.6864 H   0  0  0  0  0  0
  -26.0173  -38.2847   24.1366 H   0  0  0  0  0  0
  -27.4135  -18.2153   23.1606 H   0  0  0  0  0  0
  -28.0093  -20.4445   22.2872 H   0  0  0  0  0  0
  -28.3229  -16.1532   22.1881 H   0  0  0  0  0  0
  -27.3194  -23.0373   16.9596 H   0  0  0  0  0  0
  -26.3876  -23.1756   18.4212 H   0  0  0  0  0  0
  -27.4439  -25.3533   17.7674 H   0  0  0  0  0  0
  -29.0211  -24.6522   17.9060 H   0  0  0  0  0  0
  -29.0078  -21.7826   17.9632 H   0  0  0  0  0  0
  -27.5979  -21.1814   18.7855 H   0  0  0  0  0  0
  -27.0411  -24.6015   20.2375 H   0  0  0  0  0  0
  -30.5493  -21.0912   19.5733 H   0  0  0  0  0  0
  -30.3789  -21.5144   21.2262 H   0  0  0  0  0  0
  -30.2900  -16.1240   19.1062 H   0  0  0  0  0  0
  1 25  1  0  0  0
  1 30  2  0  0  0
  1 84  1  0  0  0
  2  3  1  0  0  0
  2 25  1  0  0  0
  2 87  1  0  0  0
  2 88  1  0  0  0
  3  4  1  0  0  0
  3 89  1  0  0  0
  3 90  1  0  0  0
  4  5  1  0  0  0
  4 91  1  0  0  0
  4 92  1  0  0  0
  5  6  1  0  0  0
  5 26  1  0  0  0
  5 93  1  0  0  0
  6 25  1  0  0  0
  6 94  1  0  0  0
  6 95  1  0  0  0
  7  8  2  0  0  0
  7 26  1  0  0  0
  7 29  1  0  0  0
  8  9  1  0  0  0
  8 22  1  0  0  0
  9 10  1  0  0  0
  9 27  2  0  0  0
 10 11  2  0  0  0
 10 15  1  0  0  0
 11 12  1  0  0  0
 11 96  1  0  0  0
 12 13  2  0  0  0
 12 97  1  0  0  0
 13 14  1  0  0  0
 13 31  1  0  0  0
 14 15  2  0  0  0
 14 98  1  0  0  0
 15 99  1  0  0  0
 16 17  2  0  0  0
 16 21  1  0  0  0
 16 31  1  0  0  0
 17 18  1  0  0  0
 17100  1  0  0  0
 18 19  2  0  0  0
 18101  1  0  0  0
 19 20  1  0  0  0
 19 24  1  0  0  0
 20 21  2  0  0  0
 20102  1  0  0  0
 21 23  1  0  0  0
 22 28  1  0  0  0
 22 32  2  0  0  0
 26 27  1  0  0  0
 28103  1  0  0  0
 28104  1  0  0  0
 29105  1  0  0  0
 29106  1  0  0  0
 33 34  1  0  0  0
 33 66  1  0  0  0
 33 70  2  0  0  0
 34 36  1  0  0  0
 34 59  1  0  0  0
 34107  1  0  0  0
 35 44  2  0  0  0
 35 45  1  0  0  0
 35 68  1  0  0  0
 36 56  1  0  0  0
 36108  1  0  0  0
 37 39  1  0  0  0
 37 47  1  0  0  0
 37 66  1  0  0  0
 37109  1  0  0  0
 38 43  2  0  0  0
 38 46  1  0  0  0
 38 47  1  0  0  0
 39 64  1  0  0  0
 39 67  2  0  0  0
 40 52  1  0  0  0
 40 53  2  0  0  0
 40 58  1  0  0  0
 41110  1  0  0  0
 41111  1  0  0  0
 41112  1  0  0  0
 41 48  1  0  0  0
 42 43  1  0  0  0
 42 66  1  0  0  0
 42113  1  0  0  0
 42114  1  0  0  0
 43 44  1  0  0  0
 44115  1  0  0  0
 45 46  2  0  0  0
 45116  1  0  0  0
 46117  1  0  0  0
 47118  1  0  0  0
 47119  1  0  0  0
 48 56  1  0  0  0
 48 65  1  0  0  0
 48120  1  0  0  0
 49 50  1  0  0  0
 49 53  1  0  0  0
 49 64  1  0  0  0
 49121  1  0  0  0
 50 51  1  0  0  0
 50122  1  0  0  0
 50123  1  0  0  0
 51 52  1  0  0  0
 51124  1  0  0  0
 51125  1  0  0  0
 52126  1  0  0  0
 52127  1  0  0  0
 53 54  1  0  0  0
 54 55  2  0  0  0
 54128  1  0  0  0
 55 57  1  0  0  0
 55129  1  0  0  0
 56 69  2  0  0  0
 57 58  2  0  0  0
 57130  1  0  0  0
 58131  1  0  0  0
 59 60  1  0  0  0
 59 61  1  0  0  0
 59 62  1  0  0  0
 60132  1  0  0  0
 60133  1  0  0  0
 60134  1  0  0  0
 61135  1  0  0  0
 61136  1  0  0  0
 61137  1  0  0  0
 62138  1  0  0  0
 62139  1  0  0  0
 62140  1  0  0  0
 63 65  1  0  0  0
 63141  1  0  0  0
 63142  1  0  0  0
 63143  1  0  0  0
 64144  1  0  0  0
 65145  1  0  0  0
 68 81  1  0  0  0
 71 72  2  0  0  0
 71 73  1  0  0  0
 71146  1  0  0  0
 72 74  1  0  0  0
 72147  1  0  0  0
 73 75  2  0  0  0
 73148  1  0  0  0
 74 76  2  0  0  0
 74 82  1  0  0  0
 75 76  1  0  0  0
 75 84  1  0  0  0
 76 86  1  0  0  0
 77 81  1  0  0  0
 77 83  1  0  0  0
 77 85  2  0  0  0
 78 79  1  0  0  0
 78 80  1  0  0  0
 78149  1  0  0  0
 78150  1  0  0  0
 79 81  1  0  0  0
 79151  1  0  0  0
 79152  1  0  0  0
 80 83  1  0  0  0
 80153  1  0  0  0
 80154  1  0  0  0
 81155  1  0  0  0
 82 83  1  0  0  0
 82156  1  0  0  0
 82157  1  0  0  0
 84158  1  0  0  0
M  ISO  4   1 100  68 101  81 101  84 100
M  END
> <chiral flag>
0

> <version>
0

> <s_m_source_file>
/data/baiqing/PycharmProjects/Reinvent-master-3.2/result/LINK_invent/BTK/process_docking_weight1_custom_product_contain_oxygen_bond_distance_aromatic_linkinvent_7_9_3/rearranged_h_0046.sdf

> <i_m_source_file_index>
89

> <r_mmod_Potential_Energy-OPLS-2005>
322.068450927734

> <r_mmod_Stretch_Energy-OPLS-2005>
136.757339477539

> <r_mmod_Bend_Energy-OPLS-2005>
196.321273803711

> <r_mmod_Torsional_Energy-OPLS-2005>
298.096038818359

> <r_mmod_Improper_Torsional_Energy-OPLS-2005>
30.997314453125

> <r_mmod_Van_der_Waal_Energy-OPLS-2005>
143.34033203125

> <r_mmod_Electrostatic_Energy-OPLS-2005>
-366.177459716797

> <r_mmod_Solvation_Energy-OPLS-2005>
-223.200805664062

> <b_mmod_Minimization_Converged-OPLS-2005>
0

> <r_mmod_RMS_Derivative-OPLS-2005>
1.77522754669189

$$$$
89
                    3D
 Structure written by MMmdl.
168177  0  0  1  0            999 V2000
  -30.6176  -14.6065   20.5000 C   0  0  0  0  0  0
  -30.4325  -12.3666   19.4584 C   0  0  0  0  0  0
  -29.5114  -12.4982   18.2248 C   0  0  0  0  0  0
  -28.0287  -12.3543   18.6265 C   0  0  0  0  0  0
  -27.6528  -13.2145   19.8614 C   0  0  2  0  0  0
  -28.6896  -13.0559   20.9948 C   0  0  0  0  0  0
  -25.2585  -13.8179   20.5681 C   0  0  0  0  0  0
  -24.1834  -13.0453   20.9168 C   0  0  0  0  0  0
  -24.6379  -11.6916   20.8697 C   0  0  0  0  0  0
  -23.9032  -10.4306   21.0386 C   0  0  0  0  0  0
  -24.3596   -9.4224   21.9159 C   0  0  0  0  0  0
  -23.6292   -8.2250   22.0732 C   0  0  0  0  0  0
  -22.4279   -8.0268   21.3524 C   0  0  0  0  0  0
  -21.9897   -9.0239   20.4636 C   0  0  0  0  0  0
  -22.7206  -10.2126   20.3046 C   0  0  0  0  0  0
  -21.6846   -6.0730   22.5272 C   0  0  0  0  0  0
  -21.4004   -6.5633   23.8205 C   0  0  0  0  0  0
  -21.3672   -5.6788   24.9166 C   0  0  0  0  0  0
  -21.6053   -4.3049   24.7214 C   0  0  0  0  0  0
  -21.8827   -3.8134   23.4335 C   0  0  0  0  0  0
  -21.9191   -4.6956   22.3391 C   0  0  0  0  0  0
  -22.7857  -13.5246   21.1831 C   0  0  0  0  0  0
  -22.1661   -4.2130   21.0972 F   0  0  0  0  0  0
  -21.5647   -3.4541   25.7733 F   0  0  0  0  0  0
  -30.0096  -13.3836   20.4415 N   0  0  0  0  0  0
  -26.2983  -12.9342   20.3276 N   0  0  0  0  0  0
  -25.9301  -11.6500   20.5700 N   0  0  0  0  0  0
  -22.0473  -12.8247   22.0385 N   0  0  0  0  0  0
  -25.4377  -15.1898   20.4158 N   0  0  0  0  0  0
  -31.7888  -14.7590   20.1341 O   0  0  0  0  0  0
  -21.6640   -6.8871   21.4233 O   0  0  0  0  0  0
  -22.3549  -14.5553   20.6670 O   0  0  0  0  0  0
  -24.6236  -31.8599   23.2018 C   0  0  0  0  0  0
  -25.9088  -32.4781   23.8345 C   0  0  1  0  0  0
  -27.2130  -27.3187   20.1263 C   0  0  0  0  0  0
  -25.5914  -33.8583   24.2283 N   0  0  0  0  0  0
  -23.4166  -30.4815   21.5461 C   0  0  2  0  0  0
  -24.8590  -28.9337   20.1118 C   0  0  0  0  0  0
  -22.7464  -29.4616   22.4964 C   0  0  0  0  0  0
  -18.0274  -28.1403   22.8481 C   0  0  0  0  0  0
  -24.1489  -36.7290   23.2640 C   0  0  0  0  0  0
  -25.9554  -30.7905   21.3712 C   0  0  0  0  0  0
  -26.0255  -29.4169   20.7170 C   0  0  0  0  0  0
  -27.2041  -28.6183   20.7161 C   0  0  0  0  0  0
  -26.0258  -26.8841   19.4958 C   0  0  0  0  0  0
  -24.8588  -27.6722   19.4954 C   0  0  0  0  0  0
  -23.6289  -29.8150   20.1609 C   0  0  0  0  0  0
  -25.4109  -36.3095   24.0340 C   0  0  1  0  0  0
  -20.5874  -28.3683   23.1307 C   0  0  2  0  0  0
  -20.6772  -26.9416   22.5417 C   0  0  0  0  0  0
  -19.5750  -26.6393   21.5220 C   0  0  0  0  0  0
  -18.1925  -26.7940   22.1623 C   0  0  0  0  0  0
  -19.1526  -28.8853   23.2883 C   0  0  0  0  0  0
  -18.9453  -30.1463   23.8892 C   0  0  0  0  0  0
  -17.6458  -30.6598   24.0559 C   0  0  0  0  0  0
  -25.9047  -34.9460   23.5110 C   0  0  0  0  0  0
  -16.5343  -29.9097   23.6348 C   0  0  0  0  0  0
  -16.7263  -28.6522   23.0341 C   0  0  0  0  0  0
  -26.4491  -31.6581   25.0701 C   0  0  0  0  0  0
  -25.3747  -31.3700   26.1436 C   0  0  0  0  0  0
  -27.0323  -30.3015   24.6124 C   0  0  0  0  0  0
  -27.6078  -32.4311   25.7444 C   0  0  0  0  0  0
  -27.5597  -37.1780   24.8457 C   0  0  0  0  0  0
  -21.4173  -29.3023   22.3701 N   0  0  0  0  0  0
  -26.4291  -37.3794   23.9428 N   0  0  0  0  0  0
  -24.6844  -31.0606   22.0973 N   0  0  0  0  0  0
  -23.4187  -28.8165   23.3047 O   0  0  0  0  0  0
  -28.3490  -26.5045   20.1960 O   0  0  0  0  0  0
  -26.5614  -34.8938   22.4674 O   0  0  0  0  0  0
  -23.5402  -32.1394   23.7363 O   0  0  0  0  0  0
  -29.5551  -18.2077   20.9960 C   0  0  0  0  0  0
  -30.0478  -18.4230   18.2720 C   0  0  0  0  0  0
  -29.5492  -19.5279   20.4079 C   0  0  0  0  0  0
  -29.8241  -19.6053   19.0114 C   0  0  0  0  0  0
  -29.8372  -17.0078   20.2541 C   0  0  0  0  0  0
  -30.0456  -17.1504   18.8650 C   0  0  0  0  0  0
  -29.9500  -23.3698   21.0722 C   0  0  0  0  0  0
  -31.2988  -23.3967   24.5452 C   0  0  0  0  0  0
  -30.6202  -23.6507   22.2155 C   0  0  0  0  0  0
  -30.6529  -22.9195   23.4696 C   0  0  0  0  0  0
  -29.7400  -24.4397   19.9799 C   0  0  0  0  0  0
  -27.4057  -24.2025   20.9416 C   0  0  0  0  0  0
  -27.6065  -22.6296   20.8694 C   0  0  0  0  0  0
  -28.2940  -25.0432   19.9582 C   0  0  1  0  0  0
  -29.9240  -20.9140   18.2442 C   0  0  0  0  0  0
  -29.3760  -20.7963   21.3330 C   0  0  0  0  0  0
  -29.8293  -15.6716   20.8424 N   0  0  0  0  0  0
  -29.0397  -22.1851   20.7817 N   0  3  2  0  0  0
  -30.2141  -16.0678   18.0678 F   0  0  0  0  0  0
  -31.4777  -12.4838   19.1657 H   0  0  0  0  0  0
  -30.3561  -11.3668   19.8914 H   0  0  0  0  0  0
  -29.7711  -11.7465   17.4794 H   0  0  0  0  0  0
  -29.6708  -13.4670   17.7484 H   0  0  0  0  0  0
  -27.8412  -11.3002   18.8352 H   0  0  0  0  0  0
  -27.3857  -12.6110   17.7837 H   0  0  0  0  0  0
  -27.6781  -14.2525   19.5259 H   0  0  0  0  0  0
  -28.6919  -12.0319   21.3708 H   0  0  0  0  0  0
  -28.4383  -13.6869   21.8491 H   0  0  0  0  0  0
  -25.2743   -9.5700   22.4726 H   0  0  0  0  0  0
  -23.9999   -7.4648   22.7464 H   0  0  0  0  0  0
  -21.0809   -8.8750   19.8965 H   0  0  0  0  0  0
  -22.3645  -10.9652   19.6155 H   0  0  0  0  0  0
  -21.1984   -7.6142   23.9701 H   0  0  0  0  0  0
  -21.1495   -6.0510   25.9069 H   0  0  0  0  0  0
  -22.0596   -2.7595   23.2826 H   0  0  0  0  0  0
  -22.4076  -11.9905   22.4777 H   0  0  0  0  0  0
  -21.1094  -13.1279   22.2601 H   0  0  0  0  0  0
  -24.6823  -15.8544   20.5432 H   0  0  0  0  0  0
  -26.3017  -15.6205   20.1092 H   0  0  0  0  0  0
  -26.7139  -32.5459   23.1081 H   0  0  0  0  0  0
  -25.0076  -33.9733   25.0442 H   0  0  0  0  0  0
  -22.7108  -31.3025   21.4048 H   0  0  0  0  0  0
  -23.3784  -35.9588   23.3263 H   0  0  0  0  0  0
  -24.3599  -36.8937   22.2065 H   0  0  0  0  0  0
  -23.7206  -37.6466   23.6671 H   0  0  0  0  0  0
  -26.0818  -31.5514   20.6002 H   0  0  0  0  0  0
  -26.8394  -30.8430   21.9951 H   0  0  0  0  0  0
  -28.0993  -28.9783   21.2037 H   0  0  0  0  0  0
  -25.9730  -25.9200   19.0133 H   0  0  0  0  0  0
  -23.9619  -27.2949   19.0230 H   0  0  0  0  0  0
  -23.7499  -30.5912   19.4049 H   0  0  0  0  0  0
  -22.7487  -29.2423   19.8608 H   0  0  0  0  0  0
  -25.1291  -36.1932   25.0836 H   0  0  0  0  0  0
  -20.9955  -28.3244   24.1432 H   0  0  0  0  0  0
  -20.5695  -26.2284   23.3599 H   0  0  0  0  0  0
  -21.6636  -26.7469   22.1193 H   0  0  0  0  0  0
  -19.6910  -25.6301   21.1243 H   0  0  0  0  0  0
  -19.6702  -27.3210   20.6756 H   0  0  0  0  0  0
  -17.4199  -26.6677   21.4020 H   0  0  0  0  0  0
  -18.0323  -26.0094   22.9032 H   0  0  0  0  0  0
  -19.7930  -30.7277   24.2264 H   0  0  0  0  0  0
  -17.5012  -31.6281   24.5147 H   0  0  0  0  0  0
  -15.5344  -30.2983   23.7699 H   0  0  0  0  0  0
  -15.8657  -28.0849   22.7050 H   0  0  0  0  0  0
  -24.5915  -30.7057   25.7751 H   0  0  0  0  0  0
  -24.8936  -32.2849   26.4897 H   0  0  0  0  0  0
  -25.8087  -30.8839   27.0181 H   0  0  0  0  0  0
  -26.2858  -29.6750   24.1216 H   0  0  0  0  0  0
  -27.4104  -29.7284   25.4599 H   0  0  0  0  0  0
  -27.8698  -30.4309   23.9272 H   0  0  0  0  0  0
  -27.2719  -33.3625   26.2008 H   0  0  0  0  0  0
  -28.3872  -32.6833   25.0247 H   0  0  0  0  0  0
  -28.0746  -31.8427   26.5348 H   0  0  0  0  0  0
  -28.2567  -38.0129   24.7597 H   0  0  0  0  0  0
  -28.1147  -36.2667   24.6165 H   0  0  0  0  0  0
  -27.2335  -37.1279   25.8863 H   0  0  0  0  0  0
  -20.9356  -29.8707   21.6880 H   0  0  0  0  0  0
  -26.0174  -38.2856   24.1482 H   0  0  0  0  0  0
  -29.3714  -18.1171   22.0578 H   0  0  0  0  0  0
  -30.2371  -18.4765   17.2105 H   0  0  0  0  0  0
  -31.3141  -22.8529   25.4793 H   0  0  0  0  0  0
  -31.8194  -24.3448   24.5178 H   0  0  0  0  0  0
  -31.1384  -24.6010   22.2242 H   0  0  0  0  0  0
  -30.1463  -21.9761   23.5924 H   0  0  0  0  0  0
  -29.9722  -24.0018   19.0087 H   0  0  0  0  0  0
  -30.4654  -25.2440   20.1098 H   0  0  0  0  0  0
  -27.6242  -24.5266   21.9601 H   0  0  0  0  0  0
  -26.3523  -24.4389   20.8004 H   0  0  0  0  0  0
  -27.0667  -22.2207   20.0134 H   0  0  0  0  0  0
  -27.1390  -22.1867   21.7502 H   0  0  0  0  0  0
  -27.9178  -24.8867   18.9462 H   0  0  0  0  0  0
  -30.7333  -21.5330   18.6328 H   0  0  0  0  0  0
  -28.9847  -21.4631   18.2595 H   0  0  0  0  0  0
  -30.1477  -20.7355   17.1920 H   0  0  0  0  0  0
  -30.3479  -20.8496   21.8156 H   0  0  0  0  0  0
  -28.6667  -20.5484   22.1237 H   0  0  0  0  0  0
  -28.9708  -15.4206   21.3085 H   0  0  0  0  0  0
  -29.1584  -22.0051   19.7968 H   0  0  0  0  0  0
  1 25  1  0  0  0
  1 30  2  0  0  0
  1 87  1  0  0  0
  2  3  1  0  0  0
  2 25  1  0  0  0
  2 90  1  0  0  0
  2 91  1  0  0  0
  3  4  1  0  0  0
  3 92  1  0  0  0
  3 93  1  0  0  0
  4  5  1  0  0  0
  4 94  1  0  0  0
  4 95  1  0  0  0
  5  6  1  0  0  0
  5 26  1  0  0  0
  5 96  1  0  0  0
  6 25  1  0  0  0
  6 97  1  0  0  0
  6 98  1  0  0  0
  7  8  2  0  0  0
  7 26  1  0  0  0
  7 29  1  0  0  0
  8  9  1  0  0  0
  8 22  1  0  0  0
  9 10  1  0  0  0
  9 27  2  0  0  0
 10 11  2  0  0  0
 10 15  1  0  0  0
 11 12  1  0  0  0
 11 99  1  0  0  0
 12 13  2  0  0  0
 12100  1  0  0  0
 13 14  1  0  0  0
 13 31  1  0  0  0
 14 15  2  0  0  0
 14101  1  0  0  0
 15102  1  0  0  0
 16 17  2  0  0  0
 16 21  1  0  0  0
 16 31  1  0  0  0
 17 18  1  0  0  0
 17103  1  0  0  0
 18 19  2  0  0  0
 18104  1  0  0  0
 19 20  1  0  0  0
 19 24  1  0  0  0
 20 21  2  0  0  0
 20105  1  0  0  0
 21 23  1  0  0  0
 22 28  1  0  0  0
 22 32  2  0  0  0
 26 27  1  0  0  0
 28106  1  0  0  0
 28107  1  0  0  0
 29108  1  0  0  0
 29109  1  0  0  0
 33 34  1  0  0  0
 33 66  1  0  0  0
 33 70  2  0  0  0
 34 36  1  0  0  0
 34 59  1  0  0  0
 34110  1  0  0  0
 35 44  2  0  0  0
 35 45  1  0  0  0
 35 68  1  0  0  0
 36 56  1  0  0  0
 36111  1  0  0  0
 37 39  1  0  0  0
 37 47  1  0  0  0
 37 66  1  0  0  0
 37112  1  0  0  0
 38 43  2  0  0  0
 38 46  1  0  0  0
 38 47  1  0  0  0
 39 64  1  0  0  0
 39 67  2  0  0  0
 40 52  1  0  0  0
 40 53  2  0  0  0
 40 58  1  0  0  0
 41113  1  0  0  0
 41114  1  0  0  0
 41115  1  0  0  0
 41 48  1  0  0  0
 42 43  1  0  0  0
 42 66  1  0  0  0
 42116  1  0  0  0
 42117  1  0  0  0
 43 44  1  0  0  0
 44118  1  0  0  0
 45 46  2  0  0  0
 45119  1  0  0  0
 46120  1  0  0  0
 47121  1  0  0  0
 47122  1  0  0  0
 48 56  1  0  0  0
 48 65  1  0  0  0
 48123  1  0  0  0
 49 50  1  0  0  0
 49 53  1  0  0  0
 49 64  1  0  0  0
 49124  1  0  0  0
 50 51  1  0  0  0
 50125  1  0  0  0
 50126  1  0  0  0
 51 52  1  0  0  0
 51127  1  0  0  0
 51128  1  0  0  0
 52129  1  0  0  0
 52130  1  0  0  0
 53 54  1  0  0  0
 54 55  2  0  0  0
 54131  1  0  0  0
 55 57  1  0  0  0
 55132  1  0  0  0
 56 69  2  0  0  0
 57 58  2  0  0  0
 57133  1  0  0  0
 58134  1  0  0  0
 59 60  1  0  0  0
 59 61  1  0  0  0
 59 62  1  0  0  0
 60135  1  0  0  0
 60136  1  0  0  0
 60137  1  0  0  0
 61138  1  0  0  0
 61139  1  0  0  0
 61140  1  0  0  0
 62141  1  0  0  0
 62142  1  0  0  0
 62143  1  0  0  0
 63 65  1  0  0  0
 63144  1  0  0  0
 63145  1  0  0  0
 63146  1  0  0  0
 64147  1  0  0  0
 65148  1  0  0  0
 68 84  1  0  0  0
 71 73  2  0  0  0
 71 75  1  0  0  0
 71149  1  0  0  0
 72 74  2  0  0  0
 72 76  1  0  0  0
 72150  1  0  0  0
 73 74  1  0  0  0
 73 86  1  0  0  0
 74 85  1  0  0  0
 75 76  2  0  0  0
 75 87  1  0  0  0
 76 89  1  0  0  0
 77 79  2  0  0  0
 77 81  1  0  0  0
 77 88  1  0  0  0
 78 80  2  0  0  0
 78151  1  0  0  0
 78152  1  0  0  0
 79 80  1  0  0  0
 79153  1  0  0  0
 80154  1  0  0  0
 81 84  1  0  0  0
 81155  1  0  0  0
 81156  1  0  0  0
 82 83  1  0  0  0
 82 84  1  0  0  0
 82157  1  0  0  0
 82158  1  0  0  0
 83 88  1  0  0  0
 83159  1  0  0  0
 83160  1  0  0  0
 84161  1  0  0  0
 85162  1  0  0  0
 85163  1  0  0  0
 85164  1  0  0  0
 86165  1  0  0  0
 86166  1  0  0  0
 86 88  1  0  0  0
 87167  1  0  0  0
 88168  1  0  0  0
M  CHG  1  88   1
M  ISO  4   1 100  68 101  84 101  87 100
M  END
> <chiral flag>
0

> <version>
0

> <s_m_source_file>
/data/baiqing/PycharmProjects/Reinvent-master-3.2/result/LINK_invent/BTK/process_docking_weight1_custom_product_contain_oxygen_bond_distance_aromatic_linkinvent_7_9_3/rearranged_h_0046.sdf

> <i_m_source_file_index>
90

> <r_mmod_Potential_Energy-OPLS-2005>
2.85941672325134

> <r_mmod_Stretch_Energy-OPLS-2005>
83.9747695922852

> <r_mmod_Bend_Energy-OPLS-2005>
165.859756469727

> <r_mmod_Torsional_Energy-OPLS-2005>
279.225036621094

> <r_mmod_Improper_Torsional_Energy-OPLS-2005>
5.75842761993408

> <r_mmod_Van_der_Waal_Energy-OPLS-2005>
160.475784301758

> <r_mmod_Electrostatic_Energy-OPLS-2005>
-279.608703613281

> <r_mmod_Solvation_Energy-OPLS-2005>
-456.307037353516

> <b_mmod_Minimization_Converged-OPLS-2005>
0

> <r_mmod_RMS_Derivative-OPLS-2005>
3.22224473953247

$$$$
90
                    3D
 Structure written by MMmdl.
164173  0  0  1  0            999 V2000
  -30.6401  -14.7203   20.4061 C   0  0  0  0  0  0
  -30.4313  -12.4228   19.4813 C   0  0  0  0  0  0
  -29.5259  -12.5110   18.2335 C   0  0  0  0  0  0
  -28.0432  -12.3583   18.6221 C   0  0  0  0  0  0
  -27.6448  -13.2412   19.8392 C   0  0  2  0  0  0
  -28.6841  -13.1718   20.9797 C   0  0  0  0  0  0
  -25.2552  -13.8236   20.5709 C   0  0  0  0  0  0
  -24.1801  -13.0505   20.9183 C   0  0  0  0  0  0
  -24.6411  -11.6960   20.8698 C   0  0  0  0  0  0
  -23.9070  -10.4350   21.0353 C   0  0  0  0  0  0
  -24.3594   -9.4243   21.9130 C   0  0  0  0  0  0
  -23.6229   -8.2311   22.0755 C   0  0  0  0  0  0
  -22.4213   -8.0329   21.3550 C   0  0  0  0  0  0
  -21.9820   -9.0300   20.4659 C   0  0  0  0  0  0
  -22.7209  -10.2164   20.3015 C   0  0  0  0  0  0
  -21.6887   -6.0718   22.5244 C   0  0  0  0  0  0
  -21.4057   -6.5614   23.8191 C   0  0  0  0  0  0
  -21.3673   -5.6750   24.9148 C   0  0  0  0  0  0
  -21.6024   -4.3000   24.7194 C   0  0  0  0  0  0
  -21.8812   -3.8119   23.4319 C   0  0  0  0  0  0
  -21.9207   -4.6934   22.3399 C   0  0  0  0  0  0
  -22.7835  -13.5303   21.1845 C   0  0  0  0  0  0
  -22.1661   -4.2122   21.0973 F   0  0  0  0  0  0
  -21.5632   -3.4507   25.7734 F   0  0  0  0  0  0
  -29.9974  -13.5026   20.4027 N   0  0  0  0  0  0
  -26.2915  -12.9457   20.3085 N   0  0  0  0  0  0
  -25.9296  -11.6560   20.5485 N   0  0  0  0  0  0
  -22.0405  -12.8360   22.0394 N   0  0  0  0  0  0
  -25.4456  -15.1914   20.4510 N   0  0  0  0  0  0
  -31.8431  -14.7743   20.1374 O   0  0  0  0  0  0
  -21.6629   -6.8861   21.4217 O   0  0  0  0  0  0
  -22.3525  -14.5663   20.6751 O   0  0  0  0  0  0
  -24.6302  -31.8557   23.2042 C   0  0  0  0  0  0
  -25.9121  -32.4775   23.8378 C   0  0  1  0  0  0
  -27.2206  -27.2719   20.1180 C   0  0  0  0  0  0
  -25.5904  -33.8567   24.2302 N   0  0  0  0  0  0
  -23.4262  -30.4801   21.5449 C   0  0  2  0  0  0
  -24.8743  -28.9245   20.1170 C   0  0  0  0  0  0
  -22.7508  -29.4582   22.4928 C   0  0  0  0  0  0
  -18.0270  -28.1370   22.8498 C   0  0  0  0  0  0
  -24.1450  -36.7270   23.2632 C   0  0  0  0  0  0
  -25.9734  -30.7707   21.3840 C   0  0  0  0  0  0
  -26.0479  -29.3928   20.7213 C   0  0  0  0  0  0
  -27.2256  -28.5795   20.7114 C   0  0  0  0  0  0
  -26.0258  -26.8620   19.4938 C   0  0  0  0  0  0
  -24.8692  -27.6670   19.4915 C   0  0  0  0  0  0
  -23.6488  -29.8183   20.1591 C   0  0  0  0  0  0
  -25.4073  -36.3072   24.0348 C   0  0  1  0  0  0
  -20.5883  -28.3666   23.1288 C   0  0  2  0  0  0
  -20.6756  -26.9371   22.5421 C   0  0  0  0  0  0
  -19.5716  -26.6364   21.5229 C   0  0  0  0  0  0
  -18.1899  -26.7920   22.1641 C   0  0  0  0  0  0
  -19.1529  -28.8829   23.2903 C   0  0  0  0  0  0
  -18.9464  -30.1436   23.8930 C   0  0  0  0  0  0
  -17.6457  -30.6569   24.0570 C   0  0  0  0  0  0
  -25.9023  -34.9459   23.5137 C   0  0  0  0  0  0
  -16.5347  -29.9066   23.6312 C   0  0  0  0  0  0
  -16.7275  -28.6480   23.0360 C   0  0  0  0  0  0
  -26.4500  -31.6599   25.0762 C   0  0  0  0  0  0
  -25.3735  -31.3791   26.1514 C   0  0  0  0  0  0
  -27.0338  -30.3008   24.6243 C   0  0  0  0  0  0
  -27.6074  -32.4366   25.7513 C   0  0  0  0  0  0
  -27.5595  -37.1737   24.8432 C   0  0  0  0  0  0
  -21.4214  -29.3036   22.3717 N   0  0  0  0  0  0
  -26.4236  -37.3810   23.9479 N   0  0  0  0  0  0
  -24.6940  -31.0529   22.0998 N   0  0  0  0  0  0
  -23.4234  -28.8092   23.2982 O   0  0  0  0  0  0
  -28.3332  -26.4043   20.0827 O   0  0  0  0  0  0
  -26.5624  -34.8945   22.4716 O   0  0  0  0  0  0
  -23.5453  -32.1378   23.7318 O   0  0  0  0  0  0
  -30.9651  -18.3772   17.8527 C   0  0  0  0  0  0
  -30.8777  -17.2283   18.6483 C   0  0  0  0  0  0
  -29.4761  -18.4797   20.1942 C   0  0  0  0  0  0
  -30.2840  -19.5749   18.1678 C   0  0  0  0  0  0
  -29.5640  -19.7171   19.4072 C   0  0  0  0  0  0
  -30.1007  -17.2060   19.8255 C   0  0  0  0  0  0
  -28.5322  -23.7963   19.4974 C   0  0  0  0  0  0
  -28.2019  -23.9078   18.1978 C   0  0  0  0  0  0
  -29.2626  -23.4485   22.3022 C   0  0  0  0  0  0
  -29.0025  -24.8892   21.8403 C   0  0  0  0  0  0
  -30.0510  -22.6551   21.2385 C   0  0  0  0  0  0
  -28.2062  -24.9735   20.5319 C   0  0  1  0  0  0
  -30.3077  -20.5985   17.0375 C   0  0  0  0  0  0
  -28.7153  -21.0590   19.7535 C   0  0  0  0  0  0
  -29.8935  -15.8945   20.5112 N   0  0  0  0  0  0
  -29.3122  -22.4831   19.9619 N   0  3  1  0  0  0
  -31.4855  -12.5130   19.1984 H   0  0  0  0  0  0
  -30.3361  -11.4452   19.9577 H   0  0  0  0  0  0
  -29.8093  -11.7550   17.5018 H   0  0  0  0  0  0
  -29.6684  -13.4736   17.7372 H   0  0  0  0  0  0
  -27.8413  -11.3060   18.8270 H   0  0  0  0  0  0
  -27.4202  -12.6181   17.7630 H   0  0  0  0  0  0
  -27.6447  -14.2682   19.4667 H   0  0  0  0  0  0
  -28.6987  -12.1764   21.4152 H   0  0  0  0  0  0
  -28.4178  -13.8541   21.7905 H   0  0  0  0  0  0
  -25.2759   -9.5760   22.4653 H   0  0  0  0  0  0
  -23.9941   -7.4734   22.7516 H   0  0  0  0  0  0
  -21.0707   -8.8852   19.9018 H   0  0  0  0  0  0
  -22.3641  -10.9667   19.6116 H   0  0  0  0  0  0
  -21.2069   -7.6118   23.9688 H   0  0  0  0  0  0
  -21.1488   -6.0479   25.9049 H   0  0  0  0  0  0
  -22.0578   -2.7563   23.2826 H   0  0  0  0  0  0
  -22.3865  -11.9966   22.4787 H   0  0  0  0  0  0
  -21.1019  -13.1482   22.2521 H   0  0  0  0  0  0
  -24.7713  -15.8623   20.8001 H   0  0  0  0  0  0
  -26.3218  -15.6132   20.1784 H   0  0  0  0  0  0
  -26.7172  -32.5432   23.1121 H   0  0  0  0  0  0
  -25.0076  -33.9718   25.0455 H   0  0  0  0  0  0
  -22.7200  -31.3017   21.4041 H   0  0  0  0  0  0
  -23.3782  -35.9514   23.3179 H   0  0  0  0  0  0
  -24.3595  -36.9016   22.2070 H   0  0  0  0  0  0
  -23.7096  -37.6394   23.6730 H   0  0  0  0  0  0
  -26.1160  -31.5343   20.6174 H   0  0  0  0  0  0
  -26.8488  -30.8185   22.0204 H   0  0  0  0  0  0
  -28.1266  -28.9394   21.1882 H   0  0  0  0  0  0
  -25.9814  -25.9013   18.9989 H   0  0  0  0  0  0
  -23.9739  -27.3066   19.0060 H   0  0  0  0  0  0
  -23.7889  -30.6021   19.4128 H   0  0  0  0  0  0
  -22.7625  -29.2664   19.8416 H   0  0  0  0  0  0
  -25.1214  -36.1931   25.0836 H   0  0  0  0  0  0
  -20.9988  -28.3221   24.1407 H   0  0  0  0  0  0
  -20.5626  -26.2256   23.3622 H   0  0  0  0  0  0
  -21.6626  -26.7375   22.1243 H   0  0  0  0  0  0
  -19.6858  -25.6284   21.1219 H   0  0  0  0  0  0
  -19.6629  -27.3203   20.6783 H   0  0  0  0  0  0
  -17.4171  -26.6703   21.4044 H   0  0  0  0  0  0
  -18.0259  -26.0063   22.9016 H   0  0  0  0  0  0
  -19.7927  -30.7242   24.2336 H   0  0  0  0  0  0
  -17.5000  -31.6260   24.5142 H   0  0  0  0  0  0
  -15.5342  -30.2981   23.7616 H   0  0  0  0  0  0
  -15.8676  -28.0804   22.7071 H   0  0  0  0  0  0
  -24.5889  -30.7136   25.7915 H   0  0  0  0  0  0
  -24.8927  -32.2953   26.4941 H   0  0  0  0  0  0
  -25.8061  -30.9015   27.0300 H   0  0  0  0  0  0
  -26.2898  -29.6789   24.1241 H   0  0  0  0  0  0
  -27.3987  -29.7294   25.4783 H   0  0  0  0  0  0
  -27.8806  -30.4328   23.9514 H   0  0  0  0  0  0
  -27.2701  -33.3731   26.2004 H   0  0  0  0  0  0
  -28.3898  -32.6829   25.0311 H   0  0  0  0  0  0
  -28.0695  -31.8519   26.5488 H   0  0  0  0  0  0
  -28.2479  -38.0170   24.7743 H   0  0  0  0  0  0
  -28.1226  -36.2745   24.5892 H   0  0  0  0  0  0
  -27.2392  -37.0969   25.8839 H   0  0  0  0  0  0
  -20.9353  -29.8853   21.7037 H   0  0  0  0  0  0
  -26.0114  -38.2840   24.1666 H   0  0  0  0  0  0
  -31.5138  -18.3004   16.9182 H   0  0  0  0  0  0
  -31.3700  -16.3359   18.2772 H   0  0  0  0  0  0
  -28.8567  -18.4918   21.0816 H   0  0  0  0  0  0
  -27.6876  -24.7888   17.8386 H   0  0  0  0  0  0
  -28.4283  -23.1476   17.4697 H   0  0  0  0  0  0
  -28.3307  -22.9500   22.5637 H   0  0  0  0  0  0
  -29.8497  -23.4998   23.2195 H   0  0  0  0  0  0
  -29.9531  -25.4091   21.7136 H   0  0  0  0  0  0
  -28.4727  -25.4395   22.6221 H   0  0  0  0  0  0
  -30.3995  -21.6963   21.6239 H   0  0  0  0  0  0
  -30.9499  -23.2185   20.9922 H   0  0  0  0  0  0
  -27.1673  -24.7968   20.8074 H   0  0  0  0  0  0
  -29.9891  -20.1063   16.1116 H   0  0  0  0  0  0
  -31.3244  -20.9574   16.8625 H   0  0  0  0  0  0
  -29.6491  -21.4431   17.1798 H   0  0  0  0  0  0
  -28.0711  -20.8353   20.6016 H   0  0  0  0  0  0
  -28.0108  -21.1614   18.9288 H   0  0  0  0  0  0
  -29.0113  -15.7846   20.9862 H   0  0  0  0  0  0
  -30.0844  -22.4215   19.3200 H   0  0  0  0  0  0
  1 25  1  0  0  0
  1 30  2  0  0  0
  1 85  1  0  0  0
  2  3  1  0  0  0
  2 25  1  0  0  0
  2 87  1  0  0  0
  2 88  1  0  0  0
  3  4  1  0  0  0
  3 89  1  0  0  0
  3 90  1  0  0  0
  4  5  1  0  0  0
  4 91  1  0  0  0
  4 92  1  0  0  0
  5  6  1  0  0  0
  5 26  1  0  0  0
  5 93  1  0  0  0
  6 25  1  0  0  0
  6 94  1  0  0  0
  6 95  1  0  0  0
  7  8  2  0  0  0
  7 26  1  0  0  0
  7 29  1  0  0  0
  8  9  1  0  0  0
  8 22  1  0  0  0
  9 10  1  0  0  0
  9 27  2  0  0  0
 10 11  2  0  0  0
 10 15  1  0  0  0
 11 12  1  0  0  0
 11 96  1  0  0  0
 12 13  2  0  0  0
 12 97  1  0  0  0
 13 14  1  0  0  0
 13 31  1  0  0  0
 14 15  2  0  0  0
 14 98  1  0  0  0
 15 99  1  0  0  0
 16 17  2  0  0  0
 16 21  1  0  0  0
 16 31  1  0  0  0
 17 18  1  0  0  0
 17100  1  0  0  0
 18 19  2  0  0  0
 18101  1  0  0  0
 19 20  1  0  0  0
 19 24  1  0  0  0
 20 21  2  0  0  0
 20102  1  0  0  0
 21 23  1  0  0  0
 22 28  1  0  0  0
 22 32  2  0  0  0
 26 27  1  0  0  0
 28103  1  0  0  0
 28104  1  0  0  0
 29105  1  0  0  0
 29106  1  0  0  0
 33 34  1  0  0  0
 33 66  1  0  0  0
 33 70  2  0  0  0
 34 36  1  0  0  0
 34 59  1  0  0  0
 34107  1  0  0  0
 35 44  2  0  0  0
 35 45  1  0  0  0
 35 68  1  0  0  0
 36 56  1  0  0  0
 36108  1  0  0  0
 37 39  1  0  0  0
 37 47  1  0  0  0
 37 66  1  0  0  0
 37109  1  0  0  0
 38 43  2  0  0  0
 38 46  1  0  0  0
 38 47  1  0  0  0
 39 64  1  0  0  0
 39 67  2  0  0  0
 40 52  1  0  0  0
 40 53  2  0  0  0
 40 58  1  0  0  0
 41110  1  0  0  0
 41111  1  0  0  0
 41112  1  0  0  0
 41 48  1  0  0  0
 42 43  1  0  0  0
 42 66  1  0  0  0
 42113  1  0  0  0
 42114  1  0  0  0
 43 44  1  0  0  0
 44115  1  0  0  0
 45 46  2  0  0  0
 45116  1  0  0  0
 46117  1  0  0  0
 47118  1  0  0  0
 47119  1  0  0  0
 48 56  1  0  0  0
 48 65  1  0  0  0
 48120  1  0  0  0
 49 50  1  0  0  0
 49 53  1  0  0  0
 49 64  1  0  0  0
 49121  1  0  0  0
 50 51  1  0  0  0
 50122  1  0  0  0
 50123  1  0  0  0
 51 52  1  0  0  0
 51124  1  0  0  0
 51125  1  0  0  0
 52126  1  0  0  0
 52127  1  0  0  0
 53 54  1  0  0  0
 54 55  2  0  0  0
 54128  1  0  0  0
 55 57  1  0  0  0
 55129  1  0  0  0
 56 69  2  0  0  0
 57 58  2  0  0  0
 57130  1  0  0  0
 58131  1  0  0  0
 59 60  1  0  0  0
 59 61  1  0  0  0
 59 62  1  0  0  0
 60132  1  0  0  0
 60133  1  0  0  0
 60134  1  0  0  0
 61135  1  0  0  0
 61136  1  0  0  0
 61137  1  0  0  0
 62138  1  0  0  0
 62139  1  0  0  0
 62140  1  0  0  0
 63 65  1  0  0  0
 63141  1  0  0  0
 63142  1  0  0  0
 63143  1  0  0  0
 64144  1  0  0  0
 65145  1  0  0  0
 68 82  1  0  0  0
 71 72  2  0  0  0
 71 74  1  0  0  0
 71146  1  0  0  0
 72 76  1  0  0  0
 72147  1  0  0  0
 73 75  1  0  0  0
 73 76  2  0  0  0
 73148  1  0  0  0
 74 75  2  0  0  0
 74 83  1  0  0  0
 75 84  1  0  0  0
 76 85  1  0  0  0
 77 78  2  0  0  0
 77 82  1  0  0  0
 77 86  1  0  0  0
 78149  1  0  0  0
 78150  1  0  0  0
 79 80  1  0  0  0
 79 81  1  0  0  0
 79151  1  0  0  0
 79152  1  0  0  0
 80 82  1  0  0  0
 80153  1  0  0  0
 80154  1  0  0  0
 81 86  1  0  0  0
 81155  1  0  0  0
 81156  1  0  0  0
 82157  1  0  0  0
 83158  1  0  0  0
 83159  1  0  0  0
 83160  1  0  0  0
 84161  1  0  0  0
 84162  1  0  0  0
 84 86  1  0  0  0
 85163  1  0  0  0
 86164  1  0  0  0
M  CHG  1  86   1
M  ISO  4   1 100  68 101  82 101  85 100
M  END
> <chiral flag>
0

> <version>
0

> <s_m_source_file>
/data/baiqing/PycharmProjects/Reinvent-master-3.2/result/LINK_invent/BTK/process_docking_weight1_custom_product_contain_oxygen_bond_distance_aromatic_linkinvent_7_9_3/rearranged_h_0046.sdf

> <i_m_source_file_index>
91

> <r_mmod_Potential_Energy-OPLS-2005>
126.13826751709

> <r_mmod_Stretch_Energy-OPLS-2005>
156.349853515625

> <r_mmod_Bend_Energy-OPLS-2005>
202.300018310547

> <r_mmod_Torsional_Energy-OPLS-2005>
266.112823486328

> <r_mmod_Improper_Torsional_Energy-OPLS-2005>
7.10512065887451

> <r_mmod_Van_der_Waal_Energy-OPLS-2005>
133.759750366211

> <r_mmod_Electrostatic_Energy-OPLS-2005>
-273.183654785156

> <r_mmod_Solvation_Energy-OPLS-2005>
-442.655303955078

> <b_mmod_Minimization_Converged-OPLS-2005>
0

> <r_mmod_RMS_Derivative-OPLS-2005>
9.43340587615967

$$$$
91
                    3D
 Structure written by MMmdl.
157165  0  0  1  0            999 V2000
  -30.7059  -14.5523   20.5359 C   0  0  0  0  0  0
  -30.4190  -12.3533   19.4338 C   0  0  0  0  0  0
  -29.4948  -12.5029   18.2085 C   0  0  0  0  0  0
  -28.0169  -12.3603   18.6209 C   0  0  0  0  0  0
  -27.6509  -13.2210   19.8596 C   0  0  2  0  0  0
  -28.6990  -13.0762   20.9847 C   0  0  0  0  0  0
  -25.2560  -13.8188   20.5691 C   0  0  0  0  0  0
  -24.1832  -13.0438   20.9199 C   0  0  0  0  0  0
  -24.6406  -11.6913   20.8741 C   0  0  0  0  0  0
  -23.9079  -10.4290   21.0400 C   0  0  0  0  0  0
  -24.3628   -9.4208   21.9176 C   0  0  0  0  0  0
  -23.6296   -8.2251   22.0760 C   0  0  0  0  0  0
  -22.4282   -8.0292   21.3557 C   0  0  0  0  0  0
  -21.9923   -9.0257   20.4658 C   0  0  0  0  0  0
  -22.7248  -10.2135   20.3055 C   0  0  0  0  0  0
  -21.6860   -6.0737   22.5279 C   0  0  0  0  0  0
  -21.4019   -6.5640   23.8208 C   0  0  0  0  0  0
  -21.3664   -5.6797   24.9170 C   0  0  0  0  0  0
  -21.6041   -4.3062   24.7220 C   0  0  0  0  0  0
  -21.8826   -3.8148   23.4345 C   0  0  0  0  0  0
  -21.9206   -4.6963   22.3405 C   0  0  0  0  0  0
  -22.7856  -13.5229   21.1864 C   0  0  0  0  0  0
  -22.1669   -4.2149   21.0978 F   0  0  0  0  0  0
  -21.5634   -3.4550   25.7733 F   0  0  0  0  0  0
  -30.0138  -13.3827   20.4073 N   0  0  0  0  0  0
  -26.2988  -12.9368   20.3319 N   0  0  0  0  0  0
  -25.9338  -11.6517   20.5749 N   0  0  0  0  0  0
  -22.0524  -12.8189   22.0408 N   0  0  0  0  0  0
  -25.4274  -15.1906   20.4121 N   0  0  0  0  0  0
  -31.8901  -14.6135   20.2264 O   0  0  0  0  0  0
  -21.6654   -6.8882   21.4242 O   0  0  0  0  0  0
  -22.3525  -14.5527   20.6719 O   0  0  0  0  0  0
  -24.6207  -31.8638   23.2071 C   0  0  0  0  0  0
  -25.9078  -32.4794   23.8378 C   0  0  1  0  0  0
  -27.2232  -27.3638   20.1113 C   0  0  0  0  0  0
  -25.5911  -33.8591   24.2305 N   0  0  0  0  0  0
  -23.4111  -30.4896   21.5478 C   0  0  2  0  0  0
  -24.8576  -28.9537   20.1085 C   0  0  0  0  0  0
  -22.7437  -29.4648   22.4951 C   0  0  0  0  0  0
  -18.0275  -28.1380   22.8493 C   0  0  0  0  0  0
  -24.1487  -36.7313   23.2639 C   0  0  0  0  0  0
  -25.9483  -30.8079   21.3722 C   0  0  0  0  0  0
  -26.0227  -29.4393   20.7156 C   0  0  0  0  0  0
  -27.2071  -28.6534   20.7133 C   0  0  0  0  0  0
  -26.0384  -26.9267   19.4704 C   0  0  0  0  0  0
  -24.8652  -27.7009   19.4789 C   0  0  0  0  0  0
  -23.6228  -29.8271   20.1610 C   0  0  0  0  0  0
  -25.4108  -36.3093   24.0335 C   0  0  1  0  0  0
  -20.5869  -28.3689   23.1294 C   0  0  2  0  0  0
  -20.6765  -26.9417   22.5419 C   0  0  0  0  0  0
  -19.5742  -26.6393   21.5217 C   0  0  0  0  0  0
  -18.1919  -26.7927   22.1634 C   0  0  0  0  0  0
  -19.1525  -28.8846   23.2890 C   0  0  0  0  0  0
  -18.9455  -30.1449   23.8909 C   0  0  0  0  0  0
  -17.6457  -30.6586   24.0569 C   0  0  0  0  0  0
  -25.9041  -34.9459   23.5123 C   0  0  0  0  0  0
  -16.5346  -29.9089   23.6321 C   0  0  0  0  0  0
  -16.7266  -28.6503   23.0353 C   0  0  0  0  0  0
  -26.4481  -31.6576   25.0720 C   0  0  0  0  0  0
  -25.3732  -31.3697   26.1457 C   0  0  0  0  0  0
  -27.0321  -30.3005   24.6146 C   0  0  0  0  0  0
  -27.6052  -32.4298   25.7492 C   0  0  0  0  0  0
  -27.5577  -37.1806   24.8459 C   0  0  0  0  0  0
  -21.4157  -29.3048   22.3689 N   0  0  0  0  0  0
  -26.4293  -37.3781   23.9402 N   0  0  0  0  0  0
  -24.6786  -31.0692   22.1002 N   0  0  0  0  0  0
  -23.4183  -28.8182   23.3011 O   0  0  0  0  0  0
  -28.3546  -26.5466   20.1767 O   0  0  0  0  0  0
  -26.5616  -34.8919   22.4690 O   0  0  0  0  0  0
  -23.5385  -32.1421   23.7425 O   0  0  0  0  0  0
  -32.5793  -19.7394   18.5715 C   0  0  0  0  0  0
  -33.0195  -18.4418   18.8480 C   0  0  0  0  0  0
  -31.4311  -20.2280   19.2131 C   0  0  0  0  0  0
  -32.2786  -17.6309   19.7216 C   0  0  0  0  0  0
  -30.6829  -19.4396   20.1256 C   0  0  0  0  0  0
  -31.0759  -18.0593   20.3350 C   0  0  0  0  0  0
  -28.9882  -22.6031   20.2252 C   0  0  0  0  0  0
  -29.5080  -20.1612   20.8363 C   0  0  0  0  0  0
  -30.3693  -17.0475   21.2915 C   0  0  0  0  0  0
  -29.2500  -24.1187   20.5266 C   0  0  0  0  0  0
  -28.1573  -25.1079   19.9762 C   0  0  0  0  0  0
  -29.6219  -21.6497   20.9545 N   0  0  0  0  0  0
  -29.9850  -15.6619   20.8523 N   0  0  0  0  0  0
  -28.2179  -22.2914   19.3152 O   0  0  0  0  0  0
  -31.4618  -12.4517   19.1276 H   0  0  0  0  0  0
  -30.3248  -11.3576   19.8704 H   0  0  0  0  0  0
  -29.7447  -11.7597   17.4481 H   0  0  0  0  0  0
  -29.6527  -13.4770   17.7437 H   0  0  0  0  0  0
  -27.8326  -11.3073   18.8295 H   0  0  0  0  0  0
  -27.3686  -12.6180   17.7828 H   0  0  0  0  0  0
  -27.6690  -14.2584   19.5243 H   0  0  0  0  0  0
  -28.6962  -12.0621   21.3873 H   0  0  0  0  0  0
  -28.4628  -13.7321   21.8242 H   0  0  0  0  0  0
  -25.2782   -9.5687   22.4730 H   0  0  0  0  0  0
  -24.0029   -7.4649   22.7466 H   0  0  0  0  0  0
  -21.0871   -8.8772   19.8947 H   0  0  0  0  0  0
  -22.3715  -10.9676   19.6163 H   0  0  0  0  0  0
  -21.2002   -7.6148   23.9702 H   0  0  0  0  0  0
  -21.1481   -6.0529   25.9069 H   0  0  0  0  0  0
  -22.0603   -2.7611   23.2838 H   0  0  0  0  0  0
  -22.4163  -11.9841   22.4757 H   0  0  0  0  0  0
  -21.1147  -13.1191   22.2646 H   0  0  0  0  0  0
  -24.6623  -15.8463   20.5237 H   0  0  0  0  0  0
  -26.2746  -15.6306   20.0752 H   0  0  0  0  0  0
  -26.7147  -32.5480   23.1129 H   0  0  0  0  0  0
  -25.0001  -33.9747   25.0411 H   0  0  0  0  0  0
  -22.7030  -31.3092   21.4089 H   0  0  0  0  0  0
  -23.3741  -35.9654   23.3297 H   0  0  0  0  0  0
  -24.3576  -36.8943   22.2055 H   0  0  0  0  0  0
  -23.7262  -37.6526   23.6664 H   0  0  0  0  0  0
  -26.0711  -31.5723   20.6034 H   0  0  0  0  0  0
  -26.8328  -30.8571   21.9963 H   0  0  0  0  0  0
  -28.0990  -29.0177   21.2040 H   0  0  0  0  0  0
  -25.9891  -25.9755   18.9604 H   0  0  0  0  0  0
  -23.9745  -27.3276   18.9933 H   0  0  0  0  0  0
  -23.7329  -30.6045   19.4043 H   0  0  0  0  0  0
  -22.7445  -29.2512   19.8636 H   0  0  0  0  0  0
  -25.1285  -36.1950   25.0830 H   0  0  0  0  0  0
  -20.9969  -28.3270   24.1410 H   0  0  0  0  0  0
  -20.5664  -26.2305   23.3616 H   0  0  0  0  0  0
  -21.6633  -26.7441   22.1215 H   0  0  0  0  0  0
  -19.6903  -25.6306   21.1231 H   0  0  0  0  0  0
  -19.6668  -27.3216   20.6754 H   0  0  0  0  0  0
  -17.4188  -26.6674   21.4038 H   0  0  0  0  0  0
  -18.0320  -26.0064   22.9028 H   0  0  0  0  0  0
  -19.7932  -30.7258   24.2294 H   0  0  0  0  0  0
  -17.5014  -31.6266   24.5177 H   0  0  0  0  0  0
  -15.5352  -30.3007   23.7630 H   0  0  0  0  0  0
  -15.8667  -28.0833   22.7064 H   0  0  0  0  0  0
  -24.5902  -30.7055   25.7784 H   0  0  0  0  0  0
  -24.8926  -32.2854   26.4907 H   0  0  0  0  0  0
  -25.8065  -30.8852   27.0216 H   0  0  0  0  0  0
  -26.2882  -29.6759   24.1183 H   0  0  0  0  0  0
  -27.4046  -29.7251   25.4636 H   0  0  0  0  0  0
  -27.8741  -30.4301   23.9339 H   0  0  0  0  0  0
  -27.2668  -33.3592   26.2092 H   0  0  0  0  0  0
  -28.3853  -32.6871   25.0311 H   0  0  0  0  0  0
  -28.0731  -31.8402   26.5392 H   0  0  0  0  0  0
  -28.2589  -38.0109   24.7503 H   0  0  0  0  0  0
  -28.1079  -36.2635   24.6278 H   0  0  0  0  0  0
  -27.2286  -37.1453   25.8861 H   0  0  0  0  0  0
  -20.9324  -29.8785   21.6916 H   0  0  0  0  0  0
  -26.0172  -38.2859   24.1400 H   0  0  0  0  0  0
  -33.1421  -20.3714   17.8975 H   0  0  0  0  0  0
  -33.9321  -18.0674   18.4023 H   0  0  0  0  0  0
  -31.1490  -21.2477   18.9982 H   0  0  0  0  0  0
  -32.7071  -16.6748   19.9436 H   0  0  0  0  0  0
  -29.4221  -19.7694   21.8509 H   0  0  0  0  0  0
  -28.5795  -19.8913   20.3290 H   0  0  0  0  0  0
  -29.4506  -17.5052   21.6563 H   0  0  0  0  0  0
  -31.0029  -16.9430   22.1746 H   0  0  0  0  0  0
  -30.2187  -24.3831   20.1033 H   0  0  0  0  0  0
  -29.3401  -24.2495   21.6056 H   0  0  0  0  0  0
  -27.2189  -24.8025   20.4448 H   0  0  0  0  0  0
  -28.0420  -24.9377   18.9046 H   0  0  0  0  0  0
  -30.2431  -21.9769   21.6826 H   0  0  0  0  0  0
  -28.9997  -15.4713   20.9530 H   0  0  0  0  0  0
  1 25  1  0  0  0
  1 30  2  0  0  0
  1 83  1  0  0  0
  2  3  1  0  0  0
  2 25  1  0  0  0
  2 85  1  0  0  0
  2 86  1  0  0  0
  3  4  1  0  0  0
  3 87  1  0  0  0
  3 88  1  0  0  0
  4  5  1  0  0  0
  4 89  1  0  0  0
  4 90  1  0  0  0
  5  6  1  0  0  0
  5 26  1  0  0  0
  5 91  1  0  0  0
  6 25  1  0  0  0
  6 92  1  0  0  0
  6 93  1  0  0  0
  7  8  2  0  0  0
  7 26  1  0  0  0
  7 29  1  0  0  0
  8  9  1  0  0  0
  8 22  1  0  0  0
  9 10  1  0  0  0
  9 27  2  0  0  0
 10 11  2  0  0  0
 10 15  1  0  0  0
 11 12  1  0  0  0
 11 94  1  0  0  0
 12 13  2  0  0  0
 12 95  1  0  0  0
 13 14  1  0  0  0
 13 31  1  0  0  0
 14 15  2  0  0  0
 14 96  1  0  0  0
 15 97  1  0  0  0
 16 17  2  0  0  0
 16 21  1  0  0  0
 16 31  1  0  0  0
 17 18  1  0  0  0
 17 98  1  0  0  0
 18 19  2  0  0  0
 18 99  1  0  0  0
 19 20  1  0  0  0
 19 24  1  0  0  0
 20 21  2  0  0  0
 20100  1  0  0  0
 21 23  1  0  0  0
 22 28  1  0  0  0
 22 32  2  0  0  0
 26 27  1  0  0  0
 28101  1  0  0  0
 28102  1  0  0  0
 29103  1  0  0  0
 29104  1  0  0  0
 33 34  1  0  0  0
 33 66  1  0  0  0
 33 70  2  0  0  0
 34 36  1  0  0  0
 34 59  1  0  0  0
 34105  1  0  0  0
 35 44  2  0  0  0
 35 45  1  0  0  0
 35 68  1  0  0  0
 36 56  1  0  0  0
 36106  1  0  0  0
 37 39  1  0  0  0
 37 47  1  0  0  0
 37 66  1  0  0  0
 37107  1  0  0  0
 38 43  2  0  0  0
 38 46  1  0  0  0
 38 47  1  0  0  0
 39 64  1  0  0  0
 39 67  2  0  0  0
 40 52  1  0  0  0
 40 53  2  0  0  0
 40 58  1  0  0  0
 41108  1  0  0  0
 41109  1  0  0  0
 41110  1  0  0  0
 41 48  1  0  0  0
 42 43  1  0  0  0
 42 66  1  0  0  0
 42111  1  0  0  0
 42112  1  0  0  0
 43 44  1  0  0  0
 44113  1  0  0  0
 45 46  2  0  0  0
 45114  1  0  0  0
 46115  1  0  0  0
 47116  1  0  0  0
 47117  1  0  0  0
 48 56  1  0  0  0
 48 65  1  0  0  0
 48118  1  0  0  0
 49 50  1  0  0  0
 49 53  1  0  0  0
 49 64  1  0  0  0
 49119  1  0  0  0
 50 51  1  0  0  0
 50120  1  0  0  0
 50121  1  0  0  0
 51 52  1  0  0  0
 51122  1  0  0  0
 51123  1  0  0  0
 52124  1  0  0  0
 52125  1  0  0  0
 53 54  1  0  0  0
 54 55  2  0  0  0
 54126  1  0  0  0
 55 57  1  0  0  0
 55127  1  0  0  0
 56 69  2  0  0  0
 57 58  2  0  0  0
 57128  1  0  0  0
 58129  1  0  0  0
 59 60  1  0  0  0
 59 61  1  0  0  0
 59 62  1  0  0  0
 60130  1  0  0  0
 60131  1  0  0  0
 60132  1  0  0  0
 61133  1  0  0  0
 61134  1  0  0  0
 61135  1  0  0  0
 62136  1  0  0  0
 62137  1  0  0  0
 62138  1  0  0  0
 63 65  1  0  0  0
 63139  1  0  0  0
 63140  1  0  0  0
 63141  1  0  0  0
 64142  1  0  0  0
 65143  1  0  0  0
 68 81  1  0  0  0
 71 72  2  0  0  0
 71 73  1  0  0  0
 71144  1  0  0  0
 72 74  1  0  0  0
 72145  1  0  0  0
 73 75  2  0  0  0
 73146  1  0  0  0
 74 76  2  0  0  0
 74147  1  0  0  0
 75 76  1  0  0  0
 75 78  1  0  0  0
 76 79  1  0  0  0
 77 80  1  0  0  0
 77 82  1  0  0  0
 77 84  2  0  0  0
 78 82  1  0  0  0
 78148  1  0  0  0
 78149  1  0  0  0
 79 83  1  0  0  0
 79150  1  0  0  0
 79151  1  0  0  0
 80 81  1  0  0  0
 80152  1  0  0  0
 80153  1  0  0  0
 81154  1  0  0  0
 81155  1  0  0  0
 82156  1  0  0  0
 83157  1  0  0  0
M  ISO  4   1 100  68 101  81 101  83 100
M  END
> <chiral flag>
0

> <version>
0

> <s_m_source_file>
/data/baiqing/PycharmProjects/Reinvent-master-3.2/result/LINK_invent/BTK/process_docking_weight1_custom_product_contain_oxygen_bond_distance_aromatic_linkinvent_7_9_3/rearranged_h_0046.sdf

> <i_m_source_file_index>
92

> <r_mmod_Potential_Energy-OPLS-2005>
-119.175361633301

> <r_mmod_Stretch_Energy-OPLS-2005>
64.4536819458008

> <r_mmod_Bend_Energy-OPLS-2005>
133.95361328125

> <r_mmod_Torsional_Energy-OPLS-2005>
196.469635009766

> <r_mmod_Improper_Torsional_Energy-OPLS-2005>
4.29624176025391

> <r_mmod_Van_der_Waal_Energy-OPLS-2005>
161.233123779297

> <r_mmod_Electrostatic_Energy-OPLS-2005>
-469.280395507812

> <r_mmod_Solvation_Energy-OPLS-2005>
-244.664764404297

> <b_mmod_Minimization_Converged-OPLS-2005>
0

> <r_mmod_RMS_Derivative-OPLS-2005>
2.26625561714172

$$$$
92
                    3D
 Structure written by MMmdl.
154162  0  0  1  0            999 V2000
  -30.6859  -14.7328   20.4982 C   0  0  0  0  0  0
  -30.4291  -12.4513   19.4847 C   0  0  0  0  0  0
  -29.5119  -12.5360   18.2452 C   0  0  0  0  0  0
  -28.0451  -12.3392   18.6624 C   0  0  0  0  0  0
  -27.6477  -13.2445   19.8596 C   0  0  2  0  0  0
  -28.6970  -13.2008   21.0001 C   0  0  0  0  0  0
  -25.2516  -13.8265   20.5803 C   0  0  0  0  0  0
  -24.1779  -13.0467   20.9215 C   0  0  0  0  0  0
  -24.6393  -11.6978   20.8737 C   0  0  0  0  0  0
  -23.9064  -10.4338   21.0391 C   0  0  0  0  0  0
  -24.3595   -9.4225   21.9153 C   0  0  0  0  0  0
  -23.6264   -8.2264   22.0753 C   0  0  0  0  0  0
  -22.4248   -8.0320   21.3569 C   0  0  0  0  0  0
  -21.9893   -9.0291   20.4664 C   0  0  0  0  0  0
  -22.7233  -10.2153   20.3035 C   0  0  0  0  0  0
  -21.6856   -6.0735   22.5286 C   0  0  0  0  0  0
  -21.4027   -6.5605   23.8228 C   0  0  0  0  0  0
  -21.3651   -5.6740   24.9171 C   0  0  0  0  0  0
  -21.6035   -4.3022   24.7203 C   0  0  0  0  0  0
  -21.8810   -3.8134   23.4303 C   0  0  0  0  0  0
  -21.9176   -4.6956   22.3383 C   0  0  0  0  0  0
  -22.7798  -13.5264   21.1840 C   0  0  0  0  0  0
  -22.1651   -4.2156   21.0962 F   0  0  0  0  0  0
  -21.5604   -3.4490   25.7682 F   0  0  0  0  0  0
  -30.0106  -13.5277   20.4204 N   0  0  0  0  0  0
  -26.2967  -12.9489   20.3331 N   0  0  0  0  0  0
  -25.9316  -11.6608   20.5693 N   0  0  0  0  0  0
  -22.0333  -12.8396   22.0432 N   0  0  0  0  0  0
  -25.4156  -15.2016   20.4355 N   0  0  0  0  0  0
  -31.8511  -14.7941   20.1000 O   0  0  0  0  0  0
  -21.6628   -6.8892   21.4271 O   0  0  0  0  0  0
  -22.3530  -14.5532   20.6612 O   0  0  0  0  0  0
  -24.6374  -31.8544   23.1971 C   0  0  0  0  0  0
  -25.9196  -32.4744   23.8340 C   0  0  1  0  0  0
  -27.2321  -27.2594   20.1390 C   0  0  0  0  0  0
  -25.5980  -33.8534   24.2258 N   0  0  0  0  0  0
  -23.4307  -30.4768   21.5427 C   0  0  2  0  0  0
  -24.8790  -28.9204   20.1102 C   0  0  0  0  0  0
  -22.7515  -29.4600   22.4936 C   0  0  0  0  0  0
  -18.0247  -28.1448   22.8514 C   0  0  0  0  0  0
  -24.1473  -36.7260   23.2629 C   0  0  0  0  0  0
  -25.9729  -30.7699   21.3711 C   0  0  0  0  0  0
  -26.0522  -29.3908   20.7161 C   0  0  0  0  0  0
  -27.2350  -28.5770   20.7094 C   0  0  0  0  0  0
  -26.0386  -26.8591   19.4968 C   0  0  0  0  0  0
  -24.8828  -27.6669   19.4811 C   0  0  0  0  0  0
  -23.6472  -29.8074   20.1599 C   0  0  0  0  0  0
  -25.4116  -36.3050   24.0312 C   0  0  1  0  0  0
  -20.5881  -28.3710   23.1240 C   0  0  2  0  0  0
  -20.6742  -26.9463   22.5259 C   0  0  0  0  0  0
  -19.5589  -26.6423   21.5207 C   0  0  0  0  0  0
  -18.1838  -26.7945   22.1726 C   0  0  0  0  0  0
  -19.1526  -28.8882   23.2899 C   0  0  0  0  0  0
  -18.9495  -30.1449   23.8991 C   0  0  0  0  0  0
  -17.6514  -30.6610   24.0721 C   0  0  0  0  0  0
  -25.9080  -34.9427   23.5083 C   0  0  0  0  0  0
  -16.5381  -29.9172   23.6429 C   0  0  0  0  0  0
  -16.7254  -28.6630   23.0345 C   0  0  0  0  0  0
  -26.4556  -31.6590   25.0743 C   0  0  0  0  0  0
  -25.3760  -31.3766   26.1466 C   0  0  0  0  0  0
  -27.0391  -30.3000   24.6221 C   0  0  0  0  0  0
  -27.6079  -32.4357   25.7542 C   0  0  0  0  0  0
  -27.5577  -37.1800   24.8466 C   0  0  0  0  0  0
  -21.4206  -29.3101   22.3692 N   0  0  0  0  0  0
  -26.4272  -37.3777   23.9415 N   0  0  0  0  0  0
  -24.6988  -31.0531   22.0921 N   0  0  0  0  0  0
  -23.4218  -28.8142   23.3035 O   0  0  0  0  0  0
  -28.3248  -26.3602   20.1581 O   0  0  0  0  0  0
  -26.5617  -34.8904   22.4637 O   0  0  0  0  0  0
  -23.5529  -32.1384   23.7279 O   0  0  0  0  0  0
  -31.1868  -20.0741   21.5280 C   0  0  0  0  0  0
  -31.9507  -18.9841   22.0046 C   0  0  0  0  0  0
  -29.6766  -18.4618   20.5148 C   0  0  0  0  0  0
  -30.0232  -19.8606   20.7542 C   0  0  0  0  0  0
  -30.4354  -17.3093   20.9994 C   0  0  0  0  0  0
  -31.5938  -17.6351   21.7667 C   0  0  0  0  0  0
  -28.9674  -23.7270   20.1615 C   0  0  0  0  0  0
  -28.2142  -22.2799   22.0172 C   0  0  0  0  0  0
  -29.2731  -21.1117   20.0791 C   0  0  0  0  0  0
  -28.1007  -24.9724   20.7164 C   0  0  0  0  0  0
  -29.9866  -15.8946   20.8097 N   0  0  0  0  0  0
  -28.9395  -22.4540   20.7579 N   0  0  0  0  0  0
  -29.6088  -23.9067   19.1210 O   0  0  0  0  0  0
  -32.5908  -16.4380   22.5223 Cl  0  0  0  0  0  0
  -31.4769  -12.5347   19.1944 H   0  0  0  0  0  0
  -30.3461  -11.4700   19.9560 H   0  0  0  0  0  0
  -29.7971  -11.7945   17.4975 H   0  0  0  0  0  0
  -29.6303  -13.5117   17.7718 H   0  0  0  0  0  0
  -27.9232  -11.2885   18.9329 H   0  0  0  0  0  0
  -27.3805  -12.5134   17.8127 H   0  0  0  0  0  0
  -27.6360  -14.2628   19.4734 H   0  0  0  0  0  0
  -28.7220  -12.2203   21.4713 H   0  0  0  0  0  0
  -28.4276  -13.9081   21.7860 H   0  0  0  0  0  0
  -25.2693   -9.5704   22.4762 H   0  0  0  0  0  0
  -23.9938   -7.4669   22.7512 H   0  0  0  0  0  0
  -21.0787   -8.8833   19.8992 H   0  0  0  0  0  0
  -22.3686  -10.9710   19.6174 H   0  0  0  0  0  0
  -21.2083   -7.6127   23.9773 H   0  0  0  0  0  0
  -21.1478   -6.0438   25.9083 H   0  0  0  0  0  0
  -22.0619   -2.7602   23.2777 H   0  0  0  0  0  0
  -22.3756  -12.0050   22.4925 H   0  0  0  0  0  0
  -21.0997  -13.1630   22.2511 H   0  0  0  0  0  0
  -24.6398  -15.8427   20.5461 H   0  0  0  0  0  0
  -26.2608  -15.6723   20.1319 H   0  0  0  0  0  0
  -26.7283  -32.5412   23.1115 H   0  0  0  0  0  0
  -25.0132  -33.9622   25.0420 H   0  0  0  0  0  0
  -22.7311  -31.3004   21.4036 H   0  0  0  0  0  0
  -23.3716  -35.9602   23.3278 H   0  0  0  0  0  0
  -24.3530  -36.8906   22.2035 H   0  0  0  0  0  0
  -23.7240  -37.6464   23.6676 H   0  0  0  0  0  0
  -26.1074  -31.5323   20.6029 H   0  0  0  0  0  0
  -26.8481  -30.8237   22.0040 H   0  0  0  0  0  0
  -28.1389  -28.9349   21.1863 H   0  0  0  0  0  0
  -25.9861  -25.8979   19.0048 H   0  0  0  0  0  0
  -23.9916  -27.3150   18.9834 H   0  0  0  0  0  0
  -23.7566  -30.5813   19.3982 H   0  0  0  0  0  0
  -22.7676  -29.2323   19.8675 H   0  0  0  0  0  0
  -25.1316  -36.1894   25.0803 H   0  0  0  0  0  0
  -20.9968  -28.3208   24.1359 H   0  0  0  0  0  0
  -20.5891  -26.2282   23.3440 H   0  0  0  0  0  0
  -21.6536  -26.7603   22.0856 H   0  0  0  0  0  0
  -19.6657  -25.6360   21.1175 H   0  0  0  0  0  0
  -19.6375  -27.3243   20.6734 H   0  0  0  0  0  0
  -17.3999  -26.6622   21.4245 H   0  0  0  0  0  0
  -18.0332  -26.0147   22.9237 H   0  0  0  0  0  0
  -19.7982  -30.7228   24.2404 H   0  0  0  0  0  0
  -17.5089  -31.6213   24.5496 H   0  0  0  0  0  0
  -15.5395  -30.3103   23.7842 H   0  0  0  0  0  0
  -15.8615  -28.1031   22.7009 H   0  0  0  0  0  0
  -24.5888  -30.7179   25.7811 H   0  0  0  0  0  0
  -24.9012  -32.2940   26.4947 H   0  0  0  0  0  0
  -25.8051  -30.8911   27.0239 H   0  0  0  0  0  0
  -26.2964  -29.6749   24.1241 H   0  0  0  0  0  0
  -27.4068  -29.7308   25.4782 H   0  0  0  0  0  0
  -27.8863  -30.4265   23.9458 H   0  0  0  0  0  0
  -27.2641  -33.3646   26.2116 H   0  0  0  0  0  0
  -28.3895  -32.6954   25.0382 H   0  0  0  0  0  0
  -28.0742  -31.8497   26.5487 H   0  0  0  0  0  0
  -28.2625  -38.0083   24.7540 H   0  0  0  0  0  0
  -28.1051  -36.2619   24.6284 H   0  0  0  0  0  0
  -27.2272  -37.1449   25.8864 H   0  0  0  0  0  0
  -20.9383  -29.8920   21.6993 H   0  0  0  0  0  0
  -26.0131  -38.2831   24.1473 H   0  0  0  0  0  0
  -31.5281  -21.0798   21.7475 H   0  0  0  0  0  0
  -32.8380  -19.1876   22.5916 H   0  0  0  0  0  0
  -28.8074  -18.2604   19.9083 H   0  0  0  0  0  0
  -27.1494  -22.4473   21.8558 H   0  0  0  0  0  0
  -28.5582  -22.9786   22.7797 H   0  0  0  0  0  0
  -28.3302  -21.2769   22.4259 H   0  0  0  0  0  0
  -28.3148  -20.7242   19.7278 H   0  0  0  0  0  0
  -29.8339  -21.3329   19.1671 H   0  0  0  0  0  0
  -28.2457  -25.0448   21.7942 H   0  0  0  0  0  0
  -27.0620  -24.6735   20.5863 H   0  0  0  0  0  0
  -28.9967  -15.7472   20.9255 H   0  0  0  0  0  0
  1 25  1  0  0  0
  1 30  2  0  0  0
  1 81  1  0  0  0
  2  3  1  0  0  0
  2 25  1  0  0  0
  2 85  1  0  0  0
  2 86  1  0  0  0
  3  4  1  0  0  0
  3 87  1  0  0  0
  3 88  1  0  0  0
  4  5  1  0  0  0
  4 89  1  0  0  0
  4 90  1  0  0  0
  5  6  1  0  0  0
  5 26  1  0  0  0
  5 91  1  0  0  0
  6 25  1  0  0  0
  6 92  1  0  0  0
  6 93  1  0  0  0
  7  8  2  0  0  0
  7 26  1  0  0  0
  7 29  1  0  0  0
  8  9  1  0  0  0
  8 22  1  0  0  0
  9 10  1  0  0  0
  9 27  2  0  0  0
 10 11  2  0  0  0
 10 15  1  0  0  0
 11 12  1  0  0  0
 11 94  1  0  0  0
 12 13  2  0  0  0
 12 95  1  0  0  0
 13 14  1  0  0  0
 13 31  1  0  0  0
 14 15  2  0  0  0
 14 96  1  0  0  0
 15 97  1  0  0  0
 16 17  2  0  0  0
 16 21  1  0  0  0
 16 31  1  0  0  0
 17 18  1  0  0  0
 17 98  1  0  0  0
 18 19  2  0  0  0
 18 99  1  0  0  0
 19 20  1  0  0  0
 19 24  1  0  0  0
 20 21  2  0  0  0
 20100  1  0  0  0
 21 23  1  0  0  0
 22 28  1  0  0  0
 22 32  2  0  0  0
 26 27  1  0  0  0
 28101  1  0  0  0
 28102  1  0  0  0
 29103  1  0  0  0
 29104  1  0  0  0
 33 34  1  0  0  0
 33 66  1  0  0  0
 33 70  2  0  0  0
 34 36  1  0  0  0
 34 59  1  0  0  0
 34105  1  0  0  0
 35 44  2  0  0  0
 35 45  1  0  0  0
 35 68  1  0  0  0
 36 56  1  0  0  0
 36106  1  0  0  0
 37 39  1  0  0  0
 37 47  1  0  0  0
 37 66  1  0  0  0
 37107  1  0  0  0
 38 43  2  0  0  0
 38 46  1  0  0  0
 38 47  1  0  0  0
 39 64  1  0  0  0
 39 67  2  0  0  0
 40 52  1  0  0  0
 40 53  2  0  0  0
 40 58  1  0  0  0
 41108  1  0  0  0
 41109  1  0  0  0
 41110  1  0  0  0
 41 48  1  0  0  0
 42 43  1  0  0  0
 42 66  1  0  0  0
 42111  1  0  0  0
 42112  1  0  0  0
 43 44  1  0  0  0
 44113  1  0  0  0
 45 46  2  0  0  0
 45114  1  0  0  0
 46115  1  0  0  0
 47116  1  0  0  0
 47117  1  0  0  0
 48 56  1  0  0  0
 48 65  1  0  0  0
 48118  1  0  0  0
 49 50  1  0  0  0
 49 53  1  0  0  0
 49 64  1  0  0  0
 49119  1  0  0  0
 50 51  1  0  0  0
 50120  1  0  0  0
 50121  1  0  0  0
 51 52  1  0  0  0
 51122  1  0  0  0
 51123  1  0  0  0
 52124  1  0  0  0
 52125  1  0  0  0
 53 54  1  0  0  0
 54 55  2  0  0  0
 54126  1  0  0  0
 55 57  1  0  0  0
 55127  1  0  0  0
 56 69  2  0  0  0
 57 58  2  0  0  0
 57128  1  0  0  0
 58129  1  0  0  0
 59 60  1  0  0  0
 59 61  1  0  0  0
 59 62  1  0  0  0
 60130  1  0  0  0
 60131  1  0  0  0
 60132  1  0  0  0
 61133  1  0  0  0
 61134  1  0  0  0
 61135  1  0  0  0
 62136  1  0  0  0
 62137  1  0  0  0
 62138  1  0  0  0
 63 65  1  0  0  0
 63139  1  0  0  0
 63140  1  0  0  0
 63141  1  0  0  0
 64142  1  0  0  0
 65143  1  0  0  0
 68 80  1  0  0  0
 71 72  2  0  0  0
 71 74  1  0  0  0
 71144  1  0  0  0
 72 76  1  0  0  0
 72145  1  0  0  0
 73 74  2  0  0  0
 73 75  1  0  0  0
 73146  1  0  0  0
 74 79  1  0  0  0
 75 76  2  0  0  0
 75 81  1  0  0  0
 76 84  1  0  0  0
 77 80  1  0  0  0
 77 82  1  0  0  0
 77 83  2  0  0  0
 78 82  1  0  0  0
 78147  1  0  0  0
 78148  1  0  0  0
 78149  1  0  0  0
 79 82  1  0  0  0
 79150  1  0  0  0
 79151  1  0  0  0
 80152  1  0  0  0
 80153  1  0  0  0
 81154  1  0  0  0
M  ISO  4   1 100  68 101  80 101  81 100
M  END
> <chiral flag>
0

> <version>
0

> <s_m_source_file>
/data/baiqing/PycharmProjects/Reinvent-master-3.2/result/LINK_invent/BTK/process_docking_weight1_custom_product_contain_oxygen_bond_distance_aromatic_linkinvent_7_9_3/rearranged_h_0046.sdf

> <i_m_source_file_index>
93

> <r_mmod_Potential_Energy-OPLS-2005>
195.259017944336

> <r_mmod_Stretch_Energy-OPLS-2005>
143.779602050781

> <r_mmod_Bend_Energy-OPLS-2005>
172.289947509766

> <r_mmod_Torsional_Energy-OPLS-2005>
256.558837890625

> <r_mmod_Improper_Torsional_Energy-OPLS-2005>
6.8358588218689

> <r_mmod_Van_der_Waal_Energy-OPLS-2005>
138.842987060547

> <r_mmod_Electrostatic_Energy-OPLS-2005>
-359.922210693359

> <r_mmod_Solvation_Energy-OPLS-2005>
-244.98957824707

> <b_mmod_Minimization_Converged-OPLS-2005>
0

> <r_mmod_RMS_Derivative-OPLS-2005>
6.68230199813843

$$$$
