0
                    3D
 Structure written by MMmdl.
153162  0  0  1  0            999 V2000
  -30.2374  -15.7753   20.2837 C   0  0  0  0  0  0
  -30.4173  -13.1885   19.5165 C   0  0  0  0  0  0
  -29.5513  -12.6715   18.3284 C   0  0  0  0  0  0
  -28.1406  -12.2796   18.7920 C   0  0  0  0  0  0
  -27.5884  -13.3018   19.8074 C   0  0  2  0  0  0
  -28.6018  -13.7145   20.9036 C   0  0  0  0  0  0
  -25.2343  -13.8256   20.5855 C   0  0  0  0  0  0
  -24.1711  -13.0415   20.9302 C   0  0  0  0  0  0
  -24.6403  -11.6922   20.8778 C   0  0  0  0  0  0
  -23.9103  -10.4278   21.0404 C   0  0  0  0  0  0
  -24.3645   -9.4189   21.9182 C   0  0  0  0  0  0
  -23.6307   -8.2233   22.0752 C   0  0  0  0  0  0
  -22.4281   -8.0284   21.3550 C   0  0  0  0  0  0
  -21.9926   -9.0258   20.4647 C   0  0  0  0  0  0
  -22.7270  -10.2126   20.3054 C   0  0  0  0  0  0
  -21.6853   -6.0743   22.5281 C   0  0  0  0  0  0
  -21.4016   -6.5645   23.8214 C   0  0  0  0  0  0
  -21.3655   -5.6798   24.9175 C   0  0  0  0  0  0
  -21.6038   -4.3061   24.7223 C   0  0  0  0  0  0
  -21.8823   -3.8152   23.4346 C   0  0  0  0  0  0
  -21.9194   -4.6973   22.3402 C   0  0  0  0  0  0
  -22.7726  -13.5154   21.1929 C   0  0  0  0  0  0
  -22.1666   -4.2163   21.0982 F   0  0  0  0  0  0
  -21.5622   -3.4539   25.7734 F   0  0  0  0  0  0
  -29.7418  -14.3807   20.2179 N   0  0  0  0  0  0
  -26.2771  -12.9557   20.3297 N   0  0  0  0  0  0
  -25.9346  -11.6636   20.5718 N   0  0  0  0  0  0
  -22.0387  -12.8129   22.0477 N   0  0  0  0  0  0
  -25.3974  -15.2004   20.4349 N   0  0  0  0  0  0
  -31.4848  -15.6854   20.2631 O   0  0  0  0  0  0
  -21.6641   -6.8885   21.4243 O   0  0  0  0  0  0
  -22.3405  -14.5454   20.6761 O   0  0  0  0  0  0
  -24.6939  -31.7891   23.1435 C   0  0  0  0  0  0
  -25.9474  -32.4413   23.8019 C   0  0  1  0  0  0
  -27.2271  -26.6058   20.2258 C   0  0  0  0  0  0
  -25.6009  -33.8243   24.1896 N   0  0  0  0  0  0
  -23.5235  -30.3875   21.5007 C   0  0  2  0  0  0
  -24.9803  -28.7069   20.1243 C   0  0  0  0  0  0
  -22.7813  -29.4260   22.4690 C   0  0  0  0  0  0
  -18.0343  -28.1422   22.8448 C   0  0  0  0  0  0
  -24.1499  -36.7141   23.2652 C   0  0  0  0  0  0
  -26.1083  -30.4910   21.4213 C   0  0  0  0  0  0
  -26.1734  -29.0443   20.7752 C   0  0  0  0  0  0
  -27.2798  -28.0267   20.7858 C   0  0  0  0  0  0
  -25.9972  -26.5010   19.5218 C   0  0  0  0  0  0
  -24.9376  -27.4626   19.4716 C   0  0  0  0  0  0
  -23.7830  -29.6760   20.1405 C   0  0  0  0  0  0
  -25.4149  -36.2866   24.0274 C   0  0  1  0  0  0
  -20.5985  -28.3788   23.1125 C   0  0  2  0  0  0
  -20.6802  -26.9439   22.5404 C   0  0  0  0  0  0
  -19.5780  -26.6364   21.5216 C   0  0  0  0  0  0
  -18.1964  -26.7943   22.1623 C   0  0  0  0  0  0
  -19.1611  -28.8934   23.2762 C   0  0  0  0  0  0
  -18.9514  -30.1515   23.8812 C   0  0  0  0  0  0
  -17.6500  -30.6600   24.0550 C   0  0  0  0  0  0
  -25.9134  -34.9256   23.4929 C   0  0  0  0  0  0
  -16.5392  -29.9078   23.6347 C   0  0  0  0  0  0
  -16.7321  -28.6504   23.0358 C   0  0  0  0  0  0
  -26.4615  -31.6482   25.0680 C   0  0  0  0  0  0
  -25.3652  -31.3843   26.1281 C   0  0  0  0  0  0
  -27.0552  -30.2804   24.6643 C   0  0  0  0  0  0
  -27.6039  -32.4359   25.7509 C   0  0  0  0  0  0
  -27.5563  -37.1730   24.8461 C   0  0  0  0  0  0
  -21.4451  -29.3021   22.3442 N   0  0  0  0  0  0
  -26.4270  -37.3635   23.9404 N   0  0  0  0  0  0
  -24.8002  -30.9239   22.0742 N   0  0  0  0  0  0
  -23.4211  -28.7873   23.3075 O   0  0  0  0  0  0
  -28.1850  -25.3471   20.2445 O   0  0  0  0  0  0
  -26.5783  -34.8852   22.4551 O   0  0  0  0  0  0
  -23.5943  -32.1021   23.6321 O   0  0  0  0  0  0
  -30.5809  -20.7587   18.6118 C   0  0  0  0  0  0
  -28.7606  -20.3046   20.4791 C   0  0  0  0  0  0
  -30.3745  -19.3855   18.9772 C   0  0  0  0  0  0
  -28.8709  -21.8951   20.0771 C   0  0  0  0  0  0
  -29.5398  -18.9316   20.0354 C   0  0  0  0  0  0
  -29.9157  -21.9243   19.1162 C   0  0  0  0  0  0
  -30.9405  -18.3134   18.0580 C   0  0  0  0  0  0
  -29.8424  -17.2935   17.6389 C   0  0  0  0  0  0
  -28.8254  -16.9413   18.7652 C   0  0  0  0  0  0
  -27.9609  -23.5561   20.3639 C   0  0  0  0  0  0
  -29.4485  -17.1613   20.0780 N   0  0  0  0  0  0
  -30.2764  -23.1487   18.5573 N   0  0  0  0  0  0
  -31.3873  -13.4917   19.1202 H   0  0  0  0  0  0
  -30.6368  -12.3841   20.2203 H   0  0  0  0  0  0
  -30.0358  -11.8232   17.8419 H   0  0  0  0  0  0
  -29.4764  -13.4566   17.5744 H   0  0  0  0  0  0
  -28.2031  -11.2985   19.2656 H   0  0  0  0  0  0
  -27.4693  -12.1704   17.9399 H   0  0  0  0  0  0
  -27.4078  -14.1832   19.1983 H   0  0  0  0  0  0
  -28.9080  -12.8649   21.5155 H   0  0  0  0  0  0
  -28.1420  -14.4325   21.5845 H   0  0  0  0  0  0
  -25.2788   -9.5659   22.4760 H   0  0  0  0  0  0
  -24.0016   -7.4615   22.7461 H   0  0  0  0  0  0
  -21.0860   -8.8780   19.8948 H   0  0  0  0  0  0
  -22.3733  -10.9672   19.6168 H   0  0  0  0  0  0
  -21.2017   -7.6152   23.9721 H   0  0  0  0  0  0
  -21.1467   -6.0528   25.9079 H   0  0  0  0  0  0
  -22.0605   -2.7614   23.2839 H   0  0  0  0  0  0
  -22.4037  -11.9819   22.4894 H   0  0  0  0  0  0
  -21.0989  -13.1117   22.2665 H   0  0  0  0  0  0
  -24.6330  -15.8520   20.5739 H   0  0  0  0  0  0
  -26.2538  -15.6504   20.1383 H   0  0  0  0  0  0
  -26.7564  -32.4865   23.0736 H   0  0  0  0  0  0
  -25.0055  -33.9264   24.9985 H   0  0  0  0  0  0
  -22.8546  -31.2275   21.3031 H   0  0  0  0  0  0
  -23.3772  -35.9458   23.3256 H   0  0  0  0  0  0
  -24.3565  -36.8864   22.2078 H   0  0  0  0  0  0
  -23.7256  -37.6303   23.6772 H   0  0  0  0  0  0
  -26.3177  -31.2085   20.6268 H   0  0  0  0  0  0
  -26.9562  -30.5652   22.0894 H   0  0  0  0  0  0
  -28.1815  -28.2995   21.3165 H   0  0  0  0  0  0
  -25.8131  -25.5659   19.0115 H   0  0  0  0  0  0
  -24.0415  -27.1948   18.9286 H   0  0  0  0  0  0
  -23.9708  -30.4325   19.3775 H   0  0  0  0  0  0
  -22.8848  -29.1503   19.8114 H   0  0  0  0  0  0
  -25.1361  -36.1614   25.0764 H   0  0  0  0  0  0
  -21.0063  -28.3413   24.1254 H   0  0  0  0  0  0
  -20.5653  -26.2413   23.3672 H   0  0  0  0  0  0
  -21.6660  -26.7355   22.1234 H   0  0  0  0  0  0
  -19.6931  -25.6251   21.1297 H   0  0  0  0  0  0
  -19.6719  -27.3128   20.6709 H   0  0  0  0  0  0
  -17.4231  -26.6678   21.4031 H   0  0  0  0  0  0
  -18.0359  -26.0106   22.9043 H   0  0  0  0  0  0
  -19.7989  -30.7355   24.2143 H   0  0  0  0  0  0
  -17.5046  -31.6270   24.5171 H   0  0  0  0  0  0
  -15.5388  -30.2951   23.7713 H   0  0  0  0  0  0
  -15.8726  -28.0798   22.7105 H   0  0  0  0  0  0
  -24.5846  -30.7180   25.7591 H   0  0  0  0  0  0
  -24.8847  -32.3089   26.4493 H   0  0  0  0  0  0
  -25.7812  -30.9150   27.0205 H   0  0  0  0  0  0
  -26.3283  -29.6390   24.1651 H   0  0  0  0  0  0
  -27.3953  -29.7287   25.5418 H   0  0  0  0  0  0
  -27.9275  -30.3899   24.0195 H   0  0  0  0  0  0
  -27.2549  -33.3721   26.1878 H   0  0  0  0  0  0
  -28.3962  -32.6823   25.0425 H   0  0  0  0  0  0
  -28.0579  -31.8635   26.5610 H   0  0  0  0  0  0
  -28.2540  -38.0062   24.7501 H   0  0  0  0  0  0
  -28.1100  -36.2583   24.6286 H   0  0  0  0  0  0
  -27.2278  -37.1355   25.8863 H   0  0  0  0  0  0
  -20.9776  -29.8694   21.6508 H   0  0  0  0  0  0
  -26.0088  -38.2680   24.1412 H   0  0  0  0  0  0
  -31.2786  -20.9265   17.8031 H   0  0  0  0  0  0
  -27.9467  -20.1110   21.1627 H   0  0  0  0  0  0
  -31.7491  -17.8077   18.5867 H   0  0  0  0  0  0
  -31.3953  -18.7517   17.1687 H   0  0  0  0  0  0
  -30.3243  -16.3889   17.2634 H   0  0  0  0  0  0
  -29.2807  -17.6950   16.7941 H   0  0  0  0  0  0
  -28.4138  -15.9490   18.5990 H   0  0  0  0  0  0
  -27.9570  -17.5981   18.6851 H   0  0  0  0  0  0
  -27.6070  -23.4435   21.3884 H   0  0  0  0  0  0
  -27.0599  -23.4071   19.7687 H   0  0  0  0  0  0
  -31.1547  -23.2353   18.0555 H   0  0  0  0  0  0
  -29.9818  -24.0100   19.0091 H   0  0  0  0  0  0
  1 25  1  0  0  0
  1 30  2  0  0  0
  1 81  1  0  0  0
  2  3  1  0  0  0
  2 25  1  0  0  0
  2 83  1  0  0  0
  2 84  1  0  0  0
  3  4  1  0  0  0
  3 85  1  0  0  0
  3 86  1  0  0  0
  4  5  1  0  0  0
  4 87  1  0  0  0
  4 88  1  0  0  0
  5  6  1  0  0  0
  5 26  1  0  0  0
  5 89  1  0  0  0
  6 25  1  0  0  0
  6 90  1  0  0  0
  6 91  1  0  0  0
  7  8  2  0  0  0
  7 26  1  0  0  0
  7 29  1  0  0  0
  8  9  1  0  0  0
  8 22  1  0  0  0
  9 10  1  0  0  0
  9 27  2  0  0  0
 10 11  2  0  0  0
 10 15  1  0  0  0
 11 12  1  0  0  0
 11 92  1  0  0  0
 12 13  2  0  0  0
 12 93  1  0  0  0
 13 14  1  0  0  0
 13 31  1  0  0  0
 14 15  2  0  0  0
 14 94  1  0  0  0
 15 95  1  0  0  0
 16 17  2  0  0  0
 16 21  1  0  0  0
 16 31  1  0  0  0
 17 18  1  0  0  0
 17 96  1  0  0  0
 18 19  2  0  0  0
 18 97  1  0  0  0
 19 20  1  0  0  0
 19 24  1  0  0  0
 20 21  2  0  0  0
 20 98  1  0  0  0
 21 23  1  0  0  0
 22 28  1  0  0  0
 22 32  2  0  0  0
 26 27  1  0  0  0
 28 99  1  0  0  0
 28100  1  0  0  0
 29101  1  0  0  0
 29102  1  0  0  0
 33 34  1  0  0  0
 33 66  1  0  0  0
 33 70  2  0  0  0
 34 36  1  0  0  0
 34 59  1  0  0  0
 34103  1  0  0  0
 35 44  2  0  0  0
 35 45  1  0  0  0
 35 68  1  0  0  0
 36 56  1  0  0  0
 36104  1  0  0  0
 37 39  1  0  0  0
 37 47  1  0  0  0
 37 66  1  0  0  0
 37105  1  0  0  0
 38 43  2  0  0  0
 38 46  1  0  0  0
 38 47  1  0  0  0
 39 64  1  0  0  0
 39 67  2  0  0  0
 40 52  1  0  0  0
 40 53  2  0  0  0
 40 58  1  0  0  0
 41106  1  0  0  0
 41107  1  0  0  0
 41108  1  0  0  0
 41 48  1  0  0  0
 42 43  1  0  0  0
 42 66  1  0  0  0
 42109  1  0  0  0
 42110  1  0  0  0
 43 44  1  0  0  0
 44111  1  0  0  0
 45 46  2  0  0  0
 45112  1  0  0  0
 46113  1  0  0  0
 47114  1  0  0  0
 47115  1  0  0  0
 48 56  1  0  0  0
 48 65  1  0  0  0
 48116  1  0  0  0
 49 50  1  0  0  0
 49 53  1  0  0  0
 49 64  1  0  0  0
 49117  1  0  0  0
 50 51  1  0  0  0
 50118  1  0  0  0
 50119  1  0  0  0
 51 52  1  0  0  0
 51120  1  0  0  0
 51121  1  0  0  0
 52122  1  0  0  0
 52123  1  0  0  0
 53 54  1  0  0  0
 54 55  2  0  0  0
 54124  1  0  0  0
 55 57  1  0  0  0
 55125  1  0  0  0
 56 69  2  0  0  0
 57 58  2  0  0  0
 57126  1  0  0  0
 58127  1  0  0  0
 59 60  1  0  0  0
 59 61  1  0  0  0
 59 62  1  0  0  0
 60128  1  0  0  0
 60129  1  0  0  0
 60130  1  0  0  0
 61131  1  0  0  0
 61132  1  0  0  0
 61133  1  0  0  0
 62134  1  0  0  0
 62135  1  0  0  0
 62136  1  0  0  0
 63 65  1  0  0  0
 63137  1  0  0  0
 63138  1  0  0  0
 63139  1  0  0  0
 64140  1  0  0  0
 65141  1  0  0  0
 68 80  1  0  0  0
 71 73  2  0  0  0
 71 76  1  0  0  0
 71142  1  0  0  0
 72 74  1  0  0  0
 72 75  2  0  0  0
 72143  1  0  0  0
 73 75  1  0  0  0
 73 77  1  0  0  0
 74 76  2  0  0  0
 74 80  1  0  0  0
 75 81  1  0  0  0
 76 82  1  0  0  0
 77 78  1  0  0  0
 77144  1  0  0  0
 77145  1  0  0  0
 78 79  1  0  0  0
 78146  1  0  0  0
 78147  1  0  0  0
 79 81  1  0  0  0
 79148  1  0  0  0
 79149  1  0  0  0
 80150  1  0  0  0
 80151  1  0  0  0
 82152  1  0  0  0
 82153  1  0  0  0
M  ISO  4   1 100  68 101  80 101  81 100
M  END
> <chiral flag>
0

> <version>
0

> <s_m_source_file>
/data/baiqing/PycharmProjects/Reinvent-master-3.2/result/LINK_invent/BTK/process_docking_weight1_custom_product_contain_oxygen_bond_distance_aromatic_linkinvent_7_9_3/rearranged_h_0096.sdf

> <i_m_source_file_index>
1

> <r_mmod_Potential_Energy-OPLS-2005>
3158.76342773438

> <r_mmod_Stretch_Energy-OPLS-2005>
1278.23718261719

> <r_mmod_Bend_Energy-OPLS-2005>
720.241882324219

> <r_mmod_Torsional_Energy-OPLS-2005>
358.206359863281

> <r_mmod_Improper_Torsional_Energy-OPLS-2005>
22.2769432067871

> <r_mmod_Van_der_Waal_Energy-OPLS-2005>
144.144012451172

> <r_mmod_Electrostatic_Energy-OPLS-2005>
-287.614685058594

> <r_mmod_Solvation_Energy-OPLS-2005>
-199.644653320312

> <b_mmod_Minimization_Converged-OPLS-2005>
0

> <r_mmod_RMS_Derivative-OPLS-2005>
1.25006604194641

$$$$
1
                    3D
 Structure written by MMmdl.
159168  0  0  1  0            999 V2000
  -30.6659  -14.6089   20.5808 C   0  0  0  0  0  0
  -30.4283  -12.3923   19.4685 C   0  0  0  0  0  0
  -29.5052  -12.5193   18.2349 C   0  0  0  0  0  0
  -28.0325  -12.3369   18.6448 C   0  0  0  0  0  0
  -27.6549  -13.2097   19.8687 C   0  0  2  0  0  0
  -28.6855  -13.0446   21.0042 C   0  0  0  0  0  0
  -25.2576  -13.8160   20.5673 C   0  0  0  0  0  0
  -24.1823  -13.0423   20.9195 C   0  0  0  0  0  0
  -24.6381  -11.6896   20.8728 C   0  0  0  0  0  0
  -23.9046  -10.4280   21.0414 C   0  0  0  0  0  0
  -24.3601   -9.4212   21.9209 C   0  0  0  0  0  0
  -23.6283   -8.2243   22.0764 C   0  0  0  0  0  0
  -22.4271   -8.0287   21.3542 C   0  0  0  0  0  0
  -21.9901   -9.0260   20.4646 C   0  0  0  0  0  0
  -22.7220  -10.2145   20.3064 C   0  0  0  0  0  0
  -21.6860   -6.0730   22.5282 C   0  0  0  0  0  0
  -21.4009   -6.5628   23.8218 C   0  0  0  0  0  0
  -21.3651   -5.6784   24.9182 C   0  0  0  0  0  0
  -21.6047   -4.3045   24.7227 C   0  0  0  0  0  0
  -21.8818   -3.8142   23.4348 C   0  0  0  0  0  0
  -21.9187   -4.6954   22.3402 C   0  0  0  0  0  0
  -22.7868  -13.5252   21.1872 C   0  0  0  0  0  0
  -22.1668   -4.2134   21.0983 F   0  0  0  0  0  0
  -21.5628   -3.4536   25.7745 F   0  0  0  0  0  0
  -30.0138  -13.4008   20.4718 N   0  0  0  0  0  0
  -26.2980  -12.9316   20.3315 N   0  0  0  0  0  0
  -25.9304  -11.6473   20.5743 N   0  0  0  0  0  0
  -22.0506  -12.8222   22.0414 N   0  0  0  0  0  0
  -25.4373  -15.1862   20.4067 N   0  0  0  0  0  0
  -31.7467  -14.8019   20.0120 O   0  0  0  0  0  0
  -21.6644   -6.8882   21.4246 O   0  0  0  0  0  0
  -22.3548  -14.5560   20.6761 O   0  0  0  0  0  0
  -24.6211  -31.8612   23.2026 C   0  0  0  0  0  0
  -25.9051  -32.4802   23.8373 C   0  0  1  0  0  0
  -27.2289  -27.3405   20.1225 C   0  0  0  0  0  0
  -25.5828  -33.8596   24.2295 N   0  0  0  0  0  0
  -23.4167  -30.4815   21.5464 C   0  0  2  0  0  0
  -24.8681  -28.9359   20.1129 C   0  0  0  0  0  0
  -22.7460  -29.4598   22.4948 C   0  0  0  0  0  0
  -18.0257  -28.1391   22.8490 C   0  0  0  0  0  0
  -24.1464  -36.7325   23.2648 C   0  0  0  0  0  0
  -25.9513  -30.8011   21.3672 C   0  0  0  0  0  0
  -26.0334  -29.4271   20.7157 C   0  0  0  0  0  0
  -27.2217  -28.6415   20.7090 C   0  0  0  0  0  0
  -26.0445  -26.8899   19.5036 C   0  0  0  0  0  0
  -24.8729  -27.6725   19.4974 C   0  0  0  0  0  0
  -23.6340  -29.8138   20.1631 C   0  0  0  0  0  0
  -25.4086  -36.3112   24.0325 C   0  0  1  0  0  0
  -20.5861  -28.3683   23.1301 C   0  0  2  0  0  0
  -20.6757  -26.9417   22.5401 C   0  0  0  0  0  0
  -19.5734  -26.6417   21.5183 C   0  0  0  0  0  0
  -18.1923  -26.7937   22.1623 C   0  0  0  0  0  0
  -19.1512  -28.8846   23.2894 C   0  0  0  0  0  0
  -18.9455  -30.1443   23.8924 C   0  0  0  0  0  0
  -17.6466  -30.6603   24.0570 C   0  0  0  0  0  0
  -25.9017  -34.9475   23.5135 C   0  0  0  0  0  0
  -16.5344  -29.9124   23.6323 C   0  0  0  0  0  0
  -16.7245  -28.6529   23.0357 C   0  0  0  0  0  0
  -26.4449  -31.6588   25.0726 C   0  0  0  0  0  0
  -25.3681  -31.3640   26.1439 C   0  0  0  0  0  0
  -27.0337  -30.3048   24.6105 C   0  0  0  0  0  0
  -27.6037  -32.4324   25.7477 C   0  0  0  0  0  0
  -27.5569  -37.1816   24.8455 C   0  0  0  0  0  0
  -21.4167  -29.3047   22.3704 N   0  0  0  0  0  0
  -26.4278  -37.3783   23.9407 N   0  0  0  0  0  0
  -24.6821  -31.0641   22.0972 N   0  0  0  0  0  0
  -23.4208  -28.8111   23.2991 O   0  0  0  0  0  0
  -28.3582  -26.5201   20.1218 O   0  0  0  0  0  0
  -26.5664  -34.8948   22.4738 O   0  0  0  0  0  0
  -23.5375  -32.1351   23.7371 O   0  0  0  0  0  0
  -29.4912  -17.5206   19.6239 C   0  0  0  0  0  0
  -30.0935  -18.3123   21.8032 C   0  0  0  0  0  0
  -29.2998  -18.8722   19.2069 C   0  0  0  0  0  0
  -29.9107  -19.6642   21.3884 C   0  0  0  0  0  0
  -29.9113  -17.1897   20.9377 C   0  0  0  0  0  0
  -29.5370  -19.9920   20.0608 C   0  0  0  0  0  0
  -30.1685  -21.7065   18.4349 C   0  0  0  0  0  0
  -30.0535  -15.7510   21.4690 C   0  0  0  0  0  0
  -30.1624  -23.1417   17.8786 C   0  0  0  0  0  0
  -29.9137  -24.2398   18.9173 C   0  0  0  0  0  0
  -28.8807  -22.5002   20.4121 C   0  0  0  0  0  0
  -28.6551  -23.9254   19.7230 C   0  0  1  0  0  0
  -28.2374  -25.1481   20.6501 C   0  0  0  0  0  0
  -29.7477  -15.5332   22.6815 N   0  0  0  0  0  0
  -29.4799  -21.3882   19.5748 N   0  0  0  0  0  0
  -30.8123  -20.8794   17.7784 O   0  0  0  0  0  0
  -31.4722  -12.4988   19.1723 H   0  0  0  0  0  0
  -30.3512  -11.3906   19.8953 H   0  0  0  0  0  0
  -29.7762  -11.7790   17.4814 H   0  0  0  0  0  0
  -29.6406  -13.4964   17.7697 H   0  0  0  0  0  0
  -27.8910  -11.2844   18.8931 H   0  0  0  0  0  0
  -27.3675  -12.5422   17.8060 H   0  0  0  0  0  0
  -27.6860  -14.2481   19.5395 H   0  0  0  0  0  0
  -28.6939  -12.0145   21.3630 H   0  0  0  0  0  0
  -28.3758  -13.6330   21.8644 H   0  0  0  0  0  0
  -25.2746   -9.5693   22.4792 H   0  0  0  0  0  0
  -23.9988   -7.4630   22.7482 H   0  0  0  0  0  0
  -21.0839   -8.8772   19.8954 H   0  0  0  0  0  0
  -22.3678  -10.9689   19.6166 H   0  0  0  0  0  0
  -21.2007   -7.6142   23.9707 H   0  0  0  0  0  0
  -21.1481   -6.0527   25.9084 H   0  0  0  0  0  0
  -22.0604   -2.7601   23.2859 H   0  0  0  0  0  0
  -22.4109  -11.9819   22.4684 H   0  0  0  0  0  0
  -21.1153  -13.1283   22.2702 H   0  0  0  0  0  0
  -24.6850  -15.8581   20.5144 H   0  0  0  0  0  0
  -26.3053  -15.6114   20.1036 H   0  0  0  0  0  0
  -26.7105  -32.5495   23.1131 H   0  0  0  0  0  0
  -24.9745  -33.9669   25.0278 H   0  0  0  0  0  0
  -22.7070  -31.3011   21.4039 H   0  0  0  0  0  0
  -23.3732  -35.9664   23.3274 H   0  0  0  0  0  0
  -24.3538  -36.8991   22.2075 H   0  0  0  0  0  0
  -23.7224  -37.6502   23.6704 H   0  0  0  0  0  0
  -26.0569  -31.5623   20.5940 H   0  0  0  0  0  0
  -26.8412  -30.8717   21.9801 H   0  0  0  0  0  0
  -28.1217  -29.0181   21.1765 H   0  0  0  0  0  0
  -26.0230  -25.9214   19.0264 H   0  0  0  0  0  0
  -23.9754  -27.2943   19.0296 H   0  0  0  0  0  0
  -23.7583  -30.5908   19.4063 H   0  0  0  0  0  0
  -22.7545  -29.2401   19.8607 H   0  0  0  0  0  0
  -25.1262  -36.1969   25.0818 H   0  0  0  0  0  0
  -20.9936  -28.3289   24.1425 H   0  0  0  0  0  0
  -20.5648  -26.2287   23.3586 H   0  0  0  0  0  0
  -21.6641  -26.7465   22.1206 H   0  0  0  0  0  0
  -19.6902  -25.6330   21.1201 H   0  0  0  0  0  0
  -19.6695  -27.3260   20.6734 H   0  0  0  0  0  0
  -17.4177  -26.6639   21.4050 H   0  0  0  0  0  0
  -18.0365  -26.0081   22.9023 H   0  0  0  0  0  0
  -19.7931  -30.7215   24.2389 H   0  0  0  0  0  0
  -17.5034  -31.6296   24.5186 H   0  0  0  0  0  0
  -15.5352  -30.3073   23.7624 H   0  0  0  0  0  0
  -15.8618  -28.0861   22.7097 H   0  0  0  0  0  0
  -24.5885  -30.6966   25.7692 H   0  0  0  0  0  0
  -24.8806  -32.2756   26.4913 H   0  0  0  0  0  0
  -25.8026  -30.8750   27.0170 H   0  0  0  0  0  0
  -26.2899  -29.6754   24.1168 H   0  0  0  0  0  0
  -27.4127  -29.7319   25.4572 H   0  0  0  0  0  0
  -27.8714  -30.4376   23.9261 H   0  0  0  0  0  0
  -27.2680  -33.3642   26.2035 H   0  0  0  0  0  0
  -28.3852  -32.6824   25.0293 H   0  0  0  0  0  0
  -28.0681  -31.8420   26.5376 H   0  0  0  0  0  0
  -28.2583  -38.0120   24.7552 H   0  0  0  0  0  0
  -28.1092  -36.2662   24.6255 H   0  0  0  0  0  0
  -27.2279  -37.1419   25.8853 H   0  0  0  0  0  0
  -20.9345  -29.8796   21.6930 H   0  0  0  0  0  0
  -26.0171  -38.2849   24.1468 H   0  0  0  0  0  0
  -29.2945  -16.7287   18.9147 H   0  0  0  0  0  0
  -30.3971  -18.1414   22.8260 H   0  0  0  0  0  0
  -28.9862  -19.0451   18.1873 H   0  0  0  0  0  0
  -30.1042  -20.4519   22.1021 H   0  0  0  0  0  0
  -29.4042  -23.1930   17.0980 H   0  0  0  0  0  0
  -31.1193  -23.3307   17.3903 H   0  0  0  0  0  0
  -29.8086  -25.1980   18.4051 H   0  0  0  0  0  0
  -30.7785  -24.3370   19.5742 H   0  0  0  0  0  0
  -27.9323  -22.1464   20.8188 H   0  0  0  0  0  0
  -29.5367  -22.6437   21.2735 H   0  0  0  0  0  0
  -27.8375  -23.8054   19.0110 H   0  0  0  0  0  0
  -28.8665  -25.1222   21.5399 H   0  0  0  0  0  0
  -27.2280  -24.9741   21.0274 H   0  0  0  0  0  0
  -29.4081  -16.3828   23.1168 H   0  0  0  0  0  0
  1 25  1  0  0  0
  1 30  2  0  0  0
  1 78  1  0  0  0
  2  3  1  0  0  0
  2 25  1  0  0  0
  2 87  1  0  0  0
  2 88  1  0  0  0
  3  4  1  0  0  0
  3 89  1  0  0  0
  3 90  1  0  0  0
  4  5  1  0  0  0
  4 91  1  0  0  0
  4 92  1  0  0  0
  5  6  1  0  0  0
  5 26  1  0  0  0
  5 93  1  0  0  0
  6 25  1  0  0  0
  6 94  1  0  0  0
  6 95  1  0  0  0
  7  8  2  0  0  0
  7 26  1  0  0  0
  7 29  1  0  0  0
  8  9  1  0  0  0
  8 22  1  0  0  0
  9 10  1  0  0  0
  9 27  2  0  0  0
 10 11  2  0  0  0
 10 15  1  0  0  0
 11 12  1  0  0  0
 11 96  1  0  0  0
 12 13  2  0  0  0
 12 97  1  0  0  0
 13 14  1  0  0  0
 13 31  1  0  0  0
 14 15  2  0  0  0
 14 98  1  0  0  0
 15 99  1  0  0  0
 16 17  2  0  0  0
 16 21  1  0  0  0
 16 31  1  0  0  0
 17 18  1  0  0  0
 17100  1  0  0  0
 18 19  2  0  0  0
 18101  1  0  0  0
 19 20  1  0  0  0
 19 24  1  0  0  0
 20 21  2  0  0  0
 20102  1  0  0  0
 21 23  1  0  0  0
 22 28  1  0  0  0
 22 32  2  0  0  0
 26 27  1  0  0  0
 28103  1  0  0  0
 28104  1  0  0  0
 29105  1  0  0  0
 29106  1  0  0  0
 33 34  1  0  0  0
 33 66  1  0  0  0
 33 70  2  0  0  0
 34 36  1  0  0  0
 34 59  1  0  0  0
 34107  1  0  0  0
 35 44  2  0  0  0
 35 45  1  0  0  0
 35 68  1  0  0  0
 36 56  1  0  0  0
 36108  1  0  0  0
 37 39  1  0  0  0
 37 47  1  0  0  0
 37 66  1  0  0  0
 37109  1  0  0  0
 38 43  2  0  0  0
 38 46  1  0  0  0
 38 47  1  0  0  0
 39 64  1  0  0  0
 39 67  2  0  0  0
 40 52  1  0  0  0
 40 53  2  0  0  0
 40 58  1  0  0  0
 41110  1  0  0  0
 41111  1  0  0  0
 41112  1  0  0  0
 41 48  1  0  0  0
 42 43  1  0  0  0
 42 66  1  0  0  0
 42113  1  0  0  0
 42114  1  0  0  0
 43 44  1  0  0  0
 44115  1  0  0  0
 45 46  2  0  0  0
 45116  1  0  0  0
 46117  1  0  0  0
 47118  1  0  0  0
 47119  1  0  0  0
 48 56  1  0  0  0
 48 65  1  0  0  0
 48120  1  0  0  0
 49 50  1  0  0  0
 49 53  1  0  0  0
 49 64  1  0  0  0
 49121  1  0  0  0
 50 51  1  0  0  0
 50122  1  0  0  0
 50123  1  0  0  0
 51 52  1  0  0  0
 51124  1  0  0  0
 51125  1  0  0  0
 52126  1  0  0  0
 52127  1  0  0  0
 53 54  1  0  0  0
 54 55  2  0  0  0
 54128  1  0  0  0
 55 57  1  0  0  0
 55129  1  0  0  0
 56 69  2  0  0  0
 57 58  2  0  0  0
 57130  1  0  0  0
 58131  1  0  0  0
 59 60  1  0  0  0
 59 61  1  0  0  0
 59 62  1  0  0  0
 60132  1  0  0  0
 60133  1  0  0  0
 60134  1  0  0  0
 61135  1  0  0  0
 61136  1  0  0  0
 61137  1  0  0  0
 62138  1  0  0  0
 62139  1  0  0  0
 62140  1  0  0  0
 63 65  1  0  0  0
 63141  1  0  0  0
 63142  1  0  0  0
 63143  1  0  0  0
 64144  1  0  0  0
 65145  1  0  0  0
 68 83  1  0  0  0
 71 73  2  0  0  0
 71 75  1  0  0  0
 71146  1  0  0  0
 72 74  1  0  0  0
 72 75  2  0  0  0
 72147  1  0  0  0
 73 76  1  0  0  0
 73148  1  0  0  0
 74 76  2  0  0  0
 74149  1  0  0  0
 75 78  1  0  0  0
 76 85  1  0  0  0
 77 79  1  0  0  0
 77 85  1  0  0  0
 77 86  2  0  0  0
 78 84  2  0  0  0
 79 80  1  0  0  0
 79150  1  0  0  0
 79151  1  0  0  0
 80 82  1  0  0  0
 80152  1  0  0  0
 80153  1  0  0  0
 81 82  1  0  0  0
 81 85  1  0  0  0
 81154  1  0  0  0
 81155  1  0  0  0
 82 83  1  0  0  0
 82156  1  0  0  0
 83157  1  0  0  0
 83158  1  0  0  0
 84159  1  0  0  0
M  ISO  4   1 100  68 101  78 100  83 101
M  END
> <chiral flag>
0

> <version>
0

> <s_m_source_file>
/data/baiqing/PycharmProjects/Reinvent-master-3.2/result/LINK_invent/BTK/process_docking_weight1_custom_product_contain_oxygen_bond_distance_aromatic_linkinvent_7_9_3/rearranged_h_0096.sdf

> <i_m_source_file_index>
2

> <r_mmod_Potential_Energy-OPLS-2005>
310.508392333984

> <r_mmod_Stretch_Energy-OPLS-2005>
92.8556671142578

> <r_mmod_Bend_Energy-OPLS-2005>
144.152755737305

> <r_mmod_Torsional_Energy-OPLS-2005>
279.119171142578

> <r_mmod_Improper_Torsional_Energy-OPLS-2005>
3.35333919525146

> <r_mmod_Van_der_Waal_Energy-OPLS-2005>
157.293746948242

> <r_mmod_Electrostatic_Energy-OPLS-2005>
-189.938247680664

> <r_mmod_Solvation_Energy-OPLS-2005>
-213.385299682617

> <b_mmod_Minimization_Converged-OPLS-2005>
0

> <r_mmod_RMS_Derivative-OPLS-2005>
3.87396955490112

$$$$
2
                    3D
 Structure written by MMmdl.
160169  0  0  1  0            999 V2000
  -30.6247  -14.6386   20.5003 C   0  0  0  0  0  0
  -30.4380  -12.3899   19.4550 C   0  0  0  0  0  0
  -29.5084  -12.5120   18.2265 C   0  0  0  0  0  0
  -28.0305  -12.3513   18.6368 C   0  0  0  0  0  0
  -27.6555  -13.2191   19.8680 C   0  0  2  0  0  0
  -28.7000  -13.0684   20.9967 C   0  0  0  0  0  0
  -25.2564  -13.8178   20.5688 C   0  0  0  0  0  0
  -24.1825  -13.0435   20.9152 C   0  0  0  0  0  0
  -24.6401  -11.6908   20.8722 C   0  0  0  0  0  0
  -23.9066  -10.4291   21.0398 C   0  0  0  0  0  0
  -24.3615   -9.4210   21.9181 C   0  0  0  0  0  0
  -23.6287   -8.2244   22.0753 C   0  0  0  0  0  0
  -22.4272   -8.0280   21.3538 C   0  0  0  0  0  0
  -21.9904   -9.0259   20.4645 C   0  0  0  0  0  0
  -22.7233  -10.2134   20.3053 C   0  0  0  0  0  0
  -21.6853   -6.0737   22.5278 C   0  0  0  0  0  0
  -21.4019   -6.5642   23.8210 C   0  0  0  0  0  0
  -21.3657   -5.6792   24.9172 C   0  0  0  0  0  0
  -21.6044   -4.3055   24.7224 C   0  0  0  0  0  0
  -21.8819   -3.8144   23.4345 C   0  0  0  0  0  0
  -21.9195   -4.6964   22.3403 C   0  0  0  0  0  0
  -22.7849  -13.5233   21.1831 C   0  0  0  0  0  0
  -22.1663   -4.2150   21.0983 F   0  0  0  0  0  0
  -21.5621   -3.4543   25.7735 F   0  0  0  0  0  0
  -30.0179  -13.4105   20.4362 N   0  0  0  0  0  0
  -26.3006  -12.9367   20.3356 N   0  0  0  0  0  0
  -25.9337  -11.6515   20.5771 N   0  0  0  0  0  0
  -22.0493  -12.8236   22.0399 N   0  0  0  0  0  0
  -25.4278  -15.1903   20.4185 N   0  0  0  0  0  0
  -31.7801  -14.8032   20.0976 O   0  0  0  0  0  0
  -21.6634   -6.8878   21.4238 O   0  0  0  0  0  0
  -22.3530  -14.5542   20.6687 O   0  0  0  0  0  0
  -24.6253  -31.8595   23.2024 C   0  0  0  0  0  0
  -25.9102  -32.4776   23.8353 C   0  0  1  0  0  0
  -27.2263  -27.3232   20.1227 C   0  0  0  0  0  0
  -25.5920  -33.8578   24.2286 N   0  0  0  0  0  0
  -23.4194  -30.4820   21.5450 C   0  0  2  0  0  0
  -24.8675  -28.9358   20.1131 C   0  0  0  0  0  0
  -22.7473  -29.4617   22.4942 C   0  0  0  0  0  0
  -18.0288  -28.1386   22.8483 C   0  0  0  0  0  0
  -24.1488  -36.7294   23.2638 C   0  0  0  0  0  0
  -25.9598  -30.7918   21.3734 C   0  0  0  0  0  0
  -26.0358  -29.4184   20.7178 C   0  0  0  0  0  0
  -27.2207  -28.6242   20.7116 C   0  0  0  0  0  0
  -26.0409  -26.8948   19.4869 C   0  0  0  0  0  0
  -24.8717  -27.6789   19.4876 C   0  0  0  0  0  0
  -23.6346  -29.8152   20.1609 C   0  0  0  0  0  0
  -25.4112  -36.3082   24.0329 C   0  0  1  0  0  0
  -20.5885  -28.3686   23.1285 C   0  0  2  0  0  0
  -20.6781  -26.9412   22.5412 C   0  0  0  0  0  0
  -19.5758  -26.6382   21.5213 C   0  0  0  0  0  0
  -18.1935  -26.7928   22.1622 C   0  0  0  0  0  0
  -19.1541  -28.8855   23.2878 C   0  0  0  0  0  0
  -18.9463  -30.1457   23.8892 C   0  0  0  0  0  0
  -17.6464  -30.6586   24.0563 C   0  0  0  0  0  0
  -25.9046  -34.9448   23.5109 C   0  0  0  0  0  0
  -16.5354  -29.9084   23.6332 C   0  0  0  0  0  0
  -16.7276  -28.6505   23.0346 C   0  0  0  0  0  0
  -26.4489  -31.6580   25.0717 C   0  0  0  0  0  0
  -25.3726  -31.3723   26.1449 C   0  0  0  0  0  0
  -27.0332  -30.3006   24.6165 C   0  0  0  0  0  0
  -27.6060  -32.4306   25.7477 C   0  0  0  0  0  0
  -27.5579  -37.1801   24.8463 C   0  0  0  0  0  0
  -21.4191  -29.3035   22.3678 N   0  0  0  0  0  0
  -26.4293  -37.3772   23.9400 N   0  0  0  0  0  0
  -24.6867  -31.0609   22.0973 N   0  0  0  0  0  0
  -23.4197  -28.8164   23.3029 O   0  0  0  0  0  0
  -28.3401  -26.4728   20.1375 O   0  0  0  0  0  0
  -26.5617  -34.8912   22.4677 O   0  0  0  0  0  0
  -23.5418  -32.1395   23.7355 O   0  0  0  0  0  0
  -30.7911  -17.8322   19.8864 C   0  0  0  0  0  0
  -28.7234  -19.3072   21.0696 C   0  0  0  0  0  0
  -30.6801  -19.2422   19.6589 C   0  0  0  0  0  0
  -29.6067  -20.0177   20.2141 C   0  0  0  0  0  0
  -29.8666  -17.1230   20.6952 C   0  0  0  0  0  0
  -28.8487  -17.9049   21.3026 C   0  0  0  0  0  0
  -29.1954  -21.9593   18.6762 C   0  0  0  0  0  0
  -28.8715  -23.4595   18.6839 C   0  0  0  0  0  0
  -29.0085  -22.5143   20.8831 C   0  0  0  0  0  0
  -29.0784  -23.9071   20.1344 C   0  0  2  0  0  0
  -31.7635  -19.8915   18.8115 C   0  0  0  0  0  0
  -28.1297  -25.0900   20.6272 C   0  0  0  0  0  0
  -29.3810  -21.4473   19.9133 N   0  0  0  0  0  0
  -27.9400  -17.2692   22.1497 N   0  0  0  0  0  0
  -29.8329  -15.6756   20.9095 N   0  0  0  0  0  0
  -29.2513  -21.3299   17.6155 O   0  0  0  0  0  0
  -31.4799  -12.5115   19.1538 H   0  0  0  0  0  0
  -30.3683  -11.3931   19.8936 H   0  0  0  0  0  0
  -29.7704  -11.7626   17.4784 H   0  0  0  0  0  0
  -29.6534  -13.4831   17.7507 H   0  0  0  0  0  0
  -27.8653  -11.2980   18.8641 H   0  0  0  0  0  0
  -27.3767  -12.5862   17.7962 H   0  0  0  0  0  0
  -27.6741  -14.2562   19.5321 H   0  0  0  0  0  0
  -28.7085  -12.0458   21.3765 H   0  0  0  0  0  0
  -28.4443  -13.6977   21.8504 H   0  0  0  0  0  0
  -25.2762   -9.5690   22.4755 H   0  0  0  0  0  0
  -23.9994   -7.4646   22.7482 H   0  0  0  0  0  0
  -21.0826   -8.8787   19.8960 H   0  0  0  0  0  0
  -22.3692  -10.9680   19.6165 H   0  0  0  0  0  0
  -21.2014   -7.6150   23.9719 H   0  0  0  0  0  0
  -21.1476   -6.0519   25.9074 H   0  0  0  0  0  0
  -22.0597   -2.7607   23.2848 H   0  0  0  0  0  0
  -22.4096  -11.9893   22.4786 H   0  0  0  0  0  0
  -21.1119  -13.1290   22.2614 H   0  0  0  0  0  0
  -24.6758  -15.8494   20.5838 H   0  0  0  0  0  0
  -26.3193  -15.6471   20.2622 H   0  0  0  0  0  0
  -26.7169  -32.5451   23.1103 H   0  0  0  0  0  0
  -25.0067  -33.9718   25.0430 H   0  0  0  0  0  0
  -22.7132  -31.3021   21.4012 H   0  0  0  0  0  0
  -23.3738  -35.9640   23.3316 H   0  0  0  0  0  0
  -24.3578  -36.8896   22.2050 H   0  0  0  0  0  0
  -23.7254  -37.6506   23.6649 H   0  0  0  0  0  0
  -26.0898  -31.5551   20.6047 H   0  0  0  0  0  0
  -26.8404  -30.8417   22.0022 H   0  0  0  0  0  0
  -28.1182  -28.9905   21.1901 H   0  0  0  0  0  0
  -26.0092  -25.9379   18.9859 H   0  0  0  0  0  0
  -23.9794  -27.3063   19.0031 H   0  0  0  0  0  0
  -23.7527  -30.5910   19.4037 H   0  0  0  0  0  0
  -22.7550  -29.2437   19.8591 H   0  0  0  0  0  0
  -25.1292  -36.1940   25.0824 H   0  0  0  0  0  0
  -20.9976  -28.3264   24.1405 H   0  0  0  0  0  0
  -20.5688  -26.2296   23.3609 H   0  0  0  0  0  0
  -21.6649  -26.7447   22.1203 H   0  0  0  0  0  0
  -19.6922  -25.6293   21.1241 H   0  0  0  0  0  0
  -19.6697  -27.3192   20.6743 H   0  0  0  0  0  0
  -17.4208  -26.6674   21.4022 H   0  0  0  0  0  0
  -18.0334  -26.0071   22.9018 H   0  0  0  0  0  0
  -19.7938  -30.7277   24.2255 H   0  0  0  0  0  0
  -17.5015  -31.6263   24.5169 H   0  0  0  0  0  0
  -15.5355  -30.2984   23.7654 H   0  0  0  0  0  0
  -15.8676  -28.0821   22.7059 H   0  0  0  0  0  0
  -24.5898  -30.7071   25.7783 H   0  0  0  0  0  0
  -24.8918  -32.2891   26.4872 H   0  0  0  0  0  0
  -25.8050  -30.8903   27.0226 H   0  0  0  0  0  0
  -26.2908  -29.6749   24.1198 H   0  0  0  0  0  0
  -27.4048  -29.7266   25.4663 H   0  0  0  0  0  0
  -27.8766  -30.4297   23.9378 H   0  0  0  0  0  0
  -27.2688  -33.3609   26.2059 H   0  0  0  0  0  0
  -28.3863  -32.6857   25.0293 H   0  0  0  0  0  0
  -28.0733  -31.8424   26.5384 H   0  0  0  0  0  0
  -28.2605  -38.0089   24.7494 H   0  0  0  0  0  0
  -28.1066  -36.2621   24.6306 H   0  0  0  0  0  0
  -27.2295  -37.1469   25.8865 H   0  0  0  0  0  0
  -20.9373  -29.8749   21.6876 H   0  0  0  0  0  0
  -26.0177  -38.2849   24.1392 H   0  0  0  0  0  0
  -31.5981  -17.2914   19.4130 H   0  0  0  0  0  0
  -27.9094  -19.8463   21.5330 H   0  0  0  0  0  0
  -27.8358  -23.5924   18.3712 H   0  0  0  0  0  0
  -29.5106  -24.0081   17.9918 H   0  0  0  0  0  0
  -27.9946  -22.3249   21.2379 H   0  0  0  0  0  0
  -29.6688  -22.4956   21.7508 H   0  0  0  0  0  0
  -30.1064  -24.2613   20.2246 H   0  0  0  0  0  0
  -32.7000  -19.3376   18.8852 H   0  0  0  0  0  0
  -31.9681  -20.9126   19.1332 H   0  0  0  0  0  0
  -31.4727  -19.9078   17.7616 H   0  0  0  0  0  0
  -28.2379  -25.1545   21.7103 H   0  0  0  0  0  0
  -27.1015  -24.7620   20.4815 H   0  0  0  0  0  0
  -27.3401  -17.8793   22.6936 H   0  0  0  0  0  0
  -28.3361  -16.5509   22.7446 H   0  0  0  0  0  0
  -28.9540  -15.3751   21.3025 H   0  0  0  0  0  0
  1 25  1  0  0  0
  1 30  2  0  0  0
  1 85  1  0  0  0
  2  3  1  0  0  0
  2 25  1  0  0  0
  2 87  1  0  0  0
  2 88  1  0  0  0
  3  4  1  0  0  0
  3 89  1  0  0  0
  3 90  1  0  0  0
  4  5  1  0  0  0
  4 91  1  0  0  0
  4 92  1  0  0  0
  5  6  1  0  0  0
  5 26  1  0  0  0
  5 93  1  0  0  0
  6 25  1  0  0  0
  6 94  1  0  0  0
  6 95  1  0  0  0
  7  8  2  0  0  0
  7 26  1  0  0  0
  7 29  1  0  0  0
  8  9  1  0  0  0
  8 22  1  0  0  0
  9 10  1  0  0  0
  9 27  2  0  0  0
 10 11  2  0  0  0
 10 15  1  0  0  0
 11 12  1  0  0  0
 11 96  1  0  0  0
 12 13  2  0  0  0
 12 97  1  0  0  0
 13 14  1  0  0  0
 13 31  1  0  0  0
 14 15  2  0  0  0
 14 98  1  0  0  0
 15 99  1  0  0  0
 16 17  2  0  0  0
 16 21  1  0  0  0
 16 31  1  0  0  0
 17 18  1  0  0  0
 17100  1  0  0  0
 18 19  2  0  0  0
 18101  1  0  0  0
 19 20  1  0  0  0
 19 24  1  0  0  0
 20 21  2  0  0  0
 20102  1  0  0  0
 21 23  1  0  0  0
 22 28  1  0  0  0
 22 32  2  0  0  0
 26 27  1  0  0  0
 28103  1  0  0  0
 28104  1  0  0  0
 29105  1  0  0  0
 29106  1  0  0  0
 33 34  1  0  0  0
 33 66  1  0  0  0
 33 70  2  0  0  0
 34 36  1  0  0  0
 34 59  1  0  0  0
 34107  1  0  0  0
 35 44  2  0  0  0
 35 45  1  0  0  0
 35 68  1  0  0  0
 36 56  1  0  0  0
 36108  1  0  0  0
 37 39  1  0  0  0
 37 47  1  0  0  0
 37 66  1  0  0  0
 37109  1  0  0  0
 38 43  2  0  0  0
 38 46  1  0  0  0
 38 47  1  0  0  0
 39 64  1  0  0  0
 39 67  2  0  0  0
 40 52  1  0  0  0
 40 53  2  0  0  0
 40 58  1  0  0  0
 41110  1  0  0  0
 41111  1  0  0  0
 41112  1  0  0  0
 41 48  1  0  0  0
 42 43  1  0  0  0
 42 66  1  0  0  0
 42113  1  0  0  0
 42114  1  0  0  0
 43 44  1  0  0  0
 44115  1  0  0  0
 45 46  2  0  0  0
 45116  1  0  0  0
 46117  1  0  0  0
 47118  1  0  0  0
 47119  1  0  0  0
 48 56  1  0  0  0
 48 65  1  0  0  0
 48120  1  0  0  0
 49 50  1  0  0  0
 49 53  1  0  0  0
 49 64  1  0  0  0
 49121  1  0  0  0
 50 51  1  0  0  0
 50122  1  0  0  0
 50123  1  0  0  0
 51 52  1  0  0  0
 51124  1  0  0  0
 51125  1  0  0  0
 52126  1  0  0  0
 52127  1  0  0  0
 53 54  1  0  0  0
 54 55  2  0  0  0
 54128  1  0  0  0
 55 57  1  0  0  0
 55129  1  0  0  0
 56 69  2  0  0  0
 57 58  2  0  0  0
 57130  1  0  0  0
 58131  1  0  0  0
 59 60  1  0  0  0
 59 61  1  0  0  0
 59 62  1  0  0  0
 60132  1  0  0  0
 60133  1  0  0  0
 60134  1  0  0  0
 61135  1  0  0  0
 61136  1  0  0  0
 61137  1  0  0  0
 62138  1  0  0  0
 62139  1  0  0  0
 62140  1  0  0  0
 63 65  1  0  0  0
 63141  1  0  0  0
 63142  1  0  0  0
 63143  1  0  0  0
 64144  1  0  0  0
 65145  1  0  0  0
 68 82  1  0  0  0
 71 73  2  0  0  0
 71 75  1  0  0  0
 71146  1  0  0  0
 72 74  2  0  0  0
 72 76  1  0  0  0
 72147  1  0  0  0
 73 74  1  0  0  0
 73 81  1  0  0  0
 74 83  1  0  0  0
 75 76  2  0  0  0
 75 85  1  0  0  0
 76 84  1  0  0  0
 77 78  1  0  0  0
 77 83  1  0  0  0
 77 86  2  0  0  0
 78 80  1  0  0  0
 78148  1  0  0  0
 78149  1  0  0  0
 79 80  1  0  0  0
 79 83  1  0  0  0
 79150  1  0  0  0
 79151  1  0  0  0
 80 82  1  0  0  0
 80152  1  0  0  0
 81153  1  0  0  0
 81154  1  0  0  0
 81155  1  0  0  0
 82156  1  0  0  0
 82157  1  0  0  0
 84158  1  0  0  0
 84159  1  0  0  0
 85160  1  0  0  0
M  ISO  4   1 100  68 101  82 101  85 100
M  END
> <chiral flag>
0

> <version>
0

> <s_m_source_file>
/data/baiqing/PycharmProjects/Reinvent-master-3.2/result/LINK_invent/BTK/process_docking_weight1_custom_product_contain_oxygen_bond_distance_aromatic_linkinvent_7_9_3/rearranged_h_0096.sdf

> <i_m_source_file_index>
3

> <r_mmod_Potential_Energy-OPLS-2005>
27.8947582244873

> <r_mmod_Stretch_Energy-OPLS-2005>
79.3715667724609

> <r_mmod_Bend_Energy-OPLS-2005>
163.395492553711

> <r_mmod_Torsional_Energy-OPLS-2005>
303.057342529297

> <r_mmod_Improper_Torsional_Energy-OPLS-2005>
8.90602588653564

> <r_mmod_Van_der_Waal_Energy-OPLS-2005>
140.432891845703

> <r_mmod_Electrostatic_Energy-OPLS-2005>
-489.609588623047

> <r_mmod_Solvation_Energy-OPLS-2005>
-224.208786010742

> <b_mmod_Minimization_Converged-OPLS-2005>
0

> <r_mmod_RMS_Derivative-OPLS-2005>
0.936888933181763

$$$$
3
                    3D
 Structure written by MMmdl.
158167  0  0  1  0            999 V2000
  -30.6398  -14.6233   20.5600 C   0  0  0  0  0  0
  -30.4424  -12.4007   19.4509 C   0  0  0  0  0  0
  -29.5113  -12.5332   18.2230 C   0  0  0  0  0  0
  -28.0296  -12.3698   18.6226 C   0  0  0  0  0  0
  -27.6583  -13.2102   19.8723 C   0  0  2  0  0  0
  -28.6974  -12.9894   20.9886 C   0  0  0  0  0  0
  -25.2586  -13.8155   20.5674 C   0  0  0  0  0  0
  -24.1835  -13.0430   20.9160 C   0  0  0  0  0  0
  -24.6390  -11.6899   20.8717 C   0  0  0  0  0  0
  -23.9057  -10.4286   21.0395 C   0  0  0  0  0  0
  -24.3611   -9.4210   21.9180 C   0  0  0  0  0  0
  -23.6286   -8.2247   22.0756 C   0  0  0  0  0  0
  -22.4268   -8.0280   21.3544 C   0  0  0  0  0  0
  -21.9900   -9.0254   20.4647 C   0  0  0  0  0  0
  -22.7229  -10.2132   20.3051 C   0  0  0  0  0  0
  -21.6850   -6.0733   22.5279 C   0  0  0  0  0  0
  -21.4013   -6.5638   23.8212 C   0  0  0  0  0  0
  -21.3660   -5.6790   24.9175 C   0  0  0  0  0  0
  -21.6043   -4.3055   24.7229 C   0  0  0  0  0  0
  -21.8820   -3.8145   23.4349 C   0  0  0  0  0  0
  -21.9192   -4.6959   22.3403 C   0  0  0  0  0  0
  -22.7861  -13.5236   21.1836 C   0  0  0  0  0  0
  -22.1660   -4.2146   21.0981 F   0  0  0  0  0  0
  -21.5630   -3.4537   25.7742 F   0  0  0  0  0  0
  -30.0155  -13.3944   20.4633 N   0  0  0  0  0  0
  -26.3004  -12.9320   20.3327 N   0  0  0  0  0  0
  -25.9313  -11.6476   20.5721 N   0  0  0  0  0  0
  -22.0512  -12.8235   22.0402 N   0  0  0  0  0  0
  -25.4319  -15.1874   20.4113 N   0  0  0  0  0  0
  -31.7481  -14.8063   20.0404 O   0  0  0  0  0  0
  -21.6635   -6.8877   21.4241 O   0  0  0  0  0  0
  -22.3548  -14.5547   20.6693 O   0  0  0  0  0  0
  -24.6251  -31.8608   23.2032 C   0  0  0  0  0  0
  -25.9104  -32.4781   23.8360 C   0  0  1  0  0  0
  -27.2260  -27.3334   20.1200 C   0  0  0  0  0  0
  -25.5927  -33.8581   24.2285 N   0  0  0  0  0  0
  -23.4186  -30.4823   21.5461 C   0  0  2  0  0  0
  -24.8654  -28.9350   20.1143 C   0  0  0  0  0  0
  -22.7468  -29.4626   22.4955 C   0  0  0  0  0  0
  -18.0287  -28.1388   22.8494 C   0  0  0  0  0  0
  -24.1489  -36.7292   23.2645 C   0  0  0  0  0  0
  -25.9577  -30.7945   21.3727 C   0  0  0  0  0  0
  -26.0330  -29.4220   20.7170 C   0  0  0  0  0  0
  -27.2193  -28.6334   20.7076 C   0  0  0  0  0  0
  -26.0401  -26.8906   19.4972 C   0  0  0  0  0  0
  -24.8693  -27.6735   19.4961 C   0  0  0  0  0  0
  -23.6328  -29.8148   20.1617 C   0  0  0  0  0  0
  -25.4115  -36.3081   24.0332 C   0  0  1  0  0  0
  -20.5886  -28.3690   23.1296 C   0  0  2  0  0  0
  -20.6779  -26.9417   22.5416 C   0  0  0  0  0  0
  -19.5749  -26.6392   21.5221 C   0  0  0  0  0  0
  -18.1931  -26.7935   22.1630 C   0  0  0  0  0  0
  -19.1539  -28.8855   23.2888 C   0  0  0  0  0  0
  -18.9463  -30.1459   23.8897 C   0  0  0  0  0  0
  -17.6462  -30.6590   24.0566 C   0  0  0  0  0  0
  -25.9053  -34.9449   23.5108 C   0  0  0  0  0  0
  -16.5354  -29.9091   23.6335 C   0  0  0  0  0  0
  -16.7276  -28.6506   23.0359 C   0  0  0  0  0  0
  -26.4494  -31.6595   25.0729 C   0  0  0  0  0  0
  -25.3727  -31.3708   26.1448 C   0  0  0  0  0  0
  -27.0358  -30.3030   24.6180 C   0  0  0  0  0  0
  -27.6054  -32.4337   25.7489 C   0  0  0  0  0  0
  -27.5580  -37.1795   24.8470 C   0  0  0  0  0  0
  -21.4188  -29.3037   22.3686 N   0  0  0  0  0  0
  -26.4294  -37.3777   23.9409 N   0  0  0  0  0  0
  -24.6857  -31.0622   22.0977 N   0  0  0  0  0  0
  -23.4187  -28.8176   23.3048 O   0  0  0  0  0  0
  -28.3468  -26.4992   20.1202 O   0  0  0  0  0  0
  -26.5626  -34.8916   22.4677 O   0  0  0  0  0  0
  -23.5419  -32.1407   23.7366 O   0  0  0  0  0  0
  -30.3172  -19.6780   21.2097 C   0  0  0  0  0  0
  -28.8454  -18.9143   19.5077 C   0  0  0  0  0  0
  -30.6026  -18.3129   21.5068 C   0  0  0  0  0  0
  -29.4021  -20.0314   20.1927 C   0  0  0  0  0  0
  -29.9561  -17.2562   20.7927 C   0  0  0  0  0  0
  -28.6500  -21.8950   18.6825 C   0  0  0  0  0  0
  -29.9267  -15.8071   21.3217 C   0  0  0  0  0  0
  -28.3301  -23.3940   18.6949 C   0  0  0  0  0  0
  -29.0947  -22.5829   20.8264 C   0  0  0  0  0  0
  -28.9435  -23.9183   19.9980 C   0  0  2  0  0  0
  -31.5829  -18.0151   22.6336 C   0  0  0  0  0  0
  -28.1788  -25.1402   20.6719 C   0  0  0  0  0  0
  -29.0906  -17.6024   19.8016 N   0  0  0  0  0  0
  -29.3437  -15.6406   22.4367 N   0  0  0  0  0  0
  -29.0618  -21.4321   19.8809 N   0  0  0  0  0  0
  -28.5468  -21.2282   17.6512 O   0  0  0  0  0  0
  -31.4823  -12.5331   19.1480 H   0  0  0  0  0  0
  -30.3916  -11.3915   19.8628 H   0  0  0  0  0  0
  -29.7777  -11.7935   17.4671 H   0  0  0  0  0  0
  -29.6571  -13.5098   17.7591 H   0  0  0  0  0  0
  -27.8552  -11.3121   18.8252 H   0  0  0  0  0  0
  -27.3803  -12.6295   17.7855 H   0  0  0  0  0  0
  -27.6984  -14.2591   19.5788 H   0  0  0  0  0  0
  -28.7211  -11.9340   21.2648 H   0  0  0  0  0  0
  -28.3978  -13.4851   21.9061 H   0  0  0  0  0  0
  -25.2757   -9.5686   22.4751 H   0  0  0  0  0  0
  -23.9995   -7.4639   22.7475 H   0  0  0  0  0  0
  -21.0833   -8.8772   19.8955 H   0  0  0  0  0  0
  -22.3689  -10.9668   19.6159 H   0  0  0  0  0  0
  -21.2006   -7.6148   23.9714 H   0  0  0  0  0  0
  -21.1480   -6.0523   25.9078 H   0  0  0  0  0  0
  -22.0599   -2.7606   23.2851 H   0  0  0  0  0  0
  -22.4121  -11.9892   22.4785 H   0  0  0  0  0  0
  -21.1135  -13.1274   22.2612 H   0  0  0  0  0  0
  -24.6730  -15.8485   20.5344 H   0  0  0  0  0  0
  -26.3005  -15.6286   20.1346 H   0  0  0  0  0  0
  -26.7168  -32.5448   23.1109 H   0  0  0  0  0  0
  -25.0068  -33.9734   25.0424 H   0  0  0  0  0  0
  -22.7121  -31.3019   21.4022 H   0  0  0  0  0  0
  -23.3755  -35.9622   23.3313 H   0  0  0  0  0  0
  -24.3574  -36.8915   22.2057 H   0  0  0  0  0  0
  -23.7235  -37.6491   23.6667 H   0  0  0  0  0  0
  -26.0894  -31.5576   20.6046 H   0  0  0  0  0  0
  -26.8378  -30.8427   22.0020 H   0  0  0  0  0  0
  -28.1192  -29.0028   21.1797 H   0  0  0  0  0  0
  -26.0158  -25.9243   19.0136 H   0  0  0  0  0  0
  -23.9747  -27.2953   19.0197 H   0  0  0  0  0  0
  -23.7502  -30.5897   19.4036 H   0  0  0  0  0  0
  -22.7528  -29.2432   19.8621 H   0  0  0  0  0  0
  -25.1293  -36.1942   25.0826 H   0  0  0  0  0  0
  -20.9981  -28.3271   24.1416 H   0  0  0  0  0  0
  -20.5709  -26.2297   23.3612 H   0  0  0  0  0  0
  -21.6645  -26.7466   22.1191 H   0  0  0  0  0  0
  -19.6915  -25.6307   21.1250 H   0  0  0  0  0  0
  -19.6691  -27.3203   20.6753 H   0  0  0  0  0  0
  -17.4210  -26.6702   21.4025 H   0  0  0  0  0  0
  -18.0308  -26.0071   22.9011 H   0  0  0  0  0  0
  -19.7934  -30.7277   24.2270 H   0  0  0  0  0  0
  -17.5017  -31.6270   24.5170 H   0  0  0  0  0  0
  -15.5355  -30.2993   23.7656 H   0  0  0  0  0  0
  -15.8676  -28.0825   22.7080 H   0  0  0  0  0  0
  -24.5928  -30.7034   25.7771 H   0  0  0  0  0  0
  -24.8878  -32.2853   26.4865 H   0  0  0  0  0  0
  -25.8052  -30.8896   27.0230 H   0  0  0  0  0  0
  -26.2934  -29.6745   24.1245 H   0  0  0  0  0  0
  -27.4121  -29.7317   25.4680 H   0  0  0  0  0  0
  -27.8771  -30.4345   23.9370 H   0  0  0  0  0  0
  -27.2681  -33.3656   26.2037 H   0  0  0  0  0  0
  -28.3861  -32.6869   25.0304 H   0  0  0  0  0  0
  -28.0723  -31.8481   26.5419 H   0  0  0  0  0  0
  -28.2596  -38.0096   24.7528 H   0  0  0  0  0  0
  -28.1076  -36.2625   24.6288 H   0  0  0  0  0  0
  -27.2291  -37.1440   25.8872 H   0  0  0  0  0  0
  -20.9377  -29.8738   21.6870 H   0  0  0  0  0  0
  -26.0181  -38.2853   24.1416 H   0  0  0  0  0  0
  -30.8047  -20.4553   21.7791 H   0  0  0  0  0  0
  -28.1196  -19.0521   18.7215 H   0  0  0  0  0  0
  -27.2468  -23.5175   18.6846 H   0  0  0  0  0  0
  -28.7408  -23.8974   17.8193 H   0  0  0  0  0  0
  -28.2628  -22.4753   21.5242 H   0  0  0  0  0  0
  -30.0118  -22.5959   21.4153 H   0  0  0  0  0  0
  -29.9545  -24.2599   19.7717 H   0  0  0  0  0  0
  -32.2151  -18.8784   22.8456 H   0  0  0  0  0  0
  -32.2445  -17.1883   22.3718 H   0  0  0  0  0  0
  -31.0513  -17.7557   23.5500 H   0  0  0  0  0  0
  -28.5339  -25.2112   21.7005 H   0  0  0  0  0  0
  -27.1264  -24.8742   20.7732 H   0  0  0  0  0  0
  -28.9792  -16.5323   22.7507 H   0  0  0  0  0  0
  1 25  1  0  0  0
  1 30  2  0  0  0
  1 77  1  0  0  0
  2  3  1  0  0  0
  2 25  1  0  0  0
  2 87  1  0  0  0
  2 88  1  0  0  0
  3  4  1  0  0  0
  3 89  1  0  0  0
  3 90  1  0  0  0
  4  5  1  0  0  0
  4 91  1  0  0  0
  4 92  1  0  0  0
  5  6  1  0  0  0
  5 26  1  0  0  0
  5 93  1  0  0  0
  6 25  1  0  0  0
  6 94  1  0  0  0
  6 95  1  0  0  0
  7  8  2  0  0  0
  7 26  1  0  0  0
  7 29  1  0  0  0
  8  9  1  0  0  0
  8 22  1  0  0  0
  9 10  1  0  0  0
  9 27  2  0  0  0
 10 11  2  0  0  0
 10 15  1  0  0  0
 11 12  1  0  0  0
 11 96  1  0  0  0
 12 13  2  0  0  0
 12 97  1  0  0  0
 13 14  1  0  0  0
 13 31  1  0  0  0
 14 15  2  0  0  0
 14 98  1  0  0  0
 15 99  1  0  0  0
 16 17  2  0  0  0
 16 21  1  0  0  0
 16 31  1  0  0  0
 17 18  1  0  0  0
 17100  1  0  0  0
 18 19  2  0  0  0
 18101  1  0  0  0
 19 20  1  0  0  0
 19 24  1  0  0  0
 20 21  2  0  0  0
 20102  1  0  0  0
 21 23  1  0  0  0
 22 28  1  0  0  0
 22 32  2  0  0  0
 26 27  1  0  0  0
 28103  1  0  0  0
 28104  1  0  0  0
 29105  1  0  0  0
 29106  1  0  0  0
 33 34  1  0  0  0
 33 66  1  0  0  0
 33 70  2  0  0  0
 34 36  1  0  0  0
 34 59  1  0  0  0
 34107  1  0  0  0
 35 44  2  0  0  0
 35 45  1  0  0  0
 35 68  1  0  0  0
 36 56  1  0  0  0
 36108  1  0  0  0
 37 39  1  0  0  0
 37 47  1  0  0  0
 37 66  1  0  0  0
 37109  1  0  0  0
 38 43  2  0  0  0
 38 46  1  0  0  0
 38 47  1  0  0  0
 39 64  1  0  0  0
 39 67  2  0  0  0
 40 52  1  0  0  0
 40 53  2  0  0  0
 40 58  1  0  0  0
 41110  1  0  0  0
 41111  1  0  0  0
 41112  1  0  0  0
 41 48  1  0  0  0
 42 43  1  0  0  0
 42 66  1  0  0  0
 42113  1  0  0  0
 42114  1  0  0  0
 43 44  1  0  0  0
 44115  1  0  0  0
 45 46  2  0  0  0
 45116  1  0  0  0
 46117  1  0  0  0
 47118  1  0  0  0
 47119  1  0  0  0
 48 56  1  0  0  0
 48 65  1  0  0  0
 48120  1  0  0  0
 49 50  1  0  0  0
 49 53  1  0  0  0
 49 64  1  0  0  0
 49121  1  0  0  0
 50 51  1  0  0  0
 50122  1  0  0  0
 50123  1  0  0  0
 51 52  1  0  0  0
 51124  1  0  0  0
 51125  1  0  0  0
 52126  1  0  0  0
 52127  1  0  0  0
 53 54  1  0  0  0
 54 55  2  0  0  0
 54128  1  0  0  0
 55 57  1  0  0  0
 55129  1  0  0  0
 56 69  2  0  0  0
 57 58  2  0  0  0
 57130  1  0  0  0
 58131  1  0  0  0
 59 60  1  0  0  0
 59 61  1  0  0  0
 59 62  1  0  0  0
 60132  1  0  0  0
 60133  1  0  0  0
 60134  1  0  0  0
 61135  1  0  0  0
 61136  1  0  0  0
 61137  1  0  0  0
 62138  1  0  0  0
 62139  1  0  0  0
 62140  1  0  0  0
 63 65  1  0  0  0
 63141  1  0  0  0
 63142  1  0  0  0
 63143  1  0  0  0
 64144  1  0  0  0
 65145  1  0  0  0
 68 82  1  0  0  0
 71 73  2  0  0  0
 71 74  1  0  0  0
 71146  1  0  0  0
 72 74  2  0  0  0
 72 83  1  0  0  0
 72147  1  0  0  0
 73 75  1  0  0  0
 73 81  1  0  0  0
 74 85  1  0  0  0
 75 77  1  0  0  0
 75 83  2  0  0  0
 76 78  1  0  0  0
 76 85  1  0  0  0
 76 86  2  0  0  0
 77 84  2  0  0  0
 78 80  1  0  0  0
 78148  1  0  0  0
 78149  1  0  0  0
 79 80  1  0  0  0
 79 85  1  0  0  0
 79150  1  0  0  0
 79151  1  0  0  0
 80 82  1  0  0  0
 80152  1  0  0  0
 81153  1  0  0  0
 81154  1  0  0  0
 81155  1  0  0  0
 82156  1  0  0  0
 82157  1  0  0  0
 84158  1  0  0  0
M  ISO  4   1 100  68 101  77 100  82 101
M  END
> <chiral flag>
0

> <version>
0

> <s_m_source_file>
/data/baiqing/PycharmProjects/Reinvent-master-3.2/result/LINK_invent/BTK/process_docking_weight1_custom_product_contain_oxygen_bond_distance_aromatic_linkinvent_7_9_3/rearranged_h_0096.sdf

> <i_m_source_file_index>
4

> <r_mmod_Potential_Energy-OPLS-2005>
180.000640869141

> <r_mmod_Stretch_Energy-OPLS-2005>
86.1844024658203

> <r_mmod_Bend_Energy-OPLS-2005>
168.273193359375

> <r_mmod_Torsional_Energy-OPLS-2005>
285.957397460938

> <r_mmod_Improper_Torsional_Energy-OPLS-2005>
4.53124570846558

> <r_mmod_Van_der_Waal_Energy-OPLS-2005>
148.990036010742

> <r_mmod_Electrostatic_Energy-OPLS-2005>
-343.534027099609

> <r_mmod_Solvation_Energy-OPLS-2005>
-209.803771972656

> <b_mmod_Minimization_Converged-OPLS-2005>
0

> <r_mmod_RMS_Derivative-OPLS-2005>
0.948053777217865

$$$$
4
                    3D
 Structure written by MMmdl.
162171  0  0  1  0            999 V2000
  -30.6411  -14.7024   20.3822 C   0  0  0  0  0  0
  -30.4307  -12.4011   19.4616 C   0  0  0  0  0  0
  -29.4995  -12.4065   18.2285 C   0  0  0  0  0  0
  -28.0234  -12.2903   18.6557 C   0  0  0  0  0  0
  -27.6401  -13.2120   19.8457 C   0  0  2  0  0  0
  -28.6973  -13.1792   20.9706 C   0  0  0  0  0  0
  -25.2556  -13.8165   20.5706 C   0  0  0  0  0  0
  -24.1812  -13.0461   20.9214 C   0  0  0  0  0  0
  -24.6368  -11.6924   20.8783 C   0  0  0  0  0  0
  -23.9034  -10.4319   21.0420 C   0  0  0  0  0  0
  -24.3615   -9.4244   21.9187 C   0  0  0  0  0  0
  -23.6309   -8.2274   22.0755 C   0  0  0  0  0  0
  -22.4286   -8.0306   21.3546 C   0  0  0  0  0  0
  -21.9904   -9.0270   20.4648 C   0  0  0  0  0  0
  -22.7220  -10.2159   20.3063 C   0  0  0  0  0  0
  -21.6875   -6.0753   22.5260 C   0  0  0  0  0  0
  -21.4023   -6.5651   23.8196 C   0  0  0  0  0  0
  -21.3639   -5.6796   24.9148 C   0  0  0  0  0  0
  -21.6045   -4.3058   24.7190 C   0  0  0  0  0  0
  -21.8844   -3.8164   23.4309 C   0  0  0  0  0  0
  -21.9215   -4.6985   22.3375 C   0  0  0  0  0  0
  -22.7843  -13.5267   21.1830 C   0  0  0  0  0  0
  -22.1691   -4.2179   21.0951 F   0  0  0  0  0  0
  -21.5611   -3.4537   25.7694 F   0  0  0  0  0  0
  -29.9927  -13.4912   20.3564 N   0  0  0  0  0  0
  -26.2955  -12.9321   20.3345 N   0  0  0  0  0  0
  -25.9291  -11.6492   20.5835 N   0  0  0  0  0  0
  -22.0467  -12.8276   22.0381 N   0  0  0  0  0  0
  -25.4300  -15.1872   20.4052 N   0  0  0  0  0  0
  -31.8673  -14.7397   20.2424 O   0  0  0  0  0  0
  -21.6669   -6.8891   21.4225 O   0  0  0  0  0  0
  -22.3536  -14.5558   20.6642 O   0  0  0  0  0  0
  -24.6260  -31.8593   23.2000 C   0  0  0  0  0  0
  -25.9108  -32.4767   23.8341 C   0  0  1  0  0  0
  -27.2238  -27.3163   20.1176 C   0  0  0  0  0  0
  -25.5924  -33.8569   24.2274 N   0  0  0  0  0  0
  -23.4174  -30.4801   21.5433 C   0  0  2  0  0  0
  -24.8620  -28.9299   20.1098 C   0  0  0  0  0  0
  -22.7475  -29.4614   22.4951 C   0  0  0  0  0  0
  -18.0292  -28.1369   22.8503 C   0  0  0  0  0  0
  -24.1484  -36.7296   23.2641 C   0  0  0  0  0  0
  -25.9570  -30.7885   21.3691 C   0  0  0  0  0  0
  -26.0280  -29.4152   20.7123 C   0  0  0  0  0  0
  -27.2084  -28.6185   20.7050 C   0  0  0  0  0  0
  -26.0313  -26.8733   19.5028 C   0  0  0  0  0  0
  -24.8662  -27.6667   19.4960 C   0  0  0  0  0  0
  -23.6274  -29.8069   20.1597 C   0  0  0  0  0  0
  -25.4112  -36.3083   24.0329 C   0  0  1  0  0  0
  -20.5892  -28.3674   23.1297 C   0  0  2  0  0  0
  -20.6764  -26.9395   22.5411 C   0  0  0  0  0  0
  -19.5739  -26.6372   21.5215 C   0  0  0  0  0  0
  -18.1924  -26.7915   22.1631 C   0  0  0  0  0  0
  -19.1543  -28.8840   23.2890 C   0  0  0  0  0  0
  -18.9457  -30.1445   23.8902 C   0  0  0  0  0  0
  -17.6453  -30.6570   24.0559 C   0  0  0  0  0  0
  -25.9046  -34.9448   23.5104 C   0  0  0  0  0  0
  -16.5349  -29.9059   23.6327 C   0  0  0  0  0  0
  -16.7278  -28.6470   23.0366 C   0  0  0  0  0  0
  -26.4487  -31.6589   25.0724 C   0  0  0  0  0  0
  -25.3712  -31.3738   26.1449 C   0  0  0  0  0  0
  -27.0335  -30.3011   24.6185 C   0  0  0  0  0  0
  -27.6045  -32.4342   25.7486 C   0  0  0  0  0  0
  -27.5581  -37.1799   24.8466 C   0  0  0  0  0  0
  -21.4191  -29.3031   22.3700 N   0  0  0  0  0  0
  -26.4297  -37.3774   23.9403 N   0  0  0  0  0  0
  -24.6856  -31.0603   22.0940 N   0  0  0  0  0  0
  -23.4211  -28.8176   23.3036 O   0  0  0  0  0  0
  -28.3806  -26.5276   20.1748 O   0  0  0  0  0  0
  -26.5617  -34.8916   22.4670 O   0  0  0  0  0  0
  -23.5426  -32.1395   23.7330 O   0  0  0  0  0  0
  -28.3443  -19.2120   20.5720 C   0  0  0  0  0  0
  -28.5169  -17.8091   20.3666 C   0  0  0  0  0  0
  -30.7026  -19.4051   20.9788 C   0  0  0  0  0  0
  -29.4371  -20.0621   20.8870 C   0  0  0  0  0  0
  -29.7790  -17.1532   20.4572 C   0  0  0  0  0  0
  -30.8812  -18.0029   20.7702 C   0  0  0  0  0  0
  -29.8116  -21.9298   22.3758 C   0  0  0  0  0  0
  -28.6862  -22.4421   20.3537 C   0  0  0  0  0  0
  -30.1781  -23.4040   22.5499 C   0  0  0  0  0  0
  -29.0177  -24.3174   22.1597 C   0  0  0  0  0  0
  -28.3371  -23.9356   20.8255 C   0  0  2  0  0  0
  -29.7783  -15.8282   18.4525 C   0  0  0  0  0  0
  -28.4570  -25.1089   19.7451 C   0  0  0  0  0  0
  -29.2882  -21.5084   21.1917 N   0  0  0  0  0  0
  -32.1810  -17.5049   20.8099 N   0  0  0  0  0  0
  -29.9033  -15.7865   19.9220 N   0  0  0  0  0  0
  -30.0165  -21.1721   23.3333 O   0  0  0  0  0  0
  -28.3711  -22.1337   19.1982 O   0  0  0  0  0  0
  -31.4710  -12.5116   19.1503 H   0  0  0  0  0  0
  -30.3712  -11.4435   19.9817 H   0  0  0  0  0  0
  -29.7535  -11.5715   17.5739 H   0  0  0  0  0  0
  -29.6449  -13.2971   17.6239 H   0  0  0  0  0  0
  -27.8640  -11.2492   18.9397 H   0  0  0  0  0  0
  -27.3649  -12.4742   17.8061 H   0  0  0  0  0  0
  -27.6167  -14.2231   19.4522 H   0  0  0  0  0  0
  -28.7269  -12.2062   21.4609 H   0  0  0  0  0  0
  -28.4568  -13.9137   21.7408 H   0  0  0  0  0  0
  -25.2765   -9.5755   22.4744 H   0  0  0  0  0  0
  -24.0051   -7.4672   22.7469 H   0  0  0  0  0  0
  -21.0841   -8.8781   19.8939 H   0  0  0  0  0  0
  -22.3676  -10.9704   19.6177 H   0  0  0  0  0  0
  -21.2031   -7.6165   23.9694 H   0  0  0  0  0  0
  -21.1412   -6.0521   25.9044 H   0  0  0  0  0  0
  -22.0639   -2.7632   23.2789 H   0  0  0  0  0  0
  -22.4104  -11.9977   22.4824 H   0  0  0  0  0  0
  -21.1061  -13.1274   22.2508 H   0  0  0  0  0  0
  -24.6637  -15.8439   20.4998 H   0  0  0  0  0  0
  -26.2853  -15.6133   20.0744 H   0  0  0  0  0  0
  -26.7182  -32.5424   23.1099 H   0  0  0  0  0  0
  -25.0075  -33.9710   25.0420 H   0  0  0  0  0  0
  -22.7125  -31.3003   21.3977 H   0  0  0  0  0  0
  -23.3746  -35.9630   23.3308 H   0  0  0  0  0  0
  -24.3583  -36.8913   22.2058 H   0  0  0  0  0  0
  -23.7231  -37.6495   23.6659 H   0  0  0  0  0  0
  -26.0902  -31.5529   20.6020 H   0  0  0  0  0  0
  -26.8377  -30.8365   21.9976 H   0  0  0  0  0  0
  -28.1071  -28.9878   21.1789 H   0  0  0  0  0  0
  -25.9617  -25.9036   19.0345 H   0  0  0  0  0  0
  -23.9683  -27.2925   19.0233 H   0  0  0  0  0  0
  -23.7339  -30.5768   19.3945 H   0  0  0  0  0  0
  -22.7491  -29.2275   19.8691 H   0  0  0  0  0  0
  -25.1288  -36.1950   25.0823 H   0  0  0  0  0  0
  -20.9989  -28.3222   24.1414 H   0  0  0  0  0  0
  -20.5656  -26.2274   23.3600 H   0  0  0  0  0  0
  -21.6629  -26.7400   22.1207 H   0  0  0  0  0  0
  -19.6887  -25.6282   21.1237 H   0  0  0  0  0  0
  -19.6672  -27.3185   20.6747 H   0  0  0  0  0  0
  -17.4189  -26.6698   21.4025 H   0  0  0  0  0  0
  -18.0307  -26.0042   22.9012 H   0  0  0  0  0  0
  -19.7931  -30.7268   24.2266 H   0  0  0  0  0  0
  -17.4996  -31.6253   24.5158 H   0  0  0  0  0  0
  -15.5342  -30.2954   23.7629 H   0  0  0  0  0  0
  -15.8687  -28.0764   22.7100 H   0  0  0  0  0  0
  -24.5872  -30.7110   25.7770 H   0  0  0  0  0  0
  -24.8914  -32.2909   26.4882 H   0  0  0  0  0  0
  -25.8021  -30.8899   27.0225 H   0  0  0  0  0  0
  -26.2909  -29.6768   24.1200 H   0  0  0  0  0  0
  -27.4022  -29.7269   25.4697 H   0  0  0  0  0  0
  -27.8782  -30.4300   23.9415 H   0  0  0  0  0  0
  -27.2648  -33.3644   26.2061 H   0  0  0  0  0  0
  -28.3842  -32.6921   25.0303 H   0  0  0  0  0  0
  -28.0737  -31.8484   26.5404 H   0  0  0  0  0  0
  -28.2600  -38.0094   24.7508 H   0  0  0  0  0  0
  -28.1076  -36.2627   24.6295 H   0  0  0  0  0  0
  -27.2301  -37.1449   25.8869 H   0  0  0  0  0  0
  -20.9374  -29.8759   21.6914 H   0  0  0  0  0  0
  -26.0189  -38.2856   24.1388 H   0  0  0  0  0  0
  -27.3523  -19.6333   20.4788 H   0  0  0  0  0  0
  -27.6533  -17.2301   20.0765 H   0  0  0  0  0  0
  -31.5744  -20.0009   21.2127 H   0  0  0  0  0  0
  -31.0500  -23.6097   21.9286 H   0  0  0  0  0  0
  -30.4808  -23.5933   23.5803 H   0  0  0  0  0  0
  -29.3877  -25.3423   22.1291 H   0  0  0  0  0  0
  -28.2730  -24.3019   22.9571 H   0  0  0  0  0  0
  -27.2713  -23.8837   21.0527 H   0  0  0  0  0  0
  -28.8159  -15.4412   18.1262 H   0  0  0  0  0  0
  -30.5702  -15.2771   17.9413 H   0  0  0  0  0  0
  -29.8504  -16.8463   18.0653 H   0  0  0  0  0  0
  -27.7921  -24.9085   18.9074 H   0  0  0  0  0  0
  -29.4493  -25.0162   19.3041 H   0  0  0  0  0  0
  -32.9365  -18.1466   20.5935 H   0  0  0  0  0  0
  -32.3250  -16.5762   20.4081 H   0  0  0  0  0  0
  1 25  1  0  0  0
  1 30  2  0  0  0
  1 86  1  0  0  0
  2  3  1  0  0  0
  2 25  1  0  0  0
  2 89  1  0  0  0
  2 90  1  0  0  0
  3  4  1  0  0  0
  3 91  1  0  0  0
  3 92  1  0  0  0
  4  5  1  0  0  0
  4 93  1  0  0  0
  4 94  1  0  0  0
  5  6  1  0  0  0
  5 26  1  0  0  0
  5 95  1  0  0  0
  6 25  1  0  0  0
  6 96  1  0  0  0
  6 97  1  0  0  0
  7  8  2  0  0  0
  7 26  1  0  0  0
  7 29  1  0  0  0
  8  9  1  0  0  0
  8 22  1  0  0  0
  9 10  1  0  0  0
  9 27  2  0  0  0
 10 11  2  0  0  0
 10 15  1  0  0  0
 11 12  1  0  0  0
 11 98  1  0  0  0
 12 13  2  0  0  0
 12 99  1  0  0  0
 13 14  1  0  0  0
 13 31  1  0  0  0
 14 15  2  0  0  0
 14100  1  0  0  0
 15101  1  0  0  0
 16 17  2  0  0  0
 16 21  1  0  0  0
 16 31  1  0  0  0
 17 18  1  0  0  0
 17102  1  0  0  0
 18 19  2  0  0  0
 18103  1  0  0  0
 19 20  1  0  0  0
 19 24  1  0  0  0
 20 21  2  0  0  0
 20104  1  0  0  0
 21 23  1  0  0  0
 22 28  1  0  0  0
 22 32  2  0  0  0
 26 27  1  0  0  0
 28105  1  0  0  0
 28106  1  0  0  0
 29107  1  0  0  0
 29108  1  0  0  0
 33 34  1  0  0  0
 33 66  1  0  0  0
 33 70  2  0  0  0
 34 36  1  0  0  0
 34 59  1  0  0  0
 34109  1  0  0  0
 35 44  2  0  0  0
 35 45  1  0  0  0
 35 68  1  0  0  0
 36 56  1  0  0  0
 36110  1  0  0  0
 37 39  1  0  0  0
 37 47  1  0  0  0
 37 66  1  0  0  0
 37111  1  0  0  0
 38 43  2  0  0  0
 38 46  1  0  0  0
 38 47  1  0  0  0
 39 64  1  0  0  0
 39 67  2  0  0  0
 40 52  1  0  0  0
 40 53  2  0  0  0
 40 58  1  0  0  0
 41112  1  0  0  0
 41113  1  0  0  0
 41114  1  0  0  0
 41 48  1  0  0  0
 42 43  1  0  0  0
 42 66  1  0  0  0
 42115  1  0  0  0
 42116  1  0  0  0
 43 44  1  0  0  0
 44117  1  0  0  0
 45 46  2  0  0  0
 45118  1  0  0  0
 46119  1  0  0  0
 47120  1  0  0  0
 47121  1  0  0  0
 48 56  1  0  0  0
 48 65  1  0  0  0
 48122  1  0  0  0
 49 50  1  0  0  0
 49 53  1  0  0  0
 49 64  1  0  0  0
 49123  1  0  0  0
 50 51  1  0  0  0
 50124  1  0  0  0
 50125  1  0  0  0
 51 52  1  0  0  0
 51126  1  0  0  0
 51127  1  0  0  0
 52128  1  0  0  0
 52129  1  0  0  0
 53 54  1  0  0  0
 54 55  2  0  0  0
 54130  1  0  0  0
 55 57  1  0  0  0
 55131  1  0  0  0
 56 69  2  0  0  0
 57 58  2  0  0  0
 57132  1  0  0  0
 58133  1  0  0  0
 59 60  1  0  0  0
 59 61  1  0  0  0
 59 62  1  0  0  0
 60134  1  0  0  0
 60135  1  0  0  0
 60136  1  0  0  0
 61137  1  0  0  0
 61138  1  0  0  0
 61139  1  0  0  0
 62140  1  0  0  0
 62141  1  0  0  0
 62142  1  0  0  0
 63 65  1  0  0  0
 63143  1  0  0  0
 63144  1  0  0  0
 63145  1  0  0  0
 64146  1  0  0  0
 65147  1  0  0  0
 68 83  1  0  0  0
 71 72  2  0  0  0
 71 74  1  0  0  0
 71148  1  0  0  0
 72 75  1  0  0  0
 72149  1  0  0  0
 73 74  2  0  0  0
 73 76  1  0  0  0
 73150  1  0  0  0
 74 84  1  0  0  0
 75 76  2  0  0  0
 75 86  1  0  0  0
 76 85  1  0  0  0
 77 79  1  0  0  0
 77 84  1  0  0  0
 77 87  2  0  0  0
 78 81  1  0  0  0
 78 84  1  0  0  0
 78 88  2  0  0  0
 79 80  1  0  0  0
 79151  1  0  0  0
 79152  1  0  0  0
 80 81  1  0  0  0
 80153  1  0  0  0
 80154  1  0  0  0
 81 83  1  0  0  0
 81155  1  0  0  0
 82 86  1  0  0  0
 82156  1  0  0  0
 82157  1  0  0  0
 82158  1  0  0  0
 83159  1  0  0  0
 83160  1  0  0  0
 85161  1  0  0  0
 85162  1  0  0  0
M  ISO  4   1 100  68 101  83 101  86 100
M  END
> <chiral flag>
0

> <version>
0

> <s_m_source_file>
/data/baiqing/PycharmProjects/Reinvent-master-3.2/result/LINK_invent/BTK/process_docking_weight1_custom_product_contain_oxygen_bond_distance_aromatic_linkinvent_7_9_3/rearranged_h_0096.sdf

> <i_m_source_file_index>
5

> <r_mmod_Potential_Energy-OPLS-2005>
351.542572021484

> <r_mmod_Stretch_Energy-OPLS-2005>
100.576698303223

> <r_mmod_Bend_Energy-OPLS-2005>
171.743133544922

> <r_mmod_Torsional_Energy-OPLS-2005>
387.533721923828

> <r_mmod_Improper_Torsional_Energy-OPLS-2005>
32.2257347106934

> <r_mmod_Van_der_Waal_Energy-OPLS-2005>
169.689483642578

> <r_mmod_Electrostatic_Energy-OPLS-2005>
-355.918670654297

> <r_mmod_Solvation_Energy-OPLS-2005>
-223.693283081055

> <b_mmod_Minimization_Converged-OPLS-2005>
0

> <r_mmod_RMS_Derivative-OPLS-2005>
1.99069952964783

$$$$
5
                    3D
 Structure written by MMmdl.
170179  0  0  1  0            999 V2000
  -30.7802  -14.3746   20.7037 C   0  0  0  0  0  0
  -30.4238  -12.3071   19.4010 C   0  0  0  0  0  0
  -29.4910  -12.5441   18.1985 C   0  0  0  0  0  0
  -28.0188  -12.3881   18.6133 C   0  0  0  0  0  0
  -27.6713  -13.2095   19.8798 C   0  0  2  0  0  0
  -28.7105  -12.9759   21.0033 C   0  0  0  0  0  0
  -25.2610  -13.8164   20.5660 C   0  0  0  0  0  0
  -24.1854  -13.0453   20.9185 C   0  0  0  0  0  0
  -24.6396  -11.6911   20.8705 C   0  0  0  0  0  0
  -23.9040  -10.4304   21.0387 C   0  0  0  0  0  0
  -24.3600   -9.4240   21.9172 C   0  0  0  0  0  0
  -23.6291   -8.2260   22.0744 C   0  0  0  0  0  0
  -22.4276   -8.0278   21.3536 C   0  0  0  0  0  0
  -21.9902   -9.0248   20.4640 C   0  0  0  0  0  0
  -22.7211  -10.2141   20.3043 C   0  0  0  0  0  0
  -21.6866   -6.0737   22.5281 C   0  0  0  0  0  0
  -21.4012   -6.5636   23.8212 C   0  0  0  0  0  0
  -21.3659   -5.6785   24.9168 C   0  0  0  0  0  0
  -21.6044   -4.3044   24.7221 C   0  0  0  0  0  0
  -21.8815   -3.8145   23.4339 C   0  0  0  0  0  0
  -21.9193   -4.6959   22.3399 C   0  0  0  0  0  0
  -22.7868  -13.5254   21.1844 C   0  0  0  0  0  0
  -22.1664   -4.2148   21.0979 F   0  0  0  0  0  0
  -21.5640   -3.4530   25.7736 F   0  0  0  0  0  0
  -30.0652  -13.2392   20.4803 N   0  0  0  0  0  0
  -26.3062  -12.9340   20.3345 N   0  0  0  0  0  0
  -25.9323  -11.6503   20.5707 N   0  0  0  0  0  0
  -22.0459  -12.8263   22.0381 N   0  0  0  0  0  0
  -25.4329  -15.1870   20.4020 N   0  0  0  0  0  0
  -31.6950  -14.7690   19.9735 O   0  0  0  0  0  0
  -21.6642   -6.8877   21.4242 O   0  0  0  0  0  0
  -22.3574  -14.5579   20.6711 O   0  0  0  0  0  0
  -24.6142  -31.8687   23.2124 C   0  0  0  0  0  0
  -25.9041  -32.4830   23.8398 C   0  0  1  0  0  0
  -27.2301  -27.4365   20.0786 C   0  0  0  0  0  0
  -25.5906  -33.8629   24.2330 N   0  0  0  0  0  0
  -23.3994  -30.4950   21.5549 C   0  0  2  0  0  0
  -24.8422  -28.9653   20.1142 C   0  0  0  0  0  0
  -22.7399  -29.4664   22.5016 C   0  0  0  0  0  0
  -18.0262  -28.1382   22.8484 C   0  0  0  0  0  0
  -24.1487  -36.7319   23.2633 C   0  0  0  0  0  0
  -25.9290  -30.8336   21.3648 C   0  0  0  0  0  0
  -26.0041  -29.4679   20.7123 C   0  0  0  0  0  0
  -27.1977  -28.7104   20.6944 C   0  0  0  0  0  0
  -26.0429  -26.9529   19.4746 C   0  0  0  0  0  0
  -24.8570  -27.7063   19.4947 C   0  0  0  0  0  0
  -23.6053  -29.8317   20.1679 C   0  0  0  0  0  0
  -25.4106  -36.3116   24.0331 C   0  0  1  0  0  0
  -20.5851  -28.3659   23.1334 C   0  0  2  0  0  0
  -20.6763  -26.9406   22.5418 C   0  0  0  0  0  0
  -19.5749  -26.6396   21.5207 C   0  0  0  0  0  0
  -18.1920  -26.7934   22.1610 C   0  0  0  0  0  0
  -19.1510  -28.8838   23.2904 C   0  0  0  0  0  0
  -18.9443  -30.1449   23.8904 C   0  0  0  0  0  0
  -17.6447  -30.6590   24.0566 C   0  0  0  0  0  0
  -25.9031  -34.9481   23.5121 C   0  0  0  0  0  0
  -16.5335  -29.9090   23.6334 C   0  0  0  0  0  0
  -16.7249  -28.6512   23.0342 C   0  0  0  0  0  0
  -26.4481  -31.6606   25.0716 C   0  0  0  0  0  0
  -25.3765  -31.3696   26.1475 C   0  0  0  0  0  0
  -27.0294  -30.3050   24.6068 C   0  0  0  0  0  0
  -27.6064  -32.4319   25.7475 C   0  0  0  0  0  0
  -27.5584  -37.1807   24.8458 C   0  0  0  0  0  0
  -21.4131  -29.3028   22.3750 N   0  0  0  0  0  0
  -26.4294  -37.3802   23.9408 N   0  0  0  0  0  0
  -24.6660  -31.0793   22.1024 N   0  0  0  0  0  0
  -23.4180  -28.8198   23.3048 O   0  0  0  0  0  0
  -28.4101  -26.7138   20.0860 O   0  0  0  0  0  0
  -26.5588  -34.8929   22.4678 O   0  0  0  0  0  0
  -23.5343  -32.1436   23.7537 O   0  0  0  0  0  0
  -31.9165  -18.0342   20.8941 C   0  0  0  0  0  0
  -29.4531  -19.1626   20.1597 C   0  0  0  0  0  0
  -30.7226  -17.4225   21.3301 C   0  0  0  0  0  0
  -29.4775  -17.9954   20.9573 C   0  0  0  0  0  0
  -30.6432  -19.7662   19.6962 C   0  0  0  0  0  0
  -31.8838  -19.1788   20.0655 C   0  0  0  0  0  0
  -31.9628  -22.9223   19.1009 C   0  0  0  0  0  0
  -30.7922  -16.2946   22.2809 C   0  0  0  0  0  0
  -32.1141  -24.3980   19.4749 C   0  0  0  0  0  0
  -30.8405  -25.1876   19.1669 C   0  0  0  0  0  0
  -29.5229  -23.0564   19.6280 C   0  0  0  0  0  0
  -29.6684  -24.5781   19.9404 C   0  0  2  0  0  0
  -28.1521  -17.4011   21.4153 C   0  0  0  0  0  0
  -30.5273  -20.9515   18.7215 C   0  0  0  0  0  0
  -28.3485  -25.3387   19.6823 C   0  0  0  0  0  0
  -30.7555  -22.3206   19.2483 N   0  0  0  0  0  0
  -33.0968  -19.6885   19.6062 N   0  0  0  0  0  0
  -30.5788  -14.9944   21.9765 N   0  0  0  0  0  0
  -30.9668  -16.6314   23.5623 N   0  3  0  0  0  0
  -32.9563  -22.3415   18.6574 O   0  0  0  0  0  0
  -31.4666  -12.4163   19.0969 H   0  0  0  0  0  0
  -30.3275  -11.2808   19.7602 H   0  0  0  0  0  0
  -29.7314  -11.8432   17.3986 H   0  0  0  0  0  0
  -29.6574  -13.5429   17.7900 H   0  0  0  0  0  0
  -27.8344  -11.3288   18.7933 H   0  0  0  0  0  0
  -27.3656  -12.6767   17.7880 H   0  0  0  0  0  0
  -27.7228  -14.2611   19.5996 H   0  0  0  0  0  0
  -28.6540  -11.9477   21.3641 H   0  0  0  0  0  0
  -28.4548  -13.6048   21.8570 H   0  0  0  0  0  0
  -25.2733   -9.5748   22.4746 H   0  0  0  0  0  0
  -24.0019   -7.4670   22.7467 H   0  0  0  0  0  0
  -21.0829   -8.8742   19.8954 H   0  0  0  0  0  0
  -22.3640  -10.9668   19.6151 H   0  0  0  0  0  0
  -21.1988   -7.6143   23.9724 H   0  0  0  0  0  0
  -21.1496   -6.0503   25.9078 H   0  0  0  0  0  0
  -22.0596   -2.7606   23.2824 H   0  0  0  0  0  0
  -22.4031  -11.9934   22.4822 H   0  0  0  0  0  0
  -21.1076  -13.1334   22.2539 H   0  0  0  0  0  0
  -24.6582  -15.8348   20.4859 H   0  0  0  0  0  0
  -26.2580  -15.6076   19.9945 H   0  0  0  0  0  0
  -26.7102  -32.5540   23.1153 H   0  0  0  0  0  0
  -25.0084  -33.9797   25.0493 H   0  0  0  0  0  0
  -22.6867  -31.3115   21.4204 H   0  0  0  0  0  0
  -23.3750  -35.9653   23.3307 H   0  0  0  0  0  0
  -24.3580  -36.8922   22.2046 H   0  0  0  0  0  0
  -23.7241  -37.6523   23.6646 H   0  0  0  0  0  0
  -26.0372  -31.5988   20.5948 H   0  0  0  0  0  0
  -26.8188  -30.8883   21.9801 H   0  0  0  0  0  0
  -28.0941  -29.0989   21.1574 H   0  0  0  0  0  0
  -26.0050  -25.9986   18.9708 H   0  0  0  0  0  0
  -23.9651  -27.3172   19.0225 H   0  0  0  0  0  0
  -23.7128  -30.6074   19.4092 H   0  0  0  0  0  0
  -22.7281  -29.2526   19.8729 H   0  0  0  0  0  0
  -25.1284  -36.1979   25.0826 H   0  0  0  0  0  0
  -20.9928  -28.3219   24.1462 H   0  0  0  0  0  0
  -20.5690  -26.2258   23.3592 H   0  0  0  0  0  0
  -21.6633  -26.7481   22.1201 H   0  0  0  0  0  0
  -19.6919  -25.6314   21.1226 H   0  0  0  0  0  0
  -19.6703  -27.3218   20.6747 H   0  0  0  0  0  0
  -17.4203  -26.6692   21.3997 H   0  0  0  0  0  0
  -18.0312  -26.0068   22.8997 H   0  0  0  0  0  0
  -19.7918  -30.7265   24.2280 H   0  0  0  0  0  0
  -17.5001  -31.6272   24.5168 H   0  0  0  0  0  0
  -15.5336  -30.2992   23.7665 H   0  0  0  0  0  0
  -15.8649  -28.0842   22.7044 H   0  0  0  0  0  0
  -24.5935  -30.7045   25.7814 H   0  0  0  0  0  0
  -24.8960  -32.2845   26.4952 H   0  0  0  0  0  0
  -25.8140  -30.8847   27.0212 H   0  0  0  0  0  0
  -26.2806  -29.6818   24.1165 H   0  0  0  0  0  0
  -27.4110  -29.7282   25.4502 H   0  0  0  0  0  0
  -27.8630  -30.4365   23.9166 H   0  0  0  0  0  0
  -27.2684  -33.3603   26.2094 H   0  0  0  0  0  0
  -28.3852  -32.6910   25.0288 H   0  0  0  0  0  0
  -28.0761  -31.8417   26.5355 H   0  0  0  0  0  0
  -28.2602  -38.0106   24.7523 H   0  0  0  0  0  0
  -28.1076  -36.2636   24.6265 H   0  0  0  0  0  0
  -27.2302  -37.1437   25.8862 H   0  0  0  0  0  0
  -20.9295  -29.8739   21.6960 H   0  0  0  0  0  0
  -26.0182  -38.2878   24.1422 H   0  0  0  0  0  0
  -32.8638  -17.6027   21.1906 H   0  0  0  0  0  0
  -28.5022  -19.5926   19.8743 H   0  0  0  0  0  0
  -32.9581  -24.8250   18.9317 H   0  0  0  0  0  0
  -32.3602  -24.4640   20.5352 H   0  0  0  0  0  0
  -30.6414  -25.1709   18.0935 H   0  0  0  0  0  0
  -30.9808  -26.2327   19.4442 H   0  0  0  0  0  0
  -28.8103  -22.9445   18.8102 H   0  0  0  0  0  0
  -29.0693  -22.5590   20.4862 H   0  0  0  0  0  0
  -29.8953  -24.6777   21.0034 H   0  0  0  0  0  0
  -27.3082  -17.9194   20.9594 H   0  0  0  0  0  0
  -28.0414  -17.4768   22.4975 H   0  0  0  0  0  0
  -28.0804  -16.3503   21.1355 H   0  0  0  0  0  0
  -29.5341  -20.9147   18.2730 H   0  0  0  0  0  0
  -31.1845  -20.7513   17.8742 H   0  0  0  0  0  0
  -27.5530  -24.8327   20.2327 H   0  0  0  0  0  0
  -28.1035  -25.2818   18.6201 H   0  0  0  0  0  0
  -33.9558  -19.4326   20.0786 H   0  0  0  0  0  0
  -33.1132  -20.6405   19.2308 H   0  0  0  0  0  0
  -30.0958  -14.4867   22.6951 H   0  0  0  0  0  0
  -31.0612  -17.6104   23.7884 H   0  0  0  0  0  0
  -31.0978  -15.9582   24.3019 H   0  0  0  0  0  0
  1 25  1  0  0  0
  1 30  2  0  0  0
  1 88  1  0  0  0
  2  3  1  0  0  0
  2 25  1  0  0  0
  2 91  1  0  0  0
  2 92  1  0  0  0
  3  4  1  0  0  0
  3 93  1  0  0  0
  3 94  1  0  0  0
  4  5  1  0  0  0
  4 95  1  0  0  0
  4 96  1  0  0  0
  5  6  1  0  0  0
  5 26  1  0  0  0
  5 97  1  0  0  0
  6 25  1  0  0  0
  6 98  1  0  0  0
  6 99  1  0  0  0
  7  8  2  0  0  0
  7 26  1  0  0  0
  7 29  1  0  0  0
  8  9  1  0  0  0
  8 22  1  0  0  0
  9 10  1  0  0  0
  9 27  2  0  0  0
 10 11  2  0  0  0
 10 15  1  0  0  0
 11 12  1  0  0  0
 11100  1  0  0  0
 12 13  2  0  0  0
 12101  1  0  0  0
 13 14  1  0  0  0
 13 31  1  0  0  0
 14 15  2  0  0  0
 14102  1  0  0  0
 15103  1  0  0  0
 16 17  2  0  0  0
 16 21  1  0  0  0
 16 31  1  0  0  0
 17 18  1  0  0  0
 17104  1  0  0  0
 18 19  2  0  0  0
 18105  1  0  0  0
 19 20  1  0  0  0
 19 24  1  0  0  0
 20 21  2  0  0  0
 20106  1  0  0  0
 21 23  1  0  0  0
 22 28  1  0  0  0
 22 32  2  0  0  0
 26 27  1  0  0  0
 28107  1  0  0  0
 28108  1  0  0  0
 29109  1  0  0  0
 29110  1  0  0  0
 33 34  1  0  0  0
 33 66  1  0  0  0
 33 70  2  0  0  0
 34 36  1  0  0  0
 34 59  1  0  0  0
 34111  1  0  0  0
 35 44  2  0  0  0
 35 45  1  0  0  0
 35 68  1  0  0  0
 36 56  1  0  0  0
 36112  1  0  0  0
 37 39  1  0  0  0
 37 47  1  0  0  0
 37 66  1  0  0  0
 37113  1  0  0  0
 38 43  2  0  0  0
 38 46  1  0  0  0
 38 47  1  0  0  0
 39 64  1  0  0  0
 39 67  2  0  0  0
 40 52  1  0  0  0
 40 53  2  0  0  0
 40 58  1  0  0  0
 41114  1  0  0  0
 41115  1  0  0  0
 41116  1  0  0  0
 41 48  1  0  0  0
 42 43  1  0  0  0
 42 66  1  0  0  0
 42117  1  0  0  0
 42118  1  0  0  0
 43 44  1  0  0  0
 44119  1  0  0  0
 45 46  2  0  0  0
 45120  1  0  0  0
 46121  1  0  0  0
 47122  1  0  0  0
 47123  1  0  0  0
 48 56  1  0  0  0
 48 65  1  0  0  0
 48124  1  0  0  0
 49 50  1  0  0  0
 49 53  1  0  0  0
 49 64  1  0  0  0
 49125  1  0  0  0
 50 51  1  0  0  0
 50126  1  0  0  0
 50127  1  0  0  0
 51 52  1  0  0  0
 51128  1  0  0  0
 51129  1  0  0  0
 52130  1  0  0  0
 52131  1  0  0  0
 53 54  1  0  0  0
 54 55  2  0  0  0
 54132  1  0  0  0
 55 57  1  0  0  0
 55133  1  0  0  0
 56 69  2  0  0  0
 57 58  2  0  0  0
 57134  1  0  0  0
 58135  1  0  0  0
 59 60  1  0  0  0
 59 61  1  0  0  0
 59 62  1  0  0  0
 60136  1  0  0  0
 60137  1  0  0  0
 60138  1  0  0  0
 61139  1  0  0  0
 61140  1  0  0  0
 61141  1  0  0  0
 62142  1  0  0  0
 62143  1  0  0  0
 62144  1  0  0  0
 63 65  1  0  0  0
 63145  1  0  0  0
 63146  1  0  0  0
 63147  1  0  0  0
 64148  1  0  0  0
 65149  1  0  0  0
 68 85  1  0  0  0
 71 73  2  0  0  0
 71 76  1  0  0  0
 71150  1  0  0  0
 72 74  2  0  0  0
 72 75  1  0  0  0
 72151  1  0  0  0
 73 74  1  0  0  0
 73 78  1  0  0  0
 74 83  1  0  0  0
 75 76  2  0  0  0
 75 84  1  0  0  0
 76 87  1  0  0  0
 77 79  1  0  0  0
 77 86  1  0  0  0
 77 90  2  0  0  0
 78 88  1  0  0  0
 78 89  2  0  0  0
 79 80  1  0  0  0
 79152  1  0  0  0
 79153  1  0  0  0
 80 82  1  0  0  0
 80154  1  0  0  0
 80155  1  0  0  0
 81 82  1  0  0  0
 81 86  1  0  0  0
 81156  1  0  0  0
 81157  1  0  0  0
 82 85  1  0  0  0
 82158  1  0  0  0
 83159  1  0  0  0
 83160  1  0  0  0
 83161  1  0  0  0
 84 86  1  0  0  0
 84162  1  0  0  0
 84163  1  0  0  0
 85164  1  0  0  0
 85165  1  0  0  0
 87166  1  0  0  0
 87167  1  0  0  0
 88168  1  0  0  0
 89169  1  0  0  0
 89170  1  0  0  0
M  CHG  1  89   1
M  ISO  4   1 100  68 101  85 101  88 100
M  END
> <chiral flag>
0

> <version>
0

> <s_m_source_file>
/data/baiqing/PycharmProjects/Reinvent-master-3.2/result/LINK_invent/BTK/process_docking_weight1_custom_product_contain_oxygen_bond_distance_aromatic_linkinvent_7_9_3/rearranged_h_0096.sdf

> <i_m_source_file_index>
6

> <r_mmod_Potential_Energy-OPLS-2005>
-269.412109375

> <r_mmod_Stretch_Energy-OPLS-2005>
43.0454635620117

> <r_mmod_Bend_Energy-OPLS-2005>
116.028060913086

> <r_mmod_Torsional_Energy-OPLS-2005>
277.894744873047

> <r_mmod_Improper_Torsional_Energy-OPLS-2005>
10.5587425231934

> <r_mmod_Van_der_Waal_Energy-OPLS-2005>
164.924377441406

> <r_mmod_Electrostatic_Energy-OPLS-2005>
-441.629180908203

> <r_mmod_Solvation_Energy-OPLS-2005>
-451.605102539062

> <b_mmod_Minimization_Converged-OPLS-2005>
0

> <r_mmod_RMS_Derivative-OPLS-2005>
2.24883532524109

$$$$
6
                    3D
 Structure written by MMmdl.
164173  0  0  1  0            999 V2000
  -30.6407  -14.7291   20.4153 C   0  0  0  0  0  0
  -30.4496  -12.4217   19.4789 C   0  0  0  0  0  0
  -29.5216  -12.3791   18.2437 C   0  0  0  0  0  0
  -28.0359  -12.2998   18.6538 C   0  0  0  0  0  0
  -27.6440  -13.2174   19.8444 C   0  0  2  0  0  0
  -28.6969  -13.1919   20.9713 C   0  0  0  0  0  0
  -25.2561  -13.8170   20.5690 C   0  0  0  0  0  0
  -24.1832  -13.0442   20.9204 C   0  0  0  0  0  0
  -24.6410  -11.6923   20.8789 C   0  0  0  0  0  0
  -23.9077  -10.4300   21.0408 C   0  0  0  0  0  0
  -24.3613   -9.4201   21.9169 C   0  0  0  0  0  0
  -23.6310   -8.2232   22.0732 C   0  0  0  0  0  0
  -22.4299   -8.0267   21.3517 C   0  0  0  0  0  0
  -21.9930   -9.0251   20.4631 C   0  0  0  0  0  0
  -22.7255  -10.2139   20.3042 C   0  0  0  0  0  0
  -21.6872   -6.0741   22.5276 C   0  0  0  0  0  0
  -21.4008   -6.5642   23.8206 C   0  0  0  0  0  0
  -21.3659   -5.6787   24.9165 C   0  0  0  0  0  0
  -21.6042   -4.3053   24.7212 C   0  0  0  0  0  0
  -21.8823   -3.8152   23.4334 C   0  0  0  0  0  0
  -21.9192   -4.6966   22.3397 C   0  0  0  0  0  0
  -22.7856  -13.5217   21.1881 C   0  0  0  0  0  0
  -22.1657   -4.2161   21.0978 F   0  0  0  0  0  0
  -21.5641   -3.4524   25.7712 F   0  0  0  0  0  0
  -29.9941  -13.5140   20.3661 N   0  0  0  0  0  0
  -26.2978  -12.9328   20.3305 N   0  0  0  0  0  0
  -25.9331  -11.6522   20.5833 N   0  0  0  0  0  0
  -22.0477  -12.8208   22.0424 N   0  0  0  0  0  0
  -25.4321  -15.1887   20.4107 N   0  0  0  0  0  0
  -31.8614  -14.7782   20.2388 O   0  0  0  0  0  0
  -21.6640   -6.8881   21.4236 O   0  0  0  0  0  0
  -22.3534  -14.5524   20.6740 O   0  0  0  0  0  0
  -24.6258  -31.8591   23.2022 C   0  0  0  0  0  0
  -25.9103  -32.4786   23.8360 C   0  0  1  0  0  0
  -27.2464  -27.3345   20.1302 C   0  0  0  0  0  0
  -25.5932  -33.8591   24.2298 N   0  0  0  0  0  0
  -23.4210  -30.4796   21.5427 C   0  0  2  0  0  0
  -24.8744  -28.9327   20.1154 C   0  0  0  0  0  0
  -22.7471  -29.4619   22.4934 C   0  0  0  0  0  0
  -18.0283  -28.1377   22.8469 C   0  0  0  0  0  0
  -24.1486  -36.7292   23.2636 C   0  0  0  0  0  0
  -25.9567  -30.8013   21.3635 C   0  0  0  0  0  0
  -26.0388  -29.4245   20.7151 C   0  0  0  0  0  0
  -27.2290  -28.6393   20.7068 C   0  0  0  0  0  0
  -26.0571  -26.8907   19.5054 C   0  0  0  0  0  0
  -24.8830  -27.6697   19.4996 C   0  0  0  0  0  0
  -23.6381  -29.8064   20.1609 C   0  0  0  0  0  0
  -25.4117  -36.3099   24.0331 C   0  0  1  0  0  0
  -20.5884  -28.3688   23.1275 C   0  0  2  0  0  0
  -20.6778  -26.9407   22.5402 C   0  0  0  0  0  0
  -19.5766  -26.6377   21.5189 C   0  0  0  0  0  0
  -18.1943  -26.7928   22.1591 C   0  0  0  0  0  0
  -19.1529  -28.8846   23.2884 C   0  0  0  0  0  0
  -18.9448  -30.1441   23.8905 C   0  0  0  0  0  0
  -17.6449  -30.6595   24.0547 C   0  0  0  0  0  0
  -25.9051  -34.9456   23.5109 C   0  0  0  0  0  0
  -16.5342  -29.9081   23.6320 C   0  0  0  0  0  0
  -16.7267  -28.6493   23.0351 C   0  0  0  0  0  0
  -26.4511  -31.6572   25.0694 C   0  0  0  0  0  0
  -25.3774  -31.3639   26.1426 C   0  0  0  0  0  0
  -27.0346  -30.3022   24.6062 C   0  0  0  0  0  0
  -27.6109  -32.4258   25.7467 C   0  0  0  0  0  0
  -27.5584  -37.1796   24.8469 C   0  0  0  0  0  0
  -21.4183  -29.3048   22.3681 N   0  0  0  0  0  0
  -26.4296  -37.3794   23.9419 N   0  0  0  0  0  0
  -24.6873  -31.0621   22.0961 N   0  0  0  0  0  0
  -23.4190  -28.8164   23.3047 O   0  0  0  0  0  0
  -28.3801  -26.5092   20.1961 O   0  0  0  0  0  0
  -26.5594  -34.8918   22.4658 O   0  0  0  0  0  0
  -23.5419  -32.1367   23.7352 O   0  0  0  0  0  0
  -31.2485  -19.3982   20.6252 C   0  0  0  0  0  0
  -28.9850  -19.3593   21.4311 C   0  0  0  0  0  0
  -31.2223  -17.9845   20.4485 C   0  0  0  0  0  0
  -28.9700  -17.9358   21.2868 C   0  0  0  0  0  0
  -30.1227  -20.1401   21.0917 C   0  0  0  0  0  0
  -30.0670  -17.2087   20.7394 C   0  0  0  0  0  0
  -31.1249  -22.1321   22.0790 C   0  0  0  0  0  0
  -31.3053  -23.6566   22.1992 C   0  0  0  0  0  0
  -30.0242  -24.4696   21.9723 C   0  0  0  0  0  0
  -29.1006  -22.5174   20.6858 C   0  0  0  0  0  0
  -29.3941  -24.0893   20.6308 C   0  0  1  0  0  0
  -28.3701  -16.9922   18.4080 C   0  0  0  0  0  0
  -28.1756  -25.0445   20.2472 C   0  0  0  0  0  0
  -29.5208  -16.0117   18.7266 C   0  0  0  0  0  0
  -30.1732  -21.6075   21.2519 N   0  0  0  0  0  0
  -29.8777  -15.8706   20.1615 N   0  0  0  0  0  0
  -31.8915  -21.4343   22.7511 O   0  0  0  0  0  0
  -31.4813  -12.5573   19.1538 H   0  0  0  0  0  0
  -30.4254  -11.4722   20.0133 H   0  0  0  0  0  0
  -29.7709  -11.4979   17.6525 H   0  0  0  0  0  0
  -29.7079  -13.2141   17.5717 H   0  0  0  0  0  0
  -27.8473  -11.2612   18.9325 H   0  0  0  0  0  0
  -27.3959  -12.5017   17.7923 H   0  0  0  0  0  0
  -27.6140  -14.2284   19.4538 H   0  0  0  0  0  0
  -28.7265  -12.2225   21.4674 H   0  0  0  0  0  0
  -28.4471  -13.9307   21.7366 H   0  0  0  0  0  0
  -25.2732   -9.5708   22.4763 H   0  0  0  0  0  0
  -24.0030   -7.4620   22.7443 H   0  0  0  0  0  0
  -21.0859   -8.8779   19.8935 H   0  0  0  0  0  0
  -22.3693  -10.9687   19.6179 H   0  0  0  0  0  0
  -21.1976   -7.6146   23.9728 H   0  0  0  0  0  0
  -21.1490   -6.0498   25.9082 H   0  0  0  0  0  0
  -22.0605   -2.7620   23.2812 H   0  0  0  0  0  0
  -22.4084  -11.9852   22.4798 H   0  0  0  0  0  0
  -21.1108  -13.1255   22.2621 H   0  0  0  0  0  0
  -24.6750  -15.8554   20.5156 H   0  0  0  0  0  0
  -26.3007  -15.6161   20.1172 H   0  0  0  0  0  0
  -26.7151  -32.5488   23.1111 H   0  0  0  0  0  0
  -25.0174  -33.9751   25.0497 H   0  0  0  0  0  0
  -22.7163  -31.3006   21.3947 H   0  0  0  0  0  0
  -23.3766  -35.9605   23.3293 H   0  0  0  0  0  0
  -24.3581  -36.8917   22.2055 H   0  0  0  0  0  0
  -23.7202  -37.6475   23.6653 H   0  0  0  0  0  0
  -26.0645  -31.5589   20.5862 H   0  0  0  0  0  0
  -26.8472  -30.8670   21.9776 H   0  0  0  0  0  0
  -28.1239  -29.0187   21.1797 H   0  0  0  0  0  0
  -26.0146  -25.9272   19.0199 H   0  0  0  0  0  0
  -23.9910  -27.2886   19.0216 H   0  0  0  0  0  0
  -23.7558  -30.5778   19.3992 H   0  0  0  0  0  0
  -22.7626  -29.2282   19.8612 H   0  0  0  0  0  0
  -25.1284  -36.1965   25.0822 H   0  0  0  0  0  0
  -20.9960  -28.3247   24.1401 H   0  0  0  0  0  0
  -20.5658  -26.2298   23.3603 H   0  0  0  0  0  0
  -21.6652  -26.7447   22.1199 H   0  0  0  0  0  0
  -19.6940  -25.6278   21.1248 H   0  0  0  0  0  0
  -19.6732  -27.3166   20.6707 H   0  0  0  0  0  0
  -17.4220  -26.6656   21.3994 H   0  0  0  0  0  0
  -18.0364  -26.0070   22.8992 H   0  0  0  0  0  0
  -19.7925  -30.7249   24.2293 H   0  0  0  0  0  0
  -17.5009  -31.6277   24.5137 H   0  0  0  0  0  0
  -15.5344  -30.2986   23.7669 H   0  0  0  0  0  0
  -15.8658  -28.0825   22.7061 H   0  0  0  0  0  0
  -24.6001  -30.6942   25.7726 H   0  0  0  0  0  0
  -24.8909  -32.2768   26.4881 H   0  0  0  0  0  0
  -25.8137  -30.8802   27.0178 H   0  0  0  0  0  0
  -26.2869  -29.6765   24.1187 H   0  0  0  0  0  0
  -27.4202  -29.7285   25.4498 H   0  0  0  0  0  0
  -27.8668  -30.4353   23.9152 H   0  0  0  0  0  0
  -27.2775  -33.3580   26.2048 H   0  0  0  0  0  0
  -28.3944  -32.6764   25.0297 H   0  0  0  0  0  0
  -28.0749  -31.8356   26.5382 H   0  0  0  0  0  0
  -28.2586  -38.0108   24.7540 H   0  0  0  0  0  0
  -28.1083  -36.2637   24.6262 H   0  0  0  0  0  0
  -27.2300  -37.1406   25.8869 H   0  0  0  0  0  0
  -20.9364  -29.8771   21.6881 H   0  0  0  0  0  0
  -26.0178  -38.2862   24.1443 H   0  0  0  0  0  0
  -32.1541  -19.9262   20.3609 H   0  0  0  0  0  0
  -28.1036  -19.8563   21.8090 H   0  0  0  0  0  0
  -32.0858  -17.5066   20.0066 H   0  0  0  0  0  0
  -28.0490  -17.4124   21.5014 H   0  0  0  0  0  0
  -32.0696  -23.9561   21.4797 H   0  0  0  0  0  0
  -31.7119  -23.8897   23.1850 H   0  0  0  0  0  0
  -30.2591  -25.5357   21.9981 H   0  0  0  0  0  0
  -29.3220  -24.2872   22.7883 H   0  0  0  0  0  0
  -28.8470  -22.1715   19.6816 H   0  0  0  0  0  0
  -28.2059  -22.3624   21.2912 H   0  0  0  0  0  0
  -30.1517  -24.2481   19.8596 H   0  0  0  0  0  0
  -28.0890  -16.9420   17.3553 H   0  0  0  0  0  0
  -28.6506  -18.0287   18.5985 H   0  0  0  0  0  0
  -27.4761  -16.7697   18.9884 H   0  0  0  0  0  0
  -27.3535  -24.8359   20.9339 H   0  0  0  0  0  0
  -27.8408  -24.7291   19.2599 H   0  0  0  0  0  0
  -30.4127  -16.3197   18.1767 H   0  0  0  0  0  0
  -29.2263  -15.0705   18.2913 H   0  0  0  0  0  0
  1 25  1  0  0  0
  1 30  2  0  0  0
  1 86  1  0  0  0
  2  3  1  0  0  0
  2 25  1  0  0  0
  2 88  1  0  0  0
  2 89  1  0  0  0
  3  4  1  0  0  0
  3 90  1  0  0  0
  3 91  1  0  0  0
  4  5  1  0  0  0
  4 92  1  0  0  0
  4 93  1  0  0  0
  5  6  1  0  0  0
  5 26  1  0  0  0
  5 94  1  0  0  0
  6 25  1  0  0  0
  6 95  1  0  0  0
  6 96  1  0  0  0
  7  8  2  0  0  0
  7 26  1  0  0  0
  7 29  1  0  0  0
  8  9  1  0  0  0
  8 22  1  0  0  0
  9 10  1  0  0  0
  9 27  2  0  0  0
 10 11  2  0  0  0
 10 15  1  0  0  0
 11 12  1  0  0  0
 11 97  1  0  0  0
 12 13  2  0  0  0
 12 98  1  0  0  0
 13 14  1  0  0  0
 13 31  1  0  0  0
 14 15  2  0  0  0
 14 99  1  0  0  0
 15100  1  0  0  0
 16 17  2  0  0  0
 16 21  1  0  0  0
 16 31  1  0  0  0
 17 18  1  0  0  0
 17101  1  0  0  0
 18 19  2  0  0  0
 18102  1  0  0  0
 19 20  1  0  0  0
 19 24  1  0  0  0
 20 21  2  0  0  0
 20103  1  0  0  0
 21 23  1  0  0  0
 22 28  1  0  0  0
 22 32  2  0  0  0
 26 27  1  0  0  0
 28104  1  0  0  0
 28105  1  0  0  0
 29106  1  0  0  0
 29107  1  0  0  0
 33 34  1  0  0  0
 33 66  1  0  0  0
 33 70  2  0  0  0
 34 36  1  0  0  0
 34 59  1  0  0  0
 34108  1  0  0  0
 35 44  2  0  0  0
 35 45  1  0  0  0
 35 68  1  0  0  0
 36 56  1  0  0  0
 36109  1  0  0  0
 37 39  1  0  0  0
 37 47  1  0  0  0
 37 66  1  0  0  0
 37110  1  0  0  0
 38 43  2  0  0  0
 38 46  1  0  0  0
 38 47  1  0  0  0
 39 64  1  0  0  0
 39 67  2  0  0  0
 40 52  1  0  0  0
 40 53  2  0  0  0
 40 58  1  0  0  0
 41111  1  0  0  0
 41112  1  0  0  0
 41113  1  0  0  0
 41 48  1  0  0  0
 42 43  1  0  0  0
 42 66  1  0  0  0
 42114  1  0  0  0
 42115  1  0  0  0
 43 44  1  0  0  0
 44116  1  0  0  0
 45 46  2  0  0  0
 45117  1  0  0  0
 46118  1  0  0  0
 47119  1  0  0  0
 47120  1  0  0  0
 48 56  1  0  0  0
 48 65  1  0  0  0
 48121  1  0  0  0
 49 50  1  0  0  0
 49 53  1  0  0  0
 49 64  1  0  0  0
 49122  1  0  0  0
 50 51  1  0  0  0
 50123  1  0  0  0
 50124  1  0  0  0
 51 52  1  0  0  0
 51125  1  0  0  0
 51126  1  0  0  0
 52127  1  0  0  0
 52128  1  0  0  0
 53 54  1  0  0  0
 54 55  2  0  0  0
 54129  1  0  0  0
 55 57  1  0  0  0
 55130  1  0  0  0
 56 69  2  0  0  0
 57 58  2  0  0  0
 57131  1  0  0  0
 58132  1  0  0  0
 59 60  1  0  0  0
 59 61  1  0  0  0
 59 62  1  0  0  0
 60133  1  0  0  0
 60134  1  0  0  0
 60135  1  0  0  0
 61136  1  0  0  0
 61137  1  0  0  0
 61138  1  0  0  0
 62139  1  0  0  0
 62140  1  0  0  0
 62141  1  0  0  0
 63 65  1  0  0  0
 63142  1  0  0  0
 63143  1  0  0  0
 63144  1  0  0  0
 64145  1  0  0  0
 65146  1  0  0  0
 68 83  1  0  0  0
 71 73  2  0  0  0
 71 75  1  0  0  0
 71147  1  0  0  0
 72 74  1  0  0  0
 72 75  2  0  0  0
 72148  1  0  0  0
 73 76  1  0  0  0
 73149  1  0  0  0
 74 76  2  0  0  0
 74150  1  0  0  0
 75 85  1  0  0  0
 76 86  1  0  0  0
 77 78  1  0  0  0
 77 85  1  0  0  0
 77 87  2  0  0  0
 78 79  1  0  0  0
 78151  1  0  0  0
 78152  1  0  0  0
 79 81  1  0  0  0
 79153  1  0  0  0
 79154  1  0  0  0
 80 81  1  0  0  0
 80 85  1  0  0  0
 80155  1  0  0  0
 80156  1  0  0  0
 81 83  1  0  0  0
 81157  1  0  0  0
 82 84  1  0  0  0
 82158  1  0  0  0
 82159  1  0  0  0
 82160  1  0  0  0
 83161  1  0  0  0
 83162  1  0  0  0
 84 86  1  0  0  0
 84163  1  0  0  0
 84164  1  0  0  0
M  ISO  4   1 100  68 101  83 101  86 100
M  END
> <chiral flag>
0

> <version>
0

> <s_m_source_file>
/data/baiqing/PycharmProjects/Reinvent-master-3.2/result/LINK_invent/BTK/process_docking_weight1_custom_product_contain_oxygen_bond_distance_aromatic_linkinvent_7_9_3/rearranged_h_0096.sdf

> <i_m_source_file_index>
7

> <r_mmod_Potential_Energy-OPLS-2005>
445.068511962891

> <r_mmod_Stretch_Energy-OPLS-2005>
96.3405609130859

> <r_mmod_Bend_Energy-OPLS-2005>
151.986450195312

> <r_mmod_Torsional_Energy-OPLS-2005>
401.349151611328

> <r_mmod_Improper_Torsional_Energy-OPLS-2005>
22.5196437835693

> <r_mmod_Van_der_Waal_Energy-OPLS-2005>
155.307586669922

> <r_mmod_Electrostatic_Energy-OPLS-2005>
-250.514770507812

> <r_mmod_Solvation_Energy-OPLS-2005>
-204.730392456055

> <b_mmod_Minimization_Converged-OPLS-2005>
0

> <r_mmod_RMS_Derivative-OPLS-2005>
4.06729650497437

$$$$
7
                    3D
 Structure written by MMmdl.
153161  0  0  1  0            999 V2000
  -30.6837  -14.6309   20.4765 C   0  0  0  0  0  0
  -30.4135  -12.3860   19.4638 C   0  0  0  0  0  0
  -29.4991  -12.4935   18.2264 C   0  0  0  0  0  0
  -28.0236  -12.3389   18.6397 C   0  0  0  0  0  0
  -27.6435  -13.2301   19.8533 C   0  0  2  0  0  0
  -28.6883  -13.1427   20.9879 C   0  0  0  0  0  0
  -25.2513  -13.8205   20.5698 C   0  0  0  0  0  0
  -24.1802  -13.0447   20.9204 C   0  0  0  0  0  0
  -24.6391  -11.6926   20.8749 C   0  0  0  0  0  0
  -23.9070  -10.4300   21.0408 C   0  0  0  0  0  0
  -24.3622   -9.4213   21.9184 C   0  0  0  0  0  0
  -23.6299   -8.2247   22.0753 C   0  0  0  0  0  0
  -22.4280   -8.0283   21.3545 C   0  0  0  0  0  0
  -21.9916   -9.0256   20.4645 C   0  0  0  0  0  0
  -22.7243  -10.2136   20.3055 C   0  0  0  0  0  0
  -21.6854   -6.0738   22.5281 C   0  0  0  0  0  0
  -21.4014   -6.5641   23.8213 C   0  0  0  0  0  0
  -21.3660   -5.6792   24.9175 C   0  0  0  0  0  0
  -21.6043   -4.3055   24.7223 C   0  0  0  0  0  0
  -21.8819   -3.8147   23.4344 C   0  0  0  0  0  0
  -21.9194   -4.6966   22.3402 C   0  0  0  0  0  0
  -22.7822  -13.5224   21.1862 C   0  0  0  0  0  0
  -22.1662   -4.2152   21.0980 F   0  0  0  0  0  0
  -21.5628   -3.4538   25.7735 F   0  0  0  0  0  0
  -29.9993  -13.4470   20.4052 N   0  0  0  0  0  0
  -26.2945  -12.9412   20.3304 N   0  0  0  0  0  0
  -25.9323  -11.6554   20.5769 N   0  0  0  0  0  0
  -22.0470  -12.8214   22.0418 N   0  0  0  0  0  0
  -25.4207  -15.1927   20.4109 N   0  0  0  0  0  0
  -31.8718  -14.6823   20.1512 O   0  0  0  0  0  0
  -21.6644   -6.8880   21.4242 O   0  0  0  0  0  0
  -22.3504  -14.5530   20.6709 O   0  0  0  0  0  0
  -24.6249  -31.8604   23.2034 C   0  0  0  0  0  0
  -25.9104  -32.4780   23.8360 C   0  0  1  0  0  0
  -27.2191  -27.3313   20.1242 C   0  0  0  0  0  0
  -25.5929  -33.8580   24.2291 N   0  0  0  0  0  0
  -23.4183  -30.4840   21.5449 C   0  0  2  0  0  0
  -24.8659  -28.9403   20.1105 C   0  0  0  0  0  0
  -22.7466  -29.4628   22.4934 C   0  0  0  0  0  0
  -18.0283  -28.1385   22.8484 C   0  0  0  0  0  0
  -24.1488  -36.7287   23.2636 C   0  0  0  0  0  0
  -25.9580  -30.7958   21.3726 C   0  0  0  0  0  0
  -26.0339  -29.4240   20.7158 C   0  0  0  0  0  0
  -27.2181  -28.6307   20.7127 C   0  0  0  0  0  0
  -26.0370  -26.8986   19.4882 C   0  0  0  0  0  0
  -24.8684  -27.6824   19.4868 C   0  0  0  0  0  0
  -23.6331  -29.8185   20.1599 C   0  0  0  0  0  0
  -25.4109  -36.3081   24.0335 C   0  0  1  0  0  0
  -20.5882  -28.3687   23.1284 C   0  0  2  0  0  0
  -20.6771  -26.9410   22.5411 C   0  0  0  0  0  0
  -19.5752  -26.6384   21.5209 C   0  0  0  0  0  0
  -18.1930  -26.7930   22.1617 C   0  0  0  0  0  0
  -19.1535  -28.8853   23.2880 C   0  0  0  0  0  0
  -18.9459  -30.1455   23.8898 C   0  0  0  0  0  0
  -17.6459  -30.6586   24.0565 C   0  0  0  0  0  0
  -25.9048  -34.9453   23.5110 C   0  0  0  0  0  0
  -16.5350  -29.9084   23.6333 C   0  0  0  0  0  0
  -16.7270  -28.6503   23.0351 C   0  0  0  0  0  0
  -26.4497  -31.6584   25.0723 C   0  0  0  0  0  0
  -25.3744  -31.3716   26.1459 C   0  0  0  0  0  0
  -27.0332  -30.3008   24.6166 C   0  0  0  0  0  0
  -27.6061  -32.4319   25.7488 C   0  0  0  0  0  0
  -27.5588  -37.1784   24.8456 C   0  0  0  0  0  0
  -21.4181  -29.3042   22.3679 N   0  0  0  0  0  0
  -26.4280  -37.3783   23.9430 N   0  0  0  0  0  0
  -24.6857  -31.0630   22.0975 N   0  0  0  0  0  0
  -23.4195  -28.8168   23.3010 O   0  0  0  0  0  0
  -28.3116  -26.4613   20.1592 O   0  0  0  0  0  0
  -26.5609  -34.8920   22.4671 O   0  0  0  0  0  0
  -23.5416  -32.1394   23.7374 O   0  0  0  0  0  0
  -30.4881  -19.5807   19.6928 C   0  0  0  0  0  0
  -30.0208  -20.9250   19.7453 C   0  0  0  0  0  0
  -28.8508  -18.9025   21.3196 C   0  0  0  0  0  0
  -29.9364  -18.5359   20.4862 C   0  0  0  0  0  0
  -28.9623  -21.3026   20.6080 C   0  0  0  0  0  0
  -28.3739  -20.2510   21.3731 C   0  0  0  0  0  0
  -28.7619  -23.8792   20.2214 C   0  0  0  0  0  0
  -30.6618  -17.1410   20.5022 C   0  0  0  0  0  0
  -28.0583  -25.1604   20.8214 C   0  0  0  0  0  0
  -27.3072  -20.5516   22.2214 N   0  0  0  0  0  0
  -28.4839  -22.6711   20.8091 N   0  0  0  0  0  0
  -29.9979  -15.8024   20.6843 N   0  0  0  0  0  0
  -29.5198  -23.9943   19.2541 O   0  0  0  0  0  0
  -31.4600  -12.4691   19.1657 H   0  0  0  0  0  0
  -30.3162  -11.4052   19.9321 H   0  0  0  0  0  0
  -29.7639  -11.7314   17.4921 H   0  0  0  0  0  0
  -29.6476  -13.4573   17.7365 H   0  0  0  0  0  0
  -27.8623  -11.2892   18.8872 H   0  0  0  0  0  0
  -27.3691  -12.5537   17.7942 H   0  0  0  0  0  0
  -27.6471  -14.2564   19.4860 H   0  0  0  0  0  0
  -28.6958  -12.1480   21.4355 H   0  0  0  0  0  0
  -28.4448  -13.8392   21.7918 H   0  0  0  0  0  0
  -25.2767   -9.5692   22.4760 H   0  0  0  0  0  0
  -24.0009   -7.4638   22.7474 H   0  0  0  0  0  0
  -21.0846   -8.8772   19.8951 H   0  0  0  0  0  0
  -22.3700  -10.9673   19.6163 H   0  0  0  0  0  0
  -21.2005   -7.6150   23.9718 H   0  0  0  0  0  0
  -21.1480   -6.0521   25.9077 H   0  0  0  0  0  0
  -22.0597   -2.7610   23.2842 H   0  0  0  0  0  0
  -22.4086  -11.9868   22.4796 H   0  0  0  0  0  0
  -21.1090  -13.1240   22.2634 H   0  0  0  0  0  0
  -24.6526  -15.8463   20.5172 H   0  0  0  0  0  0
  -26.2686  -15.6320   20.0762 H   0  0  0  0  0  0
  -26.7173  -32.5458   23.1112 H   0  0  0  0  0  0
  -25.0109  -33.9729   25.0458 H   0  0  0  0  0  0
  -22.7118  -31.3042   21.4019 H   0  0  0  0  0  0
  -23.3764  -35.9603   23.3264 H   0  0  0  0  0  0
  -24.3596  -36.8937   22.2058 H   0  0  0  0  0  0
  -23.7218  -37.6471   23.6674 H   0  0  0  0  0  0
  -26.0882  -31.5598   20.6050 H   0  0  0  0  0  0
  -26.8391  -30.8446   22.0007 H   0  0  0  0  0  0
  -28.1146  -28.9935   21.1963 H   0  0  0  0  0  0
  -26.0095  -25.9320   19.0051 H   0  0  0  0  0  0
  -23.9744  -27.3072   19.0078 H   0  0  0  0  0  0
  -23.7516  -30.5950   19.4034 H   0  0  0  0  0  0
  -22.7539  -29.2467   19.8574 H   0  0  0  0  0  0
  -25.1282  -36.1924   25.0825 H   0  0  0  0  0  0
  -20.9976  -28.3260   24.1404 H   0  0  0  0  0  0
  -20.5667  -26.2296   23.3608 H   0  0  0  0  0  0
  -21.6641  -26.7438   22.1207 H   0  0  0  0  0  0
  -19.6911  -25.6293   21.1240 H   0  0  0  0  0  0
  -19.6694  -27.3193   20.6738 H   0  0  0  0  0  0
  -17.4201  -26.6681   21.4018 H   0  0  0  0  0  0
  -18.0326  -26.0069   22.9010 H   0  0  0  0  0  0
  -19.7936  -30.7271   24.2265 H   0  0  0  0  0  0
  -17.5014  -31.6268   24.5163 H   0  0  0  0  0  0
  -15.5350  -30.2986   23.7662 H   0  0  0  0  0  0
  -15.8668  -28.0823   22.7068 H   0  0  0  0  0  0
  -24.5932  -30.7041   25.7803 H   0  0  0  0  0  0
  -24.8919  -32.2875   26.4881 H   0  0  0  0  0  0
  -25.8088  -30.8912   27.0235 H   0  0  0  0  0  0
  -26.2893  -29.6761   24.1206 H   0  0  0  0  0  0
  -27.4045  -29.7262   25.4661 H   0  0  0  0  0  0
  -27.8760  -30.4289   23.9370 H   0  0  0  0  0  0
  -27.2675  -33.3622   26.2060 H   0  0  0  0  0  0
  -28.3872  -32.6873   25.0315 H   0  0  0  0  0  0
  -28.0729  -31.8448   26.5407 H   0  0  0  0  0  0
  -28.2558  -38.0128   24.7572 H   0  0  0  0  0  0
  -28.1130  -36.2665   24.6183 H   0  0  0  0  0  0
  -27.2325  -37.1308   25.8860 H   0  0  0  0  0  0
  -20.9353  -29.8768   21.6895 H   0  0  0  0  0  0
  -26.0156  -38.2845   24.1480 H   0  0  0  0  0  0
  -31.3304  -19.3633   19.0503 H   0  0  0  0  0  0
  -30.5169  -21.6667   19.1368 H   0  0  0  0  0  0
  -28.4077  -18.1471   21.9534 H   0  0  0  0  0  0
  -31.4293  -17.2145   21.2748 H   0  0  0  0  0  0
  -31.2157  -17.0877   19.5627 H   0  0  0  0  0  0
  -28.3994  -25.2603   21.8522 H   0  0  0  0  0  0
  -26.9932  -24.9381   20.8935 H   0  0  0  0  0  0
  -26.8224  -19.7563   22.6237 H   0  0  0  0  0  0
  -26.6393  -21.2314   21.8756 H   0  0  0  0  0  0
  -27.8340  -22.7359   21.5801 H   0  0  0  0  0  0
  -29.0110  -15.7672   20.8873 H   0  0  0  0  0  0
  1 25  1  0  0  0
  1 30  2  0  0  0
  1 82  1  0  0  0
  2  3  1  0  0  0
  2 25  1  0  0  0
  2 84  1  0  0  0
  2 85  1  0  0  0
  3  4  1  0  0  0
  3 86  1  0  0  0
  3 87  1  0  0  0
  4  5  1  0  0  0
  4 88  1  0  0  0
  4 89  1  0  0  0
  5  6  1  0  0  0
  5 26  1  0  0  0
  5 90  1  0  0  0
  6 25  1  0  0  0
  6 91  1  0  0  0
  6 92  1  0  0  0
  7  8  2  0  0  0
  7 26  1  0  0  0
  7 29  1  0  0  0
  8  9  1  0  0  0
  8 22  1  0  0  0
  9 10  1  0  0  0
  9 27  2  0  0  0
 10 11  2  0  0  0
 10 15  1  0  0  0
 11 12  1  0  0  0
 11 93  1  0  0  0
 12 13  2  0  0  0
 12 94  1  0  0  0
 13 14  1  0  0  0
 13 31  1  0  0  0
 14 15  2  0  0  0
 14 95  1  0  0  0
 15 96  1  0  0  0
 16 17  2  0  0  0
 16 21  1  0  0  0
 16 31  1  0  0  0
 17 18  1  0  0  0
 17 97  1  0  0  0
 18 19  2  0  0  0
 18 98  1  0  0  0
 19 20  1  0  0  0
 19 24  1  0  0  0
 20 21  2  0  0  0
 20 99  1  0  0  0
 21 23  1  0  0  0
 22 28  1  0  0  0
 22 32  2  0  0  0
 26 27  1  0  0  0
 28100  1  0  0  0
 28101  1  0  0  0
 29102  1  0  0  0
 29103  1  0  0  0
 33 34  1  0  0  0
 33 66  1  0  0  0
 33 70  2  0  0  0
 34 36  1  0  0  0
 34 59  1  0  0  0
 34104  1  0  0  0
 35 44  2  0  0  0
 35 45  1  0  0  0
 35 68  1  0  0  0
 36 56  1  0  0  0
 36105  1  0  0  0
 37 39  1  0  0  0
 37 47  1  0  0  0
 37 66  1  0  0  0
 37106  1  0  0  0
 38 43  2  0  0  0
 38 46  1  0  0  0
 38 47  1  0  0  0
 39 64  1  0  0  0
 39 67  2  0  0  0
 40 52  1  0  0  0
 40 53  2  0  0  0
 40 58  1  0  0  0
 41107  1  0  0  0
 41108  1  0  0  0
 41109  1  0  0  0
 41 48  1  0  0  0
 42 43  1  0  0  0
 42 66  1  0  0  0
 42110  1  0  0  0
 42111  1  0  0  0
 43 44  1  0  0  0
 44112  1  0  0  0
 45 46  2  0  0  0
 45113  1  0  0  0
 46114  1  0  0  0
 47115  1  0  0  0
 47116  1  0  0  0
 48 56  1  0  0  0
 48 65  1  0  0  0
 48117  1  0  0  0
 49 50  1  0  0  0
 49 53  1  0  0  0
 49 64  1  0  0  0
 49118  1  0  0  0
 50 51  1  0  0  0
 50119  1  0  0  0
 50120  1  0  0  0
 51 52  1  0  0  0
 51121  1  0  0  0
 51122  1  0  0  0
 52123  1  0  0  0
 52124  1  0  0  0
 53 54  1  0  0  0
 54 55  2  0  0  0
 54125  1  0  0  0
 55 57  1  0  0  0
 55126  1  0  0  0
 56 69  2  0  0  0
 57 58  2  0  0  0
 57127  1  0  0  0
 58128  1  0  0  0
 59 60  1  0  0  0
 59 61  1  0  0  0
 59 62  1  0  0  0
 60129  1  0  0  0
 60130  1  0  0  0
 60131  1  0  0  0
 61132  1  0  0  0
 61133  1  0  0  0
 61134  1  0  0  0
 62135  1  0  0  0
 62136  1  0  0  0
 62137  1  0  0  0
 63 65  1  0  0  0
 63138  1  0  0  0
 63139  1  0  0  0
 63140  1  0  0  0
 64141  1  0  0  0
 65142  1  0  0  0
 68 79  1  0  0  0
 71 72  2  0  0  0
 71 74  1  0  0  0
 71143  1  0  0  0
 72 75  1  0  0  0
 72144  1  0  0  0
 73 74  2  0  0  0
 73 76  1  0  0  0
 73145  1  0  0  0
 74 78  1  0  0  0
 75 76  2  0  0  0
 75 81  1  0  0  0
 76 80  1  0  0  0
 77 79  1  0  0  0
 77 81  1  0  0  0
 77 83  2  0  0  0
 78 82  1  0  0  0
 78146  1  0  0  0
 78147  1  0  0  0
 79148  1  0  0  0
 79149  1  0  0  0
 80150  1  0  0  0
 80151  1  0  0  0
 81152  1  0  0  0
 82153  1  0  0  0
M  ISO  4   1 100  68 101  79 101  82 100
M  END
> <chiral flag>
0

> <version>
0

> <s_m_source_file>
/data/baiqing/PycharmProjects/Reinvent-master-3.2/result/LINK_invent/BTK/process_docking_weight1_custom_product_contain_oxygen_bond_distance_aromatic_linkinvent_7_9_3/rearranged_h_0096.sdf

> <i_m_source_file_index>
8

> <r_mmod_Potential_Energy-OPLS-2005>
-94.9064559936523

> <r_mmod_Stretch_Energy-OPLS-2005>
74.1012344360352

> <r_mmod_Bend_Energy-OPLS-2005>
149.701812744141

> <r_mmod_Torsional_Energy-OPLS-2005>
237.217193603516

> <r_mmod_Improper_Torsional_Energy-OPLS-2005>
10.4725093841553

> <r_mmod_Van_der_Waal_Energy-OPLS-2005>
148.210266113281

> <r_mmod_Electrostatic_Energy-OPLS-2005>
-516.391540527344

> <r_mmod_Solvation_Energy-OPLS-2005>
-249.173492431641

> <b_mmod_Minimization_Converged-OPLS-2005>
0

> <r_mmod_RMS_Derivative-OPLS-2005>
0.38193815946579

$$$$
8
                    3D
 Structure written by MMmdl.
161170  0  0  1  0            999 V2000
  -30.6482  -14.6155   20.5130 C   0  0  0  0  0  0
  -30.4420  -12.4027   19.4197 C   0  0  0  0  0  0
  -29.5071  -12.5543   18.2008 C   0  0  0  0  0  0
  -28.0326  -12.3872   18.6129 C   0  0  0  0  0  0
  -27.6605  -13.2157   19.8709 C   0  0  2  0  0  0
  -28.7149  -13.0483   20.9905 C   0  0  0  0  0  0
  -25.2549  -13.8124   20.5649 C   0  0  0  0  0  0
  -24.1785  -13.0421   20.9109 C   0  0  0  0  0  0
  -24.6350  -11.6901   20.8647 C   0  0  0  0  0  0
  -23.9035  -10.4306   21.0306 C   0  0  0  0  0  0
  -24.3566   -9.4235   21.9098 C   0  0  0  0  0  0
  -23.6246   -8.2276   22.0717 C   0  0  0  0  0  0
  -22.4212   -8.0298   21.3540 C   0  0  0  0  0  0
  -21.9826   -9.0266   20.4629 C   0  0  0  0  0  0
  -22.7196  -10.2124   20.2993 C   0  0  0  0  0  0
  -21.6885   -6.0680   22.5250 C   0  0  0  0  0  0
  -21.4038   -6.5563   23.8180 C   0  0  0  0  0  0
  -21.3679   -5.6731   24.9147 C   0  0  0  0  0  0
  -21.6052   -4.2998   24.7189 C   0  0  0  0  0  0
  -21.8837   -3.8090   23.4320 C   0  0  0  0  0  0
  -21.9211   -4.6918   22.3380 C   0  0  0  0  0  0
  -22.7827  -13.5268   21.1790 C   0  0  0  0  0  0
  -22.1671   -4.2118   21.0955 F   0  0  0  0  0  0
  -21.5639   -3.4472   25.7704 F   0  0  0  0  0  0
  -30.0325  -13.3971   20.4329 N   0  0  0  0  0  0
  -26.3021  -12.9300   20.3336 N   0  0  0  0  0  0
  -25.9269  -11.6454   20.5649 N   0  0  0  0  0  0
  -22.0431  -12.8334   22.0356 N   0  0  0  0  0  0
  -25.4179  -15.1876   20.4096 N   0  0  0  0  0  0
  -31.7979  -14.7820   20.0921 O   0  0  0  0  0  0
  -21.6638   -6.8848   21.4224 O   0  0  0  0  0  0
  -22.3565  -14.5602   20.6681 O   0  0  0  0  0  0
  -24.6216  -31.8602   23.1980 C   0  0  0  0  0  0
  -25.9077  -32.4788   23.8306 C   0  0  1  0  0  0
  -27.2325  -27.3260   20.1122 C   0  0  0  0  0  0
  -25.5893  -33.8577   24.2251 N   0  0  0  0  0  0
  -23.4132  -30.4766   21.5434 C   0  0  2  0  0  0
  -24.8644  -28.9373   20.1022 C   0  0  0  0  0  0
  -22.7445  -29.4579   22.4945 C   0  0  0  0  0  0
  -18.0284  -28.1389   22.8476 C   0  0  0  0  0  0
  -24.1455  -36.7239   23.2630 C   0  0  0  0  0  0
  -25.9532  -30.7906   21.3693 C   0  0  0  0  0  0
  -26.0300  -29.4196   20.7110 C   0  0  0  0  0  0
  -27.2108  -28.6197   20.7127 C   0  0  0  0  0  0
  -26.0425  -26.8883   19.5013 C   0  0  0  0  0  0
  -24.8749  -27.6731   19.4897 C   0  0  0  0  0  0
  -23.6263  -29.8083   20.1577 C   0  0  0  0  0  0
  -25.4066  -36.3081   24.0356 C   0  0  1  0  0  0
  -20.5883  -28.3651   23.1303 C   0  0  2  0  0  0
  -20.6736  -26.9360   22.5432 C   0  0  0  0  0  0
  -19.5718  -26.6370   21.5197 C   0  0  0  0  0  0
  -18.1901  -26.7924   22.1615 C   0  0  0  0  0  0
  -19.1538  -28.8837   23.2893 C   0  0  0  0  0  0
  -18.9468  -30.1431   23.8907 C   0  0  0  0  0  0
  -17.6470  -30.6574   24.0570 C   0  0  0  0  0  0
  -25.9039  -34.9473   23.5117 C   0  0  0  0  0  0
  -16.5353  -29.9075   23.6336 C   0  0  0  0  0  0
  -16.7268  -28.6506   23.0325 C   0  0  0  0  0  0
  -26.4486  -31.6577   25.0660 C   0  0  0  0  0  0
  -25.3726  -31.3724   26.1390 C   0  0  0  0  0  0
  -27.0313  -30.3003   24.6054 C   0  0  0  0  0  0
  -27.6050  -32.4316   25.7418 C   0  0  0  0  0  0
  -27.5621  -37.1684   24.8413 C   0  0  0  0  0  0
  -21.4155  -29.2997   22.3701 N   0  0  0  0  0  0
  -26.4224  -37.3817   23.9533 N   0  0  0  0  0  0
  -24.6812  -31.0594   22.0930 N   0  0  0  0  0  0
  -23.4175  -28.8121   23.3035 O   0  0  0  0  0  0
  -28.3710  -26.5136   20.2257 O   0  0  0  0  0  0
  -26.5608  -34.8965   22.4682 O   0  0  0  0  0  0
  -23.5379  -32.1453   23.7281 O   0  0  0  0  0  0
  -29.3485  -18.7674   18.7753 C   0  0  0  0  0  0
  -29.7359  -18.1341   21.4395 C   0  0  0  0  0  0
  -29.6252  -17.4197   19.1442 C   0  0  0  0  0  0
  -29.1367  -19.8419   19.7030 C   0  0  0  0  0  0
  -29.8162  -17.0568   20.5080 C   0  0  0  0  0  0
  -29.4046  -19.4800   21.0602 C   0  0  0  0  0  0
  -27.5816  -21.1829   18.3228 C   0  0  0  0  0  0
  -26.4936  -22.2390   18.4552 C   0  0  0  0  0  0
  -27.2035  -23.5767   18.2853 C   0  0  0  0  0  0
  -28.9587  -22.5503   19.8428 C   0  0  0  0  0  0
  -28.0006  -23.8506   19.5738 C   0  0  1  0  0  0
  -29.5992  -16.3685   18.0445 C   0  0  0  0  0  0
  -28.6809  -25.2979   19.4423 C   0  0  0  0  0  0
  -28.5497  -21.1623   19.2961 N   0  0  0  0  0  0
  -29.8896  -15.6620   20.9572 N   0  0  0  0  0  0
  -27.5800  -20.5078   17.2804 O   0  0  0  0  0  0
  -29.2708  -20.4013   22.0431 F   0  0  0  0  0  0
  -31.4752  -12.5394   19.0974 H   0  0  0  0  0  0
  -30.3882  -11.3926   19.8283 H   0  0  0  0  0  0
  -29.7657  -11.8453   17.4135 H   0  0  0  0  0  0
  -29.6422  -13.5410   17.7564 H   0  0  0  0  0  0
  -27.8576  -11.3260   18.8002 H   0  0  0  0  0  0
  -27.3911  -12.6665   17.7786 H   0  0  0  0  0  0
  -27.6817  -14.2616   19.5659 H   0  0  0  0  0  0
  -28.7296  -12.0207   21.3542 H   0  0  0  0  0  0
  -28.4649  -13.6619   21.8593 H   0  0  0  0  0  0
  -25.2688   -9.5715   22.4672 H   0  0  0  0  0  0
  -23.9975   -7.4649   22.7400 H   0  0  0  0  0  0
  -21.0767   -8.8782   19.8904 H   0  0  0  0  0  0
  -22.3644  -10.9633   19.6091 H   0  0  0  0  0  0
  -21.2016   -7.6064   23.9684 H   0  0  0  0  0  0
  -21.1478   -6.0427   25.9061 H   0  0  0  0  0  0
  -22.0590   -2.7543   23.2822 H   0  0  0  0  0  0
  -22.4018  -12.0112   22.4958 H   0  0  0  0  0  0
  -21.1003  -13.1366   22.2374 H   0  0  0  0  0  0
  -24.6367  -15.8205   20.5423 H   0  0  0  0  0  0
  -26.2714  -15.6593   20.1469 H   0  0  0  0  0  0
  -26.7139  -32.5451   23.1054 H   0  0  0  0  0  0
  -24.9991  -33.9692   25.0366 H   0  0  0  0  0  0
  -22.7047  -31.2940   21.3978 H   0  0  0  0  0  0
  -23.3833  -35.9446   23.3133 H   0  0  0  0  0  0
  -24.3630  -36.8994   22.2086 H   0  0  0  0  0  0
  -23.7035  -37.6326   23.6714 H   0  0  0  0  0  0
  -26.0833  -31.5539   20.6016 H   0  0  0  0  0  0
  -26.8355  -30.8432   21.9942 H   0  0  0  0  0  0
  -28.1010  -28.9726   21.2162 H   0  0  0  0  0  0
  -25.9682  -25.9055   19.0893 H   0  0  0  0  0  0
  -23.9772  -27.2847   19.0298 H   0  0  0  0  0  0
  -23.7301  -30.5839   19.3992 H   0  0  0  0  0  0
  -22.7505  -29.2283   19.8583 H   0  0  0  0  0  0
  -25.1205  -36.1924   25.0839 H   0  0  0  0  0  0
  -20.9953  -28.3251   24.1431 H   0  0  0  0  0  0
  -20.5574  -26.2229   23.3621 H   0  0  0  0  0  0
  -21.6611  -26.7351   22.1262 H   0  0  0  0  0  0
  -19.6841  -25.6290   21.1171 H   0  0  0  0  0  0
  -19.6655  -27.3220   20.6758 H   0  0  0  0  0  0
  -17.4143  -26.6683   21.4046 H   0  0  0  0  0  0
  -18.0315  -26.0092   22.9034 H   0  0  0  0  0  0
  -19.7952  -30.7244   24.2281 H   0  0  0  0  0  0
  -17.5033  -31.6258   24.5160 H   0  0  0  0  0  0
  -15.5359  -30.2964   23.7657 H   0  0  0  0  0  0
  -15.8671  -28.0810   22.7020 H   0  0  0  0  0  0
  -24.5871  -30.7095   25.7743 H   0  0  0  0  0  0
  -24.8943  -32.2885   26.4852 H   0  0  0  0  0  0
  -25.8056  -30.8878   27.0146 H   0  0  0  0  0  0
  -26.2842  -29.6759   24.1117 H   0  0  0  0  0  0
  -27.4109  -29.7242   25.4511 H   0  0  0  0  0  0
  -27.8687  -30.4320   23.9194 H   0  0  0  0  0  0
  -27.2665  -33.3622   26.1987 H   0  0  0  0  0  0
  -28.3851  -32.6858   25.0231 H   0  0  0  0  0  0
  -28.0720  -31.8442   26.5336 H   0  0  0  0  0  0
  -28.2384  -38.0223   24.7931 H   0  0  0  0  0  0
  -28.1363  -36.2838   24.5626 H   0  0  0  0  0  0
  -27.2460  -37.0615   25.8801 H   0  0  0  0  0  0
  -20.9285  -29.8785   21.6998 H   0  0  0  0  0  0
  -26.0108  -38.2824   24.1811 H   0  0  0  0  0  0
  -29.2601  -18.9253   17.7098 H   0  0  0  0  0  0
  -29.8652  -17.9255   22.4942 H   0  0  0  0  0  0
  -25.9918  -22.1590   19.4281 H   0  0  0  0  0  0
  -25.7127  -22.0825   17.7054 H   0  0  0  0  0  0
  -26.4975  -24.3513   18.0025 H   0  0  0  0  0  0
  -27.9008  -23.5428   17.4407 H   0  0  0  0  0  0
  -29.2320  -22.5285   20.9050 H   0  0  0  0  0  0
  -29.9040  -22.7627   19.3335 H   0  0  0  0  0  0
  -27.2772  -23.9138   20.3916 H   0  0  0  0  0  0
  -29.4373  -16.8032   17.0587 H   0  0  0  0  0  0
  -28.7900  -15.6582   18.2125 H   0  0  0  0  0  0
  -30.5374  -15.8225   17.9859 H   0  0  0  0  0  0
  -28.7052  -25.5994   18.3939 H   0  0  0  0  0  0
  -29.7317  -25.1282   19.6782 H   0  0  0  0  0  0
  -29.0906  -15.3555   21.4951 H   0  0  0  0  0  0
  1 25  1  0  0  0
  1 30  2  0  0  0
  1 85  1  0  0  0
  2  3  1  0  0  0
  2 25  1  0  0  0
  2 88  1  0  0  0
  2 89  1  0  0  0
  3  4  1  0  0  0
  3 90  1  0  0  0
  3 91  1  0  0  0
  4  5  1  0  0  0
  4 92  1  0  0  0
  4 93  1  0  0  0
  5  6  1  0  0  0
  5 26  1  0  0  0
  5 94  1  0  0  0
  6 25  1  0  0  0
  6 95  1  0  0  0
  6 96  1  0  0  0
  7  8  2  0  0  0
  7 26  1  0  0  0
  7 29  1  0  0  0
  8  9  1  0  0  0
  8 22  1  0  0  0
  9 10  1  0  0  0
  9 27  2  0  0  0
 10 11  2  0  0  0
 10 15  1  0  0  0
 11 12  1  0  0  0
 11 97  1  0  0  0
 12 13  2  0  0  0
 12 98  1  0  0  0
 13 14  1  0  0  0
 13 31  1  0  0  0
 14 15  2  0  0  0
 14 99  1  0  0  0
 15100  1  0  0  0
 16 17  2  0  0  0
 16 21  1  0  0  0
 16 31  1  0  0  0
 17 18  1  0  0  0
 17101  1  0  0  0
 18 19  2  0  0  0
 18102  1  0  0  0
 19 20  1  0  0  0
 19 24  1  0  0  0
 20 21  2  0  0  0
 20103  1  0  0  0
 21 23  1  0  0  0
 22 28  1  0  0  0
 22 32  2  0  0  0
 26 27  1  0  0  0
 28104  1  0  0  0
 28105  1  0  0  0
 29106  1  0  0  0
 29107  1  0  0  0
 33 34  1  0  0  0
 33 66  1  0  0  0
 33 70  2  0  0  0
 34 36  1  0  0  0
 34 59  1  0  0  0
 34108  1  0  0  0
 35 44  2  0  0  0
 35 45  1  0  0  0
 35 68  1  0  0  0
 36 56  1  0  0  0
 36109  1  0  0  0
 37 39  1  0  0  0
 37 47  1  0  0  0
 37 66  1  0  0  0
 37110  1  0  0  0
 38 43  2  0  0  0
 38 46  1  0  0  0
 38 47  1  0  0  0
 39 64  1  0  0  0
 39 67  2  0  0  0
 40 52  1  0  0  0
 40 53  2  0  0  0
 40 58  1  0  0  0
 41111  1  0  0  0
 41112  1  0  0  0
 41113  1  0  0  0
 41 48  1  0  0  0
 42 43  1  0  0  0
 42 66  1  0  0  0
 42114  1  0  0  0
 42115  1  0  0  0
 43 44  1  0  0  0
 44116  1  0  0  0
 45 46  2  0  0  0
 45117  1  0  0  0
 46118  1  0  0  0
 47119  1  0  0  0
 47120  1  0  0  0
 48 56  1  0  0  0
 48 65  1  0  0  0
 48121  1  0  0  0
 49 50  1  0  0  0
 49 53  1  0  0  0
 49 64  1  0  0  0
 49122  1  0  0  0
 50 51  1  0  0  0
 50123  1  0  0  0
 50124  1  0  0  0
 51 52  1  0  0  0
 51125  1  0  0  0
 51126  1  0  0  0
 52127  1  0  0  0
 52128  1  0  0  0
 53 54  1  0  0  0
 54 55  2  0  0  0
 54129  1  0  0  0
 55 57  1  0  0  0
 55130  1  0  0  0
 56 69  2  0  0  0
 57 58  2  0  0  0
 57131  1  0  0  0
 58132  1  0  0  0
 59 60  1  0  0  0
 59 61  1  0  0  0
 59 62  1  0  0  0
 60133  1  0  0  0
 60134  1  0  0  0
 60135  1  0  0  0
 61136  1  0  0  0
 61137  1  0  0  0
 61138  1  0  0  0
 62139  1  0  0  0
 62140  1  0  0  0
 62141  1  0  0  0
 63 65  1  0  0  0
 63142  1  0  0  0
 63143  1  0  0  0
 63144  1  0  0  0
 64145  1  0  0  0
 65146  1  0  0  0
 68 83  1  0  0  0
 71 73  2  0  0  0
 71 74  1  0  0  0
 71147  1  0  0  0
 72 75  2  0  0  0
 72 76  1  0  0  0
 72148  1  0  0  0
 73 75  1  0  0  0
 73 82  1  0  0  0
 74 76  2  0  0  0
 74 84  1  0  0  0
 75 85  1  0  0  0
 76 87  1  0  0  0
 77 78  1  0  0  0
 77 84  1  0  0  0
 77 86  2  0  0  0
 78 79  1  0  0  0
 78149  1  0  0  0
 78150  1  0  0  0
 79 81  1  0  0  0
 79151  1  0  0  0
 79152  1  0  0  0
 80 81  1  0  0  0
 80 84  1  0  0  0
 80153  1  0  0  0
 80154  1  0  0  0
 81 83  1  0  0  0
 81155  1  0  0  0
 82156  1  0  0  0
 82157  1  0  0  0
 82158  1  0  0  0
 83159  1  0  0  0
 83160  1  0  0  0
 85161  1  0  0  0
M  ISO  4   1 100  68 101  83 101  85 100
M  END
> <chiral flag>
0

> <version>
0

> <s_m_source_file>
/data/baiqing/PycharmProjects/Reinvent-master-3.2/result/LINK_invent/BTK/process_docking_weight1_custom_product_contain_oxygen_bond_distance_aromatic_linkinvent_7_9_3/rearranged_h_0096.sdf

> <i_m_source_file_index>
9

> <r_mmod_Potential_Energy-OPLS-2005>
264.710296630859

> <r_mmod_Stretch_Energy-OPLS-2005>
113.228088378906

> <r_mmod_Bend_Energy-OPLS-2005>
195.538238525391

> <r_mmod_Torsional_Energy-OPLS-2005>
337.965240478516

> <r_mmod_Improper_Torsional_Energy-OPLS-2005>
7.54219245910645

> <r_mmod_Van_der_Waal_Energy-OPLS-2005>
160.750366210938

> <r_mmod_Electrostatic_Energy-OPLS-2005>
-378.034393310547

> <r_mmod_Solvation_Energy-OPLS-2005>
-215.851913452148

> <b_mmod_Minimization_Converged-OPLS-2005>
0

> <r_mmod_RMS_Derivative-OPLS-2005>
8.9243049621582

$$$$
9
                    3D
 Structure written by MMmdl.
167175  0  0  1  0            999 V2000
  -30.7527  -14.3548   20.7000 C   0  0  0  0  0  0
  -30.4208  -12.2897   19.3759 C   0  0  0  0  0  0
  -29.4803  -12.5312   18.1801 C   0  0  0  0  0  0
  -28.0047  -12.3850   18.6004 C   0  0  0  0  0  0
  -27.6694  -13.1957   19.8801 C   0  0  2  0  0  0
  -28.7114  -12.9171   20.9862 C   0  0  0  0  0  0
  -25.2631  -13.8138   20.5669 C   0  0  0  0  0  0
  -24.1861  -13.0436   20.9168 C   0  0  0  0  0  0
  -24.6394  -11.6899   20.8725 C   0  0  0  0  0  0
  -23.9050  -10.4294   21.0403 C   0  0  0  0  0  0
  -24.3609   -9.4215   21.9185 C   0  0  0  0  0  0
  -23.6295   -8.2243   22.0754 C   0  0  0  0  0  0
  -22.4275   -8.0278   21.3543 C   0  0  0  0  0  0
  -21.9906   -9.0250   20.4642 C   0  0  0  0  0  0
  -22.7226  -10.2133   20.3055 C   0  0  0  0  0  0
  -21.6847   -6.0739   22.5285 C   0  0  0  0  0  0
  -21.4005   -6.5646   23.8219 C   0  0  0  0  0  0
  -21.3654   -5.6798   24.9181 C   0  0  0  0  0  0
  -21.6045   -4.3064   24.7232 C   0  0  0  0  0  0
  -21.8820   -3.8153   23.4353 C   0  0  0  0  0  0
  -21.9193   -4.6967   22.3409 C   0  0  0  0  0  0
  -22.7885  -13.5246   21.1844 C   0  0  0  0  0  0
  -22.1661   -4.2162   21.0983 F   0  0  0  0  0  0
  -21.5637   -3.4547   25.7747 F   0  0  0  0  0  0
  -30.0473  -13.2224   20.4471 N   0  0  0  0  0  0
  -26.3069  -12.9287   20.3389 N   0  0  0  0  0  0
  -25.9321  -11.6455   20.5762 N   0  0  0  0  0  0
  -22.0506  -12.8240   22.0386 N   0  0  0  0  0  0
  -25.4399  -15.1848   20.4066 N   0  0  0  0  0  0
  -31.7913  -14.6197   20.0811 O   0  0  0  0  0  0
  -21.6635   -6.8880   21.4247 O   0  0  0  0  0  0
  -22.3585  -14.5564   20.6709 O   0  0  0  0  0  0
  -24.6079  -31.8716   23.2130 C   0  0  0  0  0  0
  -25.9006  -32.4849   23.8404 C   0  0  1  0  0  0
  -27.2611  -27.4949   20.0917 C   0  0  0  0  0  0
  -25.5890  -33.8646   24.2335 N   0  0  0  0  0  0
  -23.3922  -30.4924   21.5519 C   0  0  2  0  0  0
  -24.8437  -28.9612   20.1188 C   0  0  0  0  0  0
  -22.7362  -29.4670   22.5022 C   0  0  0  0  0  0
  -18.0259  -28.1363   22.8496 C   0  0  0  0  0  0
  -24.1481  -36.7317   23.2637 C   0  0  0  0  0  0
  -25.9113  -30.8594   21.3535 C   0  0  0  0  0  0
  -25.9958  -29.4953   20.7064 C   0  0  0  0  0  0
  -27.2034  -28.7740   20.6941 C   0  0  0  0  0  0
  -26.0893  -26.9611   19.5164 C   0  0  0  0  0  0
  -24.8809  -27.6871   19.5237 C   0  0  0  0  0  0
  -23.5986  -29.8173   20.1678 C   0  0  0  0  0  0
  -25.4106  -36.3133   24.0338 C   0  0  1  0  0  0
  -20.5841  -28.3641   23.1346 C   0  0  2  0  0  0
  -20.6750  -26.9383   22.5434 C   0  0  0  0  0  0
  -19.5748  -26.6378   21.5213 C   0  0  0  0  0  0
  -18.1915  -26.7920   22.1600 C   0  0  0  0  0  0
  -19.1504  -28.8817   23.2919 C   0  0  0  0  0  0
  -18.9442  -30.1427   23.8928 C   0  0  0  0  0  0
  -17.6449  -30.6580   24.0568 C   0  0  0  0  0  0
  -25.9036  -34.9495   23.5129 C   0  0  0  0  0  0
  -16.5341  -29.9088   23.6321 C   0  0  0  0  0  0
  -16.7251  -28.6502   23.0342 C   0  0  0  0  0  0
  -26.4471  -31.6615   25.0706 C   0  0  0  0  0  0
  -25.3762  -31.3694   26.1469 C   0  0  0  0  0  0
  -27.0280  -30.3065   24.6033 C   0  0  0  0  0  0
  -27.6050  -32.4325   25.7477 C   0  0  0  0  0  0
  -27.5580  -37.1818   24.8463 C   0  0  0  0  0  0
  -21.4100  -29.3009   22.3753 N   0  0  0  0  0  0
  -26.4292  -37.3816   23.9410 N   0  0  0  0  0  0
  -24.6548  -31.0872   22.0991 N   0  0  0  0  0  0
  -23.4159  -28.8233   23.3058 O   0  0  0  0  0  0
  -28.4016  -26.7260   20.0256 O   0  0  0  0  0  0
  -26.5594  -34.8943   22.4688 O   0  0  0  0  0  0
  -23.5295  -32.1423   23.7583 O   0  0  0  0  0  0
  -31.8818  -22.0766   19.8995 C   0  0  0  0  0  0
  -31.7153  -23.4238   20.2723 C   0  0  0  0  0  0
  -29.6360  -22.8470   21.4011 C   0  0  0  0  0  0
  -30.9256  -21.1083   20.2712 C   0  0  0  0  0  0
  -29.7929  -21.4970   21.0291 C   0  0  0  0  0  0
  -30.5858  -23.8146   21.0220 C   0  0  0  0  0  0
  -31.0778  -16.5630   21.9472 C   0  0  0  0  0  0
  -33.2427  -18.6673   20.8634 C   0  0  0  0  0  0
  -28.7329  -20.4923   21.4544 C   0  0  0  0  0  0
  -31.1400  -19.6567   19.8718 C   0  0  0  0  0  0
  -30.1986  -15.3143   21.7801 C   0  0  0  0  0  0
  -30.6910  -26.1850   20.4503 C   0  0  0  0  0  0
  -29.6250  -27.2839   20.4993 C   0  0  0  0  0  0
  -31.7126  -18.7830   21.0140 C   0  0  1  0  0  0
  -33.9902  -19.5602   21.4990 N   0  0  0  0  0  0
  -30.3709  -25.1388   21.4140 N   0  0  0  0  0  0
  -31.0636  -17.4744   20.9644 N   0  0  0  0  0  0
  -31.6978  -16.7405   22.9994 O   0  0  0  0  0  0
  -33.7550  -17.7914   20.1661 O   0  0  0  0  0  0
  -31.4605  -12.4011   19.0646 H   0  0  0  0  0  0
  -30.3272  -11.2626   19.7315 H   0  0  0  0  0  0
  -29.7104  -11.8340   17.3732 H   0  0  0  0  0  0
  -29.6489  -13.5314   17.7775 H   0  0  0  0  0  0
  -27.8096  -11.3259   18.7702 H   0  0  0  0  0  0
  -27.3484  -12.6866   17.7829 H   0  0  0  0  0  0
  -27.7331  -14.2524   19.6196 H   0  0  0  0  0  0
  -28.6767  -11.8660   21.2770 H   0  0  0  0  0  0
  -28.4604  -13.4679   21.8909 H   0  0  0  0  0  0
  -25.2755   -9.5695   22.4758 H   0  0  0  0  0  0
  -24.0015   -7.4628   22.7467 H   0  0  0  0  0  0
  -21.0845   -8.8757   19.8939 H   0  0  0  0  0  0
  -22.3685  -10.9671   19.6166 H   0  0  0  0  0  0
  -21.1984   -7.6150   23.9725 H   0  0  0  0  0  0
  -21.1478   -6.0527   25.9085 H   0  0  0  0  0  0
  -22.0603   -2.7617   23.2851 H   0  0  0  0  0  0
  -22.4108  -11.9894   22.4771 H   0  0  0  0  0  0
  -21.1117  -13.1267   22.2569 H   0  0  0  0  0  0
  -24.6786  -15.8471   20.5092 H   0  0  0  0  0  0
  -26.3028  -15.6163   20.0993 H   0  0  0  0  0  0
  -26.7087  -32.5610   23.1190 H   0  0  0  0  0  0
  -25.0066  -33.9820   25.0499 H   0  0  0  0  0  0
  -22.6785  -31.3070   21.4130 H   0  0  0  0  0  0
  -23.3747  -35.9646   23.3328 H   0  0  0  0  0  0
  -24.3572  -36.8917   22.2049 H   0  0  0  0  0  0
  -23.7229  -37.6525   23.6634 H   0  0  0  0  0  0
  -26.0082  -31.6287   20.5861 H   0  0  0  0  0  0
  -26.8019  -30.9211   21.9663 H   0  0  0  0  0  0
  -28.0741  -29.2248   21.1453 H   0  0  0  0  0  0
  -26.1171  -25.9819   19.0589 H   0  0  0  0  0  0
  -23.9940  -27.2611   19.0747 H   0  0  0  0  0  0
  -23.6971  -30.5884   19.4028 H   0  0  0  0  0  0
  -22.7257  -29.2284   19.8782 H   0  0  0  0  0  0
  -25.1285  -36.2004   25.0829 H   0  0  0  0  0  0
  -20.9929  -28.3200   24.1469 H   0  0  0  0  0  0
  -20.5649  -26.2244   23.3612 H   0  0  0  0  0  0
  -21.6632  -26.7438   22.1248 H   0  0  0  0  0  0
  -19.6926  -25.6294   21.1234 H   0  0  0  0  0  0
  -19.6710  -27.3189   20.6746 H   0  0  0  0  0  0
  -17.4202  -26.6689   21.3980 H   0  0  0  0  0  0
  -18.0294  -26.0041   22.8970 H   0  0  0  0  0  0
  -19.7923  -30.7230   24.2315 H   0  0  0  0  0  0
  -17.5010  -31.6267   24.5162 H   0  0  0  0  0  0
  -15.5345  -30.3007   23.7628 H   0  0  0  0  0  0
  -15.8647  -28.0844   22.7031 H   0  0  0  0  0  0
  -24.5935  -30.7042   25.7808 H   0  0  0  0  0  0
  -24.8954  -32.2839   26.4943 H   0  0  0  0  0  0
  -25.8149  -30.8846   27.0200 H   0  0  0  0  0  0
  -26.2786  -29.6843   24.1122 H   0  0  0  0  0  0
  -27.4093  -29.7293   25.4469 H   0  0  0  0  0  0
  -27.8613  -30.4388   23.9126 H   0  0  0  0  0  0
  -27.2652  -33.3582   26.2132 H   0  0  0  0  0  0
  -28.3832  -32.6957   25.0299 H   0  0  0  0  0  0
  -28.0743  -31.8400   26.5339 H   0  0  0  0  0  0
  -28.2620  -38.0096   24.7508 H   0  0  0  0  0  0
  -28.1058  -36.2638   24.6282 H   0  0  0  0  0  0
  -27.2302  -37.1480   25.8867 H   0  0  0  0  0  0
  -20.9247  -29.8715   21.6974 H   0  0  0  0  0  0
  -26.0188  -38.2892   24.1425 H   0  0  0  0  0  0
  -32.7548  -21.7901   19.3288 H   0  0  0  0  0  0
  -32.4659  -24.1453   19.9817 H   0  0  0  0  0  0
  -28.7706  -23.1391   21.9791 H   0  0  0  0  0  0
  -27.9507  -20.9655   22.0482 H   0  0  0  0  0  0
  -29.1639  -19.6975   22.0623 H   0  0  0  0  0  0
  -28.2557  -20.0415   20.5842 H   0  0  0  0  0  0
  -31.7802  -19.6147   18.9875 H   0  0  0  0  0  0
  -30.1846  -19.2649   19.5227 H   0  0  0  0  0  0
  -29.1893  -15.6313   21.5179 H   0  0  0  0  0  0
  -30.1419  -14.7917   22.7346 H   0  0  0  0  0  0
  -31.6673  -26.6060   20.6961 H   0  0  0  0  0  0
  -30.7586  -25.7928   19.4337 H   0  0  0  0  0  0
  -29.9204  -28.1226   19.8671 H   0  0  0  0  0  0
  -29.5308  -27.6475   21.5243 H   0  0  0  0  0  0
  -31.4784  -19.2337   21.9805 H   0  0  0  0  0  0
  -33.5532  -20.2853   22.0513 H   0  0  0  0  0  0
  -34.9972  -19.5284   21.4329 H   0  0  0  0  0  0
  -29.4771  -25.2931   21.8736 H   0  0  0  0  0  0
  -30.5750  -17.2485   20.1104 H   0  0  0  0  0  0
  1 25  1  0  0  0
  1 30  2  0  0  0
  1 81  1  0  0  0
  2  3  1  0  0  0
  2 25  1  0  0  0
  2 90  1  0  0  0
  2 91  1  0  0  0
  3  4  1  0  0  0
  3 92  1  0  0  0
  3 93  1  0  0  0
  4  5  1  0  0  0
  4 94  1  0  0  0
  4 95  1  0  0  0
  5  6  1  0  0  0
  5 26  1  0  0  0
  5 96  1  0  0  0
  6 25  1  0  0  0
  6 97  1  0  0  0
  6 98  1  0  0  0
  7  8  2  0  0  0
  7 26  1  0  0  0
  7 29  1  0  0  0
  8  9  1  0  0  0
  8 22  1  0  0  0
  9 10  1  0  0  0
  9 27  2  0  0  0
 10 11  2  0  0  0
 10 15  1  0  0  0
 11 12  1  0  0  0
 11 99  1  0  0  0
 12 13  2  0  0  0
 12100  1  0  0  0
 13 14  1  0  0  0
 13 31  1  0  0  0
 14 15  2  0  0  0
 14101  1  0  0  0
 15102  1  0  0  0
 16 17  2  0  0  0
 16 21  1  0  0  0
 16 31  1  0  0  0
 17 18  1  0  0  0
 17103  1  0  0  0
 18 19  2  0  0  0
 18104  1  0  0  0
 19 20  1  0  0  0
 19 24  1  0  0  0
 20 21  2  0  0  0
 20105  1  0  0  0
 21 23  1  0  0  0
 22 28  1  0  0  0
 22 32  2  0  0  0
 26 27  1  0  0  0
 28106  1  0  0  0
 28107  1  0  0  0
 29108  1  0  0  0
 29109  1  0  0  0
 33 34  1  0  0  0
 33 66  1  0  0  0
 33 70  2  0  0  0
 34 36  1  0  0  0
 34 59  1  0  0  0
 34110  1  0  0  0
 35 44  2  0  0  0
 35 45  1  0  0  0
 35 68  1  0  0  0
 36 56  1  0  0  0
 36111  1  0  0  0
 37 39  1  0  0  0
 37 47  1  0  0  0
 37 66  1  0  0  0
 37112  1  0  0  0
 38 43  2  0  0  0
 38 46  1  0  0  0
 38 47  1  0  0  0
 39 64  1  0  0  0
 39 67  2  0  0  0
 40 52  1  0  0  0
 40 53  2  0  0  0
 40 58  1  0  0  0
 41113  1  0  0  0
 41114  1  0  0  0
 41115  1  0  0  0
 41 48  1  0  0  0
 42 43  1  0  0  0
 42 66  1  0  0  0
 42116  1  0  0  0
 42117  1  0  0  0
 43 44  1  0  0  0
 44118  1  0  0  0
 45 46  2  0  0  0
 45119  1  0  0  0
 46120  1  0  0  0
 47121  1  0  0  0
 47122  1  0  0  0
 48 56  1  0  0  0
 48 65  1  0  0  0
 48123  1  0  0  0
 49 50  1  0  0  0
 49 53  1  0  0  0
 49 64  1  0  0  0
 49124  1  0  0  0
 50 51  1  0  0  0
 50125  1  0  0  0
 50126  1  0  0  0
 51 52  1  0  0  0
 51127  1  0  0  0
 51128  1  0  0  0
 52129  1  0  0  0
 52130  1  0  0  0
 53 54  1  0  0  0
 54 55  2  0  0  0
 54131  1  0  0  0
 55 57  1  0  0  0
 55132  1  0  0  0
 56 69  2  0  0  0
 57 58  2  0  0  0
 57133  1  0  0  0
 58134  1  0  0  0
 59 60  1  0  0  0
 59 61  1  0  0  0
 59 62  1  0  0  0
 60135  1  0  0  0
 60136  1  0  0  0
 60137  1  0  0  0
 61138  1  0  0  0
 61139  1  0  0  0
 61140  1  0  0  0
 62141  1  0  0  0
 62142  1  0  0  0
 62143  1  0  0  0
 63 65  1  0  0  0
 63144  1  0  0  0
 63145  1  0  0  0
 63146  1  0  0  0
 64147  1  0  0  0
 65148  1  0  0  0
 68 83  1  0  0  0
 71 72  2  0  0  0
 71 74  1  0  0  0
 71149  1  0  0  0
 72 76  1  0  0  0
 72150  1  0  0  0
 73 75  1  0  0  0
 73 76  2  0  0  0
 73151  1  0  0  0
 74 75  2  0  0  0
 74 80  1  0  0  0
 75 79  1  0  0  0
 76 86  1  0  0  0
 77 81  1  0  0  0
 77 87  1  0  0  0
 77 88  2  0  0  0
 78 84  1  0  0  0
 78 85  1  0  0  0
 78 89  2  0  0  0
 79152  1  0  0  0
 79153  1  0  0  0
 79154  1  0  0  0
 80155  1  0  0  0
 80156  1  0  0  0
 80 84  1  0  0  0
 81157  1  0  0  0
 81158  1  0  0  0
 82 83  1  0  0  0
 82 86  1  0  0  0
 82159  1  0  0  0
 82160  1  0  0  0
 83161  1  0  0  0
 83162  1  0  0  0
 84 87  1  0  0  0
 84163  1  0  0  0
 85164  1  0  0  0
 85165  1  0  0  0
 86166  1  0  0  0
 87167  1  0  0  0
M  ISO  4   1 100  68 101  81 100  83 101
M  END
> <chiral flag>
0

> <version>
0

> <s_m_source_file>
/data/baiqing/PycharmProjects/Reinvent-master-3.2/result/LINK_invent/BTK/process_docking_weight1_custom_product_contain_oxygen_bond_distance_aromatic_linkinvent_7_9_3/rearranged_h_0096.sdf

> <i_m_source_file_index>
10

> <r_mmod_Potential_Energy-OPLS-2005>
-302.581481933594

> <r_mmod_Stretch_Energy-OPLS-2005>
33.3890228271484

> <r_mmod_Bend_Energy-OPLS-2005>
99.2815551757812

> <r_mmod_Torsional_Energy-OPLS-2005>
179.197830200195

> <r_mmod_Improper_Torsional_Energy-OPLS-2005>
6.4978404045105

> <r_mmod_Van_der_Waal_Energy-OPLS-2005>
164.719497680664

> <r_mmod_Electrostatic_Energy-OPLS-2005>
-512.480590820312

> <r_mmod_Solvation_Energy-OPLS-2005>
-279.257171630859

> <b_mmod_Minimization_Converged-OPLS-2005>
0

> <r_mmod_RMS_Derivative-OPLS-2005>
1.24703347682953

$$$$
10
                    3D
 Structure written by MMmdl.
158167  0  0  1  0            999 V2000
  -30.6172  -14.6319   20.5064 C   0  0  0  0  0  0
  -30.4367  -12.3852   19.4507 C   0  0  0  0  0  0
  -29.5073  -12.5332   18.2261 C   0  0  0  0  0  0
  -28.0298  -12.3682   18.6378 C   0  0  0  0  0  0
  -27.6565  -13.2189   19.8815 C   0  0  2  0  0  0
  -28.7026  -13.0535   21.0069 C   0  0  0  0  0  0
  -25.2543  -13.8188   20.5725 C   0  0  0  0  0  0
  -24.1804  -13.0436   20.9185 C   0  0  0  0  0  0
  -24.6392  -11.6916   20.8738 C   0  0  0  0  0  0
  -23.9076  -10.4296   21.0395 C   0  0  0  0  0  0
  -24.3615   -9.4210   21.9177 C   0  0  0  0  0  0
  -23.6280   -8.2246   22.0764 C   0  0  0  0  0  0
  -22.4249   -8.0298   21.3560 C   0  0  0  0  0  0
  -21.9899   -9.0259   20.4652 C   0  0  0  0  0  0
  -22.7248  -10.2127   20.3056 C   0  0  0  0  0  0
  -21.6851   -6.0738   22.5281 C   0  0  0  0  0  0
  -21.4017   -6.5648   23.8216 C   0  0  0  0  0  0
  -21.3677   -5.6801   24.9171 C   0  0  0  0  0  0
  -21.6040   -4.3056   24.7227 C   0  0  0  0  0  0
  -21.8820   -3.8151   23.4345 C   0  0  0  0  0  0
  -21.9188   -4.6966   22.3387 C   0  0  0  0  0  0
  -22.7825  -13.5229   21.1882 C   0  0  0  0  0  0
  -22.1652   -4.2162   21.0958 F   0  0  0  0  0  0
  -21.5643   -3.4536   25.7738 F   0  0  0  0  0  0
  -30.0214  -13.3993   20.4439 N   0  0  0  0  0  0
  -26.2989  -12.9371   20.3396 N   0  0  0  0  0  0
  -25.9327  -11.6520   20.5807 N   0  0  0  0  0  0
  -22.0473  -12.8184   22.0426 N   0  0  0  0  0  0
  -25.4229  -15.1940   20.4258 N   0  0  0  0  0  0
  -31.7445  -14.8320   20.0432 O   0  0  0  0  0  0
  -21.6637   -6.8874   21.4243 O   0  0  0  0  0  0
  -22.3496  -14.5530   20.6768 O   0  0  0  0  0  0
  -24.6277  -31.8633   23.2031 C   0  0  0  0  0  0
  -25.9124  -32.4802   23.8373 C   0  0  1  0  0  0
  -27.2162  -27.2993   20.1069 C   0  0  0  0  0  0
  -25.5932  -33.8606   24.2268 N   0  0  0  0  0  0
  -23.4206  -30.4870   21.5445 C   0  0  2  0  0  0
  -24.8691  -28.9414   20.1050 C   0  0  0  0  0  0
  -22.7447  -29.4666   22.4920 C   0  0  0  0  0  0
  -18.0280  -28.1432   22.8513 C   0  0  0  0  0  0
  -24.1488  -36.7315   23.2642 C   0  0  0  0  0  0
  -25.9639  -30.7774   21.3843 C   0  0  0  0  0  0
  -26.0344  -29.4030   20.7300 C   0  0  0  0  0  0
  -27.2040  -28.5836   20.7415 C   0  0  0  0  0  0
  -26.0432  -26.9192   19.4256 C   0  0  0  0  0  0
  -24.8756  -27.7026   19.4484 C   0  0  0  0  0  0
  -23.6348  -29.8212   20.1603 C   0  0  0  0  0  0
  -25.4116  -36.3091   24.0320 C   0  0  1  0  0  0
  -20.5885  -28.3756   23.1298 C   0  0  2  0  0  0
  -20.6792  -26.9475   22.5435 C   0  0  0  0  0  0
  -19.5748  -26.6414   21.5258 C   0  0  0  0  0  0
  -18.1916  -26.7971   22.1647 C   0  0  0  0  0  0
  -19.1535  -28.8894   23.2911 C   0  0  0  0  0  0
  -18.9448  -30.1497   23.8944 C   0  0  0  0  0  0
  -17.6445  -30.6630   24.0592 C   0  0  0  0  0  0
  -25.9051  -34.9462   23.5086 C   0  0  0  0  0  0
  -16.5348  -29.9132   23.6353 C   0  0  0  0  0  0
  -16.7264  -28.6549   23.0387 C   0  0  0  0  0  0
  -26.4478  -31.6625   25.0781 C   0  0  0  0  0  0
  -25.3676  -31.3774   26.1492 C   0  0  0  0  0  0
  -27.0334  -30.3040   24.6294 C   0  0  0  0  0  0
  -27.6031  -32.4381   25.7558 C   0  0  0  0  0  0
  -27.5577  -37.1807   24.8448 C   0  0  0  0  0  0
  -21.4158  -29.3105   22.3653 N   0  0  0  0  0  0
  -26.4288  -37.3792   23.9416 N   0  0  0  0  0  0
  -24.6890  -31.0608   22.0987 N   0  0  0  0  0  0
  -23.4158  -28.8211   23.3004 O   0  0  0  0  0  0
  -28.3156  -26.4267   20.2037 O   0  0  0  0  0  0
  -26.5597  -34.8923   22.4644 O   0  0  0  0  0  0
  -23.5444  -32.1456   23.7368 O   0  0  0  0  0  0
  -29.4741  -19.2204   19.6586 C   0  0  0  0  0  0
  -29.8462  -17.8320   19.7043 C   0  0  0  0  0  0
  -29.5467  -17.8436   22.0852 C   0  0  0  0  0  0
  -29.0813  -19.9462   20.8232 C   0  0  0  0  0  0
  -29.8231  -17.0904   20.9221 C   0  0  0  0  0  0
  -29.2238  -19.2289   22.0503 C   0  0  0  0  0  0
  -26.5854  -23.4593   20.3363 C   0  0  0  0  0  0
  -26.4582  -22.6360   21.6070 C   0  0  0  0  0  0
  -27.1100  -21.2462   21.4628 C   0  0  0  0  0  0
  -29.0240  -22.5654   20.3976 C   0  0  0  0  0  0
  -28.0066  -23.6580   19.7980 C   0  0  2  0  0  0
  -28.4350  -25.1755   19.4088 C   0  0  0  0  0  0
  -28.4182  -21.2372   20.7752 N   0  0  0  0  0  0
  -29.8551  -15.6295   21.0444 N   0  0  0  0  0  0
  -25.5806  -23.8476   19.7356 O   0  0  0  0  0  0
  -29.0109  -19.8530   23.2349 F   0  0  0  0  0  0
  -31.4820  -12.5008   19.1524 H   0  0  0  0  0  0
  -30.3491  -11.3819   19.8714 H   0  0  0  0  0  0
  -29.7656  -11.8076   17.4548 H   0  0  0  0  0  0
  -29.6558  -13.5168   17.7785 H   0  0  0  0  0  0
  -27.8601  -11.3123   18.8517 H   0  0  0  0  0  0
  -27.3747  -12.6191   17.8036 H   0  0  0  0  0  0
  -27.6816  -14.2606   19.5663 H   0  0  0  0  0  0
  -28.7083  -12.0279   21.3784 H   0  0  0  0  0  0
  -28.4481  -13.6688   21.8703 H   0  0  0  0  0  0
  -25.2770   -9.5680   22.4738 H   0  0  0  0  0  0
  -24.0005   -7.4622   22.7471 H   0  0  0  0  0  0
  -21.0847   -8.8758   19.8940 H   0  0  0  0  0  0
  -22.3710  -10.9642   19.6150 H   0  0  0  0  0  0
  -21.1998   -7.6153   23.9732 H   0  0  0  0  0  0
  -21.1518   -6.0521   25.9079 H   0  0  0  0  0  0
  -22.0582   -2.7620   23.2849 H   0  0  0  0  0  0
  -22.4066  -11.9802   22.4739 H   0  0  0  0  0  0
  -21.1141  -13.1255   22.2735 H   0  0  0  0  0  0
  -24.6594  -15.8519   20.5521 H   0  0  0  0  0  0
  -26.2901  -15.6440   20.1621 H   0  0  0  0  0  0
  -26.7183  -32.5435   23.1113 H   0  0  0  0  0  0
  -25.0037  -33.9766   25.0386 H   0  0  0  0  0  0
  -22.7164  -31.3105   21.3999 H   0  0  0  0  0  0
  -23.3764  -35.9639   23.3283 H   0  0  0  0  0  0
  -24.3541  -36.8961   22.2050 H   0  0  0  0  0  0
  -23.7239  -37.6506   23.6689 H   0  0  0  0  0  0
  -26.0967  -31.5306   20.6051 H   0  0  0  0  0  0
  -26.8413  -30.8372   22.0123 H   0  0  0  0  0  0
  -28.0879  -28.9198   21.2652 H   0  0  0  0  0  0
  -25.9931  -26.0014   18.8705 H   0  0  0  0  0  0
  -23.9901  -27.3462   18.9412 H   0  0  0  0  0  0
  -23.7500  -30.5974   19.4031 H   0  0  0  0  0  0
  -22.7546  -29.2502   19.8583 H   0  0  0  0  0  0
  -25.1299  -36.1941   25.0810 H   0  0  0  0  0  0
  -20.9993  -28.3394   24.1412 H   0  0  0  0  0  0
  -20.5793  -26.2360   23.3659 H   0  0  0  0  0  0
  -21.6644  -26.7553   22.1172 H   0  0  0  0  0  0
  -19.6932  -25.6326   21.1273 H   0  0  0  0  0  0
  -19.6704  -27.3244   20.6805 H   0  0  0  0  0  0
  -17.4207  -26.6780   21.4010 H   0  0  0  0  0  0
  -18.0279  -26.0134   22.9049 H   0  0  0  0  0  0
  -19.7924  -30.7321   24.2323 H   0  0  0  0  0  0
  -17.5014  -31.6296   24.5213 H   0  0  0  0  0  0
  -15.5358  -30.3065   23.7657 H   0  0  0  0  0  0
  -15.8655  -28.0871   22.7106 H   0  0  0  0  0  0
  -24.5942  -30.7016   25.7830 H   0  0  0  0  0  0
  -24.8760  -32.2928   26.4797 H   0  0  0  0  0  0
  -25.7989  -30.9072   27.0343 H   0  0  0  0  0  0
  -26.2924  -29.6808   24.1281 H   0  0  0  0  0  0
  -27.3941  -29.7310   25.4845 H   0  0  0  0  0  0
  -27.8831  -30.4298   23.9586 H   0  0  0  0  0  0
  -27.2634  -33.3720   26.2066 H   0  0  0  0  0  0
  -28.3869  -32.6896   25.0393 H   0  0  0  0  0  0
  -28.0687  -31.8575   26.5528 H   0  0  0  0  0  0
  -28.2560  -38.0137   24.7514 H   0  0  0  0  0  0
  -28.1087  -36.2649   24.6228 H   0  0  0  0  0  0
  -27.2278  -37.1401   25.8847 H   0  0  0  0  0  0
  -20.9365  -29.8803   21.6822 H   0  0  0  0  0  0
  -26.0156  -38.2861   24.1467 H   0  0  0  0  0  0
  -29.4163  -19.7059   18.6950 H   0  0  0  0  0  0
  -30.0664  -17.3260   18.7767 H   0  0  0  0  0  0
  -29.5396  -17.3428   23.0436 H   0  0  0  0  0  0
  -25.4028  -22.5285   21.8612 H   0  0  0  0  0  0
  -26.9266  -23.1889   22.4198 H   0  0  0  0  0  0
  -26.4286  -20.5947   20.9113 H   0  0  0  0  0  0
  -27.1670  -20.8164   22.4620 H   0  0  0  0  0  0
  -29.5227  -22.9802   21.2748 H   0  0  0  0  0  0
  -29.8067  -22.3769   19.6617 H   0  0  0  0  0  0
  -27.8785  -23.2402   18.7986 H   0  0  0  0  0  0
  -28.0379  -25.3835   18.4167 H   0  0  0  0  0  0
  -29.5058  -25.1121   19.2190 H   0  0  0  0  0  0
  -29.0803  -15.2484   21.5654 H   0  0  0  0  0  0
  1 25  1  0  0  0
  1 30  2  0  0  0
  1 84  1  0  0  0
  2  3  1  0  0  0
  2 25  1  0  0  0
  2 87  1  0  0  0
  2 88  1  0  0  0
  3  4  1  0  0  0
  3 89  1  0  0  0
  3 90  1  0  0  0
  4  5  1  0  0  0
  4 91  1  0  0  0
  4 92  1  0  0  0
  5  6  1  0  0  0
  5 26  1  0  0  0
  5 93  1  0  0  0
  6 25  1  0  0  0
  6 94  1  0  0  0
  6 95  1  0  0  0
  7  8  2  0  0  0
  7 26  1  0  0  0
  7 29  1  0  0  0
  8  9  1  0  0  0
  8 22  1  0  0  0
  9 10  1  0  0  0
  9 27  2  0  0  0
 10 11  2  0  0  0
 10 15  1  0  0  0
 11 12  1  0  0  0
 11 96  1  0  0  0
 12 13  2  0  0  0
 12 97  1  0  0  0
 13 14  1  0  0  0
 13 31  1  0  0  0
 14 15  2  0  0  0
 14 98  1  0  0  0
 15 99  1  0  0  0
 16 17  2  0  0  0
 16 21  1  0  0  0
 16 31  1  0  0  0
 17 18  1  0  0  0
 17100  1  0  0  0
 18 19  2  0  0  0
 18101  1  0  0  0
 19 20  1  0  0  0
 19 24  1  0  0  0
 20 21  2  0  0  0
 20102  1  0  0  0
 21 23  1  0  0  0
 22 28  1  0  0  0
 22 32  2  0  0  0
 26 27  1  0  0  0
 28103  1  0  0  0
 28104  1  0  0  0
 29105  1  0  0  0
 29106  1  0  0  0
 33 34  1  0  0  0
 33 66  1  0  0  0
 33 70  2  0  0  0
 34 36  1  0  0  0
 34 59  1  0  0  0
 34107  1  0  0  0
 35 44  2  0  0  0
 35 45  1  0  0  0
 35 68  1  0  0  0
 36 56  1  0  0  0
 36108  1  0  0  0
 37 39  1  0  0  0
 37 47  1  0  0  0
 37 66  1  0  0  0
 37109  1  0  0  0
 38 43  2  0  0  0
 38 46  1  0  0  0
 38 47  1  0  0  0
 39 64  1  0  0  0
 39 67  2  0  0  0
 40 52  1  0  0  0
 40 53  2  0  0  0
 40 58  1  0  0  0
 41110  1  0  0  0
 41111  1  0  0  0
 41112  1  0  0  0
 41 48  1  0  0  0
 42 43  1  0  0  0
 42 66  1  0  0  0
 42113  1  0  0  0
 42114  1  0  0  0
 43 44  1  0  0  0
 44115  1  0  0  0
 45 46  2  0  0  0
 45116  1  0  0  0
 46117  1  0  0  0
 47118  1  0  0  0
 47119  1  0  0  0
 48 56  1  0  0  0
 48 65  1  0  0  0
 48120  1  0  0  0
 49 50  1  0  0  0
 49 53  1  0  0  0
 49 64  1  0  0  0
 49121  1  0  0  0
 50 51  1  0  0  0
 50122  1  0  0  0
 50123  1  0  0  0
 51 52  1  0  0  0
 51124  1  0  0  0
 51125  1  0  0  0
 52126  1  0  0  0
 52127  1  0  0  0
 53 54  1  0  0  0
 54 55  2  0  0  0
 54128  1  0  0  0
 55 57  1  0  0  0
 55129  1  0  0  0
 56 69  2  0  0  0
 57 58  2  0  0  0
 57130  1  0  0  0
 58131  1  0  0  0
 59 60  1  0  0  0
 59 61  1  0  0  0
 59 62  1  0  0  0
 60132  1  0  0  0
 60133  1  0  0  0
 60134  1  0  0  0
 61135  1  0  0  0
 61136  1  0  0  0
 61137  1  0  0  0
 62138  1  0  0  0
 62139  1  0  0  0
 62140  1  0  0  0
 63 65  1  0  0  0
 63141  1  0  0  0
 63142  1  0  0  0
 63143  1  0  0  0
 64144  1  0  0  0
 65145  1  0  0  0
 68 82  1  0  0  0
 71 72  2  0  0  0
 71 74  1  0  0  0
 71146  1  0  0  0
 72 75  1  0  0  0
 72147  1  0  0  0
 73 75  2  0  0  0
 73 76  1  0  0  0
 73148  1  0  0  0
 74 76  2  0  0  0
 74 83  1  0  0  0
 75 84  1  0  0  0
 76 86  1  0  0  0
 77 78  1  0  0  0
 77 81  1  0  0  0
 77 85  2  0  0  0
 78 79  1  0  0  0
 78149  1  0  0  0
 78150  1  0  0  0
 79 83  1  0  0  0
 79151  1  0  0  0
 79152  1  0  0  0
 80 81  1  0  0  0
 80 83  1  0  0  0
 80153  1  0  0  0
 80154  1  0  0  0
 81 82  1  0  0  0
 81155  1  0  0  0
 82156  1  0  0  0
 82157  1  0  0  0
 84158  1  0  0  0
M  ISO  4   1 100  68 101  82 101  84 100
M  END
> <chiral flag>
0

> <version>
0

> <s_m_source_file>
/data/baiqing/PycharmProjects/Reinvent-master-3.2/result/LINK_invent/BTK/process_docking_weight1_custom_product_contain_oxygen_bond_distance_aromatic_linkinvent_7_9_3/rearranged_h_0096.sdf

> <i_m_source_file_index>
11

> <r_mmod_Potential_Energy-OPLS-2005>
202.784713745117

> <r_mmod_Stretch_Energy-OPLS-2005>
95.3648986816406

> <r_mmod_Bend_Energy-OPLS-2005>
212.331481933594

> <r_mmod_Torsional_Energy-OPLS-2005>
251.202835083008

> <r_mmod_Improper_Torsional_Energy-OPLS-2005>
5.77939081192017

> <r_mmod_Van_der_Waal_Energy-OPLS-2005>
151.830535888672

> <r_mmod_Electrostatic_Energy-OPLS-2005>
-341.539794921875

> <r_mmod_Solvation_Energy-OPLS-2005>
-227.146362304688

> <b_mmod_Minimization_Converged-OPLS-2005>
0

> <r_mmod_RMS_Derivative-OPLS-2005>
4.44240283966064

$$$$
11
                    3D
 Structure written by MMmdl.
154162  0  0  1  0            999 V2000
  -30.7204  -14.6089   20.4844 C   0  0  0  0  0  0
  -30.4090  -12.3750   19.4653 C   0  0  0  0  0  0
  -29.5005  -12.4848   18.2236 C   0  0  0  0  0  0
  -28.0248  -12.3373   18.6370 C   0  0  0  0  0  0
  -27.6446  -13.2310   19.8473 C   0  0  2  0  0  0
  -28.6904  -13.1509   20.9850 C   0  0  0  0  0  0
  -25.2519  -13.8198   20.5682 C   0  0  0  0  0  0
  -24.1805  -13.0451   20.9218 C   0  0  0  0  0  0
  -24.6394  -11.6928   20.8764 C   0  0  0  0  0  0
  -23.9063  -10.4299   21.0412 C   0  0  0  0  0  0
  -24.3616   -9.4219   21.9194 C   0  0  0  0  0  0
  -23.6290   -8.2255   22.0762 C   0  0  0  0  0  0
  -22.4274   -8.0285   21.3564 C   0  0  0  0  0  0
  -21.9909   -9.0260   20.4666 C   0  0  0  0  0  0
  -22.7233  -10.2134   20.3066 C   0  0  0  0  0  0
  -21.6855   -6.0725   22.5278 C   0  0  0  0  0  0
  -21.4008   -6.5632   23.8201 C   0  0  0  0  0  0
  -21.3663   -5.6792   24.9174 C   0  0  0  0  0  0
  -21.6045   -4.3051   24.7228 C   0  0  0  0  0  0
  -21.8818   -3.8138   23.4346 C   0  0  0  0  0  0
  -21.9190   -4.6957   22.3403 C   0  0  0  0  0  0
  -22.7817  -13.5236   21.1851 C   0  0  0  0  0  0
  -22.1660   -4.2147   21.0981 F   0  0  0  0  0  0
  -21.5646   -3.4537   25.7745 F   0  0  0  0  0  0
  -30.0024  -13.4435   20.4039 N   0  0  0  0  0  0
  -26.2948  -12.9405   20.3253 N   0  0  0  0  0  0
  -25.9324  -11.6551   20.5750 N   0  0  0  0  0  0
  -22.0440  -12.8248   22.0401 N   0  0  0  0  0  0
  -25.4209  -15.1911   20.4038 N   0  0  0  0  0  0
  -31.9108  -14.6215   20.1532 O   0  0  0  0  0  0
  -21.6644   -6.8876   21.4244 O   0  0  0  0  0  0
  -22.3509  -14.5547   20.6689 O   0  0  0  0  0  0
  -24.6254  -31.8607   23.2054 C   0  0  0  0  0  0
  -25.9104  -32.4772   23.8378 C   0  0  1  0  0  0
  -27.2107  -27.3170   20.1143 C   0  0  0  0  0  0
  -25.5931  -33.8577   24.2304 N   0  0  0  0  0  0
  -23.4194  -30.4869   21.5467 C   0  0  2  0  0  0
  -24.8674  -28.9577   20.1029 C   0  0  0  0  0  0
  -22.7486  -29.4603   22.4913 C   0  0  0  0  0  0
  -18.0274  -28.1378   22.8477 C   0  0  0  0  0  0
  -24.1496  -36.7295   23.2635 C   0  0  0  0  0  0
  -25.9633  -30.7910   21.3811 C   0  0  0  0  0  0
  -26.0367  -29.4220   20.7181 C   0  0  0  0  0  0
  -27.2128  -28.6122   20.7184 C   0  0  0  0  0  0
  -26.0225  -26.9245   19.4509 C   0  0  0  0  0  0
  -24.8649  -27.7169   19.4554 C   0  0  0  0  0  0
  -23.6351  -29.8342   20.1574 C   0  0  0  0  0  0
  -25.4110  -36.3069   24.0330 C   0  0  1  0  0  0
  -20.5886  -28.3672   23.1274 C   0  0  2  0  0  0
  -20.6765  -26.9392   22.5406 C   0  0  0  0  0  0
  -19.5745  -26.6376   21.5202 C   0  0  0  0  0  0
  -18.1918  -26.7917   22.1611 C   0  0  0  0  0  0
  -19.1533  -28.8841   23.2867 C   0  0  0  0  0  0
  -18.9453  -30.1440   23.8887 C   0  0  0  0  0  0
  -17.6455  -30.6576   24.0548 C   0  0  0  0  0  0
  -25.9046  -34.9442   23.5107 C   0  0  0  0  0  0
  -16.5341  -29.9073   23.6327 C   0  0  0  0  0  0
  -16.7262  -28.6493   23.0342 C   0  0  0  0  0  0
  -26.4508  -31.6572   25.0738 C   0  0  0  0  0  0
  -25.3760  -31.3692   26.1475 C   0  0  0  0  0  0
  -27.0332  -30.2985   24.6190 C   0  0  0  0  0  0
  -27.6076  -32.4307   25.7505 C   0  0  0  0  0  0
  -27.5578  -37.1792   24.8455 C   0  0  0  0  0  0
  -21.4194  -29.3034   22.3679 N   0  0  0  0  0  0
  -26.4284  -37.3765   23.9409 N   0  0  0  0  0  0
  -24.6876  -31.0625   22.1000 N   0  0  0  0  0  0
  -23.4221  -28.8107   23.2951 O   0  0  0  0  0  0
  -28.2972  -26.4266   20.1969 O   0  0  0  0  0  0
  -26.5612  -34.8908   22.4672 O   0  0  0  0  0  0
  -23.5421  -32.1405   23.7379 O   0  0  0  0  0  0
  -30.6153  -19.6674   21.1005 C   0  0  0  0  0  0
  -30.0974  -20.9934   20.9975 C   0  0  0  0  0  0
  -28.6325  -18.7672   20.0677 C   0  0  0  0  0  0
  -29.9169  -18.5209   20.6106 C   0  0  0  0  0  0
  -28.1056  -20.0914   19.9844 C   0  0  0  0  0  0
  -28.8325  -21.2416   20.4130 C   0  0  0  0  0  0
  -30.6052  -17.1735   20.5379 C   0  0  0  0  0  0
  -27.9826  -24.9863   20.0093 C   0  0  0  0  0  0
  -28.9080  -23.7867   20.4874 C   0  0  0  0  0  0
  -26.8326  -20.2718   19.4461 N   0  0  0  0  0  0
  -30.0403  -15.9123   20.6891 N   0  0  0  0  0  0
  -31.9097  -17.2794   20.2507 N   0  3  0  0  0  0
  -28.2426  -22.5090   20.2284 O   0  0  0  0  0  0
  -31.4569  -12.4386   19.1681 H   0  0  0  0  0  0
  -30.2981  -11.3961   19.9343 H   0  0  0  0  0  0
  -29.7644  -11.7152   17.4955 H   0  0  0  0  0  0
  -29.6591  -13.4445   17.7274 H   0  0  0  0  0  0
  -27.8595  -11.2893   18.8872 H   0  0  0  0  0  0
  -27.3700  -12.5505   17.7907 H   0  0  0  0  0  0
  -27.6514  -14.2555   19.4729 H   0  0  0  0  0  0
  -28.6951  -12.1599   21.4436 H   0  0  0  0  0  0
  -28.4490  -13.8558   21.7807 H   0  0  0  0  0  0
  -25.2763   -9.5720   22.4759 H   0  0  0  0  0  0
  -24.0018   -7.4651   22.7479 H   0  0  0  0  0  0
  -21.0845   -8.8775   19.8970 H   0  0  0  0  0  0
  -22.3693  -10.9670   19.6169 H   0  0  0  0  0  0
  -21.1986   -7.6138   23.9701 H   0  0  0  0  0  0
  -21.1493   -6.0526   25.9079 H   0  0  0  0  0  0
  -22.0592   -2.7605   23.2847 H   0  0  0  0  0  0
  -22.4019  -11.9921   22.4847 H   0  0  0  0  0  0
  -21.1057  -13.1301   22.2566 H   0  0  0  0  0  0
  -24.6495  -15.8406   20.5099 H   0  0  0  0  0  0
  -26.2363  -15.6160   19.9831 H   0  0  0  0  0  0
  -26.7165  -32.5440   23.1126 H   0  0  0  0  0  0
  -25.0079  -33.9738   25.0449 H   0  0  0  0  0  0
  -22.7108  -31.3059   21.4075 H   0  0  0  0  0  0
  -23.3753  -35.9635   23.3287 H   0  0  0  0  0  0
  -24.3587  -36.8930   22.2053 H   0  0  0  0  0  0
  -23.7277  -37.6502   23.6673 H   0  0  0  0  0  0
  -26.1008  -31.5578   20.6180 H   0  0  0  0  0  0
  -26.8414  -30.8328   22.0135 H   0  0  0  0  0  0
  -28.1040  -28.9575   21.2241 H   0  0  0  0  0  0
  -25.9442  -25.9838   18.9274 H   0  0  0  0  0  0
  -23.9754  -27.3654   18.9515 H   0  0  0  0  0  0
  -23.7516  -30.6156   19.4050 H   0  0  0  0  0  0
  -22.7575  -29.2622   19.8511 H   0  0  0  0  0  0
  -25.1289  -36.1910   25.0820 H   0  0  0  0  0  0
  -20.9961  -28.3239   24.1402 H   0  0  0  0  0  0
  -20.5644  -26.2276   23.3596 H   0  0  0  0  0  0
  -21.6630  -26.7397   22.1211 H   0  0  0  0  0  0
  -19.6894  -25.6286   21.1230 H   0  0  0  0  0  0
  -19.6687  -27.3191   20.6733 H   0  0  0  0  0  0
  -17.4182  -26.6654   21.4014 H   0  0  0  0  0  0
  -18.0313  -26.0063   22.9012 H   0  0  0  0  0  0
  -19.7925  -30.7250   24.2271 H   0  0  0  0  0  0
  -17.5003  -31.6252   24.5149 H   0  0  0  0  0  0
  -15.5342  -30.2962   23.7655 H   0  0  0  0  0  0
  -15.8661  -28.0799   22.7075 H   0  0  0  0  0  0
  -24.5937  -30.7033   25.7816 H   0  0  0  0  0  0
  -24.8948  -32.2839   26.4935 H   0  0  0  0  0  0
  -25.8115  -30.8856   27.0225 H   0  0  0  0  0  0
  -26.2878  -29.6741   24.1243 H   0  0  0  0  0  0
  -27.4034  -29.7242   25.4694 H   0  0  0  0  0  0
  -27.8768  -30.4245   23.9401 H   0  0  0  0  0  0
  -27.2681  -33.3599   26.2097 H   0  0  0  0  0  0
  -28.3877  -32.6876   25.0327 H   0  0  0  0  0  0
  -28.0754  -31.8418   26.5406 H   0  0  0  0  0  0
  -28.2570  -38.0112   24.7501 H   0  0  0  0  0  0
  -28.1093  -36.2631   24.6266 H   0  0  0  0  0  0
  -27.2289  -37.1430   25.8857 H   0  0  0  0  0  0
  -20.9362  -29.8808   21.6943 H   0  0  0  0  0  0
  -26.0154  -38.2833   24.1424 H   0  0  0  0  0  0
  -31.5984  -19.5451   21.5341 H   0  0  0  0  0  0
  -30.6888  -21.8186   21.3642 H   0  0  0  0  0  0
  -28.0645  -17.9398   19.6666 H   0  0  0  0  0  0
  -27.0313  -24.7915   20.5075 H   0  0  0  0  0  0
  -27.8119  -24.8314   18.9427 H   0  0  0  0  0  0
  -29.1034  -23.8680   21.5565 H   0  0  0  0  0  0
  -29.8701  -23.8194   19.9755 H   0  0  0  0  0  0
  -26.1431  -19.5626   19.6702 H   0  0  0  0  0  0
  -26.4592  -21.2060   19.5850 H   0  0  0  0  0  0
  -29.0673  -15.9547   20.9362 H   0  0  0  0  0  0
  -32.3351  -18.1755   20.0773 H   0  0  0  0  0  0
  -32.4425  -16.4237   20.1232 H   0  0  0  0  0  0
  1 25  1  0  0  0
  1 30  2  0  0  0
  1 81  1  0  0  0
  2  3  1  0  0  0
  2 25  1  0  0  0
  2 84  1  0  0  0
  2 85  1  0  0  0
  3  4  1  0  0  0
  3 86  1  0  0  0
  3 87  1  0  0  0
  4  5  1  0  0  0
  4 88  1  0  0  0
  4 89  1  0  0  0
  5  6  1  0  0  0
  5 26  1  0  0  0
  5 90  1  0  0  0
  6 25  1  0  0  0
  6 91  1  0  0  0
  6 92  1  0  0  0
  7  8  2  0  0  0
  7 26  1  0  0  0
  7 29  1  0  0  0
  8  9  1  0  0  0
  8 22  1  0  0  0
  9 10  1  0  0  0
  9 27  2  0  0  0
 10 11  2  0  0  0
 10 15  1  0  0  0
 11 12  1  0  0  0
 11 93  1  0  0  0
 12 13  2  0  0  0
 12 94  1  0  0  0
 13 14  1  0  0  0
 13 31  1  0  0  0
 14 15  2  0  0  0
 14 95  1  0  0  0
 15 96  1  0  0  0
 16 17  2  0  0  0
 16 21  1  0  0  0
 16 31  1  0  0  0
 17 18  1  0  0  0
 17 97  1  0  0  0
 18 19  2  0  0  0
 18 98  1  0  0  0
 19 20  1  0  0  0
 19 24  1  0  0  0
 20 21  2  0  0  0
 20 99  1  0  0  0
 21 23  1  0  0  0
 22 28  1  0  0  0
 22 32  2  0  0  0
 26 27  1  0  0  0
 28100  1  0  0  0
 28101  1  0  0  0
 29102  1  0  0  0
 29103  1  0  0  0
 33 34  1  0  0  0
 33 66  1  0  0  0
 33 70  2  0  0  0
 34 36  1  0  0  0
 34 59  1  0  0  0
 34104  1  0  0  0
 35 44  2  0  0  0
 35 45  1  0  0  0
 35 68  1  0  0  0
 36 56  1  0  0  0
 36105  1  0  0  0
 37 39  1  0  0  0
 37 47  1  0  0  0
 37 66  1  0  0  0
 37106  1  0  0  0
 38 43  2  0  0  0
 38 46  1  0  0  0
 38 47  1  0  0  0
 39 64  1  0  0  0
 39 67  2  0  0  0
 40 52  1  0  0  0
 40 53  2  0  0  0
 40 58  1  0  0  0
 41107  1  0  0  0
 41108  1  0  0  0
 41109  1  0  0  0
 41 48  1  0  0  0
 42 43  1  0  0  0
 42 66  1  0  0  0
 42110  1  0  0  0
 42111  1  0  0  0
 43 44  1  0  0  0
 44112  1  0  0  0
 45 46  2  0  0  0
 45113  1  0  0  0
 46114  1  0  0  0
 47115  1  0  0  0
 47116  1  0  0  0
 48 56  1  0  0  0
 48 65  1  0  0  0
 48117  1  0  0  0
 49 50  1  0  0  0
 49 53  1  0  0  0
 49 64  1  0  0  0
 49118  1  0  0  0
 50 51  1  0  0  0
 50119  1  0  0  0
 50120  1  0  0  0
 51 52  1  0  0  0
 51121  1  0  0  0
 51122  1  0  0  0
 52123  1  0  0  0
 52124  1  0  0  0
 53 54  1  0  0  0
 54 55  2  0  0  0
 54125  1  0  0  0
 55 57  1  0  0  0
 55126  1  0  0  0
 56 69  2  0  0  0
 57 58  2  0  0  0
 57127  1  0  0  0
 58128  1  0  0  0
 59 60  1  0  0  0
 59 61  1  0  0  0
 59 62  1  0  0  0
 60129  1  0  0  0
 60130  1  0  0  0
 60131  1  0  0  0
 61132  1  0  0  0
 61133  1  0  0  0
 61134  1  0  0  0
 62135  1  0  0  0
 62136  1  0  0  0
 62137  1  0  0  0
 63 65  1  0  0  0
 63138  1  0  0  0
 63139  1  0  0  0
 63140  1  0  0  0
 64141  1  0  0  0
 65142  1  0  0  0
 68 78  1  0  0  0
 71 72  2  0  0  0
 71 74  1  0  0  0
 71143  1  0  0  0
 72 76  1  0  0  0
 72144  1  0  0  0
 73 74  2  0  0  0
 73 75  1  0  0  0
 73145  1  0  0  0
 74 77  1  0  0  0
 75 76  2  0  0  0
 75 80  1  0  0  0
 76 83  1  0  0  0
 77 81  1  0  0  0
 77 82  2  0  0  0
 78 79  1  0  0  0
 78146  1  0  0  0
 78147  1  0  0  0
 79 83  1  0  0  0
 79148  1  0  0  0
 79149  1  0  0  0
 80150  1  0  0  0
 80151  1  0  0  0
 81152  1  0  0  0
 82153  1  0  0  0
 82154  1  0  0  0
M  CHG  1  82   1
M  ISO  4   1 100  68 101  78 101  81 100
M  END
> <chiral flag>
0

> <version>
0

> <s_m_source_file>
/data/baiqing/PycharmProjects/Reinvent-master-3.2/result/LINK_invent/BTK/process_docking_weight1_custom_product_contain_oxygen_bond_distance_aromatic_linkinvent_7_9_3/rearranged_h_0096.sdf

> <i_m_source_file_index>
12

> <r_mmod_Potential_Energy-OPLS-2005>
-182.826583862305

> <r_mmod_Stretch_Energy-OPLS-2005>
80.8765258789062

> <r_mmod_Bend_Energy-OPLS-2005>
159.249084472656

> <r_mmod_Torsional_Energy-OPLS-2005>
208.986373901367

> <r_mmod_Improper_Torsional_Energy-OPLS-2005>
11.8008003234863

> <r_mmod_Van_der_Waal_Energy-OPLS-2005>
171.971008300781

> <r_mmod_Electrostatic_Energy-OPLS-2005>
-432.541198730469

> <r_mmod_Solvation_Energy-OPLS-2005>
-438.919342041016

> <b_mmod_Minimization_Converged-OPLS-2005>
0

> <r_mmod_RMS_Derivative-OPLS-2005>
2.61839199066162

$$$$
12
                    3D
 Structure written by MMmdl.
156164  0  0  1  0            999 V2000
  -30.6715  -14.6612   20.5801 C   0  0  0  0  0  0
  -30.4369  -12.4310   19.4671 C   0  0  0  0  0  0
  -29.5097  -12.5130   18.2362 C   0  0  0  0  0  0
  -28.0369  -12.3375   18.6498 C   0  0  0  0  0  0
  -27.6542  -13.2215   19.8656 C   0  0  2  0  0  0
  -28.6940  -13.1058   21.0013 C   0  0  0  0  0  0
  -25.2532  -13.8188   20.5665 C   0  0  0  0  0  0
  -24.1814  -13.0454   20.9205 C   0  0  0  0  0  0
  -24.6400  -11.6925   20.8770 C   0  0  0  0  0  0
  -23.9075  -10.4301   21.0426 C   0  0  0  0  0  0
  -24.3635   -9.4208   21.9191 C   0  0  0  0  0  0
  -23.6315   -8.2235   22.0750 C   0  0  0  0  0  0
  -22.4292   -8.0282   21.3540 C   0  0  0  0  0  0
  -21.9939   -9.0253   20.4628 C   0  0  0  0  0  0
  -22.7266  -10.2139   20.3036 C   0  0  0  0  0  0
  -21.6854   -6.0736   22.5273 C   0  0  0  0  0  0
  -21.4021   -6.5645   23.8210 C   0  0  0  0  0  0
  -21.3671   -5.6804   24.9169 C   0  0  0  0  0  0
  -21.6058   -4.3069   24.7224 C   0  0  0  0  0  0
  -21.8828   -3.8152   23.4350 C   0  0  0  0  0  0
  -21.9194   -4.6963   22.3398 C   0  0  0  0  0  0
  -22.7830  -13.5246   21.1865 C   0  0  0  0  0  0
  -22.1650   -4.2140   21.0981 F   0  0  0  0  0  0
  -21.5640   -3.4556   25.7744 F   0  0  0  0  0  0
  -30.0109  -13.4597   20.4460 N   0  0  0  0  0  0
  -26.2993  -12.9388   20.3321 N   0  0  0  0  0  0
  -25.9340  -11.6536   20.5793 N   0  0  0  0  0  0
  -22.0450  -12.8252   22.0424 N   0  0  0  0  0  0
  -25.4199  -15.1903   20.4037 N   0  0  0  0  0  0
  -31.7750  -14.8243   20.0488 O   0  0  0  0  0  0
  -21.6636   -6.8891   21.4237 O   0  0  0  0  0  0
  -22.3531  -14.5536   20.6687 O   0  0  0  0  0  0
  -24.6312  -31.8592   23.2005 C   0  0  0  0  0  0
  -25.9160  -32.4775   23.8340 C   0  0  1  0  0  0
  -27.2167  -27.2786   20.1190 C   0  0  0  0  0  0
  -25.5971  -33.8577   24.2278 N   0  0  0  0  0  0
  -23.4258  -30.4871   21.5431 C   0  0  2  0  0  0
  -24.8745  -28.9423   20.1082 C   0  0  0  0  0  0
  -22.7498  -29.4633   22.4878 C   0  0  0  0  0  0
  -18.0300  -28.1395   22.8491 C   0  0  0  0  0  0
  -24.1487  -36.7268   23.2633 C   0  0  0  0  0  0
  -25.9736  -30.7740   21.3840 C   0  0  0  0  0  0
  -26.0456  -29.3989   20.7259 C   0  0  0  0  0  0
  -27.2191  -28.5766   20.7302 C   0  0  0  0  0  0
  -26.0239  -26.9030   19.4537 C   0  0  0  0  0  0
  -24.8667  -27.7004   19.4629 C   0  0  0  0  0  0
  -23.6459  -29.8289   20.1568 C   0  0  0  0  0  0
  -25.4115  -36.3070   24.0329 C   0  0  1  0  0  0
  -20.5904  -28.3713   23.1257 C   0  0  2  0  0  0
  -20.6787  -26.9429   22.5397 C   0  0  0  0  0  0
  -19.5757  -26.6396   21.5204 C   0  0  0  0  0  0
  -18.1943  -26.7942   22.1622 C   0  0  0  0  0  0
  -19.1551  -28.8869   23.2881 C   0  0  0  0  0  0
  -18.9462  -30.1470   23.8900 C   0  0  0  0  0  0
  -17.6458  -30.6598   24.0569 C   0  0  0  0  0  0
  -25.9060  -34.9447   23.5093 C   0  0  0  0  0  0
  -16.5353  -29.9094   23.6335 C   0  0  0  0  0  0
  -16.7284  -28.6510   23.0365 C   0  0  0  0  0  0
  -26.4524  -31.6586   25.0720 C   0  0  0  0  0  0
  -25.3737  -31.3746   26.1425 C   0  0  0  0  0  0
  -27.0368  -30.3001   24.6204 C   0  0  0  0  0  0
  -27.6078  -32.4312   25.7506 C   0  0  0  0  0  0
  -27.5571  -37.1795   24.8466 C   0  0  0  0  0  0
  -21.4208  -29.3060   22.3620 N   0  0  0  0  0  0
  -26.4279  -37.3775   23.9416 N   0  0  0  0  0  0
  -24.6954  -31.0569   22.0986 N   0  0  0  0  0  0
  -23.4208  -28.8166   23.2970 O   0  0  0  0  0  0
  -28.2758  -26.3411   20.1864 O   0  0  0  0  0  0
  -26.5594  -34.8919   22.4641 O   0  0  0  0  0  0
  -23.5473  -32.1407   23.7311 O   0  0  0  0  0  0
  -30.7822  -18.1377   21.1157 C   0  0  0  0  0  0
  -30.4515  -19.5195   20.8960 C   0  0  0  0  0  0
  -28.6040  -17.4707   20.3603 C   0  0  0  0  0  0
  -29.8668  -17.0678   20.8630 C   0  0  0  0  0  0
  -29.1687  -19.9103   20.4210 C   0  0  0  0  0  0
  -28.2697  -18.8420   20.1500 C   0  0  0  0  0  0
  -27.8744  -24.9807   20.1536 C   0  0  0  0  0  0
  -27.9556  -23.5854   20.2097 C   0  0  0  0  0  0
  -29.0494  -22.5670   20.4793 C   0  0  0  0  0  0
  -29.1735  -16.2208   23.6101 C   0  0  0  0  0  0
  -30.2901  -15.5489   22.7807 C   0  0  0  0  0  0
  -28.6647  -21.2733   20.1828 N   0  0  0  0  0  0
  -30.0954  -15.6809   21.3229 N   0  0  0  0  0  0
  -30.1677  -22.8301   20.9258 O   0  0  0  0  0  0
  -26.7435  -23.0387   20.0116 O   0  0  0  0  0  0
  -27.0237  -19.1453   19.7102 F   0  0  0  0  0  0
  -31.4755  -12.5542   19.1569 H   0  0  0  0  0  0
  -30.3865  -11.4413   19.9220 H   0  0  0  0  0  0
  -29.7867  -11.7511   17.5058 H   0  0  0  0  0  0
  -29.6382  -13.4739   17.7366 H   0  0  0  0  0  0
  -27.8850  -11.2866   18.8980 H   0  0  0  0  0  0
  -27.3810  -12.5489   17.8056 H   0  0  0  0  0  0
  -27.6705  -14.2514   19.5142 H   0  0  0  0  0  0
  -28.7197  -12.0914   21.4023 H   0  0  0  0  0  0
  -28.4089  -13.7474   21.8353 H   0  0  0  0  0  0
  -25.2780   -9.5686   22.4780 H   0  0  0  0  0  0
  -24.0037   -7.4614   22.7445 H   0  0  0  0  0  0
  -21.0884   -8.8758   19.8917 H   0  0  0  0  0  0
  -22.3723  -10.9677   19.6138 H   0  0  0  0  0  0
  -21.2001   -7.6158   23.9691 H   0  0  0  0  0  0
  -21.1500   -6.0545   25.9065 H   0  0  0  0  0  0
  -22.0609   -2.7611   23.2855 H   0  0  0  0  0  0
  -22.4021  -11.9890   22.4803 H   0  0  0  0  0  0
  -21.1115  -13.1373   22.2702 H   0  0  0  0  0  0
  -24.6488  -15.8432   20.4985 H   0  0  0  0  0  0
  -26.2588  -15.6167   20.0367 H   0  0  0  0  0  0
  -26.7233  -32.5441   23.1086 H   0  0  0  0  0  0
  -25.0187  -33.9729   25.0468 H   0  0  0  0  0  0
  -22.7201  -31.3091   21.4024 H   0  0  0  0  0  0
  -23.3756  -35.9590   23.3298 H   0  0  0  0  0  0
  -24.3562  -36.8874   22.2039 H   0  0  0  0  0  0
  -23.7233  -37.6477   23.6642 H   0  0  0  0  0  0
  -26.1152  -31.5350   20.6159 H   0  0  0  0  0  0
  -26.8489  -30.8199   22.0194 H   0  0  0  0  0  0
  -28.1099  -28.9168   21.2396 H   0  0  0  0  0  0
  -25.9489  -25.9569   18.9373 H   0  0  0  0  0  0
  -23.9724  -27.3506   18.9668 H   0  0  0  0  0  0
  -23.7715  -30.6084   19.4041 H   0  0  0  0  0  0
  -22.7637  -29.2649   19.8479 H   0  0  0  0  0  0
  -25.1301  -36.1905   25.0821 H   0  0  0  0  0  0
  -21.0021  -28.3298   24.1367 H   0  0  0  0  0  0
  -20.5677  -26.2329   23.3609 H   0  0  0  0  0  0
  -21.6662  -26.7454   22.1194 H   0  0  0  0  0  0
  -19.6913  -25.6300   21.1253 H   0  0  0  0  0  0
  -19.6693  -27.3185   20.6718 H   0  0  0  0  0  0
  -17.4214  -26.6699   21.4022 H   0  0  0  0  0  0
  -18.0348  -26.0071   22.9008 H   0  0  0  0  0  0
  -19.7931  -30.7302   24.2261 H   0  0  0  0  0  0
  -17.5010  -31.6276   24.5171 H   0  0  0  0  0  0
  -15.5353  -30.3006   23.7650 H   0  0  0  0  0  0
  -15.8685  -28.0835   22.7083 H   0  0  0  0  0  0
  -24.5928  -30.7082   25.7740 H   0  0  0  0  0  0
  -24.8910  -32.2927   26.4789 H   0  0  0  0  0  0
  -25.8037  -30.8962   27.0233 H   0  0  0  0  0  0
  -26.2963  -29.6758   24.1189 H   0  0  0  0  0  0
  -27.4013  -29.7250   25.4726 H   0  0  0  0  0  0
  -27.8861  -30.4268   23.9483 H   0  0  0  0  0  0
  -27.2694  -33.3615   26.2078 H   0  0  0  0  0  0
  -28.3906  -32.6861   25.0349 H   0  0  0  0  0  0
  -28.0734  -31.8438   26.5427 H   0  0  0  0  0  0
  -28.2603  -38.0083   24.7523 H   0  0  0  0  0  0
  -28.1063  -36.2619   24.6292 H   0  0  0  0  0  0
  -27.2287  -37.1442   25.8869 H   0  0  0  0  0  0
  -20.9371  -29.8784   21.6835 H   0  0  0  0  0  0
  -26.0154  -38.2846   24.1427 H   0  0  0  0  0  0
  -31.7562  -17.9031   21.5228 H   0  0  0  0  0  0
  -31.1882  -20.2770   21.1182 H   0  0  0  0  0  0
  -27.8386  -16.7282   20.1988 H   0  0  0  0  0  0
  -28.9260  -24.8937   20.3728 H   0  0  0  0  0  0
  -29.3849  -16.1309   24.6763 H   0  0  0  0  0  0
  -28.2027  -15.7580   23.4263 H   0  0  0  0  0  0
  -29.0788  -17.2876   23.3987 H   0  0  0  0  0  0
  -30.3571  -14.4999   23.0813 H   0  0  0  0  0  0
  -31.2555  -15.9876   23.0445 H   0  0  0  0  0  0
  -27.7765  -21.2473   19.7020 H   0  0  0  0  0  0
  -26.7404  -22.1933   20.4406 H   0  0  0  0  0  0
  1 25  1  0  0  0
  1 30  2  0  0  0
  1 83  1  0  0  0
  2  3  1  0  0  0
  2 25  1  0  0  0
  2 87  1  0  0  0
  2 88  1  0  0  0
  3  4  1  0  0  0
  3 89  1  0  0  0
  3 90  1  0  0  0
  4  5  1  0  0  0
  4 91  1  0  0  0
  4 92  1  0  0  0
  5  6  1  0  0  0
  5 26  1  0  0  0
  5 93  1  0  0  0
  6 25  1  0  0  0
  6 94  1  0  0  0
  6 95  1  0  0  0
  7  8  2  0  0  0
  7 26  1  0  0  0
  7 29  1  0  0  0
  8  9  1  0  0  0
  8 22  1  0  0  0
  9 10  1  0  0  0
  9 27  2  0  0  0
 10 11  2  0  0  0
 10 15  1  0  0  0
 11 12  1  0  0  0
 11 96  1  0  0  0
 12 13  2  0  0  0
 12 97  1  0  0  0
 13 14  1  0  0  0
 13 31  1  0  0  0
 14 15  2  0  0  0
 14 98  1  0  0  0
 15 99  1  0  0  0
 16 17  2  0  0  0
 16 21  1  0  0  0
 16 31  1  0  0  0
 17 18  1  0  0  0
 17100  1  0  0  0
 18 19  2  0  0  0
 18101  1  0  0  0
 19 20  1  0  0  0
 19 24  1  0  0  0
 20 21  2  0  0  0
 20102  1  0  0  0
 21 23  1  0  0  0
 22 28  1  0  0  0
 22 32  2  0  0  0
 26 27  1  0  0  0
 28103  1  0  0  0
 28104  1  0  0  0
 29105  1  0  0  0
 29106  1  0  0  0
 33 34  1  0  0  0
 33 66  1  0  0  0
 33 70  2  0  0  0
 34 36  1  0  0  0
 34 59  1  0  0  0
 34107  1  0  0  0
 35 44  2  0  0  0
 35 45  1  0  0  0
 35 68  1  0  0  0
 36 56  1  0  0  0
 36108  1  0  0  0
 37 39  1  0  0  0
 37 47  1  0  0  0
 37 66  1  0  0  0
 37109  1  0  0  0
 38 43  2  0  0  0
 38 46  1  0  0  0
 38 47  1  0  0  0
 39 64  1  0  0  0
 39 67  2  0  0  0
 40 52  1  0  0  0
 40 53  2  0  0  0
 40 58  1  0  0  0
 41110  1  0  0  0
 41111  1  0  0  0
 41112  1  0  0  0
 41 48  1  0  0  0
 42 43  1  0  0  0
 42 66  1  0  0  0
 42113  1  0  0  0
 42114  1  0  0  0
 43 44  1  0  0  0
 44115  1  0  0  0
 45 46  2  0  0  0
 45116  1  0  0  0
 46117  1  0  0  0
 47118  1  0  0  0
 47119  1  0  0  0
 48 56  1  0  0  0
 48 65  1  0  0  0
 48120  1  0  0  0
 49 50  1  0  0  0
 49 53  1  0  0  0
 49 64  1  0  0  0
 49121  1  0  0  0
 50 51  1  0  0  0
 50122  1  0  0  0
 50123  1  0  0  0
 51 52  1  0  0  0
 51124  1  0  0  0
 51125  1  0  0  0
 52126  1  0  0  0
 52127  1  0  0  0
 53 54  1  0  0  0
 54 55  2  0  0  0
 54128  1  0  0  0
 55 57  1  0  0  0
 55129  1  0  0  0
 56 69  2  0  0  0
 57 58  2  0  0  0
 57130  1  0  0  0
 58131  1  0  0  0
 59 60  1  0  0  0
 59 61  1  0  0  0
 59 62  1  0  0  0
 60132  1  0  0  0
 60133  1  0  0  0
 60134  1  0  0  0
 61135  1  0  0  0
 61136  1  0  0  0
 61137  1  0  0  0
 62138  1  0  0  0
 62139  1  0  0  0
 62140  1  0  0  0
 63 65  1  0  0  0
 63141  1  0  0  0
 63142  1  0  0  0
 63143  1  0  0  0
 64144  1  0  0  0
 65145  1  0  0  0
 68 77  1  0  0  0
 71 72  2  0  0  0
 71 74  1  0  0  0
 71146  1  0  0  0
 72 75  1  0  0  0
 72147  1  0  0  0
 73 74  2  0  0  0
 73 76  1  0  0  0
 73148  1  0  0  0
 74 83  1  0  0  0
 75 76  2  0  0  0
 75 82  1  0  0  0
 76 86  1  0  0  0
 77 78  2  0  0  0
 77149  1  0  0  0
 78 79  1  0  0  0
 78 85  1  0  0  0
 79 82  1  0  0  0
 79 84  2  0  0  0
 80 81  1  0  0  0
 80150  1  0  0  0
 80151  1  0  0  0
 80152  1  0  0  0
 81 83  1  0  0  0
 81153  1  0  0  0
 81154  1  0  0  0
 82155  1  0  0  0
 85156  1  0  0  0
M  ISO  4   1 100  68 101  77 101  83 100
M  END
> <chiral flag>
0

> <version>
0

> <s_m_source_file>
/data/baiqing/PycharmProjects/Reinvent-master-3.2/result/LINK_invent/BTK/process_docking_weight1_custom_product_contain_oxygen_bond_distance_aromatic_linkinvent_7_9_3/rearranged_h_0096.sdf

> <i_m_source_file_index>
13

> <r_mmod_Potential_Energy-OPLS-2005>
580.603576660156

> <r_mmod_Stretch_Energy-OPLS-2005>
102.640724182129

> <r_mmod_Bend_Energy-OPLS-2005>
480.870758056641

> <r_mmod_Torsional_Energy-OPLS-2005>
320.090698242188

> <r_mmod_Improper_Torsional_Energy-OPLS-2005>
5.50644254684448

> <r_mmod_Van_der_Waal_Energy-OPLS-2005>
155.41374206543

> <r_mmod_Electrostatic_Energy-OPLS-2005>
-337.301177978516

> <r_mmod_Solvation_Energy-OPLS-2005>
-213.93620300293

> <b_mmod_Minimization_Converged-OPLS-2005>
0

> <r_mmod_RMS_Derivative-OPLS-2005>
2.93356108665466

$$$$
13
                    3D
 Structure written by MMmdl.
162171  0  0  1  0            999 V2000
  -30.6316  -14.7217   20.3588 C   0  0  0  0  0  0
  -30.4288  -12.4266   19.4402 C   0  0  0  0  0  0
  -29.4888  -12.4375   18.2151 C   0  0  0  0  0  0
  -28.0213  -12.2834   18.6534 C   0  0  0  0  0  0
  -27.6356  -13.2123   19.8355 C   0  0  2  0  0  0
  -28.6955  -13.1930   20.9550 C   0  0  0  0  0  0
  -25.2521  -13.8167   20.5735 C   0  0  0  0  0  0
  -24.1805  -13.0434   20.9263 C   0  0  0  0  0  0
  -24.6365  -11.6898   20.8801 C   0  0  0  0  0  0
  -23.9040  -10.4283   21.0440 C   0  0  0  0  0  0
  -24.3596   -9.4193   21.9211 C   0  0  0  0  0  0
  -23.6278   -8.2227   22.0761 C   0  0  0  0  0  0
  -22.4264   -8.0268   21.3543 C   0  0  0  0  0  0
  -21.9898   -9.0244   20.4647 C   0  0  0  0  0  0
  -22.7220  -10.2127   20.3071 C   0  0  0  0  0  0
  -21.6843   -6.0726   22.5283 C   0  0  0  0  0  0
  -21.4006   -6.5630   23.8217 C   0  0  0  0  0  0
  -21.3658   -5.6785   24.9179 C   0  0  0  0  0  0
  -21.6048   -4.3049   24.7230 C   0  0  0  0  0  0
  -21.8821   -3.8139   23.4350 C   0  0  0  0  0  0
  -21.9186   -4.6954   22.3406 C   0  0  0  0  0  0
  -22.7819  -13.5225   21.1891 C   0  0  0  0  0  0
  -22.1653   -4.2139   21.0981 F   0  0  0  0  0  0
  -21.5631   -3.4533   25.7742 F   0  0  0  0  0  0
  -29.9814  -13.5140   20.3295 N   0  0  0  0  0  0
  -26.2921  -12.9338   20.3295 N   0  0  0  0  0  0
  -25.9286  -11.6498   20.5813 N   0  0  0  0  0  0
  -22.0443  -12.8225   22.0429 N   0  0  0  0  0  0
  -25.4152  -15.1884   20.4107 N   0  0  0  0  0  0
  -31.8665  -14.7385   20.3683 O   0  0  0  0  0  0
  -21.6627   -6.8869   21.4241 O   0  0  0  0  0  0
  -22.3507  -14.5521   20.6706 O   0  0  0  0  0  0
  -24.6261  -31.8590   23.2021 C   0  0  0  0  0  0
  -25.9102  -32.4764   23.8364 C   0  0  1  0  0  0
  -27.2210  -27.3075   20.1460 C   0  0  0  0  0  0
  -25.5925  -33.8569   24.2281 N   0  0  0  0  0  0
  -23.4206  -30.4807   21.5436 C   0  0  2  0  0  0
  -24.8683  -28.9247   20.1233 C   0  0  0  0  0  0
  -22.7472  -29.4624   22.4942 C   0  0  0  0  0  0
  -18.0286  -28.1385   22.8490 C   0  0  0  0  0  0
  -24.1490  -36.7287   23.2641 C   0  0  0  0  0  0
  -25.9615  -30.7865   21.3747 C   0  0  0  0  0  0
  -26.0355  -29.4085   20.7289 C   0  0  0  0  0  0
  -27.2168  -28.6100   20.7322 C   0  0  0  0  0  0
  -26.0420  -26.8775   19.5090 C   0  0  0  0  0  0
  -24.8715  -27.6622   19.5053 C   0  0  0  0  0  0
  -23.6385  -29.8091   20.1621 C   0  0  0  0  0  0
  -25.4113  -36.3066   24.0325 C   0  0  1  0  0  0
  -20.5885  -28.3691   23.1281 C   0  0  2  0  0  0
  -20.6779  -26.9412   22.5414 C   0  0  0  0  0  0
  -19.5761  -26.6392   21.5214 C   0  0  0  0  0  0
  -18.1935  -26.7936   22.1621 C   0  0  0  0  0  0
  -19.1538  -28.8857   23.2882 C   0  0  0  0  0  0
  -18.9469  -30.1457   23.8905 C   0  0  0  0  0  0
  -17.6470  -30.6590   24.0566 C   0  0  0  0  0  0
  -25.9049  -34.9437   23.5098 C   0  0  0  0  0  0
  -16.5357  -29.9084   23.6331 C   0  0  0  0  0  0
  -16.7278  -28.6498   23.0356 C   0  0  0  0  0  0
  -26.4490  -31.6567   25.0729 C   0  0  0  0  0  0
  -25.3726  -31.3676   26.1460 C   0  0  0  0  0  0
  -27.0337  -30.2994   24.6164 C   0  0  0  0  0  0
  -27.6069  -32.4300   25.7473 C   0  0  0  0  0  0
  -27.5568  -37.1790   24.8465 C   0  0  0  0  0  0
  -21.4189  -29.3039   22.3675 N   0  0  0  0  0  0
  -26.4289  -37.3760   23.9409 N   0  0  0  0  0  0
  -24.6876  -31.0602   22.0970 N   0  0  0  0  0  0
  -23.4184  -28.8158   23.3027 O   0  0  0  0  0  0
  -28.3530  -26.4898   20.0957 O   0  0  0  0  0  0
  -26.5619  -34.8899   22.4663 O   0  0  0  0  0  0
  -23.5424  -32.1402   23.7342 O   0  0  0  0  0  0
  -29.7526  -19.3881   20.9545 C   0  0  0  0  0  0
  -30.2065  -18.0278   20.8146 C   0  0  0  0  0  0
  -27.7790  -18.8367   19.7198 C   0  0  0  0  0  0
  -28.5191  -19.8470   20.3988 C   0  0  0  0  0  0
  -29.4650  -17.0381   20.1003 C   0  0  0  0  0  0
  -28.2325  -17.4988   19.5559 C   0  0  0  0  0  0
  -25.9142  -22.4875   21.3010 C   0  0  0  0  0  0
  -28.6043  -22.4359   20.3754 C   0  0  0  0  0  0
  -26.2880  -23.7564   20.5652 C   0  0  0  0  0  0
  -26.4670  -21.2180   20.6704 C   0  0  0  0  0  0
  -27.7930  -23.8235   20.1846 C   0  0  1  0  0  0
  -30.5779  -15.8980   18.2906 C   0  0  0  0  0  0
  -28.4027  -25.1781   20.7929 C   0  0  0  0  0  0
  -27.9418  -21.2150   20.5248 N   0  0  0  0  0  0
  -27.4583  -16.6522   18.7655 N   0  0  0  0  0  0
  -30.0124  -15.7418   19.6479 N   0  0  0  0  0  0
  -25.2070  -22.4869   22.3104 O   0  0  0  0  0  0
  -29.8373  -22.4886   20.3541 O   0  0  0  0  0  0
  -31.4638  -12.5577   19.1183 H   0  0  0  0  0  0
  -30.3885  -11.4665   19.9569 H   0  0  0  0  0  0
  -29.7606  -11.6328   17.5305 H   0  0  0  0  0  0
  -29.5985  -13.3606   17.6491 H   0  0  0  0  0  0
  -27.8827  -11.2420   18.9469 H   0  0  0  0  0  0
  -27.3530  -12.4490   17.8081 H   0  0  0  0  0  0
  -27.6170  -14.2151   19.4255 H   0  0  0  0  0  0
  -28.7373  -12.2183   21.4429 H   0  0  0  0  0  0
  -28.4519  -13.9276   21.7255 H   0  0  0  0  0  0
  -25.2732   -9.5668   22.4797 H   0  0  0  0  0  0
  -23.9984   -7.4611   22.7470 H   0  0  0  0  0  0
  -21.0842   -8.8760   19.8942 H   0  0  0  0  0  0
  -22.3683  -10.9675   19.6189 H   0  0  0  0  0  0
  -21.1990   -7.6136   23.9719 H   0  0  0  0  0  0
  -21.1481   -6.0512   25.9088 H   0  0  0  0  0  0
  -22.0600   -2.7599   23.2853 H   0  0  0  0  0  0
  -22.4038  -11.9889   22.4848 H   0  0  0  0  0  0
  -21.1049  -13.1246   22.2588 H   0  0  0  0  0  0
  -24.6335  -15.8273   20.4937 H   0  0  0  0  0  0
  -26.2246  -15.6263   19.9604 H   0  0  0  0  0  0
  -26.7172  -32.5433   23.1118 H   0  0  0  0  0  0
  -25.0083  -33.9725   25.0431 H   0  0  0  0  0  0
  -22.7151  -31.3006   21.3934 H   0  0  0  0  0  0
  -23.3741  -35.9628   23.3310 H   0  0  0  0  0  0
  -24.3597  -36.8915   22.2058 H   0  0  0  0  0  0
  -23.7258  -37.6489   23.6674 H   0  0  0  0  0  0
  -26.0902  -31.5448   20.6013 H   0  0  0  0  0  0
  -26.8446  -30.8436   21.9995 H   0  0  0  0  0  0
  -28.1175  -28.9808   21.2019 H   0  0  0  0  0  0
  -26.0282  -25.9267   18.9987 H   0  0  0  0  0  0
  -23.9796  -27.2881   19.0215 H   0  0  0  0  0  0
  -23.7613  -30.5822   19.4035 H   0  0  0  0  0  0
  -22.7597  -29.2369   19.8583 H   0  0  0  0  0  0
  -25.1286  -36.1919   25.0816 H   0  0  0  0  0  0
  -20.9980  -28.3288   24.1399 H   0  0  0  0  0  0
  -20.5699  -26.2302   23.3614 H   0  0  0  0  0  0
  -21.6648  -26.7460   22.1194 H   0  0  0  0  0  0
  -19.6936  -25.6305   21.1236 H   0  0  0  0  0  0
  -19.6701  -27.3219   20.6757 H   0  0  0  0  0  0
  -17.4202  -26.6698   21.4011 H   0  0  0  0  0  0
  -18.0318  -26.0068   22.9007 H   0  0  0  0  0  0
  -19.7946  -30.7264   24.2279 H   0  0  0  0  0  0
  -17.5023  -31.6273   24.5166 H   0  0  0  0  0  0
  -15.5355  -30.2986   23.7656 H   0  0  0  0  0  0
  -15.8678  -28.0820   22.7066 H   0  0  0  0  0  0
  -24.5972  -30.6929   25.7805 H   0  0  0  0  0  0
  -24.8817  -32.2806   26.4836 H   0  0  0  0  0  0
  -25.8082  -30.8932   27.0267 H   0  0  0  0  0  0
  -26.2911  -29.6722   24.1220 H   0  0  0  0  0  0
  -27.4072  -29.7256   25.4656 H   0  0  0  0  0  0
  -27.8751  -30.4274   23.9353 H   0  0  0  0  0  0
  -27.2724  -33.3647   26.1983 H   0  0  0  0  0  0
  -28.3894  -32.6788   25.0286 H   0  0  0  0  0  0
  -28.0702  -31.8454   26.5429 H   0  0  0  0  0  0
  -28.2577  -38.0088   24.7514 H   0  0  0  0  0  0
  -28.1066  -36.2626   24.6293 H   0  0  0  0  0  0
  -27.2290  -37.1440   25.8864 H   0  0  0  0  0  0
  -20.9374  -29.8740   21.6863 H   0  0  0  0  0  0
  -26.0159  -38.2825   24.1430 H   0  0  0  0  0  0
  -30.3760  -20.0844   21.4977 H   0  0  0  0  0  0
  -31.1779  -17.7672   21.2101 H   0  0  0  0  0  0
  -26.8368  -19.0936   19.2588 H   0  0  0  0  0  0
  -25.9919  -24.6065   21.1800 H   0  0  0  0  0  0
  -25.6758  -23.8013   19.6650 H   0  0  0  0  0  0
  -25.9993  -21.1100   19.6920 H   0  0  0  0  0  0
  -26.1461  -20.3752   21.2838 H   0  0  0  0  0  0
  -27.8293  -23.9601   19.1035 H   0  0  0  0  0  0
  -31.3330  -16.6861   18.2891 H   0  0  0  0  0  0
  -29.8155  -16.1767   17.5643 H   0  0  0  0  0  0
  -31.0657  -15.0025   17.9007 H   0  0  0  0  0  0
  -29.4675  -25.0115   20.9582 H   0  0  0  0  0  0
  -28.0045  -25.3243   21.7976 H   0  0  0  0  0  0
  -26.8219  -17.1016   18.1156 H   0  0  0  0  0  0
  -27.9766  -15.9066   18.3164 H   0  0  0  0  0  0
  1 25  1  0  0  0
  1 30  2  0  0  0
  1 86  1  0  0  0
  2  3  1  0  0  0
  2 25  1  0  0  0
  2 89  1  0  0  0
  2 90  1  0  0  0
  3  4  1  0  0  0
  3 91  1  0  0  0
  3 92  1  0  0  0
  4  5  1  0  0  0
  4 93  1  0  0  0
  4 94  1  0  0  0
  5  6  1  0  0  0
  5 26  1  0  0  0
  5 95  1  0  0  0
  6 25  1  0  0  0
  6 96  1  0  0  0
  6 97  1  0  0  0
  7  8  2  0  0  0
  7 26  1  0  0  0
  7 29  1  0  0  0
  8  9  1  0  0  0
  8 22  1  0  0  0
  9 10  1  0  0  0
  9 27  2  0  0  0
 10 11  2  0  0  0
 10 15  1  0  0  0
 11 12  1  0  0  0
 11 98  1  0  0  0
 12 13  2  0  0  0
 12 99  1  0  0  0
 13 14  1  0  0  0
 13 31  1  0  0  0
 14 15  2  0  0  0
 14100  1  0  0  0
 15101  1  0  0  0
 16 17  2  0  0  0
 16 21  1  0  0  0
 16 31  1  0  0  0
 17 18  1  0  0  0
 17102  1  0  0  0
 18 19  2  0  0  0
 18103  1  0  0  0
 19 20  1  0  0  0
 19 24  1  0  0  0
 20 21  2  0  0  0
 20104  1  0  0  0
 21 23  1  0  0  0
 22 28  1  0  0  0
 22 32  2  0  0  0
 26 27  1  0  0  0
 28105  1  0  0  0
 28106  1  0  0  0
 29107  1  0  0  0
 29108  1  0  0  0
 33 34  1  0  0  0
 33 66  1  0  0  0
 33 70  2  0  0  0
 34 36  1  0  0  0
 34 59  1  0  0  0
 34109  1  0  0  0
 35 44  2  0  0  0
 35 45  1  0  0  0
 35 68  1  0  0  0
 36 56  1  0  0  0
 36110  1  0  0  0
 37 39  1  0  0  0
 37 47  1  0  0  0
 37 66  1  0  0  0
 37111  1  0  0  0
 38 43  2  0  0  0
 38 46  1  0  0  0
 38 47  1  0  0  0
 39 64  1  0  0  0
 39 67  2  0  0  0
 40 52  1  0  0  0
 40 53  2  0  0  0
 40 58  1  0  0  0
 41112  1  0  0  0
 41113  1  0  0  0
 41114  1  0  0  0
 41 48  1  0  0  0
 42 43  1  0  0  0
 42 66  1  0  0  0
 42115  1  0  0  0
 42116  1  0  0  0
 43 44  1  0  0  0
 44117  1  0  0  0
 45 46  2  0  0  0
 45118  1  0  0  0
 46119  1  0  0  0
 47120  1  0  0  0
 47121  1  0  0  0
 48 56  1  0  0  0
 48 65  1  0  0  0
 48122  1  0  0  0
 49 50  1  0  0  0
 49 53  1  0  0  0
 49 64  1  0  0  0
 49123  1  0  0  0
 50 51  1  0  0  0
 50124  1  0  0  0
 50125  1  0  0  0
 51 52  1  0  0  0
 51126  1  0  0  0
 51127  1  0  0  0
 52128  1  0  0  0
 52129  1  0  0  0
 53 54  1  0  0  0
 54 55  2  0  0  0
 54130  1  0  0  0
 55 57  1  0  0  0
 55131  1  0  0  0
 56 69  2  0  0  0
 57 58  2  0  0  0
 57132  1  0  0  0
 58133  1  0  0  0
 59 60  1  0  0  0
 59 61  1  0  0  0
 59 62  1  0  0  0
 60134  1  0  0  0
 60135  1  0  0  0
 60136  1  0  0  0
 61137  1  0  0  0
 61138  1  0  0  0
 61139  1  0  0  0
 62140  1  0  0  0
 62141  1  0  0  0
 62142  1  0  0  0
 63 65  1  0  0  0
 63143  1  0  0  0
 63144  1  0  0  0
 63145  1  0  0  0
 64146  1  0  0  0
 65147  1  0  0  0
 68 83  1  0  0  0
 71 72  2  0  0  0
 71 74  1  0  0  0
 71148  1  0  0  0
 72 75  1  0  0  0
 72149  1  0  0  0
 73 74  2  0  0  0
 73 76  1  0  0  0
 73150  1  0  0  0
 74 84  1  0  0  0
 75 76  2  0  0  0
 75 86  1  0  0  0
 76 85  1  0  0  0
 77 79  1  0  0  0
 77 80  1  0  0  0
 77 87  2  0  0  0
 78 81  1  0  0  0
 78 84  1  0  0  0
 78 88  2  0  0  0
 79 81  1  0  0  0
 79151  1  0  0  0
 79152  1  0  0  0
 80 84  1  0  0  0
 80153  1  0  0  0
 80154  1  0  0  0
 81 83  1  0  0  0
 81155  1  0  0  0
 82 86  1  0  0  0
 82156  1  0  0  0
 82157  1  0  0  0
 82158  1  0  0  0
 83159  1  0  0  0
 83160  1  0  0  0
 85161  1  0  0  0
 85162  1  0  0  0
M  ISO  4   1 100  68 101  83 101  86 100
M  END
> <chiral flag>
0

> <version>
0

> <s_m_source_file>
/data/baiqing/PycharmProjects/Reinvent-master-3.2/result/LINK_invent/BTK/process_docking_weight1_custom_product_contain_oxygen_bond_distance_aromatic_linkinvent_7_9_3/rearranged_h_0096.sdf

> <i_m_source_file_index>
14

> <r_mmod_Potential_Energy-OPLS-2005>
332.320983886719

> <r_mmod_Stretch_Energy-OPLS-2005>
109.404014587402

> <r_mmod_Bend_Energy-OPLS-2005>
186.23307800293

> <r_mmod_Torsional_Energy-OPLS-2005>
408.438262939453

> <r_mmod_Improper_Torsional_Energy-OPLS-2005>
40.3504600524902

> <r_mmod_Van_der_Waal_Energy-OPLS-2005>
163.888122558594

> <r_mmod_Electrostatic_Energy-OPLS-2005>
-433.512359619141

> <r_mmod_Solvation_Energy-OPLS-2005>
-224.708847045898

> <b_mmod_Minimization_Converged-OPLS-2005>
0

> <r_mmod_RMS_Derivative-OPLS-2005>
1.91727805137634

$$$$
14
                    3D
 Structure written by MMmdl.
158167  0  0  1  0            999 V2000
  -30.6274  -14.6237   20.4944 C   0  0  0  0  0  0
  -30.4380  -12.3807   19.4454 C   0  0  0  0  0  0
  -29.5042  -12.5041   18.2204 C   0  0  0  0  0  0
  -28.0268  -12.3460   18.6341 C   0  0  0  0  0  0
  -27.6541  -13.2141   19.8656 C   0  0  2  0  0  0
  -28.7016  -13.0602   20.9918 C   0  0  0  0  0  0
  -25.2567  -13.8160   20.5702 C   0  0  0  0  0  0
  -24.1822  -13.0426   20.9160 C   0  0  0  0  0  0
  -24.6392  -11.6897   20.8722 C   0  0  0  0  0  0
  -23.9062  -10.4282   21.0395 C   0  0  0  0  0  0
  -24.3615   -9.4202   21.9178 C   0  0  0  0  0  0
  -23.6290   -8.2239   22.0750 C   0  0  0  0  0  0
  -22.4273   -8.0276   21.3541 C   0  0  0  0  0  0
  -21.9908   -9.0246   20.4641 C   0  0  0  0  0  0
  -22.7234  -10.2125   20.3047 C   0  0  0  0  0  0
  -21.6852   -6.0736   22.5278 C   0  0  0  0  0  0
  -21.4013   -6.5640   23.8211 C   0  0  0  0  0  0
  -21.3660   -5.6792   24.9172 C   0  0  0  0  0  0
  -21.6044   -4.3056   24.7222 C   0  0  0  0  0  0
  -21.8821   -3.8148   23.4344 C   0  0  0  0  0  0
  -21.9192   -4.6964   22.3401 C   0  0  0  0  0  0
  -22.7849  -13.5227   21.1839 C   0  0  0  0  0  0
  -22.1661   -4.2150   21.0978 F   0  0  0  0  0  0
  -21.5629   -3.4542   25.7739 F   0  0  0  0  0  0
  -30.0178  -13.3987   20.4270 N   0  0  0  0  0  0
  -26.3000  -12.9341   20.3354 N   0  0  0  0  0  0
  -25.9325  -11.6493   20.5766 N   0  0  0  0  0  0
  -22.0500  -12.8213   22.0400 N   0  0  0  0  0  0
  -25.4282  -15.1886   20.4205 N   0  0  0  0  0  0
  -31.7915  -14.7834   20.1168 O   0  0  0  0  0  0
  -21.6638   -6.8876   21.4240 O   0  0  0  0  0  0
  -22.3527  -14.5540   20.6707 O   0  0  0  0  0  0
  -24.6262  -31.8603   23.2044 C   0  0  0  0  0  0
  -25.9115  -32.4784   23.8366 C   0  0  1  0  0  0
  -27.2238  -27.3287   20.1095 C   0  0  0  0  0  0
  -25.5938  -33.8584   24.2294 N   0  0  0  0  0  0
  -23.4186  -30.4870   21.5456 C   0  0  2  0  0  0
  -24.8641  -28.9444   20.1111 C   0  0  0  0  0  0
  -22.7470  -29.4639   22.4925 C   0  0  0  0  0  0
  -18.0288  -28.1388   22.8477 C   0  0  0  0  0  0
  -24.1491  -36.7286   23.2636 C   0  0  0  0  0  0
  -25.9602  -30.7949   21.3735 C   0  0  0  0  0  0
  -26.0343  -29.4237   20.7133 C   0  0  0  0  0  0
  -27.2178  -28.6287   20.7007 C   0  0  0  0  0  0
  -26.0265  -26.8995   19.4888 C   0  0  0  0  0  0
  -24.8618  -27.6871   19.4911 C   0  0  0  0  0  0
  -23.6330  -29.8248   20.1599 C   0  0  0  0  0  0
  -25.4111  -36.3083   24.0337 C   0  0  1  0  0  0
  -20.5886  -28.3696   23.1270 C   0  0  2  0  0  0
  -20.6781  -26.9419   22.5394 C   0  0  0  0  0  0
  -19.5755  -26.6383   21.5202 C   0  0  0  0  0  0
  -18.1934  -26.7929   22.1615 C   0  0  0  0  0  0
  -19.1540  -28.8856   23.2875 C   0  0  0  0  0  0
  -18.9471  -30.1455   23.8898 C   0  0  0  0  0  0
  -17.6471  -30.6591   24.0561 C   0  0  0  0  0  0
  -25.9052  -34.9454   23.5111 C   0  0  0  0  0  0
  -16.5359  -29.9090   23.6331 C   0  0  0  0  0  0
  -16.7275  -28.6508   23.0346 C   0  0  0  0  0  0
  -26.4501  -31.6583   25.0726 C   0  0  0  0  0  0
  -25.3743  -31.3708   26.1458 C   0  0  0  0  0  0
  -27.0343  -30.3012   24.6165 C   0  0  0  0  0  0
  -27.6076  -32.4301   25.7490 C   0  0  0  0  0  0
  -27.5582  -37.1791   24.8463 C   0  0  0  0  0  0
  -21.4184  -29.3062   22.3677 N   0  0  0  0  0  0
  -26.4285  -37.3779   23.9423 N   0  0  0  0  0  0
  -24.6871  -31.0629   22.0985 N   0  0  0  0  0  0
  -23.4198  -28.8165   23.2990 O   0  0  0  0  0  0
  -28.3461  -26.4864   20.1492 O   0  0  0  0  0  0
  -26.5609  -34.8922   22.4671 O   0  0  0  0  0  0
  -23.5428  -32.1388   23.7386 O   0  0  0  0  0  0
  -31.1081  -19.2603   20.3327 C   0  0  0  0  0  0
  -31.0919  -17.8348   20.3473 C   0  0  0  0  0  0
  -28.7967  -19.3263   20.9969 C   0  0  0  0  0  0
  -29.9787  -20.0543   20.6989 C   0  0  0  0  0  0
  -29.9271  -17.1168   20.7189 C   0  0  0  0  0  0
  -28.7789  -17.8994   21.0151 C   0  0  0  0  0  0
  -31.0673  -22.0117   21.6608 C   0  0  0  0  0  0
  -31.2937  -23.5254   21.7883 C   0  0  0  0  0  0
  -30.0176  -24.3610   21.6767 C   0  0  0  0  0  0
  -28.9963  -22.4625   20.3696 C   0  0  0  0  0  0
  -29.3146  -24.0315   20.3659 C   0  0  1  0  0  0
  -28.1090  -25.0264   20.0964 C   0  0  0  0  0  0
  -30.0771  -21.5205   20.8554 N   0  0  0  0  0  0
  -29.8098  -15.6652   20.8302 N   0  0  0  0  0  0
  -31.8352  -21.2892   22.3068 O   0  0  0  0  0  0
  -27.6317  -17.2589   21.3462 F   0  0  0  0  0  0
  -31.4781  -12.5052   19.1402 H   0  0  0  0  0  0
  -30.3729  -11.3832   19.8829 H   0  0  0  0  0  0
  -29.7630  -11.7538   17.4723 H   0  0  0  0  0  0
  -29.6484  -13.4744   17.7419 H   0  0  0  0  0  0
  -27.8594  -11.2924   18.8612 H   0  0  0  0  0  0
  -27.3717  -12.5813   17.7942 H   0  0  0  0  0  0
  -27.6729  -14.2505   19.5278 H   0  0  0  0  0  0
  -28.7095  -12.0369   21.3694 H   0  0  0  0  0  0
  -28.4522  -13.6885   21.8484 H   0  0  0  0  0  0
  -25.2762   -9.5682   22.4748 H   0  0  0  0  0  0
  -24.0002   -7.4634   22.7470 H   0  0  0  0  0  0
  -21.0839   -8.8758   19.8949 H   0  0  0  0  0  0
  -22.3690  -10.9660   19.6152 H   0  0  0  0  0  0
  -21.2004   -7.6148   23.9715 H   0  0  0  0  0  0
  -21.1481   -6.0522   25.9074 H   0  0  0  0  0  0
  -22.0602   -2.7610   23.2844 H   0  0  0  0  0  0
  -22.4123  -11.9861   22.4762 H   0  0  0  0  0  0
  -21.1123  -13.1236   22.2630 H   0  0  0  0  0  0
  -24.6726  -15.8446   20.5821 H   0  0  0  0  0  0
  -26.3076  -15.6498   20.2255 H   0  0  0  0  0  0
  -26.7180  -32.5456   23.1109 H   0  0  0  0  0  0
  -25.0119  -33.9738   25.0465 H   0  0  0  0  0  0
  -22.7124  -31.3079   21.4044 H   0  0  0  0  0  0
  -23.3771  -35.9599   23.3274 H   0  0  0  0  0  0
  -24.3592  -36.8923   22.2055 H   0  0  0  0  0  0
  -23.7222  -37.6475   23.6667 H   0  0  0  0  0  0
  -26.0911  -31.5605   20.6075 H   0  0  0  0  0  0
  -26.8411  -30.8408   22.0021 H   0  0  0  0  0  0
  -28.1163  -28.9942   21.1782 H   0  0  0  0  0  0
  -25.9567  -25.9417   18.9977 H   0  0  0  0  0  0
  -23.9652  -27.3139   19.0157 H   0  0  0  0  0  0
  -23.7542  -30.6036   19.4059 H   0  0  0  0  0  0
  -22.7529  -29.2565   19.8545 H   0  0  0  0  0  0
  -25.1288  -36.1930   25.0829 H   0  0  0  0  0  0
  -20.9984  -28.3271   24.1387 H   0  0  0  0  0  0
  -20.5675  -26.2314   23.3599 H   0  0  0  0  0  0
  -21.6654  -26.7440   22.1193 H   0  0  0  0  0  0
  -19.6922  -25.6294   21.1239 H   0  0  0  0  0  0
  -19.6694  -27.3188   20.6729 H   0  0  0  0  0  0
  -17.4201  -26.6671   21.4023 H   0  0  0  0  0  0
  -18.0338  -26.0071   22.9012 H   0  0  0  0  0  0
  -19.7950  -30.7266   24.2273 H   0  0  0  0  0  0
  -17.5032  -31.6277   24.5153 H   0  0  0  0  0  0
  -15.5364  -30.2996   23.7665 H   0  0  0  0  0  0
  -15.8671  -28.0835   22.7056 H   0  0  0  0  0  0
  -24.5952  -30.7011   25.7797 H   0  0  0  0  0  0
  -24.8894  -32.2864   26.4861 H   0  0  0  0  0  0
  -25.8080  -30.8919   27.0247 H   0  0  0  0  0  0
  -26.2907  -29.6757   24.1210 H   0  0  0  0  0  0
  -27.4082  -29.7270   25.4653 H   0  0  0  0  0  0
  -27.8759  -30.4314   23.9356 H   0  0  0  0  0  0
  -27.2724  -33.3634   26.2027 H   0  0  0  0  0  0
  -28.3911  -32.6789   25.0319 H   0  0  0  0  0  0
  -28.0708  -31.8434   26.5435 H   0  0  0  0  0  0
  -28.2570  -38.0117   24.7555 H   0  0  0  0  0  0
  -28.1108  -36.2653   24.6227 H   0  0  0  0  0  0
  -27.2313  -37.1359   25.8868 H   0  0  0  0  0  0
  -20.9360  -29.8812   21.6911 H   0  0  0  0  0  0
  -26.0166  -38.2846   24.1457 H   0  0  0  0  0  0
  -32.0369  -19.7505   20.0757 H   0  0  0  0  0  0
  -31.9997  -17.3075   20.0926 H   0  0  0  0  0  0
  -27.8971  -19.8548   21.2759 H   0  0  0  0  0  0
  -31.9977  -23.8203   21.0089 H   0  0  0  0  0  0
  -31.7838  -23.7357   22.7396 H   0  0  0  0  0  0
  -30.2728  -25.4208   21.7160 H   0  0  0  0  0  0
  -29.3582  -24.1663   22.5240 H   0  0  0  0  0  0
  -28.7017  -22.1571   19.3654 H   0  0  0  0  0  0
  -28.1223  -22.2912   20.9991 H   0  0  0  0  0  0
  -30.0307  -24.2105   19.5622 H   0  0  0  0  0  0
  -27.3139  -24.7882   20.8051 H   0  0  0  0  0  0
  -27.7295  -24.7735   19.1067 H   0  0  0  0  0  0
  -28.8924  -15.3664   21.1237 H   0  0  0  0  0  0
  1 25  1  0  0  0
  1 30  2  0  0  0
  1 84  1  0  0  0
  2  3  1  0  0  0
  2 25  1  0  0  0
  2 87  1  0  0  0
  2 88  1  0  0  0
  3  4  1  0  0  0
  3 89  1  0  0  0
  3 90  1  0  0  0
  4  5  1  0  0  0
  4 91  1  0  0  0
  4 92  1  0  0  0
  5  6  1  0  0  0
  5 26  1  0  0  0
  5 93  1  0  0  0
  6 25  1  0  0  0
  6 94  1  0  0  0
  6 95  1  0  0  0
  7  8  2  0  0  0
  7 26  1  0  0  0
  7 29  1  0  0  0
  8  9  1  0  0  0
  8 22  1  0  0  0
  9 10  1  0  0  0
  9 27  2  0  0  0
 10 11  2  0  0  0
 10 15  1  0  0  0
 11 12  1  0  0  0
 11 96  1  0  0  0
 12 13  2  0  0  0
 12 97  1  0  0  0
 13 14  1  0  0  0
 13 31  1  0  0  0
 14 15  2  0  0  0
 14 98  1  0  0  0
 15 99  1  0  0  0
 16 17  2  0  0  0
 16 21  1  0  0  0
 16 31  1  0  0  0
 17 18  1  0  0  0
 17100  1  0  0  0
 18 19  2  0  0  0
 18101  1  0  0  0
 19 20  1  0  0  0
 19 24  1  0  0  0
 20 21  2  0  0  0
 20102  1  0  0  0
 21 23  1  0  0  0
 22 28  1  0  0  0
 22 32  2  0  0  0
 26 27  1  0  0  0
 28103  1  0  0  0
 28104  1  0  0  0
 29105  1  0  0  0
 29106  1  0  0  0
 33 34  1  0  0  0
 33 66  1  0  0  0
 33 70  2  0  0  0
 34 36  1  0  0  0
 34 59  1  0  0  0
 34107  1  0  0  0
 35 44  2  0  0  0
 35 45  1  0  0  0
 35 68  1  0  0  0
 36 56  1  0  0  0
 36108  1  0  0  0
 37 39  1  0  0  0
 37 47  1  0  0  0
 37 66  1  0  0  0
 37109  1  0  0  0
 38 43  2  0  0  0
 38 46  1  0  0  0
 38 47  1  0  0  0
 39 64  1  0  0  0
 39 67  2  0  0  0
 40 52  1  0  0  0
 40 53  2  0  0  0
 40 58  1  0  0  0
 41110  1  0  0  0
 41111  1  0  0  0
 41112  1  0  0  0
 41 48  1  0  0  0
 42 43  1  0  0  0
 42 66  1  0  0  0
 42113  1  0  0  0
 42114  1  0  0  0
 43 44  1  0  0  0
 44115  1  0  0  0
 45 46  2  0  0  0
 45116  1  0  0  0
 46117  1  0  0  0
 47118  1  0  0  0
 47119  1  0  0  0
 48 56  1  0  0  0
 48 65  1  0  0  0
 48120  1  0  0  0
 49 50  1  0  0  0
 49 53  1  0  0  0
 49 64  1  0  0  0
 49121  1  0  0  0
 50 51  1  0  0  0
 50122  1  0  0  0
 50123  1  0  0  0
 51 52  1  0  0  0
 51124  1  0  0  0
 51125  1  0  0  0
 52126  1  0  0  0
 52127  1  0  0  0
 53 54  1  0  0  0
 54 55  2  0  0  0
 54128  1  0  0  0
 55 57  1  0  0  0
 55129  1  0  0  0
 56 69  2  0  0  0
 57 58  2  0  0  0
 57130  1  0  0  0
 58131  1  0  0  0
 59 60  1  0  0  0
 59 61  1  0  0  0
 59 62  1  0  0  0
 60132  1  0  0  0
 60133  1  0  0  0
 60134  1  0  0  0
 61135  1  0  0  0
 61136  1  0  0  0
 61137  1  0  0  0
 62138  1  0  0  0
 62139  1  0  0  0
 62140  1  0  0  0
 63 65  1  0  0  0
 63141  1  0  0  0
 63142  1  0  0  0
 63143  1  0  0  0
 64144  1  0  0  0
 65145  1  0  0  0
 68 82  1  0  0  0
 71 72  2  0  0  0
 71 74  1  0  0  0
 71146  1  0  0  0
 72 75  1  0  0  0
 72147  1  0  0  0
 73 74  2  0  0  0
 73 76  1  0  0  0
 73148  1  0  0  0
 74 83  1  0  0  0
 75 76  2  0  0  0
 75 84  1  0  0  0
 76 86  1  0  0  0
 77 78  1  0  0  0
 77 83  1  0  0  0
 77 85  2  0  0  0
 78 79  1  0  0  0
 78149  1  0  0  0
 78150  1  0  0  0
 79 81  1  0  0  0
 79151  1  0  0  0
 79152  1  0  0  0
 80 81  1  0  0  0
 80 83  1  0  0  0
 80153  1  0  0  0
 80154  1  0  0  0
 81 82  1  0  0  0
 81155  1  0  0  0
 82156  1  0  0  0
 82157  1  0  0  0
 84158  1  0  0  0
M  ISO  4   1 100  68 101  82 101  84 100
M  END
> <chiral flag>
0

> <version>
0

> <s_m_source_file>
/data/baiqing/PycharmProjects/Reinvent-master-3.2/result/LINK_invent/BTK/process_docking_weight1_custom_product_contain_oxygen_bond_distance_aromatic_linkinvent_7_9_3/rearranged_h_0096.sdf

> <i_m_source_file_index>
15

> <r_mmod_Potential_Energy-OPLS-2005>
107.240104675293

> <r_mmod_Stretch_Energy-OPLS-2005>
82.9357223510742

> <r_mmod_Bend_Energy-OPLS-2005>
137.735961914062

> <r_mmod_Torsional_Energy-OPLS-2005>
273.721435546875

> <r_mmod_Improper_Torsional_Energy-OPLS-2005>
4.68192100524902

> <r_mmod_Van_der_Waal_Energy-OPLS-2005>
159.299835205078

> <r_mmod_Electrostatic_Energy-OPLS-2005>
-382.914001464844

> <r_mmod_Solvation_Energy-OPLS-2005>
-212.034591674805

> <b_mmod_Minimization_Converged-OPLS-2005>
0

> <r_mmod_RMS_Derivative-OPLS-2005>
0.928914606571198

$$$$
15
                    3D
 Structure written by MMmdl.
161170  0  0  1  0            999 V2000
  -30.6649  -14.6362   20.5859 C   0  0  0  0  0  0
  -30.4263  -12.4114   19.4686 C   0  0  0  0  0  0
  -29.5083  -12.5296   18.2327 C   0  0  0  0  0  0
  -28.0314  -12.3570   18.6342 C   0  0  0  0  0  0
  -27.6483  -13.2272   19.8582 C   0  0  2  0  0  0
  -28.6795  -13.0851   20.9937 C   0  0  0  0  0  0
  -25.2525  -13.8201   20.5693 C   0  0  0  0  0  0
  -24.1813  -13.0428   20.9195 C   0  0  0  0  0  0
  -24.6406  -11.6914   20.8734 C   0  0  0  0  0  0
  -23.9090  -10.4286   21.0422 C   0  0  0  0  0  0
  -24.3639   -9.4193   21.9193 C   0  0  0  0  0  0
  -23.6306   -8.2230   22.0759 C   0  0  0  0  0  0
  -22.4285   -8.0277   21.3544 C   0  0  0  0  0  0
  -21.9930   -9.0256   20.4644 C   0  0  0  0  0  0
  -22.7268  -10.2130   20.3069 C   0  0  0  0  0  0
  -21.6849   -6.0746   22.5278 C   0  0  0  0  0  0
  -21.4020   -6.5658   23.8213 C   0  0  0  0  0  0
  -21.3665   -5.6803   24.9174 C   0  0  0  0  0  0
  -21.6048   -4.3064   24.7224 C   0  0  0  0  0  0
  -21.8827   -3.8157   23.4342 C   0  0  0  0  0  0
  -21.9195   -4.6975   22.3398 C   0  0  0  0  0  0
  -22.7832  -13.5207   21.1870 C   0  0  0  0  0  0
  -22.1671   -4.2165   21.0978 F   0  0  0  0  0  0
  -21.5607   -3.4552   25.7739 F   0  0  0  0  0  0
  -30.0045  -13.4337   20.4519 N   0  0  0  0  0  0
  -26.2948  -12.9404   20.3265 N   0  0  0  0  0  0
  -25.9326  -11.6544   20.5706 N   0  0  0  0  0  0
  -22.0488  -12.8185   22.0435 N   0  0  0  0  0  0
  -25.4231  -15.1929   20.4176 N   0  0  0  0  0  0
  -31.7584  -14.8108   20.0375 O   0  0  0  0  0  0
  -21.6630   -6.8890   21.4242 O   0  0  0  0  0  0
  -22.3500  -14.5507   20.6716 O   0  0  0  0  0  0
  -24.6267  -31.8583   23.2013 C   0  0  0  0  0  0
  -25.9115  -32.4771   23.8345 C   0  0  1  0  0  0
  -27.2221  -27.3161   20.1233 C   0  0  0  0  0  0
  -25.5932  -33.8573   24.2278 N   0  0  0  0  0  0
  -23.4194  -30.4809   21.5441 C   0  0  2  0  0  0
  -24.8647  -28.9273   20.1160 C   0  0  0  0  0  0
  -22.7467  -29.4626   22.4945 C   0  0  0  0  0  0
  -18.0284  -28.1389   22.8480 C   0  0  0  0  0  0
  -24.1490  -36.7286   23.2639 C   0  0  0  0  0  0
  -25.9601  -30.7897   21.3697 C   0  0  0  0  0  0
  -26.0345  -29.4149   20.7142 C   0  0  0  0  0  0
  -27.2201  -28.6225   20.7017 C   0  0  0  0  0  0
  -26.0324  -26.8707   19.5136 C   0  0  0  0  0  0
  -24.8654  -27.6609   19.5066 C   0  0  0  0  0  0
  -23.6338  -29.8103   20.1613 C   0  0  0  0  0  0
  -25.4117  -36.3080   24.0326 C   0  0  1  0  0  0
  -20.5880  -28.3702   23.1281 C   0  0  2  0  0  0
  -20.6779  -26.9426   22.5409 C   0  0  0  0  0  0
  -19.5759  -26.6391   21.5207 C   0  0  0  0  0  0
  -18.1934  -26.7935   22.1613 C   0  0  0  0  0  0
  -19.1532  -28.8860   23.2874 C   0  0  0  0  0  0
  -18.9461  -30.1459   23.8896 C   0  0  0  0  0  0
  -17.6462  -30.6592   24.0565 C   0  0  0  0  0  0
  -25.9053  -34.9448   23.5100 C   0  0  0  0  0  0
  -16.5352  -29.9089   23.6332 C   0  0  0  0  0  0
  -16.7273  -28.6506   23.0356 C   0  0  0  0  0  0
  -26.4504  -31.6580   25.0715 C   0  0  0  0  0  0
  -25.3745  -31.3696   26.1445 C   0  0  0  0  0  0
  -27.0357  -30.3012   24.6165 C   0  0  0  0  0  0
  -27.6067  -32.4318   25.7479 C   0  0  0  0  0  0
  -27.5582  -37.1792   24.8463 C   0  0  0  0  0  0
  -21.4184  -29.3042   22.3672 N   0  0  0  0  0  0
  -26.4292  -37.3777   23.9409 N   0  0  0  0  0  0
  -24.6872  -31.0603   22.0953 N   0  0  0  0  0  0
  -23.4184  -28.8177   23.3038 O   0  0  0  0  0  0
  -28.3454  -26.4826   20.1143 O   0  0  0  0  0  0
  -26.5622  -34.8910   22.4668 O   0  0  0  0  0  0
  -23.5434  -32.1394   23.7347 O   0  0  0  0  0  0
  -29.1380  -18.7273   19.2094 C   0  0  0  0  0  0
  -29.3690  -17.3766   19.6227 C   0  0  0  0  0  0
  -29.8759  -19.5327   21.3346 C   0  0  0  0  0  0
  -29.4129  -19.8611   20.0365 C   0  0  0  0  0  0
  -29.8819  -17.0478   20.9075 C   0  0  0  0  0  0
  -30.1117  -18.1864   21.7546 C   0  0  0  0  0  0
  -29.9493  -21.5749   18.3726 C   0  0  0  0  0  0
  -29.8884  -22.9975   17.7940 C   0  0  0  0  0  0
  -29.7794  -24.1042   18.8458 C   0  0  0  0  0  0
  -28.7798  -22.4009   20.4039 C   0  0  0  0  0  0
  -28.5598  -23.8421   19.7202 C   0  0  1  0  0  0
  -30.1996  -15.3837   22.7911 C   0  0  0  0  0  0
  -28.2264  -25.1028   20.6478 C   0  0  0  0  0  0
  -29.3194  -21.2634   19.5464 N   0  0  0  0  0  0
  -30.0960  -15.6406   21.3450 N   0  0  0  0  0  0
  -30.5831  -20.7500   17.7050 O   0  0  0  0  0  0
  -30.6050  -18.0329   23.0065 F   0  0  0  0  0  0
  -31.4732  -12.5186   19.1792 H   0  0  0  0  0  0
  -30.3447  -11.4172   19.9098 H   0  0  0  0  0  0
  -29.7797  -11.7842   17.4849 H   0  0  0  0  0  0
  -29.6486  -13.5046   17.7638 H   0  0  0  0  0  0
  -27.8698  -11.3027   18.8633 H   0  0  0  0  0  0
  -27.3820  -12.5868   17.7890 H   0  0  0  0  0  0
  -27.6691  -14.2648   19.5207 H   0  0  0  0  0  0
  -28.6867  -12.0670   21.3883 H   0  0  0  0  0  0
  -28.3790  -13.7228   21.8220 H   0  0  0  0  0  0
  -25.2788   -9.5656   22.4752 H   0  0  0  0  0  0
  -24.0023   -7.4626   22.7476 H   0  0  0  0  0  0
  -21.0869   -8.8776   19.8937 H   0  0  0  0  0  0
  -22.3748  -10.9669   19.6167 H   0  0  0  0  0  0
  -21.2030   -7.6168   23.9736 H   0  0  0  0  0  0
  -21.1478   -6.0523   25.9080 H   0  0  0  0  0  0
  -22.0607   -2.7618   23.2835 H   0  0  0  0  0  0
  -22.4118  -11.9835   22.4803 H   0  0  0  0  0  0
  -21.1089  -13.1160   22.2638 H   0  0  0  0  0  0
  -24.6600  -15.8487   20.5444 H   0  0  0  0  0  0
  -26.2836  -15.6367   20.1209 H   0  0  0  0  0  0
  -26.7183  -32.5437   23.1090 H   0  0  0  0  0  0
  -25.0085  -33.9720   25.0426 H   0  0  0  0  0  0
  -22.7138  -31.3015   21.3991 H   0  0  0  0  0  0
  -23.3761  -35.9610   23.3296 H   0  0  0  0  0  0
  -24.3583  -36.8926   22.2057 H   0  0  0  0  0  0
  -23.7236  -37.6476   23.6678 H   0  0  0  0  0  0
  -26.0894  -31.5529   20.6010 H   0  0  0  0  0  0
  -26.8414  -30.8399   21.9978 H   0  0  0  0  0  0
  -28.1234  -28.9956   21.1646 H   0  0  0  0  0  0
  -26.0050  -25.8983   19.0425 H   0  0  0  0  0  0
  -23.9671  -27.2808   19.0386 H   0  0  0  0  0  0
  -23.7546  -30.5853   19.4036 H   0  0  0  0  0  0
  -22.7529  -29.2401   19.8606 H   0  0  0  0  0  0
  -25.1299  -36.1922   25.0821 H   0  0  0  0  0  0
  -20.9969  -28.3285   24.1403 H   0  0  0  0  0  0
  -20.5696  -26.2306   23.3604 H   0  0  0  0  0  0
  -21.6650  -26.7466   22.1198 H   0  0  0  0  0  0
  -19.6929  -25.6300   21.1240 H   0  0  0  0  0  0
  -19.6704  -27.3197   20.6734 H   0  0  0  0  0  0
  -17.4206  -26.6684   21.4014 H   0  0  0  0  0  0
  -18.0338  -26.0076   22.9010 H   0  0  0  0  0  0
  -19.7938  -30.7270   24.2275 H   0  0  0  0  0  0
  -17.5020  -31.6277   24.5163 H   0  0  0  0  0  0
  -15.5354  -30.2996   23.7657 H   0  0  0  0  0  0
  -15.8672  -28.0824   22.7079 H   0  0  0  0  0  0
  -24.5928  -30.7041   25.7769 H   0  0  0  0  0  0
  -24.8916  -32.2847   26.4885 H   0  0  0  0  0  0
  -25.8080  -30.8864   27.0212 H   0  0  0  0  0  0
  -26.2928  -29.6736   24.1230 H   0  0  0  0  0  0
  -27.4116  -29.7293   25.4659 H   0  0  0  0  0  0
  -27.8768  -30.4314   23.9350 H   0  0  0  0  0  0
  -27.2695  -33.3633   26.2037 H   0  0  0  0  0  0
  -28.3874  -32.6857   25.0297 H   0  0  0  0  0  0
  -28.0736  -31.8453   26.5402 H   0  0  0  0  0  0
  -28.2581  -38.0103   24.7537 H   0  0  0  0  0  0
  -28.1095  -36.2638   24.6263 H   0  0  0  0  0  0
  -27.2302  -37.1413   25.8864 H   0  0  0  0  0  0
  -20.9372  -29.8724   21.6843 H   0  0  0  0  0  0
  -26.0170  -38.2846   24.1434 H   0  0  0  0  0  0
  -28.7643  -18.8869   18.2071 H   0  0  0  0  0  0
  -29.1412  -16.5840   18.9244 H   0  0  0  0  0  0
  -30.1129  -20.3284   22.0255 H   0  0  0  0  0  0
  -29.0356  -23.0444   17.1159 H   0  0  0  0  0  0
  -30.7729  -23.1701   17.1813 H   0  0  0  0  0  0
  -29.6926  -25.0708   18.3473 H   0  0  0  0  0  0
  -30.6867  -24.1445   19.4527 H   0  0  0  0  0  0
  -27.8412  -22.0738   20.8503 H   0  0  0  0  0  0
  -29.4746  -22.5248   21.2352 H   0  0  0  0  0  0
  -27.7048  -23.7487   19.0475 H   0  0  0  0  0  0
  -29.4085  -15.8996   23.3365 H   0  0  0  0  0  0
  -31.1644  -15.7224   23.1695 H   0  0  0  0  0  0
  -30.1278  -14.3274   23.0546 H   0  0  0  0  0  0
  -28.9062  -25.0687   21.4988 H   0  0  0  0  0  0
  -27.2373  -24.9576   21.0851 H   0  0  0  0  0  0
  1 25  1  0  0  0
  1 30  2  0  0  0
  1 85  1  0  0  0
  2  3  1  0  0  0
  2 25  1  0  0  0
  2 88  1  0  0  0
  2 89  1  0  0  0
  3  4  1  0  0  0
  3 90  1  0  0  0
  3 91  1  0  0  0
  4  5  1  0  0  0
  4 92  1  0  0  0
  4 93  1  0  0  0
  5  6  1  0  0  0
  5 26  1  0  0  0
  5 94  1  0  0  0
  6 25  1  0  0  0
  6 95  1  0  0  0
  6 96  1  0  0  0
  7  8  2  0  0  0
  7 26  1  0  0  0
  7 29  1  0  0  0
  8  9  1  0  0  0
  8 22  1  0  0  0
  9 10  1  0  0  0
  9 27  2  0  0  0
 10 11  2  0  0  0
 10 15  1  0  0  0
 11 12  1  0  0  0
 11 97  1  0  0  0
 12 13  2  0  0  0
 12 98  1  0  0  0
 13 14  1  0  0  0
 13 31  1  0  0  0
 14 15  2  0  0  0
 14 99  1  0  0  0
 15100  1  0  0  0
 16 17  2  0  0  0
 16 21  1  0  0  0
 16 31  1  0  0  0
 17 18  1  0  0  0
 17101  1  0  0  0
 18 19  2  0  0  0
 18102  1  0  0  0
 19 20  1  0  0  0
 19 24  1  0  0  0
 20 21  2  0  0  0
 20103  1  0  0  0
 21 23  1  0  0  0
 22 28  1  0  0  0
 22 32  2  0  0  0
 26 27  1  0  0  0
 28104  1  0  0  0
 28105  1  0  0  0
 29106  1  0  0  0
 29107  1  0  0  0
 33 34  1  0  0  0
 33 66  1  0  0  0
 33 70  2  0  0  0
 34 36  1  0  0  0
 34 59  1  0  0  0
 34108  1  0  0  0
 35 44  2  0  0  0
 35 45  1  0  0  0
 35 68  1  0  0  0
 36 56  1  0  0  0
 36109  1  0  0  0
 37 39  1  0  0  0
 37 47  1  0  0  0
 37 66  1  0  0  0
 37110  1  0  0  0
 38 43  2  0  0  0
 38 46  1  0  0  0
 38 47  1  0  0  0
 39 64  1  0  0  0
 39 67  2  0  0  0
 40 52  1  0  0  0
 40 53  2  0  0  0
 40 58  1  0  0  0
 41111  1  0  0  0
 41112  1  0  0  0
 41113  1  0  0  0
 41 48  1  0  0  0
 42 43  1  0  0  0
 42 66  1  0  0  0
 42114  1  0  0  0
 42115  1  0  0  0
 43 44  1  0  0  0
 44116  1  0  0  0
 45 46  2  0  0  0
 45117  1  0  0  0
 46118  1  0  0  0
 47119  1  0  0  0
 47120  1  0  0  0
 48 56  1  0  0  0
 48 65  1  0  0  0
 48121  1  0  0  0
 49 50  1  0  0  0
 49 53  1  0  0  0
 49 64  1  0  0  0
 49122  1  0  0  0
 50 51  1  0  0  0
 50123  1  0  0  0
 50124  1  0  0  0
 51 52  1  0  0  0
 51125  1  0  0  0
 51126  1  0  0  0
 52127  1  0  0  0
 52128  1  0  0  0
 53 54  1  0  0  0
 54 55  2  0  0  0
 54129  1  0  0  0
 55 57  1  0  0  0
 55130  1  0  0  0
 56 69  2  0  0  0
 57 58  2  0  0  0
 57131  1  0  0  0
 58132  1  0  0  0
 59 60  1  0  0  0
 59 61  1  0  0  0
 59 62  1  0  0  0
 60133  1  0  0  0
 60134  1  0  0  0
 60135  1  0  0  0
 61136  1  0  0  0
 61137  1  0  0  0
 61138  1  0  0  0
 62139  1  0  0  0
 62140  1  0  0  0
 62141  1  0  0  0
 63 65  1  0  0  0
 63142  1  0  0  0
 63143  1  0  0  0
 63144  1  0  0  0
 64145  1  0  0  0
 65146  1  0  0  0
 68 83  1  0  0  0
 71 72  2  0  0  0
 71 74  1  0  0  0
 71147  1  0  0  0
 72 75  1  0  0  0
 72148  1  0  0  0
 73 74  2  0  0  0
 73 76  1  0  0  0
 73149  1  0  0  0
 74 84  1  0  0  0
 75 76  2  0  0  0
 75 85  1  0  0  0
 76 87  1  0  0  0
 77 78  1  0  0  0
 77 84  1  0  0  0
 77 86  2  0  0  0
 78 79  1  0  0  0
 78150  1  0  0  0
 78151  1  0  0  0
 79 81  1  0  0  0
 79152  1  0  0  0
 79153  1  0  0  0
 80 81  1  0  0  0
 80 84  1  0  0  0
 80154  1  0  0  0
 80155  1  0  0  0
 81 83  1  0  0  0
 81156  1  0  0  0
 82 85  1  0  0  0
 82157  1  0  0  0
 82158  1  0  0  0
 82159  1  0  0  0
 83160  1  0  0  0
 83161  1  0  0  0
M  ISO  4   1 100  68 101  83 101  85 100
M  END
> <chiral flag>
0

> <version>
0

> <s_m_source_file>
/data/baiqing/PycharmProjects/Reinvent-master-3.2/result/LINK_invent/BTK/process_docking_weight1_custom_product_contain_oxygen_bond_distance_aromatic_linkinvent_7_9_3/rearranged_h_0096.sdf

> <i_m_source_file_index>
16

> <r_mmod_Potential_Energy-OPLS-2005>
334.541625976562

> <r_mmod_Stretch_Energy-OPLS-2005>
105.562156677246

> <r_mmod_Bend_Energy-OPLS-2005>
151.292053222656

> <r_mmod_Torsional_Energy-OPLS-2005>
355.783020019531

> <r_mmod_Improper_Torsional_Energy-OPLS-2005>
3.6242880821228

> <r_mmod_Van_der_Waal_Energy-OPLS-2005>
160.256225585938

> <r_mmod_Electrostatic_Energy-OPLS-2005>
-283.293090820312

> <r_mmod_Solvation_Energy-OPLS-2005>
-204.461898803711

> <b_mmod_Minimization_Converged-OPLS-2005>
0

> <r_mmod_RMS_Derivative-OPLS-2005>
1.85324549674988

$$$$
16
                    3D
 Structure written by MMmdl.
154162  0  0  1  0            999 V2000
  -30.6490  -14.7560   20.5525 C   0  0  0  0  0  0
  -30.4291  -12.4643   19.5236 C   0  0  0  0  0  0
  -29.5241  -12.5004   18.2747 C   0  0  0  0  0  0
  -28.0565  -12.2994   18.6930 C   0  0  0  0  0  0
  -27.6432  -13.2303   19.8627 C   0  0  2  0  0  0
  -28.6764  -13.1922   21.0161 C   0  0  0  0  0  0
  -25.2536  -13.8164   20.5793 C   0  0  0  0  0  0
  -24.1818  -13.0412   20.9228 C   0  0  0  0  0  0
  -24.6408  -11.6885   20.8767 C   0  0  0  0  0  0
  -23.9076  -10.4265   21.0455 C   0  0  0  0  0  0
  -24.3583   -9.4150   21.9227 C   0  0  0  0  0  0
  -23.6244   -8.2192   22.0767 C   0  0  0  0  0  0
  -22.4232   -8.0255   21.3542 C   0  0  0  0  0  0
  -21.9876   -9.0261   20.4661 C   0  0  0  0  0  0
  -22.7242  -10.2121   20.3112 C   0  0  0  0  0  0
  -21.6802   -6.0704   22.5267 C   0  0  0  0  0  0
  -21.3991   -6.5629   23.8203 C   0  0  0  0  0  0
  -21.3688   -5.6794   24.9180 C   0  0  0  0  0  0
  -21.6058   -4.3054   24.7228 C   0  0  0  0  0  0
  -21.8833   -3.8128   23.4358 C   0  0  0  0  0  0
  -21.9181   -4.6928   22.3404 C   0  0  0  0  0  0
  -22.7827  -13.5173   21.1904 C   0  0  0  0  0  0
  -22.1659   -4.2106   21.0970 F   0  0  0  0  0  0
  -21.5622   -3.4547   25.7745 F   0  0  0  0  0  0
  -29.9908  -13.5376   20.4566 N   0  0  0  0  0  0
  -26.2953  -12.9380   20.3343 N   0  0  0  0  0  0
  -25.9331  -11.6516   20.5747 N   0  0  0  0  0  0
  -22.0523  -12.8167   22.0474 N   0  0  0  0  0  0
  -25.4223  -15.1908   20.4305 N   0  0  0  0  0  0
  -31.7793  -14.8496   20.0606 O   0  0  0  0  0  0
  -21.6615   -6.8838   21.4215 O   0  0  0  0  0  0
  -22.3500  -14.5504   20.6769 O   0  0  0  0  0  0
  -24.6351  -31.8478   23.1968 C   0  0  0  0  0  0
  -25.9142  -32.4728   23.8373 C   0  0  1  0  0  0
  -27.2352  -27.2071   20.1491 C   0  0  0  0  0  0
  -25.5931  -33.8549   24.2270 N   0  0  0  0  0  0
  -23.4420  -30.4634   21.5400 C   0  0  2  0  0  0
  -24.8960  -28.9028   20.1198 C   0  0  0  0  0  0
  -22.7557  -29.4512   22.4916 C   0  0  0  0  0  0
  -18.0275  -28.1364   22.8489 C   0  0  0  0  0  0
  -24.1473  -36.7259   23.2641 C   0  0  0  0  0  0
  -25.9936  -30.7452   21.3902 C   0  0  0  0  0  0
  -26.0681  -29.3617   20.7336 C   0  0  0  0  0  0
  -27.2377  -28.5251   20.7388 C   0  0  0  0  0  0
  -26.0397  -26.8382   19.4914 C   0  0  0  0  0  0
  -24.8873  -27.6517   19.4894 C   0  0  0  0  0  0
  -23.6683  -29.7907   20.1602 C   0  0  0  0  0  0
  -25.4106  -36.3051   24.0331 C   0  0  1  0  0  0
  -20.5883  -28.3659   23.1271 C   0  0  2  0  0  0
  -20.6767  -26.9378   22.5407 C   0  0  0  0  0  0
  -19.5742  -26.6358   21.5219 C   0  0  0  0  0  0
  -18.1915  -26.7911   22.1624 C   0  0  0  0  0  0
  -19.1529  -28.8842   23.2865 C   0  0  0  0  0  0
  -18.9456  -30.1448   23.8877 C   0  0  0  0  0  0
  -17.6446  -30.6573   24.0539 C   0  0  0  0  0  0
  -25.9050  -34.9417   23.5097 C   0  0  0  0  0  0
  -16.5340  -29.9058   23.6318 C   0  0  0  0  0  0
  -16.7261  -28.6464   23.0378 C   0  0  0  0  0  0
  -26.4505  -31.6601   25.0806 C   0  0  0  0  0  0
  -25.3704  -31.3809   26.1522 C   0  0  0  0  0  0
  -27.0373  -30.3000   24.6367 C   0  0  0  0  0  0
  -27.6038  -32.4390   25.7572 C   0  0  0  0  0  0
  -27.5561  -37.1792   24.8463 C   0  0  0  0  0  0
  -21.4243  -29.2997   22.3666 N   0  0  0  0  0  0
  -26.4276  -37.3755   23.9400 N   0  0  0  0  0  0
  -24.7095  -31.0392   22.0977 N   0  0  0  0  0  0
  -23.4224  -28.8044   23.3046 O   0  0  0  0  0  0
  -28.3122  -26.2729   20.2403 O   0  0  0  0  0  0
  -26.5600  -34.8884   22.4654 O   0  0  0  0  0  0
  -23.5465  -32.1326   23.7182 O   0  0  0  0  0  0
  -29.5311  -18.3637   21.2639 C   0  0  0  0  0  0
  -29.8437  -19.5555   20.4641 C   0  0  0  0  0  0
  -30.4551  -18.9583   19.3702 C   0  0  0  0  0  0
  -29.9777  -17.1908   20.6448 C   0  0  0  0  0  0
  -29.0835  -23.6573   20.5230 C   0  0  0  0  0  0
  -31.2053  -19.4804   18.1874 C   0  0  0  0  0  0
  -30.0360  -15.8121   22.6396 C   0  0  0  0  0  0
  -29.7669  -21.1237   20.8927 C   0  0  0  0  0  0
  -28.0955  -24.7940   19.9150 C   0  0  0  0  0  0
  -28.9706  -22.2820   20.2497 N   0  0  0  0  0  0
  -30.0498  -15.8690   21.1622 N   0  0  0  0  0  0
  -29.9718  -24.0396   21.2890 O   0  0  0  0  0  0
  -30.4953  -17.5706   19.4505 O   0  0  0  0  0  0
  -31.4798  -12.5590   19.2411 H   0  0  0  0  0  0
  -30.3411  -11.4924   20.0131 H   0  0  0  0  0  0
  -29.8251  -11.7242   17.5687 H   0  0  0  0  0  0
  -29.6419  -13.4515   17.7562 H   0  0  0  0  0  0
  -27.9643  -11.2642   19.0262 H   0  0  0  0  0  0
  -27.3879  -12.4071   17.8388 H   0  0  0  0  0  0
  -27.6336  -14.2410   19.4551 H   0  0  0  0  0  0
  -28.7010  -12.2128   21.4974 H   0  0  0  0  0  0
  -28.3934  -13.8888   21.8026 H   0  0  0  0  0  0
  -25.2729   -9.5536   22.4811 H   0  0  0  0  0  0
  -23.9970   -7.4531   22.7442 H   0  0  0  0  0  0
  -21.0845   -8.8818   19.8899 H   0  0  0  0  0  0
  -22.3798  -10.9695   19.6223 H   0  0  0  0  0  0
  -21.1998   -7.6128   23.9687 H   0  0  0  0  0  0
  -21.1497   -6.0524   25.9079 H   0  0  0  0  0  0
  -22.0583   -2.7579   23.2881 H   0  0  0  0  0  0
  -22.4113  -11.9807   22.4869 H   0  0  0  0  0  0
  -21.1144  -13.1193   22.2688 H   0  0  0  0  0  0
  -24.6529  -15.8402   20.5606 H   0  0  0  0  0  0
  -26.2895  -15.6394   20.1603 H   0  0  0  0  0  0
  -26.7216  -32.5363   23.1124 H   0  0  0  0  0  0
  -25.0164  -33.9722   25.0472 H   0  0  0  0  0  0
  -22.7383  -31.2827   21.3805 H   0  0  0  0  0  0
  -23.3741  -35.9586   23.3310 H   0  0  0  0  0  0
  -24.3557  -36.8865   22.2047 H   0  0  0  0  0  0
  -23.7216  -37.6464   23.6663 H   0  0  0  0  0  0
  -26.1407  -31.5006   20.6173 H   0  0  0  0  0  0
  -26.8682  -30.7968   22.0288 H   0  0  0  0  0  0
  -28.1307  -28.8620   21.2457 H   0  0  0  0  0  0
  -25.9553  -25.8854   18.9908 H   0  0  0  0  0  0
  -23.9892  -27.2954   19.0052 H   0  0  0  0  0  0
  -23.7961  -30.5592   19.3972 H   0  0  0  0  0  0
  -22.7924  -29.2148   19.8586 H   0  0  0  0  0  0
  -25.1285  -36.1918   25.0832 H   0  0  0  0  0  0
  -20.9965  -28.3224   24.1399 H   0  0  0  0  0  0
  -20.5652  -26.2283   23.3610 H   0  0  0  0  0  0
  -21.6641  -26.7399   22.1209 H   0  0  0  0  0  0
  -19.6914  -25.6270   21.1244 H   0  0  0  0  0  0
  -19.6683  -27.3167   20.6743 H   0  0  0  0  0  0
  -17.4199  -26.6652   21.4005 H   0  0  0  0  0  0
  -18.0304  -26.0055   22.9014 H   0  0  0  0  0  0
  -19.7936  -30.7261   24.2273 H   0  0  0  0  0  0
  -17.4991  -31.6261   24.5123 H   0  0  0  0  0  0
  -15.5335  -30.2945   23.7668 H   0  0  0  0  0  0
  -15.8660  -28.0753   22.7156 H   0  0  0  0  0  0
  -24.5877  -30.7158   25.7873 H   0  0  0  0  0  0
  -24.8915  -32.3002   26.4901 H   0  0  0  0  0  0
  -25.8004  -30.9042   27.0335 H   0  0  0  0  0  0
  -26.3030  -29.6749   24.1287 H   0  0  0  0  0  0
  -27.3880  -29.7286   25.4964 H   0  0  0  0  0  0
  -27.8957  -30.4240   23.9767 H   0  0  0  0  0  0
  -27.2636  -33.3692   26.2129 H   0  0  0  0  0  0
  -28.3861  -32.6956   25.0424 H   0  0  0  0  0  0
  -28.0705  -31.8567   26.5518 H   0  0  0  0  0  0
  -28.2597  -38.0064   24.7489 H   0  0  0  0  0  0
  -28.1045  -36.2607   24.6339 H   0  0  0  0  0  0
  -27.2282  -37.1486   25.8865 H   0  0  0  0  0  0
  -20.9465  -29.8728   21.6837 H   0  0  0  0  0  0
  -26.0149  -38.2825   24.1428 H   0  0  0  0  0  0
  -29.0951  -18.3839   22.2528 H   0  0  0  0  0  0
  -32.2757  -19.2974   18.3048 H   0  0  0  0  0  0
  -31.0576  -20.5486   18.0390 H   0  0  0  0  0  0
  -30.8981  -18.9596   17.2784 H   0  0  0  0  0  0
  -30.6211  -16.6401   23.0454 H   0  0  0  0  0  0
  -30.4944  -14.9061   23.0495 H   0  0  0  0  0  0
  -29.0308  -15.9065   23.0537 H   0  0  0  0  0  0
  -30.8069  -21.4544   20.9021 H   0  0  0  0  0  0
  -29.4635  -21.1168   21.9410 H   0  0  0  0  0  0
  -27.0980  -24.4867   20.2326 H   0  0  0  0  0  0
  -28.1300  -24.7049   18.8288 H   0  0  0  0  0  0
  -28.2054  -22.0019   19.6504 H   0  0  0  0  0  0
  1 25  1  0  0  0
  1 30  2  0  0  0
  1 81  1  0  0  0
  2  3  1  0  0  0
  2 25  1  0  0  0
  2 84  1  0  0  0
  2 85  1  0  0  0
  3  4  1  0  0  0
  3 86  1  0  0  0
  3 87  1  0  0  0
  4  5  1  0  0  0
  4 88  1  0  0  0
  4 89  1  0  0  0
  5  6  1  0  0  0
  5 26  1  0  0  0
  5 90  1  0  0  0
  6 25  1  0  0  0
  6 91  1  0  0  0
  6 92  1  0  0  0
  7  8  2  0  0  0
  7 26  1  0  0  0
  7 29  1  0  0  0
  8  9  1  0  0  0
  8 22  1  0  0  0
  9 10  1  0  0  0
  9 27  2  0  0  0
 10 11  2  0  0  0
 10 15  1  0  0  0
 11 12  1  0  0  0
 11 93  1  0  0  0
 12 13  2  0  0  0
 12 94  1  0  0  0
 13 14  1  0  0  0
 13 31  1  0  0  0
 14 15  2  0  0  0
 14 95  1  0  0  0
 15 96  1  0  0  0
 16 17  2  0  0  0
 16 21  1  0  0  0
 16 31  1  0  0  0
 17 18  1  0  0  0
 17 97  1  0  0  0
 18 19  2  0  0  0
 18 98  1  0  0  0
 19 20  1  0  0  0
 19 24  1  0  0  0
 20 21  2  0  0  0
 20 99  1  0  0  0
 21 23  1  0  0  0
 22 28  1  0  0  0
 22 32  2  0  0  0
 26 27  1  0  0  0
 28100  1  0  0  0
 28101  1  0  0  0
 29102  1  0  0  0
 29103  1  0  0  0
 33 34  1  0  0  0
 33 66  1  0  0  0
 33 70  2  0  0  0
 34 36  1  0  0  0
 34 59  1  0  0  0
 34104  1  0  0  0
 35 44  2  0  0  0
 35 45  1  0  0  0
 35 68  1  0  0  0
 36 56  1  0  0  0
 36105  1  0  0  0
 37 39  1  0  0  0
 37 47  1  0  0  0
 37 66  1  0  0  0
 37106  1  0  0  0
 38 43  2  0  0  0
 38 46  1  0  0  0
 38 47  1  0  0  0
 39 64  1  0  0  0
 39 67  2  0  0  0
 40 52  1  0  0  0
 40 53  2  0  0  0
 40 58  1  0  0  0
 41107  1  0  0  0
 41108  1  0  0  0
 41109  1  0  0  0
 41 48  1  0  0  0
 42 43  1  0  0  0
 42 66  1  0  0  0
 42110  1  0  0  0
 42111  1  0  0  0
 43 44  1  0  0  0
 44112  1  0  0  0
 45 46  2  0  0  0
 45113  1  0  0  0
 46114  1  0  0  0
 47115  1  0  0  0
 47116  1  0  0  0
 48 56  1  0  0  0
 48 65  1  0  0  0
 48117  1  0  0  0
 49 50  1  0  0  0
 49 53  1  0  0  0
 49 64  1  0  0  0
 49118  1  0  0  0
 50 51  1  0  0  0
 50119  1  0  0  0
 50120  1  0  0  0
 51 52  1  0  0  0
 51121  1  0  0  0
 51122  1  0  0  0
 52123  1  0  0  0
 52124  1  0  0  0
 53 54  1  0  0  0
 54 55  2  0  0  0
 54125  1  0  0  0
 55 57  1  0  0  0
 55126  1  0  0  0
 56 69  2  0  0  0
 57 58  2  0  0  0
 57127  1  0  0  0
 58128  1  0  0  0
 59 60  1  0  0  0
 59 61  1  0  0  0
 59 62  1  0  0  0
 60129  1  0  0  0
 60130  1  0  0  0
 60131  1  0  0  0
 61132  1  0  0  0
 61133  1  0  0  0
 61134  1  0  0  0
 62135  1  0  0  0
 62136  1  0  0  0
 62137  1  0  0  0
 63 65  1  0  0  0
 63138  1  0  0  0
 63139  1  0  0  0
 63140  1  0  0  0
 64141  1  0  0  0
 65142  1  0  0  0
 68 79  1  0  0  0
 71 72  1  0  0  0
 71 74  2  0  0  0
 71143  1  0  0  0
 72 73  2  0  0  0
 72 78  1  0  0  0
 73 76  1  0  0  0
 73 83  1  0  0  0
 74 81  1  0  0  0
 74 83  1  0  0  0
 75 79  1  0  0  0
 75 80  1  0  0  0
 75 82  2  0  0  0
 76144  1  0  0  0
 76145  1  0  0  0
 76146  1  0  0  0
 77 81  1  0  0  0
 77147  1  0  0  0
 77148  1  0  0  0
 77149  1  0  0  0
 78 80  1  0  0  0
 78150  1  0  0  0
 78151  1  0  0  0
 79152  1  0  0  0
 79153  1  0  0  0
 80154  1  0  0  0
M  ISO  4   1 100  68 101  79 101  81 100
M  END
> <chiral flag>
0

> <version>
0

> <s_m_source_file>
/data/baiqing/PycharmProjects/Reinvent-master-3.2/result/LINK_invent/BTK/process_docking_weight1_custom_product_contain_oxygen_bond_distance_aromatic_linkinvent_7_9_3/rearranged_h_0096.sdf

> <i_m_source_file_index>
17

> <r_mmod_Potential_Energy-OPLS-2005>
295.381866455078

> <r_mmod_Stretch_Energy-OPLS-2005>
159.442108154297

> <r_mmod_Bend_Energy-OPLS-2005>
207.696517944336

> <r_mmod_Torsional_Energy-OPLS-2005>
269.466735839844

> <r_mmod_Improper_Torsional_Energy-OPLS-2005>
6.54764986038208

> <r_mmod_Van_der_Waal_Energy-OPLS-2005>
121.288986206055

> <r_mmod_Electrostatic_Energy-OPLS-2005>
-338.387298583984

> <r_mmod_Solvation_Energy-OPLS-2005>
-237.219955444336

> <b_mmod_Minimization_Converged-OPLS-2005>
0

> <r_mmod_RMS_Derivative-OPLS-2005>
5.94769859313965

$$$$
17
                    3D
 Structure written by MMmdl.
154162  0  0  1  0            999 V2000
  -30.7336  -14.4188   20.6128 C   0  0  0  0  0  0
  -30.4165  -12.2883   19.4145 C   0  0  0  0  0  0
  -29.4905  -12.5102   18.2024 C   0  0  0  0  0  0
  -28.0121  -12.3735   18.6147 C   0  0  0  0  0  0
  -27.6639  -13.2047   19.8785 C   0  0  2  0  0  0
  -28.7029  -12.9675   20.9980 C   0  0  0  0  0  0
  -25.2596  -13.8159   20.5680 C   0  0  0  0  0  0
  -24.1842  -13.0439   20.9171 C   0  0  0  0  0  0
  -24.6388  -11.6905   20.8725 C   0  0  0  0  0  0
  -23.9054  -10.4293   21.0397 C   0  0  0  0  0  0
  -24.3607   -9.4212   21.9177 C   0  0  0  0  0  0
  -23.6286   -8.2246   22.0753 C   0  0  0  0  0  0
  -22.4269   -8.0280   21.3544 C   0  0  0  0  0  0
  -21.9898   -9.0253   20.4647 C   0  0  0  0  0  0
  -22.7224  -10.2133   20.3052 C   0  0  0  0  0  0
  -21.6852   -6.0733   22.5278 C   0  0  0  0  0  0
  -21.4015   -6.5638   23.8211 C   0  0  0  0  0  0
  -21.3660   -5.6792   24.9174 C   0  0  0  0  0  0
  -21.6043   -4.3054   24.7226 C   0  0  0  0  0  0
  -21.8820   -3.8145   23.4348 C   0  0  0  0  0  0
  -21.9195   -4.6960   22.3403 C   0  0  0  0  0  0
  -22.7867  -13.5243   21.1839 C   0  0  0  0  0  0
  -22.1663   -4.2145   21.0980 F   0  0  0  0  0  0
  -21.5629   -3.4540   25.7741 F   0  0  0  0  0  0
  -30.0397  -13.2609   20.4519 N   0  0  0  0  0  0
  -26.3032  -12.9325   20.3374 N   0  0  0  0  0  0
  -25.9314  -11.6487   20.5756 N   0  0  0  0  0  0
  -22.0503  -12.8243   22.0394 N   0  0  0  0  0  0
  -25.4338  -15.1875   20.4096 N   0  0  0  0  0  0
  -31.8290  -14.6149   20.0776 O   0  0  0  0  0  0
  -21.6638   -6.8874   21.4239 O   0  0  0  0  0  0
  -22.3559  -14.5554   20.6692 O   0  0  0  0  0  0
  -24.6112  -31.8700   23.2120 C   0  0  0  0  0  0
  -25.9023  -32.4832   23.8407 C   0  0  1  0  0  0
  -27.2394  -27.4655   20.0984 C   0  0  0  0  0  0
  -25.5896  -33.8629   24.2345 N   0  0  0  0  0  0
  -23.3986  -30.4920   21.5507 C   0  0  2  0  0  0
  -24.8490  -28.9608   20.1144 C   0  0  0  0  0  0
  -22.7395  -29.4663   22.5000 C   0  0  0  0  0  0
  -18.0268  -28.1371   22.8495 C   0  0  0  0  0  0
  -24.1487  -36.7320   23.2637 C   0  0  0  0  0  0
  -25.9227  -30.8459   21.3607 C   0  0  0  0  0  0
  -26.0043  -29.4810   20.7125 C   0  0  0  0  0  0
  -27.2043  -28.7388   20.7074 C   0  0  0  0  0  0
  -26.0759  -26.9540   19.4924 C   0  0  0  0  0  0
  -24.8774  -27.6943   19.5020 C   0  0  0  0  0  0
  -23.6070  -29.8217   20.1651 C   0  0  0  0  0  0
  -25.4105  -36.3119   24.0343 C   0  0  1  0  0  0
  -20.5855  -28.3655   23.1327 C   0  0  2  0  0  0
  -20.6755  -26.9394   22.5419 C   0  0  0  0  0  0
  -19.5735  -26.6382   21.5212 C   0  0  0  0  0  0
  -18.1914  -26.7919   22.1622 C   0  0  0  0  0  0
  -19.1516  -28.8829   23.2907 C   0  0  0  0  0  0
  -18.9446  -30.1439   23.8914 C   0  0  0  0  0  0
  -17.6450  -30.6581   24.0565 C   0  0  0  0  0  0
  -25.9027  -34.9481   23.5140 C   0  0  0  0  0  0
  -16.5342  -29.9086   23.6324 C   0  0  0  0  0  0
  -16.7258  -28.6500   23.0348 C   0  0  0  0  0  0
  -26.4469  -31.6596   25.0716 C   0  0  0  0  0  0
  -25.3755  -31.3691   26.1479 C   0  0  0  0  0  0
  -27.0289  -30.3044   24.6057 C   0  0  0  0  0  0
  -27.6056  -32.4304   25.7474 C   0  0  0  0  0  0
  -27.5582  -37.1814   24.8466 C   0  0  0  0  0  0
  -21.4126  -29.3028   22.3741 N   0  0  0  0  0  0
  -26.4295  -37.3799   23.9410 N   0  0  0  0  0  0
  -24.6621  -31.0826   22.1005 N   0  0  0  0  0  0
  -23.4180  -28.8212   23.3038 O   0  0  0  0  0  0
  -28.3755  -26.6989   20.0850 O   0  0  0  0  0  0
  -26.5576  -34.8929   22.4692 O   0  0  0  0  0  0
  -23.5313  -32.1444   23.7531 O   0  0  0  0  0  0
  -29.4685  -17.7411   21.2879 C   0  0  0  0  0  0
  -31.1519  -19.5011   21.4679 C   0  0  0  0  0  0
  -31.8167  -17.1592   21.5888 C   0  0  0  0  0  0
  -29.8049  -19.1171   21.2839 C   0  0  0  0  0  0
  -30.4746  -16.7531   21.3946 C   0  0  0  0  0  0
  -32.1512  -18.5253   21.6268 C   0  0  0  0  0  0
  -29.0019  -24.8682   21.5302 C   0  0  0  0  0  0
  -28.7423  -26.1724   21.2965 C   0  0  0  0  0  0
  -28.7400  -20.1471   21.1442 C   0  0  0  0  0  0
  -28.9369  -23.8317   20.5107 C   0  0  0  0  0  0
  -29.0331  -21.3662   20.2573 C   0  0  0  0  0  0
  -30.1040  -15.3781   21.3170 N   0  0  0  0  0  0
  -29.0175  -22.6044   21.0385 N   0  0  0  0  0  0
  -27.6308  -20.0395   21.6755 O   0  0  0  0  0  0
  -28.8395  -24.0120   19.2953 O   0  0  0  0  0  0
  -33.4386  -18.9022   21.8119 F   0  0  0  0  0  0
  -31.4620  -12.3755   19.1128 H   0  0  0  0  0  0
  -30.3061  -11.2733   19.7994 H   0  0  0  0  0  0
  -29.7252  -11.7947   17.4131 H   0  0  0  0  0  0
  -29.6659  -13.5009   17.7796 H   0  0  0  0  0  0
  -27.8172  -11.3169   18.8015 H   0  0  0  0  0  0
  -27.3631  -12.6594   17.7862 H   0  0  0  0  0  0
  -27.7152  -14.2555   19.5924 H   0  0  0  0  0  0
  -28.6693  -11.9285   21.3292 H   0  0  0  0  0  0
  -28.4616  -13.5572   21.8829 H   0  0  0  0  0  0
  -25.2751   -9.5693   22.4751 H   0  0  0  0  0  0
  -23.9999   -7.4640   22.7470 H   0  0  0  0  0  0
  -21.0830   -8.8768   19.8954 H   0  0  0  0  0  0
  -22.3677  -10.9671   19.6162 H   0  0  0  0  0  0
  -21.2006   -7.6146   23.9714 H   0  0  0  0  0  0
  -21.1482   -6.0522   25.9076 H   0  0  0  0  0  0
  -22.0598   -2.7607   23.2851 H   0  0  0  0  0  0
  -22.4110  -11.9900   22.4783 H   0  0  0  0  0  0
  -21.1124  -13.1281   22.2598 H   0  0  0  0  0  0
  -24.6692  -15.8453   20.5167 H   0  0  0  0  0  0
  -26.2874  -15.6224   20.0828 H   0  0  0  0  0  0
  -26.7099  -32.5570   23.1182 H   0  0  0  0  0  0
  -25.0078  -33.9794   25.0512 H   0  0  0  0  0  0
  -22.6859  -31.3075   21.4107 H   0  0  0  0  0  0
  -23.3743  -35.9660   23.3310 H   0  0  0  0  0  0
  -24.3589  -36.8917   22.2049 H   0  0  0  0  0  0
  -23.7245  -37.6534   23.6637 H   0  0  0  0  0  0
  -26.0274  -31.6121   20.5910 H   0  0  0  0  0  0
  -26.8130  -30.9041   21.9748 H   0  0  0  0  0  0
  -28.0975  -29.1366   21.1682 H   0  0  0  0  0  0
  -26.1016  -25.9792   19.0259 H   0  0  0  0  0  0
  -23.9897  -27.2873   19.0380 H   0  0  0  0  0  0
  -23.7101  -30.5953   19.4032 H   0  0  0  0  0  0
  -22.7337  -29.2361   19.8722 H   0  0  0  0  0  0
  -25.1278  -36.1991   25.0835 H   0  0  0  0  0  0
  -20.9944  -28.3216   24.1448 H   0  0  0  0  0  0
  -20.5652  -26.2260   23.3601 H   0  0  0  0  0  0
  -21.6627  -26.7436   22.1213 H   0  0  0  0  0  0
  -19.6894  -25.6297   21.1228 H   0  0  0  0  0  0
  -19.6673  -27.3202   20.6748 H   0  0  0  0  0  0
  -17.4183  -26.6672   21.4025 H   0  0  0  0  0  0
  -18.0312  -26.0055   22.9011 H   0  0  0  0  0  0
  -19.7925  -30.7247   24.2289 H   0  0  0  0  0  0
  -17.5008  -31.6266   24.5158 H   0  0  0  0  0  0
  -15.5344  -30.2992   23.7637 H   0  0  0  0  0  0
  -15.8656  -28.0827   22.7054 H   0  0  0  0  0  0
  -24.5915  -30.7052   25.7825 H   0  0  0  0  0  0
  -24.8965  -32.2842   26.4969 H   0  0  0  0  0  0
  -25.8127  -30.8835   27.0212 H   0  0  0  0  0  0
  -26.2816  -29.6812   24.1129 H   0  0  0  0  0  0
  -27.4096  -29.7270   25.4492 H   0  0  0  0  0  0
  -27.8636  -30.4372   23.9169 H   0  0  0  0  0  0
  -27.2684  -33.3586   26.2098 H   0  0  0  0  0  0
  -28.3843  -32.6889   25.0286 H   0  0  0  0  0  0
  -28.0747  -31.8396   26.5353 H   0  0  0  0  0  0
  -28.2610  -38.0104   24.7508 H   0  0  0  0  0  0
  -28.1069  -36.2636   24.6293 H   0  0  0  0  0  0
  -27.2303  -37.1470   25.8871 H   0  0  0  0  0  0
  -20.9283  -29.8758   21.6973 H   0  0  0  0  0  0
  -26.0189  -38.2882   24.1402 H   0  0  0  0  0  0
  -28.4346  -17.4476   21.1629 H   0  0  0  0  0  0
  -31.4318  -20.5447   21.5037 H   0  0  0  0  0  0
  -32.6064  -16.4318   21.7058 H   0  0  0  0  0  0
  -29.2742  -24.5933   22.5393 H   0  0  0  0  0  0
  -28.8005  -26.9231   22.0726 H   0  0  0  0  0  0
  -28.2665  -21.4022   19.4817 H   0  0  0  0  0  0
  -29.9875  -21.2576   19.7422 H   0  0  0  0  0  0
  -29.1772  -15.1355   21.6330 H   0  0  0  0  0  0
  -29.0619  -22.5100   22.0441 H   0  0  0  0  0  0
  1 25  1  0  0  0
  1 30  2  0  0  0
  1 82  1  0  0  0
  2  3  1  0  0  0
  2 25  1  0  0  0
  2 87  1  0  0  0
  2 88  1  0  0  0
  3  4  1  0  0  0
  3 89  1  0  0  0
  3 90  1  0  0  0
  4  5  1  0  0  0
  4 91  1  0  0  0
  4 92  1  0  0  0
  5  6  1  0  0  0
  5 26  1  0  0  0
  5 93  1  0  0  0
  6 25  1  0  0  0
  6 94  1  0  0  0
  6 95  1  0  0  0
  7  8  2  0  0  0
  7 26  1  0  0  0
  7 29  1  0  0  0
  8  9  1  0  0  0
  8 22  1  0  0  0
  9 10  1  0  0  0
  9 27  2  0  0  0
 10 11  2  0  0  0
 10 15  1  0  0  0
 11 12  1  0  0  0
 11 96  1  0  0  0
 12 13  2  0  0  0
 12 97  1  0  0  0
 13 14  1  0  0  0
 13 31  1  0  0  0
 14 15  2  0  0  0
 14 98  1  0  0  0
 15 99  1  0  0  0
 16 17  2  0  0  0
 16 21  1  0  0  0
 16 31  1  0  0  0
 17 18  1  0  0  0
 17100  1  0  0  0
 18 19  2  0  0  0
 18101  1  0  0  0
 19 20  1  0  0  0
 19 24  1  0  0  0
 20 21  2  0  0  0
 20102  1  0  0  0
 21 23  1  0  0  0
 22 28  1  0  0  0
 22 32  2  0  0  0
 26 27  1  0  0  0
 28103  1  0  0  0
 28104  1  0  0  0
 29105  1  0  0  0
 29106  1  0  0  0
 33 34  1  0  0  0
 33 66  1  0  0  0
 33 70  2  0  0  0
 34 36  1  0  0  0
 34 59  1  0  0  0
 34107  1  0  0  0
 35 44  2  0  0  0
 35 45  1  0  0  0
 35 68  1  0  0  0
 36 56  1  0  0  0
 36108  1  0  0  0
 37 39  1  0  0  0
 37 47  1  0  0  0
 37 66  1  0  0  0
 37109  1  0  0  0
 38 43  2  0  0  0
 38 46  1  0  0  0
 38 47  1  0  0  0
 39 64  1  0  0  0
 39 67  2  0  0  0
 40 52  1  0  0  0
 40 53  2  0  0  0
 40 58  1  0  0  0
 41110  1  0  0  0
 41111  1  0  0  0
 41112  1  0  0  0
 41 48  1  0  0  0
 42 43  1  0  0  0
 42 66  1  0  0  0
 42113  1  0  0  0
 42114  1  0  0  0
 43 44  1  0  0  0
 44115  1  0  0  0
 45 46  2  0  0  0
 45116  1  0  0  0
 46117  1  0  0  0
 47118  1  0  0  0
 47119  1  0  0  0
 48 56  1  0  0  0
 48 65  1  0  0  0
 48120  1  0  0  0
 49 50  1  0  0  0
 49 53  1  0  0  0
 49 64  1  0  0  0
 49121  1  0  0  0
 50 51  1  0  0  0
 50122  1  0  0  0
 50123  1  0  0  0
 51 52  1  0  0  0
 51124  1  0  0  0
 51125  1  0  0  0
 52126  1  0  0  0
 52127  1  0  0  0
 53 54  1  0  0  0
 54 55  2  0  0  0
 54128  1  0  0  0
 55 57  1  0  0  0
 55129  1  0  0  0
 56 69  2  0  0  0
 57 58  2  0  0  0
 57130  1  0  0  0
 58131  1  0  0  0
 59 60  1  0  0  0
 59 61  1  0  0  0
 59 62  1  0  0  0
 60132  1  0  0  0
 60133  1  0  0  0
 60134  1  0  0  0
 61135  1  0  0  0
 61136  1  0  0  0
 61137  1  0  0  0
 62138  1  0  0  0
 62139  1  0  0  0
 62140  1  0  0  0
 63 65  1  0  0  0
 63141  1  0  0  0
 63142  1  0  0  0
 63143  1  0  0  0
 64144  1  0  0  0
 65145  1  0  0  0
 68 78  1  0  0  0
 71 74  2  0  0  0
 71 75  1  0  0  0
 71146  1  0  0  0
 72 74  1  0  0  0
 72 76  2  0  0  0
 72147  1  0  0  0
 73 75  2  0  0  0
 73 76  1  0  0  0
 73148  1  0  0  0
 74 79  1  0  0  0
 75 82  1  0  0  0
 76 86  1  0  0  0
 77 78  2  0  0  0
 77 80  1  0  0  0
 77149  1  0  0  0
 78150  1  0  0  0
 79 81  1  0  0  0
 79 84  2  0  0  0
 80 83  1  0  0  0
 80 85  2  0  0  0
 81 83  1  0  0  0
 81151  1  0  0  0
 81152  1  0  0  0
 82153  1  0  0  0
 83154  1  0  0  0
M  ISO  4   1 100  68 101  78 101  82 100
M  END
> <chiral flag>
0

> <version>
0

> <s_m_source_file>
/data/baiqing/PycharmProjects/Reinvent-master-3.2/result/LINK_invent/BTK/process_docking_weight1_custom_product_contain_oxygen_bond_distance_aromatic_linkinvent_7_9_3/rearranged_h_0096.sdf

> <i_m_source_file_index>
18

> <r_mmod_Potential_Energy-OPLS-2005>
-156.297805786133

> <r_mmod_Stretch_Energy-OPLS-2005>
33.2307167053223

> <r_mmod_Bend_Energy-OPLS-2005>
89.2217788696289

> <r_mmod_Torsional_Energy-OPLS-2005>
263.490112304688

> <r_mmod_Improper_Torsional_Energy-OPLS-2005>
3.19180393218994

> <r_mmod_Van_der_Waal_Energy-OPLS-2005>
154.072326660156

> <r_mmod_Electrostatic_Energy-OPLS-2005>
-456.720764160156

> <r_mmod_Solvation_Energy-OPLS-2005>
-251.137390136719

> <b_mmod_Minimization_Converged-OPLS-2005>
0

> <r_mmod_RMS_Derivative-OPLS-2005>
0.526783168315887

$$$$
18
                    3D
 Structure written by MMmdl.
160169  0  0  1  0            999 V2000
  -30.6340  -14.8008   20.4550 C   0  0  0  0  0  0
  -30.4501  -12.5048   19.4448 C   0  0  0  0  0  0
  -29.5009  -12.4790   18.2255 C   0  0  0  0  0  0
  -28.0435  -12.2283   18.6657 C   0  0  0  0  0  0
  -27.6350  -13.1396   19.8425 C   0  0  2  0  0  0
  -28.7106  -13.1321   20.9667 C   0  0  0  0  0  0
  -25.2498  -13.7889   20.5665 C   0  0  0  0  0  0
  -24.1750  -13.0262   20.9242 C   0  0  0  0  0  0
  -24.6282  -11.6737   20.8834 C   0  0  0  0  0  0
  -23.8952  -10.4184   21.0471 C   0  0  0  0  0  0
  -24.3538   -9.4111   21.9227 C   0  0  0  0  0  0
  -23.6229   -8.2148   22.0759 C   0  0  0  0  0  0
  -22.4217   -8.0211   21.3536 C   0  0  0  0  0  0
  -21.9843   -9.0183   20.4641 C   0  0  0  0  0  0
  -22.7155  -10.2065   20.3079 C   0  0  0  0  0  0
  -21.6817   -6.0698   22.5284 C   0  0  0  0  0  0
  -21.3987   -6.5618   23.8214 C   0  0  0  0  0  0
  -21.3648   -5.6779   24.9183 C   0  0  0  0  0  0
  -21.6042   -4.3044   24.7238 C   0  0  0  0  0  0
  -21.8819   -3.8128   23.4365 C   0  0  0  0  0  0
  -21.9178   -4.6933   22.3415 C   0  0  0  0  0  0
  -22.7797  -13.5146   21.1880 C   0  0  0  0  0  0
  -22.1651   -4.2119   21.0993 F   0  0  0  0  0  0
  -21.5634   -3.4534   25.7757 F   0  0  0  0  0  0
  -29.9791  -13.5754   20.3600 N   0  0  0  0  0  0
  -26.2885  -12.8940   20.3334 N   0  0  0  0  0  0
  -25.9185  -11.6194   20.5883 N   0  0  0  0  0  0
  -22.0413  -12.8190   22.0450 N   0  0  0  0  0  0
  -25.4027  -15.1597   20.3970 N   0  0  0  0  0  0
  -31.8449  -14.8259   20.2147 O   0  0  0  0  0  0
  -21.6582   -6.8823   21.4239 O   0  0  0  0  0  0
  -22.3527  -14.5464   20.6709 O   0  0  0  0  0  0
  -24.6271  -31.8594   23.2028 C   0  0  0  0  0  0
  -25.9112  -32.4781   23.8360 C   0  0  1  0  0  0
  -27.2432  -27.3169   20.1162 C   0  0  0  0  0  0
  -25.5922  -33.8582   24.2280 N   0  0  0  0  0  0
  -23.4225  -30.4827   21.5453 C   0  0  2  0  0  0
  -24.8739  -28.9401   20.1130 C   0  0  0  0  0  0
  -22.7483  -29.4622   22.4933 C   0  0  0  0  0  0
  -18.0288  -28.1387   22.8487 C   0  0  0  0  0  0
  -24.1487  -36.7295   23.2640 C   0  0  0  0  0  0
  -25.9652  -30.7901   21.3758 C   0  0  0  0  0  0
  -26.0436  -29.4175   20.7174 C   0  0  0  0  0  0
  -27.2283  -28.6189   20.7100 C   0  0  0  0  0  0
  -26.0430  -26.8996   19.4857 C   0  0  0  0  0  0
  -24.8762  -27.6854   19.4891 C   0  0  0  0  0  0
  -23.6395  -29.8176   20.1614 C   0  0  0  0  0  0
  -25.4111  -36.3086   24.0331 C   0  0  1  0  0  0
  -20.5890  -28.3692   23.1278 C   0  0  2  0  0  0
  -20.6775  -26.9413   22.5408 C   0  0  0  0  0  0
  -19.5750  -26.6385   21.5211 C   0  0  0  0  0  0
  -18.1932  -26.7931   22.1625 C   0  0  0  0  0  0
  -19.1541  -28.8856   23.2878 C   0  0  0  0  0  0
  -18.9463  -30.1458   23.8894 C   0  0  0  0  0  0
  -17.6464  -30.6589   24.0563 C   0  0  0  0  0  0
  -25.9049  -34.9454   23.5106 C   0  0  0  0  0  0
  -16.5355  -29.9087   23.6332 C   0  0  0  0  0  0
  -16.7275  -28.6506   23.0352 C   0  0  0  0  0  0
  -26.4492  -31.6593   25.0732 C   0  0  0  0  0  0
  -25.3722  -31.3737   26.1458 C   0  0  0  0  0  0
  -27.0335  -30.3013   24.6195 C   0  0  0  0  0  0
  -27.6051  -32.4328   25.7503 C   0  0  0  0  0  0
  -27.5580  -37.1802   24.8464 C   0  0  0  0  0  0
  -21.4194  -29.3045   22.3671 N   0  0  0  0  0  0
  -26.4289  -37.3780   23.9413 N   0  0  0  0  0  0
  -24.6904  -31.0600   22.0984 N   0  0  0  0  0  0
  -23.4198  -28.8157   23.3017 O   0  0  0  0  0  0
  -28.3638  -26.4583   20.1766 O   0  0  0  0  0  0
  -26.5616  -34.8923   22.4672 O   0  0  0  0  0  0
  -23.5429  -32.1390   23.7349 O   0  0  0  0  0  0
  -30.8272  -19.5496   19.5045 C   0  0  0  0  0  0
  -30.0871  -19.6057   21.7893 C   0  0  0  0  0  0
  -30.8894  -18.1202   19.5544 C   0  0  0  0  0  0
  -30.1585  -18.1801   21.8444 C   0  0  0  0  0  0
  -30.5917  -24.0254   20.4581 C   0  0  0  0  0  0
  -29.1830  -23.8948   20.2515 C   0  0  0  0  0  0
  -30.3653  -20.3298   20.6005 C   0  0  0  0  0  0
  -30.4882  -17.3865   20.7068 C   0  0  0  0  0  0
  -31.1448  -22.7712   20.5984 C   0  0  0  0  0  0
  -28.9827  -22.5132   20.3011 C   0  0  0  0  0  0
  -28.1789  -16.4218   18.8485 C   0  0  0  0  0  0
  -28.1105  -25.0107   19.9671 C   0  0  0  0  0  0
  -28.4944  -16.2080   20.3486 C   0  0  0  0  0  0
  -30.1716  -21.7817   20.5088 N   0  0  0  0  0  0
  -29.9372  -16.0240   20.5919 N   0  0  0  0  0  0
  -32.4505  -22.4373   20.7943 O   0  0  0  0  0  0
  -27.8136  -21.8276   20.1542 O   0  0  0  0  0  0
  -31.4742  -12.6688   19.1062 H   0  0  0  0  0  0
  -30.4616  -11.5384   19.9514 H   0  0  0  0  0  0
  -29.8144  -11.7079   17.5207 H   0  0  0  0  0  0
  -29.5660  -13.4264   17.6886 H   0  0  0  0  0  0
  -27.9567  -11.1830   18.9652 H   0  0  0  0  0  0
  -27.3628  -12.3625   17.8239 H   0  0  0  0  0  0
  -27.5738  -14.0912   19.3504 H   0  0  0  0  0  0
  -28.8152  -12.1242   21.3707 H   0  0  0  0  0  0
  -28.4424  -13.7411   21.8293 H   0  0  0  0  0  0
  -25.2678   -9.5590   22.4807 H   0  0  0  0  0  0
  -23.9929   -7.4526   22.7467 H   0  0  0  0  0  0
  -21.0774   -8.8702   19.8943 H   0  0  0  0  0  0
  -22.3624  -10.9619   19.6198 H   0  0  0  0  0  0
  -21.1972   -7.6123   23.9714 H   0  0  0  0  0  0
  -21.1475   -6.0510   25.9086 H   0  0  0  0  0  0
  -22.0613   -2.7591   23.2876 H   0  0  0  0  0  0
  -22.4000  -11.9854   22.4865 H   0  0  0  0  0  0
  -21.1042  -13.1256   22.2652 H   0  0  0  0  0  0
  -24.6279  -15.8041   20.5077 H   0  0  0  0  0  0
  -26.2480  -15.6060   20.0662 H   0  0  0  0  0  0
  -26.7183  -32.5455   23.1112 H   0  0  0  0  0  0
  -25.0062  -33.9725   25.0419 H   0  0  0  0  0  0
  -22.7170  -31.3036   21.4012 H   0  0  0  0  0  0
  -23.3752  -35.9625   23.3297 H   0  0  0  0  0  0
  -24.3582  -36.8919   22.2055 H   0  0  0  0  0  0
  -23.7236  -37.6495   23.6663 H   0  0  0  0  0  0
  -26.0961  -31.5545   20.6087 H   0  0  0  0  0  0
  -26.8450  -30.8392   22.0058 H   0  0  0  0  0  0
  -28.1222  -28.9836   21.1967 H   0  0  0  0  0  0
  -25.9645  -25.9456   18.9881 H   0  0  0  0  0  0
  -23.9810  -27.3121   19.0110 H   0  0  0  0  0  0
  -23.7568  -30.5936   19.4041 H   0  0  0  0  0  0
  -22.7608  -29.2445   19.8595 H   0  0  0  0  0  0
  -25.1291  -36.1937   25.0823 H   0  0  0  0  0  0
  -20.9986  -28.3266   24.1398 H   0  0  0  0  0  0
  -20.5675  -26.2301   23.3608 H   0  0  0  0  0  0
  -21.6643  -26.7441   22.1202 H   0  0  0  0  0  0
  -19.6910  -25.6296   21.1243 H   0  0  0  0  0  0
  -19.6688  -27.3192   20.6739 H   0  0  0  0  0  0
  -17.4199  -26.6675   21.4031 H   0  0  0  0  0  0
  -18.0336  -26.0074   22.9025 H   0  0  0  0  0  0
  -19.7940  -30.7275   24.2259 H   0  0  0  0  0  0
  -17.5021  -31.6271   24.5163 H   0  0  0  0  0  0
  -15.5355  -30.2988   23.7664 H   0  0  0  0  0  0
  -15.8675  -28.0828   22.7065 H   0  0  0  0  0  0
  -24.5885  -30.7100   25.7785 H   0  0  0  0  0  0
  -24.8926  -32.2906   26.4893 H   0  0  0  0  0  0
  -25.8040  -30.8901   27.0229 H   0  0  0  0  0  0
  -26.2912  -29.6767   24.1211 H   0  0  0  0  0  0
  -27.4016  -29.7271   25.4708 H   0  0  0  0  0  0
  -27.8790  -30.4296   23.9432 H   0  0  0  0  0  0
  -27.2662  -33.3630   26.2074 H   0  0  0  0  0  0
  -28.3863  -32.6884   25.0332 H   0  0  0  0  0  0
  -28.0714  -31.8456   26.5423 H   0  0  0  0  0  0
  -28.2594  -38.0104   24.7520 H   0  0  0  0  0  0
  -28.1080  -36.2637   24.6276 H   0  0  0  0  0  0
  -27.2301  -37.1434   25.8867 H   0  0  0  0  0  0
  -20.9371  -29.8767   21.6881 H   0  0  0  0  0  0
  -26.0171  -38.2855   24.1418 H   0  0  0  0  0  0
  -31.0723  -20.0508   18.5792 H   0  0  0  0  0  0
  -29.7468  -20.1460   22.6611 H   0  0  0  0  0  0
  -31.1175  -17.5856   18.6432 H   0  0  0  0  0  0
  -29.8071  -17.6891   22.7412 H   0  0  0  0  0  0
  -31.1421  -24.9561   20.4808 H   0  0  0  0  0  0
  -27.1062  -16.4204   18.6587 H   0  0  0  0  0  0
  -28.6327  -15.6600   18.2147 H   0  0  0  0  0  0
  -28.5445  -17.3852   18.4961 H   0  0  0  0  0  0
  -27.2366  -24.7292   20.5572 H   0  0  0  0  0  0
  -27.8429  -24.8717   18.9193 H   0  0  0  0  0  0
  -27.8932  -15.4763   20.8541 H   0  0  0  0  0  0
  -28.1161  -17.1001   20.8493 H   0  0  0  0  0  0
  -32.9589  -23.2428   20.8107 H   0  0  0  0  0  0
  -27.1178  -22.4518   19.9802 H   0  0  0  0  0  0
  1 25  1  0  0  0
  1 30  2  0  0  0
  1 85  1  0  0  0
  2  3  1  0  0  0
  2 25  1  0  0  0
  2 88  1  0  0  0
  2 89  1  0  0  0
  3  4  1  0  0  0
  3 90  1  0  0  0
  3 91  1  0  0  0
  4  5  1  0  0  0
  4 92  1  0  0  0
  4 93  1  0  0  0
  5  6  1  0  0  0
  5 26  1  0  0  0
  5 94  1  0  0  0
  6 25  1  0  0  0
  6 95  1  0  0  0
  6 96  1  0  0  0
  7  8  2  0  0  0
  7 26  1  0  0  0
  7 29  1  0  0  0
  8  9  1  0  0  0
  8 22  1  0  0  0
  9 10  1  0  0  0
  9 27  2  0  0  0
 10 11  2  0  0  0
 10 15  1  0  0  0
 11 12  1  0  0  0
 11 97  1  0  0  0
 12 13  2  0  0  0
 12 98  1  0  0  0
 13 14  1  0  0  0
 13 31  1  0  0  0
 14 15  2  0  0  0
 14 99  1  0  0  0
 15100  1  0  0  0
 16 17  2  0  0  0
 16 21  1  0  0  0
 16 31  1  0  0  0
 17 18  1  0  0  0
 17101  1  0  0  0
 18 19  2  0  0  0
 18102  1  0  0  0
 19 20  1  0  0  0
 19 24  1  0  0  0
 20 21  2  0  0  0
 20103  1  0  0  0
 21 23  1  0  0  0
 22 28  1  0  0  0
 22 32  2  0  0  0
 26 27  1  0  0  0
 28104  1  0  0  0
 28105  1  0  0  0
 29106  1  0  0  0
 29107  1  0  0  0
 33 34  1  0  0  0
 33 66  1  0  0  0
 33 70  2  0  0  0
 34 36  1  0  0  0
 34 59  1  0  0  0
 34108  1  0  0  0
 35 44  2  0  0  0
 35 45  1  0  0  0
 35 68  1  0  0  0
 36 56  1  0  0  0
 36109  1  0  0  0
 37 39  1  0  0  0
 37 47  1  0  0  0
 37 66  1  0  0  0
 37110  1  0  0  0
 38 43  2  0  0  0
 38 46  1  0  0  0
 38 47  1  0  0  0
 39 64  1  0  0  0
 39 67  2  0  0  0
 40 52  1  0  0  0
 40 53  2  0  0  0
 40 58  1  0  0  0
 41111  1  0  0  0
 41112  1  0  0  0
 41113  1  0  0  0
 41 48  1  0  0  0
 42 43  1  0  0  0
 42 66  1  0  0  0
 42114  1  0  0  0
 42115  1  0  0  0
 43 44  1  0  0  0
 44116  1  0  0  0
 45 46  2  0  0  0
 45117  1  0  0  0
 46118  1  0  0  0
 47119  1  0  0  0
 47120  1  0  0  0
 48 56  1  0  0  0
 48 65  1  0  0  0
 48121  1  0  0  0
 49 50  1  0  0  0
 49 53  1  0  0  0
 49 64  1  0  0  0
 49122  1  0  0  0
 50 51  1  0  0  0
 50123  1  0  0  0
 50124  1  0  0  0
 51 52  1  0  0  0
 51125  1  0  0  0
 51126  1  0  0  0
 52127  1  0  0  0
 52128  1  0  0  0
 53 54  1  0  0  0
 54 55  2  0  0  0
 54129  1  0  0  0
 55 57  1  0  0  0
 55130  1  0  0  0
 56 69  2  0  0  0
 57 58  2  0  0  0
 57131  1  0  0  0
 58132  1  0  0  0
 59 60  1  0  0  0
 59 61  1  0  0  0
 59 62  1  0  0  0
 60133  1  0  0  0
 60134  1  0  0  0
 60135  1  0  0  0
 61136  1  0  0  0
 61137  1  0  0  0
 61138  1  0  0  0
 62139  1  0  0  0
 62140  1  0  0  0
 62141  1  0  0  0
 63 65  1  0  0  0
 63142  1  0  0  0
 63143  1  0  0  0
 63144  1  0  0  0
 64145  1  0  0  0
 65146  1  0  0  0
 68 82  1  0  0  0
 71 73  2  0  0  0
 71 77  1  0  0  0
 71147  1  0  0  0
 72 74  1  0  0  0
 72 77  2  0  0  0
 72148  1  0  0  0
 73 78  1  0  0  0
 73149  1  0  0  0
 74 78  2  0  0  0
 74150  1  0  0  0
 75 76  1  0  0  0
 75 79  2  0  0  0
 75151  1  0  0  0
 76 80  2  0  0  0
 76 82  1  0  0  0
 77 84  1  0  0  0
 78 85  1  0  0  0
 79 84  1  0  0  0
 79 86  1  0  0  0
 80 84  1  0  0  0
 80 87  1  0  0  0
 81 83  1  0  0  0
 81152  1  0  0  0
 81153  1  0  0  0
 81154  1  0  0  0
 82155  1  0  0  0
 82156  1  0  0  0
 83 85  1  0  0  0
 83157  1  0  0  0
 83158  1  0  0  0
 86159  1  0  0  0
 87160  1  0  0  0
M  ISO  4   1 100  68 101  82 101  85 100
M  END
> <chiral flag>
0

> <version>
0

> <s_m_source_file>
/data/baiqing/PycharmProjects/Reinvent-master-3.2/result/LINK_invent/BTK/process_docking_weight1_custom_product_contain_oxygen_bond_distance_aromatic_linkinvent_7_9_3/rearranged_h_0096.sdf

> <i_m_source_file_index>
19

> <r_mmod_Potential_Energy-OPLS-2005>
431.145629882812

> <r_mmod_Stretch_Energy-OPLS-2005>
99.2619857788086

> <r_mmod_Bend_Energy-OPLS-2005>
181.511322021484

> <r_mmod_Torsional_Energy-OPLS-2005>
346.474700927734

> <r_mmod_Improper_Torsional_Energy-OPLS-2005>
11.4674644470215

> <r_mmod_Van_der_Waal_Energy-OPLS-2005>
163.645919799805

> <r_mmod_Electrostatic_Energy-OPLS-2005>
-238.202270507812

> <r_mmod_Solvation_Energy-OPLS-2005>
-220.559005737305

> <b_mmod_Minimization_Converged-OPLS-2005>
0

> <r_mmod_RMS_Derivative-OPLS-2005>
0.617051184177399

$$$$
19
                    3D
 Structure written by MMmdl.
153161  0  0  1  0            999 V2000
  -30.6155  -14.7277   20.4806 C   0  0  0  0  0  0
  -30.4317  -12.4495   19.4652 C   0  0  0  0  0  0
  -29.5070  -12.5126   18.2297 C   0  0  0  0  0  0
  -28.0332  -12.3343   18.6436 C   0  0  0  0  0  0
  -27.6410  -13.2296   19.8489 C   0  0  2  0  0  0
  -28.6863  -13.1498   20.9819 C   0  0  0  0  0  0
  -25.2504  -13.8191   20.5687 C   0  0  0  0  0  0
  -24.1800  -13.0436   20.9207 C   0  0  0  0  0  0
  -24.6395  -11.6913   20.8749 C   0  0  0  0  0  0
  -23.9080  -10.4290   21.0408 C   0  0  0  0  0  0
  -24.3629   -9.4199   21.9183 C   0  0  0  0  0  0
  -23.6300   -8.2237   22.0759 C   0  0  0  0  0  0
  -22.4278   -8.0284   21.3550 C   0  0  0  0  0  0
  -21.9914   -9.0257   20.4651 C   0  0  0  0  0  0
  -22.7251  -10.2130   20.3056 C   0  0  0  0  0  0
  -21.6859   -6.0738   22.5291 C   0  0  0  0  0  0
  -21.4013   -6.5641   23.8223 C   0  0  0  0  0  0
  -21.3656   -5.6796   24.9188 C   0  0  0  0  0  0
  -21.6041   -4.3057   24.7236 C   0  0  0  0  0  0
  -21.8815   -3.8150   23.4357 C   0  0  0  0  0  0
  -21.9189   -4.6966   22.3413 C   0  0  0  0  0  0
  -22.7820  -13.5210   21.1867 C   0  0  0  0  0  0
  -22.1661   -4.2151   21.0990 F   0  0  0  0  0  0
  -21.5629   -3.4541   25.7747 F   0  0  0  0  0  0
  -29.9862  -13.5069   20.3995 N   0  0  0  0  0  0
  -26.2932  -12.9399   20.3269 N   0  0  0  0  0  0
  -25.9317  -11.6540   20.5735 N   0  0  0  0  0  0
  -22.0483  -12.8198   22.0427 N   0  0  0  0  0  0
  -25.4175  -15.1919   20.4100 N   0  0  0  0  0  0
  -31.8066  -14.8305   20.1785 O   0  0  0  0  0  0
  -21.6644   -6.8880   21.4248 O   0  0  0  0  0  0
  -22.3498  -14.5516   20.6716 O   0  0  0  0  0  0
  -24.6320  -31.8564   23.2008 C   0  0  0  0  0  0
  -25.9152  -32.4757   23.8345 C   0  0  1  0  0  0
  -27.2133  -27.2556   20.1241 C   0  0  0  0  0  0
  -25.5946  -33.8560   24.2268 N   0  0  0  0  0  0
  -23.4280  -30.4826   21.5437 C   0  0  2  0  0  0
  -24.8735  -28.9318   20.1127 C   0  0  0  0  0  0
  -22.7498  -29.4622   22.4899 C   0  0  0  0  0  0
  -18.0295  -28.1387   22.8482 C   0  0  0  0  0  0
  -24.1491  -36.7282   23.2642 C   0  0  0  0  0  0
  -25.9767  -30.7661   21.3844 C   0  0  0  0  0  0
  -26.0476  -29.3893   20.7243 C   0  0  0  0  0  0
  -27.2203  -28.5641   20.7205 C   0  0  0  0  0  0
  -26.0161  -26.8783   19.4732 C   0  0  0  0  0  0
  -24.8635  -27.6835   19.4778 C   0  0  0  0  0  0
  -23.6468  -29.8218   20.1589 C   0  0  0  0  0  0
  -25.4119  -36.3076   24.0333 C   0  0  1  0  0  0
  -20.5901  -28.3709   23.1251 C   0  0  2  0  0  0
  -20.6781  -26.9424   22.5395 C   0  0  0  0  0  0
  -19.5754  -26.6384   21.5200 C   0  0  0  0  0  0
  -18.1939  -26.7927   22.1619 C   0  0  0  0  0  0
  -19.1550  -28.8862   23.2865 C   0  0  0  0  0  0
  -18.9470  -30.1459   23.8889 C   0  0  0  0  0  0
  -17.6470  -30.6587   24.0564 C   0  0  0  0  0  0
  -25.9059  -34.9444   23.5102 C   0  0  0  0  0  0
  -16.5361  -29.9085   23.6330 C   0  0  0  0  0  0
  -16.7283  -28.6502   23.0351 C   0  0  0  0  0  0
  -26.4508  -31.6584   25.0738 C   0  0  0  0  0  0
  -25.3717  -31.3735   26.1444 C   0  0  0  0  0  0
  -27.0370  -30.3002   24.6246 C   0  0  0  0  0  0
  -27.6065  -32.4319   25.7507 C   0  0  0  0  0  0
  -27.5583  -37.1801   24.8467 C   0  0  0  0  0  0
  -21.4204  -29.3062   22.3640 N   0  0  0  0  0  0
  -26.4295  -37.3776   23.9409 N   0  0  0  0  0  0
  -24.6981  -31.0527   22.0987 N   0  0  0  0  0  0
  -23.4196  -28.8157   23.2994 O   0  0  0  0  0  0
  -28.3040  -26.3500   20.1595 O   0  0  0  0  0  0
  -26.5627  -34.8922   22.4667 O   0  0  0  0  0  0
  -23.5470  -32.1388   23.7297 O   0  0  0  0  0  0
  -29.4079  -19.7710   18.0561 C   0  0  0  0  0  0
  -29.1605  -21.0021   18.6996 C   0  0  0  0  0  0
  -29.7642  -18.5971   20.1915 C   0  0  0  0  0  0
  -29.7139  -18.5931   18.7742 C   0  0  0  0  0  0
  -29.1948  -21.1142   20.1059 C   0  0  0  0  0  0
  -29.4890  -19.8824   20.8293 C   0  0  0  0  0  0
  -30.2611  -17.3037   20.9997 C   0  0  0  0  0  0
  -28.0191  -24.8702   20.2876 C   0  0  0  0  0  0
  -29.1484  -23.7160   20.1700 C   0  0  0  0  0  0
  -29.9945  -17.4386   18.0450 N   0  0  0  0  0  0
  -29.8450  -15.8548   20.7158 N   0  0  0  0  0  0
  -28.8938  -22.3548   20.7491 O   0  0  0  0  0  0
  -29.5341  -19.9441   22.1827 F   0  0  0  0  0  0
  -31.4723  -12.5752   19.1636 H   0  0  0  0  0  0
  -30.3745  -11.4693   19.9399 H   0  0  0  0  0  0
  -29.7878  -11.7489   17.5023 H   0  0  0  0  0  0
  -29.6312  -13.4734   17.7287 H   0  0  0  0  0  0
  -27.8893  -11.2842   18.9008 H   0  0  0  0  0  0
  -27.3762  -12.5319   17.7961 H   0  0  0  0  0  0
  -27.6382  -14.2535   19.4739 H   0  0  0  0  0  0
  -28.7185  -12.1447   21.4053 H   0  0  0  0  0  0
  -28.4212  -13.8188   21.8015 H   0  0  0  0  0  0
  -25.2775   -9.5676   22.4758 H   0  0  0  0  0  0
  -24.0012   -7.4623   22.7471 H   0  0  0  0  0  0
  -21.0852   -8.8769   19.8950 H   0  0  0  0  0  0
  -22.3715  -10.9664   19.6161 H   0  0  0  0  0  0
  -21.2009   -7.6152   23.9727 H   0  0  0  0  0  0
  -21.1482   -6.0533   25.9089 H   0  0  0  0  0  0
  -22.0593   -2.7612   23.2868 H   0  0  0  0  0  0
  -22.4117  -11.9857   22.4801 H   0  0  0  0  0  0
  -21.1098  -13.1202   22.2650 H   0  0  0  0  0  0
  -24.6444  -15.8404   20.5128 H   0  0  0  0  0  0
  -26.2570  -15.6319   20.0560 H   0  0  0  0  0  0
  -26.7216  -32.5408   23.1084 H   0  0  0  0  0  0
  -25.0090  -33.9694   25.0413 H   0  0  0  0  0  0
  -22.7266  -31.3070   21.3999 H   0  0  0  0  0  0
  -23.3761  -35.9604   23.3295 H   0  0  0  0  0  0
  -24.3586  -36.8908   22.2058 H   0  0  0  0  0  0
  -23.7231  -37.6478   23.6666 H   0  0  0  0  0  0
  -26.1210  -31.5284   20.6173 H   0  0  0  0  0  0
  -26.8521  -30.8115   22.0204 H   0  0  0  0  0  0
  -28.1164  -28.9093   21.2174 H   0  0  0  0  0  0
  -25.9301  -25.9461   18.9403 H   0  0  0  0  0  0
  -23.9686  -27.3315   18.9837 H   0  0  0  0  0  0
  -23.7771  -30.6008   19.4066 H   0  0  0  0  0  0
  -22.7635  -29.2603   19.8495 H   0  0  0  0  0  0
  -25.1300  -36.1928   25.0826 H   0  0  0  0  0  0
  -21.0004  -28.3292   24.1367 H   0  0  0  0  0  0
  -20.5666  -26.2327   23.3608 H   0  0  0  0  0  0
  -21.6653  -26.7433   22.1202 H   0  0  0  0  0  0
  -19.6918  -25.6289   21.1243 H   0  0  0  0  0  0
  -19.6687  -27.3184   20.6722 H   0  0  0  0  0  0
  -17.4202  -26.6667   21.4029 H   0  0  0  0  0  0
  -18.0351  -26.0070   22.9019 H   0  0  0  0  0  0
  -19.7949  -30.7276   24.2255 H   0  0  0  0  0  0
  -17.5027  -31.6269   24.5166 H   0  0  0  0  0  0
  -15.5365  -30.2985   23.7657 H   0  0  0  0  0  0
  -15.8684  -28.0821   22.7064 H   0  0  0  0  0  0
  -24.5899  -30.7083   25.7755 H   0  0  0  0  0  0
  -24.8898  -32.2904   26.4847 H   0  0  0  0  0  0
  -25.8014  -30.8916   27.0234 H   0  0  0  0  0  0
  -26.2977  -29.6728   24.1256 H   0  0  0  0  0  0
  -27.4032  -29.7287   25.4781 H   0  0  0  0  0  0
  -27.8856  -30.4272   23.9523 H   0  0  0  0  0  0
  -27.2689  -33.3630   26.2067 H   0  0  0  0  0  0
  -28.3886  -32.6851   25.0337 H   0  0  0  0  0  0
  -28.0722  -31.8447   26.5432 H   0  0  0  0  0  0
  -28.2599  -38.0100   24.7525 H   0  0  0  0  0  0
  -28.1083  -36.2632   24.6282 H   0  0  0  0  0  0
  -27.2304  -37.1438   25.8872 H   0  0  0  0  0  0
  -20.9382  -29.8805   21.6868 H   0  0  0  0  0  0
  -26.0175  -38.2852   24.1400 H   0  0  0  0  0  0
  -29.3703  -19.7468   16.9758 H   0  0  0  0  0  0
  -28.9171  -21.8550   18.0840 H   0  0  0  0  0  0
  -30.0299  -17.4787   22.0505 H   0  0  0  0  0  0
  -31.3495  -17.3389   20.9523 H   0  0  0  0  0  0
  -27.5424  -24.7519   21.2612 H   0  0  0  0  0  0
  -27.2696  -24.5634   19.5641 H   0  0  0  0  0  0
  -30.0205  -24.0802   20.7125 H   0  0  0  0  0  0
  -29.4830  -23.6561   19.1360 H   0  0  0  0  0  0
  -30.2339  -17.5167   17.0614 H   0  0  0  0  0  0
  -30.4786  -16.6814   18.5156 H   0  0  0  0  0  0
  -28.8629  -15.6676   20.8450 H   0  0  0  0  0  0
  1 25  1  0  0  0
  1 30  2  0  0  0
  1 81  1  0  0  0
  2  3  1  0  0  0
  2 25  1  0  0  0
  2 84  1  0  0  0
  2 85  1  0  0  0
  3  4  1  0  0  0
  3 86  1  0  0  0
  3 87  1  0  0  0
  4  5  1  0  0  0
  4 88  1  0  0  0
  4 89  1  0  0  0
  5  6  1  0  0  0
  5 26  1  0  0  0
  5 90  1  0  0  0
  6 25  1  0  0  0
  6 91  1  0  0  0
  6 92  1  0  0  0
  7  8  2  0  0  0
  7 26  1  0  0  0
  7 29  1  0  0  0
  8  9  1  0  0  0
  8 22  1  0  0  0
  9 10  1  0  0  0
  9 27  2  0  0  0
 10 11  2  0  0  0
 10 15  1  0  0  0
 11 12  1  0  0  0
 11 93  1  0  0  0
 12 13  2  0  0  0
 12 94  1  0  0  0
 13 14  1  0  0  0
 13 31  1  0  0  0
 14 15  2  0  0  0
 14 95  1  0  0  0
 15 96  1  0  0  0
 16 17  2  0  0  0
 16 21  1  0  0  0
 16 31  1  0  0  0
 17 18  1  0  0  0
 17 97  1  0  0  0
 18 19  2  0  0  0
 18 98  1  0  0  0
 19 20  1  0  0  0
 19 24  1  0  0  0
 20 21  2  0  0  0
 20 99  1  0  0  0
 21 23  1  0  0  0
 22 28  1  0  0  0
 22 32  2  0  0  0
 26 27  1  0  0  0
 28100  1  0  0  0
 28101  1  0  0  0
 29102  1  0  0  0
 29103  1  0  0  0
 33 34  1  0  0  0
 33 66  1  0  0  0
 33 70  2  0  0  0
 34 36  1  0  0  0
 34 59  1  0  0  0
 34104  1  0  0  0
 35 44  2  0  0  0
 35 45  1  0  0  0
 35 68  1  0  0  0
 36 56  1  0  0  0
 36105  1  0  0  0
 37 39  1  0  0  0
 37 47  1  0  0  0
 37 66  1  0  0  0
 37106  1  0  0  0
 38 43  2  0  0  0
 38 46  1  0  0  0
 38 47  1  0  0  0
 39 64  1  0  0  0
 39 67  2  0  0  0
 40 52  1  0  0  0
 40 53  2  0  0  0
 40 58  1  0  0  0
 41107  1  0  0  0
 41108  1  0  0  0
 41109  1  0  0  0
 41 48  1  0  0  0
 42 43  1  0  0  0
 42 66  1  0  0  0
 42110  1  0  0  0
 42111  1  0  0  0
 43 44  1  0  0  0
 44112  1  0  0  0
 45 46  2  0  0  0
 45113  1  0  0  0
 46114  1  0  0  0
 47115  1  0  0  0
 47116  1  0  0  0
 48 56  1  0  0  0
 48 65  1  0  0  0
 48117  1  0  0  0
 49 50  1  0  0  0
 49 53  1  0  0  0
 49 64  1  0  0  0
 49118  1  0  0  0
 50 51  1  0  0  0
 50119  1  0  0  0
 50120  1  0  0  0
 51 52  1  0  0  0
 51121  1  0  0  0
 51122  1  0  0  0
 52123  1  0  0  0
 52124  1  0  0  0
 53 54  1  0  0  0
 54 55  2  0  0  0
 54125  1  0  0  0
 55 57  1  0  0  0
 55126  1  0  0  0
 56 69  2  0  0  0
 57 58  2  0  0  0
 57127  1  0  0  0
 58128  1  0  0  0
 59 60  1  0  0  0
 59 61  1  0  0  0
 59 62  1  0  0  0
 60129  1  0  0  0
 60130  1  0  0  0
 60131  1  0  0  0
 61132  1  0  0  0
 61133  1  0  0  0
 61134  1  0  0  0
 62135  1  0  0  0
 62136  1  0  0  0
 62137  1  0  0  0
 63 65  1  0  0  0
 63138  1  0  0  0
 63139  1  0  0  0
 63140  1  0  0  0
 64141  1  0  0  0
 65142  1  0  0  0
 68 78  1  0  0  0
 71 72  2  0  0  0
 71 74  1  0  0  0
 71143  1  0  0  0
 72 75  1  0  0  0
 72144  1  0  0  0
 73 74  2  0  0  0
 73 76  1  0  0  0
 73 77  1  0  0  0
 74 80  1  0  0  0
 75 76  2  0  0  0
 75 82  1  0  0  0
 76 83  1  0  0  0
 77 81  1  0  0  0
 77145  1  0  0  0
 77146  1  0  0  0
 78 79  1  0  0  0
 78147  1  0  0  0
 78148  1  0  0  0
 79 82  1  0  0  0
 79149  1  0  0  0
 79150  1  0  0  0
 80151  1  0  0  0
 80152  1  0  0  0
 81153  1  0  0  0
M  ISO  4   1 100  68 101  78 101  81 100
M  END
> <chiral flag>
0

> <version>
0

> <s_m_source_file>
/data/baiqing/PycharmProjects/Reinvent-master-3.2/result/LINK_invent/BTK/process_docking_weight1_custom_product_contain_oxygen_bond_distance_aromatic_linkinvent_7_9_3/rearranged_h_0096.sdf

> <i_m_source_file_index>
20

> <r_mmod_Potential_Energy-OPLS-2005>
188.358978271484

> <r_mmod_Stretch_Energy-OPLS-2005>
128.268737792969

> <r_mmod_Bend_Energy-OPLS-2005>
180.847305297852

> <r_mmod_Torsional_Energy-OPLS-2005>
219.416229248047

> <r_mmod_Improper_Torsional_Energy-OPLS-2005>
7.7781662940979

> <r_mmod_Van_der_Waal_Energy-OPLS-2005>
142.591262817383

> <r_mmod_Electrostatic_Energy-OPLS-2005>
-360.880920410156

> <r_mmod_Solvation_Energy-OPLS-2005>
-212.872512817383

> <b_mmod_Minimization_Converged-OPLS-2005>
0

> <r_mmod_RMS_Derivative-OPLS-2005>
1.29615819454193

$$$$
20
                    3D
 Structure written by MMmdl.
162170  0  0  1  0            999 V2000
  -30.7036  -14.4716   20.5395 C   0  0  0  0  0  0
  -30.4204  -12.2987   19.4160 C   0  0  0  0  0  0
  -29.4939  -12.4915   18.1972 C   0  0  0  0  0  0
  -28.0183  -12.3613   18.6126 C   0  0  0  0  0  0
  -27.6656  -13.2056   19.8679 C   0  0  2  0  0  0
  -28.7072  -13.0019   20.9896 C   0  0  0  0  0  0
  -25.2646  -13.8134   20.5629 C   0  0  0  0  0  0
  -24.1922  -13.0385   20.9168 C   0  0  0  0  0  0
  -24.6480  -11.6856   20.8779 C   0  0  0  0  0  0
  -23.9107  -10.4240   21.0460 C   0  0  0  0  0  0
  -24.3621   -9.4109   21.9229 C   0  0  0  0  0  0
  -23.6236   -8.2174   22.0760 C   0  0  0  0  0  0
  -22.4218   -8.0266   21.3546 C   0  0  0  0  0  0
  -21.9904   -9.0266   20.4658 C   0  0  0  0  0  0
  -22.7284  -10.2110   20.3067 C   0  0  0  0  0  0
  -21.6826   -6.0700   22.5280 C   0  0  0  0  0  0
  -21.4011   -6.5609   23.8217 C   0  0  0  0  0  0
  -21.3649   -5.6771   24.9185 C   0  0  0  0  0  0
  -21.6040   -4.3026   24.7251 C   0  0  0  0  0  0
  -21.8797   -3.8125   23.4375 C   0  0  0  0  0  0
  -21.9153   -4.6930   22.3408 C   0  0  0  0  0  0
  -22.7933  -13.5183   21.1793 C   0  0  0  0  0  0
  -22.1598   -4.2119   21.0975 F   0  0  0  0  0  0
  -21.5647   -3.4497   25.7756 F   0  0  0  0  0  0
  -30.0360  -13.2939   20.4310 N   0  0  0  0  0  0
  -26.3085  -12.9300   20.3358 N   0  0  0  0  0  0
  -25.9412  -11.6478   20.5847 N   0  0  0  0  0  0
  -22.0578  -12.8178   22.0361 N   0  0  0  0  0  0
  -25.4245  -15.1831   20.3908 N   0  0  0  0  0  0
  -31.8367  -14.6335   20.0798 O   0  0  0  0  0  0
  -21.6577   -6.8860   21.4256 O   0  0  0  0  0  0
  -22.3631  -14.5488   20.6646 O   0  0  0  0  0  0
  -24.6125  -31.8649   23.2130 C   0  0  0  0  0  0
  -25.9008  -32.4794   23.8424 C   0  0  1  0  0  0
  -27.2316  -27.4683   20.0887 C   0  0  0  0  0  0
  -25.5830  -33.8600   24.2337 N   0  0  0  0  0  0
  -23.3966  -30.4897   21.5587 C   0  0  2  0  0  0
  -24.8368  -28.9513   20.1267 C   0  0  0  0  0  0
  -22.7385  -29.4625   22.5076 C   0  0  0  0  0  0
  -18.0255  -28.1372   22.8480 C   0  0  0  0  0  0
  -24.1481  -36.7343   23.2655 C   0  0  0  0  0  0
  -25.9201  -30.8389   21.3594 C   0  0  0  0  0  0
  -25.9955  -29.4728   20.7170 C   0  0  0  0  0  0
  -27.1983  -28.7373   20.6965 C   0  0  0  0  0  0
  -26.0609  -26.9448   19.5018 C   0  0  0  0  0  0
  -24.8589  -27.6803   19.5261 C   0  0  0  0  0  0
  -23.5974  -29.8188   20.1748 C   0  0  0  0  0  0
  -25.4089  -36.3110   24.0350 C   0  0  1  0  0  0
  -20.5840  -28.3629   23.1362 C   0  0  2  0  0  0
  -20.6754  -26.9382   22.5447 C   0  0  0  0  0  0
  -19.5735  -26.6386   21.5242 C   0  0  0  0  0  0
  -18.1900  -26.7902   22.1648 C   0  0  0  0  0  0
  -19.1499  -28.8840   23.2890 C   0  0  0  0  0  0
  -18.9430  -30.1442   23.8906 C   0  0  0  0  0  0
  -17.6435  -30.6580   24.0582 C   0  0  0  0  0  0
  -25.9014  -34.9460   23.5153 C   0  0  0  0  0  0
  -16.5327  -29.9081   23.6338 C   0  0  0  0  0  0
  -16.7241  -28.6504   23.0335 C   0  0  0  0  0  0
  -26.4452  -31.6550   25.0732 C   0  0  0  0  0  0
  -25.3761  -31.3633   26.1524 C   0  0  0  0  0  0
  -27.0307  -30.3013   24.6056 C   0  0  0  0  0  0
  -27.6042  -32.4262   25.7469 C   0  0  0  0  0  0
  -27.5560  -37.1832   24.8466 C   0  0  0  0  0  0
  -21.4127  -29.2959   22.3769 N   0  0  0  0  0  0
  -26.4274  -37.3791   23.9404 N   0  0  0  0  0  0
  -24.6628  -31.0766   22.1028 N   0  0  0  0  0  0
  -23.4155  -28.8193   23.3138 O   0  0  0  0  0  0
  -28.4169  -26.7889   19.9966 O   0  0  0  0  0  0
  -26.5643  -34.8921   22.4746 O   0  0  0  0  0  0
  -23.5331  -32.1411   23.7541 O   0  0  0  0  0  0
  -29.3470  -17.7315   20.1842 C   0  0  0  0  0  0
  -31.8172  -18.7813   20.9395 C   0  0  0  0  0  0
  -29.6274  -19.0871   19.8604 C   0  0  0  0  0  0
  -30.2955  -16.8844   20.8031 C   0  0  0  0  0  0
  -30.9068  -19.6049   20.2414 C   0  0  0  0  0  0
  -31.5265  -17.4347   21.2204 C   0  0  0  0  0  0
  -28.3875  -22.3425   19.5369 C   0  0  0  0  0  0
  -28.1106  -19.1663   17.7970 C   0  0  0  0  0  0
  -28.7774  -23.7200   18.9794 C   0  0  0  0  0  0
  -29.4676  -24.6291   20.0243 C   0  0  0  0  0  0
  -28.5116  -25.5897   20.7551 C   0  0  0  0  0  0
  -28.5017  -19.8643   19.1141 C   0  0  2  0  0  0
  -31.3328  -20.9081   19.9718 N   0  0  0  0  0  0
  -29.9798  -15.5073   21.0098 N   0  0  0  0  0  0
  -28.7303  -21.2791   18.7928 N   0  0  0  0  0  0
  -27.8228  -22.2466   20.6279 O   0  0  0  0  0  0
  -32.4291  -16.6868   21.9007 F   0  0  0  0  0  0
  -31.4670  -12.3899   19.1112 H   0  0  0  0  0  0
  -30.3193  -11.2914   19.8183 H   0  0  0  0  0  0
  -29.7326  -11.7592   17.4255 H   0  0  0  0  0  0
  -29.6624  -13.4729   17.7502 H   0  0  0  0  0  0
  -27.8264  -11.3053   18.8054 H   0  0  0  0  0  0
  -27.3662  -12.6358   17.7827 H   0  0  0  0  0  0
  -27.7046  -14.2524   19.5606 H   0  0  0  0  0  0
  -28.6865  -11.9782   21.3601 H   0  0  0  0  0  0
  -28.4793  -13.6254   21.8560 H   0  0  0  0  0  0
  -25.2804   -9.5467   22.4784 H   0  0  0  0  0  0
  -23.9861   -7.4518   22.7490 H   0  0  0  0  0  0
  -21.0819   -8.8830   19.9000 H   0  0  0  0  0  0
  -22.3821  -10.9627   19.6112 H   0  0  0  0  0  0
  -21.2019   -7.6131   23.9720 H   0  0  0  0  0  0
  -21.1504   -6.0518   25.9095 H   0  0  0  0  0  0
  -22.0596   -2.7594   23.2879 H   0  0  0  0  0  0
  -22.4167  -11.9832   22.4736 H   0  0  0  0  0  0
  -21.1232  -13.1263   22.2594 H   0  0  0  0  0  0
  -24.6408  -15.8205   20.5014 H   0  0  0  0  0  0
  -26.2457  -15.6274   20.0012 H   0  0  0  0  0  0
  -26.7087  -32.5532   23.1220 H   0  0  0  0  0  0
  -24.9838  -33.9759   25.0391 H   0  0  0  0  0  0
  -22.6860  -31.3075   21.4285 H   0  0  0  0  0  0
  -23.3688  -35.9732   23.3327 H   0  0  0  0  0  0
  -24.3621  -36.8943   22.2073 H   0  0  0  0  0  0
  -23.7281  -37.6576   23.6662 H   0  0  0  0  0  0
  -26.0262  -31.5927   20.5781 H   0  0  0  0  0  0
  -26.8098  -30.9024   21.9706 H   0  0  0  0  0  0
  -28.0983  -29.1379   21.1406 H   0  0  0  0  0  0
  -26.0870  -25.9817   19.0131 H   0  0  0  0  0  0
  -23.9649  -27.2721   19.0764 H   0  0  0  0  0  0
  -23.7073  -30.5959   19.4154 H   0  0  0  0  0  0
  -22.7173  -29.2402   19.8836 H   0  0  0  0  0  0
  -25.1264  -36.1995   25.0844 H   0  0  0  0  0  0
  -20.9919  -28.3198   24.1492 H   0  0  0  0  0  0
  -20.5700  -26.2243   23.3622 H   0  0  0  0  0  0
  -21.6625  -26.7439   22.1235 H   0  0  0  0  0  0
  -19.6900  -25.6318   21.1207 H   0  0  0  0  0  0
  -19.6682  -27.3272   20.6822 H   0  0  0  0  0  0
  -17.4189  -26.6639   21.4022 H   0  0  0  0  0  0
  -18.0273  -26.0057   22.9052 H   0  0  0  0  0  0
  -19.7915  -30.7237   24.2262 H   0  0  0  0  0  0
  -17.5003  -31.6269   24.5169 H   0  0  0  0  0  0
  -15.5324  -30.2997   23.7659 H   0  0  0  0  0  0
  -15.8626  -28.0855   22.7005 H   0  0  0  0  0  0
  -24.5918  -30.6980   25.7875 H   0  0  0  0  0  0
  -24.9003  -32.2800   26.5008 H   0  0  0  0  0  0
  -25.8164  -30.8794   27.0254 H   0  0  0  0  0  0
  -26.2848  -29.6742   24.1157 H   0  0  0  0  0  0
  -27.4165  -29.7233   25.4453 H   0  0  0  0  0  0
  -27.8621  -30.4353   23.9140 H   0  0  0  0  0  0
  -27.2634  -33.3514   26.2119 H   0  0  0  0  0  0
  -28.3786  -32.6871   25.0240 H   0  0  0  0  0  0
  -28.0784  -31.8361   26.5319 H   0  0  0  0  0  0
  -28.2602  -38.0103   24.7453 H   0  0  0  0  0  0
  -28.1028  -36.2630   24.6335 H   0  0  0  0  0  0
  -27.2318  -37.1544   25.8890 H   0  0  0  0  0  0
  -20.9302  -29.8653   21.6967 H   0  0  0  0  0  0
  -26.0157  -38.2876   24.1360 H   0  0  0  0  0  0
  -28.3828  -17.3221   19.9178 H   0  0  0  0  0  0
  -32.7675  -19.1769   21.2688 H   0  0  0  0  0  0
  -27.7091  -18.1656   17.9572 H   0  0  0  0  0  0
  -28.9643  -19.0821   17.1247 H   0  0  0  0  0  0
  -27.3290  -19.7195   17.2758 H   0  0  0  0  0  0
  -27.8950  -24.2088   18.5684 H   0  0  0  0  0  0
  -29.4526  -23.5879   18.1347 H   0  0  0  0  0  0
  -30.2614  -25.2122   19.5535 H   0  0  0  0  0  0
  -29.9797  -24.0099   20.7619 H   0  0  0  0  0  0
  -28.9323  -25.8534   21.7246 H   0  0  0  0  0  0
  -27.5439  -25.1230   20.9493 H   0  0  0  0  0  0
  -27.6263  -19.8183   19.7670 H   0  0  0  0  0  0
  -32.3094  -21.1772   20.0517 H   0  0  0  0  0  0
  -30.7723  -21.5174   19.3889 H   0  0  0  0  0  0
  -29.0247  -15.2903   21.2440 H   0  0  0  0  0  0
  -29.1267  -21.4629   17.8808 H   0  0  0  0  0  0
  1 25  1  0  0  0
  1 30  2  0  0  0
  1 84  1  0  0  0
  2  3  1  0  0  0
  2 25  1  0  0  0
  2 88  1  0  0  0
  2 89  1  0  0  0
  3  4  1  0  0  0
  3 90  1  0  0  0
  3 91  1  0  0  0
  4  5  1  0  0  0
  4 92  1  0  0  0
  4 93  1  0  0  0
  5  6  1  0  0  0
  5 26  1  0  0  0
  5 94  1  0  0  0
  6 25  1  0  0  0
  6 95  1  0  0  0
  6 96  1  0  0  0
  7  8  2  0  0  0
  7 26  1  0  0  0
  7 29  1  0  0  0
  8  9  1  0  0  0
  8 22  1  0  0  0
  9 10  1  0  0  0
  9 27  2  0  0  0
 10 11  2  0  0  0
 10 15  1  0  0  0
 11 12  1  0  0  0
 11 97  1  0  0  0
 12 13  2  0  0  0
 12 98  1  0  0  0
 13 14  1  0  0  0
 13 31  1  0  0  0
 14 15  2  0  0  0
 14 99  1  0  0  0
 15100  1  0  0  0
 16 17  2  0  0  0
 16 21  1  0  0  0
 16 31  1  0  0  0
 17 18  1  0  0  0
 17101  1  0  0  0
 18 19  2  0  0  0
 18102  1  0  0  0
 19 20  1  0  0  0
 19 24  1  0  0  0
 20 21  2  0  0  0
 20103  1  0  0  0
 21 23  1  0  0  0
 22 28  1  0  0  0
 22 32  2  0  0  0
 26 27  1  0  0  0
 28104  1  0  0  0
 28105  1  0  0  0
 29106  1  0  0  0
 29107  1  0  0  0
 33 34  1  0  0  0
 33 66  1  0  0  0
 33 70  2  0  0  0
 34 36  1  0  0  0
 34 59  1  0  0  0
 34108  1  0  0  0
 35 44  2  0  0  0
 35 45  1  0  0  0
 35 68  1  0  0  0
 36 56  1  0  0  0
 36109  1  0  0  0
 37 39  1  0  0  0
 37 47  1  0  0  0
 37 66  1  0  0  0
 37110  1  0  0  0
 38 43  2  0  0  0
 38 46  1  0  0  0
 38 47  1  0  0  0
 39 64  1  0  0  0
 39 67  2  0  0  0
 40 52  1  0  0  0
 40 53  2  0  0  0
 40 58  1  0  0  0
 41111  1  0  0  0
 41112  1  0  0  0
 41113  1  0  0  0
 41 48  1  0  0  0
 42 43  1  0  0  0
 42 66  1  0  0  0
 42114  1  0  0  0
 42115  1  0  0  0
 43 44  1  0  0  0
 44116  1  0  0  0
 45 46  2  0  0  0
 45117  1  0  0  0
 46118  1  0  0  0
 47119  1  0  0  0
 47120  1  0  0  0
 48 56  1  0  0  0
 48 65  1  0  0  0
 48121  1  0  0  0
 49 50  1  0  0  0
 49 53  1  0  0  0
 49 64  1  0  0  0
 49122  1  0  0  0
 50 51  1  0  0  0
 50123  1  0  0  0
 50124  1  0  0  0
 51 52  1  0  0  0
 51125  1  0  0  0
 51126  1  0  0  0
 52127  1  0  0  0
 52128  1  0  0  0
 53 54  1  0  0  0
 54 55  2  0  0  0
 54129  1  0  0  0
 55 57  1  0  0  0
 55130  1  0  0  0
 56 69  2  0  0  0
 57 58  2  0  0  0
 57131  1  0  0  0
 58132  1  0  0  0
 59 60  1  0  0  0
 59 61  1  0  0  0
 59 62  1  0  0  0
 60133  1  0  0  0
 60134  1  0  0  0
 60135  1  0  0  0
 61136  1  0  0  0
 61137  1  0  0  0
 61138  1  0  0  0
 62139  1  0  0  0
 62140  1  0  0  0
 62141  1  0  0  0
 63 65  1  0  0  0
 63142  1  0  0  0
 63143  1  0  0  0
 63144  1  0  0  0
 64145  1  0  0  0
 65146  1  0  0  0
 68 81  1  0  0  0
 71 73  2  0  0  0
 71 74  1  0  0  0
 71147  1  0  0  0
 72 75  2  0  0  0
 72 76  1  0  0  0
 72148  1  0  0  0
 73 75  1  0  0  0
 73 82  1  0  0  0
 74 76  2  0  0  0
 74 84  1  0  0  0
 75 83  1  0  0  0
 76 87  1  0  0  0
 77 79  1  0  0  0
 77 85  1  0  0  0
 77 86  2  0  0  0
 78149  1  0  0  0
 78150  1  0  0  0
 78151  1  0  0  0
 78 82  1  0  0  0
 79 80  1  0  0  0
 79152  1  0  0  0
 79153  1  0  0  0
 80 81  1  0  0  0
 80154  1  0  0  0
 80155  1  0  0  0
 81156  1  0  0  0
 81157  1  0  0  0
 82 85  1  0  0  0
 82158  1  0  0  0
 83159  1  0  0  0
 83160  1  0  0  0
 84161  1  0  0  0
 85162  1  0  0  0
M  ISO  4   1 100  68 101  81 101  84 100
M  END
> <chiral flag>
0

> <version>
0

> <s_m_source_file>
/data/baiqing/PycharmProjects/Reinvent-master-3.2/result/LINK_invent/BTK/process_docking_weight1_custom_product_contain_oxygen_bond_distance_aromatic_linkinvent_7_9_3/rearranged_h_0096.sdf

> <i_m_source_file_index>
21

> <r_mmod_Potential_Energy-OPLS-2005>
-140.062393188477

> <r_mmod_Stretch_Energy-OPLS-2005>
38.2947273254395

> <r_mmod_Bend_Energy-OPLS-2005>
108.810272216797

> <r_mmod_Torsional_Energy-OPLS-2005>
247.74626159668

> <r_mmod_Improper_Torsional_Energy-OPLS-2005>
7.01816082000732

> <r_mmod_Van_der_Waal_Energy-OPLS-2005>
156.801300048828

> <r_mmod_Electrostatic_Energy-OPLS-2005>
-465.833953857422

> <r_mmod_Solvation_Energy-OPLS-2005>
-244.700607299805

> <b_mmod_Minimization_Converged-OPLS-2005>
0

> <r_mmod_RMS_Derivative-OPLS-2005>
5.39148330688477

$$$$
21
                    3D
 Structure written by MMmdl.
163172  0  0  1  0            999 V2000
  -30.7276  -14.5088   20.5509 C   0  0  0  0  0  0
  -30.4094  -12.3274   19.4402 C   0  0  0  0  0  0
  -29.4916  -12.4974   18.2140 C   0  0  0  0  0  0
  -28.0152  -12.3554   18.6280 C   0  0  0  0  0  0
  -27.6534  -13.2201   19.8660 C   0  0  2  0  0  0
  -28.6965  -13.0626   20.9953 C   0  0  0  0  0  0
  -25.2547  -13.8192   20.5698 C   0  0  0  0  0  0
  -24.1818  -13.0449   20.9190 C   0  0  0  0  0  0
  -24.6393  -11.6919   20.8745 C   0  0  0  0  0  0
  -23.9069  -10.4298   21.0407 C   0  0  0  0  0  0
  -24.3621   -9.4213   21.9186 C   0  0  0  0  0  0
  -23.6294   -8.2248   22.0752 C   0  0  0  0  0  0
  -22.4277   -8.0286   21.3541 C   0  0  0  0  0  0
  -21.9917   -9.0260   20.4645 C   0  0  0  0  0  0
  -22.7243  -10.2138   20.3055 C   0  0  0  0  0  0
  -21.6853   -6.0740   22.5281 C   0  0  0  0  0  0
  -21.4015   -6.5641   23.8215 C   0  0  0  0  0  0
  -21.3661   -5.6793   24.9176 C   0  0  0  0  0  0
  -21.6041   -4.3054   24.7227 C   0  0  0  0  0  0
  -21.8820   -3.8148   23.4345 C   0  0  0  0  0  0
  -21.9193   -4.6968   22.3401 C   0  0  0  0  0  0
  -22.7838  -13.5231   21.1854 C   0  0  0  0  0  0
  -22.1660   -4.2154   21.0979 F   0  0  0  0  0  0
  -21.5631   -3.4537   25.7738 F   0  0  0  0  0  0
  -30.0212  -13.3497   20.4285 N   0  0  0  0  0  0
  -26.2986  -12.9386   20.3350 N   0  0  0  0  0  0
  -25.9324  -11.6532   20.5773 N   0  0  0  0  0  0
  -22.0486  -12.8216   22.0407 N   0  0  0  0  0  0
  -25.4254  -15.1914   20.4122 N   0  0  0  0  0  0
  -31.8738  -14.6164   20.1088 O   0  0  0  0  0  0
  -21.6638   -6.8884   21.4240 O   0  0  0  0  0  0
  -22.3521  -14.5539   20.6709 O   0  0  0  0  0  0
  -24.6174  -31.8673   23.2110 C   0  0  0  0  0  0
  -25.9065  -32.4818   23.8406 C   0  0  1  0  0  0
  -27.2286  -27.4086   20.1089 C   0  0  0  0  0  0
  -25.5913  -33.8615   24.2335 N   0  0  0  0  0  0
  -23.4074  -30.4905   21.5513 C   0  0  2  0  0  0
  -24.8571  -28.9553   20.1154 C   0  0  0  0  0  0
  -22.7431  -29.4646   22.4984 C   0  0  0  0  0  0
  -18.0273  -28.1367   22.8486 C   0  0  0  0  0  0
  -24.1492  -36.7307   23.2637 C   0  0  0  0  0  0
  -25.9390  -30.8206   21.3741 C   0  0  0  0  0  0
  -26.0159  -29.4503   20.7294 C   0  0  0  0  0  0
  -27.2057  -28.6793   20.7372 C   0  0  0  0  0  0
  -26.0674  -26.9540   19.4549 C   0  0  0  0  0  0
  -24.8775  -27.7044   19.4759 C   0  0  0  0  0  0
  -23.6203  -29.8255   20.1651 C   0  0  0  0  0  0
  -25.4110  -36.3108   24.0336 C   0  0  1  0  0  0
  -20.5867  -28.3664   23.1303 C   0  0  2  0  0  0
  -20.6769  -26.9397   22.5409 C   0  0  0  0  0  0
  -19.5749  -26.6378   21.5204 C   0  0  0  0  0  0
  -18.1924  -26.7916   22.1612 C   0  0  0  0  0  0
  -19.1523  -28.8832   23.2893 C   0  0  0  0  0  0
  -18.9453  -30.1436   23.8905 C   0  0  0  0  0  0
  -17.6457  -30.6579   24.0554 C   0  0  0  0  0  0
  -25.9036  -34.9471   23.5132 C   0  0  0  0  0  0
  -16.5347  -29.9077   23.6318 C   0  0  0  0  0  0
  -16.7264  -28.6491   23.0343 C   0  0  0  0  0  0
  -26.4489  -31.6594   25.0732 C   0  0  0  0  0  0
  -25.3752  -31.3683   26.1476 C   0  0  0  0  0  0
  -27.0318  -30.3035   24.6107 C   0  0  0  0  0  0
  -27.6068  -32.4311   25.7492 C   0  0  0  0  0  0
  -27.5584  -37.1808   24.8466 C   0  0  0  0  0  0
  -21.4156  -29.3030   22.3716 N   0  0  0  0  0  0
  -26.4297  -37.3792   23.9407 N   0  0  0  0  0  0
  -24.6723  -31.0749   22.1032 N   0  0  0  0  0  0
  -23.4191  -28.8188   23.3034 O   0  0  0  0  0  0
  -28.3438  -26.5947   20.0626 O   0  0  0  0  0  0
  -26.5594  -34.8923   22.4690 O   0  0  0  0  0  0
  -23.5362  -32.1437   23.7493 O   0  0  0  0  0  0
  -30.0537  -19.0004   22.4779 C   0  0  0  0  0  0
  -29.4523  -20.2783   22.5157 C   0  0  0  0  0  0
  -29.2957  -18.7064   20.1938 C   0  0  0  0  0  0
  -29.9852  -18.1951   21.3188 C   0  0  0  0  0  0
  -28.7614  -20.7947   21.3951 C   0  0  0  0  0  0
  -28.6911  -19.9922   20.2238 C   0  0  0  0  0  0
  -26.8190  -22.0353   22.0629 C   0  0  0  0  0  0
  -26.1108  -23.3504   22.4204 C   0  0  0  0  0  0
  -26.6440  -24.5783   21.6796 C   0  0  0  0  0  0
  -28.7235  -23.3175   21.0628 C   0  0  0  0  0  0
  -28.1700  -24.6196   21.7279 C   0  0  1  0  0  0
  -30.7951  -16.8863   21.2562 C   0  0  0  0  0  0
  -28.7807  -26.0034   21.3006 C   0  0  0  0  0  0
  -28.0694  -22.0550   21.5232 N   0  0  0  0  0  0
  -28.0299  -20.4518   19.0847 N   0  0  0  0  0  0
  -30.0964  -15.5956   21.0551 N   0  0  0  0  0  0
  -26.2151  -20.9878   22.3221 O   0  0  0  0  0  0
  -31.4565  -12.4004   19.1409 H   0  0  0  0  0  0
  -30.2947  -11.3307   19.8698 H   0  0  0  0  0  0
  -29.7385  -11.7575   17.4513 H   0  0  0  0  0  0
  -29.6561  -13.4753   17.7583 H   0  0  0  0  0  0
  -27.8369  -11.3018   18.8472 H   0  0  0  0  0  0
  -27.3622  -12.6040   17.7906 H   0  0  0  0  0  0
  -27.6802  -14.2593   19.5365 H   0  0  0  0  0  0
  -28.6790  -12.0480   21.3962 H   0  0  0  0  0  0
  -28.4605  -13.7189   21.8342 H   0  0  0  0  0  0
  -25.2767   -9.5687   22.4758 H   0  0  0  0  0  0
  -24.0004   -7.4640   22.7473 H   0  0  0  0  0  0
  -21.0850   -8.8780   19.8948 H   0  0  0  0  0  0
  -22.3707  -10.9677   19.6162 H   0  0  0  0  0  0
  -21.2006   -7.6151   23.9720 H   0  0  0  0  0  0
  -21.1483   -6.0522   25.9080 H   0  0  0  0  0  0
  -22.0597   -2.7612   23.2843 H   0  0  0  0  0  0
  -22.4099  -11.9870   22.4782 H   0  0  0  0  0  0
  -21.1102  -13.1240   22.2625 H   0  0  0  0  0  0
  -24.6610  -15.8476   20.5283 H   0  0  0  0  0  0
  -26.2824  -15.6332   20.1032 H   0  0  0  0  0  0
  -26.7136  -32.5529   23.1171 H   0  0  0  0  0  0
  -25.0099  -33.9768   25.0507 H   0  0  0  0  0  0
  -22.6970  -31.3080   21.4124 H   0  0  0  0  0  0
  -23.3751  -35.9646   23.3309 H   0  0  0  0  0  0
  -24.3590  -36.8909   22.2052 H   0  0  0  0  0  0
  -23.7245  -37.6514   23.6643 H   0  0  0  0  0  0
  -26.0550  -31.5816   20.6013 H   0  0  0  0  0  0
  -26.8253  -30.8774   21.9939 H   0  0  0  0  0  0
  -28.0990  -29.0553   21.2162 H   0  0  0  0  0  0
  -26.0804  -26.0048   18.9391 H   0  0  0  0  0  0
  -23.9933  -27.3219   18.9848 H   0  0  0  0  0  0
  -23.7329  -30.6019   19.4075 H   0  0  0  0  0  0
  -22.7439  -29.2476   19.8667 H   0  0  0  0  0  0
  -25.1288  -36.1978   25.0828 H   0  0  0  0  0  0
  -20.9952  -28.3237   24.1424 H   0  0  0  0  0  0
  -20.5667  -26.2271   23.3600 H   0  0  0  0  0  0
  -21.6642  -26.7440   22.1203 H   0  0  0  0  0  0
  -19.6912  -25.6293   21.1223 H   0  0  0  0  0  0
  -19.6688  -27.3196   20.6745 H   0  0  0  0  0  0
  -17.4194  -26.6660   21.4012 H   0  0  0  0  0  0
  -18.0323  -26.0051   22.9001 H   0  0  0  0  0  0
  -19.7934  -30.7240   24.2284 H   0  0  0  0  0  0
  -17.5014  -31.6259   24.5161 H   0  0  0  0  0  0
  -15.5345  -30.2980   23.7646 H   0  0  0  0  0  0
  -15.8660  -28.0816   22.7054 H   0  0  0  0  0  0
  -24.5947  -30.7000   25.7809 H   0  0  0  0  0  0
  -24.8912  -32.2822   26.4924 H   0  0  0  0  0  0
  -25.8112  -30.8861   27.0232 H   0  0  0  0  0  0
  -26.2859  -29.6785   24.1181 H   0  0  0  0  0  0
  -27.4107  -29.7279   25.4561 H   0  0  0  0  0  0
  -27.8690  -30.4343   23.9247 H   0  0  0  0  0  0
  -27.2695  -33.3613   26.2078 H   0  0  0  0  0  0
  -28.3873  -32.6862   25.0306 H   0  0  0  0  0  0
  -28.0739  -31.8418   26.5395 H   0  0  0  0  0  0
  -28.2606  -38.0105   24.7520 H   0  0  0  0  0  0
  -28.1074  -36.2633   24.6289 H   0  0  0  0  0  0
  -27.2295  -37.1458   25.8867 H   0  0  0  0  0  0
  -20.9329  -29.8761   21.6940 H   0  0  0  0  0  0
  -26.0189  -38.2869   24.1407 H   0  0  0  0  0  0
  -30.5928  -18.6501   23.3476 H   0  0  0  0  0  0
  -29.5118  -20.8626   23.4234 H   0  0  0  0  0  0
  -29.2641  -18.1129   19.2902 H   0  0  0  0  0  0
  -26.2253  -23.4976   23.4950 H   0  0  0  0  0  0
  -25.0406  -23.2467   22.2374 H   0  0  0  0  0  0
  -26.2217  -25.4830   22.1179 H   0  0  0  0  0  0
  -26.3073  -24.5349   20.6454 H   0  0  0  0  0  0
  -29.7963  -23.2460   21.2436 H   0  0  0  0  0  0
  -28.6007  -23.3840   19.9815 H   0  0  0  0  0  0
  -28.4472  -24.5361   22.7806 H   0  0  0  0  0  0
  -31.3919  -16.7918   22.1649 H   0  0  0  0  0  0
  -31.5214  -17.0412   20.4557 H   0  0  0  0  0  0
  -29.8639  -25.8966   21.2390 H   0  0  0  0  0  0
  -28.6185  -26.7171   22.1102 H   0  0  0  0  0  0
  -27.7603  -19.7874   18.3665 H   0  0  0  0  0  0
  -27.3943  -21.2377   19.1626 H   0  0  0  0  0  0
  -29.1418  -15.5061   21.3681 H   0  0  0  0  0  0
  1 25  1  0  0  0
  1 30  2  0  0  0
  1 86  1  0  0  0
  2  3  1  0  0  0
  2 25  1  0  0  0
  2 88  1  0  0  0
  2 89  1  0  0  0
  3  4  1  0  0  0
  3 90  1  0  0  0
  3 91  1  0  0  0
  4  5  1  0  0  0
  4 92  1  0  0  0
  4 93  1  0  0  0
  5  6  1  0  0  0
  5 26  1  0  0  0
  5 94  1  0  0  0
  6 25  1  0  0  0
  6 95  1  0  0  0
  6 96  1  0  0  0
  7  8  2  0  0  0
  7 26  1  0  0  0
  7 29  1  0  0  0
  8  9  1  0  0  0
  8 22  1  0  0  0
  9 10  1  0  0  0
  9 27  2  0  0  0
 10 11  2  0  0  0
 10 15  1  0  0  0
 11 12  1  0  0  0
 11 97  1  0  0  0
 12 13  2  0  0  0
 12 98  1  0  0  0
 13 14  1  0  0  0
 13 31  1  0  0  0
 14 15  2  0  0  0
 14 99  1  0  0  0
 15100  1  0  0  0
 16 17  2  0  0  0
 16 21  1  0  0  0
 16 31  1  0  0  0
 17 18  1  0  0  0
 17101  1  0  0  0
 18 19  2  0  0  0
 18102  1  0  0  0
 19 20  1  0  0  0
 19 24  1  0  0  0
 20 21  2  0  0  0
 20103  1  0  0  0
 21 23  1  0  0  0
 22 28  1  0  0  0
 22 32  2  0  0  0
 26 27  1  0  0  0
 28104  1  0  0  0
 28105  1  0  0  0
 29106  1  0  0  0
 29107  1  0  0  0
 33 34  1  0  0  0
 33 66  1  0  0  0
 33 70  2  0  0  0
 34 36  1  0  0  0
 34 59  1  0  0  0
 34108  1  0  0  0
 35 44  2  0  0  0
 35 45  1  0  0  0
 35 68  1  0  0  0
 36 56  1  0  0  0
 36109  1  0  0  0
 37 39  1  0  0  0
 37 47  1  0  0  0
 37 66  1  0  0  0
 37110  1  0  0  0
 38 43  2  0  0  0
 38 46  1  0  0  0
 38 47  1  0  0  0
 39 64  1  0  0  0
 39 67  2  0  0  0
 40 52  1  0  0  0
 40 53  2  0  0  0
 40 58  1  0  0  0
 41111  1  0  0  0
 41112  1  0  0  0
 41113  1  0  0  0
 41 48  1  0  0  0
 42 43  1  0  0  0
 42 66  1  0  0  0
 42114  1  0  0  0
 42115  1  0  0  0
 43 44  1  0  0  0
 44116  1  0  0  0
 45 46  2  0  0  0
 45117  1  0  0  0
 46118  1  0  0  0
 47119  1  0  0  0
 47120  1  0  0  0
 48 56  1  0  0  0
 48 65  1  0  0  0
 48121  1  0  0  0
 49 50  1  0  0  0
 49 53  1  0  0  0
 49 64  1  0  0  0
 49122  1  0  0  0
 50 51  1  0  0  0
 50123  1  0  0  0
 50124  1  0  0  0
 51 52  1  0  0  0
 51125  1  0  0  0
 51126  1  0  0  0
 52127  1  0  0  0
 52128  1  0  0  0
 53 54  1  0  0  0
 54 55  2  0  0  0
 54129  1  0  0  0
 55 57  1  0  0  0
 55130  1  0  0  0
 56 69  2  0  0  0
 57 58  2  0  0  0
 57131  1  0  0  0
 58132  1  0  0  0
 59 60  1  0  0  0
 59 61  1  0  0  0
 59 62  1  0  0  0
 60133  1  0  0  0
 60134  1  0  0  0
 60135  1  0  0  0
 61136  1  0  0  0
 61137  1  0  0  0
 61138  1  0  0  0
 62139  1  0  0  0
 62140  1  0  0  0
 62141  1  0  0  0
 63 65  1  0  0  0
 63142  1  0  0  0
 63143  1  0  0  0
 63144  1  0  0  0
 64145  1  0  0  0
 65146  1  0  0  0
 68 83  1  0  0  0
 71 72  2  0  0  0
 71 74  1  0  0  0
 71147  1  0  0  0
 72 75  1  0  0  0
 72148  1  0  0  0
 73 74  2  0  0  0
 73 76  1  0  0  0
 73149  1  0  0  0
 74 82  1  0  0  0
 75 76  2  0  0  0
 75 84  1  0  0  0
 76 85  1  0  0  0
 77 78  1  0  0  0
 77 84  1  0  0  0
 77 87  2  0  0  0
 78 79  1  0  0  0
 78150  1  0  0  0
 78151  1  0  0  0
 79 81  1  0  0  0
 79152  1  0  0  0
 79153  1  0  0  0
 80 81  1  0  0  0
 80 84  1  0  0  0
 80154  1  0  0  0
 80155  1  0  0  0
 81 83  1  0  0  0
 81156  1  0  0  0
 82 86  1  0  0  0
 82157  1  0  0  0
 82158  1  0  0  0
 83159  1  0  0  0
 83160  1  0  0  0
 85161  1  0  0  0
 85162  1  0  0  0
 86163  1  0  0  0
M  ISO  4   1 100  68 101  83 101  86 100
M  END
> <chiral flag>
0

> <version>
0

> <s_m_source_file>
/data/baiqing/PycharmProjects/Reinvent-master-3.2/result/LINK_invent/BTK/process_docking_weight1_custom_product_contain_oxygen_bond_distance_aromatic_linkinvent_7_9_3/rearranged_h_0096.sdf

> <i_m_source_file_index>
22

> <r_mmod_Potential_Energy-OPLS-2005>
-18.9922161102295

> <r_mmod_Stretch_Energy-OPLS-2005>
48.7855415344238

> <r_mmod_Bend_Energy-OPLS-2005>
124.000129699707

> <r_mmod_Torsional_Energy-OPLS-2005>
306.837982177734

> <r_mmod_Improper_Torsional_Energy-OPLS-2005>
6.31985950469971

> <r_mmod_Van_der_Waal_Energy-OPLS-2005>
153.022644042969

> <r_mmod_Electrostatic_Energy-OPLS-2005>
-450.881713867188

> <r_mmod_Solvation_Energy-OPLS-2005>
-227.861511230469

> <b_mmod_Minimization_Converged-OPLS-2005>
0

> <r_mmod_RMS_Derivative-OPLS-2005>
0.924498736858368

$$$$
22
                    3D
 Structure written by MMmdl.
161170  0  0  1  0            999 V2000
  -30.7383  -14.4535   20.6234 C   0  0  0  0  0  0
  -30.4158  -12.3204   19.4140 C   0  0  0  0  0  0
  -29.4855  -12.5123   18.2012 C   0  0  0  0  0  0
  -28.0105  -12.3647   18.6195 C   0  0  0  0  0  0
  -27.6586  -13.2097   19.8730 C   0  0  2  0  0  0
  -28.7005  -13.0001   20.9936 C   0  0  0  0  0  0
  -25.2576  -13.8171   20.5681 C   0  0  0  0  0  0
  -24.1829  -13.0447   20.9177 C   0  0  0  0  0  0
  -24.6384  -11.6913   20.8737 C   0  0  0  0  0  0
  -23.9056  -10.4295   21.0408 C   0  0  0  0  0  0
  -24.3610   -9.4210   21.9185 C   0  0  0  0  0  0
  -23.6290   -8.2246   22.0751 C   0  0  0  0  0  0
  -22.4274   -8.0281   21.3541 C   0  0  0  0  0  0
  -21.9905   -9.0251   20.4643 C   0  0  0  0  0  0
  -22.7230  -10.2134   20.3054 C   0  0  0  0  0  0
  -21.6849   -6.0734   22.5278 C   0  0  0  0  0  0
  -21.4013   -6.5638   23.8211 C   0  0  0  0  0  0
  -21.3659   -5.6791   24.9175 C   0  0  0  0  0  0
  -21.6043   -4.3055   24.7225 C   0  0  0  0  0  0
  -21.8819   -3.8147   23.4347 C   0  0  0  0  0  0
  -21.9195   -4.6964   22.3404 C   0  0  0  0  0  0
  -22.7852  -13.5239   21.1852 C   0  0  0  0  0  0
  -22.1662   -4.2151   21.0980 F   0  0  0  0  0  0
  -21.5631   -3.4537   25.7737 F   0  0  0  0  0  0
  -30.0306  -13.3047   20.4394 N   0  0  0  0  0  0
  -26.3009  -12.9343   20.3367 N   0  0  0  0  0  0
  -25.9314  -11.6500   20.5775 N   0  0  0  0  0  0
  -22.0494  -12.8222   22.0405 N   0  0  0  0  0  0
  -25.4317  -15.1889   20.4088 N   0  0  0  0  0  0
  -31.8278  -14.6533   20.0787 O   0  0  0  0  0  0
  -21.6639   -6.8879   21.4240 O   0  0  0  0  0  0
  -22.3537  -14.5552   20.6716 O   0  0  0  0  0  0
  -24.6150  -31.8673   23.2103 C   0  0  0  0  0  0
  -25.9040  -32.4820   23.8394 C   0  0  1  0  0  0
  -27.2235  -27.4185   20.0911 C   0  0  0  0  0  0
  -25.5891  -33.8618   24.2318 N   0  0  0  0  0  0
  -23.4027  -30.4935   21.5515 C   0  0  2  0  0  0
  -24.8456  -28.9621   20.1110 C   0  0  0  0  0  0
  -22.7413  -29.4656   22.4986 C   0  0  0  0  0  0
  -18.0270  -28.1383   22.8490 C   0  0  0  0  0  0
  -24.1480  -36.7299   23.2646 C   0  0  0  0  0  0
  -25.9345  -30.8274   21.3661 C   0  0  0  0  0  0
  -26.0085  -29.4629   20.7090 C   0  0  0  0  0  0
  -27.2003  -28.7003   20.6930 C   0  0  0  0  0  0
  -26.0415  -26.9441   19.4745 C   0  0  0  0  0  0
  -24.8580  -27.7026   19.4909 C   0  0  0  0  0  0
  -23.6096  -29.8309   20.1644 C   0  0  0  0  0  0
  -25.4109  -36.3110   24.0348 C   0  0  1  0  0  0
  -20.5864  -28.3657   23.1315 C   0  0  2  0  0  0
  -20.6758  -26.9395   22.5413 C   0  0  0  0  0  0
  -19.5738  -26.6385   21.5208 C   0  0  0  0  0  0
  -18.1915  -26.7923   22.1627 C   0  0  0  0  0  0
  -19.1528  -28.8839   23.2894 C   0  0  0  0  0  0
  -18.9466  -30.1442   23.8901 C   0  0  0  0  0  0
  -17.6475  -30.6584   24.0569 C   0  0  0  0  0  0
  -25.9043  -34.9476   23.5134 C   0  0  0  0  0  0
  -16.5355  -29.9092   23.6337 C   0  0  0  0  0  0
  -16.7261  -28.6515   23.0346 C   0  0  0  0  0  0
  -26.4460  -31.6602   25.0723 C   0  0  0  0  0  0
  -25.3727  -31.3715   26.1478 C   0  0  0  0  0  0
  -27.0294  -30.3052   24.6087 C   0  0  0  0  0  0
  -27.6032  -32.4320   25.7491 C   0  0  0  0  0  0
  -27.5576  -37.1800   24.8475 C   0  0  0  0  0  0
  -21.4142  -29.3025   22.3721 N   0  0  0  0  0  0
  -26.4286  -37.3798   23.9431 N   0  0  0  0  0  0
  -24.6695  -31.0773   22.1005 N   0  0  0  0  0  0
  -23.4184  -28.8191   23.3020 O   0  0  0  0  0  0
  -28.3816  -26.6618   20.1231 O   0  0  0  0  0  0
  -26.5609  -34.8928   22.4695 O   0  0  0  0  0  0
  -23.5347  -32.1421   23.7501 O   0  0  0  0  0  0
  -29.3313  -18.4585   21.7581 C   0  0  0  0  0  0
  -31.7180  -18.7932   21.4680 C   0  0  0  0  0  0
  -29.1270  -19.8605   21.6737 C   0  0  0  0  0  0
  -31.5181  -20.1862   21.3872 C   0  0  0  0  0  0
  -30.6377  -17.9164   21.7078 C   0  0  0  0  0  0
  -30.2288  -20.7440   21.5531 C   0  0  0  0  0  0
  -30.6275  -22.7511   22.8262 C   0  0  0  0  0  0
  -30.5777  -24.2735   22.9996 C   0  0  0  0  0  0
  -29.4107  -24.9409   22.2746 C   0  0  0  0  0  0
  -29.1970  -22.9217   20.7937 C   0  0  0  0  0  0
  -29.3549  -24.4769   20.8185 C   0  0  1  0  0  0
  -30.9463  -16.4584   22.0839 C   0  0  0  0  0  0
  -28.2331  -25.2264   20.0556 C   0  0  0  0  0  0
  -30.0848  -22.1687   21.7171 N   0  0  0  0  0  0
  -30.1912  -15.3756   21.4370 N   0  0  0  0  0  0
  -31.1977  -22.1098   23.7167 O   0  0  0  0  0  0
  -31.4590  -12.4175   19.1076 H   0  0  0  0  0  0
  -30.3203  -11.3098   19.8144 H   0  0  0  0  0  0
  -29.7259  -11.7870   17.4226 H   0  0  0  0  0  0
  -29.6471  -13.4987   17.7634 H   0  0  0  0  0  0
  -27.8276  -11.3085   18.8228 H   0  0  0  0  0  0
  -27.3546  -12.6307   17.7901 H   0  0  0  0  0  0
  -27.7011  -14.2567   19.5720 H   0  0  0  0  0  0
  -28.6810  -11.9656   21.3405 H   0  0  0  0  0  0
  -28.4512  -13.6027   21.8678 H   0  0  0  0  0  0
  -25.2756   -9.5688   22.4758 H   0  0  0  0  0  0
  -24.0003   -7.4632   22.7468 H   0  0  0  0  0  0
  -21.0841   -8.8766   19.8946 H   0  0  0  0  0  0
  -22.3690  -10.9671   19.6160 H   0  0  0  0  0  0
  -21.1999   -7.6147   23.9716 H   0  0  0  0  0  0
  -21.1481   -6.0520   25.9076 H   0  0  0  0  0  0
  -22.0600   -2.7609   23.2844 H   0  0  0  0  0  0
  -22.4108  -11.9871   22.4770 H   0  0  0  0  0  0
  -21.1123  -13.1246   22.2636 H   0  0  0  0  0  0
  -24.6705  -15.8505   20.5179 H   0  0  0  0  0  0
  -26.2923  -15.6224   20.0967 H   0  0  0  0  0  0
  -26.7105  -32.5520   23.1150 H   0  0  0  0  0  0
  -25.0032  -33.9783   25.0454 H   0  0  0  0  0  0
  -22.6920  -31.3113   21.4157 H   0  0  0  0  0  0
  -23.3750  -35.9621   23.3324 H   0  0  0  0  0  0
  -24.3565  -36.8894   22.2054 H   0  0  0  0  0  0
  -23.7215  -37.6504   23.6641 H   0  0  0  0  0  0
  -26.0520  -31.5958   20.6005 H   0  0  0  0  0  0
  -26.8203  -30.8750   21.9877 H   0  0  0  0  0  0
  -28.0968  -29.0812   21.1619 H   0  0  0  0  0  0
  -26.0140  -25.9877   18.9737 H   0  0  0  0  0  0
  -23.9658  -27.3144   19.0191 H   0  0  0  0  0  0
  -23.7178  -30.6068   19.4063 H   0  0  0  0  0  0
  -22.7318  -29.2534   19.8674 H   0  0  0  0  0  0
  -25.1275  -36.1975   25.0839 H   0  0  0  0  0  0
  -20.9955  -28.3216   24.1439 H   0  0  0  0  0  0
  -20.5665  -26.2262   23.3599 H   0  0  0  0  0  0
  -21.6628  -26.7435   22.1204 H   0  0  0  0  0  0
  -19.6908  -25.6303   21.1223 H   0  0  0  0  0  0
  -19.6687  -27.3211   20.6749 H   0  0  0  0  0  0
  -17.4185  -26.6673   21.4027 H   0  0  0  0  0  0
  -18.0320  -26.0063   22.9025 H   0  0  0  0  0  0
  -19.7947  -30.7248   24.2270 H   0  0  0  0  0  0
  -17.5036  -31.6272   24.5160 H   0  0  0  0  0  0
  -15.5357  -30.3003   23.7664 H   0  0  0  0  0  0
  -15.8661  -28.0842   22.7055 H   0  0  0  0  0  0
  -24.5903  -30.7054   25.7827 H   0  0  0  0  0  0
  -24.8916  -32.2873   26.4921 H   0  0  0  0  0  0
  -25.8087  -30.8897   27.0239 H   0  0  0  0  0  0
  -26.2832  -29.6827   24.1133 H   0  0  0  0  0  0
  -27.4078  -29.7273   25.4528 H   0  0  0  0  0  0
  -27.8660  -30.4403   23.9229 H   0  0  0  0  0  0
  -27.2645  -33.3615   26.2088 H   0  0  0  0  0  0
  -28.3832  -32.6889   25.0308 H   0  0  0  0  0  0
  -28.0701  -31.8426   26.5396 H   0  0  0  0  0  0
  -28.2602  -38.0089   24.7516 H   0  0  0  0  0  0
  -28.1058  -36.2617   24.6298 H   0  0  0  0  0  0
  -27.2291  -37.1450   25.8877 H   0  0  0  0  0  0
  -20.9301  -29.8762   21.6960 H   0  0  0  0  0  0
  -26.0178  -38.2879   24.1431 H   0  0  0  0  0  0
  -28.4862  -17.8109   21.9465 H   0  0  0  0  0  0
  -32.7279  -18.4097   21.4227 H   0  0  0  0  0  0
  -28.1273  -20.2545   21.7958 H   0  0  0  0  0  0
  -32.3777  -20.8334   21.2800 H   0  0  0  0  0  0
  -31.5202  -24.6770   22.6286 H   0  0  0  0  0  0
  -30.5352  -24.5141   24.0624 H   0  0  0  0  0  0
  -29.5286  -26.0238   22.3278 H   0  0  0  0  0  0
  -28.4726  -24.7092   22.7815 H   0  0  0  0  0  0
  -29.3587  -22.5590   19.7777 H   0  0  0  0  0  0
  -28.1690  -22.6622   21.0495 H   0  0  0  0  0  0
  -30.3032  -24.7319   20.3413 H   0  0  0  0  0  0
  -30.7590  -16.3693   23.1548 H   0  0  0  0  0  0
  -32.0201  -16.2846   21.9848 H   0  0  0  0  0  0
  -27.2843  -24.9104   20.4934 H   0  0  0  0  0  0
  -28.2219  -24.9187   19.0097 H   0  0  0  0  0  0
  -29.2789  -15.1655   21.8125 H   0  0  0  0  0  0
  1 25  1  0  0  0
  1 30  2  0  0  0
  1 85  1  0  0  0
  2  3  1  0  0  0
  2 25  1  0  0  0
  2 87  1  0  0  0
  2 88  1  0  0  0
  3  4  1  0  0  0
  3 89  1  0  0  0
  3 90  1  0  0  0
  4  5  1  0  0  0
  4 91  1  0  0  0
  4 92  1  0  0  0
  5  6  1  0  0  0
  5 26  1  0  0  0
  5 93  1  0  0  0
  6 25  1  0  0  0
  6 94  1  0  0  0
  6 95  1  0  0  0
  7  8  2  0  0  0
  7 26  1  0  0  0
  7 29  1  0  0  0
  8  9  1  0  0  0
  8 22  1  0  0  0
  9 10  1  0  0  0
  9 27  2  0  0  0
 10 11  2  0  0  0
 10 15  1  0  0  0
 11 12  1  0  0  0
 11 96  1  0  0  0
 12 13  2  0  0  0
 12 97  1  0  0  0
 13 14  1  0  0  0
 13 31  1  0  0  0
 14 15  2  0  0  0
 14 98  1  0  0  0
 15 99  1  0  0  0
 16 17  2  0  0  0
 16 21  1  0  0  0
 16 31  1  0  0  0
 17 18  1  0  0  0
 17100  1  0  0  0
 18 19  2  0  0  0
 18101  1  0  0  0
 19 20  1  0  0  0
 19 24  1  0  0  0
 20 21  2  0  0  0
 20102  1  0  0  0
 21 23  1  0  0  0
 22 28  1  0  0  0
 22 32  2  0  0  0
 26 27  1  0  0  0
 28103  1  0  0  0
 28104  1  0  0  0
 29105  1  0  0  0
 29106  1  0  0  0
 33 34  1  0  0  0
 33 66  1  0  0  0
 33 70  2  0  0  0
 34 36  1  0  0  0
 34 59  1  0  0  0
 34107  1  0  0  0
 35 44  2  0  0  0
 35 45  1  0  0  0
 35 68  1  0  0  0
 36 56  1  0  0  0
 36108  1  0  0  0
 37 39  1  0  0  0
 37 47  1  0  0  0
 37 66  1  0  0  0
 37109  1  0  0  0
 38 43  2  0  0  0
 38 46  1  0  0  0
 38 47  1  0  0  0
 39 64  1  0  0  0
 39 67  2  0  0  0
 40 52  1  0  0  0
 40 53  2  0  0  0
 40 58  1  0  0  0
 41110  1  0  0  0
 41111  1  0  0  0
 41112  1  0  0  0
 41 48  1  0  0  0
 42 43  1  0  0  0
 42 66  1  0  0  0
 42113  1  0  0  0
 42114  1  0  0  0
 43 44  1  0  0  0
 44115  1  0  0  0
 45 46  2  0  0  0
 45116  1  0  0  0
 46117  1  0  0  0
 47118  1  0  0  0
 47119  1  0  0  0
 48 56  1  0  0  0
 48 65  1  0  0  0
 48120  1  0  0  0
 49 50  1  0  0  0
 49 53  1  0  0  0
 49 64  1  0  0  0
 49121  1  0  0  0
 50 51  1  0  0  0
 50122  1  0  0  0
 50123  1  0  0  0
 51 52  1  0  0  0
 51124  1  0  0  0
 51125  1  0  0  0
 52126  1  0  0  0
 52127  1  0  0  0
 53 54  1  0  0  0
 54 55  2  0  0  0
 54128  1  0  0  0
 55 57  1  0  0  0
 55129  1  0  0  0
 56 69  2  0  0  0
 57 58  2  0  0  0
 57130  1  0  0  0
 58131  1  0  0  0
 59 60  1  0  0  0
 59 61  1  0  0  0
 59 62  1  0  0  0
 60132  1  0  0  0
 60133  1  0  0  0
 60134  1  0  0  0
 61135  1  0  0  0
 61136  1  0  0  0
 61137  1  0  0  0
 62138  1  0  0  0
 62139  1  0  0  0
 62140  1  0  0  0
 63 65  1  0  0  0
 63141  1  0  0  0
 63142  1  0  0  0
 63143  1  0  0  0
 64144  1  0  0  0
 65145  1  0  0  0
 68 83  1  0  0  0
 71 73  2  0  0  0
 71 75  1  0  0  0
 71146  1  0  0  0
 72 74  1  0  0  0
 72 75  2  0  0  0
 72147  1  0  0  0
 73 76  1  0  0  0
 73148  1  0  0  0
 74 76  2  0  0  0
 74149  1  0  0  0
 75 82  1  0  0  0
 76 84  1  0  0  0
 77 78  1  0  0  0
 77 84  1  0  0  0
 77 86  2  0  0  0
 78 79  1  0  0  0
 78150  1  0  0  0
 78151  1  0  0  0
 79 81  1  0  0  0
 79152  1  0  0  0
 79153  1  0  0  0
 80 81  1  0  0  0
 80 84  1  0  0  0
 80154  1  0  0  0
 80155  1  0  0  0
 81 83  1  0  0  0
 81156  1  0  0  0
 82 85  1  0  0  0
 82157  1  0  0  0
 82158  1  0  0  0
 83159  1  0  0  0
 83160  1  0  0  0
 85161  1  0  0  0
M  ISO  4   1 100  68 101  83 101  85 100
M  END
> <chiral flag>
0

> <version>
0

> <s_m_source_file>
/data/baiqing/PycharmProjects/Reinvent-master-3.2/result/LINK_invent/BTK/process_docking_weight1_custom_product_contain_oxygen_bond_distance_aromatic_linkinvent_7_9_3/rearranged_h_0096.sdf

> <i_m_source_file_index>
23

> <r_mmod_Potential_Energy-OPLS-2005>
4.68270874023438

> <r_mmod_Stretch_Energy-OPLS-2005>
44.2813720703125

> <r_mmod_Bend_Energy-OPLS-2005>
103.789657592773

> <r_mmod_Torsional_Energy-OPLS-2005>
276.015960693359

> <r_mmod_Improper_Torsional_Energy-OPLS-2005>
3.86651659011841

> <r_mmod_Van_der_Waal_Energy-OPLS-2005>
167.382125854492

> <r_mmod_Electrostatic_Energy-OPLS-2005>
-377.897888183594

> <r_mmod_Solvation_Energy-OPLS-2005>
-226.050811767578

> <b_mmod_Minimization_Converged-OPLS-2005>
0

> <r_mmod_RMS_Derivative-OPLS-2005>
1.20815706253052

$$$$
23
                    3D
 Structure written by MMmdl.
159167  0  0  1  0            999 V2000
  -30.6567  -14.5493   20.4586 C   0  0  0  0  0  0
  -30.4293  -12.3194   19.4505 C   0  0  0  0  0  0
  -29.5096  -12.4704   18.2183 C   0  0  0  0  0  0
  -28.0256  -12.3400   18.6270 C   0  0  0  0  0  0
  -27.6584  -13.2098   19.8595 C   0  0  2  0  0  0
  -28.7000  -13.0462   20.9908 C   0  0  0  0  0  0
  -25.2591  -13.8164   20.5659 C   0  0  0  0  0  0
  -24.1829  -13.0459   20.9179 C   0  0  0  0  0  0
  -24.6377  -11.6923   20.8707 C   0  0  0  0  0  0
  -23.9047  -10.4299   21.0374 C   0  0  0  0  0  0
  -24.3601   -9.4214   21.9162 C   0  0  0  0  0  0
  -23.6265   -8.2248   22.0767 C   0  0  0  0  0  0
  -22.4234   -8.0293   21.3561 C   0  0  0  0  0  0
  -21.9875   -9.0265   20.4663 C   0  0  0  0  0  0
  -22.7210  -10.2133   20.3043 C   0  0  0  0  0  0
  -21.6850   -6.0719   22.5269 C   0  0  0  0  0  0
  -21.4021   -6.5618   23.8203 C   0  0  0  0  0  0
  -21.3662   -5.6780   24.9160 C   0  0  0  0  0  0
  -21.6033   -4.3036   24.7211 C   0  0  0  0  0  0
  -21.8822   -3.8132   23.4341 C   0  0  0  0  0  0
  -21.9185   -4.6948   22.3388 C   0  0  0  0  0  0
  -22.7849  -13.5257   21.1830 C   0  0  0  0  0  0
  -22.1662   -4.2127   21.0969 F   0  0  0  0  0  0
  -21.5636   -3.4540   25.7737 F   0  0  0  0  0  0
  -30.0266  -13.3416   20.4305 N   0  0  0  0  0  0
  -26.2993  -12.9330   20.3260 N   0  0  0  0  0  0
  -25.9297  -11.6500   20.5712 N   0  0  0  0  0  0
  -22.0453  -12.8283   22.0372 N   0  0  0  0  0  0
  -25.4362  -15.1876   20.4118 N   0  0  0  0  0  0
  -31.8262  -14.6942   20.0923 O   0  0  0  0  0  0
  -21.6649   -6.8859   21.4225 O   0  0  0  0  0  0
  -22.3533  -14.5551   20.6658 O   0  0  0  0  0  0
  -24.6182  -31.8678   23.2086 C   0  0  0  0  0  0
  -25.9041  -32.4849   23.8403 C   0  0  1  0  0  0
  -27.2351  -27.4112   20.1120 C   0  0  0  0  0  0
  -25.5855  -33.8641   24.2316 N   0  0  0  0  0  0
  -23.4091  -30.4930   21.5469 C   0  0  2  0  0  0
  -24.8575  -28.9511   20.1198 C   0  0  0  0  0  0
  -22.7445  -29.4663   22.4938 C   0  0  0  0  0  0
  -18.0286  -28.1417   22.8506 C   0  0  0  0  0  0
  -24.1461  -36.7349   23.2637 C   0  0  0  0  0  0
  -25.9376  -30.8312   21.3599 C   0  0  0  0  0  0
  -26.0181  -29.4574   20.7192 C   0  0  0  0  0  0
  -27.2122  -28.6940   20.7126 C   0  0  0  0  0  0
  -26.0582  -26.9204   19.5129 C   0  0  0  0  0  0
  -24.8723  -27.6818   19.5138 C   0  0  0  0  0  0
  -23.6250  -29.8310   20.1605 C   0  0  0  0  0  0
  -25.4077  -36.3135   24.0338 C   0  0  1  0  0  0
  -20.5886  -28.3704   23.1311 C   0  0  2  0  0  0
  -20.6779  -26.9435   22.5432 C   0  0  0  0  0  0
  -19.5747  -26.6419   21.5234 C   0  0  0  0  0  0
  -18.1922  -26.7962   22.1644 C   0  0  0  0  0  0
  -19.1534  -28.8873   23.2919 C   0  0  0  0  0  0
  -18.9468  -30.1460   23.8957 C   0  0  0  0  0  0
  -17.6466  -30.6615   24.0591 C   0  0  0  0  0  0
  -25.9020  -34.9497   23.5134 C   0  0  0  0  0  0
  -16.5355  -29.9126   23.6317 C   0  0  0  0  0  0
  -16.7271  -28.6546   23.0348 C   0  0  0  0  0  0
  -26.4442  -31.6649   25.0752 C   0  0  0  0  0  0
  -25.3699  -31.3803   26.1511 C   0  0  0  0  0  0
  -27.0245  -30.3087   24.6119 C   0  0  0  0  0  0
  -27.6037  -32.4350   25.7511 C   0  0  0  0  0  0
  -27.5570  -37.1813   24.8444 C   0  0  0  0  0  0
  -21.4170  -29.3057   22.3698 N   0  0  0  0  0  0
  -26.4256  -37.3826   23.9432 N   0  0  0  0  0  0
  -24.6745  -31.0764   22.0999 N   0  0  0  0  0  0
  -23.4198  -28.8204   23.3003 O   0  0  0  0  0  0
  -28.3844  -26.6500   20.0612 O   0  0  0  0  0  0
  -26.5607  -34.8946   22.4711 O   0  0  0  0  0  0
  -23.5361  -32.1408   23.7470 O   0  0  0  0  0  0
  -30.1282  -18.2471   18.0287 C   0  0  0  0  0  0
  -29.7232  -19.4083   18.7180 C   0  0  0  0  0  0
  -30.2131  -17.0071   18.6949 C   0  0  0  0  0  0
  -29.4644  -18.0795   20.7445 C   0  0  0  0  0  0
  -29.4038  -19.3450   20.0939 C   0  0  0  0  0  0
  -29.8830  -16.8993   20.0683 C   0  0  0  0  0  0
  -28.9542  -20.5879   20.8453 C   0  0  0  0  0  0
  -28.6752  -24.1646   20.3685 C   0  0  0  0  0  0
  -29.1395  -23.0699   22.6366 C   0  0  0  0  0  0
  -31.0238  -23.5604   21.0715 C   0  0  0  0  0  0
  -28.4607  -25.5670   21.0165 C   0  0  0  0  0  0
  -29.5455  -23.1124   21.1391 C   0  0  0  0  0  0
  -29.8733  -15.6215   20.7363 N   0  0  0  0  0  0
  -29.5088  -21.7683   20.4788 N   0  0  0  0  0  0
  -28.1734  -20.4655   21.7892 O   0  0  0  0  0  0
  -28.1809  -23.8920   19.2696 O   0  0  0  0  0  0
  -31.4795  -12.4039   19.1642 H   0  0  0  0  0  0
  -30.3326  -11.3255   19.8896 H   0  0  0  0  0  0
  -29.7575  -11.7067   17.4812 H   0  0  0  0  0  0
  -29.6805  -13.4326   17.7302 H   0  0  0  0  0  0
  -27.8380  -11.2892   18.8554 H   0  0  0  0  0  0
  -27.3782  -12.5892   17.7842 H   0  0  0  0  0  0
  -27.6924  -14.2456   19.5198 H   0  0  0  0  0  0
  -28.6804  -12.0317   21.3902 H   0  0  0  0  0  0
  -28.4669  -13.6985   21.8335 H   0  0  0  0  0  0
  -25.2741   -9.5709   22.4744 H   0  0  0  0  0  0
  -23.9989   -7.4639   22.7481 H   0  0  0  0  0  0
  -21.0810   -8.8764   19.8958 H   0  0  0  0  0  0
  -22.3654  -10.9672   19.6156 H   0  0  0  0  0  0
  -21.2037   -7.6136   23.9703 H   0  0  0  0  0  0
  -21.1474   -6.0512   25.9068 H   0  0  0  0  0  0
  -22.0600   -2.7607   23.2842 H   0  0  0  0  0  0
  -22.4052  -11.9975   22.4845 H   0  0  0  0  0  0
  -21.1071  -13.1337   22.2542 H   0  0  0  0  0  0
  -24.6833  -15.8521   20.5438 H   0  0  0  0  0  0
  -26.2914  -15.6177   20.0825 H   0  0  0  0  0  0
  -26.7143  -32.5569   23.1206 H   0  0  0  0  0  0
  -24.9922  -33.9785   25.0404 H   0  0  0  0  0  0
  -22.7005  -31.3121   21.4100 H   0  0  0  0  0  0
  -23.3726  -35.9677   23.3261 H   0  0  0  0  0  0
  -24.3574  -36.9017   22.2066 H   0  0  0  0  0  0
  -23.7206  -37.6533   23.6687 H   0  0  0  0  0  0
  -26.0274  -31.5874   20.5781 H   0  0  0  0  0  0
  -26.8347  -30.9092   21.9629 H   0  0  0  0  0  0
  -28.1108  -29.0836   21.1700 H   0  0  0  0  0  0
  -26.0622  -25.9486   19.0398 H   0  0  0  0  0  0
  -23.9800  -27.2894   19.0453 H   0  0  0  0  0  0
  -23.7565  -30.6120   19.4112 H   0  0  0  0  0  0
  -22.7460  -29.2678   19.8464 H   0  0  0  0  0  0
  -25.1246  -36.1993   25.0827 H   0  0  0  0  0  0
  -20.9981  -28.3286   24.1427 H   0  0  0  0  0  0
  -20.5709  -26.2310   23.3624 H   0  0  0  0  0  0
  -21.6649  -26.7500   22.1208 H   0  0  0  0  0  0
  -19.6906  -25.6332   21.1255 H   0  0  0  0  0  0
  -19.6679  -27.3243   20.6773 H   0  0  0  0  0  0
  -17.4194  -26.6720   21.4041 H   0  0  0  0  0  0
  -18.0319  -26.0112   22.9050 H   0  0  0  0  0  0
  -19.7935  -30.7264   24.2374 H   0  0  0  0  0  0
  -17.5024  -31.6299   24.5198 H   0  0  0  0  0  0
  -15.5365  -30.3069   23.7604 H   0  0  0  0  0  0
  -15.8666  -28.0889   22.7033 H   0  0  0  0  0  0
  -24.5791  -30.7244   25.7850 H   0  0  0  0  0  0
  -24.8984  -32.2999   26.4998 H   0  0  0  0  0  0
  -25.8014  -30.8918   27.0262 H   0  0  0  0  0  0
  -26.2786  -29.6913   24.1102 H   0  0  0  0  0  0
  -27.3937  -29.7270   25.4580 H   0  0  0  0  0  0
  -27.8658  -30.4417   23.9311 H   0  0  0  0  0  0
  -27.2669  -33.3641   26.2128 H   0  0  0  0  0  0
  -28.3825  -32.6933   25.0323 H   0  0  0  0  0  0
  -28.0729  -31.8452   26.5399 H   0  0  0  0  0  0
  -28.2558  -38.0137   24.7545 H   0  0  0  0  0  0
  -28.1084  -36.2680   24.6172 H   0  0  0  0  0  0
  -27.2317  -37.1374   25.8848 H   0  0  0  0  0  0
  -20.9319  -29.8775   21.6922 H   0  0  0  0  0  0
  -26.0141  -38.2887   24.1494 H   0  0  0  0  0  0
  -30.3618  -18.3069   16.9730 H   0  0  0  0  0  0
  -29.6417  -20.3385   18.1736 H   0  0  0  0  0  0
  -30.5046  -16.1349   18.1277 H   0  0  0  0  0  0
  -29.1846  -18.0191   21.7879 H   0  0  0  0  0  0
  -29.3466  -24.0152   23.1412 H   0  0  0  0  0  0
  -29.7037  -22.3093   23.1789 H   0  0  0  0  0  0
  -28.0778  -22.8617   22.7776 H   0  0  0  0  0  0
  -31.1941  -24.4998   21.6002 H   0  0  0  0  0  0
  -31.3601  -23.7003   20.0428 H   0  0  0  0  0  0
  -31.6812  -22.8200   21.5296 H   0  0  0  0  0  0
  -29.2983  -25.7767   21.6816 H   0  0  0  0  0  0
  -27.5669  -25.5307   21.6398 H   0  0  0  0  0  0
  -29.0355  -15.4193   21.2591 H   0  0  0  0  0  0
  -30.0716  -21.7102   19.6422 H   0  0  0  0  0  0
  1 25  1  0  0  0
  1 30  2  0  0  0
  1 83  1  0  0  0
  2  3  1  0  0  0
  2 25  1  0  0  0
  2 87  1  0  0  0
  2 88  1  0  0  0
  3  4  1  0  0  0
  3 89  1  0  0  0
  3 90  1  0  0  0
  4  5  1  0  0  0
  4 91  1  0  0  0
  4 92  1  0  0  0
  5  6  1  0  0  0
  5 26  1  0  0  0
  5 93  1  0  0  0
  6 25  1  0  0  0
  6 94  1  0  0  0
  6 95  1  0  0  0
  7  8  2  0  0  0
  7 26  1  0  0  0
  7 29  1  0  0  0
  8  9  1  0  0  0
  8 22  1  0  0  0
  9 10  1  0  0  0
  9 27  2  0  0  0
 10 11  2  0  0  0
 10 15  1  0  0  0
 11 12  1  0  0  0
 11 96  1  0  0  0
 12 13  2  0  0  0
 12 97  1  0  0  0
 13 14  1  0  0  0
 13 31  1  0  0  0
 14 15  2  0  0  0
 14 98  1  0  0  0
 15 99  1  0  0  0
 16 17  2  0  0  0
 16 21  1  0  0  0
 16 31  1  0  0  0
 17 18  1  0  0  0
 17100  1  0  0  0
 18 19  2  0  0  0
 18101  1  0  0  0
 19 20  1  0  0  0
 19 24  1  0  0  0
 20 21  2  0  0  0
 20102  1  0  0  0
 21 23  1  0  0  0
 22 28  1  0  0  0
 22 32  2  0  0  0
 26 27  1  0  0  0
 28103  1  0  0  0
 28104  1  0  0  0
 29105  1  0  0  0
 29106  1  0  0  0
 33 34  1  0  0  0
 33 66  1  0  0  0
 33 70  2  0  0  0
 34 36  1  0  0  0
 34 59  1  0  0  0
 34107  1  0  0  0
 35 44  2  0  0  0
 35 45  1  0  0  0
 35 68  1  0  0  0
 36 56  1  0  0  0
 36108  1  0  0  0
 37 39  1  0  0  0
 37 47  1  0  0  0
 37 66  1  0  0  0
 37109  1  0  0  0
 38 43  2  0  0  0
 38 46  1  0  0  0
 38 47  1  0  0  0
 39 64  1  0  0  0
 39 67  2  0  0  0
 40 52  1  0  0  0
 40 53  2  0  0  0
 40 58  1  0  0  0
 41110  1  0  0  0
 41111  1  0  0  0
 41112  1  0  0  0
 41 48  1  0  0  0
 42 43  1  0  0  0
 42 66  1  0  0  0
 42113  1  0  0  0
 42114  1  0  0  0
 43 44  1  0  0  0
 44115  1  0  0  0
 45 46  2  0  0  0
 45116  1  0  0  0
 46117  1  0  0  0
 47118  1  0  0  0
 47119  1  0  0  0
 48 56  1  0  0  0
 48 65  1  0  0  0
 48120  1  0  0  0
 49 50  1  0  0  0
 49 53  1  0  0  0
 49 64  1  0  0  0
 49121  1  0  0  0
 50 51  1  0  0  0
 50122  1  0  0  0
 50123  1  0  0  0
 51 52  1  0  0  0
 51124  1  0  0  0
 51125  1  0  0  0
 52126  1  0  0  0
 52127  1  0  0  0
 53 54  1  0  0  0
 54 55  2  0  0  0
 54128  1  0  0  0
 55 57  1  0  0  0
 55129  1  0  0  0
 56 69  2  0  0  0
 57 58  2  0  0  0
 57130  1  0  0  0
 58131  1  0  0  0
 59 60  1  0  0  0
 59 61  1  0  0  0
 59 62  1  0  0  0
 60132  1  0  0  0
 60133  1  0  0  0
 60134  1  0  0  0
 61135  1  0  0  0
 61136  1  0  0  0
 61137  1  0  0  0
 62138  1  0  0  0
 62139  1  0  0  0
 62140  1  0  0  0
 63 65  1  0  0  0
 63141  1  0  0  0
 63142  1  0  0  0
 63143  1  0  0  0
 64144  1  0  0  0
 65145  1  0  0  0
 68 81  1  0  0  0
 71 72  2  0  0  0
 71 73  1  0  0  0
 71146  1  0  0  0
 72 75  1  0  0  0
 72147  1  0  0  0
 73 76  2  0  0  0
 73148  1  0  0  0
 74 75  2  0  0  0
 74 76  1  0  0  0
 74149  1  0  0  0
 75 77  1  0  0  0
 76 83  1  0  0  0
 77 84  1  0  0  0
 77 85  2  0  0  0
 78 81  1  0  0  0
 78 82  1  0  0  0
 78 86  2  0  0  0
 79150  1  0  0  0
 79151  1  0  0  0
 79152  1  0  0  0
 79 82  1  0  0  0
 80 82  1  0  0  0
 80153  1  0  0  0
 80154  1  0  0  0
 80155  1  0  0  0
 81156  1  0  0  0
 81157  1  0  0  0
 82 84  1  0  0  0
 83158  1  0  0  0
 84159  1  0  0  0
M  ISO  4   1 100  68 101  81 101  83 100
M  END
> <chiral flag>
0

> <version>
0

> <s_m_source_file>
/data/baiqing/PycharmProjects/Reinvent-master-3.2/result/LINK_invent/BTK/process_docking_weight1_custom_product_contain_oxygen_bond_distance_aromatic_linkinvent_7_9_3/rearranged_h_0096.sdf

> <i_m_source_file_index>
24

> <r_mmod_Potential_Energy-OPLS-2005>
-31.4767742156982

> <r_mmod_Stretch_Energy-OPLS-2005>
50.4635925292969

> <r_mmod_Bend_Energy-OPLS-2005>
107.711059570312

> <r_mmod_Torsional_Energy-OPLS-2005>
281.627899169922

> <r_mmod_Improper_Torsional_Energy-OPLS-2005>
6.00485515594482

> <r_mmod_Van_der_Waal_Energy-OPLS-2005>
148.712539672852

> <r_mmod_Electrostatic_Energy-OPLS-2005>
-413.463043212891

> <r_mmod_Solvation_Energy-OPLS-2005>
-235.930038452148

> <b_mmod_Minimization_Converged-OPLS-2005>
0

> <r_mmod_RMS_Derivative-OPLS-2005>
3.60712814331055

$$$$
24
                    3D
 Structure written by MMmdl.
157165  0  0  1  0            999 V2000
  -30.7270  -14.4988   20.5811 C   0  0  0  0  0  0
  -30.4181  -12.3247   19.4365 C   0  0  0  0  0  0
  -29.4965  -12.5106   18.2157 C   0  0  0  0  0  0
  -28.0176  -12.3708   18.6250 C   0  0  0  0  0  0
  -27.6587  -13.2183   19.8747 C   0  0  2  0  0  0
  -28.7028  -13.0365   20.9978 C   0  0  0  0  0  0
  -25.2548  -13.8172   20.5667 C   0  0  0  0  0  0
  -24.1807  -13.0435   20.9130 C   0  0  0  0  0  0
  -24.6390  -11.6911   20.8737 C   0  0  0  0  0  0
  -23.9073  -10.4293   21.0409 C   0  0  0  0  0  0
  -24.3625   -9.4204   21.9185 C   0  0  0  0  0  0
  -23.6304   -8.2234   22.0749 C   0  0  0  0  0  0
  -22.4275   -8.0282   21.3545 C   0  0  0  0  0  0
  -21.9914   -9.0260   20.4647 C   0  0  0  0  0  0
  -22.7250  -10.2131   20.3054 C   0  0  0  0  0  0
  -21.6840   -6.0746   22.5286 C   0  0  0  0  0  0
  -21.4002   -6.5651   23.8220 C   0  0  0  0  0  0
  -21.3654   -5.6803   24.9184 C   0  0  0  0  0  0
  -21.6035   -4.3065   24.7235 C   0  0  0  0  0  0
  -21.8806   -3.8158   23.4354 C   0  0  0  0  0  0
  -21.9184   -4.6977   22.3411 C   0  0  0  0  0  0
  -22.7827  -13.5232   21.1821 C   0  0  0  0  0  0
  -22.1666   -4.2172   21.0988 F   0  0  0  0  0  0
  -21.5633   -3.4541   25.7741 F   0  0  0  0  0  0
  -30.0315  -13.3323   20.4397 N   0  0  0  0  0  0
  -26.3021  -12.9381   20.3398 N   0  0  0  0  0  0
  -25.9326  -11.6525   20.5779 N   0  0  0  0  0  0
  -22.0495  -12.8214   22.0392 N   0  0  0  0  0  0
  -25.4231  -15.1881   20.4081 N   0  0  0  0  0  0
  -31.8446  -14.6311   20.0813 O   0  0  0  0  0  0
  -21.6629   -6.8883   21.4246 O   0  0  0  0  0  0
  -22.3525  -14.5554   20.6690 O   0  0  0  0  0  0
  -24.6202  -31.8676   23.2092 C   0  0  0  0  0  0
  -25.9087  -32.4822   23.8390 C   0  0  1  0  0  0
  -27.2221  -27.3932   20.0970 C   0  0  0  0  0  0
  -25.5935  -33.8616   24.2328 N   0  0  0  0  0  0
  -23.4085  -30.4949   21.5524 C   0  0  2  0  0  0
  -24.8507  -28.9642   20.1123 C   0  0  0  0  0  0
  -22.7440  -29.4667   22.4985 C   0  0  0  0  0  0
  -18.0281  -28.1377   22.8496 C   0  0  0  0  0  0
  -24.1489  -36.7304   23.2634 C   0  0  0  0  0  0
  -25.9442  -30.8209   21.3686 C   0  0  0  0  0  0
  -26.0188  -29.4555   20.7103 C   0  0  0  0  0  0
  -27.2084  -28.6811   20.6944 C   0  0  0  0  0  0
  -26.0284  -26.9397   19.4817 C   0  0  0  0  0  0
  -24.8541  -27.7077   19.4925 C   0  0  0  0  0  0
  -23.6167  -29.8359   20.1653 C   0  0  0  0  0  0
  -25.4106  -36.3104   24.0339 C   0  0  1  0  0  0
  -20.5878  -28.3678   23.1305 C   0  0  2  0  0  0
  -20.6770  -26.9415   22.5406 C   0  0  0  0  0  0
  -19.5742  -26.6385   21.5208 C   0  0  0  0  0  0
  -18.1922  -26.7924   22.1626 C   0  0  0  0  0  0
  -19.1531  -28.8841   23.2897 C   0  0  0  0  0  0
  -18.9456  -30.1448   23.8903 C   0  0  0  0  0  0
  -17.6457  -30.6580   24.0571 C   0  0  0  0  0  0
  -25.9037  -34.9477   23.5122 C   0  0  0  0  0  0
  -16.5347  -29.9086   23.6334 C   0  0  0  0  0  0
  -16.7269  -28.6505   23.0351 C   0  0  0  0  0  0
  -26.4486  -31.6603   25.0735 C   0  0  0  0  0  0
  -25.3734  -31.3727   26.1475 C   0  0  0  0  0  0
  -27.0303  -30.3034   24.6124 C   0  0  0  0  0  0
  -27.6058  -32.4321   25.7498 C   0  0  0  0  0  0
  -27.5579  -37.1808   24.8466 C   0  0  0  0  0  0
  -21.4163  -29.3045   22.3706 N   0  0  0  0  0  0
  -26.4286  -37.3794   23.9412 N   0  0  0  0  0  0
  -24.6766  -31.0752   22.1014 N   0  0  0  0  0  0
  -23.4200  -28.8192   23.3025 O   0  0  0  0  0  0
  -28.3577  -26.5868   20.1391 O   0  0  0  0  0  0
  -26.5590  -34.8938   22.4681 O   0  0  0  0  0  0
  -23.5384  -32.1446   23.7462 O   0  0  0  0  0  0
  -27.5801  -19.0109   22.6308 C   0  0  0  0  0  0
  -28.0117  -20.2755   22.1991 C   0  0  0  0  0  0
  -29.6455  -19.2004   20.7686 C   0  0  0  0  0  0
  -29.2030  -17.8957   21.1612 C   0  0  0  0  0  0
  -28.1580  -17.8303   22.1290 C   0  0  0  0  0  0
  -29.0591  -20.4016   21.2587 C   0  0  0  0  0  0
  -29.8111  -16.6540   20.5279 C   0  0  0  0  0  0
  -30.0384  -16.7980   19.0163 C   0  0  0  0  0  0
  -29.2423  -24.1690   20.5089 C   0  0  0  0  0  0
  -28.6869  -22.7985   21.0136 C   0  0  0  0  0  0
  -28.0880  -25.1584   20.1722 C   0  0  0  0  0  0
  -30.0551  -15.5621   21.1919 N   0  0  0  0  0  0
  -27.6423  -16.6244   22.6069 N   0  0  0  0  0  0
  -29.5266  -21.6388   20.8096 O   0  0  0  0  0  0
  -31.4640  -12.3991   19.1345 H   0  0  0  0  0  0
  -30.3022  -11.3222   19.8519 H   0  0  0  0  0  0
  -29.7413  -11.7798   17.4447 H   0  0  0  0  0  0
  -29.6656  -13.4932   17.7734 H   0  0  0  0  0  0
  -27.8268  -11.3153   18.8247 H   0  0  0  0  0  0
  -27.3720  -12.6460   17.7905 H   0  0  0  0  0  0
  -27.6912  -14.2624   19.5645 H   0  0  0  0  0  0
  -28.6799  -12.0154   21.3808 H   0  0  0  0  0  0
  -28.4630  -13.6760   21.8482 H   0  0  0  0  0  0
  -25.2762   -9.5685   22.4765 H   0  0  0  0  0  0
  -24.0019   -7.4622   22.7466 H   0  0  0  0  0  0
  -21.0831   -8.8787   19.8967 H   0  0  0  0  0  0
  -22.3703  -10.9673   19.6172 H   0  0  0  0  0  0
  -21.1988   -7.6159   23.9724 H   0  0  0  0  0  0
  -21.1499   -6.0546   25.9085 H   0  0  0  0  0  0
  -22.0581   -2.7620   23.2854 H   0  0  0  0  0  0
  -22.4108  -11.9843   22.4728 H   0  0  0  0  0  0
  -21.1122  -13.1229   22.2673 H   0  0  0  0  0  0
  -24.6737  -15.8489   20.5768 H   0  0  0  0  0  0
  -26.3205  -15.6369   20.2691 H   0  0  0  0  0  0
  -26.7170  -32.5523   23.1157 H   0  0  0  0  0  0
  -25.0124  -33.9765   25.0503 H   0  0  0  0  0  0
  -22.6981  -31.3131   21.4168 H   0  0  0  0  0  0
  -23.3754  -35.9637   23.3306 H   0  0  0  0  0  0
  -24.3578  -36.8899   22.2043 H   0  0  0  0  0  0
  -23.7236  -37.6513   23.6636 H   0  0  0  0  0  0
  -26.0644  -31.5873   20.6014 H   0  0  0  0  0  0
  -26.8291  -30.8690   21.9921 H   0  0  0  0  0  0
  -28.1055  -29.0544   21.1673 H   0  0  0  0  0  0
  -25.9661  -25.9831   18.9871 H   0  0  0  0  0  0
  -23.9591  -27.3233   19.0229 H   0  0  0  0  0  0
  -23.7316  -30.6141   19.4102 H   0  0  0  0  0  0
  -22.7382  -29.2620   19.8646 H   0  0  0  0  0  0
  -25.1287  -36.1964   25.0831 H   0  0  0  0  0  0
  -20.9982  -28.3241   24.1424 H   0  0  0  0  0  0
  -20.5663  -26.2292   23.3595 H   0  0  0  0  0  0
  -21.6640  -26.7441   22.1206 H   0  0  0  0  0  0
  -19.6898  -25.6297   21.1232 H   0  0  0  0  0  0
  -19.6671  -27.3199   20.6740 H   0  0  0  0  0  0
  -17.4195  -26.6688   21.4027 H   0  0  0  0  0  0
  -18.0328  -26.0047   22.9006 H   0  0  0  0  0  0
  -19.7927  -30.7273   24.2271 H   0  0  0  0  0  0
  -17.5005  -31.6261   24.5172 H   0  0  0  0  0  0
  -15.5347  -30.2989   23.7633 H   0  0  0  0  0  0
  -15.8676  -28.0820   22.7061 H   0  0  0  0  0  0
  -24.5924  -30.7051   25.7822 H   0  0  0  0  0  0
  -24.8910  -32.2887   26.4896 H   0  0  0  0  0  0
  -25.8081  -30.8928   27.0249 H   0  0  0  0  0  0
  -26.2850  -29.6809   24.1158 H   0  0  0  0  0  0
  -27.4039  -29.7262   25.4588 H   0  0  0  0  0  0
  -27.8711  -30.4341   23.9303 H   0  0  0  0  0  0
  -27.2685  -33.3624   26.2079 H   0  0  0  0  0  0
  -28.3867  -32.6864   25.0321 H   0  0  0  0  0  0
  -28.0726  -31.8439   26.5405 H   0  0  0  0  0  0
  -28.2613  -38.0094   24.7517 H   0  0  0  0  0  0
  -28.1063  -36.2627   24.6297 H   0  0  0  0  0  0
  -27.2301  -37.1473   25.8872 H   0  0  0  0  0  0
  -20.9320  -29.8788   21.6950 H   0  0  0  0  0  0
  -26.0180  -38.2878   24.1407 H   0  0  0  0  0  0
  -26.7856  -18.9623   23.3633 H   0  0  0  0  0  0
  -27.5169  -21.1328   22.6283 H   0  0  0  0  0  0
  -30.4474  -19.2890   20.0503 H   0  0  0  0  0  0
  -31.0933  -16.9677   18.7993 H   0  0  0  0  0  0
  -29.4696  -17.6328   18.6068 H   0  0  0  0  0  0
  -29.7040  -15.9087   18.4808 H   0  0  0  0  0  0
  -29.8591  -24.0217   19.6224 H   0  0  0  0  0  0
  -29.8915  -24.5940   21.2749 H   0  0  0  0  0  0
  -27.7320  -22.5958   20.5235 H   0  0  0  0  0  0
  -28.4775  -22.9302   22.0748 H   0  0  0  0  0  0
  -27.2878  -24.9893   20.8960 H   0  0  0  0  0  0
  -27.7090  -24.8417   19.2005 H   0  0  0  0  0  0
  -26.8505  -16.5679   23.2387 H   0  0  0  0  0  0
  -28.0944  -15.7434   22.3803 H   0  0  0  0  0  0
  1 25  1  0  0  0
  1 30  2  0  0  0
  1 82  1  0  0  0
  2  3  1  0  0  0
  2 25  1  0  0  0
  2 85  1  0  0  0
  2 86  1  0  0  0
  3  4  1  0  0  0
  3 87  1  0  0  0
  3 88  1  0  0  0
  4  5  1  0  0  0
  4 89  1  0  0  0
  4 90  1  0  0  0
  5  6  1  0  0  0
  5 26  1  0  0  0
  5 91  1  0  0  0
  6 25  1  0  0  0
  6 92  1  0  0  0
  6 93  1  0  0  0
  7  8  2  0  0  0
  7 26  1  0  0  0
  7 29  1  0  0  0
  8  9  1  0  0  0
  8 22  1  0  0  0
  9 10  1  0  0  0
  9 27  2  0  0  0
 10 11  2  0  0  0
 10 15  1  0  0  0
 11 12  1  0  0  0
 11 94  1  0  0  0
 12 13  2  0  0  0
 12 95  1  0  0  0
 13 14  1  0  0  0
 13 31  1  0  0  0
 14 15  2  0  0  0
 14 96  1  0  0  0
 15 97  1  0  0  0
 16 17  2  0  0  0
 16 21  1  0  0  0
 16 31  1  0  0  0
 17 18  1  0  0  0
 17 98  1  0  0  0
 18 19  2  0  0  0
 18 99  1  0  0  0
 19 20  1  0  0  0
 19 24  1  0  0  0
 20 21  2  0  0  0
 20100  1  0  0  0
 21 23  1  0  0  0
 22 28  1  0  0  0
 22 32  2  0  0  0
 26 27  1  0  0  0
 28101  1  0  0  0
 28102  1  0  0  0
 29103  1  0  0  0
 29104  1  0  0  0
 33 34  1  0  0  0
 33 66  1  0  0  0
 33 70  2  0  0  0
 34 36  1  0  0  0
 34 59  1  0  0  0
 34105  1  0  0  0
 35 44  2  0  0  0
 35 45  1  0  0  0
 35 68  1  0  0  0
 36 56  1  0  0  0
 36106  1  0  0  0
 37 39  1  0  0  0
 37 47  1  0  0  0
 37 66  1  0  0  0
 37107  1  0  0  0
 38 43  2  0  0  0
 38 46  1  0  0  0
 38 47  1  0  0  0
 39 64  1  0  0  0
 39 67  2  0  0  0
 40 52  1  0  0  0
 40 53  2  0  0  0
 40 58  1  0  0  0
 41108  1  0  0  0
 41109  1  0  0  0
 41110  1  0  0  0
 41 48  1  0  0  0
 42 43  1  0  0  0
 42 66  1  0  0  0
 42111  1  0  0  0
 42112  1  0  0  0
 43 44  1  0  0  0
 44113  1  0  0  0
 45 46  2  0  0  0
 45114  1  0  0  0
 46115  1  0  0  0
 47116  1  0  0  0
 47117  1  0  0  0
 48 56  1  0  0  0
 48 65  1  0  0  0
 48118  1  0  0  0
 49 50  1  0  0  0
 49 53  1  0  0  0
 49 64  1  0  0  0
 49119  1  0  0  0
 50 51  1  0  0  0
 50120  1  0  0  0
 50121  1  0  0  0
 51 52  1  0  0  0
 51122  1  0  0  0
 51123  1  0  0  0
 52124  1  0  0  0
 52125  1  0  0  0
 53 54  1  0  0  0
 54 55  2  0  0  0
 54126  1  0  0  0
 55 57  1  0  0  0
 55127  1  0  0  0
 56 69  2  0  0  0
 57 58  2  0  0  0
 57128  1  0  0  0
 58129  1  0  0  0
 59 60  1  0  0  0
 59 61  1  0  0  0
 59 62  1  0  0  0
 60130  1  0  0  0
 60131  1  0  0  0
 60132  1  0  0  0
 61133  1  0  0  0
 61134  1  0  0  0
 61135  1  0  0  0
 62136  1  0  0  0
 62137  1  0  0  0
 62138  1  0  0  0
 63 65  1  0  0  0
 63139  1  0  0  0
 63140  1  0  0  0
 63141  1  0  0  0
 64142  1  0  0  0
 65143  1  0  0  0
 68 81  1  0  0  0
 71 72  2  0  0  0
 71 75  1  0  0  0
 71144  1  0  0  0
 72 76  1  0  0  0
 72145  1  0  0  0
 73 74  1  0  0  0
 73 76  2  0  0  0
 73146  1  0  0  0
 74 75  2  0  0  0
 74 77  1  0  0  0
 75 83  1  0  0  0
 76 84  1  0  0  0
 77 78  1  0  0  0
 77 82  2  0  0  0
 78147  1  0  0  0
 78148  1  0  0  0
 78149  1  0  0  0
 79 80  1  0  0  0
 79 81  1  0  0  0
 79150  1  0  0  0
 79151  1  0  0  0
 80 84  1  0  0  0
 80152  1  0  0  0
 80153  1  0  0  0
 81154  1  0  0  0
 81155  1  0  0  0
 83156  1  0  0  0
 83157  1  0  0  0
M  ISO  4   1 100  68 101  81 101  82 100
M  END
> <chiral flag>
0

> <version>
0

> <s_m_source_file>
/data/baiqing/PycharmProjects/Reinvent-master-3.2/result/LINK_invent/BTK/process_docking_weight1_custom_product_contain_oxygen_bond_distance_aromatic_linkinvent_7_9_3/rearranged_h_0096.sdf

> <i_m_source_file_index>
25

> <r_mmod_Potential_Energy-OPLS-2005>
47.1613426208496

> <r_mmod_Stretch_Energy-OPLS-2005>
55.6368522644043

> <r_mmod_Bend_Energy-OPLS-2005>
125.574165344238

> <r_mmod_Torsional_Energy-OPLS-2005>
190.058486938477

> <r_mmod_Improper_Torsional_Energy-OPLS-2005>
3.32397198677063

> <r_mmod_Van_der_Waal_Energy-OPLS-2005>
176.14274597168

> <r_mmod_Electrostatic_Energy-OPLS-2005>
-337.184814453125

> <r_mmod_Solvation_Energy-OPLS-2005>
-186.654861450195

> <b_mmod_Minimization_Converged-OPLS-2005>
0

> <r_mmod_RMS_Derivative-OPLS-2005>
1.97414016723633

$$$$
25
                    3D
 Structure written by MMmdl.
153161  0  0  1  0            999 V2000
  -30.7133  -14.6478   20.4997 C   0  0  0  0  0  0
  -30.4126  -12.4110   19.4508 C   0  0  0  0  0  0
  -29.4925  -12.4959   18.2185 C   0  0  0  0  0  0
  -28.0211  -12.3340   18.6413 C   0  0  0  0  0  0
  -27.6400  -13.2350   19.8475 C   0  0  2  0  0  0
  -28.6919  -13.1718   20.9767 C   0  0  0  0  0  0
  -25.2505  -13.8219   20.5719 C   0  0  0  0  0  0
  -24.1797  -13.0451   20.9204 C   0  0  0  0  0  0
  -24.6395  -11.6931   20.8752 C   0  0  0  0  0  0
  -23.9077  -10.4299   21.0407 C   0  0  0  0  0  0
  -24.3624   -9.4212   21.9183 C   0  0  0  0  0  0
  -23.6299   -8.2246   22.0755 C   0  0  0  0  0  0
  -22.4283   -8.0283   21.3547 C   0  0  0  0  0  0
  -21.9918   -9.0256   20.4648 C   0  0  0  0  0  0
  -22.7249  -10.2135   20.3055 C   0  0  0  0  0  0
  -21.6857   -6.0735   22.5280 C   0  0  0  0  0  0
  -21.4013   -6.5638   23.8212 C   0  0  0  0  0  0
  -21.3657   -5.6789   24.9176 C   0  0  0  0  0  0
  -21.6045   -4.3053   24.7228 C   0  0  0  0  0  0
  -21.8820   -3.8147   23.4349 C   0  0  0  0  0  0
  -21.9192   -4.6962   22.3403 C   0  0  0  0  0  0
  -22.7814  -13.5222   21.1861 C   0  0  0  0  0  0
  -22.1662   -4.2144   21.0982 F   0  0  0  0  0  0
  -21.5626   -3.4536   25.7741 F   0  0  0  0  0  0
  -29.9948  -13.4842   20.3783 N   0  0  0  0  0  0
  -26.2941  -12.9434   20.3313 N   0  0  0  0  0  0
  -25.9330  -11.6574   20.5781 N   0  0  0  0  0  0
  -22.0463  -12.8203   22.0416 N   0  0  0  0  0  0
  -25.4192  -15.1944   20.4169 N   0  0  0  0  0  0
  -31.9067  -14.6434   20.1884 O   0  0  0  0  0  0
  -21.6649   -6.8878   21.4243 O   0  0  0  0  0  0
  -22.3490  -14.5519   20.6705 O   0  0  0  0  0  0
  -24.6285  -31.8610   23.2060 C   0  0  0  0  0  0
  -25.9132  -32.4783   23.8378 C   0  0  1  0  0  0
  -27.2047  -27.3035   20.1098 C   0  0  0  0  0  0
  -25.5955  -33.8581   24.2304 N   0  0  0  0  0  0
  -23.4205  -30.4903   21.5499 C   0  0  2  0  0  0
  -24.8627  -28.9550   20.1083 C   0  0  0  0  0  0
  -22.7483  -29.4641   22.4934 C   0  0  0  0  0  0
  -18.0287  -28.1378   22.8491 C   0  0  0  0  0  0
  -24.1494  -36.7284   23.2633 C   0  0  0  0  0  0
  -25.9659  -30.7868   21.3815 C   0  0  0  0  0  0
  -26.0364  -29.4162   20.7183 C   0  0  0  0  0  0
  -27.2115  -28.6015   20.7140 C   0  0  0  0  0  0
  -26.0071  -26.9189   19.4560 C   0  0  0  0  0  0
  -24.8511  -27.7121   19.4679 C   0  0  0  0  0  0
  -23.6337  -29.8359   20.1622 C   0  0  0  0  0  0
  -25.4115  -36.3084   24.0333 C   0  0  1  0  0  0
  -20.5891  -28.3693   23.1268 C   0  0  2  0  0  0
  -20.6775  -26.9415   22.5399 C   0  0  0  0  0  0
  -19.5752  -26.6385   21.5204 C   0  0  0  0  0  0
  -18.1932  -26.7924   22.1620 C   0  0  0  0  0  0
  -19.1539  -28.8852   23.2876 C   0  0  0  0  0  0
  -18.9462  -30.1452   23.8892 C   0  0  0  0  0  0
  -17.6462  -30.6583   24.0557 C   0  0  0  0  0  0
  -25.9059  -34.9452   23.5115 C   0  0  0  0  0  0
  -16.5354  -29.9080   23.6327 C   0  0  0  0  0  0
  -16.7275  -28.6494   23.0361 C   0  0  0  0  0  0
  -26.4510  -31.6582   25.0742 C   0  0  0  0  0  0
  -25.3743  -31.3719   26.1468 C   0  0  0  0  0  0
  -27.0337  -30.3000   24.6194 C   0  0  0  0  0  0
  -27.6074  -32.4310   25.7507 C   0  0  0  0  0  0
  -27.5583  -37.1792   24.8456 C   0  0  0  0  0  0
  -21.4197  -29.3050   22.3669 N   0  0  0  0  0  0
  -26.4284  -37.3786   23.9418 N   0  0  0  0  0  0
  -24.6908  -31.0616   22.1024 N   0  0  0  0  0  0
  -23.4205  -28.8166   23.3004 O   0  0  0  0  0  0
  -28.2847  -26.3982   20.1804 O   0  0  0  0  0  0
  -26.5612  -34.8919   22.4671 O   0  0  0  0  0  0
  -23.5444  -32.1413   23.7382 O   0  0  0  0  0  0
  -30.3730  -20.8947   20.2894 C   0  0  0  0  0  0
  -28.1783  -20.0774   20.7955 C   0  0  0  0  0  0
  -30.0548  -18.4390   20.7417 C   0  0  0  0  0  0
  -30.8871  -19.5640   20.3877 C   0  0  0  0  0  0
  -29.0086  -21.1969   20.5015 C   0  0  0  0  0  0
  -28.6785  -18.7427   20.9221 C   0  0  0  0  0  0
  -30.6574  -17.0371   21.0459 C   0  0  0  0  0  0
  -28.9352  -23.8122   20.3402 C   0  0  0  0  0  0
  -32.3736  -19.4056   20.0875 C   0  0  0  0  0  0
  -27.9269  -24.9676   19.9615 C   0  0  0  0  0  0
  -28.4230  -22.5348   20.3555 N   0  0  0  0  0  0
  -30.0542  -15.8419   20.7153 N   0  0  0  0  0  0
  -31.7531  -17.0382   21.6215 O   0  0  0  0  0  0
  -30.1136  -24.0711   20.6012 O   0  0  0  0  0  0
  -27.8126  -17.7482   21.2375 F   0  0  0  0  0  0
  -31.4555  -12.4935   19.1403 H   0  0  0  0  0  0
  -30.3245  -11.4363   19.9333 H   0  0  0  0  0  0
  -29.7600  -11.7269   17.4927 H   0  0  0  0  0  0
  -29.6312  -13.4550   17.7167 H   0  0  0  0  0  0
  -27.8709  -11.2856   18.9021 H   0  0  0  0  0  0
  -27.3599  -12.5332   17.7973 H   0  0  0  0  0  0
  -27.6345  -14.2564   19.4667 H   0  0  0  0  0  0
  -28.7128  -12.1827   21.4367 H   0  0  0  0  0  0
  -28.4464  -13.8780   21.7719 H   0  0  0  0  0  0
  -25.2767   -9.5689   22.4755 H   0  0  0  0  0  0
  -24.0008   -7.4639   22.7475 H   0  0  0  0  0  0
  -21.0846   -8.8777   19.8955 H   0  0  0  0  0  0
  -22.3708  -10.9670   19.6160 H   0  0  0  0  0  0
  -21.2007   -7.6145   23.9714 H   0  0  0  0  0  0
  -21.1474   -6.0521   25.9077 H   0  0  0  0  0  0
  -22.0597   -2.7608   23.2853 H   0  0  0  0  0  0
  -22.4082  -11.9863   22.4797 H   0  0  0  0  0  0
  -21.1081  -13.1225   22.2629 H   0  0  0  0  0  0
  -24.6585  -15.8513   20.5499 H   0  0  0  0  0  0
  -26.2836  -15.6450   20.1462 H   0  0  0  0  0  0
  -26.7195  -32.5447   23.1120 H   0  0  0  0  0  0
  -25.0155  -33.9730   25.0486 H   0  0  0  0  0  0
  -22.7144  -31.3121   21.4128 H   0  0  0  0  0  0
  -23.3767  -35.9606   23.3286 H   0  0  0  0  0  0
  -24.3598  -36.8909   22.2050 H   0  0  0  0  0  0
  -23.7232  -37.6481   23.6651 H   0  0  0  0  0  0
  -26.1013  -31.5526   20.6164 H   0  0  0  0  0  0
  -26.8449  -30.8309   22.0129 H   0  0  0  0  0  0
  -28.1059  -28.9459   21.2139 H   0  0  0  0  0  0
  -25.9092  -25.9804   18.9331 H   0  0  0  0  0  0
  -23.9545  -27.3570   18.9781 H   0  0  0  0  0  0
  -23.7549  -30.6170   19.4109 H   0  0  0  0  0  0
  -22.7525  -29.2689   19.8568 H   0  0  0  0  0  0
  -25.1290  -36.1940   25.0826 H   0  0  0  0  0  0
  -20.9983  -28.3268   24.1390 H   0  0  0  0  0  0
  -20.5678  -26.2308   23.3603 H   0  0  0  0  0  0
  -21.6643  -26.7444   22.1194 H   0  0  0  0  0  0
  -19.6918  -25.6297   21.1237 H   0  0  0  0  0  0
  -19.6690  -27.3189   20.6728 H   0  0  0  0  0  0
  -17.4205  -26.6676   21.4017 H   0  0  0  0  0  0
  -18.0339  -26.0058   22.9011 H   0  0  0  0  0  0
  -19.7938  -30.7265   24.2263 H   0  0  0  0  0  0
  -17.5020  -31.6262   24.5161 H   0  0  0  0  0  0
  -15.5354  -30.2981   23.7652 H   0  0  0  0  0  0
  -15.8678  -28.0804   22.7087 H   0  0  0  0  0  0
  -24.5945  -30.7030   25.7808 H   0  0  0  0  0  0
  -24.8897  -32.2878   26.4860 H   0  0  0  0  0  0
  -25.8077  -30.8939   27.0263 H   0  0  0  0  0  0
  -26.2902  -29.6765   24.1213 H   0  0  0  0  0  0
  -27.4020  -29.7243   25.4697 H   0  0  0  0  0  0
  -27.8792  -30.4272   23.9429 H   0  0  0  0  0  0
  -27.2695  -33.3624   26.2063 H   0  0  0  0  0  0
  -28.3894  -32.6842   25.0336 H   0  0  0  0  0  0
  -28.0732  -31.8447   26.5440 H   0  0  0  0  0  0
  -28.2569  -38.0120   24.7550 H   0  0  0  0  0  0
  -28.1105  -36.2650   24.6216 H   0  0  0  0  0  0
  -27.2307  -37.1365   25.8859 H   0  0  0  0  0  0
  -20.9377  -29.8796   21.6896 H   0  0  0  0  0  0
  -26.0162  -38.2856   24.1451 H   0  0  0  0  0  0
  -31.0464  -21.6992   20.0277 H   0  0  0  0  0  0
  -27.1195  -20.2326   20.9463 H   0  0  0  0  0  0
  -32.7561  -20.2490   19.5111 H   0  0  0  0  0  0
  -32.5718  -18.5085   19.5004 H   0  0  0  0  0  0
  -32.9485  -19.3529   21.0126 H   0  0  0  0  0  0
  -27.0111  -24.7424   20.5115 H   0  0  0  0  0  0
  -27.7190  -24.8251   18.9004 H   0  0  0  0  0  0
  -27.4206  -22.5284   20.2214 H   0  0  0  0  0  0
  -29.0593  -15.8630   20.5675 H   0  0  0  0  0  0
  1 25  1  0  0  0
  1 30  2  0  0  0
  1 82  1  0  0  0
  2  3  1  0  0  0
  2 25  1  0  0  0
  2 86  1  0  0  0
  2 87  1  0  0  0
  3  4  1  0  0  0
  3 88  1  0  0  0
  3 89  1  0  0  0
  4  5  1  0  0  0
  4 90  1  0  0  0
  4 91  1  0  0  0
  5  6  1  0  0  0
  5 26  1  0  0  0
  5 92  1  0  0  0
  6 25  1  0  0  0
  6 93  1  0  0  0
  6 94  1  0  0  0
  7  8  2  0  0  0
  7 26  1  0  0  0
  7 29  1  0  0  0
  8  9  1  0  0  0
  8 22  1  0  0  0
  9 10  1  0  0  0
  9 27  2  0  0  0
 10 11  2  0  0  0
 10 15  1  0  0  0
 11 12  1  0  0  0
 11 95  1  0  0  0
 12 13  2  0  0  0
 12 96  1  0  0  0
 13 14  1  0  0  0
 13 31  1  0  0  0
 14 15  2  0  0  0
 14 97  1  0  0  0
 15 98  1  0  0  0
 16 17  2  0  0  0
 16 21  1  0  0  0
 16 31  1  0  0  0
 17 18  1  0  0  0
 17 99  1  0  0  0
 18 19  2  0  0  0
 18100  1  0  0  0
 19 20  1  0  0  0
 19 24  1  0  0  0
 20 21  2  0  0  0
 20101  1  0  0  0
 21 23  1  0  0  0
 22 28  1  0  0  0
 22 32  2  0  0  0
 26 27  1  0  0  0
 28102  1  0  0  0
 28103  1  0  0  0
 29104  1  0  0  0
 29105  1  0  0  0
 33 34  1  0  0  0
 33 66  1  0  0  0
 33 70  2  0  0  0
 34 36  1  0  0  0
 34 59  1  0  0  0
 34106  1  0  0  0
 35 44  2  0  0  0
 35 45  1  0  0  0
 35 68  1  0  0  0
 36 56  1  0  0  0
 36107  1  0  0  0
 37 39  1  0  0  0
 37 47  1  0  0  0
 37 66  1  0  0  0
 37108  1  0  0  0
 38 43  2  0  0  0
 38 46  1  0  0  0
 38 47  1  0  0  0
 39 64  1  0  0  0
 39 67  2  0  0  0
 40 52  1  0  0  0
 40 53  2  0  0  0
 40 58  1  0  0  0
 41109  1  0  0  0
 41110  1  0  0  0
 41111  1  0  0  0
 41 48  1  0  0  0
 42 43  1  0  0  0
 42 66  1  0  0  0
 42112  1  0  0  0
 42113  1  0  0  0
 43 44  1  0  0  0
 44114  1  0  0  0
 45 46  2  0  0  0
 45115  1  0  0  0
 46116  1  0  0  0
 47117  1  0  0  0
 47118  1  0  0  0
 48 56  1  0  0  0
 48 65  1  0  0  0
 48119  1  0  0  0
 49 50  1  0  0  0
 49 53  1  0  0  0
 49 64  1  0  0  0
 49120  1  0  0  0
 50 51  1  0  0  0
 50121  1  0  0  0
 50122  1  0  0  0
 51 52  1  0  0  0
 51123  1  0  0  0
 51124  1  0  0  0
 52125  1  0  0  0
 52126  1  0  0  0
 53 54  1  0  0  0
 54 55  2  0  0  0
 54127  1  0  0  0
 55 57  1  0  0  0
 55128  1  0  0  0
 56 69  2  0  0  0
 57 58  2  0  0  0
 57129  1  0  0  0
 58130  1  0  0  0
 59 60  1  0  0  0
 59 61  1  0  0  0
 59 62  1  0  0  0
 60131  1  0  0  0
 60132  1  0  0  0
 60133  1  0  0  0
 61134  1  0  0  0
 61135  1  0  0  0
 61136  1  0  0  0
 62137  1  0  0  0
 62138  1  0  0  0
 62139  1  0  0  0
 63 65  1  0  0  0
 63140  1  0  0  0
 63141  1  0  0  0
 63142  1  0  0  0
 64143  1  0  0  0
 65144  1  0  0  0
 68 80  1  0  0  0
 71 74  2  0  0  0
 71 75  1  0  0  0
 71145  1  0  0  0
 72 75  2  0  0  0
 72 76  1  0  0  0
 72146  1  0  0  0
 73 74  1  0  0  0
 73 76  2  0  0  0
 73 77  1  0  0  0
 74 79  1  0  0  0
 75 81  1  0  0  0
 76 85  1  0  0  0
 77 82  1  0  0  0
 77 83  2  0  0  0
 78 80  1  0  0  0
 78 81  1  0  0  0
 78 84  2  0  0  0
 79147  1  0  0  0
 79148  1  0  0  0
 79149  1  0  0  0
 80150  1  0  0  0
 80151  1  0  0  0
 81152  1  0  0  0
 82153  1  0  0  0
M  ISO  4   1 100  68 101  80 101  82 100
M  END
> <chiral flag>
0

> <version>
0

> <s_m_source_file>
/data/baiqing/PycharmProjects/Reinvent-master-3.2/result/LINK_invent/BTK/process_docking_weight1_custom_product_contain_oxygen_bond_distance_aromatic_linkinvent_7_9_3/rearranged_h_0096.sdf

> <i_m_source_file_index>
26

> <r_mmod_Potential_Energy-OPLS-2005>
104.618637084961

> <r_mmod_Stretch_Energy-OPLS-2005>
87.7673263549805

> <r_mmod_Bend_Energy-OPLS-2005>
156.670928955078

> <r_mmod_Torsional_Energy-OPLS-2005>
245.634536743164

> <r_mmod_Improper_Torsional_Energy-OPLS-2005>
6.06277656555176

> <r_mmod_Van_der_Waal_Energy-OPLS-2005>
165.41471862793

> <r_mmod_Electrostatic_Energy-OPLS-2005>
-376.569427490234

> <r_mmod_Solvation_Energy-OPLS-2005>
-245.365432739258

> <b_mmod_Minimization_Converged-OPLS-2005>
0

> <r_mmod_RMS_Derivative-OPLS-2005>
0.841373145580292

$$$$
26
                    3D
 Structure written by MMmdl.
154162  0  0  1  0            999 V2000
  -30.4011  -15.3608   20.3520 C   0  0  0  0  0  0
  -30.4360  -12.8602   19.5832 C   0  0  0  0  0  0
  -29.5460  -12.6129   18.3397 C   0  0  0  0  0  0
  -28.1036  -12.2999   18.7639 C   0  0  0  0  0  0
  -27.6168  -13.2868   19.8496 C   0  0  2  0  0  0
  -28.6414  -13.4910   20.9917 C   0  0  0  0  0  0
  -25.2386  -13.8294   20.5831 C   0  0  0  0  0  0
  -24.1737  -13.0468   20.9307 C   0  0  0  0  0  0
  -24.6403  -11.6975   20.8783 C   0  0  0  0  0  0
  -23.9106  -10.4316   21.0424 C   0  0  0  0  0  0
  -24.3634   -9.4210   21.9199 C   0  0  0  0  0  0
  -23.6307   -8.2237   22.0742 C   0  0  0  0  0  0
  -22.4301   -8.0286   21.3530 C   0  0  0  0  0  0
  -21.9945   -9.0272   20.4639 C   0  0  0  0  0  0
  -22.7278  -10.2158   20.3077 C   0  0  0  0  0  0
  -21.6854   -6.0733   22.5278 C   0  0  0  0  0  0
  -21.4020   -6.5646   23.8206 C   0  0  0  0  0  0
  -21.3662   -5.6784   24.9157 C   0  0  0  0  0  0
  -21.6052   -4.3054   24.7202 C   0  0  0  0  0  0
  -21.8816   -3.8154   23.4331 C   0  0  0  0  0  0
  -21.9206   -4.6967   22.3390 C   0  0  0  0  0  0
  -22.7756  -13.5217   21.1906 C   0  0  0  0  0  0
  -22.1680   -4.2179   21.0958 F   0  0  0  0  0  0
  -21.5628   -3.4524   25.7707 F   0  0  0  0  0  0
  -29.8786  -14.0159   20.3939 N   0  0  0  0  0  0
  -26.2830  -12.9586   20.3392 N   0  0  0  0  0  0
  -25.9366  -11.6678   20.5856 N   0  0  0  0  0  0
  -22.0381  -12.8204   22.0449 N   0  0  0  0  0  0
  -25.4102  -15.2005   20.4288 N   0  0  0  0  0  0
  -31.5589  -15.3579   19.9009 O   0  0  0  0  0  0
  -21.6669   -6.8890   21.4246 O   0  0  0  0  0  0
  -22.3448  -14.5519   20.6746 O   0  0  0  0  0  0
  -24.6694  -31.8196   23.1645 C   0  0  0  0  0  0
  -25.9333  -32.4562   23.8145 C   0  0  1  0  0  0
  -27.2095  -26.8598   20.1814 C   0  0  0  0  0  0
  -25.6005  -33.8389   24.2071 N   0  0  0  0  0  0
  -23.4873  -30.4302   21.5145 C   0  0  2  0  0  0
  -24.9393  -28.8007   20.1033 C   0  0  0  0  0  0
  -22.7677  -29.4449   22.4734 C   0  0  0  0  0  0
  -18.0349  -28.1424   22.8437 C   0  0  0  0  0  0
  -24.1516  -36.7174   23.2662 C   0  0  0  0  0  0
  -26.0623  -30.5984   21.4070 C   0  0  0  0  0  0
  -26.1237  -29.1805   20.7489 C   0  0  0  0  0  0
  -27.2488  -28.2290   20.7685 C   0  0  0  0  0  0
  -26.0018  -26.6523   19.4849 C   0  0  0  0  0  0
  -24.9077  -27.5556   19.4533 C   0  0  0  0  0  0
  -23.7264  -29.7361   20.1462 C   0  0  0  0  0  0
  -25.4144  -36.2943   24.0317 C   0  0  1  0  0  0
  -20.5954  -28.3773   23.1165 C   0  0  2  0  0  0
  -20.6821  -26.9453   22.5393 C   0  0  0  0  0  0
  -19.5796  -26.6386   21.5223 C   0  0  0  0  0  0
  -18.1972  -26.7952   22.1613 C   0  0  0  0  0  0
  -19.1595  -28.8934   23.2779 C   0  0  0  0  0  0
  -18.9500  -30.1519   23.8827 C   0  0  0  0  0  0
  -17.6498  -30.6611   24.0572 C   0  0  0  0  0  0
  -25.9118  -34.9331   23.5010 C   0  0  0  0  0  0
  -16.5391  -29.9095   23.6354 C   0  0  0  0  0  0
  -16.7328  -28.6510   23.0347 C   0  0  0  0  0  0
  -26.4546  -31.6513   25.0680 C   0  0  0  0  0  0
  -25.3653  -31.3742   26.1316 C   0  0  0  0  0  0
  -27.0483  -30.2875   24.6499 C   0  0  0  0  0  0
  -27.6053  -32.4330   25.7428 C   0  0  0  0  0  0
  -27.5580  -37.1733   24.8473 C   0  0  0  0  0  0
  -21.4331  -29.3053   22.3488 N   0  0  0  0  0  0
  -26.4304  -37.3666   23.9396 N   0  0  0  0  0  0
  -24.7616  -30.9787   22.0820 N   0  0  0  0  0  0
  -23.4154  -28.8034   23.3048 O   0  0  0  0  0  0
  -28.1790  -25.7065   20.2695 O   0  0  0  0  0  0
  -26.5739  -34.8867   22.4609 O   0  0  0  0  0  0
  -23.5743  -32.1247   23.6641 O   0  0  0  0  0  0
  -29.3838  -19.6234   20.6179 C   0  0  0  0  0  0
  -28.5882  -18.0333   18.9968 C   0  0  0  0  0  0
  -28.7383  -20.9083   20.0050 C   0  0  0  0  0  0
  -29.3541  -18.1115   20.1848 C   0  0  0  0  0  0
  -27.9940  -20.5039   18.8507 C   0  0  0  0  0  0
  -27.9316  -19.1448   18.3988 C   0  0  0  0  0  0
  -28.7639  -22.5993   20.4750 C   0  0  0  0  0  0
  -29.5533  -16.5943   22.2025 C   0  0  0  0  0  0
  -28.6296  -17.6062   22.8836 C   0  0  0  0  0  0
  -27.9446  -24.0799   19.8917 C   0  0  0  0  0  0
  -27.2478  -21.4173   18.0944 N   0  0  0  0  0  0
  -29.7789  -16.6496   20.8513 N   0  0  0  0  0  0
  -29.4805  -22.8366   21.4537 O   0  0  0  0  0  0
  -30.0862  -15.7758   22.9664 O   0  0  0  0  0  0
  -27.1100  -18.8829   17.3373 O   0  0  0  0  0  0
  -31.4565  -13.0422   19.2462 H   0  0  0  0  0  0
  -30.5039  -11.9611   20.2003 H   0  0  0  0  0  0
  -29.9502  -11.7949   17.7384 H   0  0  0  0  0  0
  -29.5475  -13.5055   17.7124 H   0  0  0  0  0  0
  -28.0889  -11.2889   19.1680 H   0  0  0  0  0  0
  -27.4326  -12.3078   17.9040 H   0  0  0  0  0  0
  -27.5298  -14.2502   19.3433 H   0  0  0  0  0  0
  -28.8104  -12.5695   21.5505 H   0  0  0  0  0  0
  -28.2570  -14.2114   21.7086 H   0  0  0  0  0  0
  -25.2783   -9.5697   22.4794 H   0  0  0  0  0  0
  -24.0043   -7.4613   22.7447 H   0  0  0  0  0  0
  -21.0893   -8.8795   19.8921 H   0  0  0  0  0  0
  -22.3743  -10.9701   19.6204 H   0  0  0  0  0  0
  -21.2016   -7.6159   23.9725 H   0  0  0  0  0  0
  -21.1493   -6.0511   25.9067 H   0  0  0  0  0  0
  -22.0607   -2.7629   23.2809 H   0  0  0  0  0  0
  -22.4023  -11.9912   22.4899 H   0  0  0  0  0  0
  -21.0985  -13.1199   22.2585 H   0  0  0  0  0  0
  -24.6502  -15.8641   20.5487 H   0  0  0  0  0  0
  -26.2696  -15.6331   20.1167 H   0  0  0  0  0  0
  -26.7422  -32.5063   23.0886 H   0  0  0  0  0  0
  -25.0066  -33.9496   25.0169 H   0  0  0  0  0  0
  -22.8070  -31.2619   21.3344 H   0  0  0  0  0  0
  -23.3798  -35.9491   23.3295 H   0  0  0  0  0  0
  -24.3610  -36.8840   22.2087 H   0  0  0  0  0  0
  -23.7266  -37.6355   23.6726 H   0  0  0  0  0  0
  -26.2650  -31.3438   20.6310 H   0  0  0  0  0  0
  -26.9229  -30.6533   22.0653 H   0  0  0  0  0  0
  -28.1387  -28.5160   21.3151 H   0  0  0  0  0  0
  -25.8714  -25.7061   18.9812 H   0  0  0  0  0  0
  -24.0104  -27.2531   18.9326 H   0  0  0  0  0  0
  -23.8755  -30.5067   19.3939 H   0  0  0  0  0  0
  -22.8346  -29.1931   19.8260 H   0  0  0  0  0  0
  -25.1346  -36.1756   25.0816 H   0  0  0  0  0  0
  -21.0086  -28.3441   24.1275 H   0  0  0  0  0  0
  -20.5751  -26.2417   23.3607 H   0  0  0  0  0  0
  -21.6668  -26.7449   22.1165 H   0  0  0  0  0  0
  -19.6979  -25.6281   21.1275 H   0  0  0  0  0  0
  -19.6780  -27.3164   20.6693 H   0  0  0  0  0  0
  -17.4236  -26.6705   21.4006 H   0  0  0  0  0  0
  -18.0392  -26.0132   22.9029 H   0  0  0  0  0  0
  -19.7987  -30.7370   24.2130 H   0  0  0  0  0  0
  -17.5047  -31.6278   24.5190 H   0  0  0  0  0  0
  -15.5372  -30.2974   23.7741 H   0  0  0  0  0  0
  -15.8698  -28.0834   22.7066 H   0  0  0  0  0  0
  -24.5877  -30.7071   25.7577 H   0  0  0  0  0  0
  -24.8799  -32.2931   26.4616 H   0  0  0  0  0  0
  -25.7888  -30.8968   27.0168 H   0  0  0  0  0  0
  -26.3204  -29.6472   24.1527 H   0  0  0  0  0  0
  -27.4001  -29.7305   25.5194 H   0  0  0  0  0  0
  -27.9126  -30.4020   23.9956 H   0  0  0  0  0  0
  -27.2670  -33.3699   26.1841 H   0  0  0  0  0  0
  -28.3899  -32.6789   25.0262 H   0  0  0  0  0  0
  -28.0688  -31.8575   26.5453 H   0  0  0  0  0  0
  -28.2561  -38.0051   24.7491 H   0  0  0  0  0  0
  -28.1114  -36.2577   24.6341 H   0  0  0  0  0  0
  -27.2295  -37.1397   25.8875 H   0  0  0  0  0  0
  -20.9591  -29.8705   21.6552 H   0  0  0  0  0  0
  -26.0160  -38.2741   24.1358 H   0  0  0  0  0  0
  -29.9309  -19.8239   21.5310 H   0  0  0  0  0  0
  -28.4201  -17.0602   18.5623 H   0  0  0  0  0  0
  -29.1875  -18.4904   23.1857 H   0  0  0  0  0  0
  -28.1841  -17.1821   23.7857 H   0  0  0  0  0  0
  -27.8012  -17.9050   22.2448 H   0  0  0  0  0  0
  -26.8926  -23.8785   20.0870 H   0  0  0  0  0  0
  -28.0190  -24.0475   18.8040 H   0  0  0  0  0  0
  -27.4240  -22.4059   18.2064 H   0  0  0  0  0  0
  -27.1141  -21.1982   17.1114 H   0  0  0  0  0  0
  -26.4873  -19.6014   17.2740 H   0  0  0  0  0  0
  1 25  1  0  0  0
  1 30  2  0  0  0
  1 82  1  0  0  0
  2  3  1  0  0  0
  2 25  1  0  0  0
  2 86  1  0  0  0
  2 87  1  0  0  0
  3  4  1  0  0  0
  3 88  1  0  0  0
  3 89  1  0  0  0
  4  5  1  0  0  0
  4 90  1  0  0  0
  4 91  1  0  0  0
  5  6  1  0  0  0
  5 26  1  0  0  0
  5 92  1  0  0  0
  6 25  1  0  0  0
  6 93  1  0  0  0
  6 94  1  0  0  0
  7  8  2  0  0  0
  7 26  1  0  0  0
  7 29  1  0  0  0
  8  9  1  0  0  0
  8 22  1  0  0  0
  9 10  1  0  0  0
  9 27  2  0  0  0
 10 11  2  0  0  0
 10 15  1  0  0  0
 11 12  1  0  0  0
 11 95  1  0  0  0
 12 13  2  0  0  0
 12 96  1  0  0  0
 13 14  1  0  0  0
 13 31  1  0  0  0
 14 15  2  0  0  0
 14 97  1  0  0  0
 15 98  1  0  0  0
 16 17  2  0  0  0
 16 21  1  0  0  0
 16 31  1  0  0  0
 17 18  1  0  0  0
 17 99  1  0  0  0
 18 19  2  0  0  0
 18100  1  0  0  0
 19 20  1  0  0  0
 19 24  1  0  0  0
 20 21  2  0  0  0
 20101  1  0  0  0
 21 23  1  0  0  0
 22 28  1  0  0  0
 22 32  2  0  0  0
 26 27  1  0  0  0
 28102  1  0  0  0
 28103  1  0  0  0
 29104  1  0  0  0
 29105  1  0  0  0
 33 34  1  0  0  0
 33 66  1  0  0  0
 33 70  2  0  0  0
 34 36  1  0  0  0
 34 59  1  0  0  0
 34106  1  0  0  0
 35 44  2  0  0  0
 35 45  1  0  0  0
 35 68  1  0  0  0
 36 56  1  0  0  0
 36107  1  0  0  0
 37 39  1  0  0  0
 37 47  1  0  0  0
 37 66  1  0  0  0
 37108  1  0  0  0
 38 43  2  0  0  0
 38 46  1  0  0  0
 38 47  1  0  0  0
 39 64  1  0  0  0
 39 67  2  0  0  0
 40 52  1  0  0  0
 40 53  2  0  0  0
 40 58  1  0  0  0
 41109  1  0  0  0
 41110  1  0  0  0
 41111  1  0  0  0
 41 48  1  0  0  0
 42 43  1  0  0  0
 42 66  1  0  0  0
 42112  1  0  0  0
 42113  1  0  0  0
 43 44  1  0  0  0
 44114  1  0  0  0
 45 46  2  0  0  0
 45115  1  0  0  0
 46116  1  0  0  0
 47117  1  0  0  0
 47118  1  0  0  0
 48 56  1  0  0  0
 48 65  1  0  0  0
 48119  1  0  0  0
 49 50  1  0  0  0
 49 53  1  0  0  0
 49 64  1  0  0  0
 49120  1  0  0  0
 50 51  1  0  0  0
 50121  1  0  0  0
 50122  1  0  0  0
 51 52  1  0  0  0
 51123  1  0  0  0
 51124  1  0  0  0
 52125  1  0  0  0
 52126  1  0  0  0
 53 54  1  0  0  0
 54 55  2  0  0  0
 54127  1  0  0  0
 55 57  1  0  0  0
 55128  1  0  0  0
 56 69  2  0  0  0
 57 58  2  0  0  0
 57129  1  0  0  0
 58130  1  0  0  0
 59 60  1  0  0  0
 59 61  1  0  0  0
 59 62  1  0  0  0
 60131  1  0  0  0
 60132  1  0  0  0
 60133  1  0  0  0
 61134  1  0  0  0
 61135  1  0  0  0
 61136  1  0  0  0
 62137  1  0  0  0
 62138  1  0  0  0
 62139  1  0  0  0
 63 65  1  0  0  0
 63140  1  0  0  0
 63141  1  0  0  0
 63142  1  0  0  0
 64143  1  0  0  0
 65144  1  0  0  0
 68 80  1  0  0  0
 71 73  2  0  0  0
 71 74  1  0  0  0
 71145  1  0  0  0
 72 74  2  0  0  0
 72 76  1  0  0  0
 72146  1  0  0  0
 73 75  1  0  0  0
 73 77  1  0  0  0
 74 82  1  0  0  0
 75 76  2  0  0  0
 75 81  1  0  0  0
 76 85  1  0  0  0
 77 80  1  0  0  0
 77 83  2  0  0  0
 78 79  1  0  0  0
 78 82  1  0  0  0
 78 84  2  0  0  0
 79147  1  0  0  0
 79148  1  0  0  0
 79149  1  0  0  0
 80150  1  0  0  0
 80151  1  0  0  0
 81152  1  0  0  0
 81153  1  0  0  0
 85154  1  0  0  0
M  ISO  4   1 100  68 101  80 101  82 100
M  END
> <chiral flag>
0

> <version>
0

> <s_m_source_file>
/data/baiqing/PycharmProjects/Reinvent-master-3.2/result/LINK_invent/BTK/process_docking_weight1_custom_product_contain_oxygen_bond_distance_aromatic_linkinvent_7_9_3/rearranged_h_0096.sdf

> <i_m_source_file_index>
27

> <r_mmod_Potential_Energy-OPLS-2005>
1601.57922363281

> <r_mmod_Stretch_Energy-OPLS-2005>
725.937194824219

> <r_mmod_Bend_Energy-OPLS-2005>
455.084777832031

> <r_mmod_Torsional_Energy-OPLS-2005>
313.323211669922

> <r_mmod_Improper_Torsional_Energy-OPLS-2005>
8.23104763031006

> <r_mmod_Van_der_Waal_Energy-OPLS-2005>
149.662246704102

> <r_mmod_Electrostatic_Energy-OPLS-2005>
-372.363189697266

> <r_mmod_Solvation_Energy-OPLS-2005>
-248.201232910156

> <b_mmod_Minimization_Converged-OPLS-2005>
0

> <r_mmod_RMS_Derivative-OPLS-2005>
7.52866315841675

$$$$
27
                    3D
 Structure written by MMmdl.
151159  0  0  1  0            999 V2000
  -30.6172  -14.6556   20.4964 C   0  0  0  0  0  0
  -30.4403  -12.4033   19.4541 C   0  0  0  0  0  0
  -29.5089  -12.5134   18.2264 C   0  0  0  0  0  0
  -28.0328  -12.3447   18.6393 C   0  0  0  0  0  0
  -27.6528  -13.2184   19.8649 C   0  0  2  0  0  0
  -28.6986  -13.0814   20.9942 C   0  0  0  0  0  0
  -25.2554  -13.8167   20.5679 C   0  0  0  0  0  0
  -24.1821  -13.0428   20.9161 C   0  0  0  0  0  0
  -24.6401  -11.6903   20.8730 C   0  0  0  0  0  0
  -23.9072  -10.4288   21.0397 C   0  0  0  0  0  0
  -24.3621   -9.4208   21.9177 C   0  0  0  0  0  0
  -23.6293   -8.2245   22.0753 C   0  0  0  0  0  0
  -22.4276   -8.0280   21.3545 C   0  0  0  0  0  0
  -21.9910   -9.0254   20.4650 C   0  0  0  0  0  0
  -22.7240  -10.2131   20.3055 C   0  0  0  0  0  0
  -21.6856   -6.0736   22.5279 C   0  0  0  0  0  0
  -21.4015   -6.5640   23.8212 C   0  0  0  0  0  0
  -21.3663   -5.6793   24.9175 C   0  0  0  0  0  0
  -21.6048   -4.3055   24.7227 C   0  0  0  0  0  0
  -21.8820   -3.8147   23.4349 C   0  0  0  0  0  0
  -21.9193   -4.6963   22.3404 C   0  0  0  0  0  0
  -22.7846  -13.5225   21.1836 C   0  0  0  0  0  0
  -22.1659   -4.2152   21.0980 F   0  0  0  0  0  0
  -21.5631   -3.4538   25.7740 F   0  0  0  0  0  0
  -30.0123  -13.4270   20.4285 N   0  0  0  0  0  0
  -26.2995  -12.9356   20.3346 N   0  0  0  0  0  0
  -25.9336  -11.6506   20.5769 N   0  0  0  0  0  0
  -22.0496  -12.8222   22.0401 N   0  0  0  0  0  0
  -25.4233  -15.1892   20.4132 N   0  0  0  0  0  0
  -31.7842  -14.8111   20.1248 O   0  0  0  0  0  0
  -21.6639   -6.8879   21.4243 O   0  0  0  0  0  0
  -22.3525  -14.5532   20.6690 O   0  0  0  0  0  0
  -24.6264  -31.8606   23.2026 C   0  0  0  0  0  0
  -25.9111  -32.4784   23.8352 C   0  0  1  0  0  0
  -27.2220  -27.3194   20.1159 C   0  0  0  0  0  0
  -25.5929  -33.8587   24.2285 N   0  0  0  0  0  0
  -23.4190  -30.4845   21.5463 C   0  0  2  0  0  0
  -24.8641  -28.9398   20.1108 C   0  0  0  0  0  0
  -22.7473  -29.4632   22.4951 C   0  0  0  0  0  0
  -18.0285  -28.1384   22.8493 C   0  0  0  0  0  0
  -24.1489  -36.7296   23.2635 C   0  0  0  0  0  0
  -25.9596  -30.7920   21.3725 C   0  0  0  0  0  0
  -26.0332  -29.4188   20.7152 C   0  0  0  0  0  0
  -27.2150  -28.6203   20.7078 C   0  0  0  0  0  0
  -26.0294  -26.8945   19.4855 C   0  0  0  0  0  0
  -24.8641  -27.6831   19.4874 C   0  0  0  0  0  0
  -23.6322  -29.8199   20.1612 C   0  0  0  0  0  0
  -25.4115  -36.3092   24.0328 C   0  0  1  0  0  0
  -20.5885  -28.3693   23.1290 C   0  0  2  0  0  0
  -20.6780  -26.9420   22.5411 C   0  0  0  0  0  0
  -19.5750  -26.6385   21.5222 C   0  0  0  0  0  0
  -18.1930  -26.7926   22.1632 C   0  0  0  0  0  0
  -19.1537  -28.8857   23.2885 C   0  0  0  0  0  0
  -18.9459  -30.1459   23.8903 C   0  0  0  0  0  0
  -17.6458  -30.6589   24.0568 C   0  0  0  0  0  0
  -25.9052  -34.9460   23.5108 C   0  0  0  0  0  0
  -16.5350  -29.9088   23.6329 C   0  0  0  0  0  0
  -16.7271  -28.6502   23.0356 C   0  0  0  0  0  0
  -26.4493  -31.6590   25.0721 C   0  0  0  0  0  0
  -25.3730  -31.3734   26.1451 C   0  0  0  0  0  0
  -27.0322  -30.3013   24.6163 C   0  0  0  0  0  0
  -27.6060  -32.4314   25.7488 C   0  0  0  0  0  0
  -27.5587  -37.1799   24.8459 C   0  0  0  0  0  0
  -21.4190  -29.3048   22.3690 N   0  0  0  0  0  0
  -26.4291  -37.3785   23.9413 N   0  0  0  0  0  0
  -24.6873  -31.0618   22.0977 N   0  0  0  0  0  0
  -23.4199  -28.8176   23.3031 O   0  0  0  0  0  0
  -28.3411  -26.4727   20.1707 O   0  0  0  0  0  0
  -26.5623  -34.8926   22.4677 O   0  0  0  0  0  0
  -23.5431  -32.1407   23.7360 O   0  0  0  0  0  0
  -31.1162  -19.3034   20.3510 C   0  0  0  0  0  0
  -31.1004  -17.8774   20.3973 C   0  0  0  0  0  0
  -28.7759  -19.3897   20.8855 C   0  0  0  0  0  0
  -29.9660  -20.1095   20.5997 C   0  0  0  0  0  0
  -29.9153  -17.1624   20.7048 C   0  0  0  0  0  0
  -28.7574  -17.9595   20.9348 C   0  0  0  0  0  0
  -30.1119  -21.6471   20.6956 C   0  0  0  0  0  0
  -29.3045  -24.0448   20.4876 C   0  0  0  0  0  0
  -28.1343  -25.0109   20.0206 C   0  0  0  0  0  0
  -29.7979  -15.7053   20.8234 N   0  0  0  0  0  0
  -29.1186  -22.5419   20.3987 N   0  0  0  0  0  0
  -31.2177  -22.0799   21.0286 O   0  0  0  0  0  0
  -27.5944  -17.3289   21.2274 F   0  0  0  0  0  0
  -31.4809  -12.5318   19.1513 H   0  0  0  0  0  0
  -30.3779  -11.4091   19.8992 H   0  0  0  0  0  0
  -29.7773  -11.7659   17.4794 H   0  0  0  0  0  0
  -29.6460  -13.4847   17.7481 H   0  0  0  0  0  0
  -27.8756  -11.2908   18.8731 H   0  0  0  0  0  0
  -27.3772  -12.5695   17.7975 H   0  0  0  0  0  0
  -27.6662  -14.2524   19.5197 H   0  0  0  0  0  0
  -28.7146  -12.0619   21.3828 H   0  0  0  0  0  0
  -28.4431  -13.7187   21.8424 H   0  0  0  0  0  0
  -25.2766   -9.5686   22.4753 H   0  0  0  0  0  0
  -24.0007   -7.4639   22.7472 H   0  0  0  0  0  0
  -21.0845   -8.8774   19.8954 H   0  0  0  0  0  0
  -22.3697  -10.9673   19.6166 H   0  0  0  0  0  0
  -21.2002   -7.6147   23.9719 H   0  0  0  0  0  0
  -21.1485   -6.0520   25.9079 H   0  0  0  0  0  0
  -22.0596   -2.7611   23.2848 H   0  0  0  0  0  0
  -22.4109  -11.9888   22.4799 H   0  0  0  0  0  0
  -21.1119  -13.1258   22.2613 H   0  0  0  0  0  0
  -24.6607  -15.8416   20.5557 H   0  0  0  0  0  0
  -26.2944  -15.6527   20.1882 H   0  0  0  0  0  0
  -26.7181  -32.5453   23.1102 H   0  0  0  0  0  0
  -25.0081  -33.9731   25.0434 H   0  0  0  0  0  0
  -22.7130  -31.3053   21.4043 H   0  0  0  0  0  0
  -23.3762  -35.9616   23.3279 H   0  0  0  0  0  0
  -24.3586  -36.8938   22.2053 H   0  0  0  0  0  0
  -23.7222  -37.6486   23.6668 H   0  0  0  0  0  0
  -26.0881  -31.5549   20.6035 H   0  0  0  0  0  0
  -26.8413  -30.8427   21.9997 H   0  0  0  0  0  0
  -28.1112  -28.9832   21.1912 H   0  0  0  0  0  0
  -25.9688  -25.9356   18.9931 H   0  0  0  0  0  0
  -23.9683  -27.3112   19.0096 H   0  0  0  0  0  0
  -23.7502  -30.5963   19.4044 H   0  0  0  0  0  0
  -22.7520  -29.2488   19.8598 H   0  0  0  0  0  0
  -25.1294  -36.1945   25.0820 H   0  0  0  0  0  0
  -20.9973  -28.3265   24.1411 H   0  0  0  0  0  0
  -20.5700  -26.2306   23.3611 H   0  0  0  0  0  0
  -21.6647  -26.7463   22.1194 H   0  0  0  0  0  0
  -19.6915  -25.6296   21.1253 H   0  0  0  0  0  0
  -19.6683  -27.3199   20.6754 H   0  0  0  0  0  0
  -17.4203  -26.6682   21.4029 H   0  0  0  0  0  0
  -18.0326  -26.0065   22.9024 H   0  0  0  0  0  0
  -19.7934  -30.7276   24.2274 H   0  0  0  0  0  0
  -17.5010  -31.6269   24.5167 H   0  0  0  0  0  0
  -15.5350  -30.2992   23.7644 H   0  0  0  0  0  0
  -15.8674  -28.0819   22.7075 H   0  0  0  0  0  0
  -24.5855  -30.7150   25.7763 H   0  0  0  0  0  0
  -24.8984  -32.2913   26.4932 H   0  0  0  0  0  0
  -25.8038  -30.8838   27.0193 H   0  0  0  0  0  0
  -26.2884  -29.6772   24.1192 H   0  0  0  0  0  0
  -27.4028  -29.7259   25.4657 H   0  0  0  0  0  0
  -27.8754  -30.4302   23.9374 H   0  0  0  0  0  0
  -27.2675  -33.3603   26.2090 H   0  0  0  0  0  0
  -28.3855  -32.6890   25.0305 H   0  0  0  0  0  0
  -28.0745  -31.8422   26.5382 H   0  0  0  0  0  0
  -28.2586  -38.0115   24.7543 H   0  0  0  0  0  0
  -28.1102  -36.2649   24.6237 H   0  0  0  0  0  0
  -27.2311  -37.1394   25.8861 H   0  0  0  0  0  0
  -20.9371  -29.8773   21.6901 H   0  0  0  0  0  0
  -26.0176  -38.2858   24.1430 H   0  0  0  0  0  0
  -32.0595  -19.7920   20.1480 H   0  0  0  0  0  0
  -32.0237  -17.3470   20.2155 H   0  0  0  0  0  0
  -27.8672  -19.9294   21.1088 H   0  0  0  0  0  0
  -29.5403  -24.2846   21.5251 H   0  0  0  0  0  0
  -30.1960  -24.3070   19.9163 H   0  0  0  0  0  0
  -27.2386  -24.7253   20.5743 H   0  0  0  0  0  0
  -27.9302  -24.8070   18.9688 H   0  0  0  0  0  0
  -28.8759  -15.4081   21.1053 H   0  0  0  0  0  0
  -28.2158  -22.1849   20.1167 H   0  0  0  0  0  0
  1 25  1  0  0  0
  1 30  2  0  0  0
  1 80  1  0  0  0
  2  3  1  0  0  0
  2 25  1  0  0  0
  2 84  1  0  0  0
  2 85  1  0  0  0
  3  4  1  0  0  0
  3 86  1  0  0  0
  3 87  1  0  0  0
  4  5  1  0  0  0
  4 88  1  0  0  0
  4 89  1  0  0  0
  5  6  1  0  0  0
  5 26  1  0  0  0
  5 90  1  0  0  0
  6 25  1  0  0  0
  6 91  1  0  0  0
  6 92  1  0  0  0
  7  8  2  0  0  0
  7 26  1  0  0  0
  7 29  1  0  0  0
  8  9  1  0  0  0
  8 22  1  0  0  0
  9 10  1  0  0  0
  9 27  2  0  0  0
 10 11  2  0  0  0
 10 15  1  0  0  0
 11 12  1  0  0  0
 11 93  1  0  0  0
 12 13  2  0  0  0
 12 94  1  0  0  0
 13 14  1  0  0  0
 13 31  1  0  0  0
 14 15  2  0  0  0
 14 95  1  0  0  0
 15 96  1  0  0  0
 16 17  2  0  0  0
 16 21  1  0  0  0
 16 31  1  0  0  0
 17 18  1  0  0  0
 17 97  1  0  0  0
 18 19  2  0  0  0
 18 98  1  0  0  0
 19 20  1  0  0  0
 19 24  1  0  0  0
 20 21  2  0  0  0
 20 99  1  0  0  0
 21 23  1  0  0  0
 22 28  1  0  0  0
 22 32  2  0  0  0
 26 27  1  0  0  0
 28100  1  0  0  0
 28101  1  0  0  0
 29102  1  0  0  0
 29103  1  0  0  0
 33 34  1  0  0  0
 33 66  1  0  0  0
 33 70  2  0  0  0
 34 36  1  0  0  0
 34 59  1  0  0  0
 34104  1  0  0  0
 35 44  2  0  0  0
 35 45  1  0  0  0
 35 68  1  0  0  0
 36 56  1  0  0  0
 36105  1  0  0  0
 37 39  1  0  0  0
 37 47  1  0  0  0
 37 66  1  0  0  0
 37106  1  0  0  0
 38 43  2  0  0  0
 38 46  1  0  0  0
 38 47  1  0  0  0
 39 64  1  0  0  0
 39 67  2  0  0  0
 40 52  1  0  0  0
 40 53  2  0  0  0
 40 58  1  0  0  0
 41107  1  0  0  0
 41108  1  0  0  0
 41109  1  0  0  0
 41 48  1  0  0  0
 42 43  1  0  0  0
 42 66  1  0  0  0
 42110  1  0  0  0
 42111  1  0  0  0
 43 44  1  0  0  0
 44112  1  0  0  0
 45 46  2  0  0  0
 45113  1  0  0  0
 46114  1  0  0  0
 47115  1  0  0  0
 47116  1  0  0  0
 48 56  1  0  0  0
 48 65  1  0  0  0
 48117  1  0  0  0
 49 50  1  0  0  0
 49 53  1  0  0  0
 49 64  1  0  0  0
 49118  1  0  0  0
 50 51  1  0  0  0
 50119  1  0  0  0
 50120  1  0  0  0
 51 52  1  0  0  0
 51121  1  0  0  0
 51122  1  0  0  0
 52123  1  0  0  0
 52124  1  0  0  0
 53 54  1  0  0  0
 54 55  2  0  0  0
 54125  1  0  0  0
 55 57  1  0  0  0
 55126  1  0  0  0
 56 69  2  0  0  0
 57 58  2  0  0  0
 57127  1  0  0  0
 58128  1  0  0  0
 59 60  1  0  0  0
 59 61  1  0  0  0
 59 62  1  0  0  0
 60129  1  0  0  0
 60130  1  0  0  0
 60131  1  0  0  0
 61132  1  0  0  0
 61133  1  0  0  0
 61134  1  0  0  0
 62135  1  0  0  0
 62136  1  0  0  0
 62137  1  0  0  0
 63 65  1  0  0  0
 63138  1  0  0  0
 63139  1  0  0  0
 63140  1  0  0  0
 64141  1  0  0  0
 65142  1  0  0  0
 68 79  1  0  0  0
 71 72  2  0  0  0
 71 74  1  0  0  0
 71143  1  0  0  0
 72 75  1  0  0  0
 72144  1  0  0  0
 73 74  2  0  0  0
 73 76  1  0  0  0
 73145  1  0  0  0
 74 77  1  0  0  0
 75 76  2  0  0  0
 75 80  1  0  0  0
 76 83  1  0  0  0
 77 81  1  0  0  0
 77 82  2  0  0  0
 78 79  1  0  0  0
 78 81  1  0  0  0
 78146  1  0  0  0
 78147  1  0  0  0
 79148  1  0  0  0
 79149  1  0  0  0
 80150  1  0  0  0
 81151  1  0  0  0
M  ISO  4   1 100  68 101  79 101  80 100
M  END
> <chiral flag>
0

> <version>
0

> <s_m_source_file>
/data/baiqing/PycharmProjects/Reinvent-master-3.2/result/LINK_invent/BTK/process_docking_weight1_custom_product_contain_oxygen_bond_distance_aromatic_linkinvent_7_9_3/rearranged_h_0096.sdf

> <i_m_source_file_index>
28

> <r_mmod_Potential_Energy-OPLS-2005>
-77.2847366333008

> <r_mmod_Stretch_Energy-OPLS-2005>
78.8824691772461

> <r_mmod_Bend_Energy-OPLS-2005>
141.790603637695

> <r_mmod_Torsional_Energy-OPLS-2005>
217.442764282227

> <r_mmod_Improper_Torsional_Energy-OPLS-2005>
4.70903921127319

> <r_mmod_Van_der_Waal_Energy-OPLS-2005>
148.05241394043

> <r_mmod_Electrostatic_Energy-OPLS-2005>
-492.010955810547

> <r_mmod_Solvation_Energy-OPLS-2005>
-227.451812744141

> <b_mmod_Minimization_Converged-OPLS-2005>
0

> <r_mmod_RMS_Derivative-OPLS-2005>
0.871422171592712

$$$$
28
                    3D
 Structure written by MMmdl.
161170  0  0  1  0            999 V2000
  -30.6886  -14.4248   20.5575 C   0  0  0  0  0  0
  -30.4091  -12.2669   19.4019 C   0  0  0  0  0  0
  -29.4736  -12.4683   18.1934 C   0  0  0  0  0  0
  -27.9972  -12.3217   18.6166 C   0  0  0  0  0  0
  -27.6558  -13.1845   19.8624 C   0  0  2  0  0  0
  -28.6908  -12.9495   20.9859 C   0  0  0  0  0  0
  -25.2619  -13.8123   20.5716 C   0  0  0  0  0  0
  -24.1848  -13.0501   20.9143 C   0  0  0  0  0  0
  -24.6320  -11.6915   20.8685 C   0  0  0  0  0  0
  -23.8980  -10.4334   21.0391 C   0  0  0  0  0  0
  -24.3545   -9.4260   21.9183 C   0  0  0  0  0  0
  -23.6267   -8.2247   22.0733 C   0  0  0  0  0  0
  -22.4261   -8.0274   21.3529 C   0  0  0  0  0  0
  -21.9864   -9.0212   20.4632 C   0  0  0  0  0  0
  -22.7129  -10.2135   20.3062 C   0  0  0  0  0  0
  -21.6845   -6.0726   22.5271 C   0  0  0  0  0  0
  -21.4006   -6.5633   23.8215 C   0  0  0  0  0  0
  -21.3663   -5.6783   24.9163 C   0  0  0  0  0  0
  -21.6054   -4.3051   24.7219 C   0  0  0  0  0  0
  -21.8820   -3.8150   23.4342 C   0  0  0  0  0  0
  -21.9194   -4.6950   22.3399 C   0  0  0  0  0  0
  -22.7883  -13.5347   21.1876 C   0  0  0  0  0  0
  -22.1669   -4.2145   21.0969 F   0  0  0  0  0  0
  -21.5632   -3.4543   25.7729 F   0  0  0  0  0  0
  -30.0313  -13.2430   20.4354 N   0  0  0  0  0  0
  -26.3001  -12.9220   20.3331 N   0  0  0  0  0  0
  -25.9241  -11.6406   20.5715 N   0  0  0  0  0  0
  -22.0509  -12.8275   22.0358 N   0  0  0  0  0  0
  -25.4595  -15.1791   20.4073 N   0  0  0  0  0  0
  -31.7890  -14.6474   20.0452 O   0  0  0  0  0  0
  -21.6646   -6.8853   21.4244 O   0  0  0  0  0  0
  -22.3530  -14.5634   20.6748 O   0  0  0  0  0  0
  -24.6137  -31.8624   23.2109 C   0  0  0  0  0  0
  -25.8973  -32.4822   23.8419 C   0  0  1  0  0  0
  -27.2305  -27.4031   20.0999 C   0  0  0  0  0  0
  -25.5850  -33.8626   24.2326 N   0  0  0  0  0  0
  -23.4106  -30.4763   21.5524 C   0  0  2  0  0  0
  -24.8534  -28.9300   20.1366 C   0  0  0  0  0  0
  -22.7395  -29.4571   22.5050 C   0  0  0  0  0  0
  -18.0150  -28.1359   22.8118 C   0  0  0  0  0  0
  -24.1492  -36.7326   23.2641 C   0  0  0  0  0  0
  -25.9436  -30.8118   21.3736 C   0  0  0  0  0  0
  -26.0152  -29.4412   20.7283 C   0  0  0  0  0  0
  -27.2118  -28.6814   20.7048 C   0  0  0  0  0  0
  -26.0537  -26.9204   19.4864 C   0  0  0  0  0  0
  -24.8594  -27.6625   19.5305 C   0  0  0  0  0  0
  -23.6239  -29.8027   20.1739 C   0  0  0  0  0  0
  -25.4097  -36.3134   24.0355 C   0  0  1  0  0  0
  -20.5718  -28.3573   23.1241 C   0  0  2  0  0  0
  -20.6560  -26.9238   22.5562 C   0  0  0  0  0  0
  -19.5775  -26.6329   21.5068 C   0  0  0  0  0  0
  -18.1653  -26.8066   22.0911 C   0  0  0  0  0  0
  -19.1400  -28.8769   23.2712 C   0  0  0  0  0  0
  -18.9316  -30.1314   23.8885 C   0  0  0  0  0  0
  -17.6293  -30.6392   24.0634 C   0  0  0  0  0  0
  -25.8927  -34.9491   23.5113 C   0  0  0  0  0  0
  -16.5280  -29.8872   23.6284 C   0  0  0  0  0  0
  -16.7209  -28.6490   22.9966 C   0  0  0  0  0  0
  -26.4438  -31.6607   25.0752 C   0  0  0  0  0  0
  -25.3746  -31.3695   26.1520 C   0  0  0  0  0  0
  -27.0303  -30.3095   24.6110 C   0  0  0  0  0  0
  -27.6059  -32.4330   25.7441 C   0  0  0  0  0  0
  -27.5591  -37.1826   24.8479 C   0  0  0  0  0  0
  -21.4147  -29.2759   22.3641 N   0  0  0  0  0  0
  -26.4288  -37.3844   23.9405 N   0  0  0  0  0  0
  -24.6745  -31.0680   22.1011 N   0  0  0  0  0  0
  -23.4170  -28.8211   23.3223 O   0  0  0  0  0  0
  -28.4156  -26.7093   19.9560 O   0  0  0  0  0  0
  -26.5626  -34.8939   22.4748 O   0  0  0  0  0  0
  -23.5272  -32.1347   23.7449 O   0  0  0  0  0  0
  -28.6185  -18.7458   21.6521 C   0  0  0  0  0  0
  -29.1617  -17.4782   21.9314 C   0  0  0  0  0  0
  -29.2185  -18.4800   19.3218 C   0  0  0  0  0  0
  -28.6083  -19.2608   20.3354 C   0  0  0  0  0  0
  -29.7175  -16.6813   20.9182 C   0  0  0  0  0  0
  -29.7717  -17.2045   19.5995 C   0  0  0  0  0  0
  -26.7935  -21.7430   21.8506 C   0  0  0  0  0  0
  -25.9356  -22.9949   21.9392 C   0  0  0  0  0  0
  -26.5529  -24.3134   21.4515 C   0  0  0  0  0  0
  -28.5944  -22.9046   20.6948 C   0  0  0  0  0  0
  -27.7781  -24.2322   20.5071 C   0  0  2  0  0  0
  -27.8483  -20.5531   19.9650 C   0  0  0  0  0  0
  -28.6810  -25.5065   20.6958 C   0  0  0  0  0  0
  -27.7759  -21.6927   20.9239 N   0  0  0  0  0  0
  -30.0473  -15.3444   21.2879 N   0  0  0  0  0  0
  -26.4233  -20.7743   22.5049 O   0  0  0  0  0  0
  -30.2839  -16.4831   18.5705 F   0  0  0  0  0  0
  -31.4559  -12.3502   19.1001 H   0  0  0  0  0  0
  -30.2859  -11.2599   19.8031 H   0  0  0  0  0  0
  -29.6961  -11.7303   17.4200 H   0  0  0  0  0  0
  -29.6253  -13.4504   17.7465 H   0  0  0  0  0  0
  -27.8197  -11.2646   18.8394 H   0  0  0  0  0  0
  -27.3278  -12.5648   17.7871 H   0  0  0  0  0  0
  -27.7102  -14.2265   19.5458 H   0  0  0  0  0  0
  -28.6603  -11.9084   21.3156 H   0  0  0  0  0  0
  -28.4351  -13.5456   21.8677 H   0  0  0  0  0  0
  -25.2693   -9.5744   22.4754 H   0  0  0  0  0  0
  -24.0007   -7.4634   22.7448 H   0  0  0  0  0  0
  -21.0805   -8.8714   19.8897 H   0  0  0  0  0  0
  -22.3600  -10.9665   19.6156 H   0  0  0  0  0  0
  -21.1995   -7.6148   23.9701 H   0  0  0  0  0  0
  -21.1485   -6.0525   25.9067 H   0  0  0  0  0  0
  -22.0594   -2.7617   23.2841 H   0  0  0  0  0  0
  -22.4075  -11.9885   22.4737 H   0  0  0  0  0  0
  -21.1115  -13.1267   22.2615 H   0  0  0  0  0  0
  -24.7365  -15.8775   20.5447 H   0  0  0  0  0  0
  -26.3451  -15.5832   20.1350 H   0  0  0  0  0  0
  -26.7018  -32.5490   23.1130 H   0  0  0  0  0  0
  -25.0026  -33.9762   25.0486 H   0  0  0  0  0  0
  -22.6926  -31.2817   21.4009 H   0  0  0  0  0  0
  -23.3761  -35.9664   23.3303 H   0  0  0  0  0  0
  -24.3558  -36.8946   22.2061 H   0  0  0  0  0  0
  -23.7194  -37.6506   23.6622 H   0  0  0  0  0  0
  -26.0619  -31.5697   20.5984 H   0  0  0  0  0  0
  -26.8302  -30.8620   21.9998 H   0  0  0  0  0  0
  -28.1224  -29.0738   21.1399 H   0  0  0  0  0  0
  -26.0476  -25.9630   18.9911 H   0  0  0  0  0  0
  -23.9611  -27.2736   19.0676 H   0  0  0  0  0  0
  -23.7648  -30.5736   19.4224 H   0  0  0  0  0  0
  -22.7534  -29.2305   19.8438 H   0  0  0  0  0  0
  -25.1242  -36.2044   25.0862 H   0  0  0  0  0  0
  -20.9676  -28.3245   24.1390 H   0  0  0  0  0  0
  -20.4866  -26.2339   23.3821 H   0  0  0  0  0  0
  -21.6667  -26.6922   22.2103 H   0  0  0  0  0  0
  -19.6895  -25.6310   21.1003 H   0  0  0  0  0  0
  -19.7062  -27.3020   20.6499 H   0  0  0  0  0  0
  -17.4391  -26.7534   21.2710 H   0  0  0  0  0  0
  -17.9329  -25.9892   22.7825 H   0  0  0  0  0  0
  -19.7786  -30.7136   24.2281 H   0  0  0  0  0  0
  -17.4713  -31.5915   24.5597 H   0  0  0  0  0  0
  -15.5285  -30.2558   23.7763 H   0  0  0  0  0  0
  -15.8628  -28.0955   22.6394 H   0  0  0  0  0  0
  -24.5891  -30.7037   25.7868 H   0  0  0  0  0  0
  -24.8923  -32.2834   26.5032 H   0  0  0  0  0  0
  -25.8112  -30.8838   27.0239 H   0  0  0  0  0  0
  -26.2836  -29.6829   24.1211 H   0  0  0  0  0  0
  -27.4161  -29.7332   25.4496 H   0  0  0  0  0  0
  -27.8609  -30.4471   23.9191 H   0  0  0  0  0  0
  -27.2735  -33.3629   26.2061 H   0  0  0  0  0  0
  -28.3809  -32.6897   25.0203 H   0  0  0  0  0  0
  -28.0796  -31.8440   26.5303 H   0  0  0  0  0  0
  -28.2621  -38.0133   24.7529 H   0  0  0  0  0  0
  -28.1084  -36.2637   24.6280 H   0  0  0  0  0  0
  -27.2307  -37.1468   25.8902 H   0  0  0  0  0  0
  -20.9405  -29.8042   21.6527 H   0  0  0  0  0  0
  -26.0192  -38.2906   24.1505 H   0  0  0  0  0  0
  -28.1561  -19.2574   22.4717 H   0  0  0  0  0  0
  -29.1000  -17.1015   22.9427 H   0  0  0  0  0  0
  -29.2173  -18.8194   18.2924 H   0  0  0  0  0  0
  -25.5765  -23.1263   22.9609 H   0  0  0  0  0  0
  -25.0436  -22.7613   21.3456 H   0  0  0  0  0  0
  -26.7781  -24.9134   22.3347 H   0  0  0  0  0  0
  -25.7334  -24.8281   20.9427 H   0  0  0  0  0  0
  -29.2722  -22.9960   21.5438 H   0  0  0  0  0  0
  -29.2288  -22.7618   19.8216 H   0  0  0  0  0  0
  -27.4302  -24.2150   19.4731 H   0  0  0  0  0  0
  -26.8276  -20.2301   19.7655 H   0  0  0  0  0  0
  -28.1933  -20.9274   18.9966 H   0  0  0  0  0  0
  -29.7075  -25.2466   20.4080 H   0  0  0  0  0  0
  -28.7642  -25.7451   21.7564 H   0  0  0  0  0  0
  -29.3925  -14.9339   21.9349 H   0  0  0  0  0  0
  1 25  1  0  0  0
  1 30  2  0  0  0
  1 85  1  0  0  0
  2  3  1  0  0  0
  2 25  1  0  0  0
  2 88  1  0  0  0
  2 89  1  0  0  0
  3  4  1  0  0  0
  3 90  1  0  0  0
  3 91  1  0  0  0
  4  5  1  0  0  0
  4 92  1  0  0  0
  4 93  1  0  0  0
  5  6  1  0  0  0
  5 26  1  0  0  0
  5 94  1  0  0  0
  6 25  1  0  0  0
  6 95  1  0  0  0
  6 96  1  0  0  0
  7  8  2  0  0  0
  7 26  1  0  0  0
  7 29  1  0  0  0
  8  9  1  0  0  0
  8 22  1  0  0  0
  9 10  1  0  0  0
  9 27  2  0  0  0
 10 11  2  0  0  0
 10 15  1  0  0  0
 11 12  1  0  0  0
 11 97  1  0  0  0
 12 13  2  0  0  0
 12 98  1  0  0  0
 13 14  1  0  0  0
 13 31  1  0  0  0
 14 15  2  0  0  0
 14 99  1  0  0  0
 15100  1  0  0  0
 16 17  2  0  0  0
 16 21  1  0  0  0
 16 31  1  0  0  0
 17 18  1  0  0  0
 17101  1  0  0  0
 18 19  2  0  0  0
 18102  1  0  0  0
 19 20  1  0  0  0
 19 24  1  0  0  0
 20 21  2  0  0  0
 20103  1  0  0  0
 21 23  1  0  0  0
 22 28  1  0  0  0
 22 32  2  0  0  0
 26 27  1  0  0  0
 28104  1  0  0  0
 28105  1  0  0  0
 29106  1  0  0  0
 29107  1  0  0  0
 33 34  1  0  0  0
 33 66  1  0  0  0
 33 70  2  0  0  0
 34 36  1  0  0  0
 34 59  1  0  0  0
 34108  1  0  0  0
 35 44  2  0  0  0
 35 45  1  0  0  0
 35 68  1  0  0  0
 36 56  1  0  0  0
 36109  1  0  0  0
 37 39  1  0  0  0
 37 47  1  0  0  0
 37 66  1  0  0  0
 37110  1  0  0  0
 38 43  2  0  0  0
 38 46  1  0  0  0
 38 47  1  0  0  0
 39 64  1  0  0  0
 39 67  2  0  0  0
 40 52  1  0  0  0
 40 53  2  0  0  0
 40 58  1  0  0  0
 41111  1  0  0  0
 41112  1  0  0  0
 41113  1  0  0  0
 41 48  1  0  0  0
 42 43  1  0  0  0
 42 66  1  0  0  0
 42114  1  0  0  0
 42115  1  0  0  0
 43 44  1  0  0  0
 44116  1  0  0  0
 45 46  2  0  0  0
 45117  1  0  0  0
 46118  1  0  0  0
 47119  1  0  0  0
 47120  1  0  0  0
 48 56  1  0  0  0
 48 65  1  0  0  0
 48121  1  0  0  0
 49 50  1  0  0  0
 49 53  1  0  0  0
 49 64  1  0  0  0
 49122  1  0  0  0
 50 51  1  0  0  0
 50123  1  0  0  0
 50124  1  0  0  0
 51 52  1  0  0  0
 51125  1  0  0  0
 51126  1  0  0  0
 52127  1  0  0  0
 52128  1  0  0  0
 53 54  1  0  0  0
 54 55  2  0  0  0
 54129  1  0  0  0
 55 57  1  0  0  0
 55130  1  0  0  0
 56 69  2  0  0  0
 57 58  2  0  0  0
 57131  1  0  0  0
 58132  1  0  0  0
 59 60  1  0  0  0
 59 61  1  0  0  0
 59 62  1  0  0  0
 60133  1  0  0  0
 60134  1  0  0  0
 60135  1  0  0  0
 61136  1  0  0  0
 61137  1  0  0  0
 61138  1  0  0  0
 62139  1  0  0  0
 62140  1  0  0  0
 62141  1  0  0  0
 63 65  1  0  0  0
 63142  1  0  0  0
 63143  1  0  0  0
 63144  1  0  0  0
 64145  1  0  0  0
 65146  1  0  0  0
 68 83  1  0  0  0
 71 72  2  0  0  0
 71 74  1  0  0  0
 71147  1  0  0  0
 72 75  1  0  0  0
 72148  1  0  0  0
 73 74  2  0  0  0
 73 76  1  0  0  0
 73149  1  0  0  0
 74 82  1  0  0  0
 75 76  2  0  0  0
 75 85  1  0  0  0
 76 87  1  0  0  0
 77 78  1  0  0  0
 77 84  1  0  0  0
 77 86  2  0  0  0
 78 79  1  0  0  0
 78150  1  0  0  0
 78151  1  0  0  0
 79 81  1  0  0  0
 79152  1  0  0  0
 79153  1  0  0  0
 80 81  1  0  0  0
 80 84  1  0  0  0
 80154  1  0  0  0
 80155  1  0  0  0
 81 83  1  0  0  0
 81156  1  0  0  0
 82 84  1  0  0  0
 82157  1  0  0  0
 82158  1  0  0  0
 83159  1  0  0  0
 83160  1  0  0  0
 85161  1  0  0  0
M  ISO  4   1 100  68 101  83 101  85 100
M  END
> <chiral flag>
0

> <version>
0

> <s_m_source_file>
/data/baiqing/PycharmProjects/Reinvent-master-3.2/result/LINK_invent/BTK/process_docking_weight1_custom_product_contain_oxygen_bond_distance_aromatic_linkinvent_7_9_3/rearranged_h_0096.sdf

> <i_m_source_file_index>
29

> <r_mmod_Potential_Energy-OPLS-2005>
60.5914688110352

> <r_mmod_Stretch_Energy-OPLS-2005>
46.4550895690918

> <r_mmod_Bend_Energy-OPLS-2005>
140.478271484375

> <r_mmod_Torsional_Energy-OPLS-2005>
320.791656494141

> <r_mmod_Improper_Torsional_Energy-OPLS-2005>
9.24098491668701

> <r_mmod_Van_der_Waal_Energy-OPLS-2005>
158.751617431641

> <r_mmod_Electrostatic_Energy-OPLS-2005>
-403.563079833984

> <r_mmod_Solvation_Energy-OPLS-2005>
-226.628524780273

> <b_mmod_Minimization_Converged-OPLS-2005>
0

> <r_mmod_RMS_Derivative-OPLS-2005>
12.1368083953857

$$$$
29
                    3D
 Structure written by MMmdl.
165174  0  0  1  0            999 V2000
  -30.6699  -14.4724   20.6254 C   0  0  0  0  0  0
  -30.4307  -12.3133   19.4225 C   0  0  0  0  0  0
  -29.4977  -12.5099   18.2074 C   0  0  0  0  0  0
  -28.0198  -12.3653   18.6203 C   0  0  0  0  0  0
  -27.6646  -13.1961   19.8828 C   0  0  2  0  0  0
  -28.7004  -12.9406   20.9995 C   0  0  0  0  0  0
  -25.2597  -13.8130   20.5653 C   0  0  0  0  0  0
  -24.1846  -13.0415   20.9178 C   0  0  0  0  0  0
  -24.6375  -11.6883   20.8706 C   0  0  0  0  0  0
  -23.9024  -10.4287   21.0395 C   0  0  0  0  0  0
  -24.3586   -9.4213   21.9175 C   0  0  0  0  0  0
  -23.6288   -8.2236   22.0758 C   0  0  0  0  0  0
  -22.4272   -8.0268   21.3552 C   0  0  0  0  0  0
  -21.9882   -9.0235   20.4663 C   0  0  0  0  0  0
  -22.7192  -10.2123   20.3059 C   0  0  0  0  0  0
  -21.6848   -6.0720   22.5279 C   0  0  0  0  0  0
  -21.4009   -6.5626   23.8207 C   0  0  0  0  0  0
  -21.3668   -5.6785   24.9177 C   0  0  0  0  0  0
  -21.6055   -4.3053   24.7229 C   0  0  0  0  0  0
  -21.8818   -3.8139   23.4351 C   0  0  0  0  0  0
  -21.9185   -4.6945   22.3399 C   0  0  0  0  0  0
  -22.7865  -13.5223   21.1841 C   0  0  0  0  0  0
  -22.1656   -4.2134   21.0974 F   0  0  0  0  0  0
  -21.5654   -3.4543   25.7746 F   0  0  0  0  0  0
  -30.0355  -13.2753   20.4670 N   0  0  0  0  0  0
  -26.3030  -12.9271   20.3385 N   0  0  0  0  0  0
  -25.9294  -11.6439   20.5738 N   0  0  0  0  0  0
  -22.0510  -12.8210   22.0403 N   0  0  0  0  0  0
  -25.4293  -15.1828   20.3968 N   0  0  0  0  0  0
  -31.7435  -14.7427   20.0728 O   0  0  0  0  0  0
  -21.6648   -6.8859   21.4243 O   0  0  0  0  0  0
  -22.3542  -14.5533   20.6719 O   0  0  0  0  0  0
  -24.6135  -31.8674   23.2087 C   0  0  0  0  0  0
  -25.9018  -32.4829   23.8382 C   0  0  1  0  0  0
  -27.2360  -27.4284   20.1084 C   0  0  0  0  0  0
  -25.5863  -33.8624   24.2304 N   0  0  0  0  0  0
  -23.4035  -30.4867   21.5507 C   0  0  2  0  0  0
  -24.8554  -28.9532   20.1131 C   0  0  0  0  0  0
  -22.7411  -29.4636   22.5015 C   0  0  0  0  0  0
  -18.0267  -28.1365   22.8509 C   0  0  0  0  0  0
  -24.1479  -36.7315   23.2638 C   0  0  0  0  0  0
  -25.9319  -30.8310   21.3652 C   0  0  0  0  0  0
  -26.0135  -29.4633   20.7169 C   0  0  0  0  0  0
  -27.2086  -28.7055   20.7166 C   0  0  0  0  0  0
  -26.0700  -26.9387   19.4892 C   0  0  0  0  0  0
  -24.8788  -27.6901   19.4950 C   0  0  0  0  0  0
  -23.6130  -29.8163   20.1654 C   0  0  0  0  0  0
  -25.4103  -36.3120   24.0339 C   0  0  1  0  0  0
  -20.5857  -28.3642   23.1338 C   0  0  2  0  0  0
  -20.6745  -26.9374   22.5438 C   0  0  0  0  0  0
  -19.5729  -26.6375   21.5226 C   0  0  0  0  0  0
  -18.1904  -26.7917   22.1634 C   0  0  0  0  0  0
  -19.1515  -28.8829   23.2920 C   0  0  0  0  0  0
  -18.9444  -30.1437   23.8925 C   0  0  0  0  0  0
  -17.6448  -30.6581   24.0565 C   0  0  0  0  0  0
  -25.9035  -34.9485   23.5131 C   0  0  0  0  0  0
  -16.5340  -29.9078   23.6327 C   0  0  0  0  0  0
  -16.7261  -28.6489   23.0366 C   0  0  0  0  0  0
  -26.4445  -31.6622   25.0714 C   0  0  0  0  0  0
  -25.3690  -31.3763   26.1454 C   0  0  0  0  0  0
  -27.0277  -30.3058   24.6111 C   0  0  0  0  0  0
  -27.6037  -32.4342   25.7450 C   0  0  0  0  0  0
  -27.5599  -37.1780   24.8446 C   0  0  0  0  0  0
  -21.4139  -29.2999   22.3737 N   0  0  0  0  0  0
  -26.4287  -37.3811   23.9431 N   0  0  0  0  0  0
  -24.6677  -31.0752   22.1011 N   0  0  0  0  0  0
  -23.4182  -28.8179   23.3057 O   0  0  0  0  0  0
  -28.3566  -26.6277   20.1061 O   0  0  0  0  0  0
  -26.5622  -34.8936   22.4704 O   0  0  0  0  0  0
  -23.5321  -32.1433   23.7474 O   0  0  0  0  0  0
  -28.6687  -18.5671   20.0868 C   0  0  0  0  0  0
  -29.0713  -17.2144   20.1514 C   0  0  0  0  0  0
  -30.2236  -17.6759   22.2392 C   0  0  0  0  0  0
  -29.0153  -19.4887   21.1021 C   0  0  0  0  0  0
  -29.8398  -16.7483   21.2396 C   0  0  0  0  0  0
  -29.8169  -19.0436   22.1834 C   0  0  0  0  0  0
  -30.5770  -22.1023   20.4295 C   0  0  0  0  0  0
  -31.4138  -23.3903   20.4950 C   0  0  0  0  0  0
  -30.6027  -24.6878   20.3683 C   0  0  0  0  0  0
  -28.5428  -23.4029   21.0282 C   0  0  0  0  0  0
  -29.4047  -24.6628   21.3174 C   0  0  2  0  0  0
  -31.1758  -19.7215   24.0512 C   0  0  0  0  0  0
  -28.4297  -20.9216   21.0600 C   0  0  0  0  0  0
  -28.6349  -26.0206   21.3769 C   0  0  0  0  0  0
  -29.2974  -22.1232   20.8871 N   0  0  0  0  0  0
  -30.0361  -15.3435   21.4360 N   0  0  0  0  0  0
  -31.1373  -21.0889   20.0044 O   0  0  0  0  0  0
  -30.0928  -19.9714   23.1667 O   0  0  0  0  0  0
  -31.4750  -12.4228   19.1255 H   0  0  0  0  0  0
  -30.3432  -11.2938   19.8025 H   0  0  0  0  0  0
  -29.7356  -11.7806   17.4323 H   0  0  0  0  0  0
  -29.6647  -13.4922   17.7626 H   0  0  0  0  0  0
  -27.8356  -11.3067   18.8126 H   0  0  0  0  0  0
  -27.3720  -12.6392   17.7885 H   0  0  0  0  0  0
  -27.7154  -14.2497   19.6063 H   0  0  0  0  0  0
  -28.6805  -11.8915   21.2972 H   0  0  0  0  0  0
  -28.4369  -13.4892   21.9035 H   0  0  0  0  0  0
  -25.2729   -9.5715   22.4737 H   0  0  0  0  0  0
  -24.0026   -7.4630   22.7463 H   0  0  0  0  0  0
  -21.0828   -8.8715   19.8950 H   0  0  0  0  0  0
  -22.3629  -10.9653   19.6162 H   0  0  0  0  0  0
  -21.1981   -7.6134   23.9698 H   0  0  0  0  0  0
  -21.1507   -6.0528   25.9076 H   0  0  0  0  0  0
  -22.0587   -2.7596   23.2855 H   0  0  0  0  0  0
  -22.4157  -11.9888   22.4798 H   0  0  0  0  0  0
  -21.1142  -13.1278   22.2622 H   0  0  0  0  0  0
  -24.6569  -15.8355   20.4844 H   0  0  0  0  0  0
  -26.2841  -15.6205   20.0790 H   0  0  0  0  0  0
  -26.7095  -32.5540   23.1153 H   0  0  0  0  0  0
  -24.9954  -33.9801   25.0406 H   0  0  0  0  0  0
  -22.6902  -31.3022   21.4113 H   0  0  0  0  0  0
  -23.3764  -35.9621   23.3271 H   0  0  0  0  0  0
  -24.3585  -36.8964   22.2059 H   0  0  0  0  0  0
  -23.7197  -37.6492   23.6676 H   0  0  0  0  0  0
  -26.0393  -31.5962   20.5951 H   0  0  0  0  0  0
  -26.8211  -30.8885   21.9818 H   0  0  0  0  0  0
  -28.1013  -29.0924   21.1872 H   0  0  0  0  0  0
  -26.0807  -25.9646   19.0219 H   0  0  0  0  0  0
  -23.9894  -27.2924   19.0243 H   0  0  0  0  0  0
  -23.7098  -30.5897   19.4022 H   0  0  0  0  0  0
  -22.7385  -29.2294   19.8769 H   0  0  0  0  0  0
  -25.1271  -36.1979   25.0830 H   0  0  0  0  0  0
  -20.9960  -28.3194   24.1458 H   0  0  0  0  0  0
  -20.5628  -26.2242   23.3618 H   0  0  0  0  0  0
  -21.6612  -26.7391   22.1235 H   0  0  0  0  0  0
  -19.6865  -25.6291   21.1236 H   0  0  0  0  0  0
  -19.6666  -27.3202   20.6768 H   0  0  0  0  0  0
  -17.4170  -26.6700   21.4029 H   0  0  0  0  0  0
  -18.0278  -26.0046   22.9014 H   0  0  0  0  0  0
  -19.7921  -30.7249   24.2299 H   0  0  0  0  0  0
  -17.5002  -31.6268   24.5146 H   0  0  0  0  0  0
  -15.5338  -30.2988   23.7641 H   0  0  0  0  0  0
  -15.8662  -28.0819   22.7075 H   0  0  0  0  0  0
  -24.5819  -30.7174   25.7760 H   0  0  0  0  0  0
  -24.8929  -32.2948   26.4897 H   0  0  0  0  0  0
  -25.7993  -30.8891   27.0211 H   0  0  0  0  0  0
  -26.2832  -29.6821   24.1143 H   0  0  0  0  0  0
  -27.4016  -29.7296   25.4585 H   0  0  0  0  0  0
  -27.8675  -30.4377   23.9284 H   0  0  0  0  0  0
  -27.2663  -33.3614   26.2092 H   0  0  0  0  0  0
  -28.3779  -32.6957   25.0222 H   0  0  0  0  0  0
  -28.0779  -31.8429   26.5295 H   0  0  0  0  0  0
  -28.2564  -38.0133   24.7599 H   0  0  0  0  0  0
  -28.1150  -36.2676   24.6126 H   0  0  0  0  0  0
  -27.2343  -37.1251   25.8850 H   0  0  0  0  0  0
  -20.9292  -29.8735   21.6980 H   0  0  0  0  0  0
  -26.0178  -38.2872   24.1504 H   0  0  0  0  0  0
  -28.0357  -18.8860   19.2727 H   0  0  0  0  0  0
  -28.7308  -16.5290   19.3873 H   0  0  0  0  0  0
  -30.7785  -17.2947   23.0816 H   0  0  0  0  0  0
  -32.1808  -23.3593   19.7205 H   0  0  0  0  0  0
  -31.9388  -23.3859   21.4503 H   0  0  0  0  0  0
  -30.2699  -24.8170   19.3385 H   0  0  0  0  0  0
  -31.2436  -25.5409   20.5957 H   0  0  0  0  0  0
  -27.9788  -23.5601   20.1077 H   0  0  0  0  0  0
  -27.8032  -23.3031   21.8224 H   0  0  0  0  0  0
  -29.8031  -24.5237   22.3232 H   0  0  0  0  0  0
  -31.1921  -20.4985   24.8158 H   0  0  0  0  0  0
  -32.1289  -19.7609   23.5220 H   0  0  0  0  0  0
  -31.0909  -18.7714   24.5746 H   0  0  0  0  0  0
  -27.8961  -21.0433   22.0041 H   0  0  0  0  0  0
  -27.6525  -20.9586   20.2948 H   0  0  0  0  0  0
  -29.2313  -26.7334   21.9485 H   0  0  0  0  0  0
  -27.7159  -25.8821   21.9502 H   0  0  0  0  0  0
  -29.2904  -14.8993   21.9506 H   0  0  0  0  0  0
  1 25  1  0  0  0
  1 30  2  0  0  0
  1 86  1  0  0  0
  2  3  1  0  0  0
  2 25  1  0  0  0
  2 89  1  0  0  0
  2 90  1  0  0  0
  3  4  1  0  0  0
  3 91  1  0  0  0
  3 92  1  0  0  0
  4  5  1  0  0  0
  4 93  1  0  0  0
  4 94  1  0  0  0
  5  6  1  0  0  0
  5 26  1  0  0  0
  5 95  1  0  0  0
  6 25  1  0  0  0
  6 96  1  0  0  0
  6 97  1  0  0  0
  7  8  2  0  0  0
  7 26  1  0  0  0
  7 29  1  0  0  0
  8  9  1  0  0  0
  8 22  1  0  0  0
  9 10  1  0  0  0
  9 27  2  0  0  0
 10 11  2  0  0  0
 10 15  1  0  0  0
 11 12  1  0  0  0
 11 98  1  0  0  0
 12 13  2  0  0  0
 12 99  1  0  0  0
 13 14  1  0  0  0
 13 31  1  0  0  0
 14 15  2  0  0  0
 14100  1  0  0  0
 15101  1  0  0  0
 16 17  2  0  0  0
 16 21  1  0  0  0
 16 31  1  0  0  0
 17 18  1  0  0  0
 17102  1  0  0  0
 18 19  2  0  0  0
 18103  1  0  0  0
 19 20  1  0  0  0
 19 24  1  0  0  0
 20 21  2  0  0  0
 20104  1  0  0  0
 21 23  1  0  0  0
 22 28  1  0  0  0
 22 32  2  0  0  0
 26 27  1  0  0  0
 28105  1  0  0  0
 28106  1  0  0  0
 29107  1  0  0  0
 29108  1  0  0  0
 33 34  1  0  0  0
 33 66  1  0  0  0
 33 70  2  0  0  0
 34 36  1  0  0  0
 34 59  1  0  0  0
 34109  1  0  0  0
 35 44  2  0  0  0
 35 45  1  0  0  0
 35 68  1  0  0  0
 36 56  1  0  0  0
 36110  1  0  0  0
 37 39  1  0  0  0
 37 47  1  0  0  0
 37 66  1  0  0  0
 37111  1  0  0  0
 38 43  2  0  0  0
 38 46  1  0  0  0
 38 47  1  0  0  0
 39 64  1  0  0  0
 39 67  2  0  0  0
 40 52  1  0  0  0
 40 53  2  0  0  0
 40 58  1  0  0  0
 41112  1  0  0  0
 41113  1  0  0  0
 41114  1  0  0  0
 41 48  1  0  0  0
 42 43  1  0  0  0
 42 66  1  0  0  0
 42115  1  0  0  0
 42116  1  0  0  0
 43 44  1  0  0  0
 44117  1  0  0  0
 45 46  2  0  0  0
 45118  1  0  0  0
 46119  1  0  0  0
 47120  1  0  0  0
 47121  1  0  0  0
 48 56  1  0  0  0
 48 65  1  0  0  0
 48122  1  0  0  0
 49 50  1  0  0  0
 49 53  1  0  0  0
 49 64  1  0  0  0
 49123  1  0  0  0
 50 51  1  0  0  0
 50124  1  0  0  0
 50125  1  0  0  0
 51 52  1  0  0  0
 51126  1  0  0  0
 51127  1  0  0  0
 52128  1  0  0  0
 52129  1  0  0  0
 53 54  1  0  0  0
 54 55  2  0  0  0
 54130  1  0  0  0
 55 57  1  0  0  0
 55131  1  0  0  0
 56 69  2  0  0  0
 57 58  2  0  0  0
 57132  1  0  0  0
 58133  1  0  0  0
 59 60  1  0  0  0
 59 61  1  0  0  0
 59 62  1  0  0  0
 60134  1  0  0  0
 60135  1  0  0  0
 60136  1  0  0  0
 61137  1  0  0  0
 61138  1  0  0  0
 61139  1  0  0  0
 62140  1  0  0  0
 62141  1  0  0  0
 62142  1  0  0  0
 63 65  1  0  0  0
 63143  1  0  0  0
 63144  1  0  0  0
 63145  1  0  0  0
 64146  1  0  0  0
 65147  1  0  0  0
 68 84  1  0  0  0
 71 72  2  0  0  0
 71 74  1  0  0  0
 71148  1  0  0  0
 72 75  1  0  0  0
 72149  1  0  0  0
 73 75  2  0  0  0
 73 76  1  0  0  0
 73150  1  0  0  0
 74 76  2  0  0  0
 74 83  1  0  0  0
 75 86  1  0  0  0
 76 88  1  0  0  0
 77 78  1  0  0  0
 77 85  1  0  0  0
 77 87  2  0  0  0
 78 79  1  0  0  0
 78151  1  0  0  0
 78152  1  0  0  0
 79 81  1  0  0  0
 79153  1  0  0  0
 79154  1  0  0  0
 80 81  1  0  0  0
 80 85  1  0  0  0
 80155  1  0  0  0
 80156  1  0  0  0
 81 84  1  0  0  0
 81157  1  0  0  0
 82 88  1  0  0  0
 82158  1  0  0  0
 82159  1  0  0  0
 82160  1  0  0  0
 83 85  1  0  0  0
 83161  1  0  0  0
 83162  1  0  0  0
 84163  1  0  0  0
 84164  1  0  0  0
 86165  1  0  0  0
M  ISO  4   1 100  68 101  84 101  86 100
M  END
> <chiral flag>
0

> <version>
0

> <s_m_source_file>
/data/baiqing/PycharmProjects/Reinvent-master-3.2/result/LINK_invent/BTK/process_docking_weight1_custom_product_contain_oxygen_bond_distance_aromatic_linkinvent_7_9_3/rearranged_h_0096.sdf

> <i_m_source_file_index>
30

> <r_mmod_Potential_Energy-OPLS-2005>
40.6045684814453

> <r_mmod_Stretch_Energy-OPLS-2005>
47.6758460998535

> <r_mmod_Bend_Energy-OPLS-2005>
123.530990600586

> <r_mmod_Torsional_Energy-OPLS-2005>
298.311981201172

> <r_mmod_Improper_Torsional_Energy-OPLS-2005>
6.4026083946228

> <r_mmod_Van_der_Waal_Energy-OPLS-2005>
153.412811279297

> <r_mmod_Electrostatic_Energy-OPLS-2005>
-361.112426757812

> <r_mmod_Solvation_Energy-OPLS-2005>
-241.372924804688

> <b_mmod_Minimization_Converged-OPLS-2005>
0

> <r_mmod_RMS_Derivative-OPLS-2005>
2.93218016624451

$$$$
30
                    3D
 Structure written by MMmdl.
153161  0  0  1  0            999 V2000
  -30.7620  -14.4286   20.6078 C   0  0  0  0  0  0
  -30.4102  -12.3070   19.3958 C   0  0  0  0  0  0
  -29.4783  -12.5062   18.1867 C   0  0  0  0  0  0
  -28.0026  -12.3705   18.6081 C   0  0  0  0  0  0
  -27.6588  -13.2099   19.8688 C   0  0  2  0  0  0
  -28.7067  -13.0014   20.9839 C   0  0  0  0  0  0
  -25.2638  -13.8198   20.5744 C   0  0  0  0  0  0
  -24.1865  -13.0473   20.9199 C   0  0  0  0  0  0
  -24.6412  -11.6929   20.8745 C   0  0  0  0  0  0
  -23.9074  -10.4309   21.0421 C   0  0  0  0  0  0
  -24.3625   -9.4228   21.9204 C   0  0  0  0  0  0
  -23.6312   -8.2255   22.0761 C   0  0  0  0  0  0
  -22.4290   -8.0286   21.3561 C   0  0  0  0  0  0
  -21.9934   -9.0252   20.4650 C   0  0  0  0  0  0
  -22.7253  -10.2142   20.3065 C   0  0  0  0  0  0
  -21.6856   -6.0755   22.5288 C   0  0  0  0  0  0
  -21.4013   -6.5658   23.8221 C   0  0  0  0  0  0
  -21.3654   -5.6805   24.9185 C   0  0  0  0  0  0
  -21.6037   -4.3066   24.7228 C   0  0  0  0  0  0
  -21.8819   -3.8164   23.4347 C   0  0  0  0  0  0
  -21.9193   -4.6985   22.3408 C   0  0  0  0  0  0
  -22.7884  -13.5283   21.1819 C   0  0  0  0  0  0
  -22.1662   -4.2168   21.0984 F   0  0  0  0  0  0
  -21.5619   -3.4537   25.7741 F   0  0  0  0  0  0
  -30.0294  -13.2984   20.4135 N   0  0  0  0  0  0
  -26.3036  -12.9348   20.3373 N   0  0  0  0  0  0
  -25.9336  -11.6499   20.5757 N   0  0  0  0  0  0
  -22.0494  -12.8265   22.0342 N   0  0  0  0  0  0
  -25.4474  -15.1916   20.4213 N   0  0  0  0  0  0
  -31.8969  -14.5502   20.1353 O   0  0  0  0  0  0
  -21.6652   -6.8889   21.4250 O   0  0  0  0  0  0
  -22.3581  -14.5595   20.6671 O   0  0  0  0  0  0
  -24.6158  -31.8663   23.2076 C   0  0  0  0  0  0
  -25.9050  -32.4809   23.8383 C   0  0  1  0  0  0
  -27.2446  -27.4391   20.1059 C   0  0  0  0  0  0
  -25.5898  -33.8603   24.2328 N   0  0  0  0  0  0
  -23.4043  -30.4889   21.5470 C   0  0  2  0  0  0
  -24.8524  -28.9470   20.1225 C   0  0  0  0  0  0
  -22.7408  -29.4677   22.4997 C   0  0  0  0  0  0
  -18.0272  -28.1403   22.8496 C   0  0  0  0  0  0
  -24.1482  -36.7305   23.2628 C   0  0  0  0  0  0
  -25.9293  -30.8376   21.3533 C   0  0  0  0  0  0
  -26.0105  -29.4655   20.7156 C   0  0  0  0  0  0
  -27.2106  -28.7199   20.7025 C   0  0  0  0  0  0
  -26.0703  -26.9260   19.5172 C   0  0  0  0  0  0
  -24.8762  -27.6748   19.5229 C   0  0  0  0  0  0
  -23.6120  -29.8130   20.1645 C   0  0  0  0  0  0
  -25.4090  -36.3104   24.0355 C   0  0  1  0  0  0
  -20.5850  -28.3680   23.1323 C   0  0  2  0  0  0
  -20.6770  -26.9411   22.5434 C   0  0  0  0  0  0
  -19.5740  -26.6403   21.5237 C   0  0  0  0  0  0
  -18.1915  -26.7959   22.1631 C   0  0  0  0  0  0
  -19.1520  -28.8858   23.2908 C   0  0  0  0  0  0
  -18.9460  -30.1466   23.8918 C   0  0  0  0  0  0
  -17.6462  -30.6601   24.0577 C   0  0  0  0  0  0
  -25.9021  -34.9471   23.5142 C   0  0  0  0  0  0
  -16.5340  -29.9116   23.6328 C   0  0  0  0  0  0
  -16.7264  -28.6530   23.0340 C   0  0  0  0  0  0
  -26.4467  -31.6568   25.0702 C   0  0  0  0  0  0
  -25.3729  -31.3669   26.1445 C   0  0  0  0  0  0
  -27.0267  -30.3025   24.6026 C   0  0  0  0  0  0
  -27.6075  -32.4228   25.7474 C   0  0  0  0  0  0
  -27.5608  -37.1744   24.8435 C   0  0  0  0  0  0
  -21.4131  -29.3040   22.3723 N   0  0  0  0  0  0
  -26.4252  -37.3818   23.9471 N   0  0  0  0  0  0
  -24.6684  -31.0788   22.0956 N   0  0  0  0  0  0
  -23.4163  -28.8203   23.3045 O   0  0  0  0  0  0
  -28.4194  -26.7266   20.0342 O   0  0  0  0  0  0
  -26.5591  -34.8943   22.4711 O   0  0  0  0  0  0
  -23.5354  -32.1394   23.7502 O   0  0  0  0  0  0
  -30.4618  -19.0488   22.2082 C   0  0  0  0  0  0
  -29.9206  -20.3367   21.9997 C   0  0  0  0  0  0
  -28.3324  -19.3882   20.4329 C   0  0  0  0  0  0
  -29.9683  -17.9098   21.5177 C   0  0  0  0  0  0
  -28.8653  -20.5246   21.0793 C   0  0  0  0  0  0
  -28.8688  -18.0970   20.6426 C   0  0  0  0  0  0
  -30.7157  -16.5942   21.6265 C   0  0  0  0  0  0
  -28.4576  -24.2646   20.3740 C   0  0  0  0  0  0
  -28.9212  -23.0540   21.2164 C   0  0  0  0  0  0
  -28.5819  -25.6733   20.9996 C   0  0  0  0  0  0
  -28.3233  -21.7871   20.7692 N   0  0  0  0  0  0
  -30.1220  -15.4638   21.1874 N   0  0  0  0  0  0
  -31.8495  -16.5994   22.1248 O   0  0  0  0  0  0
  -27.9987  -24.0953   19.2361 O   0  0  0  0  0  0
  -28.3214  -17.0535   19.9662 F   0  0  0  0  0  0
  -31.4515  -12.3940   19.0816 H   0  0  0  0  0  0
  -30.3065  -11.2984   19.7957 H   0  0  0  0  0  0
  -29.7127  -11.7800   17.4074 H   0  0  0  0  0  0
  -29.6454  -13.4896   17.7441 H   0  0  0  0  0  0
  -27.8078  -11.3144   18.7962 H   0  0  0  0  0  0
  -27.3487  -12.6532   17.7819 H   0  0  0  0  0  0
  -27.7015  -14.2564   19.5663 H   0  0  0  0  0  0
  -28.6865  -11.9692   21.3388 H   0  0  0  0  0  0
  -28.4800  -13.6164   21.8556 H   0  0  0  0  0  0
  -25.2768   -9.5706   22.4776 H   0  0  0  0  0  0
  -24.0016   -7.4660   22.7485 H   0  0  0  0  0  0
  -21.0870   -8.8768   19.8951 H   0  0  0  0  0  0
  -22.3720  -10.9677   19.6159 H   0  0  0  0  0  0
  -21.2002   -7.6159   23.9740 H   0  0  0  0  0  0
  -21.1469   -6.0527   25.9091 H   0  0  0  0  0  0
  -22.0598   -2.7618   23.2844 H   0  0  0  0  0  0
  -22.4069  -11.9912   22.4726 H   0  0  0  0  0  0
  -21.1103  -13.1278   22.2476 H   0  0  0  0  0  0
  -24.7123  -15.8680   20.5931 H   0  0  0  0  0  0
  -26.3114  -15.6207   20.1111 H   0  0  0  0  0  0
  -26.7128  -32.5547   23.1161 H   0  0  0  0  0  0
  -25.0079  -33.9763   25.0496 H   0  0  0  0  0  0
  -22.6951  -31.3067   21.4034 H   0  0  0  0  0  0
  -23.3781  -35.9591   23.3202 H   0  0  0  0  0  0
  -24.3617  -36.9000   22.2061 H   0  0  0  0  0  0
  -23.7166  -37.6468   23.6663 H   0  0  0  0  0  0
  -26.0249  -31.5927   20.5711 H   0  0  0  0  0  0
  -26.8239  -30.9098   21.9600 H   0  0  0  0  0  0
  -28.1102  -29.1293   21.1410 H   0  0  0  0  0  0
  -26.0829  -25.9530   19.0468 H   0  0  0  0  0  0
  -23.9840  -27.2665   19.0680 H   0  0  0  0  0  0
  -23.7164  -30.5790   19.3955 H   0  0  0  0  0  0
  -22.7375  -29.2302   19.8714 H   0  0  0  0  0  0
  -25.1238  -36.1950   25.0835 H   0  0  0  0  0  0
  -20.9947  -28.3238   24.1440 H   0  0  0  0  0  0
  -20.5712  -26.2277   23.3620 H   0  0  0  0  0  0
  -21.6631  -26.7480   22.1174 H   0  0  0  0  0  0
  -19.6892  -25.6325   21.1244 H   0  0  0  0  0  0
  -19.6684  -27.3239   20.6785 H   0  0  0  0  0  0
  -17.4192  -26.6719   21.4030 H   0  0  0  0  0  0
  -18.0293  -26.0123   22.9038 H   0  0  0  0  0  0
  -19.7939  -30.7275   24.2286 H   0  0  0  0  0  0
  -17.5028  -31.6289   24.5171 H   0  0  0  0  0  0
  -15.5348  -30.3029   23.7684 H   0  0  0  0  0  0
  -15.8656  -28.0876   22.7034 H   0  0  0  0  0  0
  -24.5959  -30.6936   25.7803 H   0  0  0  0  0  0
  -24.8843  -32.2815   26.4811 H   0  0  0  0  0  0
  -25.8098  -30.8923   27.0241 H   0  0  0  0  0  0
  -26.2773  -29.6818   24.1103 H   0  0  0  0  0  0
  -27.4106  -29.7221   25.4424 H   0  0  0  0  0  0
  -27.8576  -30.4395   23.9103 H   0  0  0  0  0  0
  -27.2745  -33.3556   26.2042 H   0  0  0  0  0  0
  -28.3907  -32.6708   25.0291 H   0  0  0  0  0  0
  -28.0697  -31.8313   26.5394 H   0  0  0  0  0  0
  -28.2454  -38.0203   24.7711 H   0  0  0  0  0  0
  -28.1253  -36.2752   24.5925 H   0  0  0  0  0  0
  -27.2363  -37.0991   25.8827 H   0  0  0  0  0  0
  -20.9295  -29.8743   21.6922 H   0  0  0  0  0  0
  -26.0137  -38.2858   24.1630 H   0  0  0  0  0  0
  -31.3023  -18.9439   22.8806 H   0  0  0  0  0  0
  -30.3501  -21.1718   22.5372 H   0  0  0  0  0  0
  -27.5088  -19.4956   19.7437 H   0  0  0  0  0  0
  -28.6590  -23.2378   22.2597 H   0  0  0  0  0  0
  -30.0088  -22.9947   21.1602 H   0  0  0  0  0  0
  -29.5738  -25.7629   21.4444 H   0  0  0  0  0  0
  -27.8618  -25.7750   21.8100 H   0  0  0  0  0  0
  -27.7245  -21.8719   19.9496 H   0  0  0  0  0  0
  -29.1182  -15.4696   21.1154 H   0  0  0  0  0  0
  1 25  1  0  0  0
  1 30  2  0  0  0
  1 82  1  0  0  0
  2  3  1  0  0  0
  2 25  1  0  0  0
  2 86  1  0  0  0
  2 87  1  0  0  0
  3  4  1  0  0  0
  3 88  1  0  0  0
  3 89  1  0  0  0
  4  5  1  0  0  0
  4 90  1  0  0  0
  4 91  1  0  0  0
  5  6  1  0  0  0
  5 26  1  0  0  0
  5 92  1  0  0  0
  6 25  1  0  0  0
  6 93  1  0  0  0
  6 94  1  0  0  0
  7  8  2  0  0  0
  7 26  1  0  0  0
  7 29  1  0  0  0
  8  9  1  0  0  0
  8 22  1  0  0  0
  9 10  1  0  0  0
  9 27  2  0  0  0
 10 11  2  0  0  0
 10 15  1  0  0  0
 11 12  1  0  0  0
 11 95  1  0  0  0
 12 13  2  0  0  0
 12 96  1  0  0  0
 13 14  1  0  0  0
 13 31  1  0  0  0
 14 15  2  0  0  0
 14 97  1  0  0  0
 15 98  1  0  0  0
 16 17  2  0  0  0
 16 21  1  0  0  0
 16 31  1  0  0  0
 17 18  1  0  0  0
 17 99  1  0  0  0
 18 19  2  0  0  0
 18100  1  0  0  0
 19 20  1  0  0  0
 19 24  1  0  0  0
 20 21  2  0  0  0
 20101  1  0  0  0
 21 23  1  0  0  0
 22 28  1  0  0  0
 22 32  2  0  0  0
 26 27  1  0  0  0
 28102  1  0  0  0
 28103  1  0  0  0
 29104  1  0  0  0
 29105  1  0  0  0
 33 34  1  0  0  0
 33 66  1  0  0  0
 33 70  2  0  0  0
 34 36  1  0  0  0
 34 59  1  0  0  0
 34106  1  0  0  0
 35 44  2  0  0  0
 35 45  1  0  0  0
 35 68  1  0  0  0
 36 56  1  0  0  0
 36107  1  0  0  0
 37 39  1  0  0  0
 37 47  1  0  0  0
 37 66  1  0  0  0
 37108  1  0  0  0
 38 43  2  0  0  0
 38 46  1  0  0  0
 38 47  1  0  0  0
 39 64  1  0  0  0
 39 67  2  0  0  0
 40 52  1  0  0  0
 40 53  2  0  0  0
 40 58  1  0  0  0
 41109  1  0  0  0
 41110  1  0  0  0
 41111  1  0  0  0
 41 48  1  0  0  0
 42 43  1  0  0  0
 42 66  1  0  0  0
 42112  1  0  0  0
 42113  1  0  0  0
 43 44  1  0  0  0
 44114  1  0  0  0
 45 46  2  0  0  0
 45115  1  0  0  0
 46116  1  0  0  0
 47117  1  0  0  0
 47118  1  0  0  0
 48 56  1  0  0  0
 48 65  1  0  0  0
 48119  1  0  0  0
 49 50  1  0  0  0
 49 53  1  0  0  0
 49 64  1  0  0  0
 49120  1  0  0  0
 50 51  1  0  0  0
 50121  1  0  0  0
 50122  1  0  0  0
 51 52  1  0  0  0
 51123  1  0  0  0
 51124  1  0  0  0
 52125  1  0  0  0
 52126  1  0  0  0
 53 54  1  0  0  0
 54 55  2  0  0  0
 54127  1  0  0  0
 55 57  1  0  0  0
 55128  1  0  0  0
 56 69  2  0  0  0
 57 58  2  0  0  0
 57129  1  0  0  0
 58130  1  0  0  0
 59 60  1  0  0  0
 59 61  1  0  0  0
 59 62  1  0  0  0
 60131  1  0  0  0
 60132  1  0  0  0
 60133  1  0  0  0
 61134  1  0  0  0
 61135  1  0  0  0
 61136  1  0  0  0
 62137  1  0  0  0
 62138  1  0  0  0
 62139  1  0  0  0
 63 65  1  0  0  0
 63140  1  0  0  0
 63141  1  0  0  0
 63142  1  0  0  0
 64143  1  0  0  0
 65144  1  0  0  0
 68 80  1  0  0  0
 71 72  2  0  0  0
 71 74  1  0  0  0
 71145  1  0  0  0
 72 75  1  0  0  0
 72146  1  0  0  0
 73 75  2  0  0  0
 73 76  1  0  0  0
 73147  1  0  0  0
 74 76  2  0  0  0
 74 77  1  0  0  0
 75 81  1  0  0  0
 76 85  1  0  0  0
 77 82  1  0  0  0
 77 83  2  0  0  0
 78 79  1  0  0  0
 78 80  1  0  0  0
 78 84  2  0  0  0
 79 81  1  0  0  0
 79148  1  0  0  0
 79149  1  0  0  0
 80150  1  0  0  0
 80151  1  0  0  0
 81152  1  0  0  0
 82153  1  0  0  0
M  ISO  4   1 100  68 101  80 101  82 100
M  END
> <chiral flag>
0

> <version>
0

> <s_m_source_file>
/data/baiqing/PycharmProjects/Reinvent-master-3.2/result/LINK_invent/BTK/process_docking_weight1_custom_product_contain_oxygen_bond_distance_aromatic_linkinvent_7_9_3/rearranged_h_0096.sdf

> <i_m_source_file_index>
31

> <r_mmod_Potential_Energy-OPLS-2005>
-38.5972290039062

> <r_mmod_Stretch_Energy-OPLS-2005>
38.5323753356934

> <r_mmod_Bend_Energy-OPLS-2005>
104.814590454102

> <r_mmod_Torsional_Energy-OPLS-2005>
253.066925048828

> <r_mmod_Improper_Torsional_Energy-OPLS-2005>
5.61951780319214

> <r_mmod_Van_der_Waal_Energy-OPLS-2005>
160.204635620117

> <r_mmod_Electrostatic_Energy-OPLS-2005>
-377.959106445312

> <r_mmod_Solvation_Energy-OPLS-2005>
-235.68571472168

> <b_mmod_Minimization_Converged-OPLS-2005>
0

> <r_mmod_RMS_Derivative-OPLS-2005>
3.41535592079163

$$$$
31
                    3D
 Structure written by MMmdl.
157165  0  0  1  0            999 V2000
  -30.7323  -14.5180   20.5142 C   0  0  0  0  0  0
  -30.4112  -12.3258   19.4272 C   0  0  0  0  0  0
  -29.4900  -12.4669   18.2007 C   0  0  0  0  0  0
  -28.0174  -12.3277   18.6251 C   0  0  0  0  0  0
  -27.6525  -13.2127   19.8475 C   0  0  2  0  0  0
  -28.6979  -13.0884   20.9756 C   0  0  0  0  0  0
  -25.2561  -13.8190   20.5645 C   0  0  0  0  0  0
  -24.1815  -13.0476   20.9212 C   0  0  0  0  0  0
  -24.6399  -11.6940   20.8805 C   0  0  0  0  0  0
  -23.9061  -10.4325   21.0456 C   0  0  0  0  0  0
  -24.3624   -9.4228   21.9210 C   0  0  0  0  0  0
  -23.6298   -8.2258   22.0769 C   0  0  0  0  0  0
  -22.4274   -8.0307   21.3553 C   0  0  0  0  0  0
  -21.9914   -9.0298   20.4647 C   0  0  0  0  0  0
  -22.7257  -10.2177   20.3073 C   0  0  0  0  0  0
  -21.6875   -6.0744   22.5283 C   0  0  0  0  0  0
  -21.4005   -6.5638   23.8213 C   0  0  0  0  0  0
  -21.3658   -5.6791   24.9170 C   0  0  0  0  0  0
  -21.6045   -4.3061   24.7234 C   0  0  0  0  0  0
  -21.8813   -3.8155   23.4362 C   0  0  0  0  0  0
  -21.9184   -4.6961   22.3408 C   0  0  0  0  0  0
  -22.7831  -13.5269   21.1896 C   0  0  0  0  0  0
  -22.1661   -4.2156   21.0990 F   0  0  0  0  0  0
  -21.5640   -3.4530   25.7748 F   0  0  0  0  0  0
  -30.0138  -13.3670   20.3865 N   0  0  0  0  0  0
  -26.2982  -12.9367   20.3245 N   0  0  0  0  0  0
  -25.9328  -11.6549   20.5760 N   0  0  0  0  0  0
  -22.0444  -12.8262   22.0435 N   0  0  0  0  0  0
  -25.4239  -15.1905   20.3958 N   0  0  0  0  0  0
  -31.9290  -14.5589   20.2135 O   0  0  0  0  0  0
  -21.6653   -6.8902   21.4252 O   0  0  0  0  0  0
  -22.3513  -14.5611   20.6800 O   0  0  0  0  0  0
  -24.6153  -31.8632   23.2088 C   0  0  0  0  0  0
  -25.9078  -32.4736   23.8341 C   0  0  1  0  0  0
  -27.2225  -27.4132   20.0703 C   0  0  0  0  0  0
  -25.5966  -33.8543   24.2275 N   0  0  0  0  0  0
  -23.4015  -30.4873   21.5517 C   0  0  2  0  0  0
  -24.8396  -28.9486   20.1133 C   0  0  0  0  0  0
  -22.7400  -29.4652   22.5004 C   0  0  0  0  0  0
  -18.0289  -28.1363   22.8501 C   0  0  0  0  0  0
  -24.1528  -36.7299   23.2637 C   0  0  0  0  0  0
  -25.9332  -30.8158   21.3685 C   0  0  0  0  0  0
  -25.9999  -29.4496   20.7129 C   0  0  0  0  0  0
  -27.1896  -28.6867   20.6947 C   0  0  0  0  0  0
  -26.0361  -26.9221   19.4830 C   0  0  0  0  0  0
  -24.8485  -27.6849   19.5021 C   0  0  0  0  0  0
  -23.6033  -29.8180   20.1676 C   0  0  0  0  0  0
  -25.4141  -36.3032   24.0299 C   0  0  1  0  0  0
  -20.5872  -28.3682   23.1312 C   0  0  2  0  0  0
  -20.6802  -26.9428   22.5402 C   0  0  0  0  0  0
  -19.5788  -26.6399   21.5199 C   0  0  0  0  0  0
  -18.1952  -26.7926   22.1606 C   0  0  0  0  0  0
  -19.1530  -28.8839   23.2915 C   0  0  0  0  0  0
  -18.9449  -30.1439   23.8935 C   0  0  0  0  0  0
  -17.6446  -30.6567   24.0580 C   0  0  0  0  0  0
  -25.9066  -34.9398   23.5074 C   0  0  0  0  0  0
  -16.5343  -29.9062   23.6348 C   0  0  0  0  0  0
  -16.7282  -28.6474   23.0398 C   0  0  0  0  0  0
  -26.4568  -31.6501   25.0659 C   0  0  0  0  0  0
  -25.3901  -31.3601   26.1463 C   0  0  0  0  0  0
  -27.0393  -30.2935   24.6017 C   0  0  0  0  0  0
  -27.6103  -32.4231   25.7491 C   0  0  0  0  0  0
  -27.5593  -37.1798   24.8471 C   0  0  0  0  0  0
  -21.4125  -29.3054   22.3721 N   0  0  0  0  0  0
  -26.4312  -37.3715   23.9391 N   0  0  0  0  0  0
  -24.6677  -31.0741   22.0997 N   0  0  0  0  0  0
  -23.4179  -28.8209   23.3067 O   0  0  0  0  0  0
  -28.3920  -26.6708   20.0973 O   0  0  0  0  0  0
  -26.5607  -34.8872   22.4620 O   0  0  0  0  0  0
  -23.5342  -32.1387   23.7492 O   0  0  0  0  0  0
  -28.8206  -20.3269   20.7301 C   0  0  0  0  0  0
  -29.7957  -19.7419   18.5945 C   0  0  0  0  0  0
  -29.9116  -18.1240   20.4473 C   0  0  0  0  0  0
  -29.2034  -19.0597   21.2571 C   0  0  0  0  0  0
  -29.1365  -20.6981   19.4006 C   0  0  0  0  0  0
  -30.1782  -18.4821   19.1056 C   0  0  0  0  0  0
  -30.5538  -16.8659   21.0073 C   0  0  0  0  0  0
  -28.8404  -18.7278   22.6996 C   0  0  0  0  0  0
  -29.2399  -24.3676   19.4420 C   0  0  0  0  0  0
  -28.2574  -23.1535   19.4481 C   0  0  0  0  0  0
  -28.6908  -25.7667   19.0119 C   0  0  0  0  0  0
  -28.8395  -21.9512   18.8130 N   0  0  0  0  0  0
  -30.0222  -15.6597   20.6928 N   0  0  0  0  0  0
  -31.5597  -16.9954   21.7141 O   0  0  0  0  0  0
  -30.8640  -17.6377   18.2960 F   0  0  0  0  0  0
  -31.4606  -12.4005   19.1271 H   0  0  0  0  0  0
  -30.2943  -11.3386   19.8750 H   0  0  0  0  0  0
  -29.7378  -11.7019   17.4632 H   0  0  0  0  0  0
  -29.6520  -13.4302   17.7139 H   0  0  0  0  0  0
  -27.8519  -11.2777   18.8672 H   0  0  0  0  0  0
  -27.3591  -12.5528   17.7851 H   0  0  0  0  0  0
  -27.6738  -14.2435   19.4966 H   0  0  0  0  0  0
  -28.6891  -12.0915   21.4187 H   0  0  0  0  0  0
  -28.4717  -13.7874   21.7818 H   0  0  0  0  0  0
  -25.2777   -9.5699   22.4748 H   0  0  0  0  0  0
  -24.0036   -7.4645   22.7455 H   0  0  0  0  0  0
  -21.0863   -8.8825   19.8927 H   0  0  0  0  0  0
  -22.3751  -10.9725   19.6160 H   0  0  0  0  0  0
  -21.1991   -7.6142   23.9733 H   0  0  0  0  0  0
  -21.1481   -6.0511   25.9086 H   0  0  0  0  0  0
  -22.0591   -2.7611   23.2858 H   0  0  0  0  0  0
  -22.4086  -11.9930   22.4815 H   0  0  0  0  0  0
  -21.1046  -13.1246   22.2624 H   0  0  0  0  0  0
  -24.6455  -15.8328   20.4809 H   0  0  0  0  0  0
  -26.2513  -15.6264   20.0107 H   0  0  0  0  0  0
  -26.7113  -32.5404   23.1067 H   0  0  0  0  0  0
  -25.0241  -33.9663   25.0503 H   0  0  0  0  0  0
  -22.6890  -31.3028   21.4122 H   0  0  0  0  0  0
  -23.3720  -35.9701   23.3289 H   0  0  0  0  0  0
  -24.3693  -36.8939   22.2071 H   0  0  0  0  0  0
  -23.7345  -37.6515   23.6695 H   0  0  0  0  0  0
  -26.0534  -31.5887   20.6086 H   0  0  0  0  0  0
  -26.8188  -30.8565   21.9925 H   0  0  0  0  0  0
  -28.0847  -29.0752   21.1545 H   0  0  0  0  0  0
  -25.9923  -25.9401   19.0357 H   0  0  0  0  0  0
  -23.9444  -27.2899   19.0571 H   0  0  0  0  0  0
  -23.7075  -30.5926   19.4081 H   0  0  0  0  0  0
  -22.7265  -29.2373   19.8745 H   0  0  0  0  0  0
  -25.1306  -36.1871   25.0771 H   0  0  0  0  0  0
  -20.9963  -28.3249   24.1429 H   0  0  0  0  0  0
  -20.5781  -26.2276   23.3599 H   0  0  0  0  0  0
  -21.6664  -26.7547   22.1149 H   0  0  0  0  0  0
  -19.6995  -25.6324   21.1201 H   0  0  0  0  0  0
  -19.6712  -27.3218   20.6741 H   0  0  0  0  0  0
  -17.4257  -26.6714   21.3988 H   0  0  0  0  0  0
  -18.0359  -26.0033   22.8960 H   0  0  0  0  0  0
  -19.7928  -30.7245   24.2326 H   0  0  0  0  0  0
  -17.5001  -31.6257   24.5167 H   0  0  0  0  0  0
  -15.5336  -30.2985   23.7613 H   0  0  0  0  0  0
  -15.8691  -28.0747   22.7155 H   0  0  0  0  0  0
  -24.6083  -30.6911   25.7877 H   0  0  0  0  0  0
  -24.9145  -32.2759   26.4946 H   0  0  0  0  0  0
  -25.8347  -30.8805   27.0191 H   0  0  0  0  0  0
  -26.2890  -29.6688   24.1165 H   0  0  0  0  0  0
  -27.4287  -29.7170   25.4427 H   0  0  0  0  0  0
  -27.8685  -30.4248   23.9056 H   0  0  0  0  0  0
  -27.2649  -33.3490   26.2098 H   0  0  0  0  0  0
  -28.3951  -32.6817   25.0367 H   0  0  0  0  0  0
  -28.0733  -31.8339   26.5426 H   0  0  0  0  0  0
  -28.2541  -38.0149   24.7478 H   0  0  0  0  0  0
  -28.1119  -36.2652   24.6292 H   0  0  0  0  0  0
  -27.2331  -37.1444   25.8880 H   0  0  0  0  0  0
  -20.9319  -29.8703   21.6861 H   0  0  0  0  0  0
  -26.0160  -38.2763   24.1386 H   0  0  0  0  0  0
  -28.2866  -21.0159   21.3689 H   0  0  0  0  0  0
  -30.0477  -19.9714   17.5674 H   0  0  0  0  0  0
  -29.7262  -18.7382   23.3370 H   0  0  0  0  0  0
  -28.1170  -19.4433   23.0992 H   0  0  0  0  0  0
  -28.3851  -17.7385   22.7726 H   0  0  0  0  0  0
  -30.0367  -24.1372   18.7336 H   0  0  0  0  0  0
  -29.7456  -24.4529   20.4010 H   0  0  0  0  0  0
  -27.3740  -23.4210   18.8649 H   0  0  0  0  0  0
  -27.8837  -22.9599   20.4557 H   0  0  0  0  0  0
  -27.9227  -25.6687   18.2481 H   0  0  0  0  0  0
  -29.4994  -26.2716   18.4760 H   0  0  0  0  0  0
  -29.0665  -22.0468   17.8244 H   0  0  0  0  0  0
  -29.0512  -15.6388   20.4375 H   0  0  0  0  0  0
  1 25  1  0  0  0
  1 30  2  0  0  0
  1 83  1  0  0  0
  2  3  1  0  0  0
  2 25  1  0  0  0
  2 86  1  0  0  0
  2 87  1  0  0  0
  3  4  1  0  0  0
  3 88  1  0  0  0
  3 89  1  0  0  0
  4  5  1  0  0  0
  4 90  1  0  0  0
  4 91  1  0  0  0
  5  6  1  0  0  0
  5 26  1  0  0  0
  5 92  1  0  0  0
  6 25  1  0  0  0
  6 93  1  0  0  0
  6 94  1  0  0  0
  7  8  2  0  0  0
  7 26  1  0  0  0
  7 29  1  0  0  0
  8  9  1  0  0  0
  8 22  1  0  0  0
  9 10  1  0  0  0
  9 27  2  0  0  0
 10 11  2  0  0  0
 10 15  1  0  0  0
 11 12  1  0  0  0
 11 95  1  0  0  0
 12 13  2  0  0  0
 12 96  1  0  0  0
 13 14  1  0  0  0
 13 31  1  0  0  0
 14 15  2  0  0  0
 14 97  1  0  0  0
 15 98  1  0  0  0
 16 17  2  0  0  0
 16 21  1  0  0  0
 16 31  1  0  0  0
 17 18  1  0  0  0
 17 99  1  0  0  0
 18 19  2  0  0  0
 18100  1  0  0  0
 19 20  1  0  0  0
 19 24  1  0  0  0
 20 21  2  0  0  0
 20101  1  0  0  0
 21 23  1  0  0  0
 22 28  1  0  0  0
 22 32  2  0  0  0
 26 27  1  0  0  0
 28102  1  0  0  0
 28103  1  0  0  0
 29104  1  0  0  0
 29105  1  0  0  0
 33 34  1  0  0  0
 33 66  1  0  0  0
 33 70  2  0  0  0
 34 36  1  0  0  0
 34 59  1  0  0  0
 34106  1  0  0  0
 35 44  2  0  0  0
 35 45  1  0  0  0
 35 68  1  0  0  0
 36 56  1  0  0  0
 36107  1  0  0  0
 37 39  1  0  0  0
 37 47  1  0  0  0
 37 66  1  0  0  0
 37108  1  0  0  0
 38 43  2  0  0  0
 38 46  1  0  0  0
 38 47  1  0  0  0
 39 64  1  0  0  0
 39 67  2  0  0  0
 40 52  1  0  0  0
 40 53  2  0  0  0
 40 58  1  0  0  0
 41109  1  0  0  0
 41110  1  0  0  0
 41111  1  0  0  0
 41 48  1  0  0  0
 42 43  1  0  0  0
 42 66  1  0  0  0
 42112  1  0  0  0
 42113  1  0  0  0
 43 44  1  0  0  0
 44114  1  0  0  0
 45 46  2  0  0  0
 45115  1  0  0  0
 46116  1  0  0  0
 47117  1  0  0  0
 47118  1  0  0  0
 48 56  1  0  0  0
 48 65  1  0  0  0
 48119  1  0  0  0
 49 50  1  0  0  0
 49 53  1  0  0  0
 49 64  1  0  0  0
 49120  1  0  0  0
 50 51  1  0  0  0
 50121  1  0  0  0
 50122  1  0  0  0
 51 52  1  0  0  0
 51123  1  0  0  0
 51124  1  0  0  0
 52125  1  0  0  0
 52126  1  0  0  0
 53 54  1  0  0  0
 54 55  2  0  0  0
 54127  1  0  0  0
 55 57  1  0  0  0
 55128  1  0  0  0
 56 69  2  0  0  0
 57 58  2  0  0  0
 57129  1  0  0  0
 58130  1  0  0  0
 59 60  1  0  0  0
 59 61  1  0  0  0
 59 62  1  0  0  0
 60131  1  0  0  0
 60132  1  0  0  0
 60133  1  0  0  0
 61134  1  0  0  0
 61135  1  0  0  0
 61136  1  0  0  0
 62137  1  0  0  0
 62138  1  0  0  0
 62139  1  0  0  0
 63 65  1  0  0  0
 63140  1  0  0  0
 63141  1  0  0  0
 63142  1  0  0  0
 64143  1  0  0  0
 65144  1  0  0  0
 68 81  1  0  0  0
 71 74  2  0  0  0
 71 75  1  0  0  0
 71145  1  0  0  0
 72 75  2  0  0  0
 72 76  1  0  0  0
 72146  1  0  0  0
 73 74  1  0  0  0
 73 76  2  0  0  0
 73 77  1  0  0  0
 74 78  1  0  0  0
 75 82  1  0  0  0
 76 85  1  0  0  0
 77 83  1  0  0  0
 77 84  2  0  0  0
 78147  1  0  0  0
 78148  1  0  0  0
 78149  1  0  0  0
 79 80  1  0  0  0
 79 81  1  0  0  0
 79150  1  0  0  0
 79151  1  0  0  0
 80 82  1  0  0  0
 80152  1  0  0  0
 80153  1  0  0  0
 81154  1  0  0  0
 81155  1  0  0  0
 82156  1  0  0  0
 83157  1  0  0  0
M  ISO  4   1 100  68 101  81 101  83 100
M  END
> <chiral flag>
0

> <version>
0

> <s_m_source_file>
/data/baiqing/PycharmProjects/Reinvent-master-3.2/result/LINK_invent/BTK/process_docking_weight1_custom_product_contain_oxygen_bond_distance_aromatic_linkinvent_7_9_3/rearranged_h_0096.sdf

> <i_m_source_file_index>
32

> <r_mmod_Potential_Energy-OPLS-2005>
66.7333297729492

> <r_mmod_Stretch_Energy-OPLS-2005>
44.8396148681641

> <r_mmod_Bend_Energy-OPLS-2005>
133.952117919922

> <r_mmod_Torsional_Energy-OPLS-2005>
278.133758544922

> <r_mmod_Improper_Torsional_Energy-OPLS-2005>
8.34361171722412

> <r_mmod_Van_der_Waal_Energy-OPLS-2005>
154.715667724609

> <r_mmod_Electrostatic_Energy-OPLS-2005>
-351.805847167969

> <r_mmod_Solvation_Energy-OPLS-2005>
-229.209014892578

> <b_mmod_Minimization_Converged-OPLS-2005>
0

> <r_mmod_RMS_Derivative-OPLS-2005>
6.00988912582397

$$$$
32
                    3D
 Structure written by MMmdl.
167176  0  0  1  0            999 V2000
  -30.7268  -14.4511   20.5023 C   0  0  0  0  0  0
  -30.4010  -12.2645   19.4462 C   0  0  0  0  0  0
  -29.4996  -12.4965   18.2142 C   0  0  0  0  0  0
  -28.0109  -12.4003   18.6037 C   0  0  0  0  0  0
  -27.6582  -13.2226   19.8724 C   0  0  2  0  0  0
  -28.7002  -13.0287   21.0014 C   0  0  0  0  0  0
  -25.2552  -13.8221   20.5626 C   0  0  0  0  0  0
  -24.1830  -13.0474   20.9127 C   0  0  0  0  0  0
  -24.6413  -11.6951   20.8684 C   0  0  0  0  0  0
  -23.9105  -10.4327   21.0362 C   0  0  0  0  0  0
  -24.3667   -9.4264   21.9148 C   0  0  0  0  0  0
  -23.6351   -8.2274   22.0720 C   0  0  0  0  0  0
  -22.4329   -8.0302   21.3511 C   0  0  0  0  0  0
  -21.9962   -9.0261   20.4590 C   0  0  0  0  0  0
  -22.7288  -10.2138   20.3003 C   0  0  0  0  0  0
  -21.6866   -6.0749   22.5257 C   0  0  0  0  0  0
  -21.4009   -6.5648   23.8183 C   0  0  0  0  0  0
  -21.3665   -5.6793   24.9141 C   0  0  0  0  0  0
  -21.6062   -4.3055   24.7186 C   0  0  0  0  0  0
  -21.8840   -3.8152   23.4308 C   0  0  0  0  0  0
  -21.9201   -4.6979   22.3376 C   0  0  0  0  0  0
  -22.7841  -13.5212   21.1813 C   0  0  0  0  0  0
  -22.1670   -4.2168   21.0951 F   0  0  0  0  0  0
  -21.5657   -3.4538   25.7691 F   0  0  0  0  0  0
  -30.0389  -13.2804   20.4453 N   0  0  0  0  0  0
  -26.3012  -12.9402   20.3324 N   0  0  0  0  0  0
  -25.9344  -11.6562   20.5727 N   0  0  0  0  0  0
  -22.0529  -12.8154   22.0356 N   0  0  0  0  0  0
  -25.4270  -15.1923   20.4056 N   0  0  0  0  0  0
  -31.8904  -14.5668   20.1188 O   0  0  0  0  0  0
  -21.6679   -6.8910   21.4227 O   0  0  0  0  0  0
  -22.3508  -14.5520   20.6690 O   0  0  0  0  0  0
  -24.6109  -31.8691   23.2120 C   0  0  0  0  0  0
  -25.8993  -32.4849   23.8428 C   0  0  1  0  0  0
  -27.2376  -27.4353   20.1264 C   0  0  0  0  0  0
  -25.5879  -33.8645   24.2366 N   0  0  0  0  0  0
  -23.4006  -30.4914   21.5511 C   0  0  2  0  0  0
  -24.8493  -28.9601   20.1167 C   0  0  0  0  0  0
  -22.7402  -29.4659   22.4988 C   0  0  0  0  0  0
  -18.0269  -28.1355   22.8477 C   0  0  0  0  0  0
  -24.1476  -36.7291   23.2652 C   0  0  0  0  0  0
  -25.9258  -30.8456   21.3573 C   0  0  0  0  0  0
  -26.0086  -29.4799   20.7046 C   0  0  0  0  0  0
  -27.2067  -28.7295   20.6971 C   0  0  0  0  0  0
  -26.0579  -26.9360   19.5198 C   0  0  0  0  0  0
  -24.8680  -27.6888   19.5185 C   0  0  0  0  0  0
  -23.6095  -29.8236   20.1664 C   0  0  0  0  0  0
  -25.4105  -36.3127   24.0358 C   0  0  1  0  0  0
  -20.5852  -28.3635   23.1308 C   0  0  2  0  0  0
  -20.6743  -26.9367   22.5418 C   0  0  0  0  0  0
  -19.5754  -26.6343   21.5192 C   0  0  0  0  0  0
  -18.1919  -26.7918   22.1573 C   0  0  0  0  0  0
  -19.1516  -28.8807   23.2889 C   0  0  0  0  0  0
  -18.9444  -30.1415   23.8891 C   0  0  0  0  0  0
  -17.6456  -30.6563   24.0544 C   0  0  0  0  0  0
  -25.9024  -34.9492   23.5157 C   0  0  0  0  0  0
  -16.5345  -29.9053   23.6334 C   0  0  0  0  0  0
  -16.7264  -28.6469   23.0361 C   0  0  0  0  0  0
  -26.4402  -31.6626   25.0752 C   0  0  0  0  0  0
  -25.3647  -31.3705   26.1479 C   0  0  0  0  0  0
  -27.0254  -30.3106   24.6082 C   0  0  0  0  0  0
  -27.5981  -32.4330   25.7542 C   0  0  0  0  0  0
  -27.5579  -37.1816   24.8471 C   0  0  0  0  0  0
  -21.4125  -29.3009   22.3733 N   0  0  0  0  0  0
  -26.4292  -37.3807   23.9419 N   0  0  0  0  0  0
  -24.6648  -31.0808   22.1013 N   0  0  0  0  0  0
  -23.4178  -28.8196   23.3029 O   0  0  0  0  0  0
  -28.4003  -26.6878   20.2051 O   0  0  0  0  0  0
  -26.5561  -34.8928   22.4709 O   0  0  0  0  0  0
  -23.5291  -32.1439   23.7506 O   0  0  0  0  0  0
  -31.4569  -18.8234   20.2062 C   0  0  0  0  0  0
  -31.5187  -20.1990   20.5110 C   0  0  0  0  0  0
  -29.2910  -20.0854   21.4595 C   0  0  0  0  0  0
  -30.2882  -18.0780   20.4737 C   0  0  0  0  0  0
  -30.4028  -20.8782   21.0665 C   0  0  0  0  0  0
  -29.2351  -18.7021   21.1789 C   0  0  0  0  0  0
  -31.2983  -23.2198   20.8549 C   0  0  0  0  0  0
  -30.7414  -24.6175   20.6227 C   0  0  0  0  0  0
  -29.0419  -23.0177   21.2657 C   0  0  0  0  0  0
  -29.3139  -24.5374   21.1589 C   0  0  2  0  0  0
  -27.5797  -17.9714   17.0316 C   0  0  0  0  0  0
  -28.2303  -25.2634   20.3205 C   0  0  0  0  0  0
  -28.8918  -17.9100   17.8182 C   0  0  0  0  0  0
  -28.9107  -16.7300   18.8061 C   0  0  0  0  0  0
  -30.1039  -16.7174   19.7916 C   0  0  2  0  0  0
  -30.3284  -22.3232   21.1411 N   0  0  0  0  0  0
  -29.9659  -15.5450   20.6718 N   0  0  0  0  0  0
  -32.5158  -23.0107   20.8125 O   0  0  0  0  0  0
  -28.1229  -17.9998   21.4993 F   0  0  0  0  0  0
  -31.4568  -12.3067   19.1704 H   0  0  0  0  0  0
  -30.2391  -11.2643   19.8512 H   0  0  0  0  0  0
  -29.7256  -11.7661   17.4354 H   0  0  0  0  0  0
  -29.7057  -13.4781   17.7854 H   0  0  0  0  0  0
  -27.7687  -11.3493   18.7583 H   0  0  0  0  0  0
  -27.3887  -12.7376   17.7717 H   0  0  0  0  0  0
  -27.6850  -14.2680   19.5739 H   0  0  0  0  0  0
  -28.6484  -12.0160   21.3982 H   0  0  0  0  0  0
  -28.4837  -13.6882   21.8451 H   0  0  0  0  0  0
  -25.2810   -9.5762   22.4723 H   0  0  0  0  0  0
  -24.0063   -7.4678   22.7462 H   0  0  0  0  0  0
  -21.0887   -8.8814   19.8880 H   0  0  0  0  0  0
  -22.3785  -10.9681   19.6114 H   0  0  0  0  0  0
  -21.1977   -7.6156   23.9683 H   0  0  0  0  0  0
  -21.1471   -6.0505   25.9035 H   0  0  0  0  0  0
  -22.0607   -2.7623   23.2766 H   0  0  0  0  0  0
  -22.4208  -11.9822   22.4705 H   0  0  0  0  0  0
  -21.1123  -13.1108   22.2591 H   0  0  0  0  0  0
  -24.6651  -15.8544   20.4950 H   0  0  0  0  0  0
  -26.2959  -15.6274   20.1210 H   0  0  0  0  0  0
  -26.7076  -32.5565   23.1209 H   0  0  0  0  0  0
  -25.0101  -33.9823   25.0555 H   0  0  0  0  0  0
  -22.6889  -31.3081   21.4107 H   0  0  0  0  0  0
  -23.3780  -35.9584   23.3327 H   0  0  0  0  0  0
  -24.3564  -36.8885   22.2063 H   0  0  0  0  0  0
  -23.7160  -37.6477   23.6636 H   0  0  0  0  0  0
  -26.0228  -31.6146   20.5894 H   0  0  0  0  0  0
  -26.8181  -30.9046   21.9702 H   0  0  0  0  0  0
  -28.0993  -29.1269   21.1602 H   0  0  0  0  0  0
  -26.0413  -25.9560   19.0635 H   0  0  0  0  0  0
  -23.9712  -27.2823   19.0708 H   0  0  0  0  0  0
  -23.7140  -30.5974   19.4048 H   0  0  0  0  0  0
  -22.7386  -29.2346   19.8733 H   0  0  0  0  0  0
  -25.1277  -36.2010   25.0846 H   0  0  0  0  0  0
  -20.9922  -28.3170   24.1438 H   0  0  0  0  0  0
  -20.5577  -26.2244   23.3599 H   0  0  0  0  0  0
  -21.6626  -26.7379   22.1245 H   0  0  0  0  0  0
  -19.6904  -25.6240   21.1252 H   0  0  0  0  0  0
  -19.6741  -27.3110   20.6697 H   0  0  0  0  0  0
  -17.4214  -26.6705   21.3943 H   0  0  0  0  0  0
  -18.0297  -26.0022   22.8917 H   0  0  0  0  0  0
  -19.7925  -30.7209   24.2259 H   0  0  0  0  0  0
  -17.5027  -31.6252   24.5140 H   0  0  0  0  0  0
  -15.5343  -30.2955   23.7679 H   0  0  0  0  0  0
  -15.8666  -28.0781   22.7099 H   0  0  0  0  0  0
  -24.5873  -30.6996   25.7797 H   0  0  0  0  0  0
  -24.8745  -32.2832   26.4887 H   0  0  0  0  0  0
  -25.7971  -30.8916   27.0273 H   0  0  0  0  0  0
  -26.2818  -29.6911   24.1060 H   0  0  0  0  0  0
  -27.3992  -29.7283   25.4507 H   0  0  0  0  0  0
  -27.8637  -30.4493   23.9260 H   0  0  0  0  0  0
  -27.2615  -33.3635   26.2126 H   0  0  0  0  0  0
  -28.3813  -32.6877   25.0392 H   0  0  0  0  0  0
  -28.0616  -31.8439   26.5462 H   0  0  0  0  0  0
  -28.2599  -38.0115   24.7539 H   0  0  0  0  0  0
  -28.1069  -36.2647   24.6276 H   0  0  0  0  0  0
  -27.2298  -37.1434   25.8873 H   0  0  0  0  0  0
  -20.9271  -29.8747   21.6975 H   0  0  0  0  0  0
  -26.0195  -38.2891   24.1424 H   0  0  0  0  0  0
  -32.2837  -18.3713   19.6779 H   0  0  0  0  0  0
  -32.4166  -20.7191   20.2123 H   0  0  0  0  0  0
  -28.4237  -20.5289   21.9243 H   0  0  0  0  0  0
  -30.7601  -24.8317   19.5539 H   0  0  0  0  0  0
  -31.3399  -25.3688   21.1394 H   0  0  0  0  0  0
  -28.3954  -22.6838   20.4521 H   0  0  0  0  0  0
  -28.5427  -22.7790   22.2059 H   0  0  0  0  0  0
  -29.3156  -24.9577   22.1671 H   0  0  0  0  0  0
  -27.6190  -18.7449   16.2655 H   0  0  0  0  0  0
  -26.7454  -18.2020   17.6958 H   0  0  0  0  0  0
  -27.3637  -17.0226   16.5384 H   0  0  0  0  0  0
  -27.2802  -25.0370   20.8091 H   0  0  0  0  0  0
  -28.1832  -24.8376   19.3178 H   0  0  0  0  0  0
  -29.0142  -18.8593   18.3395 H   0  0  0  0  0  0
  -29.7368  -17.8279   17.1345 H   0  0  0  0  0  0
  -28.9026  -15.8024   18.2346 H   0  0  0  0  0  0
  -27.9785  -16.7378   19.3723 H   0  0  0  0  0  0
  -30.9820  -16.5917   19.1540 H   0  0  0  0  0  0
  -29.0477  -15.3882   21.0575 H   0  0  0  0  0  0
  1 25  1  0  0  0
  1 30  2  0  0  0
  1 87  1  0  0  0
  2  3  1  0  0  0
  2 25  1  0  0  0
  2 90  1  0  0  0
  2 91  1  0  0  0
  3  4  1  0  0  0
  3 92  1  0  0  0
  3 93  1  0  0  0
  4  5  1  0  0  0
  4 94  1  0  0  0
  4 95  1  0  0  0
  5  6  1  0  0  0
  5 26  1  0  0  0
  5 96  1  0  0  0
  6 25  1  0  0  0
  6 97  1  0  0  0
  6 98  1  0  0  0
  7  8  2  0  0  0
  7 26  1  0  0  0
  7 29  1  0  0  0
  8  9  1  0  0  0
  8 22  1  0  0  0
  9 10  1  0  0  0
  9 27  2  0  0  0
 10 11  2  0  0  0
 10 15  1  0  0  0
 11 12  1  0  0  0
 11 99  1  0  0  0
 12 13  2  0  0  0
 12100  1  0  0  0
 13 14  1  0  0  0
 13 31  1  0  0  0
 14 15  2  0  0  0
 14101  1  0  0  0
 15102  1  0  0  0
 16 17  2  0  0  0
 16 21  1  0  0  0
 16 31  1  0  0  0
 17 18  1  0  0  0
 17103  1  0  0  0
 18 19  2  0  0  0
 18104  1  0  0  0
 19 20  1  0  0  0
 19 24  1  0  0  0
 20 21  2  0  0  0
 20105  1  0  0  0
 21 23  1  0  0  0
 22 28  1  0  0  0
 22 32  2  0  0  0
 26 27  1  0  0  0
 28106  1  0  0  0
 28107  1  0  0  0
 29108  1  0  0  0
 29109  1  0  0  0
 33 34  1  0  0  0
 33 66  1  0  0  0
 33 70  2  0  0  0
 34 36  1  0  0  0
 34 59  1  0  0  0
 34110  1  0  0  0
 35 44  2  0  0  0
 35 45  1  0  0  0
 35 68  1  0  0  0
 36 56  1  0  0  0
 36111  1  0  0  0
 37 39  1  0  0  0
 37 47  1  0  0  0
 37 66  1  0  0  0
 37112  1  0  0  0
 38 43  2  0  0  0
 38 46  1  0  0  0
 38 47  1  0  0  0
 39 64  1  0  0  0
 39 67  2  0  0  0
 40 52  1  0  0  0
 40 53  2  0  0  0
 40 58  1  0  0  0
 41113  1  0  0  0
 41114  1  0  0  0
 41115  1  0  0  0
 41 48  1  0  0  0
 42 43  1  0  0  0
 42 66  1  0  0  0
 42116  1  0  0  0
 42117  1  0  0  0
 43 44  1  0  0  0
 44118  1  0  0  0
 45 46  2  0  0  0
 45119  1  0  0  0
 46120  1  0  0  0
 47121  1  0  0  0
 47122  1  0  0  0
 48 56  1  0  0  0
 48 65  1  0  0  0
 48123  1  0  0  0
 49 50  1  0  0  0
 49 53  1  0  0  0
 49 64  1  0  0  0
 49124  1  0  0  0
 50 51  1  0  0  0
 50125  1  0  0  0
 50126  1  0  0  0
 51 52  1  0  0  0
 51127  1  0  0  0
 51128  1  0  0  0
 52129  1  0  0  0
 52130  1  0  0  0
 53 54  1  0  0  0
 54 55  2  0  0  0
 54131  1  0  0  0
 55 57  1  0  0  0
 55132  1  0  0  0
 56 69  2  0  0  0
 57 58  2  0  0  0
 57133  1  0  0  0
 58134  1  0  0  0
 59 60  1  0  0  0
 59 61  1  0  0  0
 59 62  1  0  0  0
 60135  1  0  0  0
 60136  1  0  0  0
 60137  1  0  0  0
 61138  1  0  0  0
 61139  1  0  0  0
 61140  1  0  0  0
 62141  1  0  0  0
 62142  1  0  0  0
 62143  1  0  0  0
 63 65  1  0  0  0
 63144  1  0  0  0
 63145  1  0  0  0
 63146  1  0  0  0
 64147  1  0  0  0
 65148  1  0  0  0
 68 82  1  0  0  0
 71 72  2  0  0  0
 71 74  1  0  0  0
 71149  1  0  0  0
 72 75  1  0  0  0
 72150  1  0  0  0
 73 75  2  0  0  0
 73 76  1  0  0  0
 73151  1  0  0  0
 74 76  2  0  0  0
 74 85  1  0  0  0
 75 86  1  0  0  0
 76 89  1  0  0  0
 77 78  1  0  0  0
 77 86  1  0  0  0
 77 88  2  0  0  0
 78 80  1  0  0  0
 78152  1  0  0  0
 78153  1  0  0  0
 79 80  1  0  0  0
 79 86  1  0  0  0
 79154  1  0  0  0
 79155  1  0  0  0
 80 82  1  0  0  0
 80156  1  0  0  0
 81 83  1  0  0  0
 81157  1  0  0  0
 81158  1  0  0  0
 81159  1  0  0  0
 82160  1  0  0  0
 82161  1  0  0  0
 83 84  1  0  0  0
 83162  1  0  0  0
 83163  1  0  0  0
 84164  1  0  0  0
 84165  1  0  0  0
 84 85  1  0  0  0
 85 87  1  0  0  0
 85166  1  0  0  0
 87167  1  0  0  0
M  ISO  4   1 100  68 101  82 101  87 100
M  END
> <chiral flag>
0

> <version>
0

> <s_m_source_file>
/data/baiqing/PycharmProjects/Reinvent-master-3.2/result/LINK_invent/BTK/process_docking_weight1_custom_product_contain_oxygen_bond_distance_aromatic_linkinvent_7_9_3/rearranged_h_0096.sdf

> <i_m_source_file_index>
33

> <r_mmod_Potential_Energy-OPLS-2005>
69.6119613647461

> <r_mmod_Stretch_Energy-OPLS-2005>
40.8195533752441

> <r_mmod_Bend_Energy-OPLS-2005>
124.881317138672

> <r_mmod_Torsional_Energy-OPLS-2005>
301.024353027344

> <r_mmod_Improper_Torsional_Energy-OPLS-2005>
13.4148187637329

> <r_mmod_Van_der_Waal_Energy-OPLS-2005>
156.868835449219

> <r_mmod_Electrostatic_Energy-OPLS-2005>
-375.401916503906

> <r_mmod_Solvation_Energy-OPLS-2005>
-210.543090820312

> <b_mmod_Minimization_Converged-OPLS-2005>
0

> <r_mmod_RMS_Derivative-OPLS-2005>
4.14021015167236

$$$$
33
                    3D
 Structure written by MMmdl.
164173  0  0  1  0            999 V2000
  -30.7275  -14.4408   20.6219 C   0  0  0  0  0  0
  -30.4197  -12.3093   19.4055 C   0  0  0  0  0  0
  -29.4860  -12.5140   18.1973 C   0  0  0  0  0  0
  -28.0098  -12.3685   18.6163 C   0  0  0  0  0  0
  -27.6616  -13.2063   19.8759 C   0  0  2  0  0  0
  -28.7042  -12.9728   20.9912 C   0  0  0  0  0  0
  -25.2586  -13.8166   20.5705 C   0  0  0  0  0  0
  -24.1830  -13.0432   20.9165 C   0  0  0  0  0  0
  -24.6392  -11.6905   20.8738 C   0  0  0  0  0  0
  -23.9070  -10.4288   21.0409 C   0  0  0  0  0  0
  -24.3621   -9.4202   21.9185 C   0  0  0  0  0  0
  -23.6293   -8.2240   22.0754 C   0  0  0  0  0  0
  -22.4275   -8.0282   21.3551 C   0  0  0  0  0  0
  -21.9912   -9.0256   20.4652 C   0  0  0  0  0  0
  -22.7241  -10.2134   20.3058 C   0  0  0  0  0  0
  -21.6849   -6.0747   22.5284 C   0  0  0  0  0  0
  -21.4011   -6.5643   23.8222 C   0  0  0  0  0  0
  -21.3660   -5.6792   24.9182 C   0  0  0  0  0  0
  -21.6045   -4.3056   24.7223 C   0  0  0  0  0  0
  -21.8819   -3.8152   23.4341 C   0  0  0  0  0  0
  -21.9189   -4.6975   22.3402 C   0  0  0  0  0  0
  -22.7850  -13.5232   21.1834 C   0  0  0  0  0  0
  -22.1662   -4.2165   21.0978 F   0  0  0  0  0  0
  -21.5628   -3.4537   25.7734 F   0  0  0  0  0  0
  -30.0360  -13.2824   20.4401 N   0  0  0  0  0  0
  -26.3028  -12.9338   20.3389 N   0  0  0  0  0  0
  -25.9315  -11.6496   20.5766 N   0  0  0  0  0  0
  -22.0494  -12.8225   22.0404 N   0  0  0  0  0  0
  -25.4299  -15.1889   20.4191 N   0  0  0  0  0  0
  -31.8015  -14.6656   20.0578 O   0  0  0  0  0  0
  -21.6629   -6.8888   21.4248 O   0  0  0  0  0  0
  -22.3528  -14.5544   20.6695 O   0  0  0  0  0  0
  -24.6151  -31.8667   23.2073 C   0  0  0  0  0  0
  -25.9043  -32.4812   23.8377 C   0  0  1  0  0  0
  -27.2399  -27.4187   20.0985 C   0  0  0  0  0  0
  -25.5914  -33.8602   24.2320 N   0  0  0  0  0  0
  -23.4039  -30.4902   21.5451 C   0  0  2  0  0  0
  -24.8500  -28.9476   20.1135 C   0  0  0  0  0  0
  -22.7414  -29.4658   22.4940 C   0  0  0  0  0  0
  -18.0273  -28.1373   22.8501 C   0  0  0  0  0  0
  -24.1501  -36.7307   23.2644 C   0  0  0  0  0  0
  -25.9318  -30.8289   21.3591 C   0  0  0  0  0  0
  -26.0088  -29.4602   20.7086 C   0  0  0  0  0  0
  -27.2010  -28.7009   20.6974 C   0  0  0  0  0  0
  -26.0590  -26.9166   19.5052 C   0  0  0  0  0  0
  -24.8712  -27.6764   19.5109 C   0  0  0  0  0  0
  -23.6134  -29.8186   20.1603 C   0  0  0  0  0  0
  -25.4126  -36.3098   24.0340 C   0  0  1  0  0  0
  -20.5870  -28.3662   23.1308 C   0  0  2  0  0  0
  -20.6765  -26.9394   22.5410 C   0  0  0  0  0  0
  -19.5744  -26.6384   21.5206 C   0  0  0  0  0  0
  -18.1923  -26.7925   22.1621 C   0  0  0  0  0  0
  -19.1529  -28.8834   23.2906 C   0  0  0  0  0  0
  -18.9455  -30.1448   23.8907 C   0  0  0  0  0  0
  -17.6458  -30.6577   24.0573 C   0  0  0  0  0  0
  -25.9054  -34.9463   23.5130 C   0  0  0  0  0  0
  -16.5350  -29.9071   23.6330 C   0  0  0  0  0  0
  -16.7265  -28.6494   23.0345 C   0  0  0  0  0  0
  -26.4462  -31.6586   25.0699 C   0  0  0  0  0  0
  -25.3722  -31.3697   26.1450 C   0  0  0  0  0  0
  -27.0296  -30.3040   24.6065 C   0  0  0  0  0  0
  -27.6053  -32.4284   25.7454 C   0  0  0  0  0  0
  -27.5591  -37.1815   24.8472 C   0  0  0  0  0  0
  -21.4132  -29.3036   22.3700 N   0  0  0  0  0  0
  -26.4308  -37.3787   23.9415 N   0  0  0  0  0  0
  -24.6689  -31.0763   22.0973 N   0  0  0  0  0  0
  -23.4188  -28.8195   23.2976 O   0  0  0  0  0  0
  -28.4371  -26.7290   20.1189 O   0  0  0  0  0  0
  -26.5590  -34.8914   22.4674 O   0  0  0  0  0  0
  -23.5348  -32.1401   23.7476 O   0  0  0  0  0  0
  -30.8989  -19.0232   21.3180 C   0  0  0  0  0  0
  -30.3514  -20.3212   21.2022 C   0  0  0  0  0  0
  -28.1318  -19.4013   21.5482 C   0  0  0  0  0  0
  -30.0804  -17.9032   21.6158 C   0  0  0  0  0  0
  -28.9671  -20.5365   21.3933 C   0  0  0  0  0  0
  -28.6798  -18.1033   21.6654 C   0  0  0  0  0  0
  -28.0148  -22.2310   22.8085 C   0  0  0  0  0  0
  -27.6606  -23.6915   23.1106 C   0  0  0  0  0  0
  -28.3246  -24.6977   22.1687 C   0  0  0  0  0  0
  -28.6867  -22.8777   20.4937 C   0  0  0  0  0  0
  -28.0548  -24.2910   20.7191 C   0  0  1  0  0  0
  -32.2180  -16.5604   22.2799 C   0  0  0  0  0  0
  -28.5429  -25.3565   19.6921 C   0  0  0  0  0  0
  -30.6854  -16.5570   22.0735 C   0  0  2  0  0  0
  -28.4543  -21.8731   21.5667 N   0  0  0  0  0  0
  -30.1509  -15.3285   21.4529 N   0  0  0  0  0  0
  -27.8630  -21.4233   23.7326 O   0  0  0  0  0  0
  -27.8561  -17.0554   21.9119 F   0  0  0  0  0  0
  -31.4629  -12.4083   19.1006 H   0  0  0  0  0  0
  -30.3241  -11.2951   19.7961 H   0  0  0  0  0  0
  -29.7244  -11.7964   17.4110 H   0  0  0  0  0  0
  -29.6489  -13.5037   17.7690 H   0  0  0  0  0  0
  -27.8242  -11.3113   18.8117 H   0  0  0  0  0  0
  -27.3546  -12.6419   17.7886 H   0  0  0  0  0  0
  -27.7091  -14.2562   19.5863 H   0  0  0  0  0  0
  -28.6800  -11.9319   21.3162 H   0  0  0  0  0  0
  -28.4550  -13.5527   21.8800 H   0  0  0  0  0  0
  -25.2771   -9.5678   22.4751 H   0  0  0  0  0  0
  -24.0012   -7.4629   22.7458 H   0  0  0  0  0  0
  -21.0848   -8.8770   19.8943 H   0  0  0  0  0  0
  -22.3706  -10.9675   19.6160 H   0  0  0  0  0  0
  -21.2003   -7.6150   23.9738 H   0  0  0  0  0  0
  -21.1485   -6.0516   25.9092 H   0  0  0  0  0  0
  -22.0598   -2.7613   23.2831 H   0  0  0  0  0  0
  -22.4100  -11.9885   22.4798 H   0  0  0  0  0  0
  -21.1115  -13.1254   22.2608 H   0  0  0  0  0  0
  -24.6766  -15.8471   20.5835 H   0  0  0  0  0  0
  -26.3139  -15.6420   20.2209 H   0  0  0  0  0  0
  -26.7101  -32.5510   23.1127 H   0  0  0  0  0  0
  -25.0079  -33.9754   25.0479 H   0  0  0  0  0  0
  -22.6960  -31.3082   21.4003 H   0  0  0  0  0  0
  -23.3749  -35.9650   23.3310 H   0  0  0  0  0  0
  -24.3604  -36.8923   22.2061 H   0  0  0  0  0  0
  -23.7269  -37.6522   23.6647 H   0  0  0  0  0  0
  -26.0423  -31.5979   20.5931 H   0  0  0  0  0  0
  -26.8201  -30.8822   21.9773 H   0  0  0  0  0  0
  -28.0984  -29.0961   21.1533 H   0  0  0  0  0  0
  -26.0369  -25.9451   19.0358 H   0  0  0  0  0  0
  -23.9793  -27.2742   19.0497 H   0  0  0  0  0  0
  -23.7217  -30.5926   19.3997 H   0  0  0  0  0  0
  -22.7374  -29.2379   19.8662 H   0  0  0  0  0  0
  -25.1304  -36.1960   25.0837 H   0  0  0  0  0  0
  -20.9991  -28.3226   24.1415 H   0  0  0  0  0  0
  -20.5683  -26.2262   23.3596 H   0  0  0  0  0  0
  -21.6630  -26.7425   22.1200 H   0  0  0  0  0  0
  -19.6909  -25.6294   21.1236 H   0  0  0  0  0  0
  -19.6698  -27.3187   20.6738 H   0  0  0  0  0  0
  -17.4203  -26.6706   21.4013 H   0  0  0  0  0  0
  -18.0315  -26.0045   22.9003 H   0  0  0  0  0  0
  -19.7939  -30.7274   24.2272 H   0  0  0  0  0  0
  -17.5006  -31.6263   24.5157 H   0  0  0  0  0  0
  -15.5350  -30.2973   23.7645 H   0  0  0  0  0  0
  -15.8678  -28.0825   22.7018 H   0  0  0  0  0  0
  -24.5896  -30.7038   25.7782 H   0  0  0  0  0  0
  -24.8879  -32.2842   26.4897 H   0  0  0  0  0  0
  -25.8067  -30.8876   27.0217 H   0  0  0  0  0  0
  -26.2835  -29.6809   24.1118 H   0  0  0  0  0  0
  -27.4071  -29.7274   25.4520 H   0  0  0  0  0  0
  -27.8668  -30.4379   23.9204 H   0  0  0  0  0  0
  -27.2706  -33.3583   26.2063 H   0  0  0  0  0  0
  -28.3850  -32.6851   25.0266 H   0  0  0  0  0  0
  -28.0711  -31.8369   26.5346 H   0  0  0  0  0  0
  -28.2599  -38.0117   24.7499 H   0  0  0  0  0  0
  -28.1086  -36.2644   24.6298 H   0  0  0  0  0  0
  -27.2302  -37.1462   25.8873 H   0  0  0  0  0  0
  -20.9266  -29.8778   21.6955 H   0  0  0  0  0  0
  -26.0191  -38.2871   24.1392 H   0  0  0  0  0  0
  -31.9731  -18.9243   21.2560 H   0  0  0  0  0  0
  -31.0232  -21.1575   21.0656 H   0  0  0  0  0  0
  -27.0659  -19.5301   21.6764 H   0  0  0  0  0  0
  -27.9433  -23.9162   24.1392 H   0  0  0  0  0  0
  -26.5769  -23.7920   23.0561 H   0  0  0  0  0  0
  -29.3974  -24.7522   22.3616 H   0  0  0  0  0  0
  -27.9176  -25.6861   22.3779 H   0  0  0  0  0  0
  -29.7651  -22.9910   20.3846 H   0  0  0  0  0  0
  -28.3301  -22.4639   19.5500 H   0  0  0  0  0  0
  -26.9727  -24.2063   20.6010 H   0  0  0  0  0  0
  -32.5130  -17.3320   22.9916 H   0  0  0  0  0  0
  -32.7569  -16.7428   21.3491 H   0  0  0  0  0  0
  -32.5697  -15.6111   22.6863 H   0  0  0  0  0  0
  -29.6096  -25.2038   19.5256 H   0  0  0  0  0  0
  -28.0821  -25.2029   18.7160 H   0  0  0  0  0  0
  -30.2943  -16.4726   23.0886 H   0  0  0  0  0  0
  -29.2392  -15.0543   21.7884 H   0  0  0  0  0  0
  1 25  1  0  0  0
  1 30  2  0  0  0
  1 86  1  0  0  0
  2  3  1  0  0  0
  2 25  1  0  0  0
  2 89  1  0  0  0
  2 90  1  0  0  0
  3  4  1  0  0  0
  3 91  1  0  0  0
  3 92  1  0  0  0
  4  5  1  0  0  0
  4 93  1  0  0  0
  4 94  1  0  0  0
  5  6  1  0  0  0
  5 26  1  0  0  0
  5 95  1  0  0  0
  6 25  1  0  0  0
  6 96  1  0  0  0
  6 97  1  0  0  0
  7  8  2  0  0  0
  7 26  1  0  0  0
  7 29  1  0  0  0
  8  9  1  0  0  0
  8 22  1  0  0  0
  9 10  1  0  0  0
  9 27  2  0  0  0
 10 11  2  0  0  0
 10 15  1  0  0  0
 11 12  1  0  0  0
 11 98  1  0  0  0
 12 13  2  0  0  0
 12 99  1  0  0  0
 13 14  1  0  0  0
 13 31  1  0  0  0
 14 15  2  0  0  0
 14100  1  0  0  0
 15101  1  0  0  0
 16 17  2  0  0  0
 16 21  1  0  0  0
 16 31  1  0  0  0
 17 18  1  0  0  0
 17102  1  0  0  0
 18 19  2  0  0  0
 18103  1  0  0  0
 19 20  1  0  0  0
 19 24  1  0  0  0
 20 21  2  0  0  0
 20104  1  0  0  0
 21 23  1  0  0  0
 22 28  1  0  0  0
 22 32  2  0  0  0
 26 27  1  0  0  0
 28105  1  0  0  0
 28106  1  0  0  0
 29107  1  0  0  0
 29108  1  0  0  0
 33 34  1  0  0  0
 33 66  1  0  0  0
 33 70  2  0  0  0
 34 36  1  0  0  0
 34 59  1  0  0  0
 34109  1  0  0  0
 35 44  2  0  0  0
 35 45  1  0  0  0
 35 68  1  0  0  0
 36 56  1  0  0  0
 36110  1  0  0  0
 37 39  1  0  0  0
 37 47  1  0  0  0
 37 66  1  0  0  0
 37111  1  0  0  0
 38 43  2  0  0  0
 38 46  1  0  0  0
 38 47  1  0  0  0
 39 64  1  0  0  0
 39 67  2  0  0  0
 40 52  1  0  0  0
 40 53  2  0  0  0
 40 58  1  0  0  0
 41112  1  0  0  0
 41113  1  0  0  0
 41114  1  0  0  0
 41 48  1  0  0  0
 42 43  1  0  0  0
 42 66  1  0  0  0
 42115  1  0  0  0
 42116  1  0  0  0
 43 44  1  0  0  0
 44117  1  0  0  0
 45 46  2  0  0  0
 45118  1  0  0  0
 46119  1  0  0  0
 47120  1  0  0  0
 47121  1  0  0  0
 48 56  1  0  0  0
 48 65  1  0  0  0
 48122  1  0  0  0
 49 50  1  0  0  0
 49 53  1  0  0  0
 49 64  1  0  0  0
 49123  1  0  0  0
 50 51  1  0  0  0
 50124  1  0  0  0
 50125  1  0  0  0
 51 52  1  0  0  0
 51126  1  0  0  0
 51127  1  0  0  0
 52128  1  0  0  0
 52129  1  0  0  0
 53 54  1  0  0  0
 54 55  2  0  0  0
 54130  1  0  0  0
 55 57  1  0  0  0
 55131  1  0  0  0
 56 69  2  0  0  0
 57 58  2  0  0  0
 57132  1  0  0  0
 58133  1  0  0  0
 59 60  1  0  0  0
 59 61  1  0  0  0
 59 62  1  0  0  0
 60134  1  0  0  0
 60135  1  0  0  0
 60136  1  0  0  0
 61137  1  0  0  0
 61138  1  0  0  0
 61139  1  0  0  0
 62140  1  0  0  0
 62141  1  0  0  0
 62142  1  0  0  0
 63 65  1  0  0  0
 63143  1  0  0  0
 63144  1  0  0  0
 63145  1  0  0  0
 64146  1  0  0  0
 65147  1  0  0  0
 68 83  1  0  0  0
 71 72  2  0  0  0
 71 74  1  0  0  0
 71148  1  0  0  0
 72 75  1  0  0  0
 72149  1  0  0  0
 73 75  2  0  0  0
 73 76  1  0  0  0
 73150  1  0  0  0
 74 76  2  0  0  0
 74 84  1  0  0  0
 75 85  1  0  0  0
 76 88  1  0  0  0
 77 78  1  0  0  0
 77 85  1  0  0  0
 77 87  2  0  0  0
 78 79  1  0  0  0
 78151  1  0  0  0
 78152  1  0  0  0
 79 81  1  0  0  0
 79153  1  0  0  0
 79154  1  0  0  0
 80 81  1  0  0  0
 80 85  1  0  0  0
 80155  1  0  0  0
 80156  1  0  0  0
 81 83  1  0  0  0
 81157  1  0  0  0
 82158  1  0  0  0
 82159  1  0  0  0
 82160  1  0  0  0
 82 84  1  0  0  0
 83161  1  0  0  0
 83162  1  0  0  0
 84 86  1  0  0  0
 84163  1  0  0  0
 86164  1  0  0  0
M  ISO  4   1 100  68 101  83 101  86 100
M  END
> <chiral flag>
0

> <version>
0

> <s_m_source_file>
/data/baiqing/PycharmProjects/Reinvent-master-3.2/result/LINK_invent/BTK/process_docking_weight1_custom_product_contain_oxygen_bond_distance_aromatic_linkinvent_7_9_3/rearranged_h_0096.sdf

> <i_m_source_file_index>
34

> <r_mmod_Potential_Energy-OPLS-2005>
66.0292739868164

> <r_mmod_Stretch_Energy-OPLS-2005>
46.6307907104492

> <r_mmod_Bend_Energy-OPLS-2005>
130.600234985352

> <r_mmod_Torsional_Energy-OPLS-2005>
266.511444091797

> <r_mmod_Improper_Torsional_Energy-OPLS-2005>
3.97822308540344

> <r_mmod_Van_der_Waal_Energy-OPLS-2005>
165.595932006836

> <r_mmod_Electrostatic_Energy-OPLS-2005>
-351.371704101562

> <r_mmod_Solvation_Energy-OPLS-2005>
-207.042938232422

> <b_mmod_Minimization_Converged-OPLS-2005>
0

> <r_mmod_RMS_Derivative-OPLS-2005>
2.09200119972229

$$$$
34
                    3D
 Structure written by MMmdl.
154162  0  0  1  0            999 V2000
  -30.7449  -14.4866   20.5619 C   0  0  0  0  0  0
  -30.4050  -12.3203   19.4259 C   0  0  0  0  0  0
  -29.4840  -12.4867   18.2037 C   0  0  0  0  0  0
  -28.0090  -12.3486   18.6242 C   0  0  0  0  0  0
  -27.6500  -13.2170   19.8597 C   0  0  2  0  0  0
  -28.6958  -13.0643   20.9859 C   0  0  0  0  0  0
  -25.2551  -13.8187   20.5688 C   0  0  0  0  0  0
  -24.1822  -13.0445   20.9206 C   0  0  0  0  0  0
  -24.6391  -11.6921   20.8755 C   0  0  0  0  0  0
  -23.9060  -10.4301   21.0422 C   0  0  0  0  0  0
  -24.3618   -9.4212   21.9189 C   0  0  0  0  0  0
  -23.6297   -8.2243   22.0752 C   0  0  0  0  0  0
  -22.4279   -8.0283   21.3541 C   0  0  0  0  0  0
  -21.9921   -9.0261   20.4644 C   0  0  0  0  0  0
  -22.7240  -10.2144   20.3062 C   0  0  0  0  0  0
  -21.6861   -6.0737   22.5278 C   0  0  0  0  0  0
  -21.4016   -6.5641   23.8211 C   0  0  0  0  0  0
  -21.3662   -5.6790   24.9173 C   0  0  0  0  0  0
  -21.6047   -4.3053   24.7222 C   0  0  0  0  0  0
  -21.8821   -3.8145   23.4343 C   0  0  0  0  0  0
  -21.9195   -4.6964   22.3400 C   0  0  0  0  0  0
  -22.7847  -13.5232   21.1863 C   0  0  0  0  0  0
  -22.1666   -4.2152   21.0978 F   0  0  0  0  0  0
  -21.5635   -3.4537   25.7735 F   0  0  0  0  0  0
  -30.0152  -13.3472   20.4069 N   0  0  0  0  0  0
  -26.2977  -12.9371   20.3333 N   0  0  0  0  0  0
  -25.9317  -11.6525   20.5773 N   0  0  0  0  0  0
  -22.0496  -12.8210   22.0415 N   0  0  0  0  0  0
  -25.4254  -15.1908   20.4065 N   0  0  0  0  0  0
  -31.9090  -14.5486   20.1546 O   0  0  0  0  0  0
  -21.6643   -6.8880   21.4238 O   0  0  0  0  0  0
  -22.3526  -14.5537   20.6716 O   0  0  0  0  0  0
  -24.6142  -31.8684   23.2098 C   0  0  0  0  0  0
  -25.9032  -32.4830   23.8399 C   0  0  1  0  0  0
  -27.2279  -27.4324   20.1013 C   0  0  0  0  0  0
  -25.5888  -33.8631   24.2327 N   0  0  0  0  0  0
  -23.4019  -30.4927   21.5502 C   0  0  2  0  0  0
  -24.8456  -28.9553   20.1167 C   0  0  0  0  0  0
  -22.7412  -29.4673   22.4992 C   0  0  0  0  0  0
  -18.0276  -28.1386   22.8481 C   0  0  0  0  0  0
  -24.1485  -36.7320   23.2641 C   0  0  0  0  0  0
  -25.9297  -30.8363   21.3593 C   0  0  0  0  0  0
  -26.0063  -29.4699   20.7073 C   0  0  0  0  0  0
  -27.2033  -28.7190   20.6876 C   0  0  0  0  0  0
  -26.0495  -26.9285   19.5108 C   0  0  0  0  0  0
  -24.8617  -27.6846   19.5148 C   0  0  0  0  0  0
  -23.6092  -29.8239   20.1649 C   0  0  0  0  0  0
  -25.4108  -36.3119   24.0339 C   0  0  1  0  0  0
  -20.5867  -28.3671   23.1309 C   0  0  2  0  0  0
  -20.6763  -26.9407   22.5411 C   0  0  0  0  0  0
  -19.5742  -26.6389   21.5208 C   0  0  0  0  0  0
  -18.1922  -26.7927   22.1619 C   0  0  0  0  0  0
  -19.1526  -28.8846   23.2890 C   0  0  0  0  0  0
  -18.9453  -30.1454   23.8898 C   0  0  0  0  0  0
  -17.6455  -30.6584   24.0579 C   0  0  0  0  0  0
  -25.9032  -34.9485   23.5128 C   0  0  0  0  0  0
  -16.5347  -29.9095   23.6328 C   0  0  0  0  0  0
  -16.7267  -28.6520   23.0331 C   0  0  0  0  0  0
  -26.4463  -31.6617   25.0728 C   0  0  0  0  0  0
  -25.3739  -31.3714   26.1487 C   0  0  0  0  0  0
  -27.0299  -30.3065   24.6094 C   0  0  0  0  0  0
  -27.6036  -32.4355   25.7474 C   0  0  0  0  0  0
  -27.5583  -37.1810   24.8464 C   0  0  0  0  0  0
  -21.4143  -29.3039   22.3715 N   0  0  0  0  0  0
  -26.4298  -37.3800   23.9408 N   0  0  0  0  0  0
  -24.6673  -31.0802   22.0986 N   0  0  0  0  0  0
  -23.4179  -28.8216   23.3038 O   0  0  0  0  0  0
  -28.4000  -26.7080   20.0927 O   0  0  0  0  0  0
  -26.5599  -34.8933   22.4693 O   0  0  0  0  0  0
  -23.5332  -32.1439   23.7488 O   0  0  0  0  0  0
  -30.8193  -19.1547   20.6065 C   0  0  0  0  0  0
  -28.6312  -18.3185   21.2333 C   0  0  0  0  0  0
  -30.2820  -20.4374   20.3794 C   0  0  0  0  0  0
  -28.0915  -19.6123   21.0096 C   0  0  0  0  0  0
  -30.0113  -18.0757   21.0371 C   0  0  0  0  0  0
  -28.9064  -20.6896   20.5825 C   0  0  0  0  0  0
  -30.6869  -16.7528   21.3355 C   0  0  0  0  0  0
  -28.3282  -24.3156   19.3755 C   0  0  0  0  0  0
  -29.0912  -22.9920   19.6437 C   0  0  0  0  0  0
  -28.3367  -25.3402   20.5362 C   0  0  0  0  0  0
  -28.3390  -21.9674   20.3795 N   0  0  0  0  0  0
  -30.0828  -15.5982   20.9683 N   0  0  0  0  0  0
  -31.8128  -16.7940   21.8486 O   0  0  0  0  0  0
  -31.4492  -12.3925   19.1181 H   0  0  0  0  0  0
  -30.2934  -11.3257   19.8607 H   0  0  0  0  0  0
  -29.7258  -11.7410   17.4447 H   0  0  0  0  0  0
  -29.6482  -13.4614   17.7411 H   0  0  0  0  0  0
  -27.8287  -11.2969   18.8476 H   0  0  0  0  0  0
  -27.3546  -12.5967   17.7879 H   0  0  0  0  0  0
  -27.6724  -14.2535   19.5229 H   0  0  0  0  0  0
  -28.6813  -12.0522   21.3937 H   0  0  0  0  0  0
  -28.4646  -13.7273   21.8214 H   0  0  0  0  0  0
  -25.2770   -9.5688   22.4755 H   0  0  0  0  0  0
  -24.0016   -7.4631   22.7469 H   0  0  0  0  0  0
  -21.0855   -8.8777   19.8948 H   0  0  0  0  0  0
  -22.3701  -10.9684   19.6170 H   0  0  0  0  0  0
  -21.2003   -7.6149   23.9712 H   0  0  0  0  0  0
  -21.1487   -6.0523   25.9076 H   0  0  0  0  0  0
  -22.0596   -2.7607   23.2840 H   0  0  0  0  0  0
  -22.4117  -11.9875   22.4807 H   0  0  0  0  0  0
  -21.1114  -13.1236   22.2626 H   0  0  0  0  0  0
  -24.6546  -15.8423   20.5067 H   0  0  0  0  0  0
  -26.2614  -15.6254   20.0385 H   0  0  0  0  0  0
  -26.7105  -32.5528   23.1169 H   0  0  0  0  0  0
  -25.0049  -33.9808   25.0474 H   0  0  0  0  0  0
  -22.6899  -31.3092   21.4106 H   0  0  0  0  0  0
  -23.3742  -35.9657   23.3316 H   0  0  0  0  0  0
  -24.3579  -36.8926   22.2053 H   0  0  0  0  0  0
  -23.7243  -37.6530   23.6651 H   0  0  0  0  0  0
  -26.0401  -31.6015   20.5896 H   0  0  0  0  0  0
  -26.8186  -30.8910   21.9757 H   0  0  0  0  0  0
  -28.1042  -29.1169   21.1343 H   0  0  0  0  0  0
  -26.0423  -25.9591   19.0364 H   0  0  0  0  0  0
  -23.9688  -27.2838   19.0553 H   0  0  0  0  0  0
  -23.7205  -30.5988   19.4052 H   0  0  0  0  0  0
  -22.7311  -29.2475   19.8681 H   0  0  0  0  0  0
  -25.1284  -36.1990   25.0834 H   0  0  0  0  0  0
  -20.9962  -28.3240   24.1429 H   0  0  0  0  0  0
  -20.5663  -26.2286   23.3602 H   0  0  0  0  0  0
  -21.6635  -26.7450   22.1203 H   0  0  0  0  0  0
  -19.6902  -25.6304   21.1230 H   0  0  0  0  0  0
  -19.6677  -27.3206   20.6742 H   0  0  0  0  0  0
  -17.4190  -26.6675   21.4024 H   0  0  0  0  0  0
  -18.0324  -26.0074   22.9019 H   0  0  0  0  0  0
  -19.7935  -30.7272   24.2253 H   0  0  0  0  0  0
  -17.5020  -31.6260   24.5191 H   0  0  0  0  0  0
  -15.5352  -30.3003   23.7652 H   0  0  0  0  0  0
  -15.8666  -28.0863   22.7009 H   0  0  0  0  0  0
  -24.5881  -30.7098   25.7822 H   0  0  0  0  0  0
  -24.8959  -32.2866   26.4992 H   0  0  0  0  0  0
  -25.8095  -30.8835   27.0216 H   0  0  0  0  0  0
  -26.2834  -29.6815   24.1176 H   0  0  0  0  0  0
  -27.4111  -29.7319   25.4546 H   0  0  0  0  0  0
  -27.8652  -30.4401   23.9215 H   0  0  0  0  0  0
  -27.2646  -33.3639   26.2091 H   0  0  0  0  0  0
  -28.3807  -32.6960   25.0272 H   0  0  0  0  0  0
  -28.0761  -31.8473   26.5356 H   0  0  0  0  0  0
  -28.2604  -38.0105   24.7520 H   0  0  0  0  0  0
  -28.1080  -36.2635   24.6284 H   0  0  0  0  0  0
  -27.2306  -37.1463   25.8872 H   0  0  0  0  0  0
  -20.9304  -29.8773   21.6941 H   0  0  0  0  0  0
  -26.0186  -38.2879   24.1409 H   0  0  0  0  0  0
  -31.8799  -19.0047   20.4553 H   0  0  0  0  0  0
  -27.9803  -17.5288   21.5819 H   0  0  0  0  0  0
  -30.9593  -21.2148   20.0576 H   0  0  0  0  0  0
  -27.0361  -19.7730   21.1803 H   0  0  0  0  0  0
  -27.3129  -24.1158   19.0339 H   0  0  0  0  0  0
  -28.8251  -24.7947   18.5311 H   0  0  0  0  0  0
  -30.0259  -23.2173   20.1586 H   0  0  0  0  0  0
  -29.3724  -22.5659   18.6787 H   0  0  0  0  0  0
  -29.2295  -25.1829   21.1421 H   0  0  0  0  0  0
  -27.4956  -25.1663   21.2099 H   0  0  0  0  0  0
  -27.3238  -22.0390   20.3852 H   0  0  0  0  0  0
  -29.0842  -15.6060   20.8634 H   0  0  0  0  0  0
  1 25  1  0  0  0
  1 30  2  0  0  0
  1 82  1  0  0  0
  2  3  1  0  0  0
  2 25  1  0  0  0
  2 84  1  0  0  0
  2 85  1  0  0  0
  3  4  1  0  0  0
  3 86  1  0  0  0
  3 87  1  0  0  0
  4  5  1  0  0  0
  4 88  1  0  0  0
  4 89  1  0  0  0
  5  6  1  0  0  0
  5 26  1  0  0  0
  5 90  1  0  0  0
  6 25  1  0  0  0
  6 91  1  0  0  0
  6 92  1  0  0  0
  7  8  2  0  0  0
  7 26  1  0  0  0
  7 29  1  0  0  0
  8  9  1  0  0  0
  8 22  1  0  0  0
  9 10  1  0  0  0
  9 27  2  0  0  0
 10 11  2  0  0  0
 10 15  1  0  0  0
 11 12  1  0  0  0
 11 93  1  0  0  0
 12 13  2  0  0  0
 12 94  1  0  0  0
 13 14  1  0  0  0
 13 31  1  0  0  0
 14 15  2  0  0  0
 14 95  1  0  0  0
 15 96  1  0  0  0
 16 17  2  0  0  0
 16 21  1  0  0  0
 16 31  1  0  0  0
 17 18  1  0  0  0
 17 97  1  0  0  0
 18 19  2  0  0  0
 18 98  1  0  0  0
 19 20  1  0  0  0
 19 24  1  0  0  0
 20 21  2  0  0  0
 20 99  1  0  0  0
 21 23  1  0  0  0
 22 28  1  0  0  0
 22 32  2  0  0  0
 26 27  1  0  0  0
 28100  1  0  0  0
 28101  1  0  0  0
 29102  1  0  0  0
 29103  1  0  0  0
 33 34  1  0  0  0
 33 66  1  0  0  0
 33 70  2  0  0  0
 34 36  1  0  0  0
 34 59  1  0  0  0
 34104  1  0  0  0
 35 44  2  0  0  0
 35 45  1  0  0  0
 35 68  1  0  0  0
 36 56  1  0  0  0
 36105  1  0  0  0
 37 39  1  0  0  0
 37 47  1  0  0  0
 37 66  1  0  0  0
 37106  1  0  0  0
 38 43  2  0  0  0
 38 46  1  0  0  0
 38 47  1  0  0  0
 39 64  1  0  0  0
 39 67  2  0  0  0
 40 52  1  0  0  0
 40 53  2  0  0  0
 40 58  1  0  0  0
 41107  1  0  0  0
 41108  1  0  0  0
 41109  1  0  0  0
 41 48  1  0  0  0
 42 43  1  0  0  0
 42 66  1  0  0  0
 42110  1  0  0  0
 42111  1  0  0  0
 43 44  1  0  0  0
 44112  1  0  0  0
 45 46  2  0  0  0
 45113  1  0  0  0
 46114  1  0  0  0
 47115  1  0  0  0
 47116  1  0  0  0
 48 56  1  0  0  0
 48 65  1  0  0  0
 48117  1  0  0  0
 49 50  1  0  0  0
 49 53  1  0  0  0
 49 64  1  0  0  0
 49118  1  0  0  0
 50 51  1  0  0  0
 50119  1  0  0  0
 50120  1  0  0  0
 51 52  1  0  0  0
 51121  1  0  0  0
 51122  1  0  0  0
 52123  1  0  0  0
 52124  1  0  0  0
 53 54  1  0  0  0
 54 55  2  0  0  0
 54125  1  0  0  0
 55 57  1  0  0  0
 55126  1  0  0  0
 56 69  2  0  0  0
 57 58  2  0  0  0
 57127  1  0  0  0
 58128  1  0  0  0
 59 60  1  0  0  0
 59 61  1  0  0  0
 59 62  1  0  0  0
 60129  1  0  0  0
 60130  1  0  0  0
 60131  1  0  0  0
 61132  1  0  0  0
 61133  1  0  0  0
 61134  1  0  0  0
 62135  1  0  0  0
 62136  1  0  0  0
 62137  1  0  0  0
 63 65  1  0  0  0
 63138  1  0  0  0
 63139  1  0  0  0
 63140  1  0  0  0
 64141  1  0  0  0
 65142  1  0  0  0
 68 80  1  0  0  0
 71 73  2  0  0  0
 71 75  1  0  0  0
 71143  1  0  0  0
 72 74  1  0  0  0
 72 75  2  0  0  0
 72144  1  0  0  0
 73 76  1  0  0  0
 73145  1  0  0  0
 74 76  2  0  0  0
 74146  1  0  0  0
 75 77  1  0  0  0
 76 81  1  0  0  0
 77 82  1  0  0  0
 77 83  2  0  0  0
 78 79  1  0  0  0
 78 80  1  0  0  0
 78147  1  0  0  0
 78148  1  0  0  0
 79 81  1  0  0  0
 79149  1  0  0  0
 79150  1  0  0  0
 80151  1  0  0  0
 80152  1  0  0  0
 81153  1  0  0  0
 82154  1  0  0  0
M  ISO  4   1 100  68 101  80 101  82 100
M  END
> <chiral flag>
0

> <version>
0

> <s_m_source_file>
/data/baiqing/PycharmProjects/Reinvent-master-3.2/result/LINK_invent/BTK/process_docking_weight1_custom_product_contain_oxygen_bond_distance_aromatic_linkinvent_7_9_3/rearranged_h_0096.sdf

> <i_m_source_file_index>
35

> <r_mmod_Potential_Energy-OPLS-2005>
-67.6921844482422

> <r_mmod_Stretch_Energy-OPLS-2005>
38.5275039672852

> <r_mmod_Bend_Energy-OPLS-2005>
107.495300292969

> <r_mmod_Torsional_Energy-OPLS-2005>
253.962493896484

> <r_mmod_Improper_Torsional_Energy-OPLS-2005>
7.02811098098755

> <r_mmod_Van_der_Waal_Energy-OPLS-2005>
161.343246459961

> <r_mmod_Electrostatic_Energy-OPLS-2005>
-422.977813720703

> <r_mmod_Solvation_Energy-OPLS-2005>
-232.494125366211

> <b_mmod_Minimization_Converged-OPLS-2005>
0

> <r_mmod_RMS_Derivative-OPLS-2005>
1.38795685768127

$$$$
35
                    3D
 Structure written by MMmdl.
150158  0  0  1  0            999 V2000
  -30.5302  -14.8584   20.4412 C   0  0  0  0  0  0
  -30.4537  -12.5246   19.4879 C   0  0  0  0  0  0
  -29.5254  -12.5249   18.2506 C   0  0  0  0  0  0
  -28.0551  -12.3218   18.6648 C   0  0  0  0  0  0
  -27.6452  -13.2297   19.8540 C   0  0  2  0  0  0
  -28.6891  -13.1823   20.9920 C   0  0  0  0  0  0
  -25.2532  -13.8181   20.5681 C   0  0  0  0  0  0
  -24.1820  -13.0434   20.9204 C   0  0  0  0  0  0
  -24.6412  -11.6912   20.8751 C   0  0  0  0  0  0
  -23.9081  -10.4293   21.0406 C   0  0  0  0  0  0
  -24.3626   -9.4212   21.9190 C   0  0  0  0  0  0
  -23.6303   -8.2244   22.0760 C   0  0  0  0  0  0
  -22.4287   -8.0279   21.3542 C   0  0  0  0  0  0
  -21.9921   -9.0256   20.4647 C   0  0  0  0  0  0
  -22.7248  -10.2136   20.3061 C   0  0  0  0  0  0
  -21.6854   -6.0743   22.5281 C   0  0  0  0  0  0
  -21.4013   -6.5645   23.8215 C   0  0  0  0  0  0
  -21.3659   -5.6792   24.9172 C   0  0  0  0  0  0
  -21.6046   -4.3055   24.7220 C   0  0  0  0  0  0
  -21.8818   -3.8153   23.4338 C   0  0  0  0  0  0
  -21.9196   -4.6972   22.3399 C   0  0  0  0  0  0
  -22.7848  -13.5226   21.1861 C   0  0  0  0  0  0
  -22.1663   -4.2157   21.0975 F   0  0  0  0  0  0
  -21.5631   -3.4538   25.7731 F   0  0  0  0  0  0
  -29.9808  -13.5848   20.4156 N   0  0  0  0  0  0
  -26.2961  -12.9383   20.3290 N   0  0  0  0  0  0
  -25.9343  -11.6528   20.5755 N   0  0  0  0  0  0
  -22.0493  -12.8214   22.0409 N   0  0  0  0  0  0
  -25.4240  -15.1902   20.4072 N   0  0  0  0  0  0
  -31.7041  -15.0083   20.0835 O   0  0  0  0  0  0
  -21.6641   -6.8885   21.4242 O   0  0  0  0  0  0
  -22.3538  -14.5539   20.6715 O   0  0  0  0  0  0
  -24.6397  -31.8467   23.1924 C   0  0  0  0  0  0
  -25.9180  -32.4709   23.8297 C   0  0  1  0  0  0
  -27.2109  -27.1768   20.1375 C   0  0  0  0  0  0
  -25.5945  -33.8516   24.2211 N   0  0  0  0  0  0
  -23.4418  -30.4706   21.5348 C   0  0  2  0  0  0
  -24.8883  -28.9090   20.1040 C   0  0  0  0  0  0
  -22.7560  -29.4567   22.4849 C   0  0  0  0  0  0
  -18.0302  -28.1399   22.8482 C   0  0  0  0  0  0
  -24.1490  -36.7259   23.2643 C   0  0  0  0  0  0
  -25.9954  -30.7310   21.3882 C   0  0  0  0  0  0
  -26.0631  -29.3481   20.7281 C   0  0  0  0  0  0
  -27.2247  -28.4955   20.7351 C   0  0  0  0  0  0
  -26.0158  -26.8391   19.4605 C   0  0  0  0  0  0
  -24.8766  -27.6665   19.4540 C   0  0  0  0  0  0
  -23.6647  -29.8073   20.1499 C   0  0  0  0  0  0
  -25.4120  -36.3045   24.0327 C   0  0  1  0  0  0
  -20.5922  -28.3720   23.1236 C   0  0  2  0  0  0
  -20.6798  -26.9420   22.5398 C   0  0  0  0  0  0
  -19.5765  -26.6380   21.5214 C   0  0  0  0  0  0
  -18.1943  -26.7943   22.1617 C   0  0  0  0  0  0
  -19.1562  -28.8876   23.2850 C   0  0  0  0  0  0
  -18.9484  -30.1477   23.8868 C   0  0  0  0  0  0
  -17.6480  -30.6596   24.0567 C   0  0  0  0  0  0
  -25.9061  -34.9418   23.5068 C   0  0  0  0  0  0
  -16.5363  -29.9101   23.6341 C   0  0  0  0  0  0
  -16.7284  -28.6525   23.0349 C   0  0  0  0  0  0
  -26.4526  -31.6569   25.0728 C   0  0  0  0  0  0
  -25.3720  -31.3766   26.1430 C   0  0  0  0  0  0
  -27.0393  -30.2977   24.6277 C   0  0  0  0  0  0
  -27.6055  -32.4342   25.7496 C   0  0  0  0  0  0
  -27.5578  -37.1783   24.8468 C   0  0  0  0  0  0
  -21.4247  -29.3058   22.3617 N   0  0  0  0  0  0
  -26.4291  -37.3750   23.9428 N   0  0  0  0  0  0
  -24.7117  -31.0373   22.0927 N   0  0  0  0  0  0
  -23.4222  -28.8099   23.2967 O   0  0  0  0  0  0
  -28.2629  -26.2064   20.2270 O   0  0  0  0  0  0
  -26.5643  -34.8914   22.4643 O   0  0  0  0  0  0
  -23.5524  -32.1299   23.7188 O   0  0  0  0  0  0
  -28.2932  -19.5962   20.9244 C   0  0  0  0  0  0
  -30.2574  -19.7130   19.6239 C   0  0  0  0  0  0
  -28.5189  -18.1794   21.1118 C   0  0  0  0  0  0
  -30.4966  -18.2905   19.8194 C   0  0  0  0  0  0
  -29.1397  -20.4516   20.1520 C   0  0  0  0  0  0
  -29.6170  -17.4377   20.5611 C   0  0  0  0  0  0
  -28.7390  -21.9273   19.6802 C   0  0  0  0  0  0
  -28.8983  -23.3893   20.4098 C   0  0  0  0  0  0
  -28.0026  -24.7148   19.9269 C   0  0  0  0  0  0
  -28.2348  -21.9804   18.5231 N   0  0  0  0  0  0
  -29.6796  -15.9328   20.7510 N   0  0  0  0  0  0
  -31.4882  -12.6892   19.1800 H   0  0  0  0  0  0
  -30.4412  -11.5505   19.9806 H   0  0  0  0  0  0
  -29.8259  -11.7438   17.5506 H   0  0  0  0  0  0
  -29.6288  -13.4705   17.7158 H   0  0  0  0  0  0
  -27.9366  -11.2756   18.9470 H   0  0  0  0  0  0
  -27.3926  -12.4845   17.8141 H   0  0  0  0  0  0
  -27.6314  -14.2467   19.4606 H   0  0  0  0  0  0
  -28.7540  -12.1806   21.4197 H   0  0  0  0  0  0
  -28.4002  -13.8404   21.8139 H   0  0  0  0  0  0
  -25.2774   -9.5679   22.4765 H   0  0  0  0  0  0
  -24.0006   -7.4631   22.7477 H   0  0  0  0  0  0
  -21.0857   -8.8775   19.8955 H   0  0  0  0  0  0
  -22.3710  -10.9675   19.6167 H   0  0  0  0  0  0
  -21.2001   -7.6156   23.9715 H   0  0  0  0  0  0
  -21.1483   -6.0526   25.9073 H   0  0  0  0  0  0
  -22.0601   -2.7621   23.2832 H   0  0  0  0  0  0
  -22.4107  -11.9867   22.4780 H   0  0  0  0  0  0
  -21.1117  -13.1247   22.2628 H   0  0  0  0  0  0
  -24.6483  -15.8377   20.4896 H   0  0  0  0  0  0
  -26.2580  -15.6226   20.0310 H   0  0  0  0  0  0
  -26.7237  -32.5310   23.1017 H   0  0  0  0  0  0
  -25.0140  -33.9648   25.0397 H   0  0  0  0  0  0
  -22.7428  -31.2957   21.3840 H   0  0  0  0  0  0
  -23.3760  -35.9580   23.3298 H   0  0  0  0  0  0
  -24.3577  -36.8881   22.2056 H   0  0  0  0  0  0
  -23.7241  -37.6459   23.6671 H   0  0  0  0  0  0
  -26.1561  -31.4872   20.6179 H   0  0  0  0  0  0
  -26.8660  -30.7721   22.0308 H   0  0  0  0  0  0
  -28.1147  -28.8228   21.2554 H   0  0  0  0  0  0
  -25.9225  -25.8968   18.9410 H   0  0  0  0  0  0
  -23.9851  -27.3313   18.9419 H   0  0  0  0  0  0
  -23.7986  -30.5830   19.3939 H   0  0  0  0  0  0
  -22.7799  -29.2472   19.8406 H   0  0  0  0  0  0
  -25.1303  -36.1862   25.0820 H   0  0  0  0  0  0
  -21.0013  -28.3286   24.1358 H   0  0  0  0  0  0
  -20.5699  -26.2313   23.3612 H   0  0  0  0  0  0
  -21.6661  -26.7426   22.1179 H   0  0  0  0  0  0
  -19.6928  -25.6286   21.1256 H   0  0  0  0  0  0
  -19.6726  -27.3200   20.6756 H   0  0  0  0  0  0
  -17.4219  -26.6690   21.4010 H   0  0  0  0  0  0
  -18.0327  -26.0099   22.9020 H   0  0  0  0  0  0
  -19.7960  -30.7314   24.2198 H   0  0  0  0  0  0
  -17.5039  -31.6271   24.5193 H   0  0  0  0  0  0
  -15.5373  -30.3005   23.7698 H   0  0  0  0  0  0
  -15.8673  -28.0855   22.7061 H   0  0  0  0  0  0
  -24.5912  -30.7087   25.7782 H   0  0  0  0  0  0
  -24.8908  -32.2955   26.4777 H   0  0  0  0  0  0
  -25.8023  -30.9011   27.0245 H   0  0  0  0  0  0
  -26.3010  -29.6696   24.1287 H   0  0  0  0  0  0
  -27.4041  -29.7271   25.4823 H   0  0  0  0  0  0
  -27.8896  -30.4256   23.9582 H   0  0  0  0  0  0
  -27.2651  -33.3674   26.1993 H   0  0  0  0  0  0
  -28.3902  -32.6836   25.0342 H   0  0  0  0  0  0
  -28.0673  -31.8511   26.5465 H   0  0  0  0  0  0
  -28.2581  -38.0091   24.7509 H   0  0  0  0  0  0
  -28.1079  -36.2615   24.6292 H   0  0  0  0  0  0
  -27.2287  -37.1423   25.8866 H   0  0  0  0  0  0
  -20.9436  -29.8796   21.6832 H   0  0  0  0  0  0
  -26.0145  -38.2811   24.1430 H   0  0  0  0  0  0
  -27.3865  -20.0188   21.3345 H   0  0  0  0  0  0
  -30.9451  -20.2462   18.9825 H   0  0  0  0  0  0
  -27.7767  -17.6400   21.6831 H   0  0  0  0  0  0
  -31.3596  -17.8499   19.3403 H   0  0  0  0  0  0
  -29.9497  -23.6576   20.3194 H   0  0  0  0  0  0
  -28.7327  -23.2369   21.4755 H   0  0  0  0  0  0
  -26.9953  -24.4928   20.2812 H   0  0  0  0  0  0
  -27.9353  -24.6706   18.8402 H   0  0  0  0  0  0
  -28.1728  -21.0541   18.1148 H   0  0  0  0  0  0
  -28.8252  -15.5685   21.1447 H   0  0  0  0  0  0
  1 25  1  0  0  0
  1 30  2  0  0  0
  1 81  1  0  0  0
  2  3  1  0  0  0
  2 25  1  0  0  0
  2 82  1  0  0  0
  2 83  1  0  0  0
  3  4  1  0  0  0
  3 84  1  0  0  0
  3 85  1  0  0  0
  4  5  1  0  0  0
  4 86  1  0  0  0
  4 87  1  0  0  0
  5  6  1  0  0  0
  5 26  1  0  0  0
  5 88  1  0  0  0
  6 25  1  0  0  0
  6 89  1  0  0  0
  6 90  1  0  0  0
  7  8  2  0  0  0
  7 26  1  0  0  0
  7 29  1  0  0  0
  8  9  1  0  0  0
  8 22  1  0  0  0
  9 10  1  0  0  0
  9 27  2  0  0  0
 10 11  2  0  0  0
 10 15  1  0  0  0
 11 12  1  0  0  0
 11 91  1  0  0  0
 12 13  2  0  0  0
 12 92  1  0  0  0
 13 14  1  0  0  0
 13 31  1  0  0  0
 14 15  2  0  0  0
 14 93  1  0  0  0
 15 94  1  0  0  0
 16 17  2  0  0  0
 16 21  1  0  0  0
 16 31  1  0  0  0
 17 18  1  0  0  0
 17 95  1  0  0  0
 18 19  2  0  0  0
 18 96  1  0  0  0
 19 20  1  0  0  0
 19 24  1  0  0  0
 20 21  2  0  0  0
 20 97  1  0  0  0
 21 23  1  0  0  0
 22 28  1  0  0  0
 22 32  2  0  0  0
 26 27  1  0  0  0
 28 98  1  0  0  0
 28 99  1  0  0  0
 29100  1  0  0  0
 29101  1  0  0  0
 33 34  1  0  0  0
 33 66  1  0  0  0
 33 70  2  0  0  0
 34 36  1  0  0  0
 34 59  1  0  0  0
 34102  1  0  0  0
 35 44  2  0  0  0
 35 45  1  0  0  0
 35 68  1  0  0  0
 36 56  1  0  0  0
 36103  1  0  0  0
 37 39  1  0  0  0
 37 47  1  0  0  0
 37 66  1  0  0  0
 37104  1  0  0  0
 38 43  2  0  0  0
 38 46  1  0  0  0
 38 47  1  0  0  0
 39 64  1  0  0  0
 39 67  2  0  0  0
 40 52  1  0  0  0
 40 53  2  0  0  0
 40 58  1  0  0  0
 41105  1  0  0  0
 41106  1  0  0  0
 41107  1  0  0  0
 41 48  1  0  0  0
 42 43  1  0  0  0
 42 66  1  0  0  0
 42108  1  0  0  0
 42109  1  0  0  0
 43 44  1  0  0  0
 44110  1  0  0  0
 45 46  2  0  0  0
 45111  1  0  0  0
 46112  1  0  0  0
 47113  1  0  0  0
 47114  1  0  0  0
 48 56  1  0  0  0
 48 65  1  0  0  0
 48115  1  0  0  0
 49 50  1  0  0  0
 49 53  1  0  0  0
 49 64  1  0  0  0
 49116  1  0  0  0
 50 51  1  0  0  0
 50117  1  0  0  0
 50118  1  0  0  0
 51 52  1  0  0  0
 51119  1  0  0  0
 51120  1  0  0  0
 52121  1  0  0  0
 52122  1  0  0  0
 53 54  1  0  0  0
 54 55  2  0  0  0
 54123  1  0  0  0
 55 57  1  0  0  0
 55124  1  0  0  0
 56 69  2  0  0  0
 57 58  2  0  0  0
 57125  1  0  0  0
 58126  1  0  0  0
 59 60  1  0  0  0
 59 61  1  0  0  0
 59 62  1  0  0  0
 60127  1  0  0  0
 60128  1  0  0  0
 60129  1  0  0  0
 61130  1  0  0  0
 61131  1  0  0  0
 61132  1  0  0  0
 62133  1  0  0  0
 62134  1  0  0  0
 62135  1  0  0  0
 63 65  1  0  0  0
 63136  1  0  0  0
 63137  1  0  0  0
 63138  1  0  0  0
 64139  1  0  0  0
 65140  1  0  0  0
 68 79  1  0  0  0
 71 73  2  0  0  0
 71 75  1  0  0  0
 71141  1  0  0  0
 72 74  1  0  0  0
 72 75  2  0  0  0
 72142  1  0  0  0
 73 76  1  0  0  0
 73143  1  0  0  0
 74 76  2  0  0  0
 74144  1  0  0  0
 75 77  1  0  0  0
 76 81  1  0  0  0
 77 78  1  0  0  0
 77 80  2  0  0  0
 78 79  1  0  0  0
 78145  1  0  0  0
 78146  1  0  0  0
 79147  1  0  0  0
 79148  1  0  0  0
 80149  1  0  0  0
 81150  1  0  0  0
M  ISO  4   1 100  68 101  79 101  81 100
M  END
> <chiral flag>
0

> <version>
0

> <s_m_source_file>
/data/baiqing/PycharmProjects/Reinvent-master-3.2/result/LINK_invent/BTK/process_docking_weight1_custom_product_contain_oxygen_bond_distance_aromatic_linkinvent_7_9_3/rearranged_h_0096.sdf

> <i_m_source_file_index>
36

> <r_mmod_Potential_Energy-OPLS-2005>
361.419158935547

> <r_mmod_Stretch_Energy-OPLS-2005>
193.508865356445

> <r_mmod_Bend_Energy-OPLS-2005>
232.948974609375

> <r_mmod_Torsional_Energy-OPLS-2005>
237.768890380859

> <r_mmod_Improper_Torsional_Energy-OPLS-2005>
5.70111179351807

> <r_mmod_Van_der_Waal_Energy-OPLS-2005>
134.100860595703

> <r_mmod_Electrostatic_Energy-OPLS-2005>
-372.870635986328

> <r_mmod_Solvation_Energy-OPLS-2005>
-218.222091674805

> <b_mmod_Minimization_Converged-OPLS-2005>
0

> <r_mmod_RMS_Derivative-OPLS-2005>
2.4759407043457

$$$$
36
                    3D
 Structure written by MMmdl.
154162  0  0  1  0            999 V2000
  -30.6657  -14.6362   20.5787 C   0  0  0  0  0  0
  -30.4329  -12.4134   19.4559 C   0  0  0  0  0  0
  -29.5095  -12.5336   18.2241 C   0  0  0  0  0  0
  -28.0324  -12.3587   18.6280 C   0  0  0  0  0  0
  -27.6518  -13.2218   19.8589 C   0  0  2  0  0  0
  -28.6885  -13.0670   20.9892 C   0  0  0  0  0  0
  -25.2551  -13.8186   20.5678 C   0  0  0  0  0  0
  -24.1823  -13.0448   20.9183 C   0  0  0  0  0  0
  -24.6398  -11.6919   20.8724 C   0  0  0  0  0  0
  -23.9062  -10.4301   21.0403 C   0  0  0  0  0  0
  -24.3615   -9.4219   21.9180 C   0  0  0  0  0  0
  -23.6300   -8.2247   22.0748 C   0  0  0  0  0  0
  -22.4280   -8.0274   21.3540 C   0  0  0  0  0  0
  -21.9910   -9.0249   20.4646 C   0  0  0  0  0  0
  -22.7234  -10.2134   20.3055 C   0  0  0  0  0  0
  -21.6853   -6.0738   22.5283 C   0  0  0  0  0  0
  -21.4011   -6.5641   23.8218 C   0  0  0  0  0  0
  -21.3662   -5.6788   24.9180 C   0  0  0  0  0  0
  -21.6050   -4.3051   24.7229 C   0  0  0  0  0  0
  -21.8818   -3.8143   23.4351 C   0  0  0  0  0  0
  -21.9195   -4.6965   22.3409 C   0  0  0  0  0  0
  -22.7848  -13.5238   21.1864 C   0  0  0  0  0  0
  -22.1664   -4.2155   21.0987 F   0  0  0  0  0  0
  -21.5635   -3.4529   25.7739 F   0  0  0  0  0  0
  -30.0116  -13.4292   20.4486 N   0  0  0  0  0  0
  -26.2969  -12.9372   20.3253 N   0  0  0  0  0  0
  -25.9318  -11.6520   20.5698 N   0  0  0  0  0  0
  -22.0483  -12.8230   22.0418 N   0  0  0  0  0  0
  -25.4274  -15.1912   20.4166 N   0  0  0  0  0  0
  -31.7590  -14.8134   20.0294 O   0  0  0  0  0  0
  -21.6642   -6.8877   21.4244 O   0  0  0  0  0  0
  -22.3531  -14.5546   20.6721 O   0  0  0  0  0  0
  -24.6259  -31.8595   23.2012 C   0  0  0  0  0  0
  -25.9103  -32.4775   23.8354 C   0  0  1  0  0  0
  -27.2288  -27.3207   20.1248 C   0  0  0  0  0  0
  -25.5921  -33.8575   24.2286 N   0  0  0  0  0  0
  -23.4212  -30.4802   21.5441 C   0  0  2  0  0  0
  -24.8700  -28.9310   20.1148 C   0  0  0  0  0  0
  -22.7477  -29.4617   22.4941 C   0  0  0  0  0  0
  -18.0287  -28.1380   22.8487 C   0  0  0  0  0  0
  -24.1487  -36.7285   23.2639 C   0  0  0  0  0  0
  -25.9611  -30.7910   21.3717 C   0  0  0  0  0  0
  -26.0388  -29.4170   20.7162 C   0  0  0  0  0  0
  -27.2248  -28.6247   20.7068 C   0  0  0  0  0  0
  -26.0419  -26.8831   19.5016 C   0  0  0  0  0  0
  -24.8735  -27.6698   19.4964 C   0  0  0  0  0  0
  -23.6372  -29.8111   20.1612 C   0  0  0  0  0  0
  -25.4111  -36.3082   24.0336 C   0  0  1  0  0  0
  -20.5888  -28.3683   23.1285 C   0  0  2  0  0  0
  -20.6773  -26.9406   22.5419 C   0  0  0  0  0  0
  -19.5757  -26.6384   21.5212 C   0  0  0  0  0  0
  -18.1933  -26.7927   22.1620 C   0  0  0  0  0  0
  -19.1539  -28.8848   23.2882 C   0  0  0  0  0  0
  -18.9458  -30.1447   23.8898 C   0  0  0  0  0  0
  -17.6457  -30.6581   24.0562 C   0  0  0  0  0  0
  -25.9048  -34.9450   23.5112 C   0  0  0  0  0  0
  -16.5349  -29.9082   23.6325 C   0  0  0  0  0  0
  -16.7275  -28.6501   23.0350 C   0  0  0  0  0  0
  -26.4495  -31.6578   25.0718 C   0  0  0  0  0  0
  -25.3726  -31.3709   26.1442 C   0  0  0  0  0  0
  -27.0329  -30.3005   24.6147 C   0  0  0  0  0  0
  -27.6068  -32.4297   25.7480 C   0  0  0  0  0  0
  -27.5584  -37.1795   24.8465 C   0  0  0  0  0  0
  -21.4192  -29.3039   22.3687 N   0  0  0  0  0  0
  -26.4291  -37.3776   23.9413 N   0  0  0  0  0  0
  -24.6882  -31.0605   22.0962 N   0  0  0  0  0  0
  -23.4200  -28.8161   23.3022 O   0  0  0  0  0  0
  -28.3397  -26.4688   20.1316 O   0  0  0  0  0  0
  -26.5616  -34.8918   22.4677 O   0  0  0  0  0  0
  -23.5420  -32.1396   23.7334 O   0  0  0  0  0  0
  -29.9535  -15.3810   22.6191 C   0  0  0  0  0  0
  -29.4116  -18.0374   21.8222 C   0  0  0  0  0  0
  -29.2019  -19.4110   21.4942 C   0  0  0  0  0  0
  -30.0769  -17.5644   19.5671 C   0  0  0  0  0  0
  -29.8664  -17.0598   20.8826 C   0  0  0  0  0  0
  -29.4330  -19.9103   20.1903 C   0  0  0  0  0  0
  -29.8632  -18.9420   19.2332 C   0  0  0  0  0  0
  -28.7930  -23.8859   19.9581 C   0  0  0  0  0  0
  -28.8223  -22.4484   20.6394 C   0  0  0  0  0  0
  -28.1378  -25.1161   20.7122 C   0  0  0  0  0  0
  -29.8813  -15.1421   23.7495 N   0  0  0  0  0  0
  -30.0621  -19.3640   17.9175 N   0  0  0  0  0  0
  -29.2704  -21.2859   19.7967 N   0  0  0  0  0  0
  -30.0702  -15.6498   21.2996 N   0  0  0  0  0  0
  -29.2806  -24.0296   18.8313 O   0  0  0  0  0  0
  -31.4761  -12.5303   19.1570 H   0  0  0  0  0  0
  -30.3650  -11.4135   19.8879 H   0  0  0  0  0  0
  -29.7838  -11.7915   17.4735 H   0  0  0  0  0  0
  -29.6479  -13.5082   17.7527 H   0  0  0  0  0  0
  -27.8744  -11.3033   18.8540 H   0  0  0  0  0  0
  -27.3792  -12.5935   17.7865 H   0  0  0  0  0  0
  -27.6744  -14.2613   19.5296 H   0  0  0  0  0  0
  -28.7044  -12.0397   21.3566 H   0  0  0  0  0  0
  -28.3852  -13.6720   21.8396 H   0  0  0  0  0  0
  -25.2768   -9.5704   22.4739 H   0  0  0  0  0  0
  -24.0028   -7.4640   22.7458 H   0  0  0  0  0  0
  -21.0842   -8.8764   19.8950 H   0  0  0  0  0  0
  -22.3695  -10.9664   19.6155 H   0  0  0  0  0  0
  -21.1990   -7.6147   23.9727 H   0  0  0  0  0  0
  -21.1488   -6.0514   25.9084 H   0  0  0  0  0  0
  -22.0592   -2.7606   23.2844 H   0  0  0  0  0  0
  -22.4089  -11.9900   22.4833 H   0  0  0  0  0  0
  -21.1091  -13.1245   22.2595 H   0  0  0  0  0  0
  -24.6638  -15.8478   20.5376 H   0  0  0  0  0  0
  -26.2882  -15.6340   20.1207 H   0  0  0  0  0  0
  -26.7172  -32.5454   23.1107 H   0  0  0  0  0  0
  -25.0089  -33.9725   25.0444 H   0  0  0  0  0  0
  -22.7159  -31.3008   21.3985 H   0  0  0  0  0  0
  -23.3758  -35.9609   23.3302 H   0  0  0  0  0  0
  -24.3578  -36.8900   22.2052 H   0  0  0  0  0  0
  -23.7227  -37.6484   23.6651 H   0  0  0  0  0  0
  -26.0905  -31.5530   20.6017 H   0  0  0  0  0  0
  -26.8424  -30.8426   21.9998 H   0  0  0  0  0  0
  -28.1250  -28.9952   21.1777 H   0  0  0  0  0  0
  -26.0153  -25.9164   19.0183 H   0  0  0  0  0  0
  -23.9797  -27.2947   19.0170 H   0  0  0  0  0  0
  -23.7565  -30.5863   19.4032 H   0  0  0  0  0  0
  -22.7581  -29.2389   19.8588 H   0  0  0  0  0  0
  -25.1292  -36.1941   25.0831 H   0  0  0  0  0  0
  -20.9980  -28.3253   24.1401 H   0  0  0  0  0  0
  -20.5669  -26.2289   23.3617 H   0  0  0  0  0  0
  -21.6642  -26.7431   22.1209 H   0  0  0  0  0  0
  -19.6916  -25.6293   21.1245 H   0  0  0  0  0  0
  -19.6702  -27.3194   20.6743 H   0  0  0  0  0  0
  -17.4209  -26.6675   21.4016 H   0  0  0  0  0  0
  -18.0335  -26.0065   22.9014 H   0  0  0  0  0  0
  -19.7934  -30.7260   24.2275 H   0  0  0  0  0  0
  -17.5013  -31.6262   24.5165 H   0  0  0  0  0  0
  -15.5350  -30.2982   23.7642 H   0  0  0  0  0  0
  -15.8680  -28.0819   22.7053 H   0  0  0  0  0  0
  -24.5911  -30.7050   25.7769 H   0  0  0  0  0  0
  -24.8900  -32.2868   26.4863 H   0  0  0  0  0  0
  -25.8052  -30.8895   27.0220 H   0  0  0  0  0  0
  -26.2891  -29.6756   24.1188 H   0  0  0  0  0  0
  -27.4062  -29.7255   25.4634 H   0  0  0  0  0  0
  -27.8751  -30.4308   23.9344 H   0  0  0  0  0  0
  -27.2707  -33.3604   26.2061 H   0  0  0  0  0  0
  -28.3874  -32.6838   25.0295 H   0  0  0  0  0  0
  -28.0740  -31.8409   26.5386 H   0  0  0  0  0  0
  -28.2601  -38.0096   24.7516 H   0  0  0  0  0  0
  -28.1084  -36.2624   24.6286 H   0  0  0  0  0  0
  -27.2303  -37.1434   25.8871 H   0  0  0  0  0  0
  -20.9370  -29.8758   21.6890 H   0  0  0  0  0  0
  -26.0181  -38.2855   24.1416 H   0  0  0  0  0  0
  -29.2062  -17.7541   22.8440 H   0  0  0  0  0  0
  -28.8621  -20.0808   22.2701 H   0  0  0  0  0  0
  -30.4123  -16.8868   18.7952 H   0  0  0  0  0  0
  -27.8219  -22.2415   21.0210 H   0  0  0  0  0  0
  -29.4743  -22.5164   21.5110 H   0  0  0  0  0  0
  -28.5497  -25.1341   21.7216 H   0  0  0  0  0  0
  -27.0761  -24.9009   20.8302 H   0  0  0  0  0  0
  -30.0719  -18.6401   17.2071 H   0  0  0  0  0  0
  -29.4790  -20.1441   17.6362 H   0  0  0  0  0  0
  -29.6949  -21.5415   18.9092 H   0  0  0  0  0  0
  1 25  1  0  0  0
  1 30  2  0  0  0
  1 84  1  0  0  0
  2  3  1  0  0  0
  2 25  1  0  0  0
  2 86  1  0  0  0
  2 87  1  0  0  0
  3  4  1  0  0  0
  3 88  1  0  0  0
  3 89  1  0  0  0
  4  5  1  0  0  0
  4 90  1  0  0  0
  4 91  1  0  0  0
  5  6  1  0  0  0
  5 26  1  0  0  0
  5 92  1  0  0  0
  6 25  1  0  0  0
  6 93  1  0  0  0
  6 94  1  0  0  0
  7  8  2  0  0  0
  7 26  1  0  0  0
  7 29  1  0  0  0
  8  9  1  0  0  0
  8 22  1  0  0  0
  9 10  1  0  0  0
  9 27  2  0  0  0
 10 11  2  0  0  0
 10 15  1  0  0  0
 11 12  1  0  0  0
 11 95  1  0  0  0
 12 13  2  0  0  0
 12 96  1  0  0  0
 13 14  1  0  0  0
 13 31  1  0  0  0
 14 15  2  0  0  0
 14 97  1  0  0  0
 15 98  1  0  0  0
 16 17  2  0  0  0
 16 21  1  0  0  0
 16 31  1  0  0  0
 17 18  1  0  0  0
 17 99  1  0  0  0
 18 19  2  0  0  0
 18100  1  0  0  0
 19 20  1  0  0  0
 19 24  1  0  0  0
 20 21  2  0  0  0
 20101  1  0  0  0
 21 23  1  0  0  0
 22 28  1  0  0  0
 22 32  2  0  0  0
 26 27  1  0  0  0
 28102  1  0  0  0
 28103  1  0  0  0
 29104  1  0  0  0
 29105  1  0  0  0
 33 34  1  0  0  0
 33 66  1  0  0  0
 33 70  2  0  0  0
 34 36  1  0  0  0
 34 59  1  0  0  0
 34106  1  0  0  0
 35 44  2  0  0  0
 35 45  1  0  0  0
 35 68  1  0  0  0
 36 56  1  0  0  0
 36107  1  0  0  0
 37 39  1  0  0  0
 37 47  1  0  0  0
 37 66  1  0  0  0
 37108  1  0  0  0
 38 43  2  0  0  0
 38 46  1  0  0  0
 38 47  1  0  0  0
 39 64  1  0  0  0
 39 67  2  0  0  0
 40 52  1  0  0  0
 40 53  2  0  0  0
 40 58  1  0  0  0
 41109  1  0  0  0
 41110  1  0  0  0
 41111  1  0  0  0
 41 48  1  0  0  0
 42 43  1  0  0  0
 42 66  1  0  0  0
 42112  1  0  0  0
 42113  1  0  0  0
 43 44  1  0  0  0
 44114  1  0  0  0
 45 46  2  0  0  0
 45115  1  0  0  0
 46116  1  0  0  0
 47117  1  0  0  0
 47118  1  0  0  0
 48 56  1  0  0  0
 48 65  1  0  0  0
 48119  1  0  0  0
 49 50  1  0  0  0
 49 53  1  0  0  0
 49 64  1  0  0  0
 49120  1  0  0  0
 50 51  1  0  0  0
 50121  1  0  0  0
 50122  1  0  0  0
 51 52  1  0  0  0
 51123  1  0  0  0
 51124  1  0  0  0
 52125  1  0  0  0
 52126  1  0  0  0
 53 54  1  0  0  0
 54 55  2  0  0  0
 54127  1  0  0  0
 55 57  1  0  0  0
 55128  1  0  0  0
 56 69  2  0  0  0
 57 58  2  0  0  0
 57129  1  0  0  0
 58130  1  0  0  0
 59 60  1  0  0  0
 59 61  1  0  0  0
 59 62  1  0  0  0
 60131  1  0  0  0
 60132  1  0  0  0
 60133  1  0  0  0
 61134  1  0  0  0
 61135  1  0  0  0
 61136  1  0  0  0
 62137  1  0  0  0
 62138  1  0  0  0
 62139  1  0  0  0
 63 65  1  0  0  0
 63140  1  0  0  0
 63141  1  0  0  0
 63142  1  0  0  0
 64143  1  0  0  0
 65144  1  0  0  0
 68 80  1  0  0  0
 71 81  3  0  0  0
 71 84  1  0  0  0
 72 73  2  0  0  0
 72 75  1  0  0  0
 72145  1  0  0  0
 73 76  1  0  0  0
 73146  1  0  0  0
 74 75  2  0  0  0
 74 77  1  0  0  0
 74147  1  0  0  0
 75 84  1  0  0  0
 76 77  2  0  0  0
 76 83  1  0  0  0
 77 82  1  0  0  0
 78 79  1  0  0  0
 78 80  1  0  0  0
 78 85  2  0  0  0
 79 83  1  0  0  0
 79148  1  0  0  0
 79149  1  0  0  0
 80150  1  0  0  0
 80151  1  0  0  0
 82152  1  0  0  0
 82153  1  0  0  0
 83154  1  0  0  0
M  ISO  4   1 100  68 101  80 101  84 100
M  END
> <chiral flag>
0

> <version>
0

> <s_m_source_file>
/data/baiqing/PycharmProjects/Reinvent-master-3.2/result/LINK_invent/BTK/process_docking_weight1_custom_product_contain_oxygen_bond_distance_aromatic_linkinvent_7_9_3/rearranged_h_0096.sdf

> <i_m_source_file_index>
37

> <r_mmod_Potential_Energy-OPLS-2005>
130.760803222656

> <r_mmod_Stretch_Energy-OPLS-2005>
89.8639755249023

> <r_mmod_Bend_Energy-OPLS-2005>
156.232177734375

> <r_mmod_Torsional_Energy-OPLS-2005>
282.090942382812

> <r_mmod_Improper_Torsional_Energy-OPLS-2005>
7.55396938323975

> <r_mmod_Van_der_Waal_Energy-OPLS-2005>
146.280334472656

> <r_mmod_Electrostatic_Energy-OPLS-2005>
-367.537628173828

> <r_mmod_Solvation_Energy-OPLS-2005>
-229.342788696289

> <b_mmod_Minimization_Converged-OPLS-2005>
0

> <r_mmod_RMS_Derivative-OPLS-2005>
1.34436249732971

$$$$
37
                    3D
 Structure written by MMmdl.
151159  0  0  1  0            999 V2000
  -30.5249  -14.9007   20.4383 C   0  0  0  0  0  0
  -30.4506  -12.5547   19.4943 C   0  0  0  0  0  0
  -29.5228  -12.5426   18.2550 C   0  0  0  0  0  0
  -28.0543  -12.3297   18.6720 C   0  0  0  0  0  0
  -27.6396  -13.2412   19.8556 C   0  0  2  0  0  0
  -28.6866  -13.2145   20.9916 C   0  0  0  0  0  0
  -25.2467  -13.8171   20.5724 C   0  0  0  0  0  0
  -24.1764  -13.0387   20.9166 C   0  0  0  0  0  0
  -24.6385  -11.6886   20.8716 C   0  0  0  0  0  0
  -23.9071  -10.4260   21.0373 C   0  0  0  0  0  0
  -24.3621   -9.4195   21.9169 C   0  0  0  0  0  0
  -23.6295   -8.2239   22.0754 C   0  0  0  0  0  0
  -22.4280   -8.0266   21.3542 C   0  0  0  0  0  0
  -21.9902   -9.0234   20.4646 C   0  0  0  0  0  0
  -22.7232  -10.2109   20.3040 C   0  0  0  0  0  0
  -21.6855   -6.0723   22.5276 C   0  0  0  0  0  0
  -21.4015   -6.5633   23.8206 C   0  0  0  0  0  0
  -21.3669   -5.6793   24.9174 C   0  0  0  0  0  0
  -21.6047   -4.3053   24.7225 C   0  0  0  0  0  0
  -21.8822   -3.8141   23.4345 C   0  0  0  0  0  0
  -21.9193   -4.6952   22.3398 C   0  0  0  0  0  0
  -22.7800  -13.5172   21.1862 C   0  0  0  0  0  0
  -22.1664   -4.2135   21.0976 F   0  0  0  0  0  0
  -21.5630   -3.4537   25.7742 F   0  0  0  0  0  0
  -29.9728  -13.6251   20.4086 N   0  0  0  0  0  0
  -26.2930  -12.9419   20.3342 N   0  0  0  0  0  0
  -25.9336  -11.6537   20.5770 N   0  0  0  0  0  0
  -22.0474  -12.8155   22.0435 N   0  0  0  0  0  0
  -25.4043  -15.1904   20.4264 N   0  0  0  0  0  0
  -31.7082  -15.0386   20.1074 O   0  0  0  0  0  0
  -21.6639   -6.8867   21.4240 O   0  0  0  0  0  0
  -22.3472  -14.5475   20.6730 O   0  0  0  0  0  0
  -24.6418  -31.8461   23.1908 C   0  0  0  0  0  0
  -25.9191  -32.4699   23.8300 C   0  0  1  0  0  0
  -27.2168  -27.1576   20.1411 C   0  0  0  0  0  0
  -25.5946  -33.8508   24.2207 N   0  0  0  0  0  0
  -23.4435  -30.4667   21.5384 C   0  0  2  0  0  0
  -24.8906  -28.8991   20.1105 C   0  0  0  0  0  0
  -22.7559  -29.4549   22.4883 C   0  0  0  0  0  0
  -18.0301  -28.1379   22.8476 C   0  0  0  0  0  0
  -24.1479  -36.7270   23.2645 C   0  0  0  0  0  0
  -25.9983  -30.7264   21.3844 C   0  0  0  0  0  0
  -26.0689  -29.3394   20.7259 C   0  0  0  0  0  0
  -27.2344  -28.4861   20.7235 C   0  0  0  0  0  0
  -26.0091  -26.8136   19.4917 C   0  0  0  0  0  0
  -24.8732  -27.6492   19.4781 C   0  0  0  0  0  0
  -23.6672  -29.8007   20.1557 C   0  0  0  0  0  0
  -25.4111  -36.3045   24.0319 C   0  0  1  0  0  0
  -20.5913  -28.3698   23.1233 C   0  0  2  0  0  0
  -20.6774  -26.9405   22.5399 C   0  0  0  0  0  0
  -19.5740  -26.6369   21.5201 C   0  0  0  0  0  0
  -18.1918  -26.7915   22.1612 C   0  0  0  0  0  0
  -19.1566  -28.8862   23.2839 C   0  0  0  0  0  0
  -18.9480  -30.1461   23.8853 C   0  0  0  0  0  0
  -17.6475  -30.6568   24.0552 C   0  0  0  0  0  0
  -25.9065  -34.9414   23.5069 C   0  0  0  0  0  0
  -16.5363  -29.9067   23.6331 C   0  0  0  0  0  0
  -16.7289  -28.6495   23.0341 C   0  0  0  0  0  0
  -26.4506  -31.6567   25.0738 C   0  0  0  0  0  0
  -25.3687  -31.3760   26.1437 C   0  0  0  0  0  0
  -27.0356  -30.2961   24.6318 C   0  0  0  0  0  0
  -27.6041  -32.4332   25.7505 C   0  0  0  0  0  0
  -27.5563  -37.1794   24.8463 C   0  0  0  0  0  0
  -21.4259  -29.3041   22.3639 N   0  0  0  0  0  0
  -26.4271  -37.3758   23.9411 N   0  0  0  0  0  0
  -24.7143  -31.0338   22.0929 N   0  0  0  0  0  0
  -23.4214  -28.8078   23.3021 O   0  0  0  0  0  0
  -28.2790  -26.1861   20.1977 O   0  0  0  0  0  0
  -26.5661  -34.8899   22.4657 O   0  0  0  0  0  0
  -23.5537  -32.1339   23.7134 O   0  0  0  0  0  0
  -30.2431  -19.9460   20.1661 C   0  0  0  0  0  0
  -30.5398  -18.5108   20.2341 C   0  0  0  0  0  0
  -28.9406  -20.5183   20.4010 C   0  0  0  0  0  0
  -29.5617  -17.5005   20.5561 C   0  0  0  0  0  0
  -27.9802  -19.4981   20.6978 C   0  0  0  0  0  0
  -28.2786  -18.0851   20.7835 C   0  0  0  0  0  0
  -29.0223  -23.3611   20.2839 C   0  0  0  0  0  0
  -27.9780  -24.6674   20.1219 C   0  0  0  0  0  0
  -26.6520  -19.9014   20.8905 N   0  0  0  0  0  0
  -29.6594  -15.9812   20.6971 N   0  0  0  0  0  0
  -28.4512  -21.9217   20.3724 N   0  0  0  0  0  0
  -27.2619  -17.2400   21.0836 F   0  0  0  0  0  0
  -31.4853  -12.7171   19.1875 H   0  0  0  0  0  0
  -30.4346  -11.5877   19.9991 H   0  0  0  0  0  0
  -29.8303  -11.7645   17.5549 H   0  0  0  0  0  0
  -29.6156  -13.4903   17.7210 H   0  0  0  0  0  0
  -27.9417  -11.2841   18.9596 H   0  0  0  0  0  0
  -27.3908  -12.4863   17.8218 H   0  0  0  0  0  0
  -27.6145  -14.2548   19.4548 H   0  0  0  0  0  0
  -28.7615  -12.2193   21.4318 H   0  0  0  0  0  0
  -28.3966  -13.8844   21.8027 H   0  0  0  0  0  0
  -25.2755   -9.5679   22.4744 H   0  0  0  0  0  0
  -23.9998   -7.4632   22.7474 H   0  0  0  0  0  0
  -21.0839   -8.8749   19.8954 H   0  0  0  0  0  0
  -22.3679  -10.9649   19.6153 H   0  0  0  0  0  0
  -21.2011   -7.6142   23.9702 H   0  0  0  0  0  0
  -21.1495   -6.0526   25.9075 H   0  0  0  0  0  0
  -22.0592   -2.7596   23.2855 H   0  0  0  0  0  0
  -22.4119  -11.9812   22.4795 H   0  0  0  0  0  0
  -21.1096  -13.1178   22.2679 H   0  0  0  0  0  0
  -24.6362  -15.8287   20.5946 H   0  0  0  0  0  0
  -26.2817  -15.6745   20.2834 H   0  0  0  0  0  0
  -26.7268  -32.5323   23.1046 H   0  0  0  0  0  0
  -25.0061  -33.9634   25.0330 H   0  0  0  0  0  0
  -22.7442  -31.2926   21.3889 H   0  0  0  0  0  0
  -23.3741  -35.9592   23.3279 H   0  0  0  0  0  0
  -24.3579  -36.8950   22.2068 H   0  0  0  0  0  0
  -23.7225  -37.6453   23.6709 H   0  0  0  0  0  0
  -26.1484  -31.4821   20.6116 H   0  0  0  0  0  0
  -26.8699  -30.7814   22.0261 H   0  0  0  0  0  0
  -28.1354  -28.8193   21.2182 H   0  0  0  0  0  0
  -25.9020  -25.8625   18.9941 H   0  0  0  0  0  0
  -23.9751  -27.3102   18.9815 H   0  0  0  0  0  0
  -23.8026  -30.5783   19.4016 H   0  0  0  0  0  0
  -22.7816  -29.2455   19.8440 H   0  0  0  0  0  0
  -25.1285  -36.1879   25.0805 H   0  0  0  0  0  0
  -20.9994  -28.3280   24.1370 H   0  0  0  0  0  0
  -20.5650  -26.2315   23.3624 H   0  0  0  0  0  0
  -21.6642  -26.7390   22.1208 H   0  0  0  0  0  0
  -19.6890  -25.6264   21.1258 H   0  0  0  0  0  0
  -19.6663  -27.3161   20.6705 H   0  0  0  0  0  0
  -17.4188  -26.6679   21.4007 H   0  0  0  0  0  0
  -18.0306  -26.0044   22.9003 H   0  0  0  0  0  0
  -19.7953  -30.7291   24.2195 H   0  0  0  0  0  0
  -17.5024  -31.6248   24.5162 H   0  0  0  0  0  0
  -15.5358  -30.2951   23.7667 H   0  0  0  0  0  0
  -15.8690  -28.0800   22.7050 H   0  0  0  0  0  0
  -24.5864  -30.7106   25.7771 H   0  0  0  0  0  0
  -24.8858  -32.2935   26.4808 H   0  0  0  0  0  0
  -25.7967  -30.8980   27.0257 H   0  0  0  0  0  0
  -26.2965  -29.6702   24.1304 H   0  0  0  0  0  0
  -27.3947  -29.7249   25.4887 H   0  0  0  0  0  0
  -27.8884  -30.4184   23.9635 H   0  0  0  0  0  0
  -27.2655  -33.3689   26.1961 H   0  0  0  0  0  0
  -28.3899  -32.6810   25.0356 H   0  0  0  0  0  0
  -28.0643  -31.8538   26.5523 H   0  0  0  0  0  0
  -28.2571  -38.0091   24.7511 H   0  0  0  0  0  0
  -28.1077  -36.2639   24.6288 H   0  0  0  0  0  0
  -27.2305  -37.1443   25.8869 H   0  0  0  0  0  0
  -20.9477  -29.8836   21.6880 H   0  0  0  0  0  0
  -26.0145  -38.2827   24.1412 H   0  0  0  0  0  0
  -31.0527  -20.6165   19.9159 H   0  0  0  0  0  0
  -31.5534  -18.1936   20.0349 H   0  0  0  0  0  0
  -29.6175  -23.5207   21.1837 H   0  0  0  0  0  0
  -29.7374  -23.3860   19.4611 H   0  0  0  0  0  0
  -27.1844  -24.5057   20.8533 H   0  0  0  0  0  0
  -27.5111  -24.5024   19.1522 H   0  0  0  0  0  0
  -26.3248  -20.5613   20.1954 H   0  0  0  0  0  0
  -26.0145  -19.1135   20.9462 H   0  0  0  0  0  0
  -28.7684  -15.6142   20.9953 H   0  0  0  0  0  0
  -27.4943  -21.9166   20.7237 H   0  0  0  0  0  0
  1 25  1  0  0  0
  1 30  2  0  0  0
  1 80  1  0  0  0
  2  3  1  0  0  0
  2 25  1  0  0  0
  2 83  1  0  0  0
  2 84  1  0  0  0
  3  4  1  0  0  0
  3 85  1  0  0  0
  3 86  1  0  0  0
  4  5  1  0  0  0
  4 87  1  0  0  0
  4 88  1  0  0  0
  5  6  1  0  0  0
  5 26  1  0  0  0
  5 89  1  0  0  0
  6 25  1  0  0  0
  6 90  1  0  0  0
  6 91  1  0  0  0
  7  8  2  0  0  0
  7 26  1  0  0  0
  7 29  1  0  0  0
  8  9  1  0  0  0
  8 22  1  0  0  0
  9 10  1  0  0  0
  9 27  2  0  0  0
 10 11  2  0  0  0
 10 15  1  0  0  0
 11 12  1  0  0  0
 11 92  1  0  0  0
 12 13  2  0  0  0
 12 93  1  0  0  0
 13 14  1  0  0  0
 13 31  1  0  0  0
 14 15  2  0  0  0
 14 94  1  0  0  0
 15 95  1  0  0  0
 16 17  2  0  0  0
 16 21  1  0  0  0
 16 31  1  0  0  0
 17 18  1  0  0  0
 17 96  1  0  0  0
 18 19  2  0  0  0
 18 97  1  0  0  0
 19 20  1  0  0  0
 19 24  1  0  0  0
 20 21  2  0  0  0
 20 98  1  0  0  0
 21 23  1  0  0  0
 22 28  1  0  0  0
 22 32  2  0  0  0
 26 27  1  0  0  0
 28 99  1  0  0  0
 28100  1  0  0  0
 29101  1  0  0  0
 29102  1  0  0  0
 33 34  1  0  0  0
 33 66  1  0  0  0
 33 70  2  0  0  0
 34 36  1  0  0  0
 34 59  1  0  0  0
 34103  1  0  0  0
 35 44  2  0  0  0
 35 45  1  0  0  0
 35 68  1  0  0  0
 36 56  1  0  0  0
 36104  1  0  0  0
 37 39  1  0  0  0
 37 47  1  0  0  0
 37 66  1  0  0  0
 37105  1  0  0  0
 38 43  2  0  0  0
 38 46  1  0  0  0
 38 47  1  0  0  0
 39 64  1  0  0  0
 39 67  2  0  0  0
 40 52  1  0  0  0
 40 53  2  0  0  0
 40 58  1  0  0  0
 41106  1  0  0  0
 41107  1  0  0  0
 41108  1  0  0  0
 41 48  1  0  0  0
 42 43  1  0  0  0
 42 66  1  0  0  0
 42109  1  0  0  0
 42110  1  0  0  0
 43 44  1  0  0  0
 44111  1  0  0  0
 45 46  2  0  0  0
 45112  1  0  0  0
 46113  1  0  0  0
 47114  1  0  0  0
 47115  1  0  0  0
 48 56  1  0  0  0
 48 65  1  0  0  0
 48116  1  0  0  0
 49 50  1  0  0  0
 49 53  1  0  0  0
 49 64  1  0  0  0
 49117  1  0  0  0
 50 51  1  0  0  0
 50118  1  0  0  0
 50119  1  0  0  0
 51 52  1  0  0  0
 51120  1  0  0  0
 51121  1  0  0  0
 52122  1  0  0  0
 52123  1  0  0  0
 53 54  1  0  0  0
 54 55  2  0  0  0
 54124  1  0  0  0
 55 57  1  0  0  0
 55125  1  0  0  0
 56 69  2  0  0  0
 57 58  2  0  0  0
 57126  1  0  0  0
 58127  1  0  0  0
 59 60  1  0  0  0
 59 61  1  0  0  0
 59 62  1  0  0  0
 60128  1  0  0  0
 60129  1  0  0  0
 60130  1  0  0  0
 61131  1  0  0  0
 61132  1  0  0  0
 61133  1  0  0  0
 62134  1  0  0  0
 62135  1  0  0  0
 62136  1  0  0  0
 63 65  1  0  0  0
 63137  1  0  0  0
 63138  1  0  0  0
 63139  1  0  0  0
 64140  1  0  0  0
 65141  1  0  0  0
 68 78  1  0  0  0
 71 72  2  0  0  0
 71 73  1  0  0  0
 71142  1  0  0  0
 72 74  1  0  0  0
 72143  1  0  0  0
 73 75  2  0  0  0
 73 81  1  0  0  0
 74 76  2  0  0  0
 74 80  1  0  0  0
 75 76  1  0  0  0
 75 79  1  0  0  0
 76 82  1  0  0  0
 77 78  1  0  0  0
 77 81  1  0  0  0
 77144  1  0  0  0
 77145  1  0  0  0
 78146  1  0  0  0
 78147  1  0  0  0
 79148  1  0  0  0
 79149  1  0  0  0
 80150  1  0  0  0
 81151  1  0  0  0
M  ISO  4   1 100  68 101  78 101  80 100
M  END
> <chiral flag>
0

> <version>
0

> <s_m_source_file>
/data/baiqing/PycharmProjects/Reinvent-master-3.2/result/LINK_invent/BTK/process_docking_weight1_custom_product_contain_oxygen_bond_distance_aromatic_linkinvent_7_9_3/rearranged_h_0096.sdf

> <i_m_source_file_index>
38

> <r_mmod_Potential_Energy-OPLS-2005>
371.004272460938

> <r_mmod_Stretch_Energy-OPLS-2005>
203.502212524414

> <r_mmod_Bend_Energy-OPLS-2005>
293.123748779297

> <r_mmod_Torsional_Energy-OPLS-2005>
211.987503051758

> <r_mmod_Improper_Torsional_Energy-OPLS-2005>
9.89907455444336

> <r_mmod_Van_der_Waal_Energy-OPLS-2005>
140.446487426758

> <r_mmod_Electrostatic_Energy-OPLS-2005>
-436.325805664062

> <r_mmod_Solvation_Energy-OPLS-2005>
-218.035751342773

> <b_mmod_Minimization_Converged-OPLS-2005>
0

> <r_mmod_RMS_Derivative-OPLS-2005>
2.453049659729

$$$$
38
                    3D
 Structure written by MMmdl.
159168  0  0  1  0            999 V2000
  -30.6351  -14.6819   20.5716 C   0  0  0  0  0  0
  -30.4331  -12.4413   19.4645 C   0  0  0  0  0  0
  -29.5073  -12.5283   18.2299 C   0  0  0  0  0  0
  -28.0322  -12.3464   18.6368 C   0  0  0  0  0  0
  -27.6480  -13.2195   19.8584 C   0  0  2  0  0  0
  -28.6826  -13.0749   20.9885 C   0  0  0  0  0  0
  -25.2548  -13.8166   20.5681 C   0  0  0  0  0  0
  -24.1815  -13.0433   20.9168 C   0  0  0  0  0  0
  -24.6380  -11.6899   20.8723 C   0  0  0  0  0  0
  -23.9059  -10.4288   21.0399 C   0  0  0  0  0  0
  -24.3612   -9.4212   21.9185 C   0  0  0  0  0  0
  -23.6289   -8.2247   22.0761 C   0  0  0  0  0  0
  -22.4278   -8.0281   21.3544 C   0  0  0  0  0  0
  -21.9905   -9.0252   20.4647 C   0  0  0  0  0  0
  -22.7230  -10.2129   20.3053 C   0  0  0  0  0  0
  -21.6854   -6.0725   22.5271 C   0  0  0  0  0  0
  -21.4017   -6.5631   23.8203 C   0  0  0  0  0  0
  -21.3664   -5.6787   24.9167 C   0  0  0  0  0  0
  -21.6040   -4.3047   24.7218 C   0  0  0  0  0  0
  -21.8822   -3.8140   23.4342 C   0  0  0  0  0  0
  -21.9195   -4.6954   22.3397 C   0  0  0  0  0  0
  -22.7847  -13.5230   21.1845 C   0  0  0  0  0  0
  -22.1666   -4.2145   21.0972 F   0  0  0  0  0  0
  -21.5631   -3.4534   25.7735 F   0  0  0  0  0  0
  -29.9960  -13.4631   20.4461 N   0  0  0  0  0  0
  -26.2951  -12.9342   20.3268 N   0  0  0  0  0  0
  -25.9302  -11.6498   20.5720 N   0  0  0  0  0  0
  -22.0510  -12.8210   22.0404 N   0  0  0  0  0  0
  -25.4301  -15.1886   20.4141 N   0  0  0  0  0  0
  -31.7508  -14.8398   20.0625 O   0  0  0  0  0  0
  -21.6643   -6.8877   21.4236 O   0  0  0  0  0  0
  -22.3536  -14.5549   20.6716 O   0  0  0  0  0  0
  -24.6276  -31.8567   23.2002 C   0  0  0  0  0  0
  -25.9113  -32.4759   23.8346 C   0  0  1  0  0  0
  -27.2219  -27.2975   20.1300 C   0  0  0  0  0  0
  -25.5915  -33.8560   24.2263 N   0  0  0  0  0  0
  -23.4227  -30.4782   21.5440 C   0  0  2  0  0  0
  -24.8696  -28.9256   20.1162 C   0  0  0  0  0  0
  -22.7481  -29.4606   22.4943 C   0  0  0  0  0  0
  -18.0283  -28.1390   22.8486 C   0  0  0  0  0  0
  -24.1486  -36.7286   23.2641 C   0  0  0  0  0  0
  -25.9649  -30.7833   21.3715 C   0  0  0  0  0  0
  -26.0409  -29.4074   20.7156 C   0  0  0  0  0  0
  -27.2242  -28.6070   20.7065 C   0  0  0  0  0  0
  -26.0285  -26.8638   19.5173 C   0  0  0  0  0  0
  -24.8649  -27.6588   19.5089 C   0  0  0  0  0  0
  -23.6391  -29.8096   20.1616 C   0  0  0  0  0  0
  -25.4111  -36.3070   24.0323 C   0  0  1  0  0  0
  -20.5883  -28.3697   23.1290 C   0  0  2  0  0  0
  -20.6779  -26.9423   22.5419 C   0  0  0  0  0  0
  -19.5758  -26.6394   21.5214 C   0  0  0  0  0  0
  -18.1935  -26.7937   22.1610 C   0  0  0  0  0  0
  -19.1537  -28.8859   23.2879 C   0  0  0  0  0  0
  -18.9462  -30.1457   23.8904 C   0  0  0  0  0  0
  -17.6468  -30.6599   24.0563 C   0  0  0  0  0  0
  -25.9051  -34.9440   23.5102 C   0  0  0  0  0  0
  -16.5354  -29.9098   23.6337 C   0  0  0  0  0  0
  -16.7269  -28.6508   23.0374 C   0  0  0  0  0  0
  -26.4508  -31.6586   25.0726 C   0  0  0  0  0  0
  -25.3750  -31.3691   26.1455 C   0  0  0  0  0  0
  -27.0369  -30.3013   24.6191 C   0  0  0  0  0  0
  -27.6056  -32.4346   25.7499 C   0  0  0  0  0  0
  -27.5584  -37.1782   24.8452 C   0  0  0  0  0  0
  -21.4194  -29.3034   22.3674 N   0  0  0  0  0  0
  -26.4278  -37.3779   23.9423 N   0  0  0  0  0  0
  -24.6910  -31.0561   22.0962 N   0  0  0  0  0  0
  -23.4187  -28.8153   23.3042 O   0  0  0  0  0  0
  -28.3330  -26.4378   20.1341 O   0  0  0  0  0  0
  -26.5638  -34.8914   22.4680 O   0  0  0  0  0  0
  -23.5433  -32.1376   23.7312 O   0  0  0  0  0  0
  -28.9483  -19.4931   21.1530 C   0  0  0  0  0  0
  -30.0260  -18.9893   19.0878 C   0  0  0  0  0  0
  -29.1600  -18.1339   21.5606 C   0  0  0  0  0  0
  -30.2283  -17.6303   19.4891 C   0  0  0  0  0  0
  -29.3499  -19.9793   19.8793 C   0  0  0  0  0  0
  -29.8013  -17.1367   20.7508 C   0  0  0  0  0  0
  -28.8590  -22.5339   20.2165 C   0  0  0  0  0  0
  -28.5182  -23.8088   19.7805 C   0  0  0  0  0  0
  -28.8492  -21.5457   18.0361 C   0  0  0  0  0  0
  -28.3602  -24.0583   18.2952 C   0  0  0  0  0  0
  -29.0160  -22.9561   17.4503 C   0  0  0  0  0  0
  -29.8228  -15.5354   22.6750 C   0  0  0  0  0  0
  -28.1639  -25.0590   20.6785 C   0  0  0  0  0  0
  -29.0669  -21.3642   19.3737 N   0  0  0  0  0  0
  -29.9954  -15.7328   21.2255 N   0  0  0  0  0  0
  -28.5151  -20.6460   17.2556 O   0  0  0  0  0  0
  -31.4734  -12.5725   19.1641 H   0  0  0  0  0  0
  -30.3832  -11.4474   19.9112 H   0  0  0  0  0  0
  -29.7867  -11.7724   17.4945 H   0  0  0  0  0  0
  -29.6347  -13.4953   17.7407 H   0  0  0  0  0  0
  -27.8840  -11.2930   18.8784 H   0  0  0  0  0  0
  -27.3730  -12.5608   17.7953 H   0  0  0  0  0  0
  -27.6684  -14.2564   19.5234 H   0  0  0  0  0  0
  -28.7153  -12.0461   21.3516 H   0  0  0  0  0  0
  -28.3689  -13.6665   21.8428 H   0  0  0  0  0  0
  -25.2752   -9.5691   22.4763 H   0  0  0  0  0  0
  -23.9992   -7.4647   22.7490 H   0  0  0  0  0  0
  -21.0836   -8.8762   19.8963 H   0  0  0  0  0  0
  -22.3679  -10.9667   19.6167 H   0  0  0  0  0  0
  -21.2017   -7.6138   23.9704 H   0  0  0  0  0  0
  -21.1483   -6.0516   25.9069 H   0  0  0  0  0  0
  -22.0603   -2.7603   23.2837 H   0  0  0  0  0  0
  -22.4135  -11.9841   22.4730 H   0  0  0  0  0  0
  -21.1140  -13.1233   22.2660 H   0  0  0  0  0  0
  -24.6743  -15.8521   20.5424 H   0  0  0  0  0  0
  -26.2955  -15.6260   20.1218 H   0  0  0  0  0  0
  -26.7180  -32.5429   23.1093 H   0  0  0  0  0  0
  -25.0038  -33.9699   25.0391 H   0  0  0  0  0  0
  -22.7176  -31.2988   21.3982 H   0  0  0  0  0  0
  -23.3757  -35.9604   23.3258 H   0  0  0  0  0  0
  -24.3590  -36.8972   22.2069 H   0  0  0  0  0  0
  -23.7220  -37.6457   23.6710 H   0  0  0  0  0  0
  -26.0959  -31.5456   20.6023 H   0  0  0  0  0  0
  -26.8450  -30.8345   22.0011 H   0  0  0  0  0  0
  -28.1261  -28.9728   21.1768 H   0  0  0  0  0  0
  -25.9875  -25.8884   19.0553 H   0  0  0  0  0  0
  -23.9642  -27.2803   19.0454 H   0  0  0  0  0  0
  -23.7606  -30.5857   19.4055 H   0  0  0  0  0  0
  -22.7585  -29.2402   19.8598 H   0  0  0  0  0  0
  -25.1285  -36.1919   25.0811 H   0  0  0  0  0  0
  -20.9964  -28.3284   24.1415 H   0  0  0  0  0  0
  -20.5714  -26.2297   23.3608 H   0  0  0  0  0  0
  -21.6650  -26.7479   22.1199 H   0  0  0  0  0  0
  -19.6940  -25.6309   21.1245 H   0  0  0  0  0  0
  -19.6717  -27.3201   20.6743 H   0  0  0  0  0  0
  -17.4217  -26.6699   21.3998 H   0  0  0  0  0  0
  -18.0312  -26.0072   22.8992 H   0  0  0  0  0  0
  -19.7939  -30.7259   24.2296 H   0  0  0  0  0  0
  -17.5027  -31.6288   24.5153 H   0  0  0  0  0  0
  -15.5360  -30.3011   23.7662 H   0  0  0  0  0  0
  -15.8658  -28.0823   22.7125 H   0  0  0  0  0  0
  -24.5970  -30.6977   25.7792 H   0  0  0  0  0  0
  -24.8873  -32.2821   26.4866 H   0  0  0  0  0  0
  -25.8097  -30.8908   27.0239 H   0  0  0  0  0  0
  -26.2943  -29.6731   24.1238 H   0  0  0  0  0  0
  -27.4099  -29.7297   25.4699 H   0  0  0  0  0  0
  -27.8797  -30.4299   23.9392 H   0  0  0  0  0  0
  -27.2668  -33.3669   26.2025 H   0  0  0  0  0  0
  -28.3884  -32.6873   25.0337 H   0  0  0  0  0  0
  -28.0697  -31.8509   26.5457 H   0  0  0  0  0  0
  -28.2546  -38.0135   24.7588 H   0  0  0  0  0  0
  -28.1143  -36.2672   24.6169 H   0  0  0  0  0  0
  -27.2315  -37.1305   25.8855 H   0  0  0  0  0  0
  -20.9387  -29.8713   21.6835 H   0  0  0  0  0  0
  -26.0151  -38.2833   24.1487 H   0  0  0  0  0  0
  -28.4336  -20.1563   21.8340 H   0  0  0  0  0  0
  -30.4013  -19.2554   18.1093 H   0  0  0  0  0  0
  -28.7908  -17.8735   22.5423 H   0  0  0  0  0  0
  -30.7311  -16.9686   18.7981 H   0  0  0  0  0  0
  -28.9531  -22.3105   21.2681 H   0  0  0  0  0  0
  -28.8101  -25.0179   18.0383 H   0  0  0  0  0  0
  -27.2985  -24.1381   18.0606 H   0  0  0  0  0  0
  -28.6237  -22.9859   16.4333 H   0  0  0  0  0  0
  -30.0867  -23.1477   17.3706 H   0  0  0  0  0  0
  -30.3680  -16.2963   23.2353 H   0  0  0  0  0  0
  -30.1928  -14.5732   23.0354 H   0  0  0  0  0  0
  -28.7688  -15.6035   22.9477 H   0  0  0  0  0  0
  -28.7641  -24.9935   21.5863 H   0  0  0  0  0  0
  -27.1359  -24.9194   21.0154 H   0  0  0  0  0  0
  1 25  1  0  0  0
  1 30  2  0  0  0
  1 85  1  0  0  0
  2  3  1  0  0  0
  2 25  1  0  0  0
  2 87  1  0  0  0
  2 88  1  0  0  0
  3  4  1  0  0  0
  3 89  1  0  0  0
  3 90  1  0  0  0
  4  5  1  0  0  0
  4 91  1  0  0  0
  4 92  1  0  0  0
  5  6  1  0  0  0
  5 26  1  0  0  0
  5 93  1  0  0  0
  6 25  1  0  0  0
  6 94  1  0  0  0
  6 95  1  0  0  0
  7  8  2  0  0  0
  7 26  1  0  0  0
  7 29  1  0  0  0
  8  9  1  0  0  0
  8 22  1  0  0  0
  9 10  1  0  0  0
  9 27  2  0  0  0
 10 11  2  0  0  0
 10 15  1  0  0  0
 11 12  1  0  0  0
 11 96  1  0  0  0
 12 13  2  0  0  0
 12 97  1  0  0  0
 13 14  1  0  0  0
 13 31  1  0  0  0
 14 15  2  0  0  0
 14 98  1  0  0  0
 15 99  1  0  0  0
 16 17  2  0  0  0
 16 21  1  0  0  0
 16 31  1  0  0  0
 17 18  1  0  0  0
 17100  1  0  0  0
 18 19  2  0  0  0
 18101  1  0  0  0
 19 20  1  0  0  0
 19 24  1  0  0  0
 20 21  2  0  0  0
 20102  1  0  0  0
 21 23  1  0  0  0
 22 28  1  0  0  0
 22 32  2  0  0  0
 26 27  1  0  0  0
 28103  1  0  0  0
 28104  1  0  0  0
 29105  1  0  0  0
 29106  1  0  0  0
 33 34  1  0  0  0
 33 66  1  0  0  0
 33 70  2  0  0  0
 34 36  1  0  0  0
 34 59  1  0  0  0
 34107  1  0  0  0
 35 44  2  0  0  0
 35 45  1  0  0  0
 35 68  1  0  0  0
 36 56  1  0  0  0
 36108  1  0  0  0
 37 39  1  0  0  0
 37 47  1  0  0  0
 37 66  1  0  0  0
 37109  1  0  0  0
 38 43  2  0  0  0
 38 46  1  0  0  0
 38 47  1  0  0  0
 39 64  1  0  0  0
 39 67  2  0  0  0
 40 52  1  0  0  0
 40 53  2  0  0  0
 40 58  1  0  0  0
 41110  1  0  0  0
 41111  1  0  0  0
 41112  1  0  0  0
 41 48  1  0  0  0
 42 43  1  0  0  0
 42 66  1  0  0  0
 42113  1  0  0  0
 42114  1  0  0  0
 43 44  1  0  0  0
 44115  1  0  0  0
 45 46  2  0  0  0
 45116  1  0  0  0
 46117  1  0  0  0
 47118  1  0  0  0
 47119  1  0  0  0
 48 56  1  0  0  0
 48 65  1  0  0  0
 48120  1  0  0  0
 49 50  1  0  0  0
 49 53  1  0  0  0
 49 64  1  0  0  0
 49121  1  0  0  0
 50 51  1  0  0  0
 50122  1  0  0  0
 50123  1  0  0  0
 51 52  1  0  0  0
 51124  1  0  0  0
 51125  1  0  0  0
 52126  1  0  0  0
 52127  1  0  0  0
 53 54  1  0  0  0
 54 55  2  0  0  0
 54128  1  0  0  0
 55 57  1  0  0  0
 55129  1  0  0  0
 56 69  2  0  0  0
 57 58  2  0  0  0
 57130  1  0  0  0
 58131  1  0  0  0
 59 60  1  0  0  0
 59 61  1  0  0  0
 59 62  1  0  0  0
 60132  1  0  0  0
 60133  1  0  0  0
 60134  1  0  0  0
 61135  1  0  0  0
 61136  1  0  0  0
 61137  1  0  0  0
 62138  1  0  0  0
 62139  1  0  0  0
 62140  1  0  0  0
 63 65  1  0  0  0
 63141  1  0  0  0
 63142  1  0  0  0
 63143  1  0  0  0
 64144  1  0  0  0
 65145  1  0  0  0
 68 83  1  0  0  0
 71 73  2  0  0  0
 71 75  1  0  0  0
 71146  1  0  0  0
 72 74  1  0  0  0
 72 75  2  0  0  0
 72147  1  0  0  0
 73 76  1  0  0  0
 73148  1  0  0  0
 74 76  2  0  0  0
 74149  1  0  0  0
 75 84  1  0  0  0
 76 85  1  0  0  0
 77 78  2  0  0  0
 77 84  1  0  0  0
 77150  1  0  0  0
 78 80  1  0  0  0
 78 83  1  0  0  0
 79 81  1  0  0  0
 79 84  1  0  0  0
 79 86  2  0  0  0
 80 81  1  0  0  0
 80151  1  0  0  0
 80152  1  0  0  0
 81153  1  0  0  0
 81154  1  0  0  0
 82 85  1  0  0  0
 82155  1  0  0  0
 82156  1  0  0  0
 82157  1  0  0  0
 83158  1  0  0  0
 83159  1  0  0  0
M  ISO  4   1 100  68 101  83 101  85 100
M  END
> <chiral flag>
0

> <version>
0

> <s_m_source_file>
/data/baiqing/PycharmProjects/Reinvent-master-3.2/result/LINK_invent/BTK/process_docking_weight1_custom_product_contain_oxygen_bond_distance_aromatic_linkinvent_7_9_3/rearranged_h_0096.sdf

> <i_m_source_file_index>
39

> <r_mmod_Potential_Energy-OPLS-2005>
387.926116943359

> <r_mmod_Stretch_Energy-OPLS-2005>
118.481025695801

> <r_mmod_Bend_Energy-OPLS-2005>
152.438461303711

> <r_mmod_Torsional_Energy-OPLS-2005>
330.118041992188

> <r_mmod_Improper_Torsional_Energy-OPLS-2005>
2.81595468521118

> <r_mmod_Van_der_Waal_Energy-OPLS-2005>
173.842819213867

> <r_mmod_Electrostatic_Energy-OPLS-2005>
-247.262817382812

> <r_mmod_Solvation_Energy-OPLS-2005>
-200.277435302734

> <b_mmod_Minimization_Converged-OPLS-2005>
0

> <r_mmod_RMS_Derivative-OPLS-2005>
1.52855551242828

$$$$
39
                    3D
 Structure written by MMmdl.
160169  0  0  1  0            999 V2000
  -30.7196  -14.5442   20.6289 C   0  0  0  0  0  0
  -30.4249  -12.3695   19.4452 C   0  0  0  0  0  0
  -29.5052  -12.5306   18.2210 C   0  0  0  0  0  0
  -28.0252  -12.3910   18.6207 C   0  0  0  0  0  0
  -27.6618  -13.2253   19.8772 C   0  0  2  0  0  0
  -28.6987  -13.0381   21.0024 C   0  0  0  0  0  0
  -25.2577  -13.8196   20.5704 C   0  0  0  0  0  0
  -24.1847  -13.0437   20.9169 C   0  0  0  0  0  0
  -24.6419  -11.6909   20.8715 C   0  0  0  0  0  0
  -23.9059  -10.4287   21.0368 C   0  0  0  0  0  0
  -24.3583   -9.4200   21.9154 C   0  0  0  0  0  0
  -23.6254   -8.2237   22.0737 C   0  0  0  0  0  0
  -22.4232   -8.0272   21.3542 C   0  0  0  0  0  0
  -21.9867   -9.0236   20.4641 C   0  0  0  0  0  0
  -22.7209  -10.2115   20.3035 C   0  0  0  0  0  0
  -21.6841   -6.0701   22.5251 C   0  0  0  0  0  0
  -21.4018   -6.5605   23.8181 C   0  0  0  0  0  0
  -21.3664   -5.6770   24.9157 C   0  0  0  0  0  0
  -21.6044   -4.3027   24.7203 C   0  0  0  0  0  0
  -21.8822   -3.8113   23.4324 C   0  0  0  0  0  0
  -21.9192   -4.6935   22.3381 C   0  0  0  0  0  0
  -22.7859  -13.5196   21.1812 C   0  0  0  0  0  0
  -22.1657   -4.2135   21.0955 F   0  0  0  0  0  0
  -21.5615   -3.4512   25.7707 F   0  0  0  0  0  0
  -30.0295  -13.3681   20.4590 N   0  0  0  0  0  0
  -26.3043  -12.9404   20.3387 N   0  0  0  0  0  0
  -25.9371  -11.6551   20.5782 N   0  0  0  0  0  0
  -22.0504  -12.8198   22.0395 N   0  0  0  0  0  0
  -25.4224  -15.1920   20.4093 N   0  0  0  0  0  0
  -31.7642  -14.7659   20.0083 O   0  0  0  0  0  0
  -21.6609   -6.8849   21.4225 O   0  0  0  0  0  0
  -22.3530  -14.5485   20.6644 O   0  0  0  0  0  0
  -24.6203  -31.8644   23.2090 C   0  0  0  0  0  0
  -25.9090  -32.4786   23.8378 C   0  0  1  0  0  0
  -27.2300  -27.3890   20.1148 C   0  0  0  0  0  0
  -25.5911  -33.8577   24.2309 N   0  0  0  0  0  0
  -23.4092  -30.4918   21.5487 C   0  0  2  0  0  0
  -24.8592  -28.9596   20.1026 C   0  0  0  0  0  0
  -22.7438  -29.4659   22.4945 C   0  0  0  0  0  0
  -18.0282  -28.1409   22.8455 C   0  0  0  0  0  0
  -24.1481  -36.7308   23.2641 C   0  0  0  0  0  0
  -25.9418  -30.8214   21.3639 C   0  0  0  0  0  0
  -26.0229  -29.4555   20.7082 C   0  0  0  0  0  0
  -27.2147  -28.6800   20.7131 C   0  0  0  0  0  0
  -26.0526  -26.9279   19.4920 C   0  0  0  0  0  0
  -24.8734  -27.6971   19.4883 C   0  0  0  0  0  0
  -23.6230  -29.8336   20.1583 C   0  0  0  0  0  0
  -25.4094  -36.3080   24.0341 C   0  0  1  0  0  0
  -20.5867  -28.3714   23.1283 C   0  0  2  0  0  0
  -20.6780  -26.9433   22.5433 C   0  0  0  0  0  0
  -19.5778  -26.6409   21.5198 C   0  0  0  0  0  0
  -18.1938  -26.7948   22.1575 C   0  0  0  0  0  0
  -19.1521  -28.8879   23.2867 C   0  0  0  0  0  0
  -18.9450  -30.1470   23.8915 C   0  0  0  0  0  0
  -17.6457  -30.6599   24.0587 C   0  0  0  0  0  0
  -25.9046  -34.9452   23.5130 C   0  0  0  0  0  0
  -16.5360  -29.9108   23.6315 C   0  0  0  0  0  0
  -16.7269  -28.6527   23.0321 C   0  0  0  0  0  0
  -26.4517  -31.6558   25.0711 C   0  0  0  0  0  0
  -25.3783  -31.3642   26.1458 C   0  0  0  0  0  0
  -27.0346  -30.2987   24.6111 C   0  0  0  0  0  0
  -27.6102  -32.4275   25.7450 C   0  0  0  0  0  0
  -27.5578  -37.1789   24.8445 C   0  0  0  0  0  0
  -21.4168  -29.3043   22.3655 N   0  0  0  0  0  0
  -26.4262  -37.3789   23.9438 N   0  0  0  0  0  0
  -24.6757  -31.0724   22.0993 N   0  0  0  0  0  0
  -23.4191  -28.8210   23.3018 O   0  0  0  0  0  0
  -28.3125  -26.5194   20.1905 O   0  0  0  0  0  0
  -26.5628  -34.8925   22.4703 O   0  0  0  0  0  0
  -23.5393  -32.1435   23.7448 O   0  0  0  0  0  0
  -29.7151  -19.1838   22.2422 C   0  0  0  0  0  0
  -29.9846  -17.8023   22.4031 C   0  0  0  0  0  0
  -29.8305  -17.4867   20.0326 C   0  0  0  0  0  0
  -29.4589  -19.7748   20.9757 C   0  0  0  0  0  0
  -30.0348  -16.8930   21.3098 C   0  0  0  0  0  0
  -29.5529  -18.8800   19.8668 C   0  0  0  0  0  0
  -28.3657  -24.1037   20.8462 C   0  0  0  0  0  0
  -28.0734  -25.4275   21.0200 C   0  0  0  0  0  0
  -27.7182  -23.0818   21.7787 C   0  0  0  0  0  0
  -29.1222  -23.4536   19.6827 C   0  0  0  0  0  0
  -28.5346  -21.8030   22.0681 C   0  0  0  0  0  0
  -29.8515  -22.0951   20.0198 C   0  0  0  0  0  0
  -30.3936  -15.0151   22.9472 C   0  0  0  0  0  0
  -29.0726  -21.1627   20.8616 N   0  0  0  0  0  0
  -30.2517  -15.4519   21.5462 N   0  0  0  0  0  0
  -29.3330  -19.3463   18.6122 F   0  0  0  0  0  0
  -31.4694  -12.4639   19.1430 H   0  0  0  0  0  0
  -30.3335  -11.3653   19.8608 H   0  0  0  0  0  0
  -29.7548  -11.7909   17.4599 H   0  0  0  0  0  0
  -29.6746  -13.5072   17.7641 H   0  0  0  0  0  0
  -27.8313  -11.3335   18.8039 H   0  0  0  0  0  0
  -27.3851  -12.6802   17.7871 H   0  0  0  0  0  0
  -27.6983  -14.2747   19.5839 H   0  0  0  0  0  0
  -28.6916  -12.0095   21.3641 H   0  0  0  0  0  0
  -28.4246  -13.6525   21.8610 H   0  0  0  0  0  0
  -25.2726   -9.5674   22.4742 H   0  0  0  0  0  0
  -23.9959   -7.4631   22.7455 H   0  0  0  0  0  0
  -21.0787   -8.8729   19.8964 H   0  0  0  0  0  0
  -22.3625  -10.9634   19.6134 H   0  0  0  0  0  0
  -21.2025   -7.6118   23.9676 H   0  0  0  0  0  0
  -21.1481   -6.0499   25.9059 H   0  0  0  0  0  0
  -22.0605   -2.7583   23.2804 H   0  0  0  0  0  0
  -22.4069  -11.9839   22.4793 H   0  0  0  0  0  0
  -21.1152  -13.1278   22.2629 H   0  0  0  0  0  0
  -24.6433  -15.8324   20.5163 H   0  0  0  0  0  0
  -26.2596  -15.6384   20.0537 H   0  0  0  0  0  0
  -26.7141  -32.5493   23.1118 H   0  0  0  0  0  0
  -25.0023  -33.9735   25.0421 H   0  0  0  0  0  0
  -22.6980  -31.3107   21.4141 H   0  0  0  0  0  0
  -23.3749  -35.9630   23.3253 H   0  0  0  0  0  0
  -24.3607  -36.8983   22.2071 H   0  0  0  0  0  0
  -23.7234  -37.6489   23.6713 H   0  0  0  0  0  0
  -26.0503  -31.5879   20.5956 H   0  0  0  0  0  0
  -26.8301  -30.8787   21.9815 H   0  0  0  0  0  0
  -28.0989  -29.0519   21.2061 H   0  0  0  0  0  0
  -26.0384  -25.9452   19.0384 H   0  0  0  0  0  0
  -23.9776  -27.3114   19.0211 H   0  0  0  0  0  0
  -23.7406  -30.6197   19.4092 H   0  0  0  0  0  0
  -22.7417  -29.2672   19.8495 H   0  0  0  0  0  0
  -25.1245  -36.1915   25.0826 H   0  0  0  0  0  0
  -20.9944  -28.3328   24.1411 H   0  0  0  0  0  0
  -20.5649  -26.2333   23.3643 H   0  0  0  0  0  0
  -21.6670  -26.7488   22.1260 H   0  0  0  0  0  0
  -19.6969  -25.6317   21.1231 H   0  0  0  0  0  0
  -19.6725  -27.3218   20.6719 H   0  0  0  0  0  0
  -17.4226  -26.6722   21.3959 H   0  0  0  0  0  0
  -18.0323  -26.0092   22.8961 H   0  0  0  0  0  0
  -19.7938  -30.7276   24.2291 H   0  0  0  0  0  0
  -17.5027  -31.6254   24.5232 H   0  0  0  0  0  0
  -15.5367  -30.3026   23.7666 H   0  0  0  0  0  0
  -15.8655  -28.0893   22.7001 H   0  0  0  0  0  0
  -24.5960  -30.6985   25.7788 H   0  0  0  0  0  0
  -24.8983  -32.2781   26.4957 H   0  0  0  0  0  0
  -25.8151  -30.8767   27.0183 H   0  0  0  0  0  0
  -26.2877  -29.6703   24.1251 H   0  0  0  0  0  0
  -27.4179  -29.7267   25.4574 H   0  0  0  0  0  0
  -27.8684  -30.4278   23.9212 H   0  0  0  0  0  0
  -27.2726  -33.3537   26.2108 H   0  0  0  0  0  0
  -28.3846  -32.6888   25.0228 H   0  0  0  0  0  0
  -28.0860  -31.8363   26.5286 H   0  0  0  0  0  0
  -28.2540  -38.0134   24.7533 H   0  0  0  0  0  0
  -28.1114  -36.2672   24.6152 H   0  0  0  0  0  0
  -27.2338  -37.1309   25.8855 H   0  0  0  0  0  0
  -20.9375  -29.8718   21.6802 H   0  0  0  0  0  0
  -26.0125  -38.2838   24.1508 H   0  0  0  0  0  0
  -29.7024  -19.7813   23.1393 H   0  0  0  0  0  0
  -30.1367  -17.4663   23.4181 H   0  0  0  0  0  0
  -29.8624  -16.8681   19.1484 H   0  0  0  0  0  0
  -27.4740  -25.7305   21.8705 H   0  0  0  0  0  0
  -26.7766  -22.7915   21.3092 H   0  0  0  0  0  0
  -27.4511  -23.5586   22.7230 H   0  0  0  0  0  0
  -29.8286  -24.1763   19.2655 H   0  0  0  0  0  0
  -28.3874  -23.2654   18.8990 H   0  0  0  0  0  0
  -27.8774  -21.1059   22.5909 H   0  0  0  0  0  0
  -29.3521  -22.0411   22.7522 H   0  0  0  0  0  0
  -30.7777  -22.3249   20.5505 H   0  0  0  0  0  0
  -30.1590  -21.6147   19.0911 H   0  0  0  0  0  0
  -29.5169  -15.3031   23.5290 H   0  0  0  0  0  0
  -31.2757  -15.4697   23.4010 H   0  0  0  0  0  0
  -30.5044  -13.9341   23.0662 H   0  0  0  0  0  0
  1 25  1  0  0  0
  1 30  2  0  0  0
  1 85  1  0  0  0
  2  3  1  0  0  0
  2 25  1  0  0  0
  2 87  1  0  0  0
  2 88  1  0  0  0
  3  4  1  0  0  0
  3 89  1  0  0  0
  3 90  1  0  0  0
  4  5  1  0  0  0
  4 91  1  0  0  0
  4 92  1  0  0  0
  5  6  1  0  0  0
  5 26  1  0  0  0
  5 93  1  0  0  0
  6 25  1  0  0  0
  6 94  1  0  0  0
  6 95  1  0  0  0
  7  8  2  0  0  0
  7 26  1  0  0  0
  7 29  1  0  0  0
  8  9  1  0  0  0
  8 22  1  0  0  0
  9 10  1  0  0  0
  9 27  2  0  0  0
 10 11  2  0  0  0
 10 15  1  0  0  0
 11 12  1  0  0  0
 11 96  1  0  0  0
 12 13  2  0  0  0
 12 97  1  0  0  0
 13 14  1  0  0  0
 13 31  1  0  0  0
 14 15  2  0  0  0
 14 98  1  0  0  0
 15 99  1  0  0  0
 16 17  2  0  0  0
 16 21  1  0  0  0
 16 31  1  0  0  0
 17 18  1  0  0  0
 17100  1  0  0  0
 18 19  2  0  0  0
 18101  1  0  0  0
 19 20  1  0  0  0
 19 24  1  0  0  0
 20 21  2  0  0  0
 20102  1  0  0  0
 21 23  1  0  0  0
 22 28  1  0  0  0
 22 32  2  0  0  0
 26 27  1  0  0  0
 28103  1  0  0  0
 28104  1  0  0  0
 29105  1  0  0  0
 29106  1  0  0  0
 33 34  1  0  0  0
 33 66  1  0  0  0
 33 70  2  0  0  0
 34 36  1  0  0  0
 34 59  1  0  0  0
 34107  1  0  0  0
 35 44  2  0  0  0
 35 45  1  0  0  0
 35 68  1  0  0  0
 36 56  1  0  0  0
 36108  1  0  0  0
 37 39  1  0  0  0
 37 47  1  0  0  0
 37 66  1  0  0  0
 37109  1  0  0  0
 38 43  2  0  0  0
 38 46  1  0  0  0
 38 47  1  0  0  0
 39 64  1  0  0  0
 39 67  2  0  0  0
 40 52  1  0  0  0
 40 53  2  0  0  0
 40 58  1  0  0  0
 41110  1  0  0  0
 41111  1  0  0  0
 41112  1  0  0  0
 41 48  1  0  0  0
 42 43  1  0  0  0
 42 66  1  0  0  0
 42113  1  0  0  0
 42114  1  0  0  0
 43 44  1  0  0  0
 44115  1  0  0  0
 45 46  2  0  0  0
 45116  1  0  0  0
 46117  1  0  0  0
 47118  1  0  0  0
 47119  1  0  0  0
 48 56  1  0  0  0
 48 65  1  0  0  0
 48120  1  0  0  0
 49 50  1  0  0  0
 49 53  1  0  0  0
 49 64  1  0  0  0
 49121  1  0  0  0
 50 51  1  0  0  0
 50122  1  0  0  0
 50123  1  0  0  0
 51 52  1  0  0  0
 51124  1  0  0  0
 51125  1  0  0  0
 52126  1  0  0  0
 52127  1  0  0  0
 53 54  1  0  0  0
 54 55  2  0  0  0
 54128  1  0  0  0
 55 57  1  0  0  0
 55129  1  0  0  0
 56 69  2  0  0  0
 57 58  2  0  0  0
 57130  1  0  0  0
 58131  1  0  0  0
 59 60  1  0  0  0
 59 61  1  0  0  0
 59 62  1  0  0  0
 60132  1  0  0  0
 60133  1  0  0  0
 60134  1  0  0  0
 61135  1  0  0  0
 61136  1  0  0  0
 61137  1  0  0  0
 62138  1  0  0  0
 62139  1  0  0  0
 62140  1  0  0  0
 63 65  1  0  0  0
 63141  1  0  0  0
 63142  1  0  0  0
 63143  1  0  0  0
 64144  1  0  0  0
 65145  1  0  0  0
 68 78  1  0  0  0
 71 72  2  0  0  0
 71 74  1  0  0  0
 71146  1  0  0  0
 72 75  1  0  0  0
 72147  1  0  0  0
 73 75  2  0  0  0
 73 76  1  0  0  0
 73148  1  0  0  0
 74 76  2  0  0  0
 74 84  1  0  0  0
 75 85  1  0  0  0
 76 86  1  0  0  0
 77 78  2  0  0  0
 77 79  1  0  0  0
 77 80  1  0  0  0
 78149  1  0  0  0
 79 81  1  0  0  0
 79150  1  0  0  0
 79151  1  0  0  0
 80 82  1  0  0  0
 80152  1  0  0  0
 80153  1  0  0  0
 81 84  1  0  0  0
 81154  1  0  0  0
 81155  1  0  0  0
 82 84  1  0  0  0
 82156  1  0  0  0
 82157  1  0  0  0
 83 85  1  0  0  0
 83158  1  0  0  0
 83159  1  0  0  0
 83160  1  0  0  0
M  ISO  4   1 100  68 101  78 101  85 100
M  END
> <chiral flag>
0

> <version>
0

> <s_m_source_file>
/data/baiqing/PycharmProjects/Reinvent-master-3.2/result/LINK_invent/BTK/process_docking_weight1_custom_product_contain_oxygen_bond_distance_aromatic_linkinvent_7_9_3/rearranged_h_0096.sdf

> <i_m_source_file_index>
40

> <r_mmod_Potential_Energy-OPLS-2005>
248.469848632812

> <r_mmod_Stretch_Energy-OPLS-2005>
68.0336303710938

> <r_mmod_Bend_Energy-OPLS-2005>
139.440002441406

> <r_mmod_Torsional_Energy-OPLS-2005>
312.521423339844

> <r_mmod_Improper_Torsional_Energy-OPLS-2005>
6.67200899124146

> <r_mmod_Van_der_Waal_Energy-OPLS-2005>
163.314117431641

> <r_mmod_Electrostatic_Energy-OPLS-2005>
-273.748352050781

> <r_mmod_Solvation_Energy-OPLS-2005>
-195.835296630859

> <b_mmod_Minimization_Converged-OPLS-2005>
0

> <r_mmod_RMS_Derivative-OPLS-2005>
4.10338878631592

$$$$
40
                    3D
 Structure written by MMmdl.
158167  0  0  1  0            999 V2000
  -30.6563  -14.5088   20.6136 C   0  0  0  0  0  0
  -30.4456  -12.3435   19.4166 C   0  0  0  0  0  0
  -29.5027  -12.5251   18.2066 C   0  0  0  0  0  0
  -28.0237  -12.3705   18.6184 C   0  0  0  0  0  0
  -27.6680  -13.2000   19.8800 C   0  0  2  0  0  0
  -28.7080  -12.9497   20.9944 C   0  0  0  0  0  0
  -25.2621  -13.8147   20.5669 C   0  0  0  0  0  0
  -24.1858  -13.0437   20.9160 C   0  0  0  0  0  0
  -24.6398  -11.6900   20.8724 C   0  0  0  0  0  0
  -23.9058  -10.4293   21.0400 C   0  0  0  0  0  0
  -24.3614   -9.4211   21.9179 C   0  0  0  0  0  0
  -23.6294   -8.2245   22.0751 C   0  0  0  0  0  0
  -22.4274   -8.0280   21.3543 C   0  0  0  0  0  0
  -21.9905   -9.0252   20.4645 C   0  0  0  0  0  0
  -22.7230  -10.2134   20.3053 C   0  0  0  0  0  0
  -21.6852   -6.0738   22.5280 C   0  0  0  0  0  0
  -21.4011   -6.5640   23.8214 C   0  0  0  0  0  0
  -21.3660   -5.6791   24.9174 C   0  0  0  0  0  0
  -21.6048   -4.3055   24.7223 C   0  0  0  0  0  0
  -21.8820   -3.8148   23.4343 C   0  0  0  0  0  0
  -21.9191   -4.6966   22.3401 C   0  0  0  0  0  0
  -22.7883  -13.5245   21.1833 C   0  0  0  0  0  0
  -22.1662   -4.2154   21.0978 F   0  0  0  0  0  0
  -21.5630   -3.4537   25.7735 F   0  0  0  0  0  0
  -30.0416  -13.2987   20.4625 N   0  0  0  0  0  0
  -26.3055  -12.9298   20.3370 N   0  0  0  0  0  0
  -25.9323  -11.6465   20.5757 N   0  0  0  0  0  0
  -22.0518  -12.8245   22.0392 N   0  0  0  0  0  0
  -25.4370  -15.1866   20.4104 N   0  0  0  0  0  0
  -31.7274  -14.7901   20.0653 O   0  0  0  0  0  0
  -21.6638   -6.8878   21.4242 O   0  0  0  0  0  0
  -22.3570  -14.5551   20.6681 O   0  0  0  0  0  0
  -24.6163  -31.8657   23.2089 C   0  0  0  0  0  0
  -25.9046  -32.4812   23.8390 C   0  0  1  0  0  0
  -27.2364  -27.4121   20.1020 C   0  0  0  0  0  0
  -25.5895  -33.8611   24.2321 N   0  0  0  0  0  0
  -23.4074  -30.4882   21.5482 C   0  0  2  0  0  0
  -24.8588  -28.9507   20.1146 C   0  0  0  0  0  0
  -22.7424  -29.4646   22.4971 C   0  0  0  0  0  0
  -18.0277  -28.1382   22.8493 C   0  0  0  0  0  0
  -24.1485  -36.7312   23.2642 C   0  0  0  0  0  0
  -25.9387  -30.8223   21.3693 C   0  0  0  0  0  0
  -26.0182  -29.4528   20.7215 C   0  0  0  0  0  0
  -27.2114  -28.6871   20.7224 C   0  0  0  0  0  0
  -26.0671  -26.9356   19.4799 C   0  0  0  0  0  0
  -24.8778  -27.6901   19.4927 C   0  0  0  0  0  0
  -23.6204  -29.8196   20.1635 C   0  0  0  0  0  0
  -25.4106  -36.3105   24.0340 C   0  0  1  0  0  0
  -20.5866  -28.3671   23.1311 C   0  0  2  0  0  0
  -20.6765  -26.9403   22.5418 C   0  0  0  0  0  0
  -19.5747  -26.6388   21.5212 C   0  0  0  0  0  0
  -18.1925  -26.7928   22.1623 C   0  0  0  0  0  0
  -19.1526  -28.8843   23.2900 C   0  0  0  0  0  0
  -18.9454  -30.1446   23.8913 C   0  0  0  0  0  0
  -17.6457  -30.6586   24.0568 C   0  0  0  0  0  0
  -25.9034  -34.9471   23.5129 C   0  0  0  0  0  0
  -16.5348  -29.9091   23.6327 C   0  0  0  0  0  0
  -16.7266  -28.6508   23.0349 C   0  0  0  0  0  0
  -26.4470  -31.6594   25.0720 C   0  0  0  0  0  0
  -25.3743  -31.3703   26.1471 C   0  0  0  0  0  0
  -27.0304  -30.3034   24.6104 C   0  0  0  0  0  0
  -27.6044  -32.4316   25.7482 C   0  0  0  0  0  0
  -27.5579  -37.1807   24.8465 C   0  0  0  0  0  0
  -21.4146  -29.3034   22.3710 N   0  0  0  0  0  0
  -26.4291  -37.3788   23.9413 N   0  0  0  0  0  0
  -24.6719  -31.0741   22.1001 N   0  0  0  0  0  0
  -23.4175  -28.8187   23.3028 O   0  0  0  0  0  0
  -28.3507  -26.5953   20.0715 O   0  0  0  0  0  0
  -26.5597  -34.8926   22.4690 O   0  0  0  0  0  0
  -23.5347  -32.1414   23.7468 O   0  0  0  0  0  0
  -30.0251  -19.1167   20.6146 C   0  0  0  0  0  0
  -30.3084  -17.7221   20.4888 C   0  0  0  0  0  0
  -29.1716  -17.3113   22.5850 C   0  0  0  0  0  0
  -29.3186  -19.6221   21.7393 C   0  0  0  0  0  0
  -29.8717  -16.7962   21.4753 C   0  0  0  0  0  0
  -28.9076  -18.6880   22.7181 C   0  0  0  0  0  0
  -30.4376  -22.6810   20.7349 C   0  0  0  0  0  0
  -30.4715  -24.2009   20.5334 C   0  0  0  0  0  0
  -28.3473  -23.4532   21.2967 C   0  0  0  0  0  0
  -29.3158  -24.6450   21.4312 C   0  0  2  0  0  0
  -28.9223  -21.0981   22.0211 C   0  0  0  0  0  0
  -28.7860  -26.1166   21.3507 C   0  0  0  0  0  0
  -29.2279  -22.2720   21.1635 N   0  0  0  0  0  0
  -29.9899  -15.3622   21.4223 N   0  0  0  0  0  0
  -31.4437  -21.9801   20.6118 O   0  0  0  0  0  0
  -28.2261  -19.1163   23.8088 F   0  0  0  0  0  0
  -31.4845  -12.4836   19.1119 H   0  0  0  0  0  0
  -30.3846  -11.3241   19.7997 H   0  0  0  0  0  0
  -29.7493  -11.8037   17.4265 H   0  0  0  0  0  0
  -29.6572  -13.5127   17.7694 H   0  0  0  0  0  0
  -27.8402  -11.3124   18.8091 H   0  0  0  0  0  0
  -27.3706  -12.6463   17.7896 H   0  0  0  0  0  0
  -27.7208  -14.2524   19.6000 H   0  0  0  0  0  0
  -28.6979  -11.8985   21.2856 H   0  0  0  0  0  0
  -28.4414  -13.4914   21.9025 H   0  0  0  0  0  0
  -25.2763   -9.5689   22.4745 H   0  0  0  0  0  0
  -24.0009   -7.4636   22.7466 H   0  0  0  0  0  0
  -21.0837   -8.8768   19.8952 H   0  0  0  0  0  0
  -22.3688  -10.9671   19.6159 H   0  0  0  0  0  0
  -21.2001   -7.6148   23.9720 H   0  0  0  0  0  0
  -21.1484   -6.0520   25.9080 H   0  0  0  0  0  0
  -22.0599   -2.7610   23.2840 H   0  0  0  0  0  0
  -22.4123  -11.9913   22.4799 H   0  0  0  0  0  0
  -21.1137  -13.1277   22.2587 H   0  0  0  0  0  0
  -24.6769  -15.8480   20.5265 H   0  0  0  0  0  0
  -26.3011  -15.6246   20.1153 H   0  0  0  0  0  0
  -26.7117  -32.5527   23.1154 H   0  0  0  0  0  0
  -25.0047  -33.9769   25.0467 H   0  0  0  0  0  0
  -22.6973  -31.3058   21.4068 H   0  0  0  0  0  0
  -23.3740  -35.9649   23.3314 H   0  0  0  0  0  0
  -24.3584  -36.8919   22.2054 H   0  0  0  0  0  0
  -23.7246  -37.6525   23.6649 H   0  0  0  0  0  0
  -26.0537  -31.5850   20.5974 H   0  0  0  0  0  0
  -26.8256  -30.8787   21.9886 H   0  0  0  0  0  0
  -28.1053  -29.0696   21.1953 H   0  0  0  0  0  0
  -26.0739  -25.9665   19.0005 H   0  0  0  0  0  0
  -23.9878  -27.2974   19.0204 H   0  0  0  0  0  0
  -23.7293  -30.5943   19.4036 H   0  0  0  0  0  0
  -22.7446  -29.2401   19.8665 H   0  0  0  0  0  0
  -25.1284  -36.1968   25.0833 H   0  0  0  0  0  0
  -20.9962  -28.3240   24.1430 H   0  0  0  0  0  0
  -20.5667  -26.2278   23.3607 H   0  0  0  0  0  0
  -21.6638  -26.7444   22.1211 H   0  0  0  0  0  0
  -19.6908  -25.6300   21.1238 H   0  0  0  0  0  0
  -19.6693  -27.3202   20.6744 H   0  0  0  0  0  0
  -17.4194  -26.6680   21.4026 H   0  0  0  0  0  0
  -18.0327  -26.0066   22.9016 H   0  0  0  0  0  0
  -19.7930  -30.7258   24.2289 H   0  0  0  0  0  0
  -17.5015  -31.6270   24.5164 H   0  0  0  0  0  0
  -15.5349  -30.3002   23.7644 H   0  0  0  0  0  0
  -15.8664  -28.0836   22.7056 H   0  0  0  0  0  0
  -24.5900  -30.7075   25.7802 H   0  0  0  0  0  0
  -24.8956  -32.2862   26.4947 H   0  0  0  0  0  0
  -25.8093  -30.8843   27.0208 H   0  0  0  0  0  0
  -26.2845  -29.6800   24.1159 H   0  0  0  0  0  0
  -27.4075  -29.7268   25.4563 H   0  0  0  0  0  0
  -27.8686  -30.4357   23.9254 H   0  0  0  0  0  0
  -27.2654  -33.3599   26.2092 H   0  0  0  0  0  0
  -28.3828  -32.6907   25.0293 H   0  0  0  0  0  0
  -28.0733  -31.8423   26.5372 H   0  0  0  0  0  0
  -28.2596  -38.0101   24.7498 H   0  0  0  0  0  0
  -28.1072  -36.2631   24.6299 H   0  0  0  0  0  0
  -27.2300  -37.1470   25.8869 H   0  0  0  0  0  0
  -20.9302  -29.8753   21.6930 H   0  0  0  0  0  0
  -26.0182  -38.2868   24.1405 H   0  0  0  0  0  0
  -30.3494  -19.7885   19.8339 H   0  0  0  0  0  0
  -30.8371  -17.3729   19.6125 H   0  0  0  0  0  0
  -28.8101  -16.6460   23.3560 H   0  0  0  0  0  0
  -30.2864  -24.4424   19.4863 H   0  0  0  0  0  0
  -31.4248  -24.6325   20.8379 H   0  0  0  0  0  0
  -27.7283  -23.5509   20.4032 H   0  0  0  0  0  0
  -27.6812  -23.3905   22.1587 H   0  0  0  0  0  0
  -29.7005  -24.5784   22.4520 H   0  0  0  0  0  0
  -29.3155  -21.3401   23.0099 H   0  0  0  0  0  0
  -27.8383  -21.0808   22.1454 H   0  0  0  0  0  0
  -29.5783  -26.7886   21.6834 H   0  0  0  0  0  0
  -27.9855  -26.2193   22.0870 H   0  0  0  0  0  0
  -29.2962  -14.8785   21.9720 H   0  0  0  0  0  0
  1 25  1  0  0  0
  1 30  2  0  0  0
  1 84  1  0  0  0
  2  3  1  0  0  0
  2 25  1  0  0  0
  2 87  1  0  0  0
  2 88  1  0  0  0
  3  4  1  0  0  0
  3 89  1  0  0  0
  3 90  1  0  0  0
  4  5  1  0  0  0
  4 91  1  0  0  0
  4 92  1  0  0  0
  5  6  1  0  0  0
  5 26  1  0  0  0
  5 93  1  0  0  0
  6 25  1  0  0  0
  6 94  1  0  0  0
  6 95  1  0  0  0
  7  8  2  0  0  0
  7 26  1  0  0  0
  7 29  1  0  0  0
  8  9  1  0  0  0
  8 22  1  0  0  0
  9 10  1  0  0  0
  9 27  2  0  0  0
 10 11  2  0  0  0
 10 15  1  0  0  0
 11 12  1  0  0  0
 11 96  1  0  0  0
 12 13  2  0  0  0
 12 97  1  0  0  0
 13 14  1  0  0  0
 13 31  1  0  0  0
 14 15  2  0  0  0
 14 98  1  0  0  0
 15 99  1  0  0  0
 16 17  2  0  0  0
 16 21  1  0  0  0
 16 31  1  0  0  0
 17 18  1  0  0  0
 17100  1  0  0  0
 18 19  2  0  0  0
 18101  1  0  0  0
 19 20  1  0  0  0
 19 24  1  0  0  0
 20 21  2  0  0  0
 20102  1  0  0  0
 21 23  1  0  0  0
 22 28  1  0  0  0
 22 32  2  0  0  0
 26 27  1  0  0  0
 28103  1  0  0  0
 28104  1  0  0  0
 29105  1  0  0  0
 29106  1  0  0  0
 33 34  1  0  0  0
 33 66  1  0  0  0
 33 70  2  0  0  0
 34 36  1  0  0  0
 34 59  1  0  0  0
 34107  1  0  0  0
 35 44  2  0  0  0
 35 45  1  0  0  0
 35 68  1  0  0  0
 36 56  1  0  0  0
 36108  1  0  0  0
 37 39  1  0  0  0
 37 47  1  0  0  0
 37 66  1  0  0  0
 37109  1  0  0  0
 38 43  2  0  0  0
 38 46  1  0  0  0
 38 47  1  0  0  0
 39 64  1  0  0  0
 39 67  2  0  0  0
 40 52  1  0  0  0
 40 53  2  0  0  0
 40 58  1  0  0  0
 41110  1  0  0  0
 41111  1  0  0  0
 41112  1  0  0  0
 41 48  1  0  0  0
 42 43  1  0  0  0
 42 66  1  0  0  0
 42113  1  0  0  0
 42114  1  0  0  0
 43 44  1  0  0  0
 44115  1  0  0  0
 45 46  2  0  0  0
 45116  1  0  0  0
 46117  1  0  0  0
 47118  1  0  0  0
 47119  1  0  0  0
 48 56  1  0  0  0
 48 65  1  0  0  0
 48120  1  0  0  0
 49 50  1  0  0  0
 49 53  1  0  0  0
 49 64  1  0  0  0
 49121  1  0  0  0
 50 51  1  0  0  0
 50122  1  0  0  0
 50123  1  0  0  0
 51 52  1  0  0  0
 51124  1  0  0  0
 51125  1  0  0  0
 52126  1  0  0  0
 52127  1  0  0  0
 53 54  1  0  0  0
 54 55  2  0  0  0
 54128  1  0  0  0
 55 57  1  0  0  0
 55129  1  0  0  0
 56 69  2  0  0  0
 57 58  2  0  0  0
 57130  1  0  0  0
 58131  1  0  0  0
 59 60  1  0  0  0
 59 61  1  0  0  0
 59 62  1  0  0  0
 60132  1  0  0  0
 60133  1  0  0  0
 60134  1  0  0  0
 61135  1  0  0  0
 61136  1  0  0  0
 61137  1  0  0  0
 62138  1  0  0  0
 62139  1  0  0  0
 62140  1  0  0  0
 63 65  1  0  0  0
 63141  1  0  0  0
 63142  1  0  0  0
 63143  1  0  0  0
 64144  1  0  0  0
 65145  1  0  0  0
 68 82  1  0  0  0
 71 72  2  0  0  0
 71 74  1  0  0  0
 71146  1  0  0  0
 72 75  1  0  0  0
 72147  1  0  0  0
 73 75  2  0  0  0
 73 76  1  0  0  0
 73148  1  0  0  0
 74 76  2  0  0  0
 74 81  1  0  0  0
 75 84  1  0  0  0
 76 86  1  0  0  0
 77 78  1  0  0  0
 77 83  1  0  0  0
 77 85  2  0  0  0
 78 80  1  0  0  0
 78149  1  0  0  0
 78150  1  0  0  0
 79 80  1  0  0  0
 79 83  1  0  0  0
 79151  1  0  0  0
 79152  1  0  0  0
 80 82  1  0  0  0
 80153  1  0  0  0
 81 83  1  0  0  0
 81154  1  0  0  0
 81155  1  0  0  0
 82156  1  0  0  0
 82157  1  0  0  0
 84158  1  0  0  0
M  ISO  4   1 100  68 101  82 101  84 100
M  END
> <chiral flag>
0

> <version>
0

> <s_m_source_file>
/data/baiqing/PycharmProjects/Reinvent-master-3.2/result/LINK_invent/BTK/process_docking_weight1_custom_product_contain_oxygen_bond_distance_aromatic_linkinvent_7_9_3/rearranged_h_0096.sdf

> <i_m_source_file_index>
41

> <r_mmod_Potential_Energy-OPLS-2005>
41.2707176208496

> <r_mmod_Stretch_Energy-OPLS-2005>
46.723575592041

> <r_mmod_Bend_Energy-OPLS-2005>
191.039489746094

> <r_mmod_Torsional_Energy-OPLS-2005>
257.067016601562

> <r_mmod_Improper_Torsional_Energy-OPLS-2005>
5.66060733795166

> <r_mmod_Van_der_Waal_Energy-OPLS-2005>
139.697174072266

> <r_mmod_Electrostatic_Energy-OPLS-2005>
-385.737182617188

> <r_mmod_Solvation_Energy-OPLS-2005>
-231.280395507812

> <b_mmod_Minimization_Converged-OPLS-2005>
0

> <r_mmod_RMS_Derivative-OPLS-2005>
0.787164330482483

$$$$
41
                    3D
 Structure written by MMmdl.
156164  0  0  1  0            999 V2000
  -30.7318  -14.4462   20.6258 C   0  0  0  0  0  0
  -30.4175  -12.3162   19.4076 C   0  0  0  0  0  0
  -29.4854  -12.5169   18.1974 C   0  0  0  0  0  0
  -28.0090  -12.3757   18.6150 C   0  0  0  0  0  0
  -27.6602  -13.2099   19.8758 C   0  0  2  0  0  0
  -28.7023  -12.9842   20.9928 C   0  0  0  0  0  0
  -25.2578  -13.8176   20.5700 C   0  0  0  0  0  0
  -24.1830  -13.0443   20.9193 C   0  0  0  0  0  0
  -24.6386  -11.6912   20.8742 C   0  0  0  0  0  0
  -23.9053  -10.4297   21.0403 C   0  0  0  0  0  0
  -24.3604   -9.4217   21.9187 C   0  0  0  0  0  0
  -23.6288   -8.2247   22.0755 C   0  0  0  0  0  0
  -22.4274   -8.0279   21.3540 C   0  0  0  0  0  0
  -21.9906   -9.0252   20.4641 C   0  0  0  0  0  0
  -22.7225  -10.2137   20.3053 C   0  0  0  0  0  0
  -21.6850   -6.0737   22.5280 C   0  0  0  0  0  0
  -21.4009   -6.5640   23.8214 C   0  0  0  0  0  0
  -21.3661   -5.6793   24.9175 C   0  0  0  0  0  0
  -21.6045   -4.3056   24.7228 C   0  0  0  0  0  0
  -21.8819   -3.8149   23.4348 C   0  0  0  0  0  0
  -21.9193   -4.6966   22.3404 C   0  0  0  0  0  0
  -22.7851  -13.5243   21.1866 C   0  0  0  0  0  0
  -22.1663   -4.2153   21.0982 F   0  0  0  0  0  0
  -21.5632   -3.4536   25.7740 F   0  0  0  0  0  0
  -30.0328  -13.2929   20.4392 N   0  0  0  0  0  0
  -26.3013  -12.9349   20.3378 N   0  0  0  0  0  0
  -25.9312  -11.6503   20.5762 N   0  0  0  0  0  0
  -22.0486  -12.8227   22.0412 N   0  0  0  0  0  0
  -25.4317  -15.1892   20.4123 N   0  0  0  0  0  0
  -31.8262  -14.6576   20.0963 O   0  0  0  0  0  0
  -21.6637   -6.8877   21.4240 O   0  0  0  0  0  0
  -22.3540  -14.5556   20.6725 O   0  0  0  0  0  0
  -24.6175  -31.8671   23.2104 C   0  0  0  0  0  0
  -25.9059  -32.4818   23.8402 C   0  0  1  0  0  0
  -27.2303  -27.4139   20.0900 C   0  0  0  0  0  0
  -25.5903  -33.8617   24.2326 N   0  0  0  0  0  0
  -23.4055  -30.4929   21.5526 C   0  0  2  0  0  0
  -24.8500  -28.9621   20.1152 C   0  0  0  0  0  0
  -22.7419  -29.4662   22.4991 C   0  0  0  0  0  0
  -18.0270  -28.1378   22.8497 C   0  0  0  0  0  0
  -24.1481  -36.7313   23.2644 C   0  0  0  0  0  0
  -25.9387  -30.8257   21.3683 C   0  0  0  0  0  0
  -26.0148  -29.4612   20.7108 C   0  0  0  0  0  0
  -27.2081  -28.6962   20.6938 C   0  0  0  0  0  0
  -26.0387  -26.9436   19.4828 C   0  0  0  0  0  0
  -24.8583  -27.7034   19.4985 C   0  0  0  0  0  0
  -23.6133  -29.8289   20.1672 C   0  0  0  0  0  0
  -25.4106  -36.3107   24.0339 C   0  0  1  0  0  0
  -20.5863  -28.3670   23.1316 C   0  0  2  0  0  0
  -20.6760  -26.9407   22.5417 C   0  0  0  0  0  0
  -19.5736  -26.6387   21.5214 C   0  0  0  0  0  0
  -18.1914  -26.7926   22.1624 C   0  0  0  0  0  0
  -19.1522  -28.8839   23.2904 C   0  0  0  0  0  0
  -18.9451  -30.1444   23.8915 C   0  0  0  0  0  0
  -17.6455  -30.6588   24.0567 C   0  0  0  0  0  0
  -25.9037  -34.9474   23.5129 C   0  0  0  0  0  0
  -16.5345  -29.9091   23.6332 C   0  0  0  0  0  0
  -16.7260  -28.6504   23.0360 C   0  0  0  0  0  0
  -26.4476  -31.6609   25.0743 C   0  0  0  0  0  0
  -25.3726  -31.3695   26.1474 C   0  0  0  0  0  0
  -27.0341  -30.3058   24.6144 C   0  0  0  0  0  0
  -27.6026  -32.4356   25.7524 C   0  0  0  0  0  0
  -27.5581  -37.1809   24.8466 C   0  0  0  0  0  0
  -21.4143  -29.3039   22.3726 N   0  0  0  0  0  0
  -26.4290  -37.3796   23.9417 N   0  0  0  0  0  0
  -24.6724  -31.0761   22.1015 N   0  0  0  0  0  0
  -23.4183  -28.8196   23.3035 O   0  0  0  0  0  0
  -28.3843  -26.6436   20.1147 O   0  0  0  0  0  0
  -26.5603  -34.8926   22.4692 O   0  0  0  0  0  0
  -23.5360  -32.1437   23.7481 O   0  0  0  0  0  0
  -29.3490  -18.5909   21.5940 C   0  0  0  0  0  0
  -29.1871  -19.9255   21.1485 C   0  0  0  0  0  0
  -31.5828  -18.5389   20.6387 C   0  0  0  0  0  0
  -30.5597  -17.8970   21.3694 C   0  0  0  0  0  0
  -30.2353  -20.5894   20.4659 C   0  0  0  0  0  0
  -31.4208  -19.8672   20.1872 C   0  0  0  0  0  0
  -29.3986  -24.3447   20.2506 C   0  0  0  0  0  0
  -30.8218  -16.5282   22.0072 C   0  0  0  0  0  0
  -29.1222  -22.8476   20.5299 C   0  0  0  0  0  0
  -28.1745  -25.2242   19.9301 C   0  0  0  0  0  0
  -32.4402  -20.4852   19.4610 N   0  0  0  0  0  0
  -30.1820  -21.9418   20.0636 N   0  0  0  0  0  0
  -30.1495  -15.3672   21.4116 N   0  0  0  0  0  0
  -30.5508  -24.7935   20.2611 O   0  0  0  0  0  0
  -31.4597  -12.4191   19.1002 H   0  0  0  0  0  0
  -30.3225  -11.3022   19.7992 H   0  0  0  0  0  0
  -29.7211  -11.7941   17.4151 H   0  0  0  0  0  0
  -29.6529  -13.5038   17.7623 H   0  0  0  0  0  0
  -27.8185  -11.3195   18.8074 H   0  0  0  0  0  0
  -27.3552  -12.6563   17.7881 H   0  0  0  0  0  0
  -27.7076  -14.2600   19.5866 H   0  0  0  0  0  0
  -28.6792  -11.9463   21.3285 H   0  0  0  0  0  0
  -28.4546  -13.5761   21.8745 H   0  0  0  0  0  0
  -25.2743   -9.5707   22.4769 H   0  0  0  0  0  0
  -24.0003   -7.4644   22.7475 H   0  0  0  0  0  0
  -21.0842   -8.8764   19.8942 H   0  0  0  0  0  0
  -22.3679  -10.9676   19.6165 H   0  0  0  0  0  0
  -21.1994   -7.6148   23.9719 H   0  0  0  0  0  0
  -21.1483   -6.0521   25.9082 H   0  0  0  0  0  0
  -22.0596   -2.7611   23.2844 H   0  0  0  0  0  0
  -22.4078  -11.9865   22.4775 H   0  0  0  0  0  0
  -21.1111  -13.1267   22.2632 H   0  0  0  0  0  0
  -24.6708  -15.8500   20.5253 H   0  0  0  0  0  0
  -26.2917  -15.6247   20.1028 H   0  0  0  0  0  0
  -26.7129  -32.5521   23.1167 H   0  0  0  0  0  0
  -25.0041  -33.9777   25.0462 H   0  0  0  0  0  0
  -22.6951  -31.3102   21.4144 H   0  0  0  0  0  0
  -23.3745  -35.9642   23.3300 H   0  0  0  0  0  0
  -24.3573  -36.8944   22.2060 H   0  0  0  0  0  0
  -23.7226  -37.6511   23.6671 H   0  0  0  0  0  0
  -26.0580  -31.5928   20.6017 H   0  0  0  0  0  0
  -26.8243  -30.8744   21.9903 H   0  0  0  0  0  0
  -28.1052  -29.0773   21.1617 H   0  0  0  0  0  0
  -25.9867  -25.9861   18.9863 H   0  0  0  0  0  0
  -23.9640  -27.3140   19.0319 H   0  0  0  0  0  0
  -23.7191  -30.6031   19.4066 H   0  0  0  0  0  0
  -22.7369  -29.2479   19.8741 H   0  0  0  0  0  0
  -25.1278  -36.1970   25.0832 H   0  0  0  0  0  0
  -20.9954  -28.3238   24.1437 H   0  0  0  0  0  0
  -20.5670  -26.2278   23.3601 H   0  0  0  0  0  0
  -21.6630  -26.7448   22.1214 H   0  0  0  0  0  0
  -19.6898  -25.6300   21.1238 H   0  0  0  0  0  0
  -19.6674  -27.3200   20.6747 H   0  0  0  0  0  0
  -17.4188  -26.6685   21.4021 H   0  0  0  0  0  0
  -18.0303  -26.0061   22.9011 H   0  0  0  0  0  0
  -19.7930  -30.7252   24.2296 H   0  0  0  0  0  0
  -17.5015  -31.6271   24.5166 H   0  0  0  0  0  0
  -15.5345  -30.3002   23.7650 H   0  0  0  0  0  0
  -15.8656  -28.0825   22.7082 H   0  0  0  0  0  0
  -24.5933  -30.7008   25.7803 H   0  0  0  0  0  0
  -24.8872  -32.2832   26.4906 H   0  0  0  0  0  0
  -25.8077  -30.8888   27.0243 H   0  0  0  0  0  0
  -26.2909  -29.6795   24.1195 H   0  0  0  0  0  0
  -27.4112  -29.7318   25.4620 H   0  0  0  0  0  0
  -27.8734  -30.4395   23.9315 H   0  0  0  0  0  0
  -27.2621  -33.3651   26.2099 H   0  0  0  0  0  0
  -28.3837  -32.6929   25.0359 H   0  0  0  0  0  0
  -28.0692  -31.8490   26.5448 H   0  0  0  0  0  0
  -28.2583  -38.0125   24.7549 H   0  0  0  0  0  0
  -28.1096  -36.2657   24.6255 H   0  0  0  0  0  0
  -27.2300  -37.1416   25.8869 H   0  0  0  0  0  0
  -20.9303  -29.8773   21.6961 H   0  0  0  0  0  0
  -26.0175  -38.2871   24.1433 H   0  0  0  0  0  0
  -28.5535  -18.1189   22.1539 H   0  0  0  0  0  0
  -28.2602  -20.4338   21.3687 H   0  0  0  0  0  0
  -32.5099  -18.0131   20.4569 H   0  0  0  0  0  0
  -30.5053  -16.5834   23.0497 H   0  0  0  0  0  0
  -31.8989  -16.3549   22.0555 H   0  0  0  0  0  0
  -28.1813  -22.5734   20.0511 H   0  0  0  0  0  0
  -28.9805  -22.7295   21.6050 H   0  0  0  0  0  0
  -27.3522  -24.8864   20.5620 H   0  0  0  0  0  0
  -27.9025  -25.0284   18.8931 H   0  0  0  0  0  0
  -33.1151  -19.8645   19.0271 H   0  0  0  0  0  0
  -32.1052  -21.1777   18.7995 H   0  0  0  0  0  0
  -31.0966  -22.3722   19.9491 H   0  0  0  0  0  0
  -29.2333  -15.1396   21.7667 H   0  0  0  0  0  0
  1 25  1  0  0  0
  1 30  2  0  0  0
  1 83  1  0  0  0
  2  3  1  0  0  0
  2 25  1  0  0  0
  2 85  1  0  0  0
  2 86  1  0  0  0
  3  4  1  0  0  0
  3 87  1  0  0  0
  3 88  1  0  0  0
  4  5  1  0  0  0
  4 89  1  0  0  0
  4 90  1  0  0  0
  5  6  1  0  0  0
  5 26  1  0  0  0
  5 91  1  0  0  0
  6 25  1  0  0  0
  6 92  1  0  0  0
  6 93  1  0  0  0
  7  8  2  0  0  0
  7 26  1  0  0  0
  7 29  1  0  0  0
  8  9  1  0  0  0
  8 22  1  0  0  0
  9 10  1  0  0  0
  9 27  2  0  0  0
 10 11  2  0  0  0
 10 15  1  0  0  0
 11 12  1  0  0  0
 11 94  1  0  0  0
 12 13  2  0  0  0
 12 95  1  0  0  0
 13 14  1  0  0  0
 13 31  1  0  0  0
 14 15  2  0  0  0
 14 96  1  0  0  0
 15 97  1  0  0  0
 16 17  2  0  0  0
 16 21  1  0  0  0
 16 31  1  0  0  0
 17 18  1  0  0  0
 17 98  1  0  0  0
 18 19  2  0  0  0
 18 99  1  0  0  0
 19 20  1  0  0  0
 19 24  1  0  0  0
 20 21  2  0  0  0
 20100  1  0  0  0
 21 23  1  0  0  0
 22 28  1  0  0  0
 22 32  2  0  0  0
 26 27  1  0  0  0
 28101  1  0  0  0
 28102  1  0  0  0
 29103  1  0  0  0
 29104  1  0  0  0
 33 34  1  0  0  0
 33 66  1  0  0  0
 33 70  2  0  0  0
 34 36  1  0  0  0
 34 59  1  0  0  0
 34105  1  0  0  0
 35 44  2  0  0  0
 35 45  1  0  0  0
 35 68  1  0  0  0
 36 56  1  0  0  0
 36106  1  0  0  0
 37 39  1  0  0  0
 37 47  1  0  0  0
 37 66  1  0  0  0
 37107  1  0  0  0
 38 43  2  0  0  0
 38 46  1  0  0  0
 38 47  1  0  0  0
 39 64  1  0  0  0
 39 67  2  0  0  0
 40 52  1  0  0  0
 40 53  2  0  0  0
 40 58  1  0  0  0
 41108  1  0  0  0
 41109  1  0  0  0
 41110  1  0  0  0
 41 48  1  0  0  0
 42 43  1  0  0  0
 42 66  1  0  0  0
 42111  1  0  0  0
 42112  1  0  0  0
 43 44  1  0  0  0
 44113  1  0  0  0
 45 46  2  0  0  0
 45114  1  0  0  0
 46115  1  0  0  0
 47116  1  0  0  0
 47117  1  0  0  0
 48 56  1  0  0  0
 48 65  1  0  0  0
 48118  1  0  0  0
 49 50  1  0  0  0
 49 53  1  0  0  0
 49 64  1  0  0  0
 49119  1  0  0  0
 50 51  1  0  0  0
 50120  1  0  0  0
 50121  1  0  0  0
 51 52  1  0  0  0
 51122  1  0  0  0
 51123  1  0  0  0
 52124  1  0  0  0
 52125  1  0  0  0
 53 54  1  0  0  0
 54 55  2  0  0  0
 54126  1  0  0  0
 55 57  1  0  0  0
 55127  1  0  0  0
 56 69  2  0  0  0
 57 58  2  0  0  0
 57128  1  0  0  0
 58129  1  0  0  0
 59 60  1  0  0  0
 59 61  1  0  0  0
 59 62  1  0  0  0
 60130  1  0  0  0
 60131  1  0  0  0
 60132  1  0  0  0
 61133  1  0  0  0
 61134  1  0  0  0
 61135  1  0  0  0
 62136  1  0  0  0
 62137  1  0  0  0
 62138  1  0  0  0
 63 65  1  0  0  0
 63139  1  0  0  0
 63140  1  0  0  0
 63141  1  0  0  0
 64142  1  0  0  0
 65143  1  0  0  0
 68 80  1  0  0  0
 71 72  2  0  0  0
 71 74  1  0  0  0
 71144  1  0  0  0
 72 75  1  0  0  0
 72145  1  0  0  0
 73 74  2  0  0  0
 73 76  1  0  0  0
 73146  1  0  0  0
 74 78  1  0  0  0
 75 76  2  0  0  0
 75 82  1  0  0  0
 76 81  1  0  0  0
 77 79  1  0  0  0
 77 80  1  0  0  0
 77 84  2  0  0  0
 78 83  1  0  0  0
 78147  1  0  0  0
 78148  1  0  0  0
 79 82  1  0  0  0
 79149  1  0  0  0
 79150  1  0  0  0
 80151  1  0  0  0
 80152  1  0  0  0
 81153  1  0  0  0
 81154  1  0  0  0
 82155  1  0  0  0
 83156  1  0  0  0
M  ISO  4   1 100  68 101  80 101  83 100
M  END
> <chiral flag>
0

> <version>
0

> <s_m_source_file>
/data/baiqing/PycharmProjects/Reinvent-master-3.2/result/LINK_invent/BTK/process_docking_weight1_custom_product_contain_oxygen_bond_distance_aromatic_linkinvent_7_9_3/rearranged_h_0096.sdf

> <i_m_source_file_index>
42

> <r_mmod_Potential_Energy-OPLS-2005>
-193.933288574219

> <r_mmod_Stretch_Energy-OPLS-2005>
39.6790618896484

> <r_mmod_Bend_Energy-OPLS-2005>
102.628471374512

> <r_mmod_Torsional_Energy-OPLS-2005>
200.085159301758

> <r_mmod_Improper_Torsional_Energy-OPLS-2005>
10.1192626953125

> <r_mmod_Van_der_Waal_Energy-OPLS-2005>
162.519973754883

> <r_mmod_Electrostatic_Energy-OPLS-2005>
-469.625457763672

> <r_mmod_Solvation_Energy-OPLS-2005>
-252.306747436523

> <b_mmod_Minimization_Converged-OPLS-2005>
0

> <r_mmod_RMS_Derivative-OPLS-2005>
0.784144163131714

$$$$
42
                    3D
 Structure written by MMmdl.
161170  0  0  1  0            999 V2000
  -30.6609  -14.6356   20.5744 C   0  0  0  0  0  0
  -30.4256  -12.4069   19.4731 C   0  0  0  0  0  0
  -29.5095  -12.5360   18.2375 C   0  0  0  0  0  0
  -28.0322  -12.3673   18.6372 C   0  0  0  0  0  0
  -27.6510  -13.2314   19.8668 C   0  0  2  0  0  0
  -28.6846  -13.0773   21.0000 C   0  0  0  0  0  0
  -25.2528  -13.8212   20.5728 C   0  0  0  0  0  0
  -24.1808  -13.0429   20.9210 C   0  0  0  0  0  0
  -24.6427  -11.6914   20.8752 C   0  0  0  0  0  0
  -23.9116  -10.4270   21.0422 C   0  0  0  0  0  0
  -24.3662   -9.4178   21.9198 C   0  0  0  0  0  0
  -23.6323   -8.2215   22.0767 C   0  0  0  0  0  0
  -22.4299   -8.0273   21.3550 C   0  0  0  0  0  0
  -21.9947   -9.0252   20.4650 C   0  0  0  0  0  0
  -22.7292  -10.2124   20.3074 C   0  0  0  0  0  0
  -21.6847   -6.0754   22.5280 C   0  0  0  0  0  0
  -21.4023   -6.5666   23.8223 C   0  0  0  0  0  0
  -21.3672   -5.6807   24.9177 C   0  0  0  0  0  0
  -21.6052   -4.3071   24.7222 C   0  0  0  0  0  0
  -21.8836   -3.8163   23.4344 C   0  0  0  0  0  0
  -21.9197   -4.6978   22.3399 C   0  0  0  0  0  0
  -22.7823  -13.5185   21.1875 C   0  0  0  0  0  0
  -22.1675   -4.2179   21.0974 F   0  0  0  0  0  0
  -21.5599   -3.4554   25.7736 F   0  0  0  0  0  0
  -30.0058  -13.4287   20.4550 N   0  0  0  0  0  0
  -26.2966  -12.9422   20.3311 N   0  0  0  0  0  0
  -25.9356  -11.6570   20.5738 N   0  0  0  0  0  0
  -22.0482  -12.8153   22.0440 N   0  0  0  0  0  0
  -25.4208  -15.1940   20.4221 N   0  0  0  0  0  0
  -31.7601  -14.8063   20.0386 O   0  0  0  0  0  0
  -21.6637   -6.8890   21.4249 O   0  0  0  0  0  0
  -22.3483  -14.5471   20.6713 O   0  0  0  0  0  0
  -24.6272  -31.8583   23.2026 C   0  0  0  0  0  0
  -25.9122  -32.4774   23.8353 C   0  0  1  0  0  0
  -27.2171  -27.3188   20.1148 C   0  0  0  0  0  0
  -25.5951  -33.8577   24.2289 N   0  0  0  0  0  0
  -23.4185  -30.4830   21.5447 C   0  0  2  0  0  0
  -24.8625  -28.9326   20.1141 C   0  0  0  0  0  0
  -22.7464  -29.4645   22.4942 C   0  0  0  0  0  0
  -18.0285  -28.1401   22.8477 C   0  0  0  0  0  0
  -24.1496  -36.7283   23.2638 C   0  0  0  0  0  0
  -25.9600  -30.7905   21.3705 C   0  0  0  0  0  0
  -26.0331  -29.4167   20.7129 C   0  0  0  0  0  0
  -27.2176  -28.6225   20.6998 C   0  0  0  0  0  0
  -26.0272  -26.8797   19.4989 C   0  0  0  0  0  0
  -24.8597  -27.6688   19.4996 C   0  0  0  0  0  0
  -23.6312  -29.8156   20.1613 C   0  0  0  0  0  0
  -25.4120  -36.3077   24.0330 C   0  0  1  0  0  0
  -20.5880  -28.3720   23.1276 C   0  0  2  0  0  0
  -20.6785  -26.9443   22.5407 C   0  0  0  0  0  0
  -19.5767  -26.6399   21.5206 C   0  0  0  0  0  0
  -18.1939  -26.7945   22.1607 C   0  0  0  0  0  0
  -19.1531  -28.8871   23.2872 C   0  0  0  0  0  0
  -18.9462  -30.1462   23.8896 C   0  0  0  0  0  0
  -17.6469  -30.6597   24.0567 C   0  0  0  0  0  0
  -25.9056  -34.9447   23.5102 C   0  0  0  0  0  0
  -16.5359  -29.9092   23.6334 C   0  0  0  0  0  0
  -16.7276  -28.6513   23.0353 C   0  0  0  0  0  0
  -26.4510  -31.6571   25.0722 C   0  0  0  0  0  0
  -25.3759  -31.3669   26.1461 C   0  0  0  0  0  0
  -27.0370  -30.3008   24.6164 C   0  0  0  0  0  0
  -27.6093  -32.4306   25.7473 C   0  0  0  0  0  0
  -27.5584  -37.1781   24.8455 C   0  0  0  0  0  0
  -21.4185  -29.3049   22.3659 N   0  0  0  0  0  0
  -26.4286  -37.3782   23.9418 N   0  0  0  0  0  0
  -24.6872  -31.0610   22.0958 N   0  0  0  0  0  0
  -23.4185  -28.8192   23.3035 O   0  0  0  0  0  0
  -28.3359  -26.4790   20.1117 O   0  0  0  0  0  0
  -26.5616  -34.8900   22.4666 O   0  0  0  0  0  0
  -23.5448  -32.1407   23.7361 O   0  0  0  0  0  0
  -29.5638  -18.7880   19.0652 C   0  0  0  0  0  0
  -29.5422  -19.5077   21.3477 C   0  0  0  0  0  0
  -29.7303  -17.4271   19.4709 C   0  0  0  0  0  0
  -29.6963  -18.1442   21.7518 C   0  0  0  0  0  0
  -29.5177  -19.8889   19.9821 C   0  0  0  0  0  0
  -29.8438  -17.0521   20.8359 C   0  0  0  0  0  0
  -30.3997  -21.6888   18.5591 C   0  0  0  0  0  0
  -30.4255  -23.1344   18.0357 C   0  0  0  0  0  0
  -30.0846  -24.1858   19.0933 C   0  0  0  0  0  0
  -28.7923  -22.4018   20.3126 C   0  0  0  0  0  0
  -28.7093  -23.8767   19.6729 C   0  0  1  0  0  0
  -30.1427  -15.4529   22.7560 C   0  0  0  0  0  0
  -28.1770  -25.0801   20.5788 C   0  0  0  0  0  0
  -29.5245  -21.3115   19.5437 N   0  0  0  0  0  0
  -30.0692  -15.6574   21.2983 N   0  0  0  0  0  0
  -31.2015  -20.9135   18.0267 O   0  0  0  0  0  0
  -31.4752  -12.5062   19.1903 H   0  0  0  0  0  0
  -30.3361  -11.4112   19.9093 H   0  0  0  0  0  0
  -29.7789  -11.7958   17.4828 H   0  0  0  0  0  0
  -29.6526  -13.5154   17.7765 H   0  0  0  0  0  0
  -27.8635  -11.3107   18.8550 H   0  0  0  0  0  0
  -27.3885  -12.6143   17.7913 H   0  0  0  0  0  0
  -27.6749  -14.2719   19.5378 H   0  0  0  0  0  0
  -28.6894  -12.0567   21.3894 H   0  0  0  0  0  0
  -28.3947  -13.7095   21.8377 H   0  0  0  0  0  0
  -25.2821   -9.5633   22.4756 H   0  0  0  0  0  0
  -24.0050   -7.4611   22.7486 H   0  0  0  0  0  0
  -21.0897   -8.8780   19.8921 H   0  0  0  0  0  0
  -22.3800  -10.9670   19.6171 H   0  0  0  0  0  0
  -21.2037   -7.6182   23.9756 H   0  0  0  0  0  0
  -21.1476   -6.0517   25.9088 H   0  0  0  0  0  0
  -22.0611   -2.7630   23.2831 H   0  0  0  0  0  0
  -22.4136  -11.9818   22.4792 H   0  0  0  0  0  0
  -21.1085  -13.1114   22.2627 H   0  0  0  0  0  0
  -24.6562  -15.8472   20.5497 H   0  0  0  0  0  0
  -26.2800  -15.6417   20.1246 H   0  0  0  0  0  0
  -26.7194  -32.5437   23.1099 H   0  0  0  0  0  0
  -25.0121  -33.9724   25.0449 H   0  0  0  0  0  0
  -22.7140  -31.3042   21.4016 H   0  0  0  0  0  0
  -23.3772  -35.9598   23.3273 H   0  0  0  0  0  0
  -24.3593  -36.8952   22.2059 H   0  0  0  0  0  0
  -23.7222  -37.6460   23.6693 H   0  0  0  0  0  0
  -26.0889  -31.5531   20.6021 H   0  0  0  0  0  0
  -26.8429  -30.8408   21.9975 H   0  0  0  0  0  0
  -28.1210  -28.9893   21.1674 H   0  0  0  0  0  0
  -25.9955  -25.9126   19.0185 H   0  0  0  0  0  0
  -23.9614  -27.2934   19.0293 H   0  0  0  0  0  0
  -23.7533  -30.5918   19.4055 H   0  0  0  0  0  0
  -22.7505  -29.2466   19.8607 H   0  0  0  0  0  0
  -25.1294  -36.1920   25.0822 H   0  0  0  0  0  0
  -20.9970  -28.3308   24.1397 H   0  0  0  0  0  0
  -20.5719  -26.2320   23.3598 H   0  0  0  0  0  0
  -21.6657  -26.7486   22.1190 H   0  0  0  0  0  0
  -19.6943  -25.6307   21.1238 H   0  0  0  0  0  0
  -19.6713  -27.3201   20.6730 H   0  0  0  0  0  0
  -17.4210  -26.6697   21.4005 H   0  0  0  0  0  0
  -18.0341  -26.0085   22.9004 H   0  0  0  0  0  0
  -19.7937  -30.7274   24.2283 H   0  0  0  0  0  0
  -17.5021  -31.6282   24.5168 H   0  0  0  0  0  0
  -15.5354  -30.3006   23.7653 H   0  0  0  0  0  0
  -15.8676  -28.0830   22.7079 H   0  0  0  0  0  0
  -24.5961  -30.6997   25.7765 H   0  0  0  0  0  0
  -24.8912  -32.2814   26.4897 H   0  0  0  0  0  0
  -25.8118  -30.8836   27.0216 H   0  0  0  0  0  0
  -26.2937  -29.6718   24.1266 H   0  0  0  0  0  0
  -27.4168  -29.7307   25.4645 H   0  0  0  0  0  0
  -27.8756  -30.4309   23.9324 H   0  0  0  0  0  0
  -27.2749  -33.3635   26.2016 H   0  0  0  0  0  0
  -28.3904  -32.6815   25.0286 H   0  0  0  0  0  0
  -28.0757  -31.8444   26.5400 H   0  0  0  0  0  0
  -28.2554  -38.0119   24.7579 H   0  0  0  0  0  0
  -28.1132  -36.2662   24.6204 H   0  0  0  0  0  0
  -27.2317  -37.1340   25.8855 H   0  0  0  0  0  0
  -20.9376  -29.8711   21.6811 H   0  0  0  0  0  0
  -26.0165  -38.2844   24.1476 H   0  0  0  0  0  0
  -29.5087  -18.9818   18.0036 H   0  0  0  0  0  0
  -29.4950  -20.2665   22.1180 H   0  0  0  0  0  0
  -29.7878  -16.6678   18.7020 H   0  0  0  0  0  0
  -29.7260  -17.9653   22.8155 H   0  0  0  0  0  0
  -29.7290  -23.2035   17.1993 H   0  0  0  0  0  0
  -31.4122  -23.3486   17.6251 H   0  0  0  0  0  0
  -30.0959  -25.1781   18.6380 H   0  0  0  0  0  0
  -30.8435  -24.1959   19.8788 H   0  0  0  0  0  0
  -27.7819  -22.0489   20.5243 H   0  0  0  0  0  0
  -29.2849  -22.4844   21.2817 H   0  0  0  0  0  0
  -28.0152  -23.8215   18.8298 H   0  0  0  0  0  0
  -29.2289  -15.7895   23.2437 H   0  0  0  0  0  0
  -30.9818  -16.0094   23.1761 H   0  0  0  0  0  0
  -30.2862  -14.4105   23.0442 H   0  0  0  0  0  0
  -28.7041  -25.0336   21.5320 H   0  0  0  0  0  0
  -27.1361  -24.8776   20.8390 H   0  0  0  0  0  0
  1 25  1  0  0  0
  1 30  2  0  0  0
  1 85  1  0  0  0
  2  3  1  0  0  0
  2 25  1  0  0  0
  2 87  1  0  0  0
  2 88  1  0  0  0
  3  4  1  0  0  0
  3 89  1  0  0  0
  3 90  1  0  0  0
  4  5  1  0  0  0
  4 91  1  0  0  0
  4 92  1  0  0  0
  5  6  1  0  0  0
  5 26  1  0  0  0
  5 93  1  0  0  0
  6 25  1  0  0  0
  6 94  1  0  0  0
  6 95  1  0  0  0
  7  8  2  0  0  0
  7 26  1  0  0  0
  7 29  1  0  0  0
  8  9  1  0  0  0
  8 22  1  0  0  0
  9 10  1  0  0  0
  9 27  2  0  0  0
 10 11  2  0  0  0
 10 15  1  0  0  0
 11 12  1  0  0  0
 11 96  1  0  0  0
 12 13  2  0  0  0
 12 97  1  0  0  0
 13 14  1  0  0  0
 13 31  1  0  0  0
 14 15  2  0  0  0
 14 98  1  0  0  0
 15 99  1  0  0  0
 16 17  2  0  0  0
 16 21  1  0  0  0
 16 31  1  0  0  0
 17 18  1  0  0  0
 17100  1  0  0  0
 18 19  2  0  0  0
 18101  1  0  0  0
 19 20  1  0  0  0
 19 24  1  0  0  0
 20 21  2  0  0  0
 20102  1  0  0  0
 21 23  1  0  0  0
 22 28  1  0  0  0
 22 32  2  0  0  0
 26 27  1  0  0  0
 28103  1  0  0  0
 28104  1  0  0  0
 29105  1  0  0  0
 29106  1  0  0  0
 33 34  1  0  0  0
 33 66  1  0  0  0
 33 70  2  0  0  0
 34 36  1  0  0  0
 34 59  1  0  0  0
 34107  1  0  0  0
 35 44  2  0  0  0
 35 45  1  0  0  0
 35 68  1  0  0  0
 36 56  1  0  0  0
 36108  1  0  0  0
 37 39  1  0  0  0
 37 47  1  0  0  0
 37 66  1  0  0  0
 37109  1  0  0  0
 38 43  2  0  0  0
 38 46  1  0  0  0
 38 47  1  0  0  0
 39 64  1  0  0  0
 39 67  2  0  0  0
 40 52  1  0  0  0
 40 53  2  0  0  0
 40 58  1  0  0  0
 41110  1  0  0  0
 41111  1  0  0  0
 41112  1  0  0  0
 41 48  1  0  0  0
 42 43  1  0  0  0
 42 66  1  0  0  0
 42113  1  0  0  0
 42114  1  0  0  0
 43 44  1  0  0  0
 44115  1  0  0  0
 45 46  2  0  0  0
 45116  1  0  0  0
 46117  1  0  0  0
 47118  1  0  0  0
 47119  1  0  0  0
 48 56  1  0  0  0
 48 65  1  0  0  0
 48120  1  0  0  0
 49 50  1  0  0  0
 49 53  1  0  0  0
 49 64  1  0  0  0
 49121  1  0  0  0
 50 51  1  0  0  0
 50122  1  0  0  0
 50123  1  0  0  0
 51 52  1  0  0  0
 51124  1  0  0  0
 51125  1  0  0  0
 52126  1  0  0  0
 52127  1  0  0  0
 53 54  1  0  0  0
 54 55  2  0  0  0
 54128  1  0  0  0
 55 57  1  0  0  0
 55129  1  0  0  0
 56 69  2  0  0  0
 57 58  2  0  0  0
 57130  1  0  0  0
 58131  1  0  0  0
 59 60  1  0  0  0
 59 61  1  0  0  0
 59 62  1  0  0  0
 60132  1  0  0  0
 60133  1  0  0  0
 60134  1  0  0  0
 61135  1  0  0  0
 61136  1  0  0  0
 61137  1  0  0  0
 62138  1  0  0  0
 62139  1  0  0  0
 62140  1  0  0  0
 63 65  1  0  0  0
 63141  1  0  0  0
 63142  1  0  0  0
 63143  1  0  0  0
 64144  1  0  0  0
 65145  1  0  0  0
 68 83  1  0  0  0
 71 73  2  0  0  0
 71 75  1  0  0  0
 71146  1  0  0  0
 72 74  1  0  0  0
 72 75  2  0  0  0
 72147  1  0  0  0
 73 76  1  0  0  0
 73148  1  0  0  0
 74 76  2  0  0  0
 74149  1  0  0  0
 75 84  1  0  0  0
 76 85  1  0  0  0
 77 78  1  0  0  0
 77 84  1  0  0  0
 77 86  2  0  0  0
 78 79  1  0  0  0
 78150  1  0  0  0
 78151  1  0  0  0
 79 81  1  0  0  0
 79152  1  0  0  0
 79153  1  0  0  0
 80 81  1  0  0  0
 80 84  1  0  0  0
 80154  1  0  0  0
 80155  1  0  0  0
 81 83  1  0  0  0
 81156  1  0  0  0
 82 85  1  0  0  0
 82157  1  0  0  0
 82158  1  0  0  0
 82159  1  0  0  0
 83160  1  0  0  0
 83161  1  0  0  0
M  ISO  4   1 100  68 101  83 101  85 100
M  END
> <chiral flag>
0

> <version>
0

> <s_m_source_file>
/data/baiqing/PycharmProjects/Reinvent-master-3.2/result/LINK_invent/BTK/process_docking_weight1_custom_product_contain_oxygen_bond_distance_aromatic_linkinvent_7_9_3/rearranged_h_0096.sdf

> <i_m_source_file_index>
43

> <r_mmod_Potential_Energy-OPLS-2005>
334.823883056641

> <r_mmod_Stretch_Energy-OPLS-2005>
104.514198303223

> <r_mmod_Bend_Energy-OPLS-2005>
148.957931518555

> <r_mmod_Torsional_Energy-OPLS-2005>
344.450317382812

> <r_mmod_Improper_Torsional_Energy-OPLS-2005>
3.49670338630676

> <r_mmod_Van_der_Waal_Energy-OPLS-2005>
162.711791992188

> <r_mmod_Electrostatic_Energy-OPLS-2005>
-267.048675537109

> <r_mmod_Solvation_Energy-OPLS-2005>
-207.603317260742

> <b_mmod_Minimization_Converged-OPLS-2005>
0

> <r_mmod_RMS_Derivative-OPLS-2005>
3.35749626159668

$$$$
43
                    3D
 Structure written by MMmdl.
158167  0  0  1  0            999 V2000
  -30.6625  -14.6779   20.4060 C   0  0  0  0  0  0
  -30.4248  -12.4086   19.4521 C   0  0  0  0  0  0
  -29.5067  -12.5050   18.2162 C   0  0  0  0  0  0
  -28.0346  -12.3312   18.6412 C   0  0  0  0  0  0
  -27.6404  -13.2312   19.8446 C   0  0  2  0  0  0
  -28.6904  -13.1770   20.9755 C   0  0  0  0  0  0
  -25.2505  -13.8203   20.5696 C   0  0  0  0  0  0
  -24.1803  -13.0391   20.9195 C   0  0  0  0  0  0
  -24.6401  -11.6881   20.8697 C   0  0  0  0  0  0
  -23.9021  -10.4267   21.0375 C   0  0  0  0  0  0
  -24.3568   -9.4211   21.9170 C   0  0  0  0  0  0
  -23.6242   -8.2246   22.0757 C   0  0  0  0  0  0
  -22.4258   -8.0239   21.3541 C   0  0  0  0  0  0
  -21.9851   -9.0205   20.4678 C   0  0  0  0  0  0
  -22.7166  -10.2092   20.3051 C   0  0  0  0  0  0
  -21.6858   -6.0681   22.5254 C   0  0  0  0  0  0
  -21.4026   -6.5610   23.8181 C   0  0  0  0  0  0
  -21.3671   -5.6777   24.9172 C   0  0  0  0  0  0
  -21.6054   -4.3032   24.7244 C   0  0  0  0  0  0
  -21.8807   -3.8102   23.4367 C   0  0  0  0  0  0
  -21.9213   -4.6907   22.3412 C   0  0  0  0  0  0
  -22.7859  -13.5197   21.1873 C   0  0  0  0  0  0
  -22.1684   -4.2066   21.0984 F   0  0  0  0  0  0
  -21.5638   -3.4530   25.7779 F   0  0  0  0  0  0
  -29.9973  -13.4805   20.3744 N   0  0  0  0  0  0
  -26.2926  -12.9380   20.3257 N   0  0  0  0  0  0
  -25.9330  -11.6513   20.5648 N   0  0  0  0  0  0
  -22.0499  -12.8185   22.0452 N   0  0  0  0  0  0
  -25.4123  -15.1941   20.4233 N   0  0  0  0  0  0
  -31.8674  -14.7258   20.1581 O   0  0  0  0  0  0
  -21.6684   -6.8794   21.4197 O   0  0  0  0  0  0
  -22.3536  -14.5488   20.6750 O   0  0  0  0  0  0
  -24.6244  -31.8542   23.2064 C   0  0  0  0  0  0
  -25.9096  -32.4697   23.8340 C   0  0  1  0  0  0
  -27.1938  -27.2895   20.0734 C   0  0  0  0  0  0
  -25.5971  -33.8531   24.2258 N   0  0  0  0  0  0
  -23.4176  -30.4841   21.5485 C   0  0  2  0  0  0
  -24.8574  -28.9383   20.1149 C   0  0  0  0  0  0
  -22.7445  -29.4622   22.4954 C   0  0  0  0  0  0
  -18.0267  -28.1413   22.8440 C   0  0  0  0  0  0
  -24.1514  -36.7244   23.2635 C   0  0  0  0  0  0
  -25.9652  -30.7627   21.3955 C   0  0  0  0  0  0
  -26.0272  -29.3929   20.7309 C   0  0  0  0  0  0
  -27.1942  -28.5669   20.7260 C   0  0  0  0  0  0
  -26.0063  -26.9233   19.4080 C   0  0  0  0  0  0
  -24.8451  -27.7065   19.4572 C   0  0  0  0  0  0
  -23.6282  -29.8147   20.1659 C   0  0  0  0  0  0
  -25.4135  -36.3018   24.0302 C   0  0  1  0  0  0
  -20.5858  -28.3744   23.1257 C   0  0  2  0  0  0
  -20.6765  -26.9467   22.5399 C   0  0  0  0  0  0
  -19.5756  -26.6411   21.5182 C   0  0  0  0  0  0
  -18.1933  -26.7934   22.1605 C   0  0  0  0  0  0
  -19.1514  -28.8875   23.2837 C   0  0  0  0  0  0
  -18.9449  -30.1478   23.8868 C   0  0  0  0  0  0
  -17.6459  -30.6608   24.0550 C   0  0  0  0  0  0
  -25.9082  -34.9395   23.5047 C   0  0  0  0  0  0
  -16.5343  -29.9104   23.6335 C   0  0  0  0  0  0
  -16.7248  -28.6533   23.0320 C   0  0  0  0  0  0
  -26.4540  -31.6517   25.0678 C   0  0  0  0  0  0
  -25.3797  -31.3628   26.1385 C   0  0  0  0  0  0
  -27.0408  -30.2885   24.6257 C   0  0  0  0  0  0
  -27.6082  -32.4261   25.7440 C   0  0  0  0  0  0
  -27.5582  -37.1769   24.8457 C   0  0  0  0  0  0
  -21.4166  -29.3076   22.3646 N   0  0  0  0  0  0
  -26.4300  -37.3712   23.9383 N   0  0  0  0  0  0
  -24.6860  -31.0553   22.1044 N   0  0  0  0  0  0
  -23.4155  -28.8152   23.3032 O   0  0  0  0  0  0
  -28.2854  -26.4057   20.1164 O   0  0  0  0  0  0
  -26.5658  -34.8861   22.4629 O   0  0  0  0  0  0
  -23.5434  -32.1406   23.7394 O   0  0  0  0  0  0
  -28.8620  -19.2060   20.8250 C   0  0  0  0  0  0
  -30.0632  -19.2097   18.7452 C   0  0  0  0  0  0
  -28.3630  -20.5141   20.5440 C   0  0  0  0  0  0
  -29.5378  -20.5091   18.4511 C   0  0  0  0  0  0
  -29.7414  -18.5209   19.9499 C   0  0  0  0  0  0
  -28.6877  -21.2124   19.3531 C   0  0  0  0  0  0
  -26.9921  -22.3978   18.1917 C   0  0  0  0  0  0
  -25.8058  -23.1825   18.7219 C   0  0  0  0  0  0
  -26.3078  -23.6324   20.1084 C   0  0  0  0  0  0
  -27.8359  -23.6822   19.9438 C   0  0  2  0  0  0
  -30.5227  -17.2297   20.4102 C   0  0  0  0  0  0
  -28.3067  -25.1155   19.3603 C   0  0  0  0  0  0
  -28.0628  -22.5005   19.0102 N   0  0  0  0  0  0
  -29.9338  -15.8414   20.4706 N   0  0  0  0  0  0
  -26.9206  -21.7346   17.1498 O   0  0  0  0  0  0
  -31.4728  -12.4871   19.1671 H   0  0  0  0  0  0
  -30.3180  -11.4333   19.9235 H   0  0  0  0  0  0
  -29.7715  -11.7533   17.4697 H   0  0  0  0  0  0
  -29.6429  -13.4682   17.7300 H   0  0  0  0  0  0
  -27.8917  -11.2804   18.8972 H   0  0  0  0  0  0
  -27.3694  -12.5325   17.8053 H   0  0  0  0  0  0
  -27.6305  -14.2552   19.4679 H   0  0  0  0  0  0
  -28.6987  -12.1972   21.4595 H   0  0  0  0  0  0
  -28.4565  -13.9017   21.7597 H   0  0  0  0  0  0
  -25.2698   -9.5704   22.4760 H   0  0  0  0  0  0
  -23.9967   -7.4631   22.7466 H   0  0  0  0  0  0
  -21.0777   -8.8689   19.8971 H   0  0  0  0  0  0
  -22.3573  -10.9620   19.6169 H   0  0  0  0  0  0
  -21.2009   -7.6113   23.9646 H   0  0  0  0  0  0
  -21.1520   -6.0541   25.9059 H   0  0  0  0  0  0
  -22.0578   -2.7538   23.2936 H   0  0  0  0  0  0
  -22.4176  -11.9892   22.4848 H   0  0  0  0  0  0
  -21.1101  -13.1162   22.2620 H   0  0  0  0  0  0
  -24.6264  -15.8249   20.5474 H   0  0  0  0  0  0
  -26.2520  -15.6533   20.0848 H   0  0  0  0  0  0
  -26.7150  -32.5339   23.1081 H   0  0  0  0  0  0
  -25.0047  -33.9663   25.0351 H   0  0  0  0  0  0
  -22.7166  -31.3103   21.4046 H   0  0  0  0  0  0
  -23.3762  -35.9595   23.3271 H   0  0  0  0  0  0
  -24.3588  -36.8886   22.2053 H   0  0  0  0  0  0
  -23.7327  -37.6445   23.6695 H   0  0  0  0  0  0
  -26.1332  -31.5339   20.6467 H   0  0  0  0  0  0
  -26.8316  -30.7862   22.0449 H   0  0  0  0  0  0
  -28.0768  -28.8833   21.2667 H   0  0  0  0  0  0
  -25.9255  -26.0067   18.8545 H   0  0  0  0  0  0
  -23.9414  -27.3559   18.9765 H   0  0  0  0  0  0
  -23.7578  -30.5857   19.4088 H   0  0  0  0  0  0
  -22.7487  -29.2445   19.8564 H   0  0  0  0  0  0
  -25.1353  -36.1829   25.0802 H   0  0  0  0  0  0
  -20.9932  -28.3347   24.1376 H   0  0  0  0  0  0
  -20.5677  -26.2354   23.3619 H   0  0  0  0  0  0
  -21.6636  -26.7504   22.1197 H   0  0  0  0  0  0
  -19.6944  -25.6321   21.1221 H   0  0  0  0  0  0
  -19.6675  -27.3217   20.6713 H   0  0  0  0  0  0
  -17.4193  -26.6629   21.4024 H   0  0  0  0  0  0
  -18.0390  -26.0086   22.9033 H   0  0  0  0  0  0
  -19.7937  -30.7285   24.2240 H   0  0  0  0  0  0
  -17.5018  -31.6275   24.5208 H   0  0  0  0  0  0
  -15.5347  -30.3006   23.7689 H   0  0  0  0  0  0
  -15.8641  -28.0858   22.7042 H   0  0  0  0  0  0
  -24.5999  -30.6968   25.7669 H   0  0  0  0  0  0
  -24.8994  -32.2792   26.4812 H   0  0  0  0  0  0
  -25.8118  -30.8771   27.0158 H   0  0  0  0  0  0
  -26.3008  -29.6543   24.1326 H   0  0  0  0  0  0
  -27.4069  -29.7202   25.4856 H   0  0  0  0  0  0
  -27.8939  -30.4032   23.9536 H   0  0  0  0  0  0
  -27.2664  -33.3556   26.2037 H   0  0  0  0  0  0
  -28.3900  -32.6829   25.0257 H   0  0  0  0  0  0
  -28.0793  -31.8380   26.5367 H   0  0  0  0  0  0
  -28.2585  -38.0076   24.7458 H   0  0  0  0  0  0
  -28.1102  -36.2586   24.6357 H   0  0  0  0  0  0
  -27.2252  -37.1464   25.8847 H   0  0  0  0  0  0
  -20.9428  -29.8721   21.6737 H   0  0  0  0  0  0
  -26.0148  -38.2774   24.1372 H   0  0  0  0  0  0
  -28.5922  -18.7409   21.7622 H   0  0  0  0  0  0
  -30.7385  -18.7492   18.0343 H   0  0  0  0  0  0
  -27.7002  -20.9778   21.2626 H   0  0  0  0  0  0
  -29.7958  -20.9785   17.5085 H   0  0  0  0  0  0
  -24.9115  -22.5597   18.7885 H   0  0  0  0  0  0
  -25.6093  -24.0010   18.0343 H   0  0  0  0  0  0
  -25.8617  -24.5549   20.4651 H   0  0  0  0  0  0
  -26.0338  -22.8757   20.8521 H   0  0  0  0  0  0
  -28.3363  -23.4935   20.8968 H   0  0  0  0  0  0
  -30.8331  -17.4516   21.4370 H   0  0  0  0  0  0
  -31.4557  -17.1967   19.8426 H   0  0  0  0  0  0
  -29.3624  -24.9980   19.1198 H   0  0  0  0  0  0
  -27.8577  -25.2790   18.3791 H   0  0  0  0  0  0
  -28.9418  -15.7568   20.6175 H   0  0  0  0  0  0
  1 25  1  0  0  0
  1 30  2  0  0  0
  1 84  1  0  0  0
  2  3  1  0  0  0
  2 25  1  0  0  0
  2 86  1  0  0  0
  2 87  1  0  0  0
  3  4  1  0  0  0
  3 88  1  0  0  0
  3 89  1  0  0  0
  4  5  1  0  0  0
  4 90  1  0  0  0
  4 91  1  0  0  0
  5  6  1  0  0  0
  5 26  1  0  0  0
  5 92  1  0  0  0
  6 25  1  0  0  0
  6 93  1  0  0  0
  6 94  1  0  0  0
  7  8  2  0  0  0
  7 26  1  0  0  0
  7 29  1  0  0  0
  8  9  1  0  0  0
  8 22  1  0  0  0
  9 10  1  0  0  0
  9 27  2  0  0  0
 10 11  2  0  0  0
 10 15  1  0  0  0
 11 12  1  0  0  0
 11 95  1  0  0  0
 12 13  2  0  0  0
 12 96  1  0  0  0
 13 14  1  0  0  0
 13 31  1  0  0  0
 14 15  2  0  0  0
 14 97  1  0  0  0
 15 98  1  0  0  0
 16 17  2  0  0  0
 16 21  1  0  0  0
 16 31  1  0  0  0
 17 18  1  0  0  0
 17 99  1  0  0  0
 18 19  2  0  0  0
 18100  1  0  0  0
 19 20  1  0  0  0
 19 24  1  0  0  0
 20 21  2  0  0  0
 20101  1  0  0  0
 21 23  1  0  0  0
 22 28  1  0  0  0
 22 32  2  0  0  0
 26 27  1  0  0  0
 28102  1  0  0  0
 28103  1  0  0  0
 29104  1  0  0  0
 29105  1  0  0  0
 33 34  1  0  0  0
 33 66  1  0  0  0
 33 70  2  0  0  0
 34 36  1  0  0  0
 34 59  1  0  0  0
 34106  1  0  0  0
 35 44  2  0  0  0
 35 45  1  0  0  0
 35 68  1  0  0  0
 36 56  1  0  0  0
 36107  1  0  0  0
 37 39  1  0  0  0
 37 47  1  0  0  0
 37 66  1  0  0  0
 37108  1  0  0  0
 38 43  2  0  0  0
 38 46  1  0  0  0
 38 47  1  0  0  0
 39 64  1  0  0  0
 39 67  2  0  0  0
 40 52  1  0  0  0
 40 53  2  0  0  0
 40 58  1  0  0  0
 41109  1  0  0  0
 41110  1  0  0  0
 41111  1  0  0  0
 41 48  1  0  0  0
 42 43  1  0  0  0
 42 66  1  0  0  0
 42112  1  0  0  0
 42113  1  0  0  0
 43 44  1  0  0  0
 44114  1  0  0  0
 45 46  2  0  0  0
 45115  1  0  0  0
 46116  1  0  0  0
 47117  1  0  0  0
 47118  1  0  0  0
 48 56  1  0  0  0
 48 65  1  0  0  0
 48119  1  0  0  0
 49 50  1  0  0  0
 49 53  1  0  0  0
 49 64  1  0  0  0
 49120  1  0  0  0
 50 51  1  0  0  0
 50121  1  0  0  0
 50122  1  0  0  0
 51 52  1  0  0  0
 51123  1  0  0  0
 51124  1  0  0  0
 52125  1  0  0  0
 52126  1  0  0  0
 53 54  1  0  0  0
 54 55  2  0  0  0
 54127  1  0  0  0
 55 57  1  0  0  0
 55128  1  0  0  0
 56 69  2  0  0  0
 57 58  2  0  0  0
 57129  1  0  0  0
 58130  1  0  0  0
 59 60  1  0  0  0
 59 61  1  0  0  0
 59 62  1  0  0  0
 60131  1  0  0  0
 60132  1  0  0  0
 60133  1  0  0  0
 61134  1  0  0  0
 61135  1  0  0  0
 61136  1  0  0  0
 62137  1  0  0  0
 62138  1  0  0  0
 62139  1  0  0  0
 63 65  1  0  0  0
 63140  1  0  0  0
 63141  1  0  0  0
 63142  1  0  0  0
 64143  1  0  0  0
 65144  1  0  0  0
 68 82  1  0  0  0
 71 73  2  0  0  0
 71 75  1  0  0  0
 71145  1  0  0  0
 72 74  1  0  0  0
 72 75  2  0  0  0
 72146  1  0  0  0
 73 76  1  0  0  0
 73147  1  0  0  0
 74 76  2  0  0  0
 74148  1  0  0  0
 75 81  1  0  0  0
 76 83  1  0  0  0
 77 78  1  0  0  0
 77 83  1  0  0  0
 77 85  2  0  0  0
 78 79  1  0  0  0
 78149  1  0  0  0
 78150  1  0  0  0
 79 80  1  0  0  0
 79151  1  0  0  0
 79152  1  0  0  0
 80 82  1  0  0  0
 80 83  1  0  0  0
 80153  1  0  0  0
 81 84  1  0  0  0
 81154  1  0  0  0
 81155  1  0  0  0
 82156  1  0  0  0
 82157  1  0  0  0
 84158  1  0  0  0
M  ISO  4   1 100  68 101  82 101  84 100
M  END
> <chiral flag>
0

> <version>
0

> <s_m_source_file>
/data/baiqing/PycharmProjects/Reinvent-master-3.2/result/LINK_invent/BTK/process_docking_weight1_custom_product_contain_oxygen_bond_distance_aromatic_linkinvent_7_9_3/rearranged_h_0096.sdf

> <i_m_source_file_index>
44

> <r_mmod_Potential_Energy-OPLS-2005>
200.177627563477

> <r_mmod_Stretch_Energy-OPLS-2005>
93.7256851196289

> <r_mmod_Bend_Energy-OPLS-2005>
198.210494995117

> <r_mmod_Torsional_Energy-OPLS-2005>
300.895935058594

> <r_mmod_Improper_Torsional_Energy-OPLS-2005>
10.1942958831787

> <r_mmod_Van_der_Waal_Energy-OPLS-2005>
142.989303588867

> <r_mmod_Electrostatic_Energy-OPLS-2005>
-393.434478759766

> <r_mmod_Solvation_Energy-OPLS-2005>
-224.472412109375

> <b_mmod_Minimization_Converged-OPLS-2005>
0

> <r_mmod_RMS_Derivative-OPLS-2005>
8.20101070404053

$$$$
44
                    3D
 Structure written by MMmdl.
152160  0  0  1  0            999 V2000
  -30.7142  -14.6511   20.5016 C   0  0  0  0  0  0
  -30.4116  -12.4109   19.4561 C   0  0  0  0  0  0
  -29.4946  -12.4959   18.2213 C   0  0  0  0  0  0
  -28.0237  -12.3316   18.6436 C   0  0  0  0  0  0
  -27.6410  -13.2339   19.8481 C   0  0  2  0  0  0
  -28.6911  -13.1735   20.9797 C   0  0  0  0  0  0
  -25.2514  -13.8205   20.5706 C   0  0  0  0  0  0
  -24.1809  -13.0447   20.9218 C   0  0  0  0  0  0
  -24.6401  -11.6925   20.8757 C   0  0  0  0  0  0
  -23.9081  -10.4298   21.0414 C   0  0  0  0  0  0
  -24.3627   -9.4210   21.9190 C   0  0  0  0  0  0
  -23.6296   -8.2246   22.0757 C   0  0  0  0  0  0
  -22.4281   -8.0287   21.3544 C   0  0  0  0  0  0
  -21.9923   -9.0264   20.4647 C   0  0  0  0  0  0
  -22.7256  -10.2140   20.3060 C   0  0  0  0  0  0
  -21.6853   -6.0741   22.5277 C   0  0  0  0  0  0
  -21.4014   -6.5643   23.8212 C   0  0  0  0  0  0
  -21.3658   -5.6796   24.9173 C   0  0  0  0  0  0
  -21.6044   -4.3057   24.7223 C   0  0  0  0  0  0
  -21.8819   -3.8152   23.4343 C   0  0  0  0  0  0
  -21.9193   -4.6970   22.3399 C   0  0  0  0  0  0
  -22.7829  -13.5227   21.1869 C   0  0  0  0  0  0
  -22.1662   -4.2154   21.0977 F   0  0  0  0  0  0
  -21.5628   -3.4542   25.7736 F   0  0  0  0  0  0
  -29.9945  -13.4868   20.3835 N   0  0  0  0  0  0
  -26.2946  -12.9422   20.3304 N   0  0  0  0  0  0
  -25.9334  -11.6560   20.5775 N   0  0  0  0  0  0
  -22.0469  -12.8211   22.0412 N   0  0  0  0  0  0
  -25.4198  -15.1928   20.4099 N   0  0  0  0  0  0
  -31.9045  -14.6400   20.1776 O   0  0  0  0  0  0
  -21.6642   -6.8888   21.4241 O   0  0  0  0  0  0
  -22.3516  -14.5532   20.6714 O   0  0  0  0  0  0
  -24.6283  -31.8604   23.2053 C   0  0  0  0  0  0
  -25.9131  -32.4781   23.8367 C   0  0  1  0  0  0
  -27.2084  -27.3028   20.1118 C   0  0  0  0  0  0
  -25.5947  -33.8581   24.2291 N   0  0  0  0  0  0
  -23.4202  -30.4882   21.5497 C   0  0  2  0  0  0
  -24.8641  -28.9526   20.1082 C   0  0  0  0  0  0
  -22.7478  -29.4633   22.4947 C   0  0  0  0  0  0
  -18.0282  -28.1388   22.8488 C   0  0  0  0  0  0
  -24.1488  -36.7288   23.2635 C   0  0  0  0  0  0
  -25.9652  -30.7871   21.3793 C   0  0  0  0  0  0
  -26.0370  -29.4154   20.7184 C   0  0  0  0  0  0
  -27.2129  -28.6018   20.7148 C   0  0  0  0  0  0
  -26.0123  -26.9165   19.4568 C   0  0  0  0  0  0
  -24.8554  -27.7094   19.4677 C   0  0  0  0  0  0
  -23.6332  -29.8318   20.1624 C   0  0  0  0  0  0
  -25.4112  -36.3081   24.0327 C   0  0  1  0  0  0
  -20.5884  -28.3692   23.1285 C   0  0  2  0  0  0
  -20.6776  -26.9416   22.5405 C   0  0  0  0  0  0
  -19.5748  -26.6387   21.5210 C   0  0  0  0  0  0
  -18.1927  -26.7933   22.1621 C   0  0  0  0  0  0
  -19.1535  -28.8857   23.2880 C   0  0  0  0  0  0
  -18.9458  -30.1461   23.8895 C   0  0  0  0  0  0
  -17.6459  -30.6591   24.0561 C   0  0  0  0  0  0
  -25.9054  -34.9452   23.5104 C   0  0  0  0  0  0
  -16.5350  -29.9087   23.6338 C   0  0  0  0  0  0
  -16.7269  -28.6504   23.0360 C   0  0  0  0  0  0
  -26.4515  -31.6587   25.0734 C   0  0  0  0  0  0
  -25.3743  -31.3709   26.1452 C   0  0  0  0  0  0
  -27.0367  -30.3017   24.6185 C   0  0  0  0  0  0
  -27.6072  -32.4321   25.7506 C   0  0  0  0  0  0
  -27.5580  -37.1795   24.8460 C   0  0  0  0  0  0
  -21.4189  -29.3049   22.3687 N   0  0  0  0  0  0
  -26.4284  -37.3781   23.9416 N   0  0  0  0  0  0
  -24.6905  -31.0612   22.1015 N   0  0  0  0  0  0
  -23.4199  -28.8156   23.3013 O   0  0  0  0  0  0
  -28.2907  -26.4001   20.1841 O   0  0  0  0  0  0
  -26.5611  -34.8918   22.4663 O   0  0  0  0  0  0
  -23.5447  -32.1407   23.7380 O   0  0  0  0  0  0
  -30.9119  -19.5777   20.6341 C   0  0  0  0  0  0
  -30.4384  -20.9156   20.5055 C   0  0  0  0  0  0
  -28.6667  -18.7416   20.8252 C   0  0  0  0  0  0
  -30.0539  -18.4467   20.7953 C   0  0  0  0  0  0
  -29.0547  -21.2072   20.5316 C   0  0  0  0  0  0
  -28.1858  -20.0856   20.6992 C   0  0  0  0  0  0
  -30.6802  -17.0480   21.0287 C   0  0  0  0  0  0
  -28.9592  -23.8224   20.3598 C   0  0  0  0  0  0
  -27.9494  -24.9671   19.9492 C   0  0  0  0  0  0
  -26.8108  -20.3108   20.7607 N   0  0  0  0  0  0
  -28.4730  -22.5365   20.3312 N   0  0  0  0  0  0
  -30.0624  -15.8482   20.7382 N   0  0  0  0  0  0
  -31.8309  -17.0718   21.4844 O   0  0  0  0  0  0
  -30.1178  -24.0989   20.6824 O   0  0  0  0  0  0
  -31.4556  -12.4883   19.1473 H   0  0  0  0  0  0
  -30.3200  -11.4362   19.9386 H   0  0  0  0  0  0
  -29.7637  -11.7279   17.4946 H   0  0  0  0  0  0
  -29.6328  -13.4553   17.7204 H   0  0  0  0  0  0
  -27.8764  -11.2837   18.9075 H   0  0  0  0  0  0
  -27.3626  -12.5269   17.7986 H   0  0  0  0  0  0
  -27.6355  -14.2551   19.4666 H   0  0  0  0  0  0
  -28.7114  -12.1848   21.4402 H   0  0  0  0  0  0
  -28.4441  -13.8788   21.7747 H   0  0  0  0  0  0
  -25.2769   -9.5681   22.4772 H   0  0  0  0  0  0
  -24.0002   -7.4638   22.7480 H   0  0  0  0  0  0
  -21.0856   -8.8789   19.8950 H   0  0  0  0  0  0
  -22.3722  -10.9683   19.6171 H   0  0  0  0  0  0
  -21.2005   -7.6151   23.9715 H   0  0  0  0  0  0
  -21.1481   -6.0526   25.9075 H   0  0  0  0  0  0
  -22.0599   -2.7615   23.2841 H   0  0  0  0  0  0
  -22.4082  -11.9866   22.4790 H   0  0  0  0  0  0
  -21.1083  -13.1233   22.2608 H   0  0  0  0  0  0
  -24.6484  -15.8437   20.5107 H   0  0  0  0  0  0
  -26.2586  -15.6284   20.0494 H   0  0  0  0  0  0
  -26.7196  -32.5447   23.1111 H   0  0  0  0  0  0
  -25.0109  -33.9727   25.0449 H   0  0  0  0  0  0
  -22.7141  -31.3097   21.4114 H   0  0  0  0  0  0
  -23.3757  -35.9611   23.3279 H   0  0  0  0  0  0
  -24.3584  -36.8930   22.2053 H   0  0  0  0  0  0
  -23.7233  -37.6481   23.6670 H   0  0  0  0  0  0
  -26.0972  -31.5512   20.6117 H   0  0  0  0  0  0
  -26.8462  -30.8354   22.0074 H   0  0  0  0  0  0
  -28.1074  -28.9480   21.2138 H   0  0  0  0  0  0
  -25.9197  -25.9770   18.9347 H   0  0  0  0  0  0
  -23.9602  -27.3534   18.9768 H   0  0  0  0  0  0
  -23.7496  -30.6116   19.4091 H   0  0  0  0  0  0
  -22.7527  -29.2619   19.8596 H   0  0  0  0  0  0
  -25.1292  -36.1924   25.0818 H   0  0  0  0  0  0
  -20.9969  -28.3258   24.1409 H   0  0  0  0  0  0
  -20.5690  -26.2293   23.3599 H   0  0  0  0  0  0
  -21.6646  -26.7457   22.1190 H   0  0  0  0  0  0
  -19.6912  -25.6297   21.1240 H   0  0  0  0  0  0
  -19.6689  -27.3197   20.6740 H   0  0  0  0  0  0
  -17.4198  -26.6684   21.4021 H   0  0  0  0  0  0
  -18.0327  -26.0070   22.9014 H   0  0  0  0  0  0
  -19.7932  -30.7280   24.2263 H   0  0  0  0  0  0
  -17.5011  -31.6276   24.5156 H   0  0  0  0  0  0
  -15.5352  -30.2988   23.7670 H   0  0  0  0  0  0
  -15.8664  -28.0821   22.7090 H   0  0  0  0  0  0
  -24.5939  -30.7035   25.7774 H   0  0  0  0  0  0
  -24.8906  -32.2862   26.4870 H   0  0  0  0  0  0
  -25.8071  -30.8896   27.0229 H   0  0  0  0  0  0
  -26.2948  -29.6753   24.1217 H   0  0  0  0  0  0
  -27.4087  -29.7285   25.4687 H   0  0  0  0  0  0
  -27.8805  -30.4315   23.9401 H   0  0  0  0  0  0
  -27.2699  -33.3638   26.2055 H   0  0  0  0  0  0
  -28.3904  -32.6845   25.0345 H   0  0  0  0  0  0
  -28.0709  -31.8452   26.5445 H   0  0  0  0  0  0
  -28.2573  -38.0118   24.7552 H   0  0  0  0  0  0
  -28.1106  -36.2654   24.6233 H   0  0  0  0  0  0
  -27.2301  -37.1377   25.8861 H   0  0  0  0  0  0
  -20.9363  -29.8782   21.6910 H   0  0  0  0  0  0
  -26.0159  -38.2846   24.1444 H   0  0  0  0  0  0
  -31.9827  -19.4263   20.6157 H   0  0  0  0  0  0
  -31.1562  -21.7129   20.3747 H   0  0  0  0  0  0
  -27.9677  -17.9303   20.9697 H   0  0  0  0  0  0
  -27.0230  -24.7285   20.4750 H   0  0  0  0  0  0
  -27.7672  -24.8304   18.8825 H   0  0  0  0  0  0
  -26.2478  -19.5366   21.0966 H   0  0  0  0  0  0
  -26.5211  -21.1767   21.2007 H   0  0  0  0  0  0
  -27.4907  -22.4852   20.0995 H   0  0  0  0  0  0
  -29.0631  -15.8588   20.6316 H   0  0  0  0  0  0
  1 25  1  0  0  0
  1 30  2  0  0  0
  1 82  1  0  0  0
  2  3  1  0  0  0
  2 25  1  0  0  0
  2 85  1  0  0  0
  2 86  1  0  0  0
  3  4  1  0  0  0
  3 87  1  0  0  0
  3 88  1  0  0  0
  4  5  1  0  0  0
  4 89  1  0  0  0
  4 90  1  0  0  0
  5  6  1  0  0  0
  5 26  1  0  0  0
  5 91  1  0  0  0
  6 25  1  0  0  0
  6 92  1  0  0  0
  6 93  1  0  0  0
  7  8  2  0  0  0
  7 26  1  0  0  0
  7 29  1  0  0  0
  8  9  1  0  0  0
  8 22  1  0  0  0
  9 10  1  0  0  0
  9 27  2  0  0  0
 10 11  2  0  0  0
 10 15  1  0  0  0
 11 12  1  0  0  0
 11 94  1  0  0  0
 12 13  2  0  0  0
 12 95  1  0  0  0
 13 14  1  0  0  0
 13 31  1  0  0  0
 14 15  2  0  0  0
 14 96  1  0  0  0
 15 97  1  0  0  0
 16 17  2  0  0  0
 16 21  1  0  0  0
 16 31  1  0  0  0
 17 18  1  0  0  0
 17 98  1  0  0  0
 18 19  2  0  0  0
 18 99  1  0  0  0
 19 20  1  0  0  0
 19 24  1  0  0  0
 20 21  2  0  0  0
 20100  1  0  0  0
 21 23  1  0  0  0
 22 28  1  0  0  0
 22 32  2  0  0  0
 26 27  1  0  0  0
 28101  1  0  0  0
 28102  1  0  0  0
 29103  1  0  0  0
 29104  1  0  0  0
 33 34  1  0  0  0
 33 66  1  0  0  0
 33 70  2  0  0  0
 34 36  1  0  0  0
 34 59  1  0  0  0
 34105  1  0  0  0
 35 44  2  0  0  0
 35 45  1  0  0  0
 35 68  1  0  0  0
 36 56  1  0  0  0
 36106  1  0  0  0
 37 39  1  0  0  0
 37 47  1  0  0  0
 37 66  1  0  0  0
 37107  1  0  0  0
 38 43  2  0  0  0
 38 46  1  0  0  0
 38 47  1  0  0  0
 39 64  1  0  0  0
 39 67  2  0  0  0
 40 52  1  0  0  0
 40 53  2  0  0  0
 40 58  1  0  0  0
 41108  1  0  0  0
 41109  1  0  0  0
 41110  1  0  0  0
 41 48  1  0  0  0
 42 43  1  0  0  0
 42 66  1  0  0  0
 42111  1  0  0  0
 42112  1  0  0  0
 43 44  1  0  0  0
 44113  1  0  0  0
 45 46  2  0  0  0
 45114  1  0  0  0
 46115  1  0  0  0
 47116  1  0  0  0
 47117  1  0  0  0
 48 56  1  0  0  0
 48 65  1  0  0  0
 48118  1  0  0  0
 49 50  1  0  0  0
 49 53  1  0  0  0
 49 64  1  0  0  0
 49119  1  0  0  0
 50 51  1  0  0  0
 50120  1  0  0  0
 50121  1  0  0  0
 51 52  1  0  0  0
 51122  1  0  0  0
 51123  1  0  0  0
 52124  1  0  0  0
 52125  1  0  0  0
 53 54  1  0  0  0
 54 55  2  0  0  0
 54126  1  0  0  0
 55 57  1  0  0  0
 55127  1  0  0  0
 56 69  2  0  0  0
 57 58  2  0  0  0
 57128  1  0  0  0
 58129  1  0  0  0
 59 60  1  0  0  0
 59 61  1  0  0  0
 59 62  1  0  0  0
 60130  1  0  0  0
 60131  1  0  0  0
 60132  1  0  0  0
 61133  1  0  0  0
 61134  1  0  0  0
 61135  1  0  0  0
 62136  1  0  0  0
 62137  1  0  0  0
 62138  1  0  0  0
 63 65  1  0  0  0
 63139  1  0  0  0
 63140  1  0  0  0
 63141  1  0  0  0
 64142  1  0  0  0
 65143  1  0  0  0
 68 79  1  0  0  0
 71 72  2  0  0  0
 71 74  1  0  0  0
 71144  1  0  0  0
 72 75  1  0  0  0
 72145  1  0  0  0
 73 74  2  0  0  0
 73 76  1  0  0  0
 73146  1  0  0  0
 74 77  1  0  0  0
 75 76  2  0  0  0
 75 81  1  0  0  0
 76 80  1  0  0  0
 77 82  1  0  0  0
 77 83  2  0  0  0
 78 79  1  0  0  0
 78 81  1  0  0  0
 78 84  2  0  0  0
 79147  1  0  0  0
 79148  1  0  0  0
 80149  1  0  0  0
 80150  1  0  0  0
 81151  1  0  0  0
 82152  1  0  0  0
M  ISO  4   1 100  68 101  79 101  82 100
M  END
> <chiral flag>
0

> <version>
0

> <s_m_source_file>
/data/baiqing/PycharmProjects/Reinvent-master-3.2/result/LINK_invent/BTK/process_docking_weight1_custom_product_contain_oxygen_bond_distance_aromatic_linkinvent_7_9_3/rearranged_h_0096.sdf

> <i_m_source_file_index>
45

> <r_mmod_Potential_Energy-OPLS-2005>
-94.3634033203125

> <r_mmod_Stretch_Energy-OPLS-2005>
85.0827026367188

> <r_mmod_Bend_Energy-OPLS-2005>
160.320205688477

> <r_mmod_Torsional_Energy-OPLS-2005>
240.028686523438

> <r_mmod_Improper_Torsional_Energy-OPLS-2005>
10.4859418869019

> <r_mmod_Van_der_Waal_Energy-OPLS-2005>
165.871932983398

> <r_mmod_Electrostatic_Energy-OPLS-2005>
-550.525451660156

> <r_mmod_Solvation_Energy-OPLS-2005>
-270.326599121094

> <b_mmod_Minimization_Converged-OPLS-2005>
0

> <r_mmod_RMS_Derivative-OPLS-2005>
0.7093545794487

$$$$
45
                    3D
 Structure written by MMmdl.
153161  0  0  1  0            999 V2000
  -30.7159  -14.4890   20.5323 C   0  0  0  0  0  0
  -30.4170  -12.3034   19.4443 C   0  0  0  0  0  0
  -29.5094  -12.5176   18.2173 C   0  0  0  0  0  0
  -28.0230  -12.3992   18.6123 C   0  0  0  0  0  0
  -27.6666  -13.2242   19.8818 C   0  0  2  0  0  0
  -28.7088  -13.0183   21.0059 C   0  0  0  0  0  0
  -25.2608  -13.8188   20.5723 C   0  0  0  0  0  0
  -24.1860  -13.0449   20.9168 C   0  0  0  0  0  0
  -24.6426  -11.6922   20.8723 C   0  0  0  0  0  0
  -23.9077  -10.4307   21.0399 C   0  0  0  0  0  0
  -24.3622   -9.4210   21.9177 C   0  0  0  0  0  0
  -23.6297   -8.2247   22.0733 C   0  0  0  0  0  0
  -22.4281   -8.0281   21.3539 C   0  0  0  0  0  0
  -21.9909   -9.0267   20.4649 C   0  0  0  0  0  0
  -22.7244  -10.2149   20.3058 C   0  0  0  0  0  0
  -21.6851   -6.0748   22.5277 C   0  0  0  0  0  0
  -21.4030   -6.5644   23.8217 C   0  0  0  0  0  0
  -21.3660   -5.6788   24.9181 C   0  0  0  0  0  0
  -21.6044   -4.3045   24.7226 C   0  0  0  0  0  0
  -21.8816   -3.8146   23.4346 C   0  0  0  0  0  0
  -21.9191   -4.6967   22.3406 C   0  0  0  0  0  0
  -22.7882  -13.5264   21.1820 C   0  0  0  0  0  0
  -22.1656   -4.2170   21.0982 F   0  0  0  0  0  0
  -21.5615   -3.4527   25.7728 F   0  0  0  0  0  0
  -30.0434  -13.3074   20.4526 N   0  0  0  0  0  0
  -26.3066  -12.9398   20.3407 N   0  0  0  0  0  0
  -25.9360  -11.6537   20.5739 N   0  0  0  0  0  0
  -22.0501  -12.8285   22.0393 N   0  0  0  0  0  0
  -25.4299  -15.1911   20.4157 N   0  0  0  0  0  0
  -31.8491  -14.6381   20.0677 O   0  0  0  0  0  0
  -21.6624   -6.8888   21.4236 O   0  0  0  0  0  0
  -22.3559  -14.5572   20.6660 O   0  0  0  0  0  0
  -24.6165  -31.8671   23.2100 C   0  0  0  0  0  0
  -25.9065  -32.4798   23.8383 C   0  0  1  0  0  0
  -27.2265  -27.4112   20.1092 C   0  0  0  0  0  0
  -25.5933  -33.8595   24.2339 N   0  0  0  0  0  0
  -23.4052  -30.4894   21.5502 C   0  0  2  0  0  0
  -24.8522  -28.9484   20.1200 C   0  0  0  0  0  0
  -22.7431  -29.4647   22.4994 C   0  0  0  0  0  0
  -18.0284  -28.1402   22.8494 C   0  0  0  0  0  0
  -24.1496  -36.7316   23.2647 C   0  0  0  0  0  0
  -25.9369  -30.8222   21.3694 C   0  0  0  0  0  0
  -26.0118  -29.4540   20.7207 C   0  0  0  0  0  0
  -27.2027  -28.6875   20.7200 C   0  0  0  0  0  0
  -26.0524  -26.9248   19.4984 C   0  0  0  0  0  0
  -24.8660  -27.6836   19.5092 C   0  0  0  0  0  0
  -23.6162  -29.8194   20.1648 C   0  0  0  0  0  0
  -25.4113  -36.3107   24.0348 C   0  0  1  0  0  0
  -20.5881  -28.3691   23.1344 C   0  0  2  0  0  0
  -20.6796  -26.9421   22.5456 C   0  0  0  0  0  0
  -19.5765  -26.6389   21.5267 C   0  0  0  0  0  0
  -18.1930  -26.7945   22.1639 C   0  0  0  0  0  0
  -19.1529  -28.8859   23.2913 C   0  0  0  0  0  0
  -18.9449  -30.1473   23.8913 C   0  0  0  0  0  0
  -17.6445  -30.6600   24.0569 C   0  0  0  0  0  0
  -25.9029  -34.9465   23.5133 C   0  0  0  0  0  0
  -16.5342  -29.9099   23.6325 C   0  0  0  0  0  0
  -16.7270  -28.6525   23.0330 C   0  0  0  0  0  0
  -26.4518  -31.6570   25.0694 C   0  0  0  0  0  0
  -25.3794  -31.3665   26.1445 C   0  0  0  0  0  0
  -27.0352  -30.3000   24.6089 C   0  0  0  0  0  0
  -27.6099  -32.4283   25.7453 C   0  0  0  0  0  0
  -27.5587  -37.1825   24.8468 C   0  0  0  0  0  0
  -21.4166  -29.3030   22.3737 N   0  0  0  0  0  0
  -26.4300  -37.3786   23.9410 N   0  0  0  0  0  0
  -24.6704  -31.0747   22.1002 N   0  0  0  0  0  0
  -23.4202  -28.8205   23.3051 O   0  0  0  0  0  0
  -28.3739  -26.6452   20.0963 O   0  0  0  0  0  0
  -26.5573  -34.8914   22.4677 O   0  0  0  0  0  0
  -23.5350  -32.1446   23.7469 O   0  0  0  0  0  0
  -29.8040  -19.3009   21.2337 C   0  0  0  0  0  0
  -29.7405  -17.9271   21.5798 C   0  0  0  0  0  0
  -30.6077  -17.3358   19.3951 C   0  0  0  0  0  0
  -30.2620  -19.7112   19.9565 C   0  0  0  0  0  0
  -30.1533  -16.9225   20.6719 C   0  0  0  0  0  0
  -30.6593  -18.7019   19.0423 C   0  0  0  0  0  0
  -30.4186  -21.1791   19.5989 C   0  0  0  0  0  0
  -29.3316  -23.3622   19.7463 C   0  0  0  0  0  0
  -28.0762  -24.1018   20.2545 C   0  0  0  0  0  0
  -28.3444  -25.4764   20.9430 C   0  0  0  0  0  0
  -30.0296  -15.5353   21.0411 N   0  0  0  0  0  0
  -29.4248  -22.0245   19.9692 N   0  0  0  0  0  0
  -31.4272  -21.5291   18.9747 O   0  0  0  0  0  0
  -30.1847  -24.0303   19.1509 O   0  0  0  0  0  0
  -31.0825  -19.0240   17.7933 F   0  0  0  0  0  0
  -31.4694  -12.3636   19.1622 H   0  0  0  0  0  0
  -30.2782  -11.3005   19.8502 H   0  0  0  0  0  0
  -29.7504  -11.7885   17.4443 H   0  0  0  0  0  0
  -29.7014  -13.4985   17.7797 H   0  0  0  0  0  0
  -27.8047  -11.3453   18.7791 H   0  0  0  0  0  0
  -27.3934  -12.7110   17.7781 H   0  0  0  0  0  0
  -27.7073  -14.2752   19.5909 H   0  0  0  0  0  0
  -28.6782  -11.9908   21.3704 H   0  0  0  0  0  0
  -28.4786  -13.6421   21.8698 H   0  0  0  0  0  0
  -25.2781   -9.5699   22.4733 H   0  0  0  0  0  0
  -24.0011   -7.4653   22.7454 H   0  0  0  0  0  0
  -21.0824   -8.8801   19.8984 H   0  0  0  0  0  0
  -22.3690  -10.9685   19.6144 H   0  0  0  0  0  0
  -21.2034   -7.6151   23.9739 H   0  0  0  0  0  0
  -21.1470   -6.0508   25.9088 H   0  0  0  0  0  0
  -22.0593   -2.7611   23.2828 H   0  0  0  0  0  0
  -22.4078  -11.9984   22.4882 H   0  0  0  0  0  0
  -21.1113  -13.1334   22.2553 H   0  0  0  0  0  0
  -24.6660  -15.8489   20.5341 H   0  0  0  0  0  0
  -26.2852  -15.6327   20.1043 H   0  0  0  0  0  0
  -26.7114  -32.5527   23.1133 H   0  0  0  0  0  0
  -25.0124  -33.9742   25.0521 H   0  0  0  0  0  0
  -22.6923  -31.3061   21.4098 H   0  0  0  0  0  0
  -23.3726  -35.9676   23.3334 H   0  0  0  0  0  0
  -24.3597  -36.8896   22.2054 H   0  0  0  0  0  0
  -23.7282  -37.6549   23.6633 H   0  0  0  0  0  0
  -26.0507  -31.5829   20.5970 H   0  0  0  0  0  0
  -26.8231  -30.8774   21.9891 H   0  0  0  0  0  0
  -28.0947  -29.0591   21.2034 H   0  0  0  0  0  0
  -26.0462  -25.9605   19.0119 H   0  0  0  0  0  0
  -23.9716  -27.2893   19.0464 H   0  0  0  0  0  0
  -23.7319  -30.5938   19.4055 H   0  0  0  0  0  0
  -22.7396  -29.2423   19.8628 H   0  0  0  0  0  0
  -25.1285  -36.1983   25.0838 H   0  0  0  0  0  0
  -20.9953  -28.3282   24.1482 H   0  0  0  0  0  0
  -20.5805  -26.2277   23.3646 H   0  0  0  0  0  0
  -21.6658  -26.7550   22.1192 H   0  0  0  0  0  0
  -19.6934  -25.6310   21.1281 H   0  0  0  0  0  0
  -19.6710  -27.3223   20.6819 H   0  0  0  0  0  0
  -17.4236  -26.6743   21.4000 H   0  0  0  0  0  0
  -18.0277  -26.0097   22.9029 H   0  0  0  0  0  0
  -19.7920  -30.7295   24.2280 H   0  0  0  0  0  0
  -17.4993  -31.6276   24.5184 H   0  0  0  0  0  0
  -15.5336  -30.2981   23.7655 H   0  0  0  0  0  0
  -15.8684  -28.0848   22.7006 H   0  0  0  0  0  0
  -24.5974  -30.7006   25.7797 H   0  0  0  0  0  0
  -24.8975  -32.2796   26.4920 H   0  0  0  0  0  0
  -25.8149  -30.8824   27.0192 H   0  0  0  0  0  0
  -26.2891  -29.6726   24.1184 H   0  0  0  0  0  0
  -27.4163  -29.7268   25.4560 H   0  0  0  0  0  0
  -27.8720  -30.4307   23.9218 H   0  0  0  0  0  0
  -27.2742  -33.3591   26.2032 H   0  0  0  0  0  0
  -28.3901  -32.6815   25.0265 H   0  0  0  0  0  0
  -28.0774  -31.8398   26.5362 H   0  0  0  0  0  0
  -28.2619  -38.0105   24.7461 H   0  0  0  0  0  0
  -28.1056  -36.2626   24.6342 H   0  0  0  0  0  0
  -27.2287  -37.1544   25.8866 H   0  0  0  0  0  0
  -20.9368  -29.8680   21.6874 H   0  0  0  0  0  0
  -26.0185  -38.2869   24.1367 H   0  0  0  0  0  0
  -29.5173  -20.0406   21.9692 H   0  0  0  0  0  0
  -29.3815  -17.6525   22.5627 H   0  0  0  0  0  0
  -30.9067  -16.6106   18.6521 H   0  0  0  0  0  0
  -27.5841  -23.4552   20.9810 H   0  0  0  0  0  0
  -27.3746  -24.2138   19.4295 H   0  0  0  0  0  0
  -29.3088  -25.4322   21.4505 H   0  0  0  0  0  0
  -27.6217  -25.6122   21.7504 H   0  0  0  0  0  0
  -29.2403  -15.2909   21.6199 H   0  0  0  0  0  0
  -28.6564  -21.5925   20.4572 H   0  0  0  0  0  0
  1 25  1  0  0  0
  1 30  2  0  0  0
  1 81  1  0  0  0
  2  3  1  0  0  0
  2 25  1  0  0  0
  2 86  1  0  0  0
  2 87  1  0  0  0
  3  4  1  0  0  0
  3 88  1  0  0  0
  3 89  1  0  0  0
  4  5  1  0  0  0
  4 90  1  0  0  0
  4 91  1  0  0  0
  5  6  1  0  0  0
  5 26  1  0  0  0
  5 92  1  0  0  0
  6 25  1  0  0  0
  6 93  1  0  0  0
  6 94  1  0  0  0
  7  8  2  0  0  0
  7 26  1  0  0  0
  7 29  1  0  0  0
  8  9  1  0  0  0
  8 22  1  0  0  0
  9 10  1  0  0  0
  9 27  2  0  0  0
 10 11  2  0  0  0
 10 15  1  0  0  0
 11 12  1  0  0  0
 11 95  1  0  0  0
 12 13  2  0  0  0
 12 96  1  0  0  0
 13 14  1  0  0  0
 13 31  1  0  0  0
 14 15  2  0  0  0
 14 97  1  0  0  0
 15 98  1  0  0  0
 16 17  2  0  0  0
 16 21  1  0  0  0
 16 31  1  0  0  0
 17 18  1  0  0  0
 17 99  1  0  0  0
 18 19  2  0  0  0
 18100  1  0  0  0
 19 20  1  0  0  0
 19 24  1  0  0  0
 20 21  2  0  0  0
 20101  1  0  0  0
 21 23  1  0  0  0
 22 28  1  0  0  0
 22 32  2  0  0  0
 26 27  1  0  0  0
 28102  1  0  0  0
 28103  1  0  0  0
 29104  1  0  0  0
 29105  1  0  0  0
 33 34  1  0  0  0
 33 66  1  0  0  0
 33 70  2  0  0  0
 34 36  1  0  0  0
 34 59  1  0  0  0
 34106  1  0  0  0
 35 44  2  0  0  0
 35 45  1  0  0  0
 35 68  1  0  0  0
 36 56  1  0  0  0
 36107  1  0  0  0
 37 39  1  0  0  0
 37 47  1  0  0  0
 37 66  1  0  0  0
 37108  1  0  0  0
 38 43  2  0  0  0
 38 46  1  0  0  0
 38 47  1  0  0  0
 39 64  1  0  0  0
 39 67  2  0  0  0
 40 52  1  0  0  0
 40 53  2  0  0  0
 40 58  1  0  0  0
 41109  1  0  0  0
 41110  1  0  0  0
 41111  1  0  0  0
 41 48  1  0  0  0
 42 43  1  0  0  0
 42 66  1  0  0  0
 42112  1  0  0  0
 42113  1  0  0  0
 43 44  1  0  0  0
 44114  1  0  0  0
 45 46  2  0  0  0
 45115  1  0  0  0
 46116  1  0  0  0
 47117  1  0  0  0
 47118  1  0  0  0
 48 56  1  0  0  0
 48 65  1  0  0  0
 48119  1  0  0  0
 49 50  1  0  0  0
 49 53  1  0  0  0
 49 64  1  0  0  0
 49120  1  0  0  0
 50 51  1  0  0  0
 50121  1  0  0  0
 50122  1  0  0  0
 51 52  1  0  0  0
 51123  1  0  0  0
 51124  1  0  0  0
 52125  1  0  0  0
 52126  1  0  0  0
 53 54  1  0  0  0
 54 55  2  0  0  0
 54127  1  0  0  0
 55 57  1  0  0  0
 55128  1  0  0  0
 56 69  2  0  0  0
 57 58  2  0  0  0
 57129  1  0  0  0
 58130  1  0  0  0
 59 60  1  0  0  0
 59 61  1  0  0  0
 59 62  1  0  0  0
 60131  1  0  0  0
 60132  1  0  0  0
 60133  1  0  0  0
 61134  1  0  0  0
 61135  1  0  0  0
 61136  1  0  0  0
 62137  1  0  0  0
 62138  1  0  0  0
 62139  1  0  0  0
 63 65  1  0  0  0
 63140  1  0  0  0
 63141  1  0  0  0
 63142  1  0  0  0
 64143  1  0  0  0
 65144  1  0  0  0
 68 80  1  0  0  0
 71 72  2  0  0  0
 71 74  1  0  0  0
 71145  1  0  0  0
 72 75  1  0  0  0
 72146  1  0  0  0
 73 75  2  0  0  0
 73 76  1  0  0  0
 73147  1  0  0  0
 74 76  2  0  0  0
 74 77  1  0  0  0
 75 81  1  0  0  0
 76 85  1  0  0  0
 77 82  1  0  0  0
 77 83  2  0  0  0
 78 79  1  0  0  0
 78 82  1  0  0  0
 78 84  2  0  0  0
 79 80  1  0  0  0
 79148  1  0  0  0
 79149  1  0  0  0
 80150  1  0  0  0
 80151  1  0  0  0
 81152  1  0  0  0
 82153  1  0  0  0
M  ISO  4   1 100  68 101  80 101  81 100
M  END
> <chiral flag>
0

> <version>
0

> <s_m_source_file>
/data/baiqing/PycharmProjects/Reinvent-master-3.2/result/LINK_invent/BTK/process_docking_weight1_custom_product_contain_oxygen_bond_distance_aromatic_linkinvent_7_9_3/rearranged_h_0096.sdf

> <i_m_source_file_index>
46

> <r_mmod_Potential_Energy-OPLS-2005>
-113.238647460938

> <r_mmod_Stretch_Energy-OPLS-2005>
43.4470634460449

> <r_mmod_Bend_Energy-OPLS-2005>
102.381240844727

> <r_mmod_Torsional_Energy-OPLS-2005>
251.696441650391

> <r_mmod_Improper_Torsional_Energy-OPLS-2005>
3.61049675941467

> <r_mmod_Van_der_Waal_Energy-OPLS-2005>
156.409545898438

> <r_mmod_Electrostatic_Energy-OPLS-2005>
-396.952606201172

> <r_mmod_Solvation_Energy-OPLS-2005>
-290.048919677734

> <b_mmod_Minimization_Converged-OPLS-2005>
0

> <r_mmod_RMS_Derivative-OPLS-2005>
3.92832684516907

$$$$
46
                    3D
 Structure written by MMmdl.
157165  0  0  1  0            999 V2000
  -30.7172  -14.4374   20.6227 C   0  0  0  0  0  0
  -30.4223  -12.3085   19.4030 C   0  0  0  0  0  0
  -29.4859  -12.5183   18.1974 C   0  0  0  0  0  0
  -28.0106  -12.3722   18.6179 C   0  0  0  0  0  0
  -27.6630  -13.2049   19.8802 C   0  0  2  0  0  0
  -28.7047  -12.9615   20.9932 C   0  0  0  0  0  0
  -25.2604  -13.8161   20.5697 C   0  0  0  0  0  0
  -24.1845  -13.0430   20.9176 C   0  0  0  0  0  0
  -24.6398  -11.6904   20.8731 C   0  0  0  0  0  0
  -23.9064  -10.4289   21.0408 C   0  0  0  0  0  0
  -24.3617   -9.4203   21.9188 C   0  0  0  0  0  0
  -23.6292   -8.2239   22.0756 C   0  0  0  0  0  0
  -22.4269   -8.0286   21.3551 C   0  0  0  0  0  0
  -21.9908   -9.0258   20.4650 C   0  0  0  0  0  0
  -22.7238  -10.2134   20.3058 C   0  0  0  0  0  0
  -21.6848   -6.0735   22.5283 C   0  0  0  0  0  0
  -21.4016   -6.5639   23.8218 C   0  0  0  0  0  0
  -21.3665   -5.6791   24.9181 C   0  0  0  0  0  0
  -21.6036   -4.3054   24.7231 C   0  0  0  0  0  0
  -21.8820   -3.8149   23.4353 C   0  0  0  0  0  0
  -21.9194   -4.6965   22.3406 C   0  0  0  0  0  0
  -22.7872  -13.5233   21.1848 C   0  0  0  0  0  0
  -22.1660   -4.2148   21.0984 F   0  0  0  0  0  0
  -21.5628   -3.4541   25.7743 F   0  0  0  0  0  0
  -30.0361  -13.2747   20.4422 N   0  0  0  0  0  0
  -26.3036  -12.9321   20.3402 N   0  0  0  0  0  0
  -25.9323  -11.6476   20.5772 N   0  0  0  0  0  0
  -22.0521  -12.8213   22.0415 N   0  0  0  0  0  0
  -25.4336  -15.1874   20.4138 N   0  0  0  0  0  0
  -31.8164  -14.6629   20.1067 O   0  0  0  0  0  0
  -21.6634   -6.8880   21.4248 O   0  0  0  0  0  0
  -22.3557  -14.5543   20.6715 O   0  0  0  0  0  0
  -24.6167  -31.8658   23.2086 C   0  0  0  0  0  0
  -25.9054  -32.4816   23.8370 C   0  0  1  0  0  0
  -27.2340  -27.4220   20.0965 C   0  0  0  0  0  0
  -25.5894  -33.8602   24.2310 N   0  0  0  0  0  0
  -23.4041  -30.4899   21.5493 C   0  0  2  0  0  0
  -24.8509  -28.9519   20.1177 C   0  0  0  0  0  0
  -22.7410  -29.4657   22.4996 C   0  0  0  0  0  0
  -18.0263  -28.1389   22.8489 C   0  0  0  0  0  0
  -24.1485  -36.7304   23.2636 C   0  0  0  0  0  0
  -25.9339  -30.8326   21.3589 C   0  0  0  0  0  0
  -26.0130  -29.4646   20.7069 C   0  0  0  0  0  0
  -27.2083  -28.7087   20.6870 C   0  0  0  0  0  0
  -26.0528  -26.9268   19.4987 C   0  0  0  0  0  0
  -24.8652  -27.6828   19.5136 C   0  0  0  0  0  0
  -23.6145  -29.8200   20.1658 C   0  0  0  0  0  0
  -25.4109  -36.3111   24.0338 C   0  0  1  0  0  0
  -20.5853  -28.3655   23.1325 C   0  0  2  0  0  0
  -20.6744  -26.9384   22.5424 C   0  0  0  0  0  0
  -19.5728  -26.6390   21.5213 C   0  0  0  0  0  0
  -18.1909  -26.7934   22.1627 C   0  0  0  0  0  0
  -19.1516  -28.8843   23.2905 C   0  0  0  0  0  0
  -18.9439  -30.1450   23.8915 C   0  0  0  0  0  0
  -17.6441  -30.6592   24.0566 C   0  0  0  0  0  0
  -25.9029  -34.9470   23.5130 C   0  0  0  0  0  0
  -16.5332  -29.9089   23.6329 C   0  0  0  0  0  0
  -16.7250  -28.6514   23.0333 C   0  0  0  0  0  0
  -26.4457  -31.6597   25.0710 C   0  0  0  0  0  0
  -25.3717  -31.3689   26.1465 C   0  0  0  0  0  0
  -27.0257  -30.3039   24.6077 C   0  0  0  0  0  0
  -27.6051  -32.4293   25.7474 C   0  0  0  0  0  0
  -27.5582  -37.1820   24.8468 C   0  0  0  0  0  0
  -21.4132  -29.3033   22.3743 N   0  0  0  0  0  0
  -26.4297  -37.3805   23.9408 N   0  0  0  0  0  0
  -24.6701  -31.0770   22.0977 N   0  0  0  0  0  0
  -23.4191  -28.8193   23.3026 O   0  0  0  0  0  0
  -28.4099  -26.6962   20.0965 O   0  0  0  0  0  0
  -26.5587  -34.8929   22.4691 O   0  0  0  0  0  0
  -23.5367  -32.1383   23.7509 O   0  0  0  0  0  0
  -31.7067  -18.4127   20.3899 C   0  0  0  0  0  0
  -31.6525  -19.5402   19.5464 C   0  0  0  0  0  0
  -29.2284  -19.5751   19.7357 C   0  0  0  0  0  0
  -30.5244  -17.8358   20.8999 C   0  0  0  0  0  0
  -30.4178  -20.1310   19.2084 C   0  0  0  0  0  0
  -29.2817  -18.4299   20.5674 C   0  0  0  0  0  0
  -29.7764  -22.3057   18.0755 C   0  0  0  0  0  0
  -30.6256  -16.6338   21.8473 C   0  0  0  0  0  0
  -29.0006  -22.9542   19.2387 C   0  0  0  0  0  0
  -28.9127  -24.5039   19.0827 C   0  0  0  0  0  0
  -28.3393  -25.2686   20.2935 C   0  0  0  0  0  0
  -30.4319  -21.1376   18.2032 N   0  0  0  0  0  0
  -30.0844  -15.3586   21.3636 N   0  0  0  0  0  0
  -29.8205  -22.8893   16.9904 O   0  0  0  0  0  0
  -28.1283  -17.8940   21.0341 F   0  0  0  0  0  0
  -31.4653  -12.4167   19.0982 H   0  0  0  0  0  0
  -30.3303  -11.2903   19.7841 H   0  0  0  0  0  0
  -29.7175  -11.8016   17.4084 H   0  0  0  0  0  0
  -29.6502  -13.5103   17.7741 H   0  0  0  0  0  0
  -27.8258  -11.3139   18.8112 H   0  0  0  0  0  0
  -27.3535  -12.6491   17.7927 H   0  0  0  0  0  0
  -27.7140  -14.2561   19.5966 H   0  0  0  0  0  0
  -28.6813  -11.9177   21.3086 H   0  0  0  0  0  0
  -28.4577  -13.5330   21.8887 H   0  0  0  0  0  0
  -25.2764   -9.5663   22.4769 H   0  0  0  0  0  0
  -23.9998   -7.4618   22.7462 H   0  0  0  0  0  0
  -21.0847   -8.8775   19.8952 H   0  0  0  0  0  0
  -22.3705  -10.9674   19.6168 H   0  0  0  0  0  0
  -21.2006   -7.6148   23.9722 H   0  0  0  0  0  0
  -21.1484   -6.0522   25.9081 H   0  0  0  0  0  0
  -22.0592   -2.7610   23.2849 H   0  0  0  0  0  0
  -22.4134  -11.9851   22.4760 H   0  0  0  0  0  0
  -21.1154  -13.1252   22.2661 H   0  0  0  0  0  0
  -24.6756  -15.8478   20.5465 H   0  0  0  0  0  0
  -26.2997  -15.6333   20.1371 H   0  0  0  0  0  0
  -26.7114  -32.5545   23.1124 H   0  0  0  0  0  0
  -25.0037  -33.9712   25.0455 H   0  0  0  0  0  0
  -22.6930  -31.3064   21.4067 H   0  0  0  0  0  0
  -23.3756  -35.9634   23.3328 H   0  0  0  0  0  0
  -24.3577  -36.8886   22.2046 H   0  0  0  0  0  0
  -23.7229  -37.6516   23.6618 H   0  0  0  0  0  0
  -26.0417  -31.6000   20.5902 H   0  0  0  0  0  0
  -26.8235  -30.8883   21.9744 H   0  0  0  0  0  0
  -28.1102  -29.1032   21.1346 H   0  0  0  0  0  0
  -26.0419  -25.9624   19.0104 H   0  0  0  0  0  0
  -23.9684  -27.2844   19.0588 H   0  0  0  0  0  0
  -23.7243  -30.5931   19.4040 H   0  0  0  0  0  0
  -22.7400  -29.2369   19.8727 H   0  0  0  0  0  0
  -25.1296  -36.1972   25.0833 H   0  0  0  0  0  0
  -20.9917  -28.3212   24.1457 H   0  0  0  0  0  0
  -20.5624  -26.2244   23.3599 H   0  0  0  0  0  0
  -21.6614  -26.7410   22.1231 H   0  0  0  0  0  0
  -19.6865  -25.6303   21.1228 H   0  0  0  0  0  0
  -19.6693  -27.3214   20.6761 H   0  0  0  0  0  0
  -17.4166  -26.6671   21.4040 H   0  0  0  0  0  0
  -18.0319  -26.0084   22.9036 H   0  0  0  0  0  0
  -19.7911  -30.7258   24.2302 H   0  0  0  0  0  0
  -17.4994  -31.6278   24.5154 H   0  0  0  0  0  0
  -15.5328  -30.2992   23.7661 H   0  0  0  0  0  0
  -15.8650  -28.0854   22.7022 H   0  0  0  0  0  0
  -24.5926  -30.6982   25.7818 H   0  0  0  0  0  0
  -24.8854  -32.2823   26.4902 H   0  0  0  0  0  0
  -25.8091  -30.8889   27.0230 H   0  0  0  0  0  0
  -26.2789  -29.6854   24.1085 H   0  0  0  0  0  0
  -27.3951  -29.7243   25.4544 H   0  0  0  0  0  0
  -27.8659  -30.4356   23.9256 H   0  0  0  0  0  0
  -27.2694  -33.3594   26.2074 H   0  0  0  0  0  0
  -28.3860  -32.6845   25.0294 H   0  0  0  0  0  0
  -28.0710  -31.8383   26.5371 H   0  0  0  0  0  0
  -28.2635  -38.0088   24.7525 H   0  0  0  0  0  0
  -28.1044  -36.2629   24.6303 H   0  0  0  0  0  0
  -27.2284  -37.1491   25.8866 H   0  0  0  0  0  0
  -20.9274  -29.8787   21.7003 H   0  0  0  0  0  0
  -26.0190  -38.2883   24.1429 H   0  0  0  0  0  0
  -32.6680  -17.9846   20.6362 H   0  0  0  0  0  0
  -32.5726  -19.9409   19.1443 H   0  0  0  0  0  0
  -28.2645  -19.9790   19.4657 H   0  0  0  0  0  0
  -31.6631  -16.4866   22.1523 H   0  0  0  0  0  0
  -30.0894  -16.8908   22.7612 H   0  0  0  0  0  0
  -27.9977  -22.5265   19.2714 H   0  0  0  0  0  0
  -29.4905  -22.6988   20.1795 H   0  0  0  0  0  0
  -28.3074  -24.7393   18.2072 H   0  0  0  0  0  0
  -29.9091  -24.8972   18.8726 H   0  0  0  0  0  0
  -28.9417  -25.0367   21.1728 H   0  0  0  0  0  0
  -27.3386  -24.9089   20.5370 H   0  0  0  0  0  0
  -31.0603  -20.9479   17.4347 H   0  0  0  0  0  0
  -29.1774  -15.0931   21.7163 H   0  0  0  0  0  0
  1 25  1  0  0  0
  1 30  2  0  0  0
  1 83  1  0  0  0
  2  3  1  0  0  0
  2 25  1  0  0  0
  2 86  1  0  0  0
  2 87  1  0  0  0
  3  4  1  0  0  0
  3 88  1  0  0  0
  3 89  1  0  0  0
  4  5  1  0  0  0
  4 90  1  0  0  0
  4 91  1  0  0  0
  5  6  1  0  0  0
  5 26  1  0  0  0
  5 92  1  0  0  0
  6 25  1  0  0  0
  6 93  1  0  0  0
  6 94  1  0  0  0
  7  8  2  0  0  0
  7 26  1  0  0  0
  7 29  1  0  0  0
  8  9  1  0  0  0
  8 22  1  0  0  0
  9 10  1  0  0  0
  9 27  2  0  0  0
 10 11  2  0  0  0
 10 15  1  0  0  0
 11 12  1  0  0  0
 11 95  1  0  0  0
 12 13  2  0  0  0
 12 96  1  0  0  0
 13 14  1  0  0  0
 13 31  1  0  0  0
 14 15  2  0  0  0
 14 97  1  0  0  0
 15 98  1  0  0  0
 16 17  2  0  0  0
 16 21  1  0  0  0
 16 31  1  0  0  0
 17 18  1  0  0  0
 17 99  1  0  0  0
 18 19  2  0  0  0
 18100  1  0  0  0
 19 20  1  0  0  0
 19 24  1  0  0  0
 20 21  2  0  0  0
 20101  1  0  0  0
 21 23  1  0  0  0
 22 28  1  0  0  0
 22 32  2  0  0  0
 26 27  1  0  0  0
 28102  1  0  0  0
 28103  1  0  0  0
 29104  1  0  0  0
 29105  1  0  0  0
 33 34  1  0  0  0
 33 66  1  0  0  0
 33 70  2  0  0  0
 34 36  1  0  0  0
 34 59  1  0  0  0
 34106  1  0  0  0
 35 44  2  0  0  0
 35 45  1  0  0  0
 35 68  1  0  0  0
 36 56  1  0  0  0
 36107  1  0  0  0
 37 39  1  0  0  0
 37 47  1  0  0  0
 37 66  1  0  0  0
 37108  1  0  0  0
 38 43  2  0  0  0
 38 46  1  0  0  0
 38 47  1  0  0  0
 39 64  1  0  0  0
 39 67  2  0  0  0
 40 52  1  0  0  0
 40 53  2  0  0  0
 40 58  1  0  0  0
 41109  1  0  0  0
 41110  1  0  0  0
 41111  1  0  0  0
 41 48  1  0  0  0
 42 43  1  0  0  0
 42 66  1  0  0  0
 42112  1  0  0  0
 42113  1  0  0  0
 43 44  1  0  0  0
 44114  1  0  0  0
 45 46  2  0  0  0
 45115  1  0  0  0
 46116  1  0  0  0
 47117  1  0  0  0
 47118  1  0  0  0
 48 56  1  0  0  0
 48 65  1  0  0  0
 48119  1  0  0  0
 49 50  1  0  0  0
 49 53  1  0  0  0
 49 64  1  0  0  0
 49120  1  0  0  0
 50 51  1  0  0  0
 50121  1  0  0  0
 50122  1  0  0  0
 51 52  1  0  0  0
 51123  1  0  0  0
 51124  1  0  0  0
 52125  1  0  0  0
 52126  1  0  0  0
 53 54  1  0  0  0
 54 55  2  0  0  0
 54127  1  0  0  0
 55 57  1  0  0  0
 55128  1  0  0  0
 56 69  2  0  0  0
 57 58  2  0  0  0
 57129  1  0  0  0
 58130  1  0  0  0
 59 60  1  0  0  0
 59 61  1  0  0  0
 59 62  1  0  0  0
 60131  1  0  0  0
 60132  1  0  0  0
 60133  1  0  0  0
 61134  1  0  0  0
 61135  1  0  0  0
 61136  1  0  0  0
 62137  1  0  0  0
 62138  1  0  0  0
 62139  1  0  0  0
 63 65  1  0  0  0
 63140  1  0  0  0
 63141  1  0  0  0
 63142  1  0  0  0
 64143  1  0  0  0
 65144  1  0  0  0
 68 81  1  0  0  0
 71 72  2  0  0  0
 71 74  1  0  0  0
 71145  1  0  0  0
 72 75  1  0  0  0
 72146  1  0  0  0
 73 75  2  0  0  0
 73 76  1  0  0  0
 73147  1  0  0  0
 74 76  2  0  0  0
 74 78  1  0  0  0
 75 82  1  0  0  0
 76 85  1  0  0  0
 77 79  1  0  0  0
 77 82  1  0  0  0
 77 84  2  0  0  0
 78 83  1  0  0  0
 78148  1  0  0  0
 78149  1  0  0  0
 79 80  1  0  0  0
 79150  1  0  0  0
 79151  1  0  0  0
 80 81  1  0  0  0
 80152  1  0  0  0
 80153  1  0  0  0
 81154  1  0  0  0
 81155  1  0  0  0
 82156  1  0  0  0
 83157  1  0  0  0
M  ISO  4   1 100  68 101  81 101  83 100
M  END
> <chiral flag>
0

> <version>
0

> <s_m_source_file>
/data/baiqing/PycharmProjects/Reinvent-master-3.2/result/LINK_invent/BTK/process_docking_weight1_custom_product_contain_oxygen_bond_distance_aromatic_linkinvent_7_9_3/rearranged_h_0096.sdf

> <i_m_source_file_index>
47

> <r_mmod_Potential_Energy-OPLS-2005>
-128.133895874023

> <r_mmod_Stretch_Energy-OPLS-2005>
37.4461097717285

> <r_mmod_Bend_Energy-OPLS-2005>
111.739265441895

> <r_mmod_Torsional_Energy-OPLS-2005>
233.539245605469

> <r_mmod_Improper_Torsional_Energy-OPLS-2005>
3.0072557926178

> <r_mmod_Van_der_Waal_Energy-OPLS-2005>
147.294219970703

> <r_mmod_Electrostatic_Energy-OPLS-2005>
-450.794067382812

> <r_mmod_Solvation_Energy-OPLS-2005>
-221.082336425781

> <b_mmod_Minimization_Converged-OPLS-2005>
0

> <r_mmod_RMS_Derivative-OPLS-2005>
1.97063183784485

$$$$
47
                    3D
 Structure written by MMmdl.
168177  0  0  1  0            999 V2000
  -30.6978  -14.7808   20.3765 C   0  0  0  0  0  0
  -30.4170  -12.5117   19.3869 C   0  0  0  0  0  0
  -29.4617  -12.4929   18.1822 C   0  0  0  0  0  0
  -28.0042  -12.2969   18.6471 C   0  0  0  0  0  0
  -27.6233  -13.1909   19.8588 C   0  0  2  0  0  0
  -28.7237  -13.1985   20.9421 C   0  0  0  0  0  0
  -25.2401  -13.7861   20.5902 C   0  0  0  0  0  0
  -24.1682  -13.0175   20.9314 C   0  0  0  0  0  0
  -24.6315  -11.6697   20.8856 C   0  0  0  0  0  0
  -23.9007  -10.4136   21.0451 C   0  0  0  0  0  0
  -24.3575   -9.4072   21.9222 C   0  0  0  0  0  0
  -23.6241   -8.2130   22.0765 C   0  0  0  0  0  0
  -22.4230   -8.0206   21.3538 C   0  0  0  0  0  0
  -21.9870   -9.0174   20.4638 C   0  0  0  0  0  0
  -22.7207  -10.2037   20.3060 C   0  0  0  0  0  0
  -21.6817   -6.0704   22.5289 C   0  0  0  0  0  0
  -21.3987   -6.5618   23.8221 C   0  0  0  0  0  0
  -21.3650   -5.6778   24.9190 C   0  0  0  0  0  0
  -21.6049   -4.3042   24.7245 C   0  0  0  0  0  0
  -21.8822   -3.8128   23.4368 C   0  0  0  0  0  0
  -21.9180   -4.6938   22.3419 C   0  0  0  0  0  0
  -22.7720  -13.5043   21.1904 C   0  0  0  0  0  0
  -22.1646   -4.2122   21.0995 F   0  0  0  0  0  0
  -21.5639   -3.4530   25.7763 F   0  0  0  0  0  0
  -29.9535  -13.6218   20.2490 N   0  0  0  0  0  0
  -26.2886  -12.9086   20.3595 N   0  0  0  0  0  0
  -25.9260  -11.6266   20.5971 N   0  0  0  0  0  0
  -22.0338  -12.8077   22.0461 N   0  0  0  0  0  0
  -25.3784  -15.1526   20.4389 N   0  0  0  0  0  0
  -31.9186  -14.6204   20.4490 O   0  0  0  0  0  0
  -21.6577   -6.8830   21.4245 O   0  0  0  0  0  0
  -22.3456  -14.5375   20.6759 O   0  0  0  0  0  0
  -24.6247  -31.8582   23.2001 C   0  0  0  0  0  0
  -25.9094  -32.4769   23.8336 C   0  0  1  0  0  0
  -27.2503  -27.3347   20.1052 C   0  0  0  0  0  0
  -25.5913  -33.8570   24.2269 N   0  0  0  0  0  0
  -23.4194  -30.4773   21.5414 C   0  0  2  0  0  0
  -24.8701  -28.9258   20.1101 C   0  0  0  0  0  0
  -22.7465  -29.4608   22.4931 C   0  0  0  0  0  0
  -18.0281  -28.1385   22.8486 C   0  0  0  0  0  0
  -24.1492  -36.7299   23.2641 C   0  0  0  0  0  0
  -25.9562  -30.7914   21.3682 C   0  0  0  0  0  0
  -26.0327  -29.4168   20.7148 C   0  0  0  0  0  0
  -27.2183  -28.6289   20.7080 C   0  0  0  0  0  0
  -26.0602  -26.8799   19.4931 C   0  0  0  0  0  0
  -24.8842  -27.6617   19.4948 C   0  0  0  0  0  0
  -23.6352  -29.8037   20.1584 C   0  0  0  0  0  0
  -25.4114  -36.3081   24.0329 C   0  0  1  0  0  0
  -20.5882  -28.3692   23.1285 C   0  0  2  0  0  0
  -20.6769  -26.9415   22.5415 C   0  0  0  0  0  0
  -19.5748  -26.6387   21.5212 C   0  0  0  0  0  0
  -18.1924  -26.7926   22.1623 C   0  0  0  0  0  0
  -19.1533  -28.8853   23.2884 C   0  0  0  0  0  0
  -18.9458  -30.1452   23.8906 C   0  0  0  0  0  0
  -17.6461  -30.6590   24.0564 C   0  0  0  0  0  0
  -25.9049  -34.9449   23.5104 C   0  0  0  0  0  0
  -16.5351  -29.9092   23.6328 C   0  0  0  0  0  0
  -16.7269  -28.6508   23.0354 C   0  0  0  0  0  0
  -26.4494  -31.6575   25.0701 C   0  0  0  0  0  0
  -25.3732  -31.3691   26.1429 C   0  0  0  0  0  0
  -27.0341  -30.3005   24.6137 C   0  0  0  0  0  0
  -27.6057  -32.4302   25.7479 C   0  0  0  0  0  0
  -27.5578  -37.1804   24.8465 C   0  0  0  0  0  0
  -21.4180  -29.3040   22.3680 N   0  0  0  0  0  0
  -26.4291  -37.3775   23.9408 N   0  0  0  0  0  0
  -24.6852  -31.0590   22.0944 N   0  0  0  0  0  0
  -23.4187  -28.8159   23.3019 O   0  0  0  0  0  0
  -28.4148  -26.5561   20.1677 O   0  0  0  0  0  0
  -26.5628  -34.8921   22.4676 O   0  0  0  0  0  0
  -23.5413  -32.1380   23.7336 O   0  0  0  0  0  0
  -29.2742  -19.5265   18.9220 C   0  0  0  0  0  0
  -29.9440  -19.2825   21.2021 C   0  0  0  0  0  0
  -29.2344  -20.9439   19.0620 C   0  0  0  0  0  0
  -29.9390  -20.7085   21.3357 C   0  0  0  0  0  0
  -29.5498  -18.6235   20.0026 C   0  0  0  0  0  0
  -29.5367  -21.5804   20.2851 C   0  0  0  0  0  0
  -26.4841  -18.2145   20.1428 C   0  0  0  0  0  0
  -26.8243  -17.4922   18.8170 C   0  0  0  0  0  0
  -27.1274  -17.6408   21.4251 C   0  0  0  0  0  0
  -28.2305  -16.8424   18.7194 C   0  0  0  0  0  0
  -28.3323  -16.7062   21.1848 C   0  0  0  0  0  0
  -29.1862  -17.0479   19.9405 C   0  0  0  0  0  0
  -31.3201  -16.5710   18.8521 C   0  0  0  0  0  0
  -28.3373  -23.8760   20.1633 C   0  0  0  0  0  0
  -28.6003  -25.2808   19.4522 C   0  0  0  0  0  0
  -29.5244  -23.0066   20.4461 N   0  0  0  0  0  0
  -30.3025  -15.9970   19.7613 N   0  0  0  0  0  0
  -31.4406  -12.6518   19.0340 H   0  0  0  0  0  0
  -30.4068  -11.5576   19.9162 H   0  0  0  0  0  0
  -29.7422  -11.7026   17.4847 H   0  0  0  0  0  0
  -29.5464  -13.4321   17.6330 H   0  0  0  0  0  0
  -27.8862  -11.2474   18.9195 H   0  0  0  0  0  0
  -27.3152  -12.4718   17.8201 H   0  0  0  0  0  0
  -27.5557  -14.1862   19.4686 H   0  0  0  0  0  0
  -28.8392  -12.2026   21.3716 H   0  0  0  0  0  0
  -28.4891  -13.8438   21.7865 H   0  0  0  0  0  0
  -25.2716   -9.5541   22.4807 H   0  0  0  0  0  0
  -23.9924   -7.4517   22.7493 H   0  0  0  0  0  0
  -21.0796   -8.8717   19.8946 H   0  0  0  0  0  0
  -22.3697  -10.9597   19.6176 H   0  0  0  0  0  0
  -21.1960   -7.6124   23.9713 H   0  0  0  0  0  0
  -21.1472   -6.0515   25.9092 H   0  0  0  0  0  0
  -22.0612   -2.7588   23.2887 H   0  0  0  0  0  0
  -22.3918  -11.9715   22.4834 H   0  0  0  0  0  0
  -21.0970  -13.1134   22.2671 H   0  0  0  0  0  0
  -24.5937  -15.7775   20.5827 H   0  0  0  0  0  0
  -26.2248  -15.6430   20.1792 H   0  0  0  0  0  0
  -26.7159  -32.5449   23.1088 H   0  0  0  0  0  0
  -25.0038  -33.9712   25.0399 H   0  0  0  0  0  0
  -22.7133  -31.2971   21.3938 H   0  0  0  0  0  0
  -23.3750  -35.9637   23.3299 H   0  0  0  0  0  0
  -24.3584  -36.8928   22.2057 H   0  0  0  0  0  0
  -23.7255  -37.6502   23.6669 H   0  0  0  0  0  0
  -26.0798  -31.5522   20.5963 H   0  0  0  0  0  0
  -26.8396  -30.8477   21.9929 H   0  0  0  0  0  0
  -28.1131  -29.0042   21.1849 H   0  0  0  0  0  0
  -26.0125  -25.9052   19.0308 H   0  0  0  0  0  0
  -23.9893  -27.2750   19.0269 H   0  0  0  0  0  0
  -23.7528  -30.5773   19.3986 H   0  0  0  0  0  0
  -22.7569  -29.2295   19.8582 H   0  0  0  0  0  0
  -25.1295  -36.1930   25.0820 H   0  0  0  0  0  0
  -20.9969  -28.3265   24.1410 H   0  0  0  0  0  0
  -20.5666  -26.2300   23.3615 H   0  0  0  0  0  0
  -21.6636  -26.7441   22.1211 H   0  0  0  0  0  0
  -19.6912  -25.6298   21.1239 H   0  0  0  0  0  0
  -19.6684  -27.3201   20.6745 H   0  0  0  0  0  0
  -17.4195  -26.6678   21.4024 H   0  0  0  0  0  0
  -18.0326  -26.0067   22.9019 H   0  0  0  0  0  0
  -19.7936  -30.7262   24.2281 H   0  0  0  0  0  0
  -17.5020  -31.6269   24.5169 H   0  0  0  0  0  0
  -15.5356  -30.3003   23.7644 H   0  0  0  0  0  0
  -15.8667  -28.0831   22.7069 H   0  0  0  0  0  0
  -24.5929  -30.7019   25.7750 H   0  0  0  0  0  0
  -24.8901  -32.2845   26.4852 H   0  0  0  0  0  0
  -25.8068  -30.8873   27.0204 H   0  0  0  0  0  0
  -26.2906  -29.6743   24.1195 H   0  0  0  0  0  0
  -27.4091  -29.7266   25.4623 H   0  0  0  0  0  0
  -27.8749  -30.4301   23.9318 H   0  0  0  0  0  0
  -27.2676  -33.3606   26.2055 H   0  0  0  0  0  0
  -28.3879  -32.6851   25.0312 H   0  0  0  0  0  0
  -28.0717  -31.8422   26.5400 H   0  0  0  0  0  0
  -28.2589  -38.0105   24.7511 H   0  0  0  0  0  0
  -28.1080  -36.2636   24.6292 H   0  0  0  0  0  0
  -27.2295  -37.1453   25.8868 H   0  0  0  0  0  0
  -20.9360  -29.8765   21.6893 H   0  0  0  0  0  0
  -26.0171  -38.2848   24.1409 H   0  0  0  0  0  0
  -28.9903  -19.1658   17.9482 H   0  0  0  0  0  0
  -30.1818  -18.6911   22.0741 H   0  0  0  0  0  0
  -28.9644  -21.5422   18.2034 H   0  0  0  0  0  0
  -30.2163  -21.1290   22.2921 H   0  0  0  0  0  0
  -25.4018  -18.2770   20.2661 H   0  0  0  0  0  0
  -26.8028  -19.2535   20.0519 H   0  0  0  0  0  0
  -26.7152  -18.2162   18.0078 H   0  0  0  0  0  0
  -26.0691  -16.7443   18.5859 H   0  0  0  0  0  0
  -26.3797  -17.1108   22.0158 H   0  0  0  0  0  0
  -27.4304  -18.4745   22.0598 H   0  0  0  0  0  0
  -28.7045  -17.1469   17.7891 H   0  0  0  0  0  0
  -28.1007  -15.7951   18.5027 H   0  0  0  0  0  0
  -27.9250  -15.7141   21.0715 H   0  0  0  0  0  0
  -28.9487  -16.6758   22.0839 H   0  0  0  0  0  0
  -30.9239  -17.3064   18.1541 H   0  0  0  0  0  0
  -31.7802  -15.8030   18.2264 H   0  0  0  0  0  0
  -32.1107  -17.0578   19.4252 H   0  0  0  0  0  0
  -27.6363  -23.3063   19.5514 H   0  0  0  0  0  0
  -27.8138  -24.0546   21.1035 H   0  0  0  0  0  0
  -28.0449  -25.3090   18.5148 H   0  0  0  0  0  0
  -29.6385  -25.2877   19.1185 H   0  0  0  0  0  0
  -30.0267  -23.3198   21.2738 H   0  0  0  0  0  0
  1 25  1  0  0  0
  1 30  2  0  0  0
  1 87  1  0  0  0
  2  3  1  0  0  0
  2 25  1  0  0  0
  2 88  1  0  0  0
  2 89  1  0  0  0
  3  4  1  0  0  0
  3 90  1  0  0  0
  3 91  1  0  0  0
  4  5  1  0  0  0
  4 92  1  0  0  0
  4 93  1  0  0  0
  5  6  1  0  0  0
  5 26  1  0  0  0
  5 94  1  0  0  0
  6 25  1  0  0  0
  6 95  1  0  0  0
  6 96  1  0  0  0
  7  8  2  0  0  0
  7 26  1  0  0  0
  7 29  1  0  0  0
  8  9  1  0  0  0
  8 22  1  0  0  0
  9 10  1  0  0  0
  9 27  2  0  0  0
 10 11  2  0  0  0
 10 15  1  0  0  0
 11 12  1  0  0  0
 11 97  1  0  0  0
 12 13  2  0  0  0
 12 98  1  0  0  0
 13 14  1  0  0  0
 13 31  1  0  0  0
 14 15  2  0  0  0
 14 99  1  0  0  0
 15100  1  0  0  0
 16 17  2  0  0  0
 16 21  1  0  0  0
 16 31  1  0  0  0
 17 18  1  0  0  0
 17101  1  0  0  0
 18 19  2  0  0  0
 18102  1  0  0  0
 19 20  1  0  0  0
 19 24  1  0  0  0
 20 21  2  0  0  0
 20103  1  0  0  0
 21 23  1  0  0  0
 22 28  1  0  0  0
 22 32  2  0  0  0
 26 27  1  0  0  0
 28104  1  0  0  0
 28105  1  0  0  0
 29106  1  0  0  0
 29107  1  0  0  0
 33 34  1  0  0  0
 33 66  1  0  0  0
 33 70  2  0  0  0
 34 36  1  0  0  0
 34 59  1  0  0  0
 34108  1  0  0  0
 35 44  2  0  0  0
 35 45  1  0  0  0
 35 68  1  0  0  0
 36 56  1  0  0  0
 36109  1  0  0  0
 37 39  1  0  0  0
 37 47  1  0  0  0
 37 66  1  0  0  0
 37110  1  0  0  0
 38 43  2  0  0  0
 38 46  1  0  0  0
 38 47  1  0  0  0
 39 64  1  0  0  0
 39 67  2  0  0  0
 40 52  1  0  0  0
 40 53  2  0  0  0
 40 58  1  0  0  0
 41111  1  0  0  0
 41112  1  0  0  0
 41113  1  0  0  0
 41 48  1  0  0  0
 42 43  1  0  0  0
 42 66  1  0  0  0
 42114  1  0  0  0
 42115  1  0  0  0
 43 44  1  0  0  0
 44116  1  0  0  0
 45 46  2  0  0  0
 45117  1  0  0  0
 46118  1  0  0  0
 47119  1  0  0  0
 47120  1  0  0  0
 48 56  1  0  0  0
 48 65  1  0  0  0
 48121  1  0  0  0
 49 50  1  0  0  0
 49 53  1  0  0  0
 49 64  1  0  0  0
 49122  1  0  0  0
 50 51  1  0  0  0
 50123  1  0  0  0
 50124  1  0  0  0
 51 52  1  0  0  0
 51125  1  0  0  0
 51126  1  0  0  0
 52127  1  0  0  0
 52128  1  0  0  0
 53 54  1  0  0  0
 54 55  2  0  0  0
 54129  1  0  0  0
 55 57  1  0  0  0
 55130  1  0  0  0
 56 69  2  0  0  0
 57 58  2  0  0  0
 57131  1  0  0  0
 58132  1  0  0  0
 59 60  1  0  0  0
 59 61  1  0  0  0
 59 62  1  0  0  0
 60133  1  0  0  0
 60134  1  0  0  0
 60135  1  0  0  0
 61136  1  0  0  0
 61137  1  0  0  0
 61138  1  0  0  0
 62139  1  0  0  0
 62140  1  0  0  0
 62141  1  0  0  0
 63 65  1  0  0  0
 63142  1  0  0  0
 63143  1  0  0  0
 63144  1  0  0  0
 64145  1  0  0  0
 65146  1  0  0  0
 68 85  1  0  0  0
 71 73  2  0  0  0
 71 75  1  0  0  0
 71147  1  0  0  0
 72 74  1  0  0  0
 72 75  2  0  0  0
 72148  1  0  0  0
 73 76  1  0  0  0
 73149  1  0  0  0
 74 76  2  0  0  0
 74150  1  0  0  0
 75 82  1  0  0  0
 76 86  1  0  0  0
 77 78  1  0  0  0
 77 79  1  0  0  0
 77151  1  0  0  0
 77152  1  0  0  0
 78 80  1  0  0  0
 78153  1  0  0  0
 78154  1  0  0  0
 79 81  1  0  0  0
 79155  1  0  0  0
 79156  1  0  0  0
 80 82  1  0  0  0
 80157  1  0  0  0
 80158  1  0  0  0
 81 82  1  0  0  0
 81159  1  0  0  0
 81160  1  0  0  0
 82 87  1  0  0  0
 83 87  1  0  0  0
 83161  1  0  0  0
 83162  1  0  0  0
 83163  1  0  0  0
 84 85  1  0  0  0
 84 86  1  0  0  0
 84164  1  0  0  0
 84165  1  0  0  0
 85166  1  0  0  0
 85167  1  0  0  0
 86168  1  0  0  0
M  ISO  4   1 100  68 101  85 101  87 100
M  END
> <chiral flag>
0

> <version>
0

> <s_m_source_file>
/data/baiqing/PycharmProjects/Reinvent-master-3.2/result/LINK_invent/BTK/process_docking_weight1_custom_product_contain_oxygen_bond_distance_aromatic_linkinvent_7_9_3/rearranged_h_0096.sdf

> <i_m_source_file_index>
48

> <r_mmod_Potential_Energy-OPLS-2005>
514.869689941406

> <r_mmod_Stretch_Energy-OPLS-2005>
113.199989318848

> <r_mmod_Bend_Energy-OPLS-2005>
231.031677246094

> <r_mmod_Torsional_Energy-OPLS-2005>
362.393127441406

> <r_mmod_Improper_Torsional_Energy-OPLS-2005>
33.1804008483887

> <r_mmod_Van_der_Waal_Energy-OPLS-2005>
178.512115478516

> <r_mmod_Electrostatic_Energy-OPLS-2005>
-312.797210693359

> <r_mmod_Solvation_Energy-OPLS-2005>
-193.396728515625

> <b_mmod_Minimization_Converged-OPLS-2005>
0

> <r_mmod_RMS_Derivative-OPLS-2005>
1.02194035053253

$$$$
48
                    3D
 Structure written by MMmdl.
162171  0  0  1  0            999 V2000
  -30.6058  -14.6243   20.5061 C   0  0  0  0  0  0
  -30.4463  -12.3824   19.4442 C   0  0  0  0  0  0
  -29.5117  -12.5043   18.2189 C   0  0  0  0  0  0
  -28.0317  -12.3425   18.6281 C   0  0  0  0  0  0
  -27.6540  -13.2054   19.8606 C   0  0  2  0  0  0
  -28.6996  -13.0391   20.9878 C   0  0  0  0  0  0
  -25.2565  -13.8121   20.5672 C   0  0  0  0  0  0
  -24.1823  -13.0410   20.9185 C   0  0  0  0  0  0
  -24.6363  -11.6876   20.8706 C   0  0  0  0  0  0
  -23.9019  -10.4269   21.0382 C   0  0  0  0  0  0
  -24.3565   -9.4196   21.9170 C   0  0  0  0  0  0
  -23.6247   -8.2232   22.0745 C   0  0  0  0  0  0
  -22.4237   -8.0251   21.3533 C   0  0  0  0  0  0
  -21.9865   -9.0223   20.4643 C   0  0  0  0  0  0
  -22.7184  -10.2108   20.3048 C   0  0  0  0  0  0
  -21.6845   -6.0713   22.5284 C   0  0  0  0  0  0
  -21.4011   -6.5622   23.8215 C   0  0  0  0  0  0
  -21.3671   -5.6775   24.9180 C   0  0  0  0  0  0
  -21.6044   -4.3035   24.7230 C   0  0  0  0  0  0
  -21.8820   -3.8129   23.4352 C   0  0  0  0  0  0
  -21.9204   -4.6945   22.3412 C   0  0  0  0  0  0
  -22.7854  -13.5233   21.1848 C   0  0  0  0  0  0
  -22.1671   -4.2131   21.0989 F   0  0  0  0  0  0
  -21.5623   -3.4531   25.7749 F   0  0  0  0  0  0
  -30.0179  -13.3909   20.4304 N   0  0  0  0  0  0
  -26.2975  -12.9293   20.3278 N   0  0  0  0  0  0
  -25.9288  -11.6449   20.5704 N   0  0  0  0  0  0
  -22.0465  -12.8245   22.0393 N   0  0  0  0  0  0
  -25.4281  -15.1839   20.4114 N   0  0  0  0  0  0
  -31.7720  -14.8160   20.1415 O   0  0  0  0  0  0
  -21.6613   -6.8847   21.4238 O   0  0  0  0  0  0
  -22.3563  -14.5551   20.6698 O   0  0  0  0  0  0
  -24.6273  -31.8587   23.2046 C   0  0  0  0  0  0
  -25.9119  -32.4774   23.8371 C   0  0  1  0  0  0
  -27.2202  -27.3231   20.1108 C   0  0  0  0  0  0
  -25.5922  -33.8576   24.2310 N   0  0  0  0  0  0
  -23.4206  -30.4883   21.5427 C   0  0  2  0  0  0
  -24.8664  -28.9496   20.1057 C   0  0  0  0  0  0
  -22.7470  -29.4640   22.4881 C   0  0  0  0  0  0
  -18.0282  -28.1388   22.8470 C   0  0  0  0  0  0
  -24.1487  -36.7291   23.2639 C   0  0  0  0  0  0
  -25.9628  -30.7940   21.3753 C   0  0  0  0  0  0
  -26.0355  -29.4219   20.7161 C   0  0  0  0  0  0
  -27.2144  -28.6189   20.7130 C   0  0  0  0  0  0
  -26.0334  -26.9191   19.4535 C   0  0  0  0  0  0
  -24.8670  -27.7039   19.4647 C   0  0  0  0  0  0
  -23.6359  -29.8289   20.1562 C   0  0  0  0  0  0
  -25.4103  -36.3091   24.0340 C   0  0  1  0  0  0
  -20.5886  -28.3706   23.1246 C   0  0  2  0  0  0
  -20.6755  -26.9425   22.5385 C   0  0  0  0  0  0
  -19.5738  -26.6397   21.5176 C   0  0  0  0  0  0
  -18.1922  -26.7930   22.1600 C   0  0  0  0  0  0
  -19.1540  -28.8858   23.2856 C   0  0  0  0  0  0
  -18.9464  -30.1449   23.8892 C   0  0  0  0  0  0
  -17.6464  -30.6588   24.0560 C   0  0  0  0  0  0
  -25.9036  -34.9449   23.5126 C   0  0  0  0  0  0
  -16.5350  -29.9096   23.6325 C   0  0  0  0  0  0
  -16.7267  -28.6512   23.0348 C   0  0  0  0  0  0
  -26.4507  -31.6569   25.0737 C   0  0  0  0  0  0
  -25.3749  -31.3697   26.1474 C   0  0  0  0  0  0
  -27.0335  -30.2985   24.6185 C   0  0  0  0  0  0
  -27.6082  -32.4304   25.7492 C   0  0  0  0  0  0
  -27.5581  -37.1805   24.8468 C   0  0  0  0  0  0
  -21.4180  -29.3061   22.3637 N   0  0  0  0  0  0
  -26.4286  -37.3790   23.9417 N   0  0  0  0  0  0
  -24.6889  -31.0624   22.0982 N   0  0  0  0  0  0
  -23.4182  -28.8160   23.2958 O   0  0  0  0  0  0
  -28.3256  -26.4576   20.1911 O   0  0  0  0  0  0
  -26.5617  -34.8913   22.4697 O   0  0  0  0  0  0
  -23.5432  -32.1360   23.7379 O   0  0  0  0  0  0
  -30.8700  -17.9035   21.0916 C   0  0  0  0  0  0
  -28.6312  -17.7729   20.2477 C   0  0  0  0  0  0
  -30.7949  -19.3363   21.1039 C   0  0  0  0  0  0
  -29.5945  -20.0289   20.6972 C   0  0  0  0  0  0
  -29.7913  -17.0872   20.6829 C   0  0  0  0  0  0
  -28.5286  -19.1926   20.2480 C   0  0  0  0  0  0
  -32.0200  -20.0491   21.6174 C   0  0  0  0  0  0
  -28.7294  -23.4827   21.9426 C   0  0  0  0  0  0
  -29.3495  -22.0817   22.1444 C   0  0  0  0  0  0
  -28.9941  -22.4599   19.8140 C   0  0  0  0  0  0
  -29.0546  -23.8852   20.4922 C   0  0  1  0  0  0
  -28.1156  -25.0203   19.8896 C   0  0  0  0  0  0
  -29.4166  -21.4606   20.8248 N   0  0  0  0  0  0
  -27.3099  -19.7560   19.8658 N   0  0  0  0  0  0
  -32.4278  -21.1218   20.9551 N   0  0  0  0  0  0
  -29.7442  -15.6358   20.8233 N   0  0  0  0  0  0
  -32.6637  -19.6089   22.5712 O   0  0  0  0  0  0
  -31.4872  -12.5139   19.1423 H   0  0  0  0  0  0
  -30.3826  -11.3822   19.8746 H   0  0  0  0  0  0
  -29.7765  -11.7557   17.4707 H   0  0  0  0  0  0
  -29.6566  -13.4738   17.7411 H   0  0  0  0  0  0
  -27.8611  -11.2889   18.8508 H   0  0  0  0  0  0
  -27.3820  -12.5786   17.7849 H   0  0  0  0  0  0
  -27.6795  -14.2416   19.5243 H   0  0  0  0  0  0
  -28.7099  -12.0099   21.3500 H   0  0  0  0  0  0
  -28.4420  -13.6511   21.8535 H   0  0  0  0  0  0
  -25.2700   -9.5688   22.4742 H   0  0  0  0  0  0
  -23.9955   -7.4629   22.7460 H   0  0  0  0  0  0
  -21.0799   -8.8731   19.8948 H   0  0  0  0  0  0
  -22.3616  -10.9633   19.6150 H   0  0  0  0  0  0
  -21.1988   -7.6126   23.9704 H   0  0  0  0  0  0
  -21.1499   -6.0513   25.9082 H   0  0  0  0  0  0
  -22.0593   -2.7593   23.2861 H   0  0  0  0  0  0
  -22.4040  -11.9892   22.4797 H   0  0  0  0  0  0
  -21.1090  -13.1314   22.2578 H   0  0  0  0  0  0
  -24.6550  -15.8327   20.5153 H   0  0  0  0  0  0
  -26.2616  -15.6168   20.0401 H   0  0  0  0  0  0
  -26.7201  -32.5476   23.1130 H   0  0  0  0  0  0
  -25.0090  -33.9705   25.0472 H   0  0  0  0  0  0
  -22.7166  -31.3112   21.4036 H   0  0  0  0  0  0
  -23.3756  -35.9623   23.3295 H   0  0  0  0  0  0
  -24.3586  -36.8905   22.2059 H   0  0  0  0  0  0
  -23.7220  -37.6483   23.6648 H   0  0  0  0  0  0
  -26.0973  -31.5609   20.6096 H   0  0  0  0  0  0
  -26.8414  -30.8394   22.0077 H   0  0  0  0  0  0
  -28.1080  -28.9746   21.2065 H   0  0  0  0  0  0
  -25.9725  -25.9795   18.9252 H   0  0  0  0  0  0
  -23.9766  -27.3447   18.9666 H   0  0  0  0  0  0
  -23.7561  -30.6075   19.4012 H   0  0  0  0  0  0
  -22.7568  -29.2574   19.8532 H   0  0  0  0  0  0
  -25.1281  -36.1953   25.0836 H   0  0  0  0  0  0
  -20.9985  -28.3284   24.1361 H   0  0  0  0  0  0
  -20.5599  -26.2332   23.3591 H   0  0  0  0  0  0
  -21.6637  -26.7413   22.1227 H   0  0  0  0  0  0
  -19.6892  -25.6303   21.1234 H   0  0  0  0  0  0
  -19.6671  -27.3187   20.6686 H   0  0  0  0  0  0
  -17.4179  -26.6656   21.4014 H   0  0  0  0  0  0
  -18.0340  -26.0067   22.9005 H   0  0  0  0  0  0
  -19.7941  -30.7256   24.2268 H   0  0  0  0  0  0
  -17.5030  -31.6261   24.5176 H   0  0  0  0  0  0
  -15.5356  -30.3009   23.7644 H   0  0  0  0  0  0
  -15.8657  -28.0831   22.7073 H   0  0  0  0  0  0
  -24.5947  -30.7015   25.7816 H   0  0  0  0  0  0
  -24.8913  -32.2850   26.4895 H   0  0  0  0  0  0
  -25.8089  -30.8898   27.0254 H   0  0  0  0  0  0
  -26.2892  -29.6744   24.1232 H   0  0  0  0  0  0
  -27.4034  -29.7242   25.4688 H   0  0  0  0  0  0
  -27.8773  -30.4247   23.9401 H   0  0  0  0  0  0
  -27.2709  -33.3622   26.2044 H   0  0  0  0  0  0
  -28.3893  -32.6825   25.0307 H   0  0  0  0  0  0
  -28.0749  -31.8445   26.5418 H   0  0  0  0  0  0
  -28.2612  -38.0095   24.7527 H   0  0  0  0  0  0
  -28.1068  -36.2633   24.6279 H   0  0  0  0  0  0
  -27.2312  -37.1447   25.8875 H   0  0  0  0  0  0
  -20.9339  -29.8834   21.6906 H   0  0  0  0  0  0
  -26.0172  -38.2873   24.1405 H   0  0  0  0  0  0
  -31.7698  -17.4255   21.4522 H   0  0  0  0  0  0
  -27.7778  -17.1883   19.9381 H   0  0  0  0  0  0
  -29.0864  -24.2068   22.6762 H   0  0  0  0  0  0
  -27.6471  -23.4065   22.0664 H   0  0  0  0  0  0
  -28.7613  -21.4831   22.8412 H   0  0  0  0  0  0
  -30.3535  -22.1742   22.5608 H   0  0  0  0  0  0
  -29.6365  -22.4146   18.9331 H   0  0  0  0  0  0
  -27.9776  -22.2541   19.4819 H   0  0  0  0  0  0
  -30.0890  -24.2287   20.4522 H   0  0  0  0  0  0
  -27.1139  -24.7264   20.2010 H   0  0  0  0  0  0
  -28.1360  -24.9298   18.8030 H   0  0  0  0  0  0
  -26.4906  -19.1592   19.8927 H   0  0  0  0  0  0
  -27.1390  -20.6717   20.2662 H   0  0  0  0  0  0
  -31.8504  -21.4812   20.2074 H   0  0  0  0  0  0
  -33.2558  -21.6188   21.2462 H   0  0  0  0  0  0
  -28.8248  -15.2751   21.0229 H   0  0  0  0  0  0
  1 25  1  0  0  0
  1 30  2  0  0  0
  1 86  1  0  0  0
  2  3  1  0  0  0
  2 25  1  0  0  0
  2 88  1  0  0  0
  2 89  1  0  0  0
  3  4  1  0  0  0
  3 90  1  0  0  0
  3 91  1  0  0  0
  4  5  1  0  0  0
  4 92  1  0  0  0
  4 93  1  0  0  0
  5  6  1  0  0  0
  5 26  1  0  0  0
  5 94  1  0  0  0
  6 25  1  0  0  0
  6 95  1  0  0  0
  6 96  1  0  0  0
  7  8  2  0  0  0
  7 26  1  0  0  0
  7 29  1  0  0  0
  8  9  1  0  0  0
  8 22  1  0  0  0
  9 10  1  0  0  0
  9 27  2  0  0  0
 10 11  2  0  0  0
 10 15  1  0  0  0
 11 12  1  0  0  0
 11 97  1  0  0  0
 12 13  2  0  0  0
 12 98  1  0  0  0
 13 14  1  0  0  0
 13 31  1  0  0  0
 14 15  2  0  0  0
 14 99  1  0  0  0
 15100  1  0  0  0
 16 17  2  0  0  0
 16 21  1  0  0  0
 16 31  1  0  0  0
 17 18  1  0  0  0
 17101  1  0  0  0
 18 19  2  0  0  0
 18102  1  0  0  0
 19 20  1  0  0  0
 19 24  1  0  0  0
 20 21  2  0  0  0
 20103  1  0  0  0
 21 23  1  0  0  0
 22 28  1  0  0  0
 22 32  2  0  0  0
 26 27  1  0  0  0
 28104  1  0  0  0
 28105  1  0  0  0
 29106  1  0  0  0
 29107  1  0  0  0
 33 34  1  0  0  0
 33 66  1  0  0  0
 33 70  2  0  0  0
 34 36  1  0  0  0
 34 59  1  0  0  0
 34108  1  0  0  0
 35 44  2  0  0  0
 35 45  1  0  0  0
 35 68  1  0  0  0
 36 56  1  0  0  0
 36109  1  0  0  0
 37 39  1  0  0  0
 37 47  1  0  0  0
 37 66  1  0  0  0
 37110  1  0  0  0
 38 43  2  0  0  0
 38 46  1  0  0  0
 38 47  1  0  0  0
 39 64  1  0  0  0
 39 67  2  0  0  0
 40 52  1  0  0  0
 40 53  2  0  0  0
 40 58  1  0  0  0
 41111  1  0  0  0
 41112  1  0  0  0
 41113  1  0  0  0
 41 48  1  0  0  0
 42 43  1  0  0  0
 42 66  1  0  0  0
 42114  1  0  0  0
 42115  1  0  0  0
 43 44  1  0  0  0
 44116  1  0  0  0
 45 46  2  0  0  0
 45117  1  0  0  0
 46118  1  0  0  0
 47119  1  0  0  0
 47120  1  0  0  0
 48 56  1  0  0  0
 48 65  1  0  0  0
 48121  1  0  0  0
 49 50  1  0  0  0
 49 53  1  0  0  0
 49 64  1  0  0  0
 49122  1  0  0  0
 50 51  1  0  0  0
 50123  1  0  0  0
 50124  1  0  0  0
 51 52  1  0  0  0
 51125  1  0  0  0
 51126  1  0  0  0
 52127  1  0  0  0
 52128  1  0  0  0
 53 54  1  0  0  0
 54 55  2  0  0  0
 54129  1  0  0  0
 55 57  1  0  0  0
 55130  1  0  0  0
 56 69  2  0  0  0
 57 58  2  0  0  0
 57131  1  0  0  0
 58132  1  0  0  0
 59 60  1  0  0  0
 59 61  1  0  0  0
 59 62  1  0  0  0
 60133  1  0  0  0
 60134  1  0  0  0
 60135  1  0  0  0
 61136  1  0  0  0
 61137  1  0  0  0
 61138  1  0  0  0
 62139  1  0  0  0
 62140  1  0  0  0
 62141  1  0  0  0
 63 65  1  0  0  0
 63142  1  0  0  0
 63143  1  0  0  0
 63144  1  0  0  0
 64145  1  0  0  0
 65146  1  0  0  0
 68 82  1  0  0  0
 71 73  2  0  0  0
 71 75  1  0  0  0
 71147  1  0  0  0
 72 75  2  0  0  0
 72 76  1  0  0  0
 72148  1  0  0  0
 73 74  1  0  0  0
 73 77  1  0  0  0
 74 76  2  0  0  0
 74 83  1  0  0  0
 75 86  1  0  0  0
 76 84  1  0  0  0
 77 85  1  0  0  0
 77 87  2  0  0  0
 78 79  1  0  0  0
 78 81  1  0  0  0
 78149  1  0  0  0
 78150  1  0  0  0
 79 83  1  0  0  0
 79151  1  0  0  0
 79152  1  0  0  0
 80 81  1  0  0  0
 80 83  1  0  0  0
 80153  1  0  0  0
 80154  1  0  0  0
 81 82  1  0  0  0
 81155  1  0  0  0
 82156  1  0  0  0
 82157  1  0  0  0
 84158  1  0  0  0
 84159  1  0  0  0
 85160  1  0  0  0
 85161  1  0  0  0
 86162  1  0  0  0
M  ISO  4   1 100  68 101  82 101  86 100
M  END
> <chiral flag>
0

> <version>
0

> <s_m_source_file>
/data/baiqing/PycharmProjects/Reinvent-master-3.2/result/LINK_invent/BTK/process_docking_weight1_custom_product_contain_oxygen_bond_distance_aromatic_linkinvent_7_9_3/rearranged_h_0096.sdf

> <i_m_source_file_index>
49

> <r_mmod_Potential_Energy-OPLS-2005>
52.8541717529297

> <r_mmod_Stretch_Energy-OPLS-2005>
77.8710021972656

> <r_mmod_Bend_Energy-OPLS-2005>
187.806610107422

> <r_mmod_Torsional_Energy-OPLS-2005>
321.045349121094

> <r_mmod_Improper_Torsional_Energy-OPLS-2005>
11.435359954834

> <r_mmod_Van_der_Waal_Energy-OPLS-2005>
149.434188842773

> <r_mmod_Electrostatic_Energy-OPLS-2005>
-492.231658935547

> <r_mmod_Solvation_Energy-OPLS-2005>
-251.233291625977

> <b_mmod_Minimization_Converged-OPLS-2005>
0

> <r_mmod_RMS_Derivative-OPLS-2005>
3.1328272819519

$$$$
49
                    3D
 Structure written by MMmdl.
153161  0  0  1  0            999 V2000
  -30.6912  -14.7059   20.2688 C   0  0  0  0  0  0
  -30.4233  -12.3991   19.4534 C   0  0  0  0  0  0
  -29.4918  -12.4057   18.2224 C   0  0  0  0  0  0
  -28.0181  -12.2616   18.6575 C   0  0  0  0  0  0
  -27.6200  -13.1968   19.8320 C   0  0  2  0  0  0
  -28.6960  -13.2389   20.9379 C   0  0  0  0  0  0
  -25.2489  -13.8077   20.5838 C   0  0  0  0  0  0
  -24.1736  -13.0351   20.9231 C   0  0  0  0  0  0
  -24.6312  -11.6830   20.8802 C   0  0  0  0  0  0
  -23.9001  -10.4237   21.0435 C   0  0  0  0  0  0
  -24.3578   -9.4161   21.9194 C   0  0  0  0  0  0
  -23.6267   -8.2195   22.0751 C   0  0  0  0  0  0
  -22.4250   -8.0243   21.3539 C   0  0  0  0  0  0
  -21.9875   -9.0214   20.4643 C   0  0  0  0  0  0
  -22.7193  -10.2096   20.3064 C   0  0  0  0  0  0
  -21.6834   -6.0714   22.5279 C   0  0  0  0  0  0
  -21.3998   -6.5626   23.8211 C   0  0  0  0  0  0
  -21.3656   -5.6785   24.9175 C   0  0  0  0  0  0
  -21.6045   -4.3049   24.7227 C   0  0  0  0  0  0
  -21.8823   -3.8136   23.4350 C   0  0  0  0  0  0
  -21.9190   -4.6947   22.3404 C   0  0  0  0  0  0
  -22.7778  -13.5185   21.1869 C   0  0  0  0  0  0
  -22.1660   -4.2136   21.0982 F   0  0  0  0  0  0
  -21.5634   -3.4535   25.7742 F   0  0  0  0  0  0
  -30.0053  -13.5135   20.3223 N   0  0  0  0  0  0
  -26.2871  -12.9194   20.3430 N   0  0  0  0  0  0
  -25.9238  -11.6380   20.5880 N   0  0  0  0  0  0
  -22.0405  -12.8199   22.0430 N   0  0  0  0  0  0
  -25.4159  -15.1833   20.4425 N   0  0  0  0  0  0
  -31.9147  -14.6833   20.3879 O   0  0  0  0  0  0
  -21.6613   -6.8846   21.4237 O   0  0  0  0  0  0
  -22.3505  -14.5510   20.6725 O   0  0  0  0  0  0
  -24.6238  -31.8629   23.2052 C   0  0  0  0  0  0
  -25.9103  -32.4793   23.8364 C   0  0  1  0  0  0
  -27.2245  -27.3408   20.1164 C   0  0  0  0  0  0
  -25.5927  -33.8593   24.2295 N   0  0  0  0  0  0
  -23.4163  -30.4887   21.5461 C   0  0  2  0  0  0
  -24.8621  -28.9474   20.1101 C   0  0  0  0  0  0
  -22.7464  -29.4657   22.4937 C   0  0  0  0  0  0
  -18.0287  -28.1391   22.8485 C   0  0  0  0  0  0
  -24.1490  -36.7303   23.2640 C   0  0  0  0  0  0
  -25.9557  -30.7987   21.3766 C   0  0  0  0  0  0
  -26.0278  -29.4284   20.7187 C   0  0  0  0  0  0
  -27.2094  -28.6343   20.7171 C   0  0  0  0  0  0
  -26.0405  -26.9172   19.4666 C   0  0  0  0  0  0
  -24.8691  -27.6962   19.4761 C   0  0  0  0  0  0
  -23.6299  -29.8254   20.1598 C   0  0  0  0  0  0
  -25.4115  -36.3104   24.0339 C   0  0  1  0  0  0
  -20.5884  -28.3705   23.1274 C   0  0  2  0  0  0
  -20.6778  -26.9430   22.5401 C   0  0  0  0  0  0
  -19.5754  -26.6394   21.5207 C   0  0  0  0  0  0
  -18.1935  -26.7933   22.1624 C   0  0  0  0  0  0
  -19.1537  -28.8861   23.2878 C   0  0  0  0  0  0
  -18.9463  -30.1459   23.8902 C   0  0  0  0  0  0
  -17.6464  -30.6593   24.0569 C   0  0  0  0  0  0
  -25.9050  -34.9466   23.5120 C   0  0  0  0  0  0
  -16.5355  -29.9096   23.6327 C   0  0  0  0  0  0
  -16.7274  -28.6511   23.0350 C   0  0  0  0  0  0
  -26.4485  -31.6596   25.0732 C   0  0  0  0  0  0
  -25.3711  -31.3734   26.1455 C   0  0  0  0  0  0
  -27.0331  -30.3017   24.6192 C   0  0  0  0  0  0
  -27.6052  -32.4323   25.7491 C   0  0  0  0  0  0
  -27.5584  -37.1813   24.8468 C   0  0  0  0  0  0
  -21.4181  -29.3064   22.3676 N   0  0  0  0  0  0
  -26.4299  -37.3789   23.9411 N   0  0  0  0  0  0
  -24.6834  -31.0663   22.0991 N   0  0  0  0  0  0
  -23.4195  -28.8201   23.3017 O   0  0  0  0  0  0
  -28.3506  -26.5119   20.1905 O   0  0  0  0  0  0
  -26.5616  -34.8926   22.4683 O   0  0  0  0  0  0
  -23.5408  -32.1415   23.7399 O   0  0  0  0  0  0
  -29.4767  -17.7939   21.2470 C   0  0  0  0  0  0
  -29.2905  -19.1694   21.5947 C   0  0  0  0  0  0
  -30.5327  -18.4896   19.2232 C   0  0  0  0  0  0
  -30.0976  -17.3960   20.0315 C   0  0  0  0  0  0
  -29.6904  -20.2417   20.7484 C   0  0  0  0  0  0
  -30.3364  -19.8576   19.5482 C   0  0  0  0  0  0
  -29.1082  -22.5782   20.4238 C   0  0  0  0  0  0
  -29.0528  -24.0994   20.7770 C   0  0  0  0  0  0
  -28.1970  -25.0711   19.8929 C   0  0  0  0  0  0
  -30.1775  -15.9744   19.4227 C   0  0  1  0  0  0
  -29.5461  -21.6051   21.1691 N   0  0  0  0  0  0
  -29.0517  -15.7828   18.5047 N   0  3  0  0  0  0
  -29.6460  -24.5486   21.7675 O   0  0  0  0  0  0
  -30.7900  -20.8045   18.6905 F   0  0  0  0  0  0
  -31.4655  -12.4871   19.1400 H   0  0  0  0  0  0
  -30.3489  -11.4526   19.9917 H   0  0  0  0  0  0
  -29.7558  -11.5772   17.5637 H   0  0  0  0  0  0
  -29.6342  -13.3059   17.6270 H   0  0  0  0  0  0
  -27.8856  -11.2240   18.9665 H   0  0  0  0  0  0
  -27.3500  -12.4042   17.8073 H   0  0  0  0  0  0
  -27.5287  -14.1814   19.4046 H   0  0  0  0  0  0
  -28.7292  -12.2921   21.4799 H   0  0  0  0  0  0
  -28.4534  -14.0078   21.6734 H   0  0  0  0  0  0
  -25.2725   -9.5637   22.4767 H   0  0  0  0  0  0
  -23.9980   -7.4579   22.7463 H   0  0  0  0  0  0
  -21.0805   -8.8726   19.8951 H   0  0  0  0  0  0
  -22.3651  -10.9636   19.6180 H   0  0  0  0  0  0
  -21.1981   -7.6134   23.9705 H   0  0  0  0  0  0
  -21.1474   -6.0516   25.9074 H   0  0  0  0  0  0
  -22.0607   -2.7598   23.2852 H   0  0  0  0  0  0
  -22.4011  -11.9872   22.4844 H   0  0  0  0  0  0
  -21.1017  -13.1228   22.2607 H   0  0  0  0  0  0
  -24.6374  -15.8111   20.6131 H   0  0  0  0  0  0
  -26.3009  -15.6666   20.4323 H   0  0  0  0  0  0
  -26.7178  -32.5462   23.1118 H   0  0  0  0  0  0
  -25.0077  -33.9726   25.0445 H   0  0  0  0  0  0
  -22.7095  -31.3094   21.4049 H   0  0  0  0  0  0
  -23.3754  -35.9632   23.3310 H   0  0  0  0  0  0
  -24.3586  -36.8906   22.2052 H   0  0  0  0  0  0
  -23.7233  -37.6509   23.6640 H   0  0  0  0  0  0
  -26.0911  -31.5632   20.6103 H   0  0  0  0  0  0
  -26.8350  -30.8413   22.0075 H   0  0  0  0  0  0
  -28.1009  -28.9981   21.2083 H   0  0  0  0  0  0
  -25.9860  -25.9759   18.9417 H   0  0  0  0  0  0
  -23.9782  -27.3270   18.9862 H   0  0  0  0  0  0
  -23.7500  -30.6027   19.4043 H   0  0  0  0  0  0
  -22.7497  -29.2554   19.8566 H   0  0  0  0  0  0
  -25.1290  -36.1968   25.0831 H   0  0  0  0  0  0
  -20.9975  -28.3284   24.1395 H   0  0  0  0  0  0
  -20.5683  -26.2324   23.3609 H   0  0  0  0  0  0
  -21.6649  -26.7467   22.1194 H   0  0  0  0  0  0
  -19.6920  -25.6304   21.1242 H   0  0  0  0  0  0
  -19.6679  -27.3201   20.6732 H   0  0  0  0  0  0
  -17.4201  -26.6674   21.4031 H   0  0  0  0  0  0
  -18.0343  -26.0073   22.9017 H   0  0  0  0  0  0
  -19.7939  -30.7271   24.2277 H   0  0  0  0  0  0
  -17.5023  -31.6272   24.5180 H   0  0  0  0  0  0
  -15.5358  -30.3009   23.7644 H   0  0  0  0  0  0
  -15.8672  -28.0838   22.7062 H   0  0  0  0  0  0
  -24.5888  -30.7082   25.7776 H   0  0  0  0  0  0
  -24.8893  -32.2897   26.4868 H   0  0  0  0  0  0
  -25.8019  -30.8911   27.0237 H   0  0  0  0  0  0
  -26.2908  -29.6771   24.1205 H   0  0  0  0  0  0
  -27.4016  -29.7273   25.4703 H   0  0  0  0  0  0
  -27.8783  -30.4309   23.9430 H   0  0  0  0  0  0
  -27.2675  -33.3623   26.2071 H   0  0  0  0  0  0
  -28.3846  -32.6880   25.0302 H   0  0  0  0  0  0
  -28.0738  -31.8446   26.5397 H   0  0  0  0  0  0
  -28.2617  -38.0099   24.7516 H   0  0  0  0  0  0
  -28.1068  -36.2632   24.6294 H   0  0  0  0  0  0
  -27.2305  -37.1464   25.8874 H   0  0  0  0  0  0
  -20.9365  -29.8791   21.6885 H   0  0  0  0  0  0
  -26.0195  -38.2876   24.1378 H   0  0  0  0  0  0
  -29.1020  -17.0373   21.9229 H   0  0  0  0  0  0
  -28.8134  -19.4013   22.5371 H   0  0  0  0  0  0
  -31.0115  -18.2881   18.2756 H   0  0  0  0  0  0
  -28.7192  -22.3370   19.4304 H   0  0  0  0  0  0
  -27.1713  -24.7499   20.0668 H   0  0  0  0  0  0
  -28.4189  -24.8955   18.8406 H   0  0  0  0  0  0
  -30.9929  -16.0369   18.6991 H   0  0  0  0  0  0
  -28.9799  -16.5871   17.9081 H   0  0  0  0  0  0
  -28.1896  -15.6957   19.0053 H   0  0  0  0  0  0
  -29.2058  -14.9799   17.9208 H   0  0  0  0  0  0
  1 25  1  0  0  0
  1 30  2  0  0  0
  1 80  1  0  0  0
  2  3  1  0  0  0
  2 25  1  0  0  0
  2 85  1  0  0  0
  2 86  1  0  0  0
  3  4  1  0  0  0
  3 87  1  0  0  0
  3 88  1  0  0  0
  4  5  1  0  0  0
  4 89  1  0  0  0
  4 90  1  0  0  0
  5  6  1  0  0  0
  5 26  1  0  0  0
  5 91  1  0  0  0
  6 25  1  0  0  0
  6 92  1  0  0  0
  6 93  1  0  0  0
  7  8  2  0  0  0
  7 26  1  0  0  0
  7 29  1  0  0  0
  8  9  1  0  0  0
  8 22  1  0  0  0
  9 10  1  0  0  0
  9 27  2  0  0  0
 10 11  2  0  0  0
 10 15  1  0  0  0
 11 12  1  0  0  0
 11 94  1  0  0  0
 12 13  2  0  0  0
 12 95  1  0  0  0
 13 14  1  0  0  0
 13 31  1  0  0  0
 14 15  2  0  0  0
 14 96  1  0  0  0
 15 97  1  0  0  0
 16 17  2  0  0  0
 16 21  1  0  0  0
 16 31  1  0  0  0
 17 18  1  0  0  0
 17 98  1  0  0  0
 18 19  2  0  0  0
 18 99  1  0  0  0
 19 20  1  0  0  0
 19 24  1  0  0  0
 20 21  2  0  0  0
 20100  1  0  0  0
 21 23  1  0  0  0
 22 28  1  0  0  0
 22 32  2  0  0  0
 26 27  1  0  0  0
 28101  1  0  0  0
 28102  1  0  0  0
 29103  1  0  0  0
 29104  1  0  0  0
 33 34  1  0  0  0
 33 66  1  0  0  0
 33 70  2  0  0  0
 34 36  1  0  0  0
 34 59  1  0  0  0
 34105  1  0  0  0
 35 44  2  0  0  0
 35 45  1  0  0  0
 35 68  1  0  0  0
 36 56  1  0  0  0
 36106  1  0  0  0
 37 39  1  0  0  0
 37 47  1  0  0  0
 37 66  1  0  0  0
 37107  1  0  0  0
 38 43  2  0  0  0
 38 46  1  0  0  0
 38 47  1  0  0  0
 39 64  1  0  0  0
 39 67  2  0  0  0
 40 52  1  0  0  0
 40 53  2  0  0  0
 40 58  1  0  0  0
 41108  1  0  0  0
 41109  1  0  0  0
 41110  1  0  0  0
 41 48  1  0  0  0
 42 43  1  0  0  0
 42 66  1  0  0  0
 42111  1  0  0  0
 42112  1  0  0  0
 43 44  1  0  0  0
 44113  1  0  0  0
 45 46  2  0  0  0
 45114  1  0  0  0
 46115  1  0  0  0
 47116  1  0  0  0
 47117  1  0  0  0
 48 56  1  0  0  0
 48 65  1  0  0  0
 48118  1  0  0  0
 49 50  1  0  0  0
 49 53  1  0  0  0
 49 64  1  0  0  0
 49119  1  0  0  0
 50 51  1  0  0  0
 50120  1  0  0  0
 50121  1  0  0  0
 51 52  1  0  0  0
 51122  1  0  0  0
 51123  1  0  0  0
 52124  1  0  0  0
 52125  1  0  0  0
 53 54  1  0  0  0
 54 55  2  0  0  0
 54126  1  0  0  0
 55 57  1  0  0  0
 55127  1  0  0  0
 56 69  2  0  0  0
 57 58  2  0  0  0
 57128  1  0  0  0
 58129  1  0  0  0
 59 60  1  0  0  0
 59 61  1  0  0  0
 59 62  1  0  0  0
 60130  1  0  0  0
 60131  1  0  0  0
 60132  1  0  0  0
 61133  1  0  0  0
 61134  1  0  0  0
 61135  1  0  0  0
 62136  1  0  0  0
 62137  1  0  0  0
 62138  1  0  0  0
 63 65  1  0  0  0
 63139  1  0  0  0
 63140  1  0  0  0
 63141  1  0  0  0
 64142  1  0  0  0
 65143  1  0  0  0
 68 79  1  0  0  0
 71 72  2  0  0  0
 71 74  1  0  0  0
 71144  1  0  0  0
 72 75  1  0  0  0
 72145  1  0  0  0
 73 74  2  0  0  0
 73 76  1  0  0  0
 73146  1  0  0  0
 74 80  1  0  0  0
 75 76  2  0  0  0
 75 81  1  0  0  0
 76 84  1  0  0  0
 77 78  1  0  0  0
 77 81  2  0  0  0
 77147  1  0  0  0
 78 79  1  0  0  0
 78 83  2  0  0  0
 79148  1  0  0  0
 79149  1  0  0  0
 80 82  1  0  0  0
 80150  1  0  0  0
 82151  1  0  0  0
 82152  1  0  0  0
 82153  1  0  0  0
M  CHG  1  82   1
M  ISO  4   1 100  68 101  79 101  80 100
M  END
> <chiral flag>
0

> <version>
0

> <s_m_source_file>
/data/baiqing/PycharmProjects/Reinvent-master-3.2/result/LINK_invent/BTK/process_docking_weight1_custom_product_contain_oxygen_bond_distance_aromatic_linkinvent_7_9_3/rearranged_h_0096.sdf

> <i_m_source_file_index>
50

> <r_mmod_Potential_Energy-OPLS-2005>
4.95023536682129

> <r_mmod_Stretch_Energy-OPLS-2005>
81.8722839355469

> <r_mmod_Bend_Energy-OPLS-2005>
185.327880859375

> <r_mmod_Torsional_Energy-OPLS-2005>
248.071014404297

> <r_mmod_Improper_Torsional_Energy-OPLS-2005>
23.0461521148682

> <r_mmod_Van_der_Waal_Energy-OPLS-2005>
148.743011474609

> <r_mmod_Electrostatic_Energy-OPLS-2005>
-218.083862304688

> <r_mmod_Solvation_Energy-OPLS-2005>
-554.149291992188

> <b_mmod_Minimization_Converged-OPLS-2005>
0

> <r_mmod_RMS_Derivative-OPLS-2005>
1.09058403968811

$$$$
50
                    3D
 Structure written by MMmdl.
158167  0  0  1  0            999 V2000
  -30.6968  -14.4676   20.5849 C   0  0  0  0  0  0
  -30.4283  -12.3092   19.4131 C   0  0  0  0  0  0
  -29.4939  -12.5080   18.2015 C   0  0  0  0  0  0
  -28.0146  -12.3720   18.6154 C   0  0  0  0  0  0
  -27.6640  -13.2045   19.8783 C   0  0  2  0  0  0
  -28.7073  -12.9663   20.9935 C   0  0  0  0  0  0
  -25.2597  -13.8152   20.5686 C   0  0  0  0  0  0
  -24.1835  -13.0431   20.9155 C   0  0  0  0  0  0
  -24.6386  -11.6899   20.8718 C   0  0  0  0  0  0
  -23.9055  -10.4288   21.0398 C   0  0  0  0  0  0
  -24.3609   -9.4207   21.9183 C   0  0  0  0  0  0
  -23.6287   -8.2240   22.0753 C   0  0  0  0  0  0
  -22.4267   -8.0277   21.3546 C   0  0  0  0  0  0
  -21.9903   -9.0246   20.4645 C   0  0  0  0  0  0
  -22.7227  -10.2129   20.3050 C   0  0  0  0  0  0
  -21.6855   -6.0735   22.5282 C   0  0  0  0  0  0
  -21.4009   -6.5639   23.8212 C   0  0  0  0  0  0
  -21.3659   -5.6791   24.9178 C   0  0  0  0  0  0
  -21.6043   -4.3053   24.7229 C   0  0  0  0  0  0
  -21.8820   -3.8147   23.4346 C   0  0  0  0  0  0
  -21.9191   -4.6961   22.3405 C   0  0  0  0  0  0
  -22.7862  -13.5236   21.1836 C   0  0  0  0  0  0
  -22.1665   -4.2147   21.0981 F   0  0  0  0  0  0
  -21.5629   -3.4536   25.7742 F   0  0  0  0  0  0
  -30.0392  -13.2835   20.4445 N   0  0  0  0  0  0
  -26.3039  -12.9317   20.3389 N   0  0  0  0  0  0
  -25.9319  -11.6479   20.5769 N   0  0  0  0  0  0
  -22.0502  -12.8229   22.0386 N   0  0  0  0  0  0
  -25.4326  -15.1870   20.4165 N   0  0  0  0  0  0
  -31.8136  -14.6686   20.0986 O   0  0  0  0  0  0
  -21.6637   -6.8872   21.4239 O   0  0  0  0  0  0
  -22.3547  -14.5549   20.6693 O   0  0  0  0  0  0
  -24.6171  -31.8687   23.2101 C   0  0  0  0  0  0
  -25.9048  -32.4827   23.8407 C   0  0  1  0  0  0
  -27.2294  -27.4168   20.0942 C   0  0  0  0  0  0
  -25.5899  -33.8628   24.2336 N   0  0  0  0  0  0
  -23.4057  -30.4932   21.5520 C   0  0  2  0  0  0
  -24.8500  -28.9628   20.1123 C   0  0  0  0  0  0
  -22.7435  -29.4657   22.4989 C   0  0  0  0  0  0
  -18.0277  -28.1383   22.8504 C   0  0  0  0  0  0
  -24.1478  -36.7302   23.2639 C   0  0  0  0  0  0
  -25.9384  -30.8286   21.3656 C   0  0  0  0  0  0
  -26.0148  -29.4642   20.7081 C   0  0  0  0  0  0
  -27.2090  -28.7015   20.6917 C   0  0  0  0  0  0
  -26.0428  -26.9439   19.4832 C   0  0  0  0  0  0
  -24.8612  -27.7037   19.4951 C   0  0  0  0  0  0
  -23.6132  -29.8305   20.1647 C   0  0  0  0  0  0
  -25.4103  -36.3116   24.0342 C   0  0  1  0  0  0
  -20.5879  -28.3664   23.1317 C   0  0  2  0  0  0
  -20.6767  -26.9396   22.5424 C   0  0  0  0  0  0
  -19.5743  -26.6393   21.5221 C   0  0  0  0  0  0
  -18.1922  -26.7934   22.1631 C   0  0  0  0  0  0
  -19.1530  -28.8836   23.2912 C   0  0  0  0  0  0
  -18.9456  -30.1447   23.8920 C   0  0  0  0  0  0
  -17.6461  -30.6592   24.0567 C   0  0  0  0  0  0
  -25.9034  -34.9484   23.5139 C   0  0  0  0  0  0
  -16.5350  -29.9094   23.6332 C   0  0  0  0  0  0
  -16.7267  -28.6506   23.0360 C   0  0  0  0  0  0
  -26.4465  -31.6605   25.0730 C   0  0  0  0  0  0
  -25.3711  -31.3729   26.1460 C   0  0  0  0  0  0
  -27.0280  -30.3046   24.6097 C   0  0  0  0  0  0
  -27.6043  -32.4311   25.7493 C   0  0  0  0  0  0
  -27.5582  -37.1809   24.8469 C   0  0  0  0  0  0
  -21.4158  -29.3034   22.3723 N   0  0  0  0  0  0
  -26.4292  -37.3798   23.9414 N   0  0  0  0  0  0
  -24.6722  -31.0775   22.1005 N   0  0  0  0  0  0
  -23.4198  -28.8196   23.3034 O   0  0  0  0  0  0
  -28.3799  -26.6425   20.1287 O   0  0  0  0  0  0
  -26.5598  -34.8931   22.4700 O   0  0  0  0  0  0
  -23.5355  -32.1442   23.7482 O   0  0  0  0  0  0
  -31.5551  -18.8864   21.3283 C   0  0  0  0  0  0
  -31.4454  -17.4882   21.1443 C   0  0  0  0  0  0
  -29.1620  -19.0336   21.7182 C   0  0  0  0  0  0
  -30.4208  -19.6683   21.6442 C   0  0  0  0  0  0
  -30.1887  -16.8457   21.2661 C   0  0  0  0  0  0
  -29.0516  -17.6372   21.5373 C   0  0  0  0  0  0
  -30.9817  -22.7036   20.1363 C   0  0  0  0  0  0
  -30.4322  -24.0361   19.6353 C   0  0  0  0  0  0
  -29.0040  -23.0103   21.2828 C   0  0  0  0  0  0
  -29.3785  -24.3924   20.6960 C   0  0  2  0  0  0
  -30.5806  -21.1396   22.0440 C   0  0  0  0  0  0
  -28.1648  -25.2152   20.1963 C   0  0  0  0  0  0
  -30.1797  -22.1665   21.0680 N   0  0  0  0  0  0
  -29.9808  -15.4323   21.1912 N   0  0  0  0  0  0
  -32.0636  -22.2463   19.7607 O   0  0  0  0  0  0
  -27.8407  -17.0395   21.6515 F   0  0  0  0  0  0
  -31.4710  -12.4176   19.1087 H   0  0  0  0  0  0
  -30.3387  -11.2950   19.8044 H   0  0  0  0  0  0
  -29.7311  -11.7822   17.4225 H   0  0  0  0  0  0
  -29.6623  -13.4928   17.7626 H   0  0  0  0  0  0
  -27.8205  -11.3153   18.8039 H   0  0  0  0  0  0
  -27.3640  -12.6546   17.7870 H   0  0  0  0  0  0
  -27.7124  -14.2556   19.5926 H   0  0  0  0  0  0
  -28.6837  -11.9227   21.3112 H   0  0  0  0  0  0
  -28.4652  -13.5416   21.8878 H   0  0  0  0  0  0
  -25.2757   -9.5686   22.4754 H   0  0  0  0  0  0
  -24.0001   -7.4632   22.7474 H   0  0  0  0  0  0
  -21.0835   -8.8753   19.8956 H   0  0  0  0  0  0
  -22.3681  -10.9657   19.6153 H   0  0  0  0  0  0
  -21.1997   -7.6148   23.9715 H   0  0  0  0  0  0
  -21.1484   -6.0525   25.9081 H   0  0  0  0  0  0
  -22.0598   -2.7608   23.2848 H   0  0  0  0  0  0
  -22.4117  -11.9885   22.4767 H   0  0  0  0  0  0
  -21.1123  -13.1261   22.2602 H   0  0  0  0  0  0
  -24.6780  -15.8462   20.5700 H   0  0  0  0  0  0
  -26.3162  -15.6396   20.2172 H   0  0  0  0  0  0
  -26.7116  -32.5518   23.1169 H   0  0  0  0  0  0
  -25.0052  -33.9800   25.0483 H   0  0  0  0  0  0
  -22.6959  -31.3118   21.4158 H   0  0  0  0  0  0
  -23.3753  -35.9622   23.3310 H   0  0  0  0  0  0
  -24.3577  -36.8899   22.2051 H   0  0  0  0  0  0
  -23.7216  -37.6507   23.6636 H   0  0  0  0  0  0
  -26.0563  -31.5952   20.5984 H   0  0  0  0  0  0
  -26.8259  -30.8804   21.9839 H   0  0  0  0  0  0
  -28.1057  -29.0842   21.1601 H   0  0  0  0  0  0
  -26.0036  -25.9847   18.9892 H   0  0  0  0  0  0
  -23.9684  -27.3144   19.0241 H   0  0  0  0  0  0
  -23.7213  -30.6079   19.4072 H   0  0  0  0  0  0
  -22.7364  -29.2521   19.8673 H   0  0  0  0  0  0
  -25.1286  -36.1991   25.0839 H   0  0  0  0  0  0
  -20.9978  -28.3214   24.1435 H   0  0  0  0  0  0
  -20.5680  -26.2267   23.3614 H   0  0  0  0  0  0
  -21.6633  -26.7444   22.1207 H   0  0  0  0  0  0
  -19.6898  -25.6310   21.1232 H   0  0  0  0  0  0
  -19.6676  -27.3222   20.6764 H   0  0  0  0  0  0
  -17.4203  -26.6696   21.4020 H   0  0  0  0  0  0
  -18.0301  -26.0078   22.9029 H   0  0  0  0  0  0
  -19.7928  -30.7264   24.2291 H   0  0  0  0  0  0
  -17.5013  -31.6270   24.5172 H   0  0  0  0  0  0
  -15.5353  -30.3008   23.7637 H   0  0  0  0  0  0
  -15.8667  -28.0833   22.7065 H   0  0  0  0  0  0
  -24.5903  -30.7054   25.7802 H   0  0  0  0  0  0
  -24.8870  -32.2886   26.4863 H   0  0  0  0  0  0
  -25.8045  -30.8943   27.0248 H   0  0  0  0  0  0
  -26.2823  -29.6836   24.1114 H   0  0  0  0  0  0
  -27.4023  -29.7256   25.4551 H   0  0  0  0  0  0
  -27.8677  -30.4381   23.9267 H   0  0  0  0  0  0
  -27.2685  -33.3630   26.2058 H   0  0  0  0  0  0
  -28.3857  -32.6837   25.0312 H   0  0  0  0  0  0
  -28.0693  -31.8429   26.5413 H   0  0  0  0  0  0
  -28.2615  -38.0097   24.7527 H   0  0  0  0  0  0
  -28.1071  -36.2633   24.6289 H   0  0  0  0  0  0
  -27.2306  -37.1448   25.8877 H   0  0  0  0  0  0
  -20.9318  -29.8768   21.6954 H   0  0  0  0  0  0
  -26.0187  -38.2879   24.1420 H   0  0  0  0  0  0
  -32.5307  -19.3499   21.2723 H   0  0  0  0  0  0
  -32.3457  -16.9244   20.9493 H   0  0  0  0  0  0
  -28.2790  -19.6041   21.9667 H   0  0  0  0  0  0
  -29.9913  -23.8844   18.6496 H   0  0  0  0  0  0
  -31.2118  -24.7941   19.5581 H   0  0  0  0  0  0
  -28.1616  -22.5696   20.7472 H   0  0  0  0  0  0
  -28.7262  -23.0838   22.3348 H   0  0  0  0  0  0
  -29.8684  -24.9569   21.4915 H   0  0  0  0  0  0
  -31.6209  -21.3128   22.3263 H   0  0  0  0  0  0
  -30.0195  -21.2916   22.9672 H   0  0  0  0  0  0
  -27.3423  -25.0259   20.8897 H   0  0  0  0  0  0
  -27.8502  -24.8306   19.2254 H   0  0  0  0  0  0
  -29.0681  -15.1358   21.5017 H   0  0  0  0  0  0
  1 25  1  0  0  0
  1 30  2  0  0  0
  1 84  1  0  0  0
  2  3  1  0  0  0
  2 25  1  0  0  0
  2 87  1  0  0  0
  2 88  1  0  0  0
  3  4  1  0  0  0
  3 89  1  0  0  0
  3 90  1  0  0  0
  4  5  1  0  0  0
  4 91  1  0  0  0
  4 92  1  0  0  0
  5  6  1  0  0  0
  5 26  1  0  0  0
  5 93  1  0  0  0
  6 25  1  0  0  0
  6 94  1  0  0  0
  6 95  1  0  0  0
  7  8  2  0  0  0
  7 26  1  0  0  0
  7 29  1  0  0  0
  8  9  1  0  0  0
  8 22  1  0  0  0
  9 10  1  0  0  0
  9 27  2  0  0  0
 10 11  2  0  0  0
 10 15  1  0  0  0
 11 12  1  0  0  0
 11 96  1  0  0  0
 12 13  2  0  0  0
 12 97  1  0  0  0
 13 14  1  0  0  0
 13 31  1  0  0  0
 14 15  2  0  0  0
 14 98  1  0  0  0
 15 99  1  0  0  0
 16 17  2  0  0  0
 16 21  1  0  0  0
 16 31  1  0  0  0
 17 18  1  0  0  0
 17100  1  0  0  0
 18 19  2  0  0  0
 18101  1  0  0  0
 19 20  1  0  0  0
 19 24  1  0  0  0
 20 21  2  0  0  0
 20102  1  0  0  0
 21 23  1  0  0  0
 22 28  1  0  0  0
 22 32  2  0  0  0
 26 27  1  0  0  0
 28103  1  0  0  0
 28104  1  0  0  0
 29105  1  0  0  0
 29106  1  0  0  0
 33 34  1  0  0  0
 33 66  1  0  0  0
 33 70  2  0  0  0
 34 36  1  0  0  0
 34 59  1  0  0  0
 34107  1  0  0  0
 35 44  2  0  0  0
 35 45  1  0  0  0
 35 68  1  0  0  0
 36 56  1  0  0  0
 36108  1  0  0  0
 37 39  1  0  0  0
 37 47  1  0  0  0
 37 66  1  0  0  0
 37109  1  0  0  0
 38 43  2  0  0  0
 38 46  1  0  0  0
 38 47  1  0  0  0
 39 64  1  0  0  0
 39 67  2  0  0  0
 40 52  1  0  0  0
 40 53  2  0  0  0
 40 58  1  0  0  0
 41110  1  0  0  0
 41111  1  0  0  0
 41112  1  0  0  0
 41 48  1  0  0  0
 42 43  1  0  0  0
 42 66  1  0  0  0
 42113  1  0  0  0
 42114  1  0  0  0
 43 44  1  0  0  0
 44115  1  0  0  0
 45 46  2  0  0  0
 45116  1  0  0  0
 46117  1  0  0  0
 47118  1  0  0  0
 47119  1  0  0  0
 48 56  1  0  0  0
 48 65  1  0  0  0
 48120  1  0  0  0
 49 50  1  0  0  0
 49 53  1  0  0  0
 49 64  1  0  0  0
 49121  1  0  0  0
 50 51  1  0  0  0
 50122  1  0  0  0
 50123  1  0  0  0
 51 52  1  0  0  0
 51124  1  0  0  0
 51125  1  0  0  0
 52126  1  0  0  0
 52127  1  0  0  0
 53 54  1  0  0  0
 54 55  2  0  0  0
 54128  1  0  0  0
 55 57  1  0  0  0
 55129  1  0  0  0
 56 69  2  0  0  0
 57 58  2  0  0  0
 57130  1  0  0  0
 58131  1  0  0  0
 59 60  1  0  0  0
 59 61  1  0  0  0
 59 62  1  0  0  0
 60132  1  0  0  0
 60133  1  0  0  0
 60134  1  0  0  0
 61135  1  0  0  0
 61136  1  0  0  0
 61137  1  0  0  0
 62138  1  0  0  0
 62139  1  0  0  0
 62140  1  0  0  0
 63 65  1  0  0  0
 63141  1  0  0  0
 63142  1  0  0  0
 63143  1  0  0  0
 64144  1  0  0  0
 65145  1  0  0  0
 68 82  1  0  0  0
 71 72  2  0  0  0
 71 74  1  0  0  0
 71146  1  0  0  0
 72 75  1  0  0  0
 72147  1  0  0  0
 73 74  2  0  0  0
 73 76  1  0  0  0
 73148  1  0  0  0
 74 81  1  0  0  0
 75 76  2  0  0  0
 75 84  1  0  0  0
 76 86  1  0  0  0
 77 78  1  0  0  0
 77 83  1  0  0  0
 77 85  2  0  0  0
 78 80  1  0  0  0
 78149  1  0  0  0
 78150  1  0  0  0
 79 80  1  0  0  0
 79 83  1  0  0  0
 79151  1  0  0  0
 79152  1  0  0  0
 80 82  1  0  0  0
 80153  1  0  0  0
 81 83  1  0  0  0
 81154  1  0  0  0
 81155  1  0  0  0
 82156  1  0  0  0
 82157  1  0  0  0
 84158  1  0  0  0
M  ISO  4   1 100  68 101  82 101  84 100
M  END
> <chiral flag>
0

> <version>
0

> <s_m_source_file>
/data/baiqing/PycharmProjects/Reinvent-master-3.2/result/LINK_invent/BTK/process_docking_weight1_custom_product_contain_oxygen_bond_distance_aromatic_linkinvent_7_9_3/rearranged_h_0096.sdf

> <i_m_source_file_index>
51

> <r_mmod_Potential_Energy-OPLS-2005>
-66.9039611816406

> <r_mmod_Stretch_Energy-OPLS-2005>
39.0188331604004

> <r_mmod_Bend_Energy-OPLS-2005>
130.641326904297

> <r_mmod_Torsional_Energy-OPLS-2005>
249.033981323242

> <r_mmod_Improper_Torsional_Energy-OPLS-2005>
4.85392141342163

> <r_mmod_Van_der_Waal_Energy-OPLS-2005>
151.066375732422

> <r_mmod_Electrostatic_Energy-OPLS-2005>
-432.322967529297

> <r_mmod_Solvation_Energy-OPLS-2005>
-223.278701782227

> <b_mmod_Minimization_Converged-OPLS-2005>
0

> <r_mmod_RMS_Derivative-OPLS-2005>
1.38410842418671

$$$$
51
                    3D
 Structure written by MMmdl.
161170  0  0  1  0            999 V2000
  -30.6197  -14.6236   20.4947 C   0  0  0  0  0  0
  -30.4375  -12.3783   19.4467 C   0  0  0  0  0  0
  -29.5067  -12.5018   18.2191 C   0  0  0  0  0  0
  -28.0282  -12.3451   18.6293 C   0  0  0  0  0  0
  -27.6538  -13.2111   19.8615 C   0  0  2  0  0  0
  -28.6981  -13.0538   20.9904 C   0  0  0  0  0  0
  -25.2550  -13.8125   20.5607 C   0  0  0  0  0  0
  -24.1826  -13.0418   20.9182 C   0  0  0  0  0  0
  -24.6392  -11.6890   20.8746 C   0  0  0  0  0  0
  -23.9057  -10.4286   21.0406 C   0  0  0  0  0  0
  -24.3615   -9.4204   21.9182 C   0  0  0  0  0  0
  -23.6293   -8.2236   22.0748 C   0  0  0  0  0  0
  -22.4277   -8.0273   21.3535 C   0  0  0  0  0  0
  -21.9911   -9.0242   20.4635 C   0  0  0  0  0  0
  -22.7234  -10.2124   20.3047 C   0  0  0  0  0  0
  -21.6852   -6.0734   22.5280 C   0  0  0  0  0  0
  -21.4006   -6.5638   23.8210 C   0  0  0  0  0  0
  -21.3660   -5.6791   24.9172 C   0  0  0  0  0  0
  -21.6044   -4.3054   24.7224 C   0  0  0  0  0  0
  -21.8820   -3.8144   23.4345 C   0  0  0  0  0  0
  -21.9195   -4.6962   22.3403 C   0  0  0  0  0  0
  -22.7851  -13.5225   21.1854 C   0  0  0  0  0  0
  -22.1664   -4.2150   21.0979 F   0  0  0  0  0  0
  -21.5639   -3.4536   25.7734 F   0  0  0  0  0  0
  -30.0159  -13.3958   20.4290 N   0  0  0  0  0  0
  -26.2989  -12.9312   20.3291 N   0  0  0  0  0  0
  -25.9320  -11.6480   20.5760 N   0  0  0  0  0  0
  -22.0499  -12.8212   22.0408 N   0  0  0  0  0  0
  -25.4213  -15.1817   20.3859 N   0  0  0  0  0  0
  -31.7823  -14.7880   20.1118 O   0  0  0  0  0  0
  -21.6641   -6.8871   21.4236 O   0  0  0  0  0  0
  -22.3548  -14.5544   20.6724 O   0  0  0  0  0  0
  -24.6257  -31.8617   23.2044 C   0  0  0  0  0  0
  -25.9110  -32.4795   23.8365 C   0  0  1  0  0  0
  -27.2223  -27.3303   20.1038 C   0  0  0  0  0  0
  -25.5936  -33.8591   24.2297 N   0  0  0  0  0  0
  -23.4183  -30.4896   21.5453 C   0  0  2  0  0  0
  -24.8629  -28.9466   20.1113 C   0  0  0  0  0  0
  -22.7458  -29.4667   22.4914 C   0  0  0  0  0  0
  -18.0285  -28.1410   22.8490 C   0  0  0  0  0  0
  -24.1488  -36.7280   23.2636 C   0  0  0  0  0  0
  -25.9594  -30.7966   21.3724 C   0  0  0  0  0  0
  -26.0333  -29.4256   20.7123 C   0  0  0  0  0  0
  -27.2176  -28.6299   20.6979 C   0  0  0  0  0  0
  -26.0229  -26.9024   19.4869 C   0  0  0  0  0  0
  -24.8582  -27.6888   19.4924 C   0  0  0  0  0  0
  -23.6323  -29.8267   20.1601 C   0  0  0  0  0  0
  -25.4112  -36.3089   24.0340 C   0  0  1  0  0  0
  -20.5885  -28.3721   23.1266 C   0  0  2  0  0  0
  -20.6784  -26.9448   22.5391 C   0  0  0  0  0  0
  -19.5762  -26.6405   21.5199 C   0  0  0  0  0  0
  -18.1938  -26.7960   22.1614 C   0  0  0  0  0  0
  -19.1540  -28.8874   23.2890 C   0  0  0  0  0  0
  -18.9468  -30.1469   23.8921 C   0  0  0  0  0  0
  -17.6478  -30.6619   24.0569 C   0  0  0  0  0  0
  -25.9051  -34.9463   23.5114 C   0  0  0  0  0  0
  -16.5364  -29.9125   23.6338 C   0  0  0  0  0  0
  -16.7272  -28.6535   23.0364 C   0  0  0  0  0  0
  -26.4490  -31.6598   25.0728 C   0  0  0  0  0  0
  -25.3717  -31.3741   26.1449 C   0  0  0  0  0  0
  -27.0316  -30.3022   24.6171 C   0  0  0  0  0  0
  -27.6070  -32.4303   25.7490 C   0  0  0  0  0  0
  -27.5590  -37.1786   24.8464 C   0  0  0  0  0  0
  -21.4171  -29.3082   22.3652 N   0  0  0  0  0  0
  -26.4284  -37.3791   23.9435 N   0  0  0  0  0  0
  -24.6867  -31.0651   22.0982 N   0  0  0  0  0  0
  -23.4184  -28.8191   23.2982 O   0  0  0  0  0  0
  -28.3438  -26.4864   20.1384 O   0  0  0  0  0  0
  -26.5603  -34.8932   22.4673 O   0  0  0  0  0  0
  -23.5426  -32.1392   23.7393 O   0  0  0  0  0  0
  -30.9965  -19.2381   20.0801 C   0  0  0  0  0  0
  -30.9609  -17.8146   20.1366 C   0  0  0  0  0  0
  -28.8583  -19.3569   21.1674 C   0  0  0  0  0  0
  -28.8195  -17.9308   21.2427 C   0  0  0  0  0  0
  -29.9639  -20.0556   20.6241 C   0  0  0  0  0  0
  -29.8827  -17.1154   20.7407 C   0  0  0  0  0  0
  -31.1493  -22.0022   21.4626 C   0  0  0  0  0  0
  -31.3361  -23.5126   21.6768 C   0  0  0  0  0  0
  -30.0473  -24.3367   21.6061 C   0  0  0  0  0  0
  -28.9955  -22.4633   20.3056 C   0  0  0  0  0  0
  -29.3158  -24.0293   20.3069 C   0  0  1  0  0  0
  -27.5992  -17.3195   21.9139 C   0  0  0  0  0  0
  -28.1048  -25.0271   20.0767 C   0  0  0  0  0  0
  -30.0965  -21.5195   20.7378 N   0  0  0  0  0  0
  -29.7981  -15.6580   20.8535 N   0  0  0  0  0  0
  -32.0139  -21.2738   21.9647 O   0  0  0  0  0  0
  -31.4796  -12.5011   19.1461 H   0  0  0  0  0  0
  -30.3684  -11.3799   19.8820 H   0  0  0  0  0  0
  -29.7668  -11.7496   17.4735 H   0  0  0  0  0  0
  -29.6531  -13.4708   17.7388 H   0  0  0  0  0  0
  -27.8589  -11.2914   18.8533 H   0  0  0  0  0  0
  -27.3751  -12.5825   17.7888 H   0  0  0  0  0  0
  -27.6742  -14.2479   19.5266 H   0  0  0  0  0  0
  -28.7047  -12.0296   21.3658 H   0  0  0  0  0  0
  -28.4442  -13.6786   21.8479 H   0  0  0  0  0  0
  -25.2759   -9.5689   22.4759 H   0  0  0  0  0  0
  -24.0008   -7.4629   22.7464 H   0  0  0  0  0  0
  -21.0848   -8.8750   19.8933 H   0  0  0  0  0  0
  -22.3690  -10.9663   19.6157 H   0  0  0  0  0  0
  -21.1985   -7.6147   23.9715 H   0  0  0  0  0  0
  -21.1484   -6.0519   25.9077 H   0  0  0  0  0  0
  -22.0600   -2.7607   23.2837 H   0  0  0  0  0  0
  -22.4120  -11.9860   22.4768 H   0  0  0  0  0  0
  -21.1117  -13.1234   22.2630 H   0  0  0  0  0  0
  -24.6367  -15.8208   20.4516 H   0  0  0  0  0  0
  -26.2410  -15.6029   19.9694 H   0  0  0  0  0  0
  -26.7179  -32.5463   23.1115 H   0  0  0  0  0  0
  -25.0117  -33.9739   25.0464 H   0  0  0  0  0  0
  -22.7135  -31.3117   21.4027 H   0  0  0  0  0  0
  -23.3778  -35.9582   23.3263 H   0  0  0  0  0  0
  -24.3590  -36.8919   22.2056 H   0  0  0  0  0  0
  -23.7198  -37.6461   23.6657 H   0  0  0  0  0  0
  -26.0885  -31.5627   20.6064 H   0  0  0  0  0  0
  -26.8407  -30.8434   22.0004 H   0  0  0  0  0  0
  -28.1163  -28.9953   21.1739 H   0  0  0  0  0  0
  -25.9500  -25.9461   18.9931 H   0  0  0  0  0  0
  -23.9591  -27.3153   19.0204 H   0  0  0  0  0  0
  -23.7544  -30.6040   19.4053 H   0  0  0  0  0  0
  -22.7521  -29.2585   19.8550 H   0  0  0  0  0  0
  -25.1288  -36.1936   25.0830 H   0  0  0  0  0  0
  -20.9987  -28.3303   24.1382 H   0  0  0  0  0  0
  -20.5682  -26.2340   23.3593 H   0  0  0  0  0  0
  -21.6654  -26.7487   22.1177 H   0  0  0  0  0  0
  -19.6931  -25.6309   21.1240 H   0  0  0  0  0  0
  -19.6710  -27.3198   20.6717 H   0  0  0  0  0  0
  -17.4206  -26.6701   21.4021 H   0  0  0  0  0  0
  -18.0354  -26.0105   22.9015 H   0  0  0  0  0  0
  -19.7951  -30.7262   24.2313 H   0  0  0  0  0  0
  -17.5048  -31.6309   24.5160 H   0  0  0  0  0  0
  -15.5370  -30.3048   23.7667 H   0  0  0  0  0  0
  -15.8664  -28.0860   22.7096 H   0  0  0  0  0  0
  -24.5942  -30.7033   25.7782 H   0  0  0  0  0  0
  -24.8850  -32.2903   26.4805 H   0  0  0  0  0  0
  -25.8039  -30.8987   27.0263 H   0  0  0  0  0  0
  -26.2887  -29.6783   24.1190 H   0  0  0  0  0  0
  -27.4013  -29.7275   25.4671 H   0  0  0  0  0  0
  -27.8755  -30.4315   23.9389 H   0  0  0  0  0  0
  -27.2734  -33.3643   26.2020 H   0  0  0  0  0  0
  -28.3909  -32.6774   25.0320 H   0  0  0  0  0  0
  -28.0687  -31.8432   26.5439 H   0  0  0  0  0  0
  -28.2561  -38.0130   24.7576 H   0  0  0  0  0  0
  -28.1126  -36.2663   24.6188 H   0  0  0  0  0  0
  -27.2319  -37.1300   25.8865 H   0  0  0  0  0  0
  -20.9335  -29.8822   21.6881 H   0  0  0  0  0  0
  -26.0163  -38.2852   24.1488 H   0  0  0  0  0  0
  -31.8675  -19.7091   19.6447 H   0  0  0  0  0  0
  -31.7972  -17.2705   19.7219 H   0  0  0  0  0  0
  -28.0453  -19.9254   21.5972 H   0  0  0  0  0  0
  -32.0405  -23.8666   20.9239 H   0  0  0  0  0  0
  -31.8148  -23.6738   22.6427 H   0  0  0  0  0  0
  -30.2932  -25.3975   21.6596 H   0  0  0  0  0  0
  -29.4057  -24.1184   22.4617 H   0  0  0  0  0  0
  -28.6661  -22.1687   19.3088 H   0  0  0  0  0  0
  -28.1431  -22.2834   20.9614 H   0  0  0  0  0  0
  -30.0133  -24.2175   19.4886 H   0  0  0  0  0  0
  -27.4172  -17.8077   22.8716 H   0  0  0  0  0  0
  -27.6870  -16.2519   22.1100 H   0  0  0  0  0  0
  -26.7193  -17.4786   21.2914 H   0  0  0  0  0  0
  -27.3231  -24.7835   20.7987 H   0  0  0  0  0  0
  -27.7065  -24.7820   19.0921 H   0  0  0  0  0  0
  -28.9051  -15.3258   21.1823 H   0  0  0  0  0  0
  1 25  1  0  0  0
  1 30  2  0  0  0
  1 85  1  0  0  0
  2  3  1  0  0  0
  2 25  1  0  0  0
  2 87  1  0  0  0
  2 88  1  0  0  0
  3  4  1  0  0  0
  3 89  1  0  0  0
  3 90  1  0  0  0
  4  5  1  0  0  0
  4 91  1  0  0  0
  4 92  1  0  0  0
  5  6  1  0  0  0
  5 26  1  0  0  0
  5 93  1  0  0  0
  6 25  1  0  0  0
  6 94  1  0  0  0
  6 95  1  0  0  0
  7  8  2  0  0  0
  7 26  1  0  0  0
  7 29  1  0  0  0
  8  9  1  0  0  0
  8 22  1  0  0  0
  9 10  1  0  0  0
  9 27  2  0  0  0
 10 11  2  0  0  0
 10 15  1  0  0  0
 11 12  1  0  0  0
 11 96  1  0  0  0
 12 13  2  0  0  0
 12 97  1  0  0  0
 13 14  1  0  0  0
 13 31  1  0  0  0
 14 15  2  0  0  0
 14 98  1  0  0  0
 15 99  1  0  0  0
 16 17  2  0  0  0
 16 21  1  0  0  0
 16 31  1  0  0  0
 17 18  1  0  0  0
 17100  1  0  0  0
 18 19  2  0  0  0
 18101  1  0  0  0
 19 20  1  0  0  0
 19 24  1  0  0  0
 20 21  2  0  0  0
 20102  1  0  0  0
 21 23  1  0  0  0
 22 28  1  0  0  0
 22 32  2  0  0  0
 26 27  1  0  0  0
 28103  1  0  0  0
 28104  1  0  0  0
 29105  1  0  0  0
 29106  1  0  0  0
 33 34  1  0  0  0
 33 66  1  0  0  0
 33 70  2  0  0  0
 34 36  1  0  0  0
 34 59  1  0  0  0
 34107  1  0  0  0
 35 44  2  0  0  0
 35 45  1  0  0  0
 35 68  1  0  0  0
 36 56  1  0  0  0
 36108  1  0  0  0
 37 39  1  0  0  0
 37 47  1  0  0  0
 37 66  1  0  0  0
 37109  1  0  0  0
 38 43  2  0  0  0
 38 46  1  0  0  0
 38 47  1  0  0  0
 39 64  1  0  0  0
 39 67  2  0  0  0
 40 52  1  0  0  0
 40 53  2  0  0  0
 40 58  1  0  0  0
 41110  1  0  0  0
 41111  1  0  0  0
 41112  1  0  0  0
 41 48  1  0  0  0
 42 43  1  0  0  0
 42 66  1  0  0  0
 42113  1  0  0  0
 42114  1  0  0  0
 43 44  1  0  0  0
 44115  1  0  0  0
 45 46  2  0  0  0
 45116  1  0  0  0
 46117  1  0  0  0
 47118  1  0  0  0
 47119  1  0  0  0
 48 56  1  0  0  0
 48 65  1  0  0  0
 48120  1  0  0  0
 49 50  1  0  0  0
 49 53  1  0  0  0
 49 64  1  0  0  0
 49121  1  0  0  0
 50 51  1  0  0  0
 50122  1  0  0  0
 50123  1  0  0  0
 51 52  1  0  0  0
 51124  1  0  0  0
 51125  1  0  0  0
 52126  1  0  0  0
 52127  1  0  0  0
 53 54  1  0  0  0
 54 55  2  0  0  0
 54128  1  0  0  0
 55 57  1  0  0  0
 55129  1  0  0  0
 56 69  2  0  0  0
 57 58  2  0  0  0
 57130  1  0  0  0
 58131  1  0  0  0
 59 60  1  0  0  0
 59 61  1  0  0  0
 59 62  1  0  0  0
 60132  1  0  0  0
 60133  1  0  0  0
 60134  1  0  0  0
 61135  1  0  0  0
 61136  1  0  0  0
 61137  1  0  0  0
 62138  1  0  0  0
 62139  1  0  0  0
 62140  1  0  0  0
 63 65  1  0  0  0
 63141  1  0  0  0
 63142  1  0  0  0
 63143  1  0  0  0
 64144  1  0  0  0
 65145  1  0  0  0
 68 83  1  0  0  0
 71 72  2  0  0  0
 71 75  1  0  0  0
 71146  1  0  0  0
 72 76  1  0  0  0
 72147  1  0  0  0
 73 74  1  0  0  0
 73 75  2  0  0  0
 73148  1  0  0  0
 74 76  2  0  0  0
 74 82  1  0  0  0
 75 84  1  0  0  0
 76 85  1  0  0  0
 77 78  1  0  0  0
 77 84  1  0  0  0
 77 86  2  0  0  0
 78 79  1  0  0  0
 78149  1  0  0  0
 78150  1  0  0  0
 79 81  1  0  0  0
 79151  1  0  0  0
 79152  1  0  0  0
 80 81  1  0  0  0
 80 84  1  0  0  0
 80153  1  0  0  0
 80154  1  0  0  0
 81 83  1  0  0  0
 81155  1  0  0  0
 82156  1  0  0  0
 82157  1  0  0  0
 82158  1  0  0  0
 83159  1  0  0  0
 83160  1  0  0  0
 85161  1  0  0  0
M  ISO  4   1 100  68 101  83 101  85 100
M  END
> <chiral flag>
0

> <version>
0

> <s_m_source_file>
/data/baiqing/PycharmProjects/Reinvent-master-3.2/result/LINK_invent/BTK/process_docking_weight1_custom_product_contain_oxygen_bond_distance_aromatic_linkinvent_7_9_3/rearranged_h_0096.sdf

> <i_m_source_file_index>
52

> <r_mmod_Potential_Energy-OPLS-2005>
123.582786560059

> <r_mmod_Stretch_Energy-OPLS-2005>
83.5371475219727

> <r_mmod_Bend_Energy-OPLS-2005>
138.859878540039

> <r_mmod_Torsional_Energy-OPLS-2005>
277.006896972656

> <r_mmod_Improper_Torsional_Energy-OPLS-2005>
5.17362785339355

> <r_mmod_Van_der_Waal_Energy-OPLS-2005>
159.386077880859

> <r_mmod_Electrostatic_Energy-OPLS-2005>
-362.608856201172

> <r_mmod_Solvation_Energy-OPLS-2005>
-221.342834472656

> <b_mmod_Minimization_Converged-OPLS-2005>
0

> <r_mmod_RMS_Derivative-OPLS-2005>
1.37666189670563

$$$$
52
                    3D
 Structure written by MMmdl.
150158  0  0  1  0            999 V2000
  -29.9068  -16.6637   20.2398 C   0  0  0  0  0  0
  -30.3133  -13.8612   19.5348 C   0  0  0  0  0  0
  -29.5823  -12.9850   18.4287 C   0  0  0  0  0  0
  -28.2539  -12.4006   18.9136 C   0  0  0  0  0  0
  -27.5707  -13.4448   19.8052 C   0  0  2  0  0  0
  -28.4930  -14.1926   20.8389 C   0  0  0  0  0  0
  -25.2154  -13.8522   20.5916 C   0  0  0  0  0  0
  -24.1671  -13.0490   20.9320 C   0  0  0  0  0  0
  -24.6558  -11.7058   20.8721 C   0  0  0  0  0  0
  -23.9267  -10.4339   21.0325 C   0  0  0  0  0  0
  -24.3746   -9.4246   21.9140 C   0  0  0  0  0  0
  -23.6371   -8.2301   22.0745 C   0  0  0  0  0  0
  -22.4353   -8.0332   21.3542 C   0  0  0  0  0  0
  -22.0023   -9.0312   20.4634 C   0  0  0  0  0  0
  -22.7397  -10.2168   20.3012 C   0  0  0  0  0  0
  -21.6882   -6.0767   22.5276 C   0  0  0  0  0  0
  -21.4031   -6.5655   23.8215 C   0  0  0  0  0  0
  -21.3673   -5.6801   24.9175 C   0  0  0  0  0  0
  -21.6047   -4.3063   24.7214 C   0  0  0  0  0  0
  -21.8817   -3.8159   23.4333 C   0  0  0  0  0  0
  -21.9200   -4.6986   22.3393 C   0  0  0  0  0  0
  -22.7643  -13.5110   21.1922 C   0  0  0  0  0  0
  -22.1662   -4.2174   21.0971 F   0  0  0  0  0  0
  -21.5630   -3.4539   25.7721 F   0  0  0  0  0  0
  -29.5082  -15.1151   20.1461 N   0  0  0  0  0  0
  -26.2802  -13.0137   20.3406 N   0  0  0  0  0  0
  -25.9571  -11.7045   20.5620 N   0  0  0  0  0  0
  -22.0341  -12.8067   22.0477 N   0  0  0  0  0  0
  -25.3535  -15.2282   20.4346 N   0  0  0  0  0  0
  -31.1493  -16.4111   20.2869 O   0  0  0  0  0  0
  -21.6691   -6.8934   21.4252 O   0  0  0  0  0  0
  -22.3279  -14.5398   20.6765 O   0  0  0  0  0  0
  -24.7520  -31.7122   23.0920 C   0  0  0  0  0  0
  -25.9744  -32.4050   23.7735 C   0  0  1  0  0  0
  -27.2658  -25.9820   20.2857 C   0  0  0  0  0  0
  -25.6027  -33.7918   24.1544 N   0  0  0  0  0  0
  -23.6111  -30.2792   21.4651 C   0  0  2  0  0  0
  -25.0732  -28.4614   20.1536 C   0  0  0  0  0  0
  -22.8063  -29.3845   22.4536 C   0  0  0  0  0  0
  -18.0381  -28.1465   22.8409 C   0  0  0  0  0  0
  -24.1485  -36.6978   23.2659 C   0  0  0  0  0  0
  -26.2132  -30.2066   21.4643 C   0  0  0  0  0  0
  -26.2732  -28.6868   20.8368 C   0  0  0  0  0  0
  -27.3198  -27.5062   20.8435 C   0  0  0  0  0  0
  -26.0284  -26.1528   19.5382 C   0  0  0  0  0  0
  -25.0318  -27.2220   19.4773 C   0  0  0  0  0  0
  -23.9043  -29.5035   20.1360 C   0  0  0  0  0  0
  -25.4148  -36.2647   24.0239 C   0  0  1  0  0  0
  -20.6045  -28.3848   23.1016 C   0  0  2  0  0  0
  -20.6806  -26.9442   22.5414 C   0  0  0  0  0  0
  -19.5798  -26.6346   21.5219 C   0  0  0  0  0  0
  -18.1979  -26.7978   22.1597 C   0  0  0  0  0  0
  -19.1665  -28.8994   23.2676 C   0  0  0  0  0  0
  -18.9564  -30.1557   23.8753 C   0  0  0  0  0  0
  -17.6551  -30.6627   24.0528 C   0  0  0  0  0  0
  -25.9185  -34.9063   23.4782 C   0  0  0  0  0  0
  -16.5431  -29.9099   23.6367 C   0  0  0  0  0  0
  -16.7357  -28.6527   23.0371 C   0  0  0  0  0  0
  -26.4707  -31.6392   25.0641 C   0  0  0  0  0  0
  -25.3580  -31.3915   26.1117 C   0  0  0  0  0  0
  -27.0737  -30.2662   24.7023 C   0  0  0  0  0  0
  -27.6034  -32.4420   25.7475 C   0  0  0  0  0  0
  -27.5560  -37.1588   24.8431 C   0  0  0  0  0  0
  -21.4650  -29.2960   22.3267 N   0  0  0  0  0  0
  -26.4189  -37.3515   23.9476 N   0  0  0  0  0  0
  -24.8927  -30.7830   22.0599 N   0  0  0  0  0  0
  -23.4159  -28.7558   23.3203 O   0  0  0  0  0  0
  -28.1780  -24.4689   20.1868 O   0  0  0  0  0  0
  -26.5927  -34.8793   22.4471 O   0  0  0  0  0  0
  -23.6391  -32.0537   23.5401 O   0  0  0  0  0  0
  -25.5353  -19.5367   18.0023 C   0  0  0  0  0  0
  -26.4876  -19.4209   19.0334 C   0  0  0  0  0  0
  -25.7567  -20.4216   16.9291 C   0  0  0  0  0  0
  -27.8948  -21.0565   17.9050 C   0  0  0  0  0  0
  -27.6746  -20.1847   18.9948 C   0  0  0  0  0  0
  -26.9412  -21.1906   16.8757 C   0  0  0  0  0  0
  -28.6849  -20.0891   20.0702 C   0  0  0  0  0  0
  -26.0867  -22.7245   15.1516 C   0  0  0  0  0  0
  -28.4988  -22.3883   20.5932 C   0  0  0  0  0  0
  -29.0983  -18.3971   20.0310 N   0  0  0  0  0  0
  -27.2083  -22.0842   15.8290 N   0  0  0  0  0  0
  -31.2111  -14.2541   19.0557 H   0  0  0  0  0  0
  -30.7081  -13.2212   20.3263 H   0  0  0  0  0  0
  -30.2379  -12.1888   18.0737 H   0  0  0  0  0  0
  -29.3892  -13.6220   17.5649 H   0  0  0  0  0  0
  -28.4540  -11.5000   19.4954 H   0  0  0  0  0  0
  -27.6205  -12.1060   18.0760 H   0  0  0  0  0  0
  -27.3064  -14.2209   19.0846 H   0  0  0  0  0  0
  -28.9485  -13.4997   21.5483 H   0  0  0  0  0  0
  -27.8771  -14.8440   21.4586 H   0  0  0  0  0  0
  -25.2874   -9.5722   22.4749 H   0  0  0  0  0  0
  -24.0050   -7.4715   22.7502 H   0  0  0  0  0  0
  -21.0936   -8.8851   19.8958 H   0  0  0  0  0  0
  -22.3836  -10.9702   19.6131 H   0  0  0  0  0  0
  -21.2026   -7.6163   23.9728 H   0  0  0  0  0  0
  -21.1497   -6.0526   25.9083 H   0  0  0  0  0  0
  -22.0580   -2.7620   23.2825 H   0  0  0  0  0  0
  -22.4000  -11.9756   22.4870 H   0  0  0  0  0  0
  -21.0949  -13.1050   22.2678 H   0  0  0  0  0  0
  -24.5792  -15.8729   20.5449 H   0  0  0  0  0  0
  -26.2106  -15.6775   20.1374 H   0  0  0  0  0  0
  -26.7909  -32.4404   23.0508 H   0  0  0  0  0  0
  -25.0006  -33.8840   24.9590 H   0  0  0  0  0  0
  -22.9795  -31.1332   21.2089 H   0  0  0  0  0  0
  -23.3833  -35.9211   23.3057 H   0  0  0  0  0  0
  -24.3573  -36.8949   22.2134 H   0  0  0  0  0  0
  -23.7130  -37.5998   23.6969 H   0  0  0  0  0  0
  -26.4789  -30.8769   20.6457 H   0  0  0  0  0  0
  -27.0448  -30.3038   22.1479 H   0  0  0  0  0  0
  -28.2252  -27.7326   21.3888 H   0  0  0  0  0  0
  -25.7567  -25.2817   18.9585 H   0  0  0  0  0  0
  -24.1544  -27.0216   18.8783 H   0  0  0  0  0  0
  -24.1412  -30.2291   19.3571 H   0  0  0  0  0  0
  -22.9964  -29.0051   19.7913 H   0  0  0  0  0  0
  -25.1363  -36.1278   25.0715 H   0  0  0  0  0  0
  -21.0104  -28.3526   24.1158 H   0  0  0  0  0  0
  -20.5612  -26.2490   23.3746 H   0  0  0  0  0  0
  -21.6665  -26.7273   22.1274 H   0  0  0  0  0  0
  -19.6952  -25.6220   21.1340 H   0  0  0  0  0  0
  -19.6771  -27.3081   20.6697 H   0  0  0  0  0  0
  -17.4256  -26.6729   21.3992 H   0  0  0  0  0  0
  -18.0329  -26.0154   22.9024 H   0  0  0  0  0  0
  -19.8039  -30.7393   24.2072 H   0  0  0  0  0  0
  -17.5101  -31.6293   24.5166 H   0  0  0  0  0  0
  -15.5428  -30.2959   23.7781 H   0  0  0  0  0  0
  -15.8750  -28.0801   22.7172 H   0  0  0  0  0  0
  -24.5827  -30.7224   25.7368 H   0  0  0  0  0  0
  -24.8716  -32.3198   26.4121 H   0  0  0  0  0  0
  -25.7575  -30.9320   27.0164 H   0  0  0  0  0  0
  -26.3557  -29.6050   24.2165 H   0  0  0  0  0  0
  -27.4038  -29.7411   25.5994 H   0  0  0  0  0  0
  -27.9574  -30.3642   24.0721 H   0  0  0  0  0  0
  -27.2510  -33.3885   26.1588 H   0  0  0  0  0  0
  -28.4052  -32.6717   25.0445 H   0  0  0  0  0  0
  -28.0468  -31.8868   26.5750 H   0  0  0  0  0  0
  -28.2335  -38.0105   24.7712 H   0  0  0  0  0  0
  -28.1282  -36.2643   24.5924 H   0  0  0  0  0  0
  -27.2335  -37.0796   25.8825 H   0  0  0  0  0  0
  -21.0138  -29.8532   21.6145 H   0  0  0  0  0  0
  -25.9933  -38.2481   24.1678 H   0  0  0  0  0  0
  -24.6317  -18.9446   18.0337 H   0  0  0  0  0  0
  -26.3054  -18.7415   19.8557 H   0  0  0  0  0  0
  -25.0110  -20.4881   16.1491 H   0  0  0  0  0  0
  -28.8090  -21.6325   17.8666 H   0  0  0  0  0  0
  -26.4428  -23.5659   14.5552 H   0  0  0  0  0  0
  -25.3602  -23.1124   15.8679 H   0  0  0  0  0  0
  -25.5788  -22.0325   14.4786 H   0  0  0  0  0  0
  -29.4645  -22.5203   21.0799 H   0  0  0  0  0  0
  -27.8079  -22.3182   21.4326 H   0  0  0  0  0  0
  -28.0595  -22.6384   15.9044 H   0  0  0  0  0  0
  1 25  1  0  0  0
  1 30  2  0  0  0
  1 80  1  0  0  0
  2  3  1  0  0  0
  2 25  1  0  0  0
  2 82  1  0  0  0
  2 83  1  0  0  0
  3  4  1  0  0  0
  3 84  1  0  0  0
  3 85  1  0  0  0
  4  5  1  0  0  0
  4 86  1  0  0  0
  4 87  1  0  0  0
  5  6  1  0  0  0
  5 26  1  0  0  0
  5 88  1  0  0  0
  6 25  1  0  0  0
  6 89  1  0  0  0
  6 90  1  0  0  0
  7  8  2  0  0  0
  7 26  1  0  0  0
  7 29  1  0  0  0
  8  9  1  0  0  0
  8 22  1  0  0  0
  9 10  1  0  0  0
  9 27  2  0  0  0
 10 11  2  0  0  0
 10 15  1  0  0  0
 11 12  1  0  0  0
 11 91  1  0  0  0
 12 13  2  0  0  0
 12 92  1  0  0  0
 13 14  1  0  0  0
 13 31  1  0  0  0
 14 15  2  0  0  0
 14 93  1  0  0  0
 15 94  1  0  0  0
 16 17  2  0  0  0
 16 21  1  0  0  0
 16 31  1  0  0  0
 17 18  1  0  0  0
 17 95  1  0  0  0
 18 19  2  0  0  0
 18 96  1  0  0  0
 19 20  1  0  0  0
 19 24  1  0  0  0
 20 21  2  0  0  0
 20 97  1  0  0  0
 21 23  1  0  0  0
 22 28  1  0  0  0
 22 32  2  0  0  0
 26 27  1  0  0  0
 28 98  1  0  0  0
 28 99  1  0  0  0
 29100  1  0  0  0
 29101  1  0  0  0
 33 34  1  0  0  0
 33 66  1  0  0  0
 33 70  2  0  0  0
 34 36  1  0  0  0
 34 59  1  0  0  0
 34102  1  0  0  0
 35 44  2  0  0  0
 35 45  1  0  0  0
 35 68  1  0  0  0
 36 56  1  0  0  0
 36103  1  0  0  0
 37 39  1  0  0  0
 37 47  1  0  0  0
 37 66  1  0  0  0
 37104  1  0  0  0
 38 43  2  0  0  0
 38 46  1  0  0  0
 38 47  1  0  0  0
 39 64  1  0  0  0
 39 67  2  0  0  0
 40 52  1  0  0  0
 40 53  2  0  0  0
 40 58  1  0  0  0
 41105  1  0  0  0
 41106  1  0  0  0
 41107  1  0  0  0
 41 48  1  0  0  0
 42 43  1  0  0  0
 42 66  1  0  0  0
 42108  1  0  0  0
 42109  1  0  0  0
 43 44  1  0  0  0
 44110  1  0  0  0
 45 46  2  0  0  0
 45111  1  0  0  0
 46112  1  0  0  0
 47113  1  0  0  0
 47114  1  0  0  0
 48 56  1  0  0  0
 48 65  1  0  0  0
 48115  1  0  0  0
 49 50  1  0  0  0
 49 53  1  0  0  0
 49 64  1  0  0  0
 49116  1  0  0  0
 50 51  1  0  0  0
 50117  1  0  0  0
 50118  1  0  0  0
 51 52  1  0  0  0
 51119  1  0  0  0
 51120  1  0  0  0
 52121  1  0  0  0
 52122  1  0  0  0
 53 54  1  0  0  0
 54 55  2  0  0  0
 54123  1  0  0  0
 55 57  1  0  0  0
 55124  1  0  0  0
 56 69  2  0  0  0
 57 58  2  0  0  0
 57125  1  0  0  0
 58126  1  0  0  0
 59 60  1  0  0  0
 59 61  1  0  0  0
 59 62  1  0  0  0
 60127  1  0  0  0
 60128  1  0  0  0
 60129  1  0  0  0
 61130  1  0  0  0
 61131  1  0  0  0
 61132  1  0  0  0
 62133  1  0  0  0
 62134  1  0  0  0
 62135  1  0  0  0
 63 65  1  0  0  0
 63136  1  0  0  0
 63137  1  0  0  0
 63138  1  0  0  0
 64139  1  0  0  0
 65140  1  0  0  0
 68 79  1  0  0  0
 71 72  2  0  0  0
 71 73  1  0  0  0
 71141  1  0  0  0
 72 75  1  0  0  0
 72142  1  0  0  0
 73 76  2  0  0  0
 73143  1  0  0  0
 74 75  2  0  0  0
 74 76  1  0  0  0
 74144  1  0  0  0
 75 77  1  0  0  0
 76 81  1  0  0  0
 77 79  1  0  0  0
 77 80  2  0  0  0
 78 81  1  0  0  0
 78145  1  0  0  0
 78146  1  0  0  0
 78147  1  0  0  0
 79148  1  0  0  0
 79149  1  0  0  0
 81150  1  0  0  0
M  ISO  4   1 100  68 101  79 101  80 100
M  END
> <chiral flag>
0

> <version>
0

> <s_m_source_file>
/data/baiqing/PycharmProjects/Reinvent-master-3.2/result/LINK_invent/BTK/process_docking_weight1_custom_product_contain_oxygen_bond_distance_aromatic_linkinvent_7_9_3/rearranged_h_0096.sdf

> <i_m_source_file_index>
53

> <r_mmod_Potential_Energy-OPLS-2005>
7809.3779296875

> <r_mmod_Stretch_Energy-OPLS-2005>
3344.35131835938

> <r_mmod_Bend_Energy-OPLS-2005>
1507.48413085938

> <r_mmod_Torsional_Energy-OPLS-2005>
252.228927612305

> <r_mmod_Improper_Torsional_Energy-OPLS-2005>
11.5924167633057

> <r_mmod_Van_der_Waal_Energy-OPLS-2005>
138.325790405273

> <r_mmod_Electrostatic_Energy-OPLS-2005>
-322.330535888672

> <r_mmod_Solvation_Energy-OPLS-2005>
-215.183944702148

> <b_mmod_Minimization_Converged-OPLS-2005>
0

> <r_mmod_RMS_Derivative-OPLS-2005>
1.55758988857269

$$$$
53
                    3D
 Structure written by MMmdl.
158167  0  0  1  0            999 V2000
  -30.6468  -14.5781   20.5378 C   0  0  0  0  0  0
  -30.4334  -12.3657   19.4263 C   0  0  0  0  0  0
  -29.4985  -12.5182   18.2055 C   0  0  0  0  0  0
  -28.0209  -12.3587   18.6192 C   0  0  0  0  0  0
  -27.6528  -13.2103   19.8653 C   0  0  2  0  0  0
  -28.7028  -13.0265   20.9862 C   0  0  0  0  0  0
  -25.2551  -13.8175   20.5680 C   0  0  0  0  0  0
  -24.1819  -13.0431   20.9226 C   0  0  0  0  0  0
  -24.6370  -11.6899   20.8762 C   0  0  0  0  0  0
  -23.9045  -10.4270   21.0420 C   0  0  0  0  0  0
  -24.3603   -9.4196   21.9196 C   0  0  0  0  0  0
  -23.6278   -8.2247   22.0780 C   0  0  0  0  0  0
  -22.4272   -8.0280   21.3581 C   0  0  0  0  0  0
  -21.9906   -9.0231   20.4674 C   0  0  0  0  0  0
  -22.7229  -10.2112   20.3072 C   0  0  0  0  0  0
  -21.6851   -6.0733   22.5290 C   0  0  0  0  0  0
  -21.3979   -6.5629   23.8220 C   0  0  0  0  0  0
  -21.3670   -5.6776   24.9187 C   0  0  0  0  0  0
  -21.6061   -4.3040   24.7234 C   0  0  0  0  0  0
  -21.8812   -3.8142   23.4341 C   0  0  0  0  0  0
  -21.9176   -4.6963   22.3414 C   0  0  0  0  0  0
  -22.7822  -13.5239   21.1821 C   0  0  0  0  0  0
  -22.1639   -4.2167   21.0991 F   0  0  0  0  0  0
  -21.5673   -3.4518   25.7738 F   0  0  0  0  0  0
  -30.0181  -13.3677   20.4236 N   0  0  0  0  0  0
  -26.2976  -12.9327   20.3339 N   0  0  0  0  0  0
  -25.9299  -11.6488   20.5756 N   0  0  0  0  0  0
  -22.0417  -12.8286   22.0399 N   0  0  0  0  0  0
  -25.4175  -15.1890   20.3982 N   0  0  0  0  0  0
  -31.8126  -14.7494   20.1703 O   0  0  0  0  0  0
  -21.6653   -6.8867   21.4255 O   0  0  0  0  0  0
  -22.3529  -14.5515   20.6602 O   0  0  0  0  0  0
  -24.6197  -31.8628   23.2045 C   0  0  0  0  0  0
  -25.9060  -32.4793   23.8365 C   0  0  1  0  0  0
  -27.2461  -27.3833   20.1210 C   0  0  0  0  0  0
  -25.5916  -33.8592   24.2322 N   0  0  0  0  0  0
  -23.4112  -30.4811   21.5474 C   0  0  2  0  0  0
  -24.8620  -28.9355   20.1171 C   0  0  0  0  0  0
  -22.7446  -29.4623   22.5003 C   0  0  0  0  0  0
  -18.0284  -28.1363   22.8492 C   0  0  0  0  0  0
  -24.1489  -36.7295   23.2630 C   0  0  0  0  0  0
  -25.9423  -30.8148   21.3608 C   0  0  0  0  0  0
  -26.0232  -29.4420   20.7135 C   0  0  0  0  0  0
  -27.2210  -28.6785   20.7019 C   0  0  0  0  0  0
  -26.0630  -26.8988   19.5254 C   0  0  0  0  0  0
  -24.8795  -27.6643   19.5168 C   0  0  0  0  0  0
  -23.6214  -29.8024   20.1660 C   0  0  0  0  0  0
  -25.4096  -36.3088   24.0352 C   0  0  1  0  0  0
  -20.5870  -28.3651   23.1320 C   0  0  2  0  0  0
  -20.6768  -26.9382   22.5414 C   0  0  0  0  0  0
  -19.5738  -26.6363   21.5217 C   0  0  0  0  0  0
  -18.1925  -26.7913   22.1619 C   0  0  0  0  0  0
  -19.1533  -28.8832   23.2901 C   0  0  0  0  0  0
  -18.9449  -30.1447   23.8877 C   0  0  0  0  0  0
  -17.6447  -30.6566   24.0553 C   0  0  0  0  0  0
  -25.9049  -34.9461   23.5132 C   0  0  0  0  0  0
  -16.5336  -29.9049   23.6335 C   0  0  0  0  0  0
  -16.7272  -28.6477   23.0348 C   0  0  0  0  0  0
  -26.4475  -31.6552   25.0689 C   0  0  0  0  0  0
  -25.3759  -31.3643   26.1453 C   0  0  0  0  0  0
  -27.0289  -30.2992   24.6052 C   0  0  0  0  0  0
  -27.6087  -32.4236   25.7439 C   0  0  0  0  0  0
  -27.5621  -37.1748   24.8426 C   0  0  0  0  0  0
  -21.4178  -29.3009   22.3738 N   0  0  0  0  0  0
  -26.4267  -37.3795   23.9471 N   0  0  0  0  0  0
  -24.6765  -31.0683   22.0964 N   0  0  0  0  0  0
  -23.4201  -28.8178   23.3074 O   0  0  0  0  0  0
  -28.4050  -26.6168   20.0983 O   0  0  0  0  0  0
  -26.5605  -34.8920   22.4698 O   0  0  0  0  0  0
  -23.5379  -32.1400   23.7404 O   0  0  0  0  0  0
  -29.6344  -18.0125   20.1197 C   0  0  0  0  0  0
  -30.6209  -19.8281   21.4010 C   0  0  0  0  0  0
  -30.8775  -17.4941   22.1399 C   0  0  0  0  0  0
  -29.8614  -19.4226   20.2763 C   0  0  0  0  0  0
  -30.1485  -17.0314   21.0218 C   0  0  0  0  0  0
  -31.1033  -18.8768   22.3278 C   0  0  0  0  0  0
  -29.4330  -20.3760   19.1523 C   0  0  0  0  0  0
  -28.1218  -23.8308   18.5034 C   0  0  0  0  0  0
  -28.5084  -22.3997   18.0974 C   0  0  0  0  0  0
  -29.0498  -22.6793   20.4030 C   0  0  0  0  0  0
  -28.9213  -24.1133   19.7710 C   0  0  2  0  0  0
  -28.3431  -25.2750   20.6648 C   0  0  0  0  0  0
  -29.0445  -21.6955   19.2858 N   0  0  0  0  0  0
  -29.8379  -15.6237   20.8726 N   0  0  0  0  0  0
  -29.3924  -19.8602   18.0269 O   0  0  0  0  0  0
  -31.8080  -19.2948   23.4078 F   0  0  0  0  0  0
  -31.4762  -12.4820   19.1230 H   0  0  0  0  0  0
  -30.3543  -11.3601   19.8435 H   0  0  0  0  0  0
  -29.7554  -11.7908   17.4338 H   0  0  0  0  0  0
  -29.6451  -13.5013   17.7530 H   0  0  0  0  0  0
  -27.8490  -11.3012   18.8308 H   0  0  0  0  0  0
  -27.3626  -12.6114   17.7865 H   0  0  0  0  0  0
  -27.6739  -14.2534   19.5477 H   0  0  0  0  0  0
  -28.7107  -11.9914   21.3348 H   0  0  0  0  0  0
  -28.4651  -13.6345   21.8619 H   0  0  0  0  0  0
  -25.2743   -9.5693   22.4764 H   0  0  0  0  0  0
  -24.0017   -7.4658   22.7481 H   0  0  0  0  0  0
  -21.0868   -8.8704   19.8966 H   0  0  0  0  0  0
  -22.3682  -10.9638   19.6173 H   0  0  0  0  0  0
  -21.1941   -7.6120   23.9744 H   0  0  0  0  0  0
  -21.1510   -6.0497   25.9101 H   0  0  0  0  0  0
  -22.0586   -2.7613   23.2833 H   0  0  0  0  0  0
  -22.3901  -11.9942   22.4882 H   0  0  0  0  0  0
  -21.1025  -13.1372   22.2504 H   0  0  0  0  0  0
  -24.6302  -15.8223   20.4981 H   0  0  0  0  0  0
  -26.2288  -15.6348   19.9879 H   0  0  0  0  0  0
  -26.7131  -32.5482   23.1132 H   0  0  0  0  0  0
  -25.0093  -33.9732   25.0485 H   0  0  0  0  0  0
  -22.7003  -31.2982   21.4025 H   0  0  0  0  0  0
  -23.3782  -35.9590   23.3198 H   0  0  0  0  0  0
  -24.3633  -36.8999   22.2069 H   0  0  0  0  0  0
  -23.7181  -37.6451   23.6696 H   0  0  0  0  0  0
  -26.0532  -31.5740   20.5843 H   0  0  0  0  0  0
  -26.8318  -30.8775   21.9766 H   0  0  0  0  0  0
  -28.1187  -29.0743   21.1559 H   0  0  0  0  0  0
  -26.0506  -25.9239   19.0617 H   0  0  0  0  0  0
  -23.9896  -27.2639   19.0505 H   0  0  0  0  0  0
  -23.7192  -30.5699   19.3988 H   0  0  0  0  0  0
  -22.7466  -29.2158   19.8806 H   0  0  0  0  0  0
  -25.1249  -36.1946   25.0842 H   0  0  0  0  0  0
  -20.9964  -28.3198   24.1438 H   0  0  0  0  0  0
  -20.5687  -26.2247   23.3601 H   0  0  0  0  0  0
  -21.6641  -26.7425   22.1182 H   0  0  0  0  0  0
  -19.6895  -25.6282   21.1232 H   0  0  0  0  0  0
  -19.6688  -27.3191   20.6770 H   0  0  0  0  0  0
  -17.4213  -26.6709   21.4002 H   0  0  0  0  0  0
  -18.0279  -26.0036   22.8983 H   0  0  0  0  0  0
  -19.7923  -30.7293   24.2212 H   0  0  0  0  0  0
  -17.4980  -31.6251   24.5134 H   0  0  0  0  0  0
  -15.5328  -30.2927   23.7666 H   0  0  0  0  0  0
  -15.8677  -28.0787   22.7036 H   0  0  0  0  0  0
  -24.5875  -30.7073   25.7761 H   0  0  0  0  0  0
  -24.9017  -32.2787   26.5024 H   0  0  0  0  0  0
  -25.8094  -30.8676   27.0142 H   0  0  0  0  0  0
  -26.2795  -29.6731   24.1184 H   0  0  0  0  0  0
  -27.4155  -29.7245   25.4481 H   0  0  0  0  0  0
  -27.8600  -30.4315   23.9123 H   0  0  0  0  0  0
  -27.2766  -33.3545   26.2049 H   0  0  0  0  0  0
  -28.3876  -32.6764   25.0232 H   0  0  0  0  0  0
  -28.0772  -31.8316   26.5313 H   0  0  0  0  0  0
  -28.2468  -38.0211   24.7738 H   0  0  0  0  0  0
  -28.1288  -36.2779   24.5896 H   0  0  0  0  0  0
  -27.2400  -37.0941   25.8820 H   0  0  0  0  0  0
  -20.9357  -29.8723   21.6939 H   0  0  0  0  0  0
  -26.0150  -38.2846   24.1594 H   0  0  0  0  0  0
  -29.0729  -17.6714   19.2606 H   0  0  0  0  0  0
  -30.8847  -20.8600   21.5675 H   0  0  0  0  0  0
  -31.2625  -16.7986   22.8729 H   0  0  0  0  0  0
  -27.0509  -23.8717   18.7115 H   0  0  0  0  0  0
  -28.3232  -24.5546   17.7090 H   0  0  0  0  0  0
  -29.2651  -22.4299   17.3108 H   0  0  0  0  0  0
  -27.6412  -21.8794   17.6778 H   0  0  0  0  0  0
  -28.1997  -22.4680   21.0550 H   0  0  0  0  0  0
  -29.9487  -22.6298   21.0137 H   0  0  0  0  0  0
  -29.9273  -24.4089   19.4633 H   0  0  0  0  0  0
  -28.9440  -25.3158   21.5748 H   0  0  0  0  0  0
  -27.3385  -25.0202   21.0056 H   0  0  0  0  0  0
  -28.8685  -15.3693   20.9842 H   0  0  0  0  0  0
  1 25  1  0  0  0
  1 30  2  0  0  0
  1 84  1  0  0  0
  2  3  1  0  0  0
  2 25  1  0  0  0
  2 87  1  0  0  0
  2 88  1  0  0  0
  3  4  1  0  0  0
  3 89  1  0  0  0
  3 90  1  0  0  0
  4  5  1  0  0  0
  4 91  1  0  0  0
  4 92  1  0  0  0
  5  6  1  0  0  0
  5 26  1  0  0  0
  5 93  1  0  0  0
  6 25  1  0  0  0
  6 94  1  0  0  0
  6 95  1  0  0  0
  7  8  2  0  0  0
  7 26  1  0  0  0
  7 29  1  0  0  0
  8  9  1  0  0  0
  8 22  1  0  0  0
  9 10  1  0  0  0
  9 27  2  0  0  0
 10 11  2  0  0  0
 10 15  1  0  0  0
 11 12  1  0  0  0
 11 96  1  0  0  0
 12 13  2  0  0  0
 12 97  1  0  0  0
 13 14  1  0  0  0
 13 31  1  0  0  0
 14 15  2  0  0  0
 14 98  1  0  0  0
 15 99  1  0  0  0
 16 17  2  0  0  0
 16 21  1  0  0  0
 16 31  1  0  0  0
 17 18  1  0  0  0
 17100  1  0  0  0
 18 19  2  0  0  0
 18101  1  0  0  0
 19 20  1  0  0  0
 19 24  1  0  0  0
 20 21  2  0  0  0
 20102  1  0  0  0
 21 23  1  0  0  0
 22 28  1  0  0  0
 22 32  2  0  0  0
 26 27  1  0  0  0
 28103  1  0  0  0
 28104  1  0  0  0
 29105  1  0  0  0
 29106  1  0  0  0
 33 34  1  0  0  0
 33 66  1  0  0  0
 33 70  2  0  0  0
 34 36  1  0  0  0
 34 59  1  0  0  0
 34107  1  0  0  0
 35 44  2  0  0  0
 35 45  1  0  0  0
 35 68  1  0  0  0
 36 56  1  0  0  0
 36108  1  0  0  0
 37 39  1  0  0  0
 37 47  1  0  0  0
 37 66  1  0  0  0
 37109  1  0  0  0
 38 43  2  0  0  0
 38 46  1  0  0  0
 38 47  1  0  0  0
 39 64  1  0  0  0
 39 67  2  0  0  0
 40 52  1  0  0  0
 40 53  2  0  0  0
 40 58  1  0  0  0
 41110  1  0  0  0
 41111  1  0  0  0
 41112  1  0  0  0
 41 48  1  0  0  0
 42 43  1  0  0  0
 42 66  1  0  0  0
 42113  1  0  0  0
 42114  1  0  0  0
 43 44  1  0  0  0
 44115  1  0  0  0
 45 46  2  0  0  0
 45116  1  0  0  0
 46117  1  0  0  0
 47118  1  0  0  0
 47119  1  0  0  0
 48 56  1  0  0  0
 48 65  1  0  0  0
 48120  1  0  0  0
 49 50  1  0  0  0
 49 53  1  0  0  0
 49 64  1  0  0  0
 49121  1  0  0  0
 50 51  1  0  0  0
 50122  1  0  0  0
 50123  1  0  0  0
 51 52  1  0  0  0
 51124  1  0  0  0
 51125  1  0  0  0
 52126  1  0  0  0
 52127  1  0  0  0
 53 54  1  0  0  0
 54 55  2  0  0  0
 54128  1  0  0  0
 55 57  1  0  0  0
 55129  1  0  0  0
 56 69  2  0  0  0
 57 58  2  0  0  0
 57130  1  0  0  0
 58131  1  0  0  0
 59 60  1  0  0  0
 59 61  1  0  0  0
 59 62  1  0  0  0
 60132  1  0  0  0
 60133  1  0  0  0
 60134  1  0  0  0
 61135  1  0  0  0
 61136  1  0  0  0
 61137  1  0  0  0
 62138  1  0  0  0
 62139  1  0  0  0
 62140  1  0  0  0
 63 65  1  0  0  0
 63141  1  0  0  0
 63142  1  0  0  0
 63143  1  0  0  0
 64144  1  0  0  0
 65145  1  0  0  0
 68 82  1  0  0  0
 71 74  2  0  0  0
 71 75  1  0  0  0
 71146  1  0  0  0
 72 74  1  0  0  0
 72 76  2  0  0  0
 72147  1  0  0  0
 73 75  2  0  0  0
 73 76  1  0  0  0
 73148  1  0  0  0
 74 77  1  0  0  0
 75 84  1  0  0  0
 76 86  1  0  0  0
 77 83  1  0  0  0
 77 85  2  0  0  0
 78 79  1  0  0  0
 78 81  1  0  0  0
 78149  1  0  0  0
 78150  1  0  0  0
 79 83  1  0  0  0
 79151  1  0  0  0
 79152  1  0  0  0
 80 81  1  0  0  0
 80 83  1  0  0  0
 80153  1  0  0  0
 80154  1  0  0  0
 81 82  1  0  0  0
 81155  1  0  0  0
 82156  1  0  0  0
 82157  1  0  0  0
 84158  1  0  0  0
M  ISO  4   1 100  68 101  82 101  84 100
M  END
> <chiral flag>
0

> <version>
0

> <s_m_source_file>
/data/baiqing/PycharmProjects/Reinvent-master-3.2/result/LINK_invent/BTK/process_docking_weight1_custom_product_contain_oxygen_bond_distance_aromatic_linkinvent_7_9_3/rearranged_h_0096.sdf

> <i_m_source_file_index>
54

> <r_mmod_Potential_Energy-OPLS-2005>
144.65022277832

> <r_mmod_Stretch_Energy-OPLS-2005>
63.1615104675293

> <r_mmod_Bend_Energy-OPLS-2005>
160.040145874023

> <r_mmod_Torsional_Energy-OPLS-2005>
341.030670166016

> <r_mmod_Improper_Torsional_Energy-OPLS-2005>
6.54392004013062

> <r_mmod_Van_der_Waal_Energy-OPLS-2005>
141.714157104492

> <r_mmod_Electrostatic_Energy-OPLS-2005>
-363.671203613281

> <r_mmod_Solvation_Energy-OPLS-2005>
-231.005813598633

> <b_mmod_Minimization_Converged-OPLS-2005>
0

> <r_mmod_RMS_Derivative-OPLS-2005>
4.54903507232666

$$$$
54
                    3D
 Structure written by MMmdl.
158167  0  0  1  0            999 V2000
  -30.7357  -14.4368   20.5425 C   0  0  0  0  0  0
  -30.4117  -12.2726   19.4363 C   0  0  0  0  0  0
  -29.4958  -12.4861   18.2135 C   0  0  0  0  0  0
  -28.0146  -12.3582   18.6195 C   0  0  0  0  0  0
  -27.6590  -13.2082   19.8689 C   0  0  2  0  0  0
  -28.6985  -13.0099   20.9946 C   0  0  0  0  0  0
  -25.2587  -13.8167   20.5680 C   0  0  0  0  0  0
  -24.1838  -13.0445   20.9170 C   0  0  0  0  0  0
  -24.6388  -11.6908   20.8729 C   0  0  0  0  0  0
  -23.9056  -10.4297   21.0400 C   0  0  0  0  0  0
  -24.3612   -9.4216   21.9180 C   0  0  0  0  0  0
  -23.6293   -8.2248   22.0752 C   0  0  0  0  0  0
  -22.4276   -8.0282   21.3542 C   0  0  0  0  0  0
  -21.9906   -9.0253   20.4645 C   0  0  0  0  0  0
  -22.7228  -10.2134   20.3053 C   0  0  0  0  0  0
  -21.6855   -6.0740   22.5280 C   0  0  0  0  0  0
  -21.4017   -6.5643   23.8215 C   0  0  0  0  0  0
  -21.3660   -5.6795   24.9176 C   0  0  0  0  0  0
  -21.6040   -4.3056   24.7225 C   0  0  0  0  0  0
  -21.8820   -3.8151   23.4346 C   0  0  0  0  0  0
  -21.9192   -4.6967   22.3403 C   0  0  0  0  0  0
  -22.7862  -13.5243   21.1840 C   0  0  0  0  0  0
  -22.1662   -4.2152   21.0980 F   0  0  0  0  0  0
  -21.5625   -3.4538   25.7738 F   0  0  0  0  0  0
  -30.0360  -13.2750   20.4432 N   0  0  0  0  0  0
  -26.3014  -12.9338   20.3338 N   0  0  0  0  0  0
  -25.9314  -11.6497   20.5758 N   0  0  0  0  0  0
  -22.0506  -12.8235   22.0400 N   0  0  0  0  0  0
  -25.4329  -15.1887   20.4120 N   0  0  0  0  0  0
  -31.8939  -14.5661   20.1403 O   0  0  0  0  0  0
  -21.6639   -6.8879   21.4242 O   0  0  0  0  0  0
  -22.3545  -14.5551   20.6693 O   0  0  0  0  0  0
  -24.6150  -31.8706   23.2167 C   0  0  0  0  0  0
  -25.9047  -32.4838   23.8441 C   0  0  1  0  0  0
  -27.2236  -27.4372   20.0627 C   0  0  0  0  0  0
  -25.5905  -33.8640   24.2360 N   0  0  0  0  0  0
  -23.3995  -30.5010   21.5582 C   0  0  2  0  0  0
  -24.8413  -28.9796   20.1137 C   0  0  0  0  0  0
  -22.7403  -29.4679   22.5003 C   0  0  0  0  0  0
  -18.0271  -28.1372   22.8495 C   0  0  0  0  0  0
  -24.1485  -36.7319   23.2634 C   0  0  0  0  0  0
  -25.9322  -30.8320   21.3749 C   0  0  0  0  0  0
  -26.0048  -29.4692   20.7178 C   0  0  0  0  0  0
  -27.1926  -28.6981   20.7077 C   0  0  0  0  0  0
  -26.0312  -26.9766   19.4558 C   0  0  0  0  0  0
  -24.8483  -27.7277   19.4884 C   0  0  0  0  0  0
  -23.6058  -29.8460   20.1693 C   0  0  0  0  0  0
  -25.4106  -36.3122   24.0342 C   0  0  1  0  0  0
  -20.5858  -28.3652   23.1321 C   0  0  2  0  0  0
  -20.6758  -26.9390   22.5414 C   0  0  0  0  0  0
  -19.5737  -26.6380   21.5209 C   0  0  0  0  0  0
  -18.1917  -26.7918   22.1628 C   0  0  0  0  0  0
  -19.1518  -28.8831   23.2905 C   0  0  0  0  0  0
  -18.9449  -30.1438   23.8913 C   0  0  0  0  0  0
  -17.6449  -30.6580   24.0560 C   0  0  0  0  0  0
  -25.9034  -34.9484   23.5142 C   0  0  0  0  0  0
  -16.5343  -29.9083   23.6318 C   0  0  0  0  0  0
  -16.7259  -28.6497   23.0345 C   0  0  0  0  0  0
  -26.4469  -31.6612   25.0759 C   0  0  0  0  0  0
  -25.3736  -31.3724   26.1510 C   0  0  0  0  0  0
  -27.0292  -30.3054   24.6125 C   0  0  0  0  0  0
  -27.6047  -32.4335   25.7510 C   0  0  0  0  0  0
  -27.5585  -37.1820   24.8465 C   0  0  0  0  0  0
  -21.4132  -29.3031   22.3741 N   0  0  0  0  0  0
  -26.4299  -37.3802   23.9408 N   0  0  0  0  0  0
  -24.6674  -31.0815   22.1076 N   0  0  0  0  0  0
  -23.4187  -28.8197   23.3014 O   0  0  0  0  0  0
  -28.3917  -26.6926   20.0891 O   0  0  0  0  0  0
  -26.5581  -34.8923   22.4693 O   0  0  0  0  0  0
  -23.5346  -32.1461   23.7565 O   0  0  0  0  0  0
  -29.5787  -16.7991   20.7769 C   0  0  0  0  0  0
  -30.0216  -15.6616   20.8547 C   0  0  0  0  0  0
  -28.9573  -19.1885   21.2596 C   0  0  0  0  0  0
  -29.0496  -18.3696   18.9684 C   0  0  0  0  0  0
  -28.5665  -20.4637   20.7870 C   0  0  0  0  0  0
  -28.6636  -19.6357   18.4965 C   0  0  0  0  0  0
  -29.1818  -18.1330   20.3495 C   0  0  0  0  0  0
  -28.3883  -20.6889   19.4007 C   0  0  0  0  0  0
  -26.7472  -21.9356   18.1549 C   0  0  0  0  0  0
  -26.2762  -23.2172   17.4616 C   0  0  0  0  0  0
  -27.3065  -24.3426   17.4860 C   0  0  0  0  0  0
  -28.6758  -23.1673   19.1854 C   0  0  0  0  0  0
  -27.9111  -24.4814   18.8903 C   0  0  1  0  0  0
  -28.7176  -25.8117   18.9990 C   0  0  0  0  0  0
  -27.8900  -21.9364   18.9043 N   0  0  0  0  0  0
  -26.0290  -20.9389   18.0165 O   0  0  0  0  0  0
  -31.4610  -12.3382   19.1429 H   0  0  0  0  0  0
  -30.2804  -11.2691   19.8436 H   0  0  0  0  0  0
  -29.7336  -11.7607   17.4342 H   0  0  0  0  0  0
  -29.6765  -13.4716   17.7821 H   0  0  0  0  0  0
  -27.8192  -11.3045   18.8218 H   0  0  0  0  0  0
  -27.3694  -12.6307   17.7835 H   0  0  0  0  0  0
  -27.6986  -14.2521   19.5585 H   0  0  0  0  0  0
  -28.6589  -11.9880   21.3741 H   0  0  0  0  0  0
  -28.4746  -13.6513   21.8482 H   0  0  0  0  0  0
  -25.2758   -9.5695   22.4755 H   0  0  0  0  0  0
  -24.0003   -7.4641   22.7473 H   0  0  0  0  0  0
  -21.0838   -8.8768   19.8954 H   0  0  0  0  0  0
  -22.3683  -10.9672   19.6163 H   0  0  0  0  0  0
  -21.2015   -7.6153   23.9720 H   0  0  0  0  0  0
  -21.1479   -6.0525   25.9077 H   0  0  0  0  0  0
  -22.0599   -2.7614   23.2843 H   0  0  0  0  0  0
  -22.4121  -11.9889   22.4776 H   0  0  0  0  0  0
  -21.1126  -13.1264   22.2611 H   0  0  0  0  0  0
  -24.6733  -15.8497   20.5320 H   0  0  0  0  0  0
  -26.2991  -15.6284   20.1264 H   0  0  0  0  0  0
  -26.7107  -32.5541   23.1200 H   0  0  0  0  0  0
  -25.0045  -33.9805   25.0499 H   0  0  0  0  0  0
  -22.6874  -31.3187   21.4279 H   0  0  0  0  0  0
  -23.3747  -35.9653   23.3310 H   0  0  0  0  0  0
  -24.3571  -36.8914   22.2042 H   0  0  0  0  0  0
  -23.7247  -37.6536   23.6632 H   0  0  0  0  0  0
  -26.0473  -31.5995   20.6086 H   0  0  0  0  0  0
  -26.8197  -30.8807   21.9934 H   0  0  0  0  0  0
  -28.0870  -29.0691   21.1896 H   0  0  0  0  0  0
  -25.9446  -26.0352   18.9541 H   0  0  0  0  0  0
  -23.9532  -27.3388   19.0222 H   0  0  0  0  0  0
  -23.7135  -30.6260   19.4145 H   0  0  0  0  0  0
  -22.7282  -29.2696   19.8722 H   0  0  0  0  0  0
  -25.1288  -36.1990   25.0840 H   0  0  0  0  0  0
  -20.9953  -28.3203   24.1439 H   0  0  0  0  0  0
  -20.5655  -26.2255   23.3595 H   0  0  0  0  0  0
  -21.6630  -26.7428   22.1210 H   0  0  0  0  0  0
  -19.6891  -25.6296   21.1225 H   0  0  0  0  0  0
  -19.6676  -27.3202   20.6748 H   0  0  0  0  0  0
  -17.4185  -26.6660   21.4032 H   0  0  0  0  0  0
  -18.0326  -26.0058   22.9024 H   0  0  0  0  0  0
  -19.7924  -30.7244   24.2298 H   0  0  0  0  0  0
  -17.5005  -31.6262   24.5158 H   0  0  0  0  0  0
  -15.5345  -30.2990   23.7633 H   0  0  0  0  0  0
  -15.8658  -28.0820   22.7058 H   0  0  0  0  0  0
  -24.5868  -30.7120   25.7843 H   0  0  0  0  0  0
  -24.8976  -32.2887   26.5012 H   0  0  0  0  0  0
  -25.8080  -30.8837   27.0240 H   0  0  0  0  0  0
  -26.2839  -29.6842   24.1134 H   0  0  0  0  0  0
  -27.4015  -29.7266   25.4588 H   0  0  0  0  0  0
  -27.8703  -30.4375   23.9312 H   0  0  0  0  0  0
  -27.2652  -33.3603   26.2150 H   0  0  0  0  0  0
  -28.3815  -32.6955   25.0314 H   0  0  0  0  0  0
  -28.0757  -31.8424   26.5373 H   0  0  0  0  0  0
  -28.2619  -38.0105   24.7503 H   0  0  0  0  0  0
  -28.1071  -36.2637   24.6310 H   0  0  0  0  0  0
  -27.2292  -37.1491   25.8866 H   0  0  0  0  0  0
  -20.9285  -29.8791   21.7006 H   0  0  0  0  0  0
  -26.0193  -38.2885   24.1405 H   0  0  0  0  0  0
  -29.0709  -19.0238   22.3216 H   0  0  0  0  0  0
  -29.2342  -17.5743   18.2594 H   0  0  0  0  0  0
  -28.3668  -21.2527   21.4982 H   0  0  0  0  0  0
  -28.5477  -19.7824   17.4314 H   0  0  0  0  0  0
  -25.3636  -23.5447   17.9588 H   0  0  0  0  0  0
  -26.0036  -22.9856   16.4311 H   0  0  0  0  0  0
  -26.8333  -25.2666   17.1530 H   0  0  0  0  0  0
  -28.0948  -24.1407   16.7595 H   0  0  0  0  0  0
  -29.0124  -23.1715   20.2218 H   0  0  0  0  0  0
  -29.5772  -23.1250   18.5734 H   0  0  0  0  0  0
  -27.1160  -24.5037   19.6343 H   0  0  0  0  0  0
  -29.7800  -25.5788   19.0766 H   0  0  0  0  0  0
  -28.6347  -26.3903   18.0773 H   0  0  0  0  0  0
  1 25  1  0  0  0
  1 30  2  0  0  0
  1 72  1  0  0  0
  2  3  1  0  0  0
  2 25  1  0  0  0
  2 87  1  0  0  0
  2 88  1  0  0  0
  3  4  1  0  0  0
  3 89  1  0  0  0
  3 90  1  0  0  0
  4  5  1  0  0  0
  4 91  1  0  0  0
  4 92  1  0  0  0
  5  6  1  0  0  0
  5 26  1  0  0  0
  5 93  1  0  0  0
  6 25  1  0  0  0
  6 94  1  0  0  0
  6 95  1  0  0  0
  7  8  2  0  0  0
  7 26  1  0  0  0
  7 29  1  0  0  0
  8  9  1  0  0  0
  8 22  1  0  0  0
  9 10  1  0  0  0
  9 27  2  0  0  0
 10 11  2  0  0  0
 10 15  1  0  0  0
 11 12  1  0  0  0
 11 96  1  0  0  0
 12 13  2  0  0  0
 12 97  1  0  0  0
 13 14  1  0  0  0
 13 31  1  0  0  0
 14 15  2  0  0  0
 14 98  1  0  0  0
 15 99  1  0  0  0
 16 17  2  0  0  0
 16 21  1  0  0  0
 16 31  1  0  0  0
 17 18  1  0  0  0
 17100  1  0  0  0
 18 19  2  0  0  0
 18101  1  0  0  0
 19 20  1  0  0  0
 19 24  1  0  0  0
 20 21  2  0  0  0
 20102  1  0  0  0
 21 23  1  0  0  0
 22 28  1  0  0  0
 22 32  2  0  0  0
 26 27  1  0  0  0
 28103  1  0  0  0
 28104  1  0  0  0
 29105  1  0  0  0
 29106  1  0  0  0
 33 34  1  0  0  0
 33 66  1  0  0  0
 33 70  2  0  0  0
 34 36  1  0  0  0
 34 59  1  0  0  0
 34107  1  0  0  0
 35 44  2  0  0  0
 35 45  1  0  0  0
 35 68  1  0  0  0
 36 56  1  0  0  0
 36108  1  0  0  0
 37 39  1  0  0  0
 37 47  1  0  0  0
 37 66  1  0  0  0
 37109  1  0  0  0
 38 43  2  0  0  0
 38 46  1  0  0  0
 38 47  1  0  0  0
 39 64  1  0  0  0
 39 67  2  0  0  0
 40 52  1  0  0  0
 40 53  2  0  0  0
 40 58  1  0  0  0
 41110  1  0  0  0
 41111  1  0  0  0
 41112  1  0  0  0
 41 48  1  0  0  0
 42 43  1  0  0  0
 42 66  1  0  0  0
 42113  1  0  0  0
 42114  1  0  0  0
 43 44  1  0  0  0
 44115  1  0  0  0
 45 46  2  0  0  0
 45116  1  0  0  0
 46117  1  0  0  0
 47118  1  0  0  0
 47119  1  0  0  0
 48 56  1  0  0  0
 48 65  1  0  0  0
 48120  1  0  0  0
 49 50  1  0  0  0
 49 53  1  0  0  0
 49 64  1  0  0  0
 49121  1  0  0  0
 50 51  1  0  0  0
 50122  1  0  0  0
 50123  1  0  0  0
 51 52  1  0  0  0
 51124  1  0  0  0
 51125  1  0  0  0
 52126  1  0  0  0
 52127  1  0  0  0
 53 54  1  0  0  0
 54 55  2  0  0  0
 54128  1  0  0  0
 55 57  1  0  0  0
 55129  1  0  0  0
 56 69  2  0  0  0
 57 58  2  0  0  0
 57130  1  0  0  0
 58131  1  0  0  0
 59 60  1  0  0  0
 59 61  1  0  0  0
 59 62  1  0  0  0
 60132  1  0  0  0
 60133  1  0  0  0
 60134  1  0  0  0
 61135  1  0  0  0
 61136  1  0  0  0
 61137  1  0  0  0
 62138  1  0  0  0
 62139  1  0  0  0
 62140  1  0  0  0
 63 65  1  0  0  0
 63141  1  0  0  0
 63142  1  0  0  0
 63143  1  0  0  0
 64144  1  0  0  0
 65145  1  0  0  0
 68 84  1  0  0  0
 71 72  3  0  0  0
 71 77  1  0  0  0
 73 75  2  0  0  0
 73 77  1  0  0  0
 73146  1  0  0  0
 74 76  1  0  0  0
 74 77  2  0  0  0
 74147  1  0  0  0
 75 78  1  0  0  0
 75148  1  0  0  0
 76 78  2  0  0  0
 76149  1  0  0  0
 78 85  1  0  0  0
 79 80  1  0  0  0
 79 85  1  0  0  0
 79 86  2  0  0  0
 80 81  1  0  0  0
 80150  1  0  0  0
 80151  1  0  0  0
 81 83  1  0  0  0
 81152  1  0  0  0
 81153  1  0  0  0
 82 83  1  0  0  0
 82 85  1  0  0  0
 82154  1  0  0  0
 82155  1  0  0  0
 83 84  1  0  0  0
 83156  1  0  0  0
 84157  1  0  0  0
 84158  1  0  0  0
M  ISO  4   1 100  68 101  72 100  84 101
M  END
> <chiral flag>
0

> <version>
0

> <s_m_source_file>
/data/baiqing/PycharmProjects/Reinvent-master-3.2/result/LINK_invent/BTK/process_docking_weight1_custom_product_contain_oxygen_bond_distance_aromatic_linkinvent_7_9_3/rearranged_h_0096.sdf

> <i_m_source_file_index>
55

> <r_mmod_Potential_Energy-OPLS-2005>
124.401809692383

> <r_mmod_Stretch_Energy-OPLS-2005>
39.7170867919922

> <r_mmod_Bend_Energy-OPLS-2005>
129.217330932617

> <r_mmod_Torsional_Energy-OPLS-2005>
251.739822387695

> <r_mmod_Improper_Torsional_Energy-OPLS-2005>
6.66116142272949

> <r_mmod_Van_der_Waal_Energy-OPLS-2005>
170.616333007812

> <r_mmod_Electrostatic_Energy-OPLS-2005>
-280.679016113281

> <r_mmod_Solvation_Energy-OPLS-2005>
-208.798187255859

> <b_mmod_Minimization_Converged-OPLS-2005>
0

> <r_mmod_RMS_Derivative-OPLS-2005>
1.15918910503387

$$$$
55
                    3D
 Structure written by MMmdl.
162171  0  0  1  0            999 V2000
  -30.6671  -14.6300   20.5954 C   0  0  0  0  0  0
  -30.4289  -12.4130   19.4593 C   0  0  0  0  0  0
  -29.5048  -12.5335   18.2275 C   0  0  0  0  0  0
  -28.0302  -12.3563   18.6336 C   0  0  0  0  0  0
  -27.6504  -13.2218   19.8627 C   0  0  2  0  0  0
  -28.6856  -13.0696   20.9930 C   0  0  0  0  0  0
  -25.2548  -13.8191   20.5704 C   0  0  0  0  0  0
  -24.1812  -13.0452   20.9164 C   0  0  0  0  0  0
  -24.6382  -11.6914   20.8718 C   0  0  0  0  0  0
  -23.9067  -10.4295   21.0389 C   0  0  0  0  0  0
  -24.3617   -9.4210   21.9169 C   0  0  0  0  0  0
  -23.6286   -8.2248   22.0747 C   0  0  0  0  0  0
  -22.4269   -8.0283   21.3539 C   0  0  0  0  0  0
  -21.9903   -9.0264   20.4650 C   0  0  0  0  0  0
  -22.7239  -10.2133   20.3043 C   0  0  0  0  0  0
  -21.6856   -6.0743   22.5271 C   0  0  0  0  0  0
  -21.4038   -6.5637   23.8213 C   0  0  0  0  0  0
  -21.3658   -5.6787   24.9170 C   0  0  0  0  0  0
  -21.6044   -4.3053   24.7214 C   0  0  0  0  0  0
  -21.8826   -3.8154   23.4335 C   0  0  0  0  0  0
  -21.9201   -4.6978   22.3397 C   0  0  0  0  0  0
  -22.7841  -13.5243   21.1841 C   0  0  0  0  0  0
  -22.1668   -4.2160   21.0972 F   0  0  0  0  0  0
  -21.5607   -3.4539   25.7729 F   0  0  0  0  0  0
  -30.0098  -13.4260   20.4546 N   0  0  0  0  0  0
  -26.2964  -12.9380   20.3283 N   0  0  0  0  0  0
  -25.9306  -11.6527   20.5705 N   0  0  0  0  0  0
  -22.0496  -12.8225   22.0388 N   0  0  0  0  0  0
  -25.4285  -15.1914   20.4200 N   0  0  0  0  0  0
  -31.7512  -14.8176   20.0321 O   0  0  0  0  0  0
  -21.6635   -6.8878   21.4228 O   0  0  0  0  0  0
  -22.3525  -14.5556   20.6707 O   0  0  0  0  0  0
  -24.6265  -31.8588   23.1998 C   0  0  0  0  0  0
  -25.9114  -32.4772   23.8328 C   0  0  1  0  0  0
  -27.2240  -27.3008   20.1079 C   0  0  0  0  0  0
  -25.5932  -33.8575   24.2262 N   0  0  0  0  0  0
  -23.4200  -30.4806   21.5435 C   0  0  2  0  0  0
  -24.8648  -28.9300   20.1125 C   0  0  0  0  0  0
  -22.7476  -29.4609   22.4942 C   0  0  0  0  0  0
  -18.0293  -28.1362   22.8490 C   0  0  0  0  0  0
  -24.1498  -36.7280   23.2645 C   0  0  0  0  0  0
  -25.9628  -30.7808   21.3749 C   0  0  0  0  0  0
  -26.0342  -29.4072   20.7149 C   0  0  0  0  0  0
  -27.2127  -28.6026   20.7045 C   0  0  0  0  0  0
  -26.0216  -26.8717   19.4999 C   0  0  0  0  0  0
  -24.8602  -27.6678   19.4999 C   0  0  0  0  0  0
  -23.6352  -29.8134   20.1595 C   0  0  0  0  0  0
  -25.4127  -36.3077   24.0331 C   0  0  1  0  0  0
  -20.5889  -28.3664   23.1285 C   0  0  2  0  0  0
  -20.6794  -26.9389   22.5404 C   0  0  0  0  0  0
  -19.5764  -26.6367   21.5214 C   0  0  0  0  0  0
  -18.1937  -26.7910   22.1623 C   0  0  0  0  0  0
  -19.1542  -28.8828   23.2885 C   0  0  0  0  0  0
  -18.9472  -30.1435   23.8900 C   0  0  0  0  0  0
  -17.6473  -30.6572   24.0562 C   0  0  0  0  0  0
  -25.9061  -34.9449   23.5098 C   0  0  0  0  0  0
  -16.5364  -29.9065   23.6329 C   0  0  0  0  0  0
  -16.7284  -28.6477   23.0360 C   0  0  0  0  0  0
  -26.4495  -31.6582   25.0705 C   0  0  0  0  0  0
  -25.3730  -31.3721   26.1434 C   0  0  0  0  0  0
  -27.0343  -30.3006   24.6165 C   0  0  0  0  0  0
  -27.6047  -32.4321   25.7476 C   0  0  0  0  0  0
  -27.5578  -37.1800   24.8469 C   0  0  0  0  0  0
  -21.4190  -29.3024   22.3685 N   0  0  0  0  0  0
  -26.4299  -37.3771   23.9403 N   0  0  0  0  0  0
  -24.6881  -31.0583   22.0958 N   0  0  0  0  0  0
  -23.4197  -28.8162   23.3033 O   0  0  0  0  0  0
  -28.3694  -26.4846   20.1593 O   0  0  0  0  0  0
  -26.5624  -34.8913   22.4664 O   0  0  0  0  0  0
  -23.5424  -32.1401   23.7312 O   0  0  0  0  0  0
  -30.0292  -19.4730   21.5009 C   0  0  0  0  0  0
  -28.4578  -18.7446   19.8354 C   0  0  0  0  0  0
  -30.4489  -18.1181   21.6758 C   0  0  0  0  0  0
  -28.8829  -17.3878   20.0091 C   0  0  0  0  0  0
  -28.9812  -19.8228   20.6128 C   0  0  0  0  0  0
  -29.8511  -17.0220   20.9822 C   0  0  0  0  0  0
  -27.1233  -21.2468   21.2574 C   0  0  0  0  0  0
  -29.3883  -16.0213   23.7002 C   0  0  0  0  0  0
  -30.0743  -15.3346   22.7668 C   0  0  0  0  0  0
  -26.3684  -22.5789   21.1665 C   0  0  0  0  0  0
  -27.2807  -23.7606   21.5150 C   0  0  0  0  0  0
  -28.8611  -22.3934   19.9613 C   0  0  0  0  0  0
  -28.5157  -23.8383   20.6006 C   0  0  1  0  0  0
  -28.4344  -25.0996   19.6149 C   0  0  0  0  0  0
  -28.3370  -21.1514   20.6536 N   0  0  0  0  0  0
  -30.1061  -15.6185   21.3828 N   0  0  0  0  0  0
  -26.5938  -20.3189   21.8808 O   0  0  0  0  0  0
  -31.4716  -12.5297   19.1609 H   0  0  0  0  0  0
  -30.3643  -11.4124   19.8909 H   0  0  0  0  0  0
  -29.7742  -11.7915   17.4738 H   0  0  0  0  0  0
  -29.6420  -13.5104   17.7592 H   0  0  0  0  0  0
  -27.8684  -11.3016   18.8603 H   0  0  0  0  0  0
  -27.3777  -12.5893   17.7911 H   0  0  0  0  0  0
  -27.6737  -14.2597   19.5312 H   0  0  0  0  0  0
  -28.3848  -13.6826   21.8380 H   0  0  0  0  0  0
  -28.6963  -12.0466   21.3690 H   0  0  0  0  0  0
  -25.2756   -9.5692   22.4752 H   0  0  0  0  0  0
  -24.0011   -7.4639   22.7461 H   0  0  0  0  0  0
  -21.0838   -8.8786   19.8953 H   0  0  0  0  0  0
  -22.3701  -10.9673   19.6163 H   0  0  0  0  0  0
  -21.2048   -7.6152   23.9724 H   0  0  0  0  0  0
  -21.1462   -6.0511   25.9074 H   0  0  0  0  0  0
  -22.0607   -2.7609   23.2823 H   0  0  0  0  0  0
  -22.4112  -11.9891   22.4796 H   0  0  0  0  0  0
  -21.1142  -13.1281   22.2645 H   0  0  0  0  0  0
  -24.6754  -15.8548   20.5661 H   0  0  0  0  0  0
  -26.3098  -15.6353   20.1985 H   0  0  0  0  0  0
  -26.7179  -32.5421   23.1062 H   0  0  0  0  0  0
  -25.0096  -33.9716   25.0415 H   0  0  0  0  0  0
  -22.7137  -31.3016   21.3996 H   0  0  0  0  0  0
  -23.3757  -35.9613   23.3322 H   0  0  0  0  0  0
  -24.3585  -36.8882   22.2054 H   0  0  0  0  0  0
  -23.7248  -37.6487   23.6654 H   0  0  0  0  0  0
  -26.1021  -31.5448   20.6088 H   0  0  0  0  0  0
  -26.8409  -30.8253   22.0083 H   0  0  0  0  0  0
  -28.1115  -28.9663   21.1826 H   0  0  0  0  0  0
  -25.9293  -25.9045   19.0357 H   0  0  0  0  0  0
  -23.9581  -27.2919   19.0364 H   0  0  0  0  0  0
  -23.7575  -30.5892   19.4028 H   0  0  0  0  0  0
  -22.7531  -29.2452   19.8565 H   0  0  0  0  0  0
  -25.1309  -36.1929   25.0821 H   0  0  0  0  0  0
  -20.9965  -28.3230   24.1417 H   0  0  0  0  0  0
  -20.5699  -26.2267   23.3598 H   0  0  0  0  0  0
  -21.6664  -26.7409   22.1201 H   0  0  0  0  0  0
  -19.6934  -25.6272   21.1258 H   0  0  0  0  0  0
  -19.6699  -27.3179   20.6739 H   0  0  0  0  0  0
  -17.4209  -26.6652   21.4021 H   0  0  0  0  0  0
  -18.0335  -26.0044   22.9009 H   0  0  0  0  0  0
  -19.7951  -30.7248   24.2272 H   0  0  0  0  0  0
  -17.5022  -31.6257   24.5152 H   0  0  0  0  0  0
  -15.5359  -30.2975   23.7645 H   0  0  0  0  0  0
  -15.8678  -28.0796   22.7082 H   0  0  0  0  0  0
  -24.5907  -30.7069   25.7759 H   0  0  0  0  0  0
  -24.8922  -32.2892   26.4850 H   0  0  0  0  0  0
  -25.8064  -30.8902   27.0210 H   0  0  0  0  0  0
  -26.2916  -29.6750   24.1204 H   0  0  0  0  0  0
  -27.4062  -29.7267   25.4660 H   0  0  0  0  0  0
  -27.8774  -30.4294   23.9378 H   0  0  0  0  0  0
  -27.2653  -33.3625   26.2042 H   0  0  0  0  0  0
  -28.3862  -32.6880   25.0309 H   0  0  0  0  0  0
  -28.0713  -31.8459   26.5403 H   0  0  0  0  0  0
  -28.2610  -38.0082   24.7500 H   0  0  0  0  0  0
  -28.1064  -36.2613   24.6327 H   0  0  0  0  0  0
  -27.2293  -37.1483   25.8872 H   0  0  0  0  0  0
  -20.9367  -29.8738   21.6884 H   0  0  0  0  0  0
  -26.0182  -38.2850   24.1387 H   0  0  0  0  0  0
  -30.4624  -20.2385   22.1292 H   0  0  0  0  0  0
  -27.6565  -18.9434   19.1384 H   0  0  0  0  0  0
  -31.1981  -17.9144   22.4281 H   0  0  0  0  0  0
  -28.3911  -16.6153   19.4348 H   0  0  0  0  0  0
  -28.7739  -16.8769   23.4571 H   0  0  0  0  0  0
  -29.4317  -15.7233   24.7384 H   0  0  0  0  0  0
  -30.6717  -14.4764   23.0578 H   0  0  0  0  0  0
  -25.5142  -22.5587   21.8445 H   0  0  0  0  0  0
  -25.9643  -22.6886   20.1595 H   0  0  0  0  0  0
  -27.6102  -23.6462   22.5489 H   0  0  0  0  0  0
  -26.7183  -24.6946   21.4934 H   0  0  0  0  0  0
  -29.9398  -22.2964   19.8344 H   0  0  0  0  0  0
  -28.4444  -22.3626   18.9534 H   0  0  0  0  0  0
  -29.3536  -24.0635   21.2615 H   0  0  0  0  0  0
  -27.6855  -24.9064   18.8520 H   0  0  0  0  0  0
  -29.3632  -25.0894   19.0446 H   0  0  0  0  0  0
  1 25  1  0  0  0
  1 30  2  0  0  0
  1 86  1  0  0  0
  2  3  1  0  0  0
  2 25  1  0  0  0
  2 88  1  0  0  0
  2 89  1  0  0  0
  3  4  1  0  0  0
  3 90  1  0  0  0
  3 91  1  0  0  0
  4  5  1  0  0  0
  4 92  1  0  0  0
  4 93  1  0  0  0
  5  6  1  0  0  0
  5 26  1  0  0  0
  5 94  1  0  0  0
  6 25  1  0  0  0
  6 95  1  0  0  0
  6 96  1  0  0  0
  7  8  2  0  0  0
  7 26  1  0  0  0
  7 29  1  0  0  0
  8  9  1  0  0  0
  8 22  1  0  0  0
  9 10  1  0  0  0
  9 27  2  0  0  0
 10 11  2  0  0  0
 10 15  1  0  0  0
 11 12  1  0  0  0
 11 97  1  0  0  0
 12 13  2  0  0  0
 12 98  1  0  0  0
 13 14  1  0  0  0
 13 31  1  0  0  0
 14 15  2  0  0  0
 14 99  1  0  0  0
 15100  1  0  0  0
 16 17  2  0  0  0
 16 21  1  0  0  0
 16 31  1  0  0  0
 17 18  1  0  0  0
 17101  1  0  0  0
 18 19  2  0  0  0
 18102  1  0  0  0
 19 20  1  0  0  0
 19 24  1  0  0  0
 20 21  2  0  0  0
 20103  1  0  0  0
 21 23  1  0  0  0
 22 28  1  0  0  0
 22 32  2  0  0  0
 26 27  1  0  0  0
 28104  1  0  0  0
 28105  1  0  0  0
 29106  1  0  0  0
 29107  1  0  0  0
 33 34  1  0  0  0
 33 66  1  0  0  0
 33 70  2  0  0  0
 34 36  1  0  0  0
 34 59  1  0  0  0
 34108  1  0  0  0
 35 44  2  0  0  0
 35 45  1  0  0  0
 35 68  1  0  0  0
 36 56  1  0  0  0
 36109  1  0  0  0
 37 39  1  0  0  0
 37 47  1  0  0  0
 37 66  1  0  0  0
 37110  1  0  0  0
 38 43  2  0  0  0
 38 46  1  0  0  0
 38 47  1  0  0  0
 39 64  1  0  0  0
 39 67  2  0  0  0
 40 52  1  0  0  0
 40 53  2  0  0  0
 40 58  1  0  0  0
 41111  1  0  0  0
 41112  1  0  0  0
 41113  1  0  0  0
 41 48  1  0  0  0
 42 43  1  0  0  0
 42 66  1  0  0  0
 42114  1  0  0  0
 42115  1  0  0  0
 43 44  1  0  0  0
 44116  1  0  0  0
 45 46  2  0  0  0
 45117  1  0  0  0
 46118  1  0  0  0
 47119  1  0  0  0
 47120  1  0  0  0
 48 56  1  0  0  0
 48 65  1  0  0  0
 48121  1  0  0  0
 49 50  1  0  0  0
 49 53  1  0  0  0
 49 64  1  0  0  0
 49122  1  0  0  0
 50 51  1  0  0  0
 50123  1  0  0  0
 50124  1  0  0  0
 51 52  1  0  0  0
 51125  1  0  0  0
 51126  1  0  0  0
 52127  1  0  0  0
 52128  1  0  0  0
 53 54  1  0  0  0
 54 55  2  0  0  0
 54129  1  0  0  0
 55 57  1  0  0  0
 55130  1  0  0  0
 56 69  2  0  0  0
 57 58  2  0  0  0
 57131  1  0  0  0
 58132  1  0  0  0
 59 60  1  0  0  0
 59 61  1  0  0  0
 59 62  1  0  0  0
 60133  1  0  0  0
 60134  1  0  0  0
 60135  1  0  0  0
 61136  1  0  0  0
 61137  1  0  0  0
 61138  1  0  0  0
 62139  1  0  0  0
 62140  1  0  0  0
 62141  1  0  0  0
 63 65  1  0  0  0
 63142  1  0  0  0
 63143  1  0  0  0
 63144  1  0  0  0
 64145  1  0  0  0
 65146  1  0  0  0
 68 84  1  0  0  0
 71 73  2  0  0  0
 71 75  1  0  0  0
 71147  1  0  0  0
 72 74  1  0  0  0
 72 75  2  0  0  0
 72148  1  0  0  0
 73 76  1  0  0  0
 73149  1  0  0  0
 74 76  2  0  0  0
 74150  1  0  0  0
 75 85  1  0  0  0
 76 86  1  0  0  0
 77 80  1  0  0  0
 77 85  1  0  0  0
 77 87  2  0  0  0
 78 79  2  0  0  0
 78151  1  0  0  0
 78152  1  0  0  0
 79 86  1  0  0  0
 79153  1  0  0  0
 80 81  1  0  0  0
 80154  1  0  0  0
 80155  1  0  0  0
 81 83  1  0  0  0
 81156  1  0  0  0
 81157  1  0  0  0
 82 83  1  0  0  0
 82 85  1  0  0  0
 82158  1  0  0  0
 82159  1  0  0  0
 83 84  1  0  0  0
 83160  1  0  0  0
 84161  1  0  0  0
 84162  1  0  0  0
M  ISO  4   1 100  68 101  84 101  86 100
M  END
> <chiral flag>
0

> <version>
0

> <s_m_source_file>
/data/baiqing/PycharmProjects/Reinvent-master-3.2/result/LINK_invent/BTK/process_docking_weight1_custom_product_contain_oxygen_bond_distance_aromatic_linkinvent_7_9_3/rearranged_h_0096.sdf

> <i_m_source_file_index>
56

> <r_mmod_Potential_Energy-OPLS-2005>
396.088500976562

> <r_mmod_Stretch_Energy-OPLS-2005>
103.015266418457

> <r_mmod_Bend_Energy-OPLS-2005>
154.959274291992

> <r_mmod_Torsional_Energy-OPLS-2005>
400.528930664062

> <r_mmod_Improper_Torsional_Energy-OPLS-2005>
4.32037401199341

> <r_mmod_Van_der_Waal_Energy-OPLS-2005>
157.242645263672

> <r_mmod_Electrostatic_Energy-OPLS-2005>
-263.073394775391

> <r_mmod_Solvation_Energy-OPLS-2005>
-208.097091674805

> <b_mmod_Minimization_Converged-OPLS-2005>
0

> <r_mmod_RMS_Derivative-OPLS-2005>
2.34878420829773

$$$$
56
                    3D
 Structure written by MMmdl.
154162  0  0  1  0            999 V2000
  -30.7044  -14.6007   20.4720 C   0  0  0  0  0  0
  -30.4097  -12.3665   19.4591 C   0  0  0  0  0  0
  -29.4947  -12.4849   18.2240 C   0  0  0  0  0  0
  -28.0194  -12.3365   18.6406 C   0  0  0  0  0  0
  -27.6439  -13.2301   19.8539 C   0  0  2  0  0  0
  -28.6906  -13.1398   20.9862 C   0  0  0  0  0  0
  -25.2510  -13.8207   20.5707 C   0  0  0  0  0  0
  -24.1790  -13.0447   20.9191 C   0  0  0  0  0  0
  -24.6383  -11.6926   20.8745 C   0  0  0  0  0  0
  -23.9059  -10.4302   21.0405 C   0  0  0  0  0  0
  -24.3612   -9.4215   21.9188 C   0  0  0  0  0  0
  -23.6291   -8.2247   22.0749 C   0  0  0  0  0  0
  -22.4277   -8.0274   21.3537 C   0  0  0  0  0  0
  -21.9913   -9.0247   20.4640 C   0  0  0  0  0  0
  -22.7235  -10.2132   20.3053 C   0  0  0  0  0  0
  -21.6856   -6.0734   22.5273 C   0  0  0  0  0  0
  -21.4014   -6.5636   23.8206 C   0  0  0  0  0  0
  -21.3662   -5.6790   24.9172 C   0  0  0  0  0  0
  -21.6046   -4.3050   24.7227 C   0  0  0  0  0  0
  -21.8817   -3.8145   23.4343 C   0  0  0  0  0  0
  -21.9193   -4.6961   22.3401 C   0  0  0  0  0  0
  -22.7811  -13.5220   21.1865 C   0  0  0  0  0  0
  -22.1662   -4.2141   21.0980 F   0  0  0  0  0  0
  -21.5634   -3.4538   25.7744 F   0  0  0  0  0  0
  -30.0045  -13.4286   20.4012 N   0  0  0  0  0  0
  -26.2952  -12.9424   20.3332 N   0  0  0  0  0  0
  -25.9323  -11.6560   20.5779 N   0  0  0  0  0  0
  -22.0473  -12.8195   22.0430 N   0  0  0  0  0  0
  -25.4202  -15.1933   20.4168 N   0  0  0  0  0  0
  -31.8943  -14.6418   20.1531 O   0  0  0  0  0  0
  -21.6639   -6.8873   21.4233 O   0  0  0  0  0  0
  -22.3485  -14.5528   20.6732 O   0  0  0  0  0  0
  -24.6269  -31.8614   23.2069 C   0  0  0  0  0  0
  -25.9121  -32.4789   23.8379 C   0  0  1  0  0  0
  -27.2095  -27.3309   20.1008 C   0  0  0  0  0  0
  -25.5937  -33.8588   24.2294 N   0  0  0  0  0  0
  -23.4165  -30.4916   21.5504 C   0  0  2  0  0  0
  -24.8594  -28.9598   20.1081 C   0  0  0  0  0  0
  -22.7477  -29.4639   22.4939 C   0  0  0  0  0  0
  -18.0276  -28.1377   22.8487 C   0  0  0  0  0  0
  -24.1485  -36.7282   23.2640 C   0  0  0  0  0  0
  -25.9608  -30.7978   21.3775 C   0  0  0  0  0  0
  -26.0319  -29.4300   20.7128 C   0  0  0  0  0  0
  -27.2114  -28.6273   20.7018 C   0  0  0  0  0  0
  -26.0099  -26.9233   19.4661 C   0  0  0  0  0  0
  -24.8500  -27.7113   19.4773 C   0  0  0  0  0  0
  -23.6286  -29.8381   20.1623 C   0  0  0  0  0  0
  -25.4105  -36.3079   24.0333 C   0  0  1  0  0  0
  -20.5883  -28.3678   23.1279 C   0  0  2  0  0  0
  -20.6769  -26.9399   22.5406 C   0  0  0  0  0  0
  -19.5741  -26.6377   21.5215 C   0  0  0  0  0  0
  -18.1919  -26.7917   22.1633 C   0  0  0  0  0  0
  -19.1536  -28.8848   23.2877 C   0  0  0  0  0  0
  -18.9469  -30.1461   23.8880 C   0  0  0  0  0  0
  -17.6470  -30.6580   24.0572 C   0  0  0  0  0  0
  -25.9053  -34.9459   23.5108 C   0  0  0  0  0  0
  -16.5357  -29.9078   23.6341 C   0  0  0  0  0  0
  -16.7266  -28.6503   23.0338 C   0  0  0  0  0  0
  -26.4500  -31.6588   25.0743 C   0  0  0  0  0  0
  -25.3732  -31.3713   26.1462 C   0  0  0  0  0  0
  -27.0357  -30.3015   24.6190 C   0  0  0  0  0  0
  -27.6064  -32.4314   25.7509 C   0  0  0  0  0  0
  -27.5568  -37.1794   24.8461 C   0  0  0  0  0  0
  -21.4192  -29.3049   22.3696 N   0  0  0  0  0  0
  -26.4274  -37.3780   23.9422 N   0  0  0  0  0  0
  -24.6866  -31.0656   22.1014 N   0  0  0  0  0  0
  -23.4215  -28.8152   23.2986 O   0  0  0  0  0  0
  -28.3090  -26.4576   20.1569 O   0  0  0  0  0  0
  -26.5615  -34.8922   22.4670 O   0  0  0  0  0  0
  -23.5438  -32.1407   23.7408 O   0  0  0  0  0  0
  -30.8535  -19.6449   20.3073 C   0  0  0  0  0  0
  -30.3404  -20.9715   20.2796 C   0  0  0  0  0  0
  -30.0287  -18.4989   20.4835 C   0  0  0  0  0  0
  -28.9575  -21.2175   20.4256 C   0  0  0  0  0  0
  -28.1215  -20.0737   20.5990 C   0  0  0  0  0  0
  -28.6414  -18.7404   20.6295 C   0  0  0  0  0  0
  -30.7253  -17.0972   20.4738 C   0  0  0  0  0  0
  -29.0144  -23.8586   20.3641 C   0  0  0  0  0  0
  -27.9975  -25.0193   20.0045 C   0  0  0  0  0  0
  -26.7411  -20.2653   20.7160 N   0  0  0  0  0  0
  -28.3586  -22.5166   20.4037 N   0  0  0  0  0  0
  -30.0338  -15.7780   20.6632 N   0  0  0  0  0  0
  -27.7901  -17.6934   20.7769 F   0  0  0  0  0  0
  -31.4563  -12.4410   19.1580 H   0  0  0  0  0  0
  -30.3034  -11.3861   19.9262 H   0  0  0  0  0  0
  -29.7522  -11.7226   17.4880 H   0  0  0  0  0  0
  -29.6463  -13.4491   17.7356 H   0  0  0  0  0  0
  -27.8572  -11.2879   18.8914 H   0  0  0  0  0  0
  -27.3622  -12.5494   17.7964 H   0  0  0  0  0  0
  -27.6482  -14.2570   19.4866 H   0  0  0  0  0  0
  -28.6895  -12.1473   21.4383 H   0  0  0  0  0  0
  -28.4538  -13.8408   21.7881 H   0  0  0  0  0  0
  -25.2752   -9.5692   22.4766 H   0  0  0  0  0  0
  -23.9999   -7.4640   22.7467 H   0  0  0  0  0  0
  -21.0846   -8.8761   19.8947 H   0  0  0  0  0  0
  -22.3686  -10.9670   19.6155 H   0  0  0  0  0  0
  -21.1998   -7.6143   23.9706 H   0  0  0  0  0  0
  -21.1491   -6.0525   25.9074 H   0  0  0  0  0  0
  -22.0595   -2.7605   23.2855 H   0  0  0  0  0  0
  -22.4109  -11.9843   22.4782 H   0  0  0  0  0  0
  -21.1094  -13.1209   22.2665 H   0  0  0  0  0  0
  -24.6564  -15.8475   20.5432 H   0  0  0  0  0  0
  -26.2884  -15.6493   20.1660 H   0  0  0  0  0  0
  -26.7189  -32.5452   23.1128 H   0  0  0  0  0  0
  -25.0096  -33.9731   25.0451 H   0  0  0  0  0  0
  -22.7100  -31.3130   21.4134 H   0  0  0  0  0  0
  -23.3754  -35.9610   23.3298 H   0  0  0  0  0  0
  -24.3576  -36.8901   22.2058 H   0  0  0  0  0  0
  -23.7243  -37.6487   23.6659 H   0  0  0  0  0  0
  -26.0923  -31.5652   20.6133 H   0  0  0  0  0  0
  -26.8423  -30.8415   22.0056 H   0  0  0  0  0  0
  -28.1093  -28.9817   21.1890 H   0  0  0  0  0  0
  -25.9200  -25.9747   18.9606 H   0  0  0  0  0  0
  -23.9523  -27.3467   18.9984 H   0  0  0  0  0  0
  -23.7481  -30.6208   19.4118 H   0  0  0  0  0  0
  -22.7481  -29.2713   19.8551 H   0  0  0  0  0  0
  -25.1285  -36.1928   25.0825 H   0  0  0  0  0  0
  -20.9975  -28.3245   24.1401 H   0  0  0  0  0  0
  -20.5692  -26.2279   23.3600 H   0  0  0  0  0  0
  -21.6632  -26.7432   22.1182 H   0  0  0  0  0  0
  -19.6901  -25.6293   21.1228 H   0  0  0  0  0  0
  -19.6676  -27.3214   20.6767 H   0  0  0  0  0  0
  -17.4194  -26.6682   21.4032 H   0  0  0  0  0  0
  -18.0300  -26.0049   22.9012 H   0  0  0  0  0  0
  -19.7955  -30.7291   24.2215 H   0  0  0  0  0  0
  -17.5027  -31.6257   24.5179 H   0  0  0  0  0  0
  -15.5364  -30.2984   23.7677 H   0  0  0  0  0  0
  -15.8653  -28.0845   22.7030 H   0  0  0  0  0  0
  -24.5909  -30.7055   25.7794 H   0  0  0  0  0  0
  -24.8915  -32.2876   26.4895 H   0  0  0  0  0  0
  -25.8046  -30.8892   27.0241 H   0  0  0  0  0  0
  -26.2944  -29.6754   24.1211 H   0  0  0  0  0  0
  -27.4068  -29.7276   25.4695 H   0  0  0  0  0  0
  -27.8794  -30.4321   23.9409 H   0  0  0  0  0  0
  -27.2691  -33.3625   26.2078 H   0  0  0  0  0  0
  -28.3880  -32.6855   25.0336 H   0  0  0  0  0  0
  -28.0716  -31.8438   26.5435 H   0  0  0  0  0  0
  -28.2571  -38.0107   24.7529 H   0  0  0  0  0  0
  -28.1078  -36.2637   24.6253 H   0  0  0  0  0  0
  -27.2283  -37.1396   25.8863 H   0  0  0  0  0  0
  -20.9354  -29.8809   21.6949 H   0  0  0  0  0  0
  -26.0145  -38.2847   24.1455 H   0  0  0  0  0  0
  -31.9182  -19.5082   20.1804 H   0  0  0  0  0  0
  -31.0260  -21.7948   20.1388 H   0  0  0  0  0  0
  -31.5259  -17.1435   21.2140 H   0  0  0  0  0  0
  -31.2322  -17.0499   19.5078 H   0  0  0  0  0  0
  -29.4601  -24.0573   21.3396 H   0  0  0  0  0  0
  -29.8303  -23.8500   19.6405 H   0  0  0  0  0  0
  -27.1074  -24.8233   20.6057 H   0  0  0  0  0  0
  -27.7188  -24.8498   18.9638 H   0  0  0  0  0  0
  -26.3742  -20.9546   20.0735 H   0  0  0  0  0  0
  -26.2159  -19.4004   20.6527 H   0  0  0  0  0  0
  -27.3891  -22.5035   20.7074 H   0  0  0  0  0  0
  -29.0412  -15.7709   20.8451 H   0  0  0  0  0  0
  1 25  1  0  0  0
  1 30  2  0  0  0
  1 82  1  0  0  0
  2  3  1  0  0  0
  2 25  1  0  0  0
  2 84  1  0  0  0
  2 85  1  0  0  0
  3  4  1  0  0  0
  3 86  1  0  0  0
  3 87  1  0  0  0
  4  5  1  0  0  0
  4 88  1  0  0  0
  4 89  1  0  0  0
  5  6  1  0  0  0
  5 26  1  0  0  0
  5 90  1  0  0  0
  6 25  1  0  0  0
  6 91  1  0  0  0
  6 92  1  0  0  0
  7  8  2  0  0  0
  7 26  1  0  0  0
  7 29  1  0  0  0
  8  9  1  0  0  0
  8 22  1  0  0  0
  9 10  1  0  0  0
  9 27  2  0  0  0
 10 11  2  0  0  0
 10 15  1  0  0  0
 11 12  1  0  0  0
 11 93  1  0  0  0
 12 13  2  0  0  0
 12 94  1  0  0  0
 13 14  1  0  0  0
 13 31  1  0  0  0
 14 15  2  0  0  0
 14 95  1  0  0  0
 15 96  1  0  0  0
 16 17  2  0  0  0
 16 21  1  0  0  0
 16 31  1  0  0  0
 17 18  1  0  0  0
 17 97  1  0  0  0
 18 19  2  0  0  0
 18 98  1  0  0  0
 19 20  1  0  0  0
 19 24  1  0  0  0
 20 21  2  0  0  0
 20 99  1  0  0  0
 21 23  1  0  0  0
 22 28  1  0  0  0
 22 32  2  0  0  0
 26 27  1  0  0  0
 28100  1  0  0  0
 28101  1  0  0  0
 29102  1  0  0  0
 29103  1  0  0  0
 33 34  1  0  0  0
 33 66  1  0  0  0
 33 70  2  0  0  0
 34 36  1  0  0  0
 34 59  1  0  0  0
 34104  1  0  0  0
 35 44  2  0  0  0
 35 45  1  0  0  0
 35 68  1  0  0  0
 36 56  1  0  0  0
 36105  1  0  0  0
 37 39  1  0  0  0
 37 47  1  0  0  0
 37 66  1  0  0  0
 37106  1  0  0  0
 38 43  2  0  0  0
 38 46  1  0  0  0
 38 47  1  0  0  0
 39 64  1  0  0  0
 39 67  2  0  0  0
 40 52  1  0  0  0
 40 53  2  0  0  0
 40 58  1  0  0  0
 41107  1  0  0  0
 41108  1  0  0  0
 41109  1  0  0  0
 41 48  1  0  0  0
 42 43  1  0  0  0
 42 66  1  0  0  0
 42110  1  0  0  0
 42111  1  0  0  0
 43 44  1  0  0  0
 44112  1  0  0  0
 45 46  2  0  0  0
 45113  1  0  0  0
 46114  1  0  0  0
 47115  1  0  0  0
 47116  1  0  0  0
 48 56  1  0  0  0
 48 65  1  0  0  0
 48117  1  0  0  0
 49 50  1  0  0  0
 49 53  1  0  0  0
 49 64  1  0  0  0
 49118  1  0  0  0
 50 51  1  0  0  0
 50119  1  0  0  0
 50120  1  0  0  0
 51 52  1  0  0  0
 51121  1  0  0  0
 51122  1  0  0  0
 52123  1  0  0  0
 52124  1  0  0  0
 53 54  1  0  0  0
 54 55  2  0  0  0
 54125  1  0  0  0
 55 57  1  0  0  0
 55126  1  0  0  0
 56 69  2  0  0  0
 57 58  2  0  0  0
 57127  1  0  0  0
 58128  1  0  0  0
 59 60  1  0  0  0
 59 61  1  0  0  0
 59 62  1  0  0  0
 60129  1  0  0  0
 60130  1  0  0  0
 60131  1  0  0  0
 61132  1  0  0  0
 61133  1  0  0  0
 61134  1  0  0  0
 62135  1  0  0  0
 62136  1  0  0  0
 62137  1  0  0  0
 63 65  1  0  0  0
 63138  1  0  0  0
 63139  1  0  0  0
 63140  1  0  0  0
 64141  1  0  0  0
 65142  1  0  0  0
 68 79  1  0  0  0
 71 72  2  0  0  0
 71 73  1  0  0  0
 71143  1  0  0  0
 72 74  1  0  0  0
 72144  1  0  0  0
 73 76  2  0  0  0
 73 77  1  0  0  0
 74 75  2  0  0  0
 74 81  1  0  0  0
 75 76  1  0  0  0
 75 80  1  0  0  0
 76 83  1  0  0  0
 77 82  1  0  0  0
 77145  1  0  0  0
 77146  1  0  0  0
 78 79  1  0  0  0
 78 81  1  0  0  0
 78147  1  0  0  0
 78148  1  0  0  0
 79149  1  0  0  0
 79150  1  0  0  0
 80151  1  0  0  0
 80152  1  0  0  0
 81153  1  0  0  0
 82154  1  0  0  0
M  ISO  4   1 100  68 101  79 101  82 100
M  END
> <chiral flag>
0

> <version>
0

> <s_m_source_file>
/data/baiqing/PycharmProjects/Reinvent-master-3.2/result/LINK_invent/BTK/process_docking_weight1_custom_product_contain_oxygen_bond_distance_aromatic_linkinvent_7_9_3/rearranged_h_0096.sdf

> <i_m_source_file_index>
57

> <r_mmod_Potential_Energy-OPLS-2005>
-13.955961227417

> <r_mmod_Stretch_Energy-OPLS-2005>
69.008903503418

> <r_mmod_Bend_Energy-OPLS-2005>
160.873626708984

> <r_mmod_Torsional_Energy-OPLS-2005>
197.989624023438

> <r_mmod_Improper_Torsional_Energy-OPLS-2005>
11.3536701202393

> <r_mmod_Van_der_Waal_Energy-OPLS-2005>
159.293411254883

> <r_mmod_Electrostatic_Energy-OPLS-2005>
-447.829528808594

> <r_mmod_Solvation_Energy-OPLS-2005>
-213.874374389648

> <b_mmod_Minimization_Converged-OPLS-2005>
0

> <r_mmod_RMS_Derivative-OPLS-2005>
1.58862769603729

$$$$
57
                    3D
 Structure written by MMmdl.
156165  0  0  1  0            999 V2000
  -30.6102  -14.7374   20.4396 C   0  0  0  0  0  0
  -30.4183  -12.4454   19.4772 C   0  0  0  0  0  0
  -29.4999  -12.5210   18.2369 C   0  0  0  0  0  0
  -28.0274  -12.3441   18.6484 C   0  0  0  0  0  0
  -27.6394  -13.2360   19.8584 C   0  0  2  0  0  0
  -28.6838  -13.1676   20.9953 C   0  0  0  0  0  0
  -25.2478  -13.8228   20.5719 C   0  0  0  0  0  0
  -24.1769  -13.0465   20.9179 C   0  0  0  0  0  0
  -24.6369  -11.6938   20.8724 C   0  0  0  0  0  0
  -23.9049  -10.4325   21.0378 C   0  0  0  0  0  0
  -24.3611   -9.4253   21.9161 C   0  0  0  0  0  0
  -23.6287   -8.2284   22.0744 C   0  0  0  0  0  0
  -22.4272   -8.0306   21.3533 C   0  0  0  0  0  0
  -21.9898   -9.0266   20.4632 C   0  0  0  0  0  0
  -22.7216  -10.2149   20.3037 C   0  0  0  0  0  0
  -21.6864   -6.0756   22.5266 C   0  0  0  0  0  0
  -21.4026   -6.5653   23.8206 C   0  0  0  0  0  0
  -21.3660   -5.6800   24.9162 C   0  0  0  0  0  0
  -21.6038   -4.3057   24.7213 C   0  0  0  0  0  0
  -21.8823   -3.8163   23.4329 C   0  0  0  0  0  0
  -21.9194   -4.6981   22.3389 C   0  0  0  0  0  0
  -22.7799  -13.5235   21.1840 C   0  0  0  0  0  0
  -22.1643   -4.2173   21.0961 F   0  0  0  0  0  0
  -21.5632   -3.4537   25.7726 F   0  0  0  0  0  0
  -29.9915  -13.5066   20.4211 N   0  0  0  0  0  0
  -26.2907  -12.9434   20.3325 N   0  0  0  0  0  0
  -25.9294  -11.6569   20.5746 N   0  0  0  0  0  0
  -22.0477  -12.8225   22.0414 N   0  0  0  0  0  0
  -25.4211  -15.1968   20.4233 N   0  0  0  0  0  0
  -31.7791  -14.8388   20.0602 O   0  0  0  0  0  0
  -21.6638   -6.8895   21.4231 O   0  0  0  0  0  0
  -22.3467  -14.5537   20.6683 O   0  0  0  0  0  0
  -24.6363  -31.8561   23.1991 C   0  0  0  0  0  0
  -25.9178  -32.4761   23.8366 C   0  0  1  0  0  0
  -27.2082  -27.2442   20.1180 C   0  0  0  0  0  0
  -25.5967  -33.8563   24.2274 N   0  0  0  0  0  0
  -23.4331  -30.4823   21.5439 C   0  0  2  0  0  0
  -24.8783  -28.9365   20.1061 C   0  0  0  0  0  0
  -22.7521  -29.4604   22.4884 C   0  0  0  0  0  0
  -18.0301  -28.1389   22.8494 C   0  0  0  0  0  0
  -24.1500  -36.7263   23.2638 C   0  0  0  0  0  0
  -25.9856  -30.7611   21.3863 C   0  0  0  0  0  0
  -26.0548  -29.3866   20.7189 C   0  0  0  0  0  0
  -27.2241  -28.5542   20.7144 C   0  0  0  0  0  0
  -26.0106  -26.8852   19.4551 C   0  0  0  0  0  0
  -24.8615  -27.6937   19.4639 C   0  0  0  0  0  0
  -23.6542  -29.8282   20.1567 C   0  0  0  0  0  0
  -25.4130  -36.3067   24.0324 C   0  0  1  0  0  0
  -20.5912  -28.3704   23.1250 C   0  0  2  0  0  0
  -20.6787  -26.9412   22.5397 C   0  0  0  0  0  0
  -19.5751  -26.6377   21.5209 C   0  0  0  0  0  0
  -18.1933  -26.7935   22.1622 C   0  0  0  0  0  0
  -19.1561  -28.8856   23.2880 C   0  0  0  0  0  0
  -18.9469  -30.1446   23.8920 C   0  0  0  0  0  0
  -17.6462  -30.6585   24.0561 C   0  0  0  0  0  0
  -25.9069  -34.9430   23.5094 C   0  0  0  0  0  0
  -16.5359  -29.9076   23.6326 C   0  0  0  0  0  0
  -16.7286  -28.6489   23.0372 C   0  0  0  0  0  0
  -26.4540  -31.6583   25.0754 C   0  0  0  0  0  0
  -25.3748  -31.3700   26.1451 C   0  0  0  0  0  0
  -27.0370  -30.2996   24.6240 C   0  0  0  0  0  0
  -27.6143  -32.4290   25.7482 C   0  0  0  0  0  0
  -27.5589  -37.1783   24.8461 C   0  0  0  0  0  0
  -21.4220  -29.3063   22.3637 N   0  0  0  0  0  0
  -26.4305  -37.3768   23.9401 N   0  0  0  0  0  0
  -24.7045  -31.0496   22.0993 N   0  0  0  0  0  0
  -23.4202  -28.8145   23.2999 O   0  0  0  0  0  0
  -28.2661  -26.2978   20.2011 O   0  0  0  0  0  0
  -26.5621  -34.8902   22.4650 O   0  0  0  0  0  0
  -23.5497  -32.1409   23.7255 O   0  0  0  0  0  0
  -29.8394  -18.4549   17.9775 C   0  0  0  0  0  0
  -29.6210  -19.6856   18.6347 C   0  0  0  0  0  0
  -29.9581  -17.2434   18.6877 C   0  0  0  0  0  0
  -29.6290  -18.4906   20.7485 C   0  0  0  0  0  0
  -29.5084  -19.7712   20.0411 C   0  0  0  0  0  0
  -29.8595  -17.2042   20.0960 C   0  0  0  0  0  0
  -28.8098  -22.3121   20.0176 C   0  0  0  0  0  0
  -28.7194  -23.5926   20.5588 C   0  0  0  0  0  0
  -29.2460  -23.7396   21.9318 C   0  0  0  0  0  0
  -30.1054  -22.5960   22.4934 C   0  0  0  0  0  0
  -29.6490  -21.1820   22.0533 C   0  0  0  0  0  0
  -27.9391  -24.8405   19.9317 C   0  0  0  0  0  0
  -29.3128  -21.0991   20.6295 N   0  0  0  0  0  0
  -29.8666  -15.8689   20.7526 N   0  0  0  0  0  0
  -29.0362  -24.7277   22.6429 O   0  0  0  0  0  0
  -31.4607  -12.5516   19.1737 H   0  0  0  0  0  0
  -30.3394  -11.4623   19.9453 H   0  0  0  0  0  0
  -29.7769  -11.7606   17.5057 H   0  0  0  0  0  0
  -29.6276  -13.4818   17.7374 H   0  0  0  0  0  0
  -27.8774  -11.2924   18.8976 H   0  0  0  0  0  0
  -27.3688  -12.5503   17.8032 H   0  0  0  0  0  0
  -27.6363  -14.2599   19.4827 H   0  0  0  0  0  0
  -28.7093  -12.1761   21.4482 H   0  0  0  0  0  0
  -28.4167  -13.8577   21.7969 H   0  0  0  0  0  0
  -25.2767   -9.5742   22.4706 H   0  0  0  0  0  0
  -23.9996   -7.4696   22.7473 H   0  0  0  0  0  0
  -21.0824   -8.8777   19.8951 H   0  0  0  0  0  0
  -22.3661  -10.9671   19.6133 H   0  0  0  0  0  0
  -21.2020   -7.6157   23.9722 H   0  0  0  0  0  0
  -21.1460   -6.0520   25.9060 H   0  0  0  0  0  0
  -22.0596   -2.7627   23.2826 H   0  0  0  0  0  0
  -22.4089  -11.9847   22.4732 H   0  0  0  0  0  0
  -21.1102  -13.1247   22.2664 H   0  0  0  0  0  0
  -24.6628  -15.8564   20.5585 H   0  0  0  0  0  0
  -26.2846  -15.6422   20.1397 H   0  0  0  0  0  0
  -26.7247  -32.5402   23.1110 H   0  0  0  0  0  0
  -25.0153  -33.9716   25.0439 H   0  0  0  0  0  0
  -22.7348  -31.3087   21.3978 H   0  0  0  0  0  0
  -23.3793  -35.9561   23.3278 H   0  0  0  0  0  0
  -24.3610  -36.8914   22.2062 H   0  0  0  0  0  0
  -23.7214  -37.6439   23.6684 H   0  0  0  0  0  0
  -26.1350  -31.5285   20.6266 H   0  0  0  0  0  0
  -26.8608  -30.8003   22.0240 H   0  0  0  0  0  0
  -28.1224  -28.8932   21.2110 H   0  0  0  0  0  0
  -25.9151  -25.9456   18.9343 H   0  0  0  0  0  0
  -23.9624  -27.3429   18.9769 H   0  0  0  0  0  0
  -23.7885  -30.6134   19.4117 H   0  0  0  0  0  0
  -22.7736  -29.2674   19.8400 H   0  0  0  0  0  0
  -25.1319  -36.1922   25.0824 H   0  0  0  0  0  0
  -21.0019  -28.3272   24.1364 H   0  0  0  0  0  0
  -20.5665  -26.2312   23.3603 H   0  0  0  0  0  0
  -21.6654  -26.7419   22.1190 H   0  0  0  0  0  0
  -19.6910  -25.6280   21.1236 H   0  0  0  0  0  0
  -19.6697  -27.3190   20.6736 H   0  0  0  0  0  0
  -17.4206  -26.6708   21.4023 H   0  0  0  0  0  0
  -18.0331  -26.0065   22.9001 H   0  0  0  0  0  0
  -19.7935  -30.7259   24.2322 H   0  0  0  0  0  0
  -17.5002  -31.6277   24.5136 H   0  0  0  0  0  0
  -15.5354  -30.2984   23.7614 H   0  0  0  0  0  0
  -15.8691  -28.0771   22.7119 H   0  0  0  0  0  0
  -24.5958  -30.7036   25.7725 H   0  0  0  0  0  0
  -24.8896  -32.2840   26.4892 H   0  0  0  0  0  0
  -25.8053  -30.8847   27.0210 H   0  0  0  0  0  0
  -26.2941  -29.6738   24.1290 H   0  0  0  0  0  0
  -27.4074  -29.7287   25.4759 H   0  0  0  0  0  0
  -27.8821  -30.4274   23.9469 H   0  0  0  0  0  0
  -27.2859  -33.3642   26.2015 H   0  0  0  0  0  0
  -28.3972  -32.6738   25.0290 H   0  0  0  0  0  0
  -28.0786  -31.8408   26.5409 H   0  0  0  0  0  0
  -28.2586  -38.0101   24.7565 H   0  0  0  0  0  0
  -28.1114  -36.2641   24.6245 H   0  0  0  0  0  0
  -27.2296  -37.1373   25.8858 H   0  0  0  0  0  0
  -20.9386  -29.8808   21.6872 H   0  0  0  0  0  0
  -26.0181  -38.2826   24.1452 H   0  0  0  0  0  0
  -29.9106  -18.4360   16.8984 H   0  0  0  0  0  0
  -29.5557  -20.5769   18.0271 H   0  0  0  0  0  0
  -30.0938  -16.3285   18.1248 H   0  0  0  0  0  0
  -29.5372  -18.4794   21.8237 H   0  0  0  0  0  0
  -28.3549  -22.1362   19.0522 H   0  0  0  0  0  0
  -30.1229  -22.6514   23.5829 H   0  0  0  0  0  0
  -31.1289  -22.7702   22.1596 H   0  0  0  0  0  0
  -28.7752  -20.8804   22.6322 H   0  0  0  0  0  0
  -30.4480  -20.4836   22.3019 H   0  0  0  0  0  0
  -26.9357  -24.6583   20.3189 H   0  0  0  0  0  0
  -27.8802  -24.6921   18.8526 H   0  0  0  0  0  0
  -29.0457  -15.6727   21.3036 H   0  0  0  0  0  0
  1 25  1  0  0  0
  1 30  2  0  0  0
  1 84  1  0  0  0
  2  3  1  0  0  0
  2 25  1  0  0  0
  2 86  1  0  0  0
  2 87  1  0  0  0
  3  4  1  0  0  0
  3 88  1  0  0  0
  3 89  1  0  0  0
  4  5  1  0  0  0
  4 90  1  0  0  0
  4 91  1  0  0  0
  5  6  1  0  0  0
  5 26  1  0  0  0
  5 92  1  0  0  0
  6 25  1  0  0  0
  6 93  1  0  0  0
  6 94  1  0  0  0
  7  8  2  0  0  0
  7 26  1  0  0  0
  7 29  1  0  0  0
  8  9  1  0  0  0
  8 22  1  0  0  0
  9 10  1  0  0  0
  9 27  2  0  0  0
 10 11  2  0  0  0
 10 15  1  0  0  0
 11 12  1  0  0  0
 11 95  1  0  0  0
 12 13  2  0  0  0
 12 96  1  0  0  0
 13 14  1  0  0  0
 13 31  1  0  0  0
 14 15  2  0  0  0
 14 97  1  0  0  0
 15 98  1  0  0  0
 16 17  2  0  0  0
 16 21  1  0  0  0
 16 31  1  0  0  0
 17 18  1  0  0  0
 17 99  1  0  0  0
 18 19  2  0  0  0
 18100  1  0  0  0
 19 20  1  0  0  0
 19 24  1  0  0  0
 20 21  2  0  0  0
 20101  1  0  0  0
 21 23  1  0  0  0
 22 28  1  0  0  0
 22 32  2  0  0  0
 26 27  1  0  0  0
 28102  1  0  0  0
 28103  1  0  0  0
 29104  1  0  0  0
 29105  1  0  0  0
 33 34  1  0  0  0
 33 66  1  0  0  0
 33 70  2  0  0  0
 34 36  1  0  0  0
 34 59  1  0  0  0
 34106  1  0  0  0
 35 44  2  0  0  0
 35 45  1  0  0  0
 35 68  1  0  0  0
 36 56  1  0  0  0
 36107  1  0  0  0
 37 39  1  0  0  0
 37 47  1  0  0  0
 37 66  1  0  0  0
 37108  1  0  0  0
 38 43  2  0  0  0
 38 46  1  0  0  0
 38 47  1  0  0  0
 39 64  1  0  0  0
 39 67  2  0  0  0
 40 52  1  0  0  0
 40 53  2  0  0  0
 40 58  1  0  0  0
 41109  1  0  0  0
 41110  1  0  0  0
 41111  1  0  0  0
 41 48  1  0  0  0
 42 43  1  0  0  0
 42 66  1  0  0  0
 42112  1  0  0  0
 42113  1  0  0  0
 43 44  1  0  0  0
 44114  1  0  0  0
 45 46  2  0  0  0
 45115  1  0  0  0
 46116  1  0  0  0
 47117  1  0  0  0
 47118  1  0  0  0
 48 56  1  0  0  0
 48 65  1  0  0  0
 48119  1  0  0  0
 49 50  1  0  0  0
 49 53  1  0  0  0
 49 64  1  0  0  0
 49120  1  0  0  0
 50 51  1  0  0  0
 50121  1  0  0  0
 50122  1  0  0  0
 51 52  1  0  0  0
 51123  1  0  0  0
 51124  1  0  0  0
 52125  1  0  0  0
 52126  1  0  0  0
 53 54  1  0  0  0
 54 55  2  0  0  0
 54127  1  0  0  0
 55 57  1  0  0  0
 55128  1  0  0  0
 56 69  2  0  0  0
 57 58  2  0  0  0
 57129  1  0  0  0
 58130  1  0  0  0
 59 60  1  0  0  0
 59 61  1  0  0  0
 59 62  1  0  0  0
 60131  1  0  0  0
 60132  1  0  0  0
 60133  1  0  0  0
 61134  1  0  0  0
 61135  1  0  0  0
 61136  1  0  0  0
 62137  1  0  0  0
 62138  1  0  0  0
 62139  1  0  0  0
 63 65  1  0  0  0
 63140  1  0  0  0
 63141  1  0  0  0
 63142  1  0  0  0
 64143  1  0  0  0
 65144  1  0  0  0
 68 82  1  0  0  0
 71 72  2  0  0  0
 71 73  1  0  0  0
 71145  1  0  0  0
 72 75  1  0  0  0
 72146  1  0  0  0
 73 76  2  0  0  0
 73147  1  0  0  0
 74 75  2  0  0  0
 74 76  1  0  0  0
 74148  1  0  0  0
 75 83  1  0  0  0
 76 84  1  0  0  0
 77 78  2  0  0  0
 77 83  1  0  0  0
 77149  1  0  0  0
 78 79  1  0  0  0
 78 82  1  0  0  0
 79 80  1  0  0  0
 79 85  2  0  0  0
 80 81  1  0  0  0
 80150  1  0  0  0
 80151  1  0  0  0
 81 83  1  0  0  0
 81152  1  0  0  0
 81153  1  0  0  0
 82154  1  0  0  0
 82155  1  0  0  0
 84156  1  0  0  0
M  ISO  4   1 100  68 101  82 101  84 100
M  END
> <chiral flag>
0

> <version>
0

> <s_m_source_file>
/data/baiqing/PycharmProjects/Reinvent-master-3.2/result/LINK_invent/BTK/process_docking_weight1_custom_product_contain_oxygen_bond_distance_aromatic_linkinvent_7_9_3/rearranged_h_0096.sdf

> <i_m_source_file_index>
58

> <r_mmod_Potential_Energy-OPLS-2005>
204.896408081055

> <r_mmod_Stretch_Energy-OPLS-2005>
133.683822631836

> <r_mmod_Bend_Energy-OPLS-2005>
160.248077392578

> <r_mmod_Torsional_Energy-OPLS-2005>
217.657867431641

> <r_mmod_Improper_Torsional_Energy-OPLS-2005>
4.91166353225708

> <r_mmod_Van_der_Waal_Energy-OPLS-2005>
158.005142211914

> <r_mmod_Electrostatic_Energy-OPLS-2005>
-328.106689453125

> <r_mmod_Solvation_Energy-OPLS-2005>
-235.080841064453

> <b_mmod_Minimization_Converged-OPLS-2005>
0

> <r_mmod_RMS_Derivative-OPLS-2005>
3.25997447967529

$$$$
58
                    3D
 Structure written by MMmdl.
159168  0  0  1  0            999 V2000
  -30.6691  -14.6570   20.6025 C   0  0  0  0  0  0
  -30.4297  -12.4325   19.4631 C   0  0  0  0  0  0
  -29.5060  -12.5301   18.2297 C   0  0  0  0  0  0
  -28.0323  -12.3456   18.6356 C   0  0  0  0  0  0
  -27.6474  -13.2202   19.8546 C   0  0  2  0  0  0
  -28.6795  -13.0818   20.9883 C   0  0  0  0  0  0
  -25.2534  -13.8176   20.5668 C   0  0  0  0  0  0
  -24.1808  -13.0436   20.9173 C   0  0  0  0  0  0
  -24.6380  -11.6911   20.8714 C   0  0  0  0  0  0
  -23.9054  -10.4294   21.0397 C   0  0  0  0  0  0
  -24.3610   -9.4214   21.9175 C   0  0  0  0  0  0
  -23.6290   -8.2249   22.0753 C   0  0  0  0  0  0
  -22.4270   -8.0282   21.3546 C   0  0  0  0  0  0
  -21.9899   -9.0253   20.4650 C   0  0  0  0  0  0
  -22.7224  -10.2134   20.3055 C   0  0  0  0  0  0
  -21.6853   -6.0737   22.5281 C   0  0  0  0  0  0
  -21.4013   -6.5641   23.8215 C   0  0  0  0  0  0
  -21.3662   -5.6793   24.9180 C   0  0  0  0  0  0
  -21.6047   -4.3057   24.7231 C   0  0  0  0  0  0
  -21.8816   -3.8147   23.4351 C   0  0  0  0  0  0
  -21.9191   -4.6962   22.3405 C   0  0  0  0  0  0
  -22.7837  -13.5230   21.1866 C   0  0  0  0  0  0
  -22.1658   -4.2148   21.0984 F   0  0  0  0  0  0
  -21.5633   -3.4541   25.7743 F   0  0  0  0  0  0
  -30.0034  -13.4520   20.4524 N   0  0  0  0  0  0
  -26.2944  -12.9359   20.3238 N   0  0  0  0  0  0
  -25.9299  -11.6511   20.5691 N   0  0  0  0  0  0
  -22.0498  -12.8212   22.0431 N   0  0  0  0  0  0
  -25.4266  -15.1899   20.4141 N   0  0  0  0  0  0
  -31.7472  -14.8347   20.0243 O   0  0  0  0  0  0
  -21.6638   -6.8877   21.4244 O   0  0  0  0  0  0
  -22.3516  -14.5543   20.6730 O   0  0  0  0  0  0
  -24.6283  -31.8582   23.2008 C   0  0  0  0  0  0
  -25.9121  -32.4773   23.8344 C   0  0  1  0  0  0
  -27.2202  -27.2974   20.1274 C   0  0  0  0  0  0
  -25.5924  -33.8573   24.2271 N   0  0  0  0  0  0
  -23.4241  -30.4813   21.5433 C   0  0  2  0  0  0
  -24.8729  -28.9342   20.1100 C   0  0  0  0  0  0
  -22.7489  -29.4615   22.4919 C   0  0  0  0  0  0
  -18.0287  -28.1389   22.8483 C   0  0  0  0  0  0
  -24.1490  -36.7299   23.2634 C   0  0  0  0  0  0
  -25.9671  -30.7828   21.3756 C   0  0  0  0  0  0
  -26.0429  -29.4081   20.7187 C   0  0  0  0  0  0
  -27.2238  -28.6023   20.7164 C   0  0  0  0  0  0
  -26.0340  -26.8872   19.4827 C   0  0  0  0  0  0
  -24.8713  -27.6798   19.4807 C   0  0  0  0  0  0
  -23.6417  -29.8171   20.1585 C   0  0  0  0  0  0
  -25.4114  -36.3083   24.0325 C   0  0  1  0  0  0
  -20.5890  -28.3699   23.1273 C   0  0  2  0  0  0
  -20.6780  -26.9421   22.5405 C   0  0  0  0  0  0
  -19.5752  -26.6389   21.5213 C   0  0  0  0  0  0
  -18.1938  -26.7926   22.1635 C   0  0  0  0  0  0
  -19.1541  -28.8859   23.2874 C   0  0  0  0  0  0
  -18.9462  -30.1458   23.8897 C   0  0  0  0  0  0
  -17.6461  -30.6586   24.0566 C   0  0  0  0  0  0
  -25.9052  -34.9452   23.5100 C   0  0  0  0  0  0
  -16.5354  -29.9087   23.6327 C   0  0  0  0  0  0
  -16.7274  -28.6507   23.0344 C   0  0  0  0  0  0
  -26.4495  -31.6585   25.0722 C   0  0  0  0  0  0
  -25.3726  -31.3743   26.1453 C   0  0  0  0  0  0
  -27.0319  -30.2994   24.6196 C   0  0  0  0  0  0
  -27.6063  -32.4313   25.7485 C   0  0  0  0  0  0
  -27.5581  -37.1800   24.8463 C   0  0  0  0  0  0
  -21.4201  -29.3047   22.3662 N   0  0  0  0  0  0
  -26.4291  -37.3780   23.9410 N   0  0  0  0  0  0
  -24.6920  -31.0574   22.0970 N   0  0  0  0  0  0
  -23.4201  -28.8153   23.3007 O   0  0  0  0  0  0
  -28.2997  -26.3965   20.1556 O   0  0  0  0  0  0
  -26.5626  -34.8920   22.4671 O   0  0  0  0  0  0
  -23.5439  -32.1393   23.7320 O   0  0  0  0  0  0
  -30.1579  -15.0177   23.9179 C   0  0  0  0  0  0
  -30.1651  -15.3282   22.7360 C   0  0  0  0  0  0
  -29.6123  -19.0026   19.4540 C   0  0  0  0  0  0
  -29.6292  -19.4998   21.7861 C   0  0  0  0  0  0
  -29.8238  -17.6071   19.7338 C   0  0  0  0  0  0
  -29.8337  -18.1154   22.0660 C   0  0  0  0  0  0
  -29.5810  -23.5180   19.2148 C   0  0  0  0  0  0
  -28.7127  -23.7310   20.3273 C   0  0  0  0  0  0
  -29.5133  -20.0068   20.4680 C   0  0  0  0  0  0
  -29.9503  -17.0968   21.0605 C   0  0  0  0  0  0
  -29.9370  -22.1885   19.1592 C   0  0  0  0  0  0
  -28.6048  -22.4505   20.8844 C   0  0  0  0  0  0
  -30.1186  -14.6263   25.3336 C   0  0  0  0  0  0
  -28.0189  -25.0769   20.7927 C   0  0  0  0  0  0
  -29.3475  -21.4555   20.1909 N   0  0  0  0  0  0
  -30.1451  -15.6525   21.4153 N   0  0  0  0  0  0
  -30.7658  -21.5887   18.2601 O   0  0  0  0  0  0
  -27.8744  -22.0844   21.9759 O   0  0  0  0  0  0
  -31.4712  -12.5555   19.1615 H   0  0  0  0  0  0
  -30.3707  -11.4362   19.9046 H   0  0  0  0  0  0
  -29.7853  -11.7801   17.4887 H   0  0  0  0  0  0
  -29.6351  -13.5010   17.7486 H   0  0  0  0  0  0
  -27.8848  -11.2919   18.8764 H   0  0  0  0  0  0
  -27.3752  -12.5594   17.7917 H   0  0  0  0  0  0
  -27.6672  -14.2564   19.5152 H   0  0  0  0  0  0
  -28.7000  -12.0596   21.3685 H   0  0  0  0  0  0
  -28.3582  -13.6968   21.8252 H   0  0  0  0  0  0
  -25.2763   -9.5694   22.4741 H   0  0  0  0  0  0
  -24.0008   -7.4640   22.7469 H   0  0  0  0  0  0
  -21.0831   -8.8766   19.8955 H   0  0  0  0  0  0
  -22.3675  -10.9671   19.6164 H   0  0  0  0  0  0
  -21.2000   -7.6147   23.9714 H   0  0  0  0  0  0
  -21.1490   -6.0528   25.9081 H   0  0  0  0  0  0
  -22.0592   -2.7609   23.2851 H   0  0  0  0  0  0
  -22.4129  -11.9869   22.4795 H   0  0  0  0  0  0
  -21.1123  -13.1232   22.2670 H   0  0  0  0  0  0
  -24.6668  -15.8499   20.5402 H   0  0  0  0  0  0
  -26.2911  -15.6318   20.1273 H   0  0  0  0  0  0
  -26.7187  -32.5438   23.1089 H   0  0  0  0  0  0
  -25.0051  -33.9712   25.0401 H   0  0  0  0  0  0
  -22.7193  -31.3026   21.3989 H   0  0  0  0  0  0
  -23.3751  -35.9632   23.3289 H   0  0  0  0  0  0
  -24.3585  -36.8928   22.2050 H   0  0  0  0  0  0
  -23.7242  -37.6499   23.6660 H   0  0  0  0  0  0
  -26.0993  -31.5445   20.6059 H   0  0  0  0  0  0
  -26.8467  -30.8337   22.0056 H   0  0  0  0  0  0
  -28.1203  -28.9592   21.2041 H   0  0  0  0  0  0
  -25.9966  -25.9255   18.9904 H   0  0  0  0  0  0
  -23.9770  -27.3145   18.9947 H   0  0  0  0  0  0
  -23.7644  -30.5944   19.4030 H   0  0  0  0  0  0
  -22.7614  -29.2484   19.8538 H   0  0  0  0  0  0
  -25.1291  -36.1934   25.0817 H   0  0  0  0  0  0
  -20.9985  -28.3275   24.1393 H   0  0  0  0  0  0
  -20.5693  -26.2307   23.3607 H   0  0  0  0  0  0
  -21.6647  -26.7455   22.1190 H   0  0  0  0  0  0
  -19.6919  -25.6302   21.1237 H   0  0  0  0  0  0
  -19.6681  -27.3201   20.6745 H   0  0  0  0  0  0
  -17.4200  -26.6649   21.4051 H   0  0  0  0  0  0
  -18.0362  -26.0076   22.9047 H   0  0  0  0  0  0
  -19.7937  -30.7273   24.2272 H   0  0  0  0  0  0
  -17.5015  -31.6266   24.5171 H   0  0  0  0  0  0
  -15.5355  -30.2991   23.7648 H   0  0  0  0  0  0
  -15.8673  -28.0826   22.7057 H   0  0  0  0  0  0
  -24.5860  -30.7146   25.7773 H   0  0  0  0  0  0
  -24.8971  -32.2923   26.4917 H   0  0  0  0  0  0
  -25.8035  -30.8868   27.0207 H   0  0  0  0  0  0
  -26.2886  -29.6755   24.1216 H   0  0  0  0  0  0
  -27.3985  -29.7247   25.4712 H   0  0  0  0  0  0
  -27.8779  -30.4250   23.9434 H   0  0  0  0  0  0
  -27.2687  -33.3622   26.2052 H   0  0  0  0  0  0
  -28.3875  -32.6856   25.0309 H   0  0  0  0  0  0
  -28.0729  -31.8443   26.5407 H   0  0  0  0  0  0
  -28.2591  -38.0105   24.7519 H   0  0  0  0  0  0
  -28.1083  -36.2636   24.6273 H   0  0  0  0  0  0
  -27.2303  -37.1434   25.8866 H   0  0  0  0  0  0
  -20.9388  -29.8766   21.6863 H   0  0  0  0  0  0
  -26.0173  -38.2853   24.1419 H   0  0  0  0  0  0
  -29.5312  -19.3055   18.4202 H   0  0  0  0  0  0
  -29.5708  -20.1881   22.6167 H   0  0  0  0  0  0
  -29.8856  -16.9265   18.8967 H   0  0  0  0  0  0
  -29.9067  -17.8664   23.1141 H   0  0  0  0  0  0
  -29.9111  -24.2797   18.5218 H   0  0  0  0  0  0
  -29.4215  -15.2669   25.8742 H   0  0  0  0  0  0
  -31.1111  -14.7241   25.7738 H   0  0  0  0  0  0
  -29.7888  -13.5908   25.4206 H   0  0  0  0  0  0
  -28.2739  -25.1996   21.8458 H   0  0  0  0  0  0
  -26.9498  -24.8652   20.7970 H   0  0  0  0  0  0
  -31.0603  -22.2540   17.6459 H   0  0  0  0  0  0
  -27.4727  -22.8640   22.3443 H   0  0  0  0  0  0
  1 25  1  0  0  0
  1 30  2  0  0  0
  1 86  1  0  0  0
  2  3  1  0  0  0
  2 25  1  0  0  0
  2 89  1  0  0  0
  2 90  1  0  0  0
  3  4  1  0  0  0
  3 91  1  0  0  0
  3 92  1  0  0  0
  4  5  1  0  0  0
  4 93  1  0  0  0
  4 94  1  0  0  0
  5  6  1  0  0  0
  5 26  1  0  0  0
  5 95  1  0  0  0
  6 25  1  0  0  0
  6 96  1  0  0  0
  6 97  1  0  0  0
  7  8  2  0  0  0
  7 26  1  0  0  0
  7 29  1  0  0  0
  8  9  1  0  0  0
  8 22  1  0  0  0
  9 10  1  0  0  0
  9 27  2  0  0  0
 10 11  2  0  0  0
 10 15  1  0  0  0
 11 12  1  0  0  0
 11 98  1  0  0  0
 12 13  2  0  0  0
 12 99  1  0  0  0
 13 14  1  0  0  0
 13 31  1  0  0  0
 14 15  2  0  0  0
 14100  1  0  0  0
 15101  1  0  0  0
 16 17  2  0  0  0
 16 21  1  0  0  0
 16 31  1  0  0  0
 17 18  1  0  0  0
 17102  1  0  0  0
 18 19  2  0  0  0
 18103  1  0  0  0
 19 20  1  0  0  0
 19 24  1  0  0  0
 20 21  2  0  0  0
 20104  1  0  0  0
 21 23  1  0  0  0
 22 28  1  0  0  0
 22 32  2  0  0  0
 26 27  1  0  0  0
 28105  1  0  0  0
 28106  1  0  0  0
 29107  1  0  0  0
 29108  1  0  0  0
 33 34  1  0  0  0
 33 66  1  0  0  0
 33 70  2  0  0  0
 34 36  1  0  0  0
 34 59  1  0  0  0
 34109  1  0  0  0
 35 44  2  0  0  0
 35 45  1  0  0  0
 35 68  1  0  0  0
 36 56  1  0  0  0
 36110  1  0  0  0
 37 39  1  0  0  0
 37 47  1  0  0  0
 37 66  1  0  0  0
 37111  1  0  0  0
 38 43  2  0  0  0
 38 46  1  0  0  0
 38 47  1  0  0  0
 39 64  1  0  0  0
 39 67  2  0  0  0
 40 52  1  0  0  0
 40 53  2  0  0  0
 40 58  1  0  0  0
 41112  1  0  0  0
 41113  1  0  0  0
 41114  1  0  0  0
 41 48  1  0  0  0
 42 43  1  0  0  0
 42 66  1  0  0  0
 42115  1  0  0  0
 42116  1  0  0  0
 43 44  1  0  0  0
 44117  1  0  0  0
 45 46  2  0  0  0
 45118  1  0  0  0
 46119  1  0  0  0
 47120  1  0  0  0
 47121  1  0  0  0
 48 56  1  0  0  0
 48 65  1  0  0  0
 48122  1  0  0  0
 49 50  1  0  0  0
 49 53  1  0  0  0
 49 64  1  0  0  0
 49123  1  0  0  0
 50 51  1  0  0  0
 50124  1  0  0  0
 50125  1  0  0  0
 51 52  1  0  0  0
 51126  1  0  0  0
 51127  1  0  0  0
 52128  1  0  0  0
 52129  1  0  0  0
 53 54  1  0  0  0
 54 55  2  0  0  0
 54130  1  0  0  0
 55 57  1  0  0  0
 55131  1  0  0  0
 56 69  2  0  0  0
 57 58  2  0  0  0
 57132  1  0  0  0
 58133  1  0  0  0
 59 60  1  0  0  0
 59 61  1  0  0  0
 59 62  1  0  0  0
 60134  1  0  0  0
 60135  1  0  0  0
 60136  1  0  0  0
 61137  1  0  0  0
 61138  1  0  0  0
 61139  1  0  0  0
 62140  1  0  0  0
 62141  1  0  0  0
 62142  1  0  0  0
 63 65  1  0  0  0
 63143  1  0  0  0
 63144  1  0  0  0
 63145  1  0  0  0
 64146  1  0  0  0
 65147  1  0  0  0
 68 84  1  0  0  0
 71 72  3  0  0  0
 71 83  1  0  0  0
 72 86  1  0  0  0
 73 75  2  0  0  0
 73 79  1  0  0  0
 73148  1  0  0  0
 74 76  1  0  0  0
 74 79  2  0  0  0
 74149  1  0  0  0
 75 80  1  0  0  0
 75150  1  0  0  0
 76 80  2  0  0  0
 76151  1  0  0  0
 77 78  1  0  0  0
 77 81  2  0  0  0
 77152  1  0  0  0
 78 82  2  0  0  0
 78 84  1  0  0  0
 79 85  1  0  0  0
 80 86  1  0  0  0
 81 85  1  0  0  0
 81 87  1  0  0  0
 82 85  1  0  0  0
 82 88  1  0  0  0
 83153  1  0  0  0
 83154  1  0  0  0
 83155  1  0  0  0
 84156  1  0  0  0
 84157  1  0  0  0
 87158  1  0  0  0
 88159  1  0  0  0
M  ISO  4   1 100  68 101  84 101  86 100
M  END
> <chiral flag>
0

> <version>
0

> <s_m_source_file>
/data/baiqing/PycharmProjects/Reinvent-master-3.2/result/LINK_invent/BTK/process_docking_weight1_custom_product_contain_oxygen_bond_distance_aromatic_linkinvent_7_9_3/rearranged_h_0096.sdf

> <i_m_source_file_index>
59

> <r_mmod_Potential_Energy-OPLS-2005>
265.787841796875

> <r_mmod_Stretch_Energy-OPLS-2005>
106.558128356934

> <r_mmod_Bend_Energy-OPLS-2005>
158.829086303711

> <r_mmod_Torsional_Energy-OPLS-2005>
301.661193847656

> <r_mmod_Improper_Torsional_Energy-OPLS-2005>
2.56876564025879

> <r_mmod_Van_der_Waal_Energy-OPLS-2005>
151.725372314453

> <r_mmod_Electrostatic_Energy-OPLS-2005>
-301.406555175781

> <r_mmod_Solvation_Energy-OPLS-2005>
-211.929214477539

> <b_mmod_Minimization_Converged-OPLS-2005>
0

> <r_mmod_RMS_Derivative-OPLS-2005>
0.777703762054443

$$$$
59
                    3D
 Structure written by MMmdl.
163172  0  0  1  0            999 V2000
  -30.8057  -14.4552   20.5314 C   0  0  0  0  0  0
  -30.3882  -12.2900   19.4182 C   0  0  0  0  0  0
  -29.4746  -12.4443   18.1882 C   0  0  0  0  0  0
  -27.9943  -12.3385   18.6103 C   0  0  0  0  0  0
  -27.6428  -13.2257   19.8389 C   0  0  2  0  0  0
  -28.6982  -13.0945   20.9630 C   0  0  0  0  0  0
  -25.2522  -13.8253   20.5748 C   0  0  0  0  0  0
  -24.1776  -13.0491   20.9158 C   0  0  0  0  0  0
  -24.6323  -11.6967   20.8623 C   0  0  0  0  0  0
  -23.9012  -10.4323   21.0335 C   0  0  0  0  0  0
  -24.3595   -9.4245   21.9109 C   0  0  0  0  0  0
  -23.6289   -8.2279   22.0710 C   0  0  0  0  0  0
  -22.4281   -8.0271   21.3515 C   0  0  0  0  0  0
  -21.9900   -9.0220   20.4594 C   0  0  0  0  0  0
  -22.7170  -10.2129   20.2989 C   0  0  0  0  0  0
  -21.6877   -6.0698   22.5242 C   0  0  0  0  0  0
  -21.4042   -6.5616   23.8180 C   0  0  0  0  0  0
  -21.3635   -5.6747   24.9134 C   0  0  0  0  0  0
  -21.6038   -4.3014   24.7185 C   0  0  0  0  0  0
  -21.8848   -3.8113   23.4302 C   0  0  0  0  0  0
  -21.9244   -4.6939   22.3362 C   0  0  0  0  0  0
  -22.7782  -13.5276   21.1832 C   0  0  0  0  0  0
  -22.1719   -4.2118   21.0926 F   0  0  0  0  0  0
  -21.5595   -3.4490   25.7698 F   0  0  0  0  0  0
  -30.0250  -13.3453   20.3776 N   0  0  0  0  0  0
  -26.2931  -12.9453   20.3277 N   0  0  0  0  0  0
  -25.9251  -11.6596   20.5642 N   0  0  0  0  0  0
  -22.0473  -12.8232   22.0389 N   0  0  0  0  0  0
  -25.4250  -15.2002   20.4472 N   0  0  0  0  0  0
  -31.9729  -14.4676   20.1375 O   0  0  0  0  0  0
  -21.6686   -6.8830   21.4202 O   0  0  0  0  0  0
  -22.3464  -14.5572   20.6673 O   0  0  0  0  0  0
  -24.6204  -31.8649   23.2102 C   0  0  0  0  0  0
  -25.9085  -32.4805   23.8421 C   0  0  1  0  0  0
  -27.2279  -27.3875   20.0898 C   0  0  0  0  0  0
  -25.5914  -33.8604   24.2357 N   0  0  0  0  0  0
  -23.4121  -30.4882   21.5512 C   0  0  2  0  0  0
  -24.8541  -28.9526   20.1178 C   0  0  0  0  0  0
  -22.7453  -29.4642   22.5008 C   0  0  0  0  0  0
  -18.0260  -28.1395   22.8513 C   0  0  0  0  0  0
  -24.1463  -36.7292   23.2634 C   0  0  0  0  0  0
  -25.9469  -30.8134   21.3680 C   0  0  0  0  0  0
  -26.0198  -29.4459   20.7149 C   0  0  0  0  0  0
  -27.2102  -28.6714   20.6987 C   0  0  0  0  0  0
  -26.0325  -26.9248   19.4808 C   0  0  0  0  0  0
  -24.8597  -27.6980   19.4958 C   0  0  0  0  0  0
  -23.6205  -29.8265   20.1650 C   0  0  0  0  0  0
  -25.4088  -36.3105   24.0348 C   0  0  1  0  0  0
  -20.5856  -28.3690   23.1309 C   0  0  2  0  0  0
  -20.6732  -26.9417   22.5417 C   0  0  0  0  0  0
  -19.5699  -26.6404   21.5224 C   0  0  0  0  0  0
  -18.1886  -26.7944   22.1647 C   0  0  0  0  0  0
  -19.1516  -28.8873   23.2910 C   0  0  0  0  0  0
  -18.9438  -30.1476   23.8940 C   0  0  0  0  0  0
  -17.6443  -30.6603   24.0573 C   0  0  0  0  0  0
  -25.9047  -34.9459   23.5171 C   0  0  0  0  0  0
  -16.5336  -29.9112   23.6314 C   0  0  0  0  0  0
  -16.7261  -28.6511   23.0377 C   0  0  0  0  0  0
  -26.4498  -31.6587   25.0756 C   0  0  0  0  0  0
  -25.3794  -31.3663   26.1534 C   0  0  0  0  0  0
  -27.0298  -30.3022   24.6118 C   0  0  0  0  0  0
  -27.6101  -32.4291   25.7509 C   0  0  0  0  0  0
  -27.5577  -37.1789   24.8472 C   0  0  0  0  0  0
  -21.4170  -29.3053   22.3726 N   0  0  0  0  0  0
  -26.4273  -37.3789   23.9444 N   0  0  0  0  0  0
  -24.6796  -31.0703   22.1021 N   0  0  0  0  0  0
  -23.4217  -28.8159   23.3034 O   0  0  0  0  0  0
  -28.3882  -26.6209   20.0994 O   0  0  0  0  0  0
  -26.5580  -34.8915   22.4719 O   0  0  0  0  0  0
  -23.5378  -32.1443   23.7445 O   0  0  0  0  0  0
  -29.1130  -19.7628   19.5222 C   0  0  0  0  0  0
  -29.2487  -18.3489   19.7563 C   0  0  0  0  0  0
  -30.2787  -18.0502   20.6227 C   0  0  0  0  0  0
  -30.1096  -20.5308   20.0846 C   0  0  0  0  0  0
  -32.0519  -24.6766   19.3690 C   0  0  0  0  0  0
  -30.8606  -16.7688   21.1355 C   0  0  0  0  0  0
  -32.5310  -23.2569   19.6650 C   0  0  0  0  0  0
  -30.6091  -24.9035   18.9330 C   0  0  0  0  0  0
  -31.6307  -22.1374   19.1183 C   0  0  0  0  0  0
  -29.2746  -22.8367   19.7228 C   0  0  0  0  0  0
  -29.5644  -24.3666   19.9289 C   0  0  2  0  0  0
  -28.3891  -17.3217   19.0723 C   0  0  0  0  0  0
  -28.2660  -25.2111   19.7719 C   0  0  0  0  0  0
  -30.4067  -21.9008   19.8990 N   0  0  0  0  0  0
  -30.2020  -15.6089   20.8874 N   0  0  0  0  0  0
  -32.8272  -25.6315   19.4550 O   0  0  0  0  0  0
  -31.9243  -16.8024   21.7670 O   0  0  0  0  0  0
  -31.1696  -19.5122   21.0315 S   0  0  0  0  0  0
  -31.4366  -12.3145   19.1112 H   0  0  0  0  0  0
  -30.2383  -11.3098   19.8721 H   0  0  0  0  0  0
  -29.6964  -11.6621   17.4566 H   0  0  0  0  0  0
  -29.6680  -13.3951   17.6841 H   0  0  0  0  0  0
  -27.7960  -11.2889   18.8409 H   0  0  0  0  0  0
  -27.3409  -12.5724   17.7674 H   0  0  0  0  0  0
  -27.6528  -14.2558   19.4844 H   0  0  0  0  0  0
  -28.6679  -12.0874   21.3781 H   0  0  0  0  0  0
  -28.4851  -13.7751   21.7893 H   0  0  0  0  0  0
  -25.2750   -9.5800   22.4637 H   0  0  0  0  0  0
  -23.9976   -7.4738   22.7503 H   0  0  0  0  0  0
  -21.0804   -8.8708   19.8940 H   0  0  0  0  0  0
  -22.3550  -10.9645   19.6098 H   0  0  0  0  0  0
  -21.2034   -7.6133   23.9654 H   0  0  0  0  0  0
  -21.1424   -6.0465   25.9009 H   0  0  0  0  0  0
  -22.0665   -2.7580   23.2787 H   0  0  0  0  0  0
  -22.4137  -11.9926   22.4759 H   0  0  0  0  0  0
  -21.1048  -13.1210   22.2598 H   0  0  0  0  0  0
  -24.6754  -15.8550   20.6424 H   0  0  0  0  0  0
  -26.3181  -15.6534   20.3231 H   0  0  0  0  0  0
  -26.7157  -32.5475   23.1176 H   0  0  0  0  0  0
  -25.0049  -33.9757   25.0495 H   0  0  0  0  0  0
  -22.6999  -31.3040   21.4080 H   0  0  0  0  0  0
  -23.3740  -35.9617   23.3330 H   0  0  0  0  0  0
  -24.3531  -36.8866   22.2041 H   0  0  0  0  0  0
  -23.7213  -37.6505   23.6632 H   0  0  0  0  0  0
  -26.0557  -31.5751   20.5960 H   0  0  0  0  0  0
  -26.8352  -30.8727   21.9837 H   0  0  0  0  0  0
  -28.1082  -29.0460   21.1694 H   0  0  0  0  0  0
  -25.9694  -25.9666   18.9826 H   0  0  0  0  0  0
  -23.9644  -27.3208   19.0232 H   0  0  0  0  0  0
  -23.7302  -30.6008   19.4041 H   0  0  0  0  0  0
  -22.7459  -29.2427   19.8740 H   0  0  0  0  0  0
  -25.1239  -36.1989   25.0832 H   0  0  0  0  0  0
  -20.9942  -28.3276   24.1437 H   0  0  0  0  0  0
  -20.5612  -26.2316   23.3630 H   0  0  0  0  0  0
  -21.6590  -26.7410   22.1216 H   0  0  0  0  0  0
  -19.6849  -25.6327   21.1232 H   0  0  0  0  0  0
  -19.6629  -27.3237   20.6776 H   0  0  0  0  0  0
  -17.4143  -26.6726   21.4066 H   0  0  0  0  0  0
  -18.0284  -26.0074   22.9029 H   0  0  0  0  0  0
  -19.7916  -30.7262   24.2348 H   0  0  0  0  0  0
  -17.4993  -31.6276   24.5178 H   0  0  0  0  0  0
  -15.5343  -30.3027   23.7609 H   0  0  0  0  0  0
  -15.8650  -28.0824   22.7117 H   0  0  0  0  0  0
  -24.6020  -30.6921   25.7924 H   0  0  0  0  0  0
  -24.8906  -32.2766   26.5014 H   0  0  0  0  0  0
  -25.8188  -30.8877   27.0302 H   0  0  0  0  0  0
  -26.2824  -29.6815   24.1156 H   0  0  0  0  0  0
  -27.4061  -29.7210   25.4551 H   0  0  0  0  0  0
  -27.8674  -30.4336   23.9263 H   0  0  0  0  0  0
  -27.2767  -33.3594   26.2131 H   0  0  0  0  0  0
  -28.3884  -32.6849   25.0306 H   0  0  0  0  0  0
  -28.0820  -31.8399   26.5387 H   0  0  0  0  0  0
  -28.2580  -38.0091   24.7499 H   0  0  0  0  0  0
  -28.1065  -36.2616   24.6300 H   0  0  0  0  0  0
  -27.2276  -37.1444   25.8861 H   0  0  0  0  0  0
  -20.9400  -29.8816   21.6936 H   0  0  0  0  0  0
  -26.0167  -38.2863   24.1485 H   0  0  0  0  0  0
  -28.3354  -20.1583   18.8807 H   0  0  0  0  0  0
  -32.6988  -23.1380   20.7363 H   0  0  0  0  0  0
  -33.5074  -23.1745   19.1866 H   0  0  0  0  0  0
  -30.4502  -24.4854   17.9393 H   0  0  0  0  0  0
  -30.4822  -25.9812   18.8233 H   0  0  0  0  0  0
  -32.2380  -21.2315   19.0611 H   0  0  0  0  0  0
  -31.3687  -22.3447   18.0777 H   0  0  0  0  0  0
  -28.8472  -22.6781   18.7316 H   0  0  0  0  0  0
  -28.5011  -22.5333   20.4334 H   0  0  0  0  0  0
  -29.9261  -24.5212   20.9480 H   0  0  0  0  0  0
  -28.9977  -16.5913   18.5338 H   0  0  0  0  0  0
  -27.7251  -17.7783   18.3385 H   0  0  0  0  0  0
  -27.7630  -16.7849   19.7827 H   0  0  0  0  0  0
  -27.4928  -24.7623   20.4008 H   0  0  0  0  0  0
  -27.9410  -25.1172   18.7352 H   0  0  0  0  0  0
  -29.2039  -15.6532   20.7675 H   0  0  0  0  0  0
  1 25  1  0  0  0
  1 30  2  0  0  0
  1 85  1  0  0  0
  2  3  1  0  0  0
  2 25  1  0  0  0
  2 89  1  0  0  0
  2 90  1  0  0  0
  3  4  1  0  0  0
  3 91  1  0  0  0
  3 92  1  0  0  0
  4  5  1  0  0  0
  4 93  1  0  0  0
  4 94  1  0  0  0
  5  6  1  0  0  0
  5 26  1  0  0  0
  5 95  1  0  0  0
  6 25  1  0  0  0
  6 96  1  0  0  0
  6 97  1  0  0  0
  7  8  2  0  0  0
  7 26  1  0  0  0
  7 29  1  0  0  0
  8  9  1  0  0  0
  8 22  1  0  0  0
  9 10  1  0  0  0
  9 27  2  0  0  0
 10 11  2  0  0  0
 10 15  1  0  0  0
 11 12  1  0  0  0
 11 98  1  0  0  0
 12 13  2  0  0  0
 12 99  1  0  0  0
 13 14  1  0  0  0
 13 31  1  0  0  0
 14 15  2  0  0  0
 14100  1  0  0  0
 15101  1  0  0  0
 16 17  2  0  0  0
 16 21  1  0  0  0
 16 31  1  0  0  0
 17 18  1  0  0  0
 17102  1  0  0  0
 18 19  2  0  0  0
 18103  1  0  0  0
 19 20  1  0  0  0
 19 24  1  0  0  0
 20 21  2  0  0  0
 20104  1  0  0  0
 21 23  1  0  0  0
 22 28  1  0  0  0
 22 32  2  0  0  0
 26 27  1  0  0  0
 28105  1  0  0  0
 28106  1  0  0  0
 29107  1  0  0  0
 29108  1  0  0  0
 33 34  1  0  0  0
 33 66  1  0  0  0
 33 70  2  0  0  0
 34 36  1  0  0  0
 34 59  1  0  0  0
 34109  1  0  0  0
 35 44  2  0  0  0
 35 45  1  0  0  0
 35 68  1  0  0  0
 36 56  1  0  0  0
 36110  1  0  0  0
 37 39  1  0  0  0
 37 47  1  0  0  0
 37 66  1  0  0  0
 37111  1  0  0  0
 38 43  2  0  0  0
 38 46  1  0  0  0
 38 47  1  0  0  0
 39 64  1  0  0  0
 39 67  2  0  0  0
 40 52  1  0  0  0
 40 53  2  0  0  0
 40 58  1  0  0  0
 41112  1  0  0  0
 41113  1  0  0  0
 41114  1  0  0  0
 41 48  1  0  0  0
 42 43  1  0  0  0
 42 66  1  0  0  0
 42115  1  0  0  0
 42116  1  0  0  0
 43 44  1  0  0  0
 44117  1  0  0  0
 45 46  2  0  0  0
 45118  1  0  0  0
 46119  1  0  0  0
 47120  1  0  0  0
 47121  1  0  0  0
 48 56  1  0  0  0
 48 65  1  0  0  0
 48122  1  0  0  0
 49 50  1  0  0  0
 49 53  1  0  0  0
 49 64  1  0  0  0
 49123  1  0  0  0
 50 51  1  0  0  0
 50124  1  0  0  0
 50125  1  0  0  0
 51 52  1  0  0  0
 51126  1  0  0  0
 51127  1  0  0  0
 52128  1  0  0  0
 52129  1  0  0  0
 53 54  1  0  0  0
 54 55  2  0  0  0
 54130  1  0  0  0
 55 57  1  0  0  0
 55131  1  0  0  0
 56 69  2  0  0  0
 57 58  2  0  0  0
 57132  1  0  0  0
 58133  1  0  0  0
 59 60  1  0  0  0
 59 61  1  0  0  0
 59 62  1  0  0  0
 60134  1  0  0  0
 60135  1  0  0  0
 60136  1  0  0  0
 61137  1  0  0  0
 61138  1  0  0  0
 61139  1  0  0  0
 62140  1  0  0  0
 62141  1  0  0  0
 62142  1  0  0  0
 63 65  1  0  0  0
 63143  1  0  0  0
 63144  1  0  0  0
 63145  1  0  0  0
 64146  1  0  0  0
 65147  1  0  0  0
 68 83  1  0  0  0
 71 72  1  0  0  0
 71 74  2  0  0  0
 71148  1  0  0  0
 72 73  2  0  0  0
 72 82  1  0  0  0
 73 76  1  0  0  0
 73 88  1  0  0  0
 74 84  1  0  0  0
 74 88  1  0  0  0
 75 77  1  0  0  0
 75 78  1  0  0  0
 75 86  2  0  0  0
 76 85  1  0  0  0
 76 87  2  0  0  0
 77 79  1  0  0  0
 77149  1  0  0  0
 77150  1  0  0  0
 78 81  1  0  0  0
 78151  1  0  0  0
 78152  1  0  0  0
 79 84  1  0  0  0
 79153  1  0  0  0
 79154  1  0  0  0
 80 81  1  0  0  0
 80 84  1  0  0  0
 80155  1  0  0  0
 80156  1  0  0  0
 81 83  1  0  0  0
 81157  1  0  0  0
 82158  1  0  0  0
 82159  1  0  0  0
 82160  1  0  0  0
 83161  1  0  0  0
 83162  1  0  0  0
 85163  1  0  0  0
M  ISO  4   1 100  68 101  83 101  85 100
M  END
> <chiral flag>
0

> <version>
0

> <s_m_source_file>
/data/baiqing/PycharmProjects/Reinvent-master-3.2/result/LINK_invent/BTK/process_docking_weight1_custom_product_contain_oxygen_bond_distance_aromatic_linkinvent_7_9_3/rearranged_h_0096.sdf

> <i_m_source_file_index>
60

> <r_mmod_Potential_Energy-OPLS-2005>
-77.380012512207

> <r_mmod_Stretch_Energy-OPLS-2005>
47.2539367675781

> <r_mmod_Bend_Energy-OPLS-2005>
114.753921508789

> <r_mmod_Torsional_Energy-OPLS-2005>
270.015441894531

> <r_mmod_Improper_Torsional_Energy-OPLS-2005>
9.74117088317871

> <r_mmod_Van_der_Waal_Energy-OPLS-2005>
142.818984985352

> <r_mmod_Electrostatic_Energy-OPLS-2005>
-434.489654541016

> <r_mmod_Solvation_Energy-OPLS-2005>
-257.725036621094

> <b_mmod_Minimization_Converged-OPLS-2005>
0

> <r_mmod_RMS_Derivative-OPLS-2005>
6.0798511505127

$$$$
60
                    3D
 Structure written by MMmdl.
150158  0  0  1  0            999 V2000
  -30.5334  -15.0572   20.4000 C   0  0  0  0  0  0
  -30.4403  -12.6681   19.4958 C   0  0  0  0  0  0
  -29.5139  -12.5337   18.2632 C   0  0  0  0  0  0
  -28.0561  -12.2979   18.6938 C   0  0  0  0  0  0
  -27.6200  -13.2578   19.8285 C   0  0  2  0  0  0
  -28.6661  -13.3575   20.9578 C   0  0  0  0  0  0
  -25.2406  -13.8251   20.5740 C   0  0  0  0  0  0
  -24.1734  -13.0481   20.9268 C   0  0  0  0  0  0
  -24.6367  -11.6979   20.8821 C   0  0  0  0  0  0
  -23.9078  -10.4316   21.0453 C   0  0  0  0  0  0
  -24.3625   -9.4209   21.9196 C   0  0  0  0  0  0
  -23.6302   -8.2249   22.0749 C   0  0  0  0  0  0
  -22.4281   -8.0265   21.3560 C   0  0  0  0  0  0
  -21.9904   -9.0253   20.4685 C   0  0  0  0  0  0
  -22.7246  -10.2141   20.3097 C   0  0  0  0  0  0
  -21.6834   -6.0734   22.5293 C   0  0  0  0  0  0
  -21.4019   -6.5635   23.8228 C   0  0  0  0  0  0
  -21.3656   -5.6786   24.9184 C   0  0  0  0  0  0
  -21.6030   -4.3050   24.7229 C   0  0  0  0  0  0
  -21.8824   -3.8145   23.4360 C   0  0  0  0  0  0
  -21.9186   -4.6965   22.3415 C   0  0  0  0  0  0
  -22.7718  -13.5243   21.1885 C   0  0  0  0  0  0
  -22.1645   -4.2138   21.0992 F   0  0  0  0  0  0
  -21.5608   -3.4536   25.7750 F   0  0  0  0  0  0
  -29.9252  -13.7917   20.3437 N   0  0  0  0  0  0
  -26.2840  -12.9501   20.3256 N   0  0  0  0  0  0
  -25.9300  -11.6644   20.5803 N   0  0  0  0  0  0
  -22.0392  -12.8237   22.0481 N   0  0  0  0  0  0
  -25.4070  -15.1978   20.4116 N   0  0  0  0  0  0
  -31.7498  -15.0408   20.1759 O   0  0  0  0  0  0
  -21.6640   -6.8875   21.4258 O   0  0  0  0  0  0
  -22.3403  -14.5529   20.6695 O   0  0  0  0  0  0
  -24.6491  -31.8400   23.1836 C   0  0  0  0  0  0
  -25.9250  -32.4682   23.8232 C   0  0  1  0  0  0
  -27.1976  -27.0498   20.1815 C   0  0  0  0  0  0
  -25.5999  -33.8477   24.2188 N   0  0  0  0  0  0
  -23.4582  -30.4591   21.5294 C   0  0  2  0  0  0
  -24.9064  -28.8711   20.1115 C   0  0  0  0  0  0
  -22.7590  -29.4533   22.4813 C   0  0  0  0  0  0
  -18.0319  -28.1362   22.8505 C   0  0  0  0  0  0
  -24.1481  -36.7193   23.2642 C   0  0  0  0  0  0
  -26.0175  -30.6894   21.3919 C   0  0  0  0  0  0
  -26.0868  -29.2910   20.7369 C   0  0  0  0  0  0
  -27.2366  -28.4020   20.7411 C   0  0  0  0  0  0
  -25.9943  -26.7536   19.5036 C   0  0  0  0  0  0
  -24.8785  -27.6226   19.4741 C   0  0  0  0  0  0
  -23.6900  -29.7859   20.1488 C   0  0  0  0  0  0
  -25.4123  -36.3005   24.0316 C   0  0  1  0  0  0
  -20.5940  -28.3701   23.1215 C   0  0  2  0  0  0
  -20.6789  -26.9394   22.5399 C   0  0  0  0  0  0
  -19.5755  -26.6361   21.5205 C   0  0  0  0  0  0
  -18.1950  -26.7903   22.1620 C   0  0  0  0  0  0
  -19.1577  -28.8839   23.2868 C   0  0  0  0  0  0
  -18.9490  -30.1439   23.8896 C   0  0  0  0  0  0
  -17.6478  -30.6565   24.0536 C   0  0  0  0  0  0
  -25.9082  -34.9385   23.5055 C   0  0  0  0  0  0
  -16.5364  -29.9056   23.6320 C   0  0  0  0  0  0
  -16.7307  -28.6453   23.0394 C   0  0  0  0  0  0
  -26.4596  -31.6544   25.0664 C   0  0  0  0  0  0
  -25.3808  -31.3695   26.1369 C   0  0  0  0  0  0
  -27.0459  -30.2948   24.6204 C   0  0  0  0  0  0
  -27.6127  -32.4294   25.7463 C   0  0  0  0  0  0
  -27.5570  -37.1736   24.8466 C   0  0  0  0  0  0
  -21.4260  -29.3042   22.3563 N   0  0  0  0  0  0
  -26.4260  -37.3748   23.9440 N   0  0  0  0  0  0
  -24.7296  -31.0185   22.0911 N   0  0  0  0  0  0
  -23.4209  -28.8101   23.2987 O   0  0  0  0  0  0
  -28.2163  -26.0081   20.2816 O   0  0  0  0  0  0
  -26.5630  -34.8891   22.4608 O   0  0  0  0  0  0
  -23.5599  -32.1293   23.7031 O   0  0  0  0  0  0
  -27.9353  -19.3500   20.8481 C   0  0  0  0  0  0
  -29.7612  -20.4068   20.3524 C   0  0  0  0  0  0
  -29.3038  -19.0576   20.5266 C   0  0  0  0  0  0
  -27.6673  -20.7235   20.8996 C   0  0  0  0  0  0
  -30.1898  -17.6746   20.4371 C   0  0  0  0  0  0
  -26.3909  -21.3774   21.3138 C   0  0  0  0  0  0
  -28.9991  -23.1100   20.5384 C   0  0  0  0  0  0
  -27.9156  -24.4367   20.2706 C   0  0  0  0  0  0
  -28.7886  -21.4909   20.5453 N   0  0  0  0  0  0
  -29.7860  -16.2912   20.4975 N   0  0  0  0  0  0
  -31.3947  -17.8932   20.2835 O   0  0  0  0  0  0
  -31.4616  -12.8439   19.1470 H   0  0  0  0  0  0
  -30.4822  -11.7378   20.0698 H   0  0  0  0  0  0
  -29.8440  -11.7233   17.6144 H   0  0  0  0  0  0
  -29.5678  -13.4424   17.6630 H   0  0  0  0  0  0
  -27.9764  -11.2652   19.0362 H   0  0  0  0  0  0
  -27.3812  -12.3873   17.8397 H   0  0  0  0  0  0
  -27.5638  -14.2426   19.3617 H   0  0  0  0  0  0
  -28.7904  -12.4061   21.4772 H   0  0  0  0  0  0
  -28.3551  -14.0854   21.7062 H   0  0  0  0  0  0
  -25.2777   -9.5631   22.4774 H   0  0  0  0  0  0
  -23.9992   -7.4611   22.7440 H   0  0  0  0  0  0
  -21.0808   -8.8814   19.9012 H   0  0  0  0  0  0
  -22.3714  -10.9678   19.6205 H   0  0  0  0  0  0
  -21.2063   -7.6147   23.9723 H   0  0  0  0  0  0
  -21.1435   -6.0524   25.9074 H   0  0  0  0  0  0
  -22.0614   -2.7610   23.2873 H   0  0  0  0  0  0
  -22.3982  -11.9930   22.4929 H   0  0  0  0  0  0
  -21.1016  -13.1264   22.2733 H   0  0  0  0  0  0
  -24.6437  -15.8543   20.5272 H   0  0  0  0  0  0
  -26.2377  -15.6265   20.0280 H   0  0  0  0  0  0
  -26.7296  -32.5292   23.0935 H   0  0  0  0  0  0
  -25.0204  -33.9589   25.0373 H   0  0  0  0  0  0
  -22.7679  -31.2900   21.3710 H   0  0  0  0  0  0
  -23.3789  -35.9482   23.3279 H   0  0  0  0  0  0
  -24.3577  -36.8835   22.2062 H   0  0  0  0  0  0
  -23.7178  -37.6351   23.6684 H   0  0  0  0  0  0
  -26.1734  -31.4390   20.6144 H   0  0  0  0  0  0
  -26.8898  -30.7533   22.0307 H   0  0  0  0  0  0
  -28.1388  -28.7202   21.2461 H   0  0  0  0  0  0
  -25.8826  -25.7997   19.0120 H   0  0  0  0  0  0
  -23.9791  -27.3020   18.9656 H   0  0  0  0  0  0
  -23.8404  -30.5596   19.3941 H   0  0  0  0  0  0
  -22.8031  -29.2354   19.8322 H   0  0  0  0  0  0
  -25.1303  -36.1823   25.0812 H   0  0  0  0  0  0
  -21.0060  -28.3295   24.1320 H   0  0  0  0  0  0
  -20.5633  -26.2321   23.3637 H   0  0  0  0  0  0
  -21.6664  -26.7358   22.1226 H   0  0  0  0  0  0
  -19.6894  -25.6272   21.1246 H   0  0  0  0  0  0
  -19.6675  -27.3152   20.6733 H   0  0  0  0  0  0
  -17.4223  -26.6687   21.4021 H   0  0  0  0  0  0
  -18.0325  -26.0025   22.8992 H   0  0  0  0  0  0
  -19.7970  -30.7256   24.2278 H   0  0  0  0  0  0
  -17.5035  -31.6259   24.5110 H   0  0  0  0  0  0
  -15.5373  -30.2947   23.7626 H   0  0  0  0  0  0
  -15.8725  -28.0730   22.7158 H   0  0  0  0  0  0
  -24.6028  -30.7002   25.7694 H   0  0  0  0  0  0
  -24.8968  -32.2852   26.4747 H   0  0  0  0  0  0
  -25.8137  -30.8913   27.0169 H   0  0  0  0  0  0
  -26.3051  -29.6686   24.1216 H   0  0  0  0  0  0
  -27.4124  -29.7216   25.4734 H   0  0  0  0  0  0
  -27.8953  -30.4206   23.9489 H   0  0  0  0  0  0
  -27.2734  -33.3620   26.1969 H   0  0  0  0  0  0
  -28.3987  -32.6798   25.0335 H   0  0  0  0  0  0
  -28.0743  -31.8458   26.5433 H   0  0  0  0  0  0
  -28.2553  -38.0068   24.7592 H   0  0  0  0  0  0
  -28.1093  -36.2602   24.6204 H   0  0  0  0  0  0
  -27.2288  -37.1272   25.8864 H   0  0  0  0  0  0
  -20.9464  -29.8761   21.6749 H   0  0  0  0  0  0
  -26.0112  -38.2784   24.1556 H   0  0  0  0  0  0
  -27.1916  -18.5946   21.0798 H   0  0  0  0  0  0
  -30.7772  -20.6991   20.1250 H   0  0  0  0  0  0
  -26.5586  -22.0753   22.1350 H   0  0  0  0  0  0
  -25.6744  -20.6339   21.6581 H   0  0  0  0  0  0
  -25.9351  -21.9212   20.4850 H   0  0  0  0  0  0
  -29.4500  -23.3130   21.5104 H   0  0  0  0  0  0
  -29.8069  -23.2739   19.8301 H   0  0  0  0  0  0
  -27.1091  -24.3160   20.9938 H   0  0  0  0  0  0
  -27.4491  -24.2354   19.3049 H   0  0  0  0  0  0
  -28.7914  -16.1742   20.5935 H   0  0  0  0  0  0
  1 25  1  0  0  0
  1 30  2  0  0  0
  1 80  1  0  0  0
  2  3  1  0  0  0
  2 25  1  0  0  0
  2 82  1  0  0  0
  2 83  1  0  0  0
  3  4  1  0  0  0
  3 84  1  0  0  0
  3 85  1  0  0  0
  4  5  1  0  0  0
  4 86  1  0  0  0
  4 87  1  0  0  0
  5  6  1  0  0  0
  5 26  1  0  0  0
  5 88  1  0  0  0
  6 25  1  0  0  0
  6 89  1  0  0  0
  6 90  1  0  0  0
  7  8  2  0  0  0
  7 26  1  0  0  0
  7 29  1  0  0  0
  8  9  1  0  0  0
  8 22  1  0  0  0
  9 10  1  0  0  0
  9 27  2  0  0  0
 10 11  2  0  0  0
 10 15  1  0  0  0
 11 12  1  0  0  0
 11 91  1  0  0  0
 12 13  2  0  0  0
 12 92  1  0  0  0
 13 14  1  0  0  0
 13 31  1  0  0  0
 14 15  2  0  0  0
 14 93  1  0  0  0
 15 94  1  0  0  0
 16 17  2  0  0  0
 16 21  1  0  0  0
 16 31  1  0  0  0
 17 18  1  0  0  0
 17 95  1  0  0  0
 18 19  2  0  0  0
 18 96  1  0  0  0
 19 20  1  0  0  0
 19 24  1  0  0  0
 20 21  2  0  0  0
 20 97  1  0  0  0
 21 23  1  0  0  0
 22 28  1  0  0  0
 22 32  2  0  0  0
 26 27  1  0  0  0
 28 98  1  0  0  0
 28 99  1  0  0  0
 29100  1  0  0  0
 29101  1  0  0  0
 33 34  1  0  0  0
 33 66  1  0  0  0
 33 70  2  0  0  0
 34 36  1  0  0  0
 34 59  1  0  0  0
 34102  1  0  0  0
 35 44  2  0  0  0
 35 45  1  0  0  0
 35 68  1  0  0  0
 36 56  1  0  0  0
 36103  1  0  0  0
 37 39  1  0  0  0
 37 47  1  0  0  0
 37 66  1  0  0  0
 37104  1  0  0  0
 38 43  2  0  0  0
 38 46  1  0  0  0
 38 47  1  0  0  0
 39 64  1  0  0  0
 39 67  2  0  0  0
 40 52  1  0  0  0
 40 53  2  0  0  0
 40 58  1  0  0  0
 41105  1  0  0  0
 41106  1  0  0  0
 41107  1  0  0  0
 41 48  1  0  0  0
 42 43  1  0  0  0
 42 66  1  0  0  0
 42108  1  0  0  0
 42109  1  0  0  0
 43 44  1  0  0  0
 44110  1  0  0  0
 45 46  2  0  0  0
 45111  1  0  0  0
 46112  1  0  0  0
 47113  1  0  0  0
 47114  1  0  0  0
 48 56  1  0  0  0
 48 65  1  0  0  0
 48115  1  0  0  0
 49 50  1  0  0  0
 49 53  1  0  0  0
 49 64  1  0  0  0
 49116  1  0  0  0
 50 51  1  0  0  0
 50117  1  0  0  0
 50118  1  0  0  0
 51 52  1  0  0  0
 51119  1  0  0  0
 51120  1  0  0  0
 52121  1  0  0  0
 52122  1  0  0  0
 53 54  1  0  0  0
 54 55  2  0  0  0
 54123  1  0  0  0
 55 57  1  0  0  0
 55124  1  0  0  0
 56 69  2  0  0  0
 57 58  2  0  0  0
 57125  1  0  0  0
 58126  1  0  0  0
 59 60  1  0  0  0
 59 61  1  0  0  0
 59 62  1  0  0  0
 60127  1  0  0  0
 60128  1  0  0  0
 60129  1  0  0  0
 61130  1  0  0  0
 61131  1  0  0  0
 61132  1  0  0  0
 62133  1  0  0  0
 62134  1  0  0  0
 62135  1  0  0  0
 63 65  1  0  0  0
 63136  1  0  0  0
 63137  1  0  0  0
 63138  1  0  0  0
 64139  1  0  0  0
 65140  1  0  0  0
 68 78  1  0  0  0
 71 73  1  0  0  0
 71 74  2  0  0  0
 71141  1  0  0  0
 72 73  2  0  0  0
 72 79  1  0  0  0
 72142  1  0  0  0
 73 75  1  0  0  0
 74 76  1  0  0  0
 74 79  1  0  0  0
 75 80  1  0  0  0
 75 81  2  0  0  0
 76143  1  0  0  0
 76144  1  0  0  0
 76145  1  0  0  0
 77 78  1  0  0  0
 77 79  1  0  0  0
 77146  1  0  0  0
 77147  1  0  0  0
 78148  1  0  0  0
 78149  1  0  0  0
 80150  1  0  0  0
M  ISO  4   1 100  68 101  78 101  80 100
M  END
> <chiral flag>
0

> <version>
0

> <s_m_source_file>
/data/baiqing/PycharmProjects/Reinvent-master-3.2/result/LINK_invent/BTK/process_docking_weight1_custom_product_contain_oxygen_bond_distance_aromatic_linkinvent_7_9_3/rearranged_h_0096.sdf

> <i_m_source_file_index>
61

> <r_mmod_Potential_Energy-OPLS-2005>
632.849487304688

> <r_mmod_Stretch_Energy-OPLS-2005>
339.648986816406

> <r_mmod_Bend_Energy-OPLS-2005>
306.965240478516

> <r_mmod_Torsional_Energy-OPLS-2005>
226.757431030273

> <r_mmod_Improper_Torsional_Energy-OPLS-2005>
5.38027715682983

> <r_mmod_Van_der_Waal_Energy-OPLS-2005>
109.9921875

> <r_mmod_Electrostatic_Energy-OPLS-2005>
-400.994934082031

> <r_mmod_Solvation_Energy-OPLS-2005>
-233.242431640625

> <b_mmod_Minimization_Converged-OPLS-2005>
0

> <r_mmod_RMS_Derivative-OPLS-2005>
5.61671447753906

$$$$
61
                    3D
 Structure written by MMmdl.
162171  0  0  1  0            999 V2000
  -30.7283  -14.4628   20.5994 C   0  0  0  0  0  0
  -30.4107  -12.3226   19.4080 C   0  0  0  0  0  0
  -29.4813  -12.5159   18.1951 C   0  0  0  0  0  0
  -28.0072  -12.3577   18.6155 C   0  0  0  0  0  0
  -27.6505  -13.2108   19.8629 C   0  0  2  0  0  0
  -28.6947  -13.0153   20.9849 C   0  0  0  0  0  0
  -25.2541  -13.8162   20.5683 C   0  0  0  0  0  0
  -24.1804  -13.0431   20.9194 C   0  0  0  0  0  0
  -24.6369  -11.6905   20.8732 C   0  0  0  0  0  0
  -23.9046  -10.4274   21.0402 C   0  0  0  0  0  0
  -24.3605   -9.4197   21.9186 C   0  0  0  0  0  0
  -23.6283   -8.2237   22.0753 C   0  0  0  0  0  0
  -22.4264   -8.0280   21.3543 C   0  0  0  0  0  0
  -21.9890   -9.0254   20.4665 C   0  0  0  0  0  0
  -22.7214  -10.2126   20.3064 C   0  0  0  0  0  0
  -21.6848   -6.0737   22.5282 C   0  0  0  0  0  0
  -21.4028   -6.5645   23.8214 C   0  0  0  0  0  0
  -21.3662   -5.6798   24.9180 C   0  0  0  0  0  0
  -21.6043   -4.3049   24.7231 C   0  0  0  0  0  0
  -21.8818   -3.8147   23.4342 C   0  0  0  0  0  0
  -21.9188   -4.6969   22.3404 C   0  0  0  0  0  0
  -22.7823  -13.5241   21.1859 C   0  0  0  0  0  0
  -22.1658   -4.2156   21.0976 F   0  0  0  0  0  0
  -21.5617   -3.4533   25.7734 F   0  0  0  0  0  0
  -30.0155  -13.3187   20.4158 N   0  0  0  0  0  0
  -26.2958  -12.9349   20.3324 N   0  0  0  0  0  0
  -25.9285  -11.6494   20.5742 N   0  0  0  0  0  0
  -22.0482  -12.8248   22.0433 N   0  0  0  0  0  0
  -25.4226  -15.1891   20.4081 N   0  0  0  0  0  0
  -31.8807  -14.5779   20.1702 O   0  0  0  0  0  0
  -21.6631   -6.8875   21.4236 O   0  0  0  0  0  0
  -22.3504  -14.5542   20.6697 O   0  0  0  0  0  0
  -24.6156  -31.8651   23.2090 C   0  0  0  0  0  0
  -25.9043  -32.4796   23.8376 C   0  0  1  0  0  0
  -27.2291  -27.4170   20.0879 C   0  0  0  0  0  0
  -25.5897  -33.8596   24.2314 N   0  0  0  0  0  0
  -23.4038  -30.4903   21.5492 C   0  0  2  0  0  0
  -24.8492  -28.9609   20.1076 C   0  0  0  0  0  0
  -22.7412  -29.4651   22.4969 C   0  0  0  0  0  0
  -18.0271  -28.1388   22.8502 C   0  0  0  0  0  0
  -24.1485  -36.7285   23.2637 C   0  0  0  0  0  0
  -25.9350  -30.8261   21.3675 C   0  0  0  0  0  0
  -26.0099  -29.4621   20.7081 C   0  0  0  0  0  0
  -27.1998  -28.6953   20.6988 C   0  0  0  0  0  0
  -26.0436  -26.9355   19.4839 C   0  0  0  0  0  0
  -24.8614  -27.6979   19.4949 C   0  0  0  0  0  0
  -23.6103  -29.8253   20.1635 C   0  0  0  0  0  0
  -25.4118  -36.3092   24.0332 C   0  0  1  0  0  0
  -20.5864  -28.3667   23.1321 C   0  0  2  0  0  0
  -20.6760  -26.9394   22.5428 C   0  0  0  0  0  0
  -19.5732  -26.6392   21.5222 C   0  0  0  0  0  0
  -18.1913  -26.7930   22.1638 C   0  0  0  0  0  0
  -19.1521  -28.8838   23.2907 C   0  0  0  0  0  0
  -18.9449  -30.1452   23.8905 C   0  0  0  0  0  0
  -17.6452  -30.6579   24.0578 C   0  0  0  0  0  0
  -25.9032  -34.9455   23.5120 C   0  0  0  0  0  0
  -16.5343  -29.9088   23.6334 C   0  0  0  0  0  0
  -16.7265  -28.6509   23.0347 C   0  0  0  0  0  0
  -26.4502  -31.6566   25.0693 C   0  0  0  0  0  0
  -25.3774  -31.3686   26.1445 C   0  0  0  0  0  0
  -27.0337  -30.2985   24.6103 C   0  0  0  0  0  0
  -27.6079  -32.4301   25.7461 C   0  0  0  0  0  0
  -27.5574  -37.1801   24.8476 C   0  0  0  0  0  0
  -21.4135  -29.3011   22.3697 N   0  0  0  0  0  0
  -26.4300  -37.3773   23.9400 N   0  0  0  0  0  0
  -24.6687  -31.0755   22.0997 N   0  0  0  0  0  0
  -23.4168  -28.8178   23.3010 O   0  0  0  0  0  0
  -28.4012  -26.6642   20.1581 O   0  0  0  0  0  0
  -26.5606  -34.8915   22.4683 O   0  0  0  0  0  0
  -23.5350  -32.1427   23.7470 O   0  0  0  0  0  0
  -30.1012  -19.0206   22.2715 C   0  0  0  0  0  0
  -29.8361  -20.3732   21.9548 C   0  0  0  0  0  0
  -29.1944  -19.6909   19.7101 C   0  0  0  0  0  0
  -29.9802  -17.9951   21.3012 C   0  0  0  0  0  0
  -29.4314  -20.7224   20.6482 C   0  0  0  0  0  0
  -29.4659  -18.3410   20.0268 C   0  0  0  0  0  0
  -30.6953  -22.5138   18.1427 C   0  0  0  0  0  0
  -28.2862  -22.8522   20.2724 C   0  0  0  0  0  0
  -30.6265  -16.6497   21.5611 C   0  0  0  0  0  0
  -29.8345  -23.4937   17.3546 C   0  0  0  0  0  0
  -30.6636  -22.6164   19.6661 C   0  0  0  0  0  0
  -28.3497  -23.4546   17.7676 C   0  0  0  0  0  0
  -28.0271  -23.9651   19.2018 C   0  0  2  0  0  0
  -28.6011  -25.4240   19.4246 C   0  0  0  0  0  0
  -29.4078  -22.0882   20.2122 N   0  0  0  0  0  0
  -30.0498  -15.5223   21.0919 N   0  0  0  0  0  0
  -31.3957  -21.6765   17.5681 O   0  0  0  0  0  0
  -27.4119  -22.6483   21.1216 O   0  0  0  0  0  0
  -31.6751  -16.6307   22.2202 O   0  0  0  0  0  0
  -29.3094  -17.4031   19.0598 F   0  0  0  0  0  0
  -31.4531  -12.4138   19.1004 H   0  0  0  0  0  0
  -30.3096  -11.3135   19.8161 H   0  0  0  0  0  0
  -29.7296  -11.8000   17.4086 H   0  0  0  0  0  0
  -29.6342  -13.5084   17.7654 H   0  0  0  0  0  0
  -27.8356  -11.3000   18.8274 H   0  0  0  0  0  0
  -27.3495  -12.6129   17.7824 H   0  0  0  0  0  0
  -27.6868  -14.2558   19.5509 H   0  0  0  0  0  0
  -28.6789  -11.9855   21.3453 H   0  0  0  0  0  0
  -28.4616  -13.6317   21.8546 H   0  0  0  0  0  0
  -25.2751   -9.5679   22.4744 H   0  0  0  0  0  0
  -24.0009   -7.4624   22.7451 H   0  0  0  0  0  0
  -21.0825   -8.8771   19.8963 H   0  0  0  0  0  0
  -22.3676  -10.9672   19.6169 H   0  0  0  0  0  0
  -21.2036   -7.6154   23.9731 H   0  0  0  0  0  0
  -21.1484   -6.0519   25.9084 H   0  0  0  0  0  0
  -22.0588   -2.7613   23.2834 H   0  0  0  0  0  0
  -22.4105  -11.9918   22.4828 H   0  0  0  0  0  0
  -21.1117  -13.1279   22.2679 H   0  0  0  0  0  0
  -24.6469  -15.8353   20.5047 H   0  0  0  0  0  0
  -26.2623  -15.6278   20.0531 H   0  0  0  0  0  0
  -26.7094  -32.5503   23.1124 H   0  0  0  0  0  0
  -25.0038  -33.9761   25.0455 H   0  0  0  0  0  0
  -22.6920  -31.3058   21.4114 H   0  0  0  0  0  0
  -23.3742  -35.9618   23.3331 H   0  0  0  0  0  0
  -24.3568  -36.8876   22.2039 H   0  0  0  0  0  0
  -23.7249  -37.6506   23.6639 H   0  0  0  0  0  0
  -26.0567  -31.5994   20.6071 H   0  0  0  0  0  0
  -26.8186  -30.8686   21.9938 H   0  0  0  0  0  0
  -28.0956  -29.0749   21.1727 H   0  0  0  0  0  0
  -25.9977  -25.9664   19.0149 H   0  0  0  0  0  0
  -23.9659  -27.3016   19.0376 H   0  0  0  0  0  0
  -23.7088  -30.5985   19.4010 H   0  0  0  0  0  0
  -22.7362  -29.2383   19.8738 H   0  0  0  0  0  0
  -25.1295  -36.1956   25.0828 H   0  0  0  0  0  0
  -20.9969  -28.3228   24.1440 H   0  0  0  0  0  0
  -20.5679  -26.2247   23.3608 H   0  0  0  0  0  0
  -21.6624  -26.7438   22.1198 H   0  0  0  0  0  0
  -19.6886  -25.6313   21.1213 H   0  0  0  0  0  0
  -19.6674  -27.3230   20.6773 H   0  0  0  0  0  0
  -17.4186  -26.6688   21.4040 H   0  0  0  0  0  0
  -18.0312  -26.0074   22.9035 H   0  0  0  0  0  0
  -19.7927  -30.7276   24.2254 H   0  0  0  0  0  0
  -17.5010  -31.6262   24.5176 H   0  0  0  0  0  0
  -15.5345  -30.2999   23.7650 H   0  0  0  0  0  0
  -15.8671  -28.0846   22.7049 H   0  0  0  0  0  0
  -24.5932  -30.7059   25.7777 H   0  0  0  0  0  0
  -24.8988  -32.2841   26.4920 H   0  0  0  0  0  0
  -25.8119  -30.8822   27.0186 H   0  0  0  0  0  0
  -26.2867  -29.6732   24.1188 H   0  0  0  0  0  0
  -27.4110  -29.7263   25.4599 H   0  0  0  0  0  0
  -27.8718  -30.4284   23.9250 H   0  0  0  0  0  0
  -27.2677  -33.3583   26.2085 H   0  0  0  0  0  0
  -28.3855  -32.6904   25.0257 H   0  0  0  0  0  0
  -28.0788  -31.8398   26.5345 H   0  0  0  0  0  0
  -28.2631  -38.0057   24.7480 H   0  0  0  0  0  0
  -28.1034  -36.2591   24.6367 H   0  0  0  0  0  0
  -27.2277  -37.1521   25.8878 H   0  0  0  0  0  0
  -20.9288  -29.8699   21.6906 H   0  0  0  0  0  0
  -26.0187  -38.2851   24.1419 H   0  0  0  0  0  0
  -30.4912  -18.7790   23.2505 H   0  0  0  0  0  0
  -30.0169  -21.1420   22.6951 H   0  0  0  0  0  0
  -28.8748  -19.9354   18.7060 H   0  0  0  0  0  0
  -29.9283  -23.2496   16.2968 H   0  0  0  0  0  0
  -30.2423  -24.4972   17.4716 H   0  0  0  0  0  0
  -30.8154  -23.6529   19.9712 H   0  0  0  0  0  0
  -31.5089  -22.0601   20.0778 H   0  0  0  0  0  0
  -27.9721  -22.4381   17.6427 H   0  0  0  0  0  0
  -27.7825  -24.0452   17.0465 H   0  0  0  0  0  0
  -26.9364  -24.0335   19.1824 H   0  0  0  0  0  0
  -28.0052  -25.2574   20.3223 H   0  0  0  0  0  0
  -28.2073  -25.8452   18.4989 H   0  0  0  0  0  0
  -29.0506  -15.5153   20.9809 H   0  0  0  0  0  0
  1 25  1  0  0  0
  1 30  2  0  0  0
  1 86  1  0  0  0
  2  3  1  0  0  0
  2 25  1  0  0  0
  2 91  1  0  0  0
  2 92  1  0  0  0
  3  4  1  0  0  0
  3 93  1  0  0  0
  3 94  1  0  0  0
  4  5  1  0  0  0
  4 95  1  0  0  0
  4 96  1  0  0  0
  5  6  1  0  0  0
  5 26  1  0  0  0
  5 97  1  0  0  0
  6 25  1  0  0  0
  6 98  1  0  0  0
  6 99  1  0  0  0
  7  8  2  0  0  0
  7 26  1  0  0  0
  7 29  1  0  0  0
  8  9  1  0  0  0
  8 22  1  0  0  0
  9 10  1  0  0  0
  9 27  2  0  0  0
 10 11  2  0  0  0
 10 15  1  0  0  0
 11 12  1  0  0  0
 11100  1  0  0  0
 12 13  2  0  0  0
 12101  1  0  0  0
 13 14  1  0  0  0
 13 31  1  0  0  0
 14 15  2  0  0  0
 14102  1  0  0  0
 15103  1  0  0  0
 16 17  2  0  0  0
 16 21  1  0  0  0
 16 31  1  0  0  0
 17 18  1  0  0  0
 17104  1  0  0  0
 18 19  2  0  0  0
 18105  1  0  0  0
 19 20  1  0  0  0
 19 24  1  0  0  0
 20 21  2  0  0  0
 20106  1  0  0  0
 21 23  1  0  0  0
 22 28  1  0  0  0
 22 32  2  0  0  0
 26 27  1  0  0  0
 28107  1  0  0  0
 28108  1  0  0  0
 29109  1  0  0  0
 29110  1  0  0  0
 33 34  1  0  0  0
 33 66  1  0  0  0
 33 70  2  0  0  0
 34 36  1  0  0  0
 34 59  1  0  0  0
 34111  1  0  0  0
 35 44  2  0  0  0
 35 45  1  0  0  0
 35 68  1  0  0  0
 36 56  1  0  0  0
 36112  1  0  0  0
 37 39  1  0  0  0
 37 47  1  0  0  0
 37 66  1  0  0  0
 37113  1  0  0  0
 38 43  2  0  0  0
 38 46  1  0  0  0
 38 47  1  0  0  0
 39 64  1  0  0  0
 39 67  2  0  0  0
 40 52  1  0  0  0
 40 53  2  0  0  0
 40 58  1  0  0  0
 41114  1  0  0  0
 41115  1  0  0  0
 41116  1  0  0  0
 41 48  1  0  0  0
 42 43  1  0  0  0
 42 66  1  0  0  0
 42117  1  0  0  0
 42118  1  0  0  0
 43 44  1  0  0  0
 44119  1  0  0  0
 45 46  2  0  0  0
 45120  1  0  0  0
 46121  1  0  0  0
 47122  1  0  0  0
 47123  1  0  0  0
 48 56  1  0  0  0
 48 65  1  0  0  0
 48124  1  0  0  0
 49 50  1  0  0  0
 49 53  1  0  0  0
 49 64  1  0  0  0
 49125  1  0  0  0
 50 51  1  0  0  0
 50126  1  0  0  0
 50127  1  0  0  0
 51 52  1  0  0  0
 51128  1  0  0  0
 51129  1  0  0  0
 52130  1  0  0  0
 52131  1  0  0  0
 53 54  1  0  0  0
 54 55  2  0  0  0
 54132  1  0  0  0
 55 57  1  0  0  0
 55133  1  0  0  0
 56 69  2  0  0  0
 57 58  2  0  0  0
 57134  1  0  0  0
 58135  1  0  0  0
 59 60  1  0  0  0
 59 61  1  0  0  0
 59 62  1  0  0  0
 60136  1  0  0  0
 60137  1  0  0  0
 60138  1  0  0  0
 61139  1  0  0  0
 61140  1  0  0  0
 61141  1  0  0  0
 62142  1  0  0  0
 62143  1  0  0  0
 62144  1  0  0  0
 63 65  1  0  0  0
 63145  1  0  0  0
 63146  1  0  0  0
 63147  1  0  0  0
 64148  1  0  0  0
 65149  1  0  0  0
 68 84  1  0  0  0
 71 72  2  0  0  0
 71 74  1  0  0  0
 71150  1  0  0  0
 72 75  1  0  0  0
 72151  1  0  0  0
 73 75  2  0  0  0
 73 76  1  0  0  0
 73152  1  0  0  0
 74 76  2  0  0  0
 74 79  1  0  0  0
 75 85  1  0  0  0
 76 90  1  0  0  0
 77 80  1  0  0  0
 77 81  1  0  0  0
 77 87  2  0  0  0
 78 83  1  0  0  0
 78 85  1  0  0  0
 78 88  2  0  0  0
 79 86  1  0  0  0
 79 89  2  0  0  0
 80 82  1  0  0  0
 80153  1  0  0  0
 80154  1  0  0  0
 81 85  1  0  0  0
 81155  1  0  0  0
 81156  1  0  0  0
 82 83  1  0  0  0
 82157  1  0  0  0
 82158  1  0  0  0
 83 84  1  0  0  0
 83159  1  0  0  0
 84160  1  0  0  0
 84161  1  0  0  0
 86162  1  0  0  0
M  ISO  4   1 100  68 101  84 101  86 100
M  END
> <chiral flag>
0

> <version>
0

> <s_m_source_file>
/data/baiqing/PycharmProjects/Reinvent-master-3.2/result/LINK_invent/BTK/process_docking_weight1_custom_product_contain_oxygen_bond_distance_aromatic_linkinvent_7_9_3/rearranged_h_0096.sdf

> <i_m_source_file_index>
62

> <r_mmod_Potential_Energy-OPLS-2005>
278.938232421875

> <r_mmod_Stretch_Energy-OPLS-2005>
48.6177940368652

> <r_mmod_Bend_Energy-OPLS-2005>
357.242248535156

> <r_mmod_Torsional_Energy-OPLS-2005>
343.384948730469

> <r_mmod_Improper_Torsional_Energy-OPLS-2005>
7.06514024734497

> <r_mmod_Van_der_Waal_Energy-OPLS-2005>
180.602157592773

> <r_mmod_Electrostatic_Energy-OPLS-2005>
-429.034240722656

> <r_mmod_Solvation_Energy-OPLS-2005>
-247.136871337891

> <b_mmod_Minimization_Converged-OPLS-2005>
0

> <r_mmod_RMS_Derivative-OPLS-2005>
3.38712763786316

$$$$
62
                    3D
 Structure written by MMmdl.
162171  0  0  1  0            999 V2000
  -30.6782  -14.5381   20.5473 C   0  0  0  0  0  0
  -30.4268  -12.3387   19.4453 C   0  0  0  0  0  0
  -29.5071  -12.5092   18.2164 C   0  0  0  0  0  0
  -28.0238  -12.3674   18.6159 C   0  0  0  0  0  0
  -27.6560  -13.2075   19.8684 C   0  0  2  0  0  0
  -28.6953  -13.0073   20.9918 C   0  0  0  0  0  0
  -25.2568  -13.8178   20.5676 C   0  0  0  0  0  0
  -24.1825  -13.0440   20.9171 C   0  0  0  0  0  0
  -24.6364  -11.6917   20.8708 C   0  0  0  0  0  0
  -23.9041  -10.4295   21.0384 C   0  0  0  0  0  0
  -24.3592   -9.4227   21.9181 C   0  0  0  0  0  0
  -23.6267   -8.2261   22.0751 C   0  0  0  0  0  0
  -22.4258   -8.0276   21.3520 C   0  0  0  0  0  0
  -21.9879   -9.0257   20.4644 C   0  0  0  0  0  0
  -22.7209  -10.2140   20.3051 C   0  0  0  0  0  0
  -21.6861   -6.0718   22.5270 C   0  0  0  0  0  0
  -21.4023   -6.5636   23.8198 C   0  0  0  0  0  0
  -21.3660   -5.6787   24.9158 C   0  0  0  0  0  0
  -21.6023   -4.3049   24.7222 C   0  0  0  0  0  0
  -21.8825   -3.8137   23.4346 C   0  0  0  0  0  0
  -21.9188   -4.6938   22.3394 C   0  0  0  0  0  0
  -22.7850  -13.5270   21.1819 C   0  0  0  0  0  0
  -22.1668   -4.2133   21.0966 F   0  0  0  0  0  0
  -21.5607   -3.4535   25.7739 F   0  0  0  0  0  0
  -30.0126  -13.3476   20.4386 N   0  0  0  0  0  0
  -26.2990  -12.9315   20.3314 N   0  0  0  0  0  0
  -25.9292  -11.6486   20.5730 N   0  0  0  0  0  0
  -22.0459  -12.8287   22.0369 N   0  0  0  0  0  0
  -25.4287  -15.1890   20.4108 N   0  0  0  0  0  0
  -31.8564  -14.6340   20.1841 O   0  0  0  0  0  0
  -21.6625   -6.8868   21.4241 O   0  0  0  0  0  0
  -22.3547  -14.5544   20.6623 O   0  0  0  0  0  0
  -24.6215  -31.8647   23.2034 C   0  0  0  0  0  0
  -25.9063  -32.4808   23.8368 C   0  0  1  0  0  0
  -27.2529  -27.3643   20.1155 C   0  0  0  0  0  0
  -25.5918  -33.8613   24.2315 N   0  0  0  0  0  0
  -23.4138  -30.4866   21.5414 C   0  0  2  0  0  0
  -24.8670  -28.9391   20.1122 C   0  0  0  0  0  0
  -22.7430  -29.4643   22.4913 C   0  0  0  0  0  0
  -18.0299  -28.1342   22.8474 C   0  0  0  0  0  0
  -24.1496  -36.7325   23.2634 C   0  0  0  0  0  0
  -25.9479  -30.8088   21.3675 C   0  0  0  0  0  0
  -26.0264  -29.4359   20.7156 C   0  0  0  0  0  0
  -27.2140  -28.6561   20.7153 C   0  0  0  0  0  0
  -26.0615  -26.8956   19.5115 C   0  0  0  0  0  0
  -24.8826  -27.6696   19.5065 C   0  0  0  0  0  0
  -23.6321  -29.8156   20.1579 C   0  0  0  0  0  0
  -25.4108  -36.3116   24.0343 C   0  0  1  0  0  0
  -20.5870  -28.3682   23.1274 C   0  0  2  0  0  0
  -20.6796  -26.9405   22.5401 C   0  0  0  0  0  0
  -19.5786  -26.6352   21.5202 C   0  0  0  0  0  0
  -18.1966  -26.7888   22.1606 C   0  0  0  0  0  0
  -19.1531  -28.8817   23.2886 C   0  0  0  0  0  0
  -18.9448  -30.1411   23.8907 C   0  0  0  0  0  0
  -17.6447  -30.6546   24.0547 C   0  0  0  0  0  0
  -25.9041  -34.9485   23.5141 C   0  0  0  0  0  0
  -16.5345  -29.9037   23.6303 C   0  0  0  0  0  0
  -16.7277  -28.6454   23.0327 C   0  0  0  0  0  0
  -26.4471  -31.6596   25.0731 C   0  0  0  0  0  0
  -25.3718  -31.3758   26.1484 C   0  0  0  0  0  0
  -27.0279  -30.3006   24.6154 C   0  0  0  0  0  0
  -27.6048  -32.4314   25.7507 C   0  0  0  0  0  0
  -27.5578  -37.1827   24.8447 C   0  0  0  0  0  0
  -21.4137  -29.3069   22.3667 N   0  0  0  0  0  0
  -26.4284  -37.3802   23.9407 N   0  0  0  0  0  0
  -24.6784  -31.0689   22.0957 N   0  0  0  0  0  0
  -23.4186  -28.8167   23.2945 O   0  0  0  0  0  0
  -28.4163  -26.5939   20.2002 O   0  0  0  0  0  0
  -26.5585  -34.8931   22.4695 O   0  0  0  0  0  0
  -23.5404  -32.1419   23.7409 O   0  0  0  0  0  0
  -29.5674  -22.5479   21.8486 C   0  0  0  0  0  0
  -29.2149  -23.8298   21.3361 C   0  0  0  0  0  0
  -29.2782  -21.5772   19.6705 C   0  0  0  0  0  0
  -29.6259  -21.3873   21.0277 C   0  0  0  0  0  0
  -28.9163  -24.0244   19.9651 C   0  0  0  0  0  0
  -28.9484  -22.8568   19.1440 C   0  0  0  0  0  0
  -30.1600  -20.0595   21.5511 C   0  0  0  0  0  0
  -30.6447  -18.0250   20.0119 C   0  0  0  0  0  0
  -29.4373  -17.6134   22.1338 C   0  0  0  0  0  0
  -30.0774  -16.6852   19.4813 C   0  0  0  0  0  0
  -29.0627  -16.1759   21.6504 C   0  0  0  0  0  0
  -29.6633  -18.6791   21.0103 C   0  0  0  0  0  0
  -28.6555  -25.4385   19.3394 C   0  0  0  0  0  0
  -31.0227  -20.0402   22.4811 N   0  0  0  0  0  0
  -29.9070  -15.6718   20.5433 N   0  0  0  0  0  0
  -28.6932  -22.9348   17.7724 N   0  0  0  0  0  0
  -31.4738  -12.4337   19.1542 H   0  0  0  0  0  0
  -30.3326  -11.3351   19.8587 H   0  0  0  0  0  0
  -29.7607  -11.7747   17.4533 H   0  0  0  0  0  0
  -29.6689  -13.4878   17.7636 H   0  0  0  0  0  0
  -27.8310  -11.3111   18.8077 H   0  0  0  0  0  0
  -27.3834  -12.6464   17.7770 H   0  0  0  0  0  0
  -27.6881  -14.2544   19.5620 H   0  0  0  0  0  0
  -28.6969  -11.9683   21.3264 H   0  0  0  0  0  0
  -28.4472  -13.5885   21.8741 H   0  0  0  0  0  0
  -25.2738   -9.5711   22.4756 H   0  0  0  0  0  0
  -23.9968   -7.4659   22.7488 H   0  0  0  0  0  0
  -21.0802   -8.8797   19.8958 H   0  0  0  0  0  0
  -22.3681  -10.9670   19.6158 H   0  0  0  0  0  0
  -21.2050   -7.6147   23.9725 H   0  0  0  0  0  0
  -21.1465   -6.0492   25.9066 H   0  0  0  0  0  0
  -22.0600   -2.7595   23.2840 H   0  0  0  0  0  0
  -22.4034  -11.9972   22.4800 H   0  0  0  0  0  0
  -21.1061  -13.1342   22.2497 H   0  0  0  0  0  0
  -24.6691  -15.8473   20.5456 H   0  0  0  0  0  0
  -26.2885  -15.6321   20.1107 H   0  0  0  0  0  0
  -26.7135  -32.5497   23.1137 H   0  0  0  0  0  0
  -25.0110  -33.9756   25.0487 H   0  0  0  0  0  0
  -22.7062  -31.3055   21.3967 H   0  0  0  0  0  0
  -23.3744  -35.9671   23.3299 H   0  0  0  0  0  0
  -24.3575  -36.8930   22.2041 H   0  0  0  0  0  0
  -23.7254  -37.6545   23.6629 H   0  0  0  0  0  0
  -26.0648  -31.5672   20.5923 H   0  0  0  0  0  0
  -26.8354  -30.8679   21.9871 H   0  0  0  0  0  0
  -28.0999  -29.0380   21.2023 H   0  0  0  0  0  0
  -26.0029  -25.9113   19.0741 H   0  0  0  0  0  0
  -23.9844  -27.2704   19.0579 H   0  0  0  0  0  0
  -23.7554  -30.5920   19.4024 H   0  0  0  0  0  0
  -22.7537  -29.2460   19.8511 H   0  0  0  0  0  0
  -25.1278  -36.1988   25.0830 H   0  0  0  0  0  0
  -20.9990  -28.3290   24.1376 H   0  0  0  0  0  0
  -20.5701  -26.2301   23.3612 H   0  0  0  0  0  0
  -21.6672  -26.7456   22.1189 H   0  0  0  0  0  0
  -19.6962  -25.6271   21.1218 H   0  0  0  0  0  0
  -19.6708  -27.3158   20.6728 H   0  0  0  0  0  0
  -17.4248  -26.6654   21.3995 H   0  0  0  0  0  0
  -18.0345  -26.0006   22.8977 H   0  0  0  0  0  0
  -19.7922  -30.7227   24.2295 H   0  0  0  0  0  0
  -17.4995  -31.6214   24.5182 H   0  0  0  0  0  0
  -15.5346  -30.2942   23.7603 H   0  0  0  0  0  0
  -15.8681  -28.0776   22.7023 H   0  0  0  0  0  0
  -24.5858  -30.7139   25.7835 H   0  0  0  0  0  0
  -24.8952  -32.2945   26.4921 H   0  0  0  0  0  0
  -25.8049  -30.8927   27.0252 H   0  0  0  0  0  0
  -26.2843  -29.6818   24.1115 H   0  0  0  0  0  0
  -27.3900  -29.7211   25.4657 H   0  0  0  0  0  0
  -27.8757  -30.4287   23.9413 H   0  0  0  0  0  0
  -27.2634  -33.3564   26.2173 H   0  0  0  0  0  0
  -28.3817  -32.6952   25.0316 H   0  0  0  0  0  0
  -28.0760  -31.8380   26.5361 H   0  0  0  0  0  0
  -28.2599  -38.0120   24.7497 H   0  0  0  0  0  0
  -28.1078  -36.2661   24.6266 H   0  0  0  0  0  0
  -27.2312  -37.1472   25.8853 H   0  0  0  0  0  0
  -20.9319  -29.8800   21.6881 H   0  0  0  0  0  0
  -26.0184  -38.2894   24.1381 H   0  0  0  0  0  0
  -29.8296  -22.4627   22.8940 H   0  0  0  0  0  0
  -29.2205  -24.6798   22.0026 H   0  0  0  0  0  0
  -29.3206  -20.7269   19.0052 H   0  0  0  0  0  0
  -30.8387  -18.6981   19.1779 H   0  0  0  0  0  0
  -31.6133  -17.8454   20.4860 H   0  0  0  0  0  0
  -30.3499  -17.5123   22.7225 H   0  0  0  0  0  0
  -28.6801  -17.9718   22.8318 H   0  0  0  0  0  0
  -29.1011  -16.8642   19.0294 H   0  0  0  0  0  0
  -30.7010  -16.3073   18.6678 H   0  0  0  0  0  0
  -28.0206  -16.1595   21.3301 H   0  0  0  0  0  0
  -29.1359  -15.5136   22.5149 H   0  0  0  0  0  0
  -28.7128  -18.8490   20.5039 H   0  0  0  0  0  0
  -27.9199  -25.3533   18.5453 H   0  0  0  0  0  0
  -29.5753  -25.6820   18.8058 H   0  0  0  0  0  0
  -31.2866  -20.9672   22.7911 H   0  0  0  0  0  0
  -28.2643  -22.1252   17.3331 H   0  0  0  0  0  0
  -28.3415  -23.8055   17.3889 H   0  0  0  0  0  0
  1 25  1  0  0  0
  1 30  2  0  0  0
  1 85  1  0  0  0
  2  3  1  0  0  0
  2 25  1  0  0  0
  2 87  1  0  0  0
  2 88  1  0  0  0
  3  4  1  0  0  0
  3 89  1  0  0  0
  3 90  1  0  0  0
  4  5  1  0  0  0
  4 91  1  0  0  0
  4 92  1  0  0  0
  5  6  1  0  0  0
  5 26  1  0  0  0
  5 93  1  0  0  0
  6 25  1  0  0  0
  6 94  1  0  0  0
  6 95  1  0  0  0
  7  8  2  0  0  0
  7 26  1  0  0  0
  7 29  1  0  0  0
  8  9  1  0  0  0
  8 22  1  0  0  0
  9 10  1  0  0  0
  9 27  2  0  0  0
 10 11  2  0  0  0
 10 15  1  0  0  0
 11 12  1  0  0  0
 11 96  1  0  0  0
 12 13  2  0  0  0
 12 97  1  0  0  0
 13 14  1  0  0  0
 13 31  1  0  0  0
 14 15  2  0  0  0
 14 98  1  0  0  0
 15 99  1  0  0  0
 16 17  2  0  0  0
 16 21  1  0  0  0
 16 31  1  0  0  0
 17 18  1  0  0  0
 17100  1  0  0  0
 18 19  2  0  0  0
 18101  1  0  0  0
 19 20  1  0  0  0
 19 24  1  0  0  0
 20 21  2  0  0  0
 20102  1  0  0  0
 21 23  1  0  0  0
 22 28  1  0  0  0
 22 32  2  0  0  0
 26 27  1  0  0  0
 28103  1  0  0  0
 28104  1  0  0  0
 29105  1  0  0  0
 29106  1  0  0  0
 33 34  1  0  0  0
 33 66  1  0  0  0
 33 70  2  0  0  0
 34 36  1  0  0  0
 34 59  1  0  0  0
 34107  1  0  0  0
 35 44  2  0  0  0
 35 45  1  0  0  0
 35 68  1  0  0  0
 36 56  1  0  0  0
 36108  1  0  0  0
 37 39  1  0  0  0
 37 47  1  0  0  0
 37 66  1  0  0  0
 37109  1  0  0  0
 38 43  2  0  0  0
 38 46  1  0  0  0
 38 47  1  0  0  0
 39 64  1  0  0  0
 39 67  2  0  0  0
 40 52  1  0  0  0
 40 53  2  0  0  0
 40 58  1  0  0  0
 41110  1  0  0  0
 41111  1  0  0  0
 41112  1  0  0  0
 41 48  1  0  0  0
 42 43  1  0  0  0
 42 66  1  0  0  0
 42113  1  0  0  0
 42114  1  0  0  0
 43 44  1  0  0  0
 44115  1  0  0  0
 45 46  2  0  0  0
 45116  1  0  0  0
 46117  1  0  0  0
 47118  1  0  0  0
 47119  1  0  0  0
 48 56  1  0  0  0
 48 65  1  0  0  0
 48120  1  0  0  0
 49 50  1  0  0  0
 49 53  1  0  0  0
 49 64  1  0  0  0
 49121  1  0  0  0
 50 51  1  0  0  0
 50122  1  0  0  0
 50123  1  0  0  0
 51 52  1  0  0  0
 51124  1  0  0  0
 51125  1  0  0  0
 52126  1  0  0  0
 52127  1  0  0  0
 53 54  1  0  0  0
 54 55  2  0  0  0
 54128  1  0  0  0
 55 57  1  0  0  0
 55129  1  0  0  0
 56 69  2  0  0  0
 57 58  2  0  0  0
 57130  1  0  0  0
 58131  1  0  0  0
 59 60  1  0  0  0
 59 61  1  0  0  0
 59 62  1  0  0  0
 60132  1  0  0  0
 60133  1  0  0  0
 60134  1  0  0  0
 61135  1  0  0  0
 61136  1  0  0  0
 61137  1  0  0  0
 62138  1  0  0  0
 62139  1  0  0  0
 62140  1  0  0  0
 63 65  1  0  0  0
 63141  1  0  0  0
 63142  1  0  0  0
 63143  1  0  0  0
 64144  1  0  0  0
 65145  1  0  0  0
 68 83  1  0  0  0
 71 72  2  0  0  0
 71 74  1  0  0  0
 71146  1  0  0  0
 72 75  1  0  0  0
 72147  1  0  0  0
 73 74  2  0  0  0
 73 76  1  0  0  0
 73148  1  0  0  0
 74 77  1  0  0  0
 75 76  2  0  0  0
 75 83  1  0  0  0
 76 86  1  0  0  0
 77 84  2  0  0  0
 77 82  1  0  0  0
 78 80  1  0  0  0
 78 82  1  0  0  0
 78149  1  0  0  0
 78150  1  0  0  0
 79 81  1  0  0  0
 79 82  1  0  0  0
 79151  1  0  0  0
 79152  1  0  0  0
 80 85  1  0  0  0
 80153  1  0  0  0
 80154  1  0  0  0
 81 85  1  0  0  0
 81155  1  0  0  0
 81156  1  0  0  0
 82157  1  0  0  0
 83158  1  0  0  0
 83159  1  0  0  0
 84160  1  0  0  0
 86161  1  0  0  0
 86162  1  0  0  0
M  ISO  4   1 100  68 101  83 101  85 100
M  END
> <chiral flag>
0

> <version>
0

> <s_m_source_file>
/data/baiqing/PycharmProjects/Reinvent-master-3.2/result/LINK_invent/BTK/process_docking_weight1_custom_product_contain_oxygen_bond_distance_aromatic_linkinvent_7_9_3/rearranged_h_0096.sdf

> <i_m_source_file_index>
63

> <r_mmod_Potential_Energy-OPLS-2005>
240.415969848633

> <r_mmod_Stretch_Energy-OPLS-2005>
65.2231826782227

> <r_mmod_Bend_Energy-OPLS-2005>
137.554260253906

> <r_mmod_Torsional_Energy-OPLS-2005>
322.904724121094

> <r_mmod_Improper_Torsional_Energy-OPLS-2005>
21.7768974304199

> <r_mmod_Van_der_Waal_Energy-OPLS-2005>
154.339920043945

> <r_mmod_Electrostatic_Energy-OPLS-2005>
-275.611541748047

> <r_mmod_Solvation_Energy-OPLS-2005>
-214.040817260742

> <b_mmod_Minimization_Converged-OPLS-2005>
0

> <r_mmod_RMS_Derivative-OPLS-2005>
4.23876047134399

$$$$
63
                    3D
 Structure written by MMmdl.
151159  0  0  1  0            999 V2000
  -30.7125  -14.6325   20.4999 C   0  0  0  0  0  0
  -30.4103  -12.3979   19.4534 C   0  0  0  0  0  0
  -29.4933  -12.4922   18.2193 C   0  0  0  0  0  0
  -28.0202  -12.3351   18.6388 C   0  0  0  0  0  0
  -27.6405  -13.2331   19.8476 C   0  0  2  0  0  0
  -28.6899  -13.1610   20.9785 C   0  0  0  0  0  0
  -25.2516  -13.8219   20.5717 C   0  0  0  0  0  0
  -24.1802  -13.0455   20.9205 C   0  0  0  0  0  0
  -24.6388  -11.6932   20.8741 C   0  0  0  0  0  0
  -23.9062  -10.4303   21.0400 C   0  0  0  0  0  0
  -24.3619   -9.4217   21.9177 C   0  0  0  0  0  0
  -23.6300   -8.2246   22.0745 C   0  0  0  0  0  0
  -22.4283   -8.0280   21.3537 C   0  0  0  0  0  0
  -21.9915   -9.0247   20.4639 C   0  0  0  0  0  0
  -22.7235  -10.2134   20.3048 C   0  0  0  0  0  0
  -21.6856   -6.0740   22.5279 C   0  0  0  0  0  0
  -21.4015   -6.5642   23.8214 C   0  0  0  0  0  0
  -21.3659   -5.6793   24.9174 C   0  0  0  0  0  0
  -21.6042   -4.3056   24.7226 C   0  0  0  0  0  0
  -21.8820   -3.8149   23.4345 C   0  0  0  0  0  0
  -21.9194   -4.6965   22.3404 C   0  0  0  0  0  0
  -22.7822  -13.5230   21.1865 C   0  0  0  0  0  0
  -22.1664   -4.2152   21.0979 F   0  0  0  0  0  0
  -21.5627   -3.4540   25.7736 F   0  0  0  0  0  0
  -29.9949  -13.4692   20.3842 N   0  0  0  0  0  0
  -26.2940  -12.9427   20.3301 N   0  0  0  0  0  0
  -25.9319  -11.6563   20.5755 N   0  0  0  0  0  0
  -22.0471  -12.8215   22.0421 N   0  0  0  0  0  0
  -25.4210  -15.1950   20.4191 N   0  0  0  0  0  0
  -31.9042  -14.6260   20.1831 O   0  0  0  0  0  0
  -21.6640   -6.8880   21.4241 O   0  0  0  0  0  0
  -22.3500  -14.5528   20.6703 O   0  0  0  0  0  0
  -24.6275  -31.8603   23.2049 C   0  0  0  0  0  0
  -25.9121  -32.4783   23.8369 C   0  0  1  0  0  0
  -27.2079  -27.3106   20.1081 C   0  0  0  0  0  0
  -25.5937  -33.8584   24.2288 N   0  0  0  0  0  0
  -23.4201  -30.4893   21.5470 C   0  0  2  0  0  0
  -24.8631  -28.9529   20.1074 C   0  0  0  0  0  0
  -22.7477  -29.4646   22.4921 C   0  0  0  0  0  0
  -18.0289  -28.1398   22.8479 C   0  0  0  0  0  0
  -24.1492  -36.7296   23.2636 C   0  0  0  0  0  0
  -25.9650  -30.7889   21.3786 C   0  0  0  0  0  0
  -26.0354  -29.4186   20.7161 C   0  0  0  0  0  0
  -27.2120  -28.6084   20.7098 C   0  0  0  0  0  0
  -26.0117  -26.9146   19.4609 C   0  0  0  0  0  0
  -24.8535  -27.7061   19.4723 C   0  0  0  0  0  0
  -23.6335  -29.8336   20.1595 C   0  0  0  0  0  0
  -25.4115  -36.3079   24.0326 C   0  0  1  0  0  0
  -20.5892  -28.3701   23.1271 C   0  0  2  0  0  0
  -20.6787  -26.9424   22.5398 C   0  0  0  0  0  0
  -19.5757  -26.6393   21.5206 C   0  0  0  0  0  0
  -18.1938  -26.7937   22.1624 C   0  0  0  0  0  0
  -19.1542  -28.8864   23.2872 C   0  0  0  0  0  0
  -18.9462  -30.1465   23.8891 C   0  0  0  0  0  0
  -17.6464  -30.6597   24.0565 C   0  0  0  0  0  0
  -25.9049  -34.9452   23.5102 C   0  0  0  0  0  0
  -16.5352  -29.9095   23.6337 C   0  0  0  0  0  0
  -16.7277  -28.6517   23.0349 C   0  0  0  0  0  0
  -26.4500  -31.6590   25.0738 C   0  0  0  0  0  0
  -25.3735  -31.3740   26.1468 C   0  0  0  0  0  0
  -27.0343  -30.3009   24.6210 C   0  0  0  0  0  0
  -27.6063  -32.4317   25.7512 C   0  0  0  0  0  0
  -27.5575  -37.1807   24.8461 C   0  0  0  0  0  0
  -21.4188  -29.3060   22.3665 N   0  0  0  0  0  0
  -26.4287  -37.3776   23.9405 N   0  0  0  0  0  0
  -24.6900  -31.0626   22.0996 N   0  0  0  0  0  0
  -23.4203  -28.8179   23.2993 O   0  0  0  0  0  0
  -28.2989  -26.4215   20.1722 O   0  0  0  0  0  0
  -26.5604  -34.8912   22.4659 O   0  0  0  0  0  0
  -23.5438  -32.1400   23.7379 O   0  0  0  0  0  0
  -30.7840  -19.5985   20.9021 C   0  0  0  0  0  0
  -30.2723  -20.9154   20.7168 C   0  0  0  0  0  0
  -28.1243  -19.9568   20.2359 C   0  0  0  0  0  0
  -29.9956  -18.4141   20.7650 C   0  0  0  0  0  0
  -28.9200  -21.1336   20.3741 C   0  0  0  0  0  0
  -28.6355  -18.6316   20.4248 C   0  0  0  0  0  0
  -30.6549  -17.0315   21.0002 C   0  0  0  0  0  0
  -28.9676  -23.7857   20.3617 C   0  0  0  0  0  0
  -27.9907  -24.9819   19.9692 C   0  0  0  0  0  0
  -28.3488  -22.4330   20.1616 N   0  0  0  0  0  0
  -30.0523  -15.8235   20.7241 N   0  0  0  0  0  0
  -31.8038  -17.0699   21.4619 O   0  0  0  0  0  0
  -27.8026  -17.5713   20.2721 F   0  0  0  0  0  0
  -31.4540  -12.4768   19.1456 H   0  0  0  0  0  0
  -30.3168  -11.4214   19.9311 H   0  0  0  0  0  0
  -29.7583  -11.7250   17.4905 H   0  0  0  0  0  0
  -29.6381  -13.4526   17.7216 H   0  0  0  0  0  0
  -27.8641  -11.2867   18.8945 H   0  0  0  0  0  0
  -27.3617  -12.5404   17.7937 H   0  0  0  0  0  0
  -27.6377  -14.2564   19.4709 H   0  0  0  0  0  0
  -28.7047  -12.1692   21.4333 H   0  0  0  0  0  0
  -28.4453  -13.8628   21.7781 H   0  0  0  0  0  0
  -25.2762   -9.5701   22.4751 H   0  0  0  0  0  0
  -24.0011   -7.4643   22.7466 H   0  0  0  0  0  0
  -21.0845   -8.8761   19.8949 H   0  0  0  0  0  0
  -22.3682  -10.9669   19.6158 H   0  0  0  0  0  0
  -21.2004   -7.6150   23.9717 H   0  0  0  0  0  0
  -21.1485   -6.0523   25.9077 H   0  0  0  0  0  0
  -22.0598   -2.7610   23.2841 H   0  0  0  0  0  0
  -22.4095  -11.9883   22.4818 H   0  0  0  0  0  0
  -21.1077  -13.1219   22.2604 H   0  0  0  0  0  0
  -24.6578  -15.8489   20.5534 H   0  0  0  0  0  0
  -26.2806  -15.6508   20.1392 H   0  0  0  0  0  0
  -26.7193  -32.5446   23.1123 H   0  0  0  0  0  0
  -25.0099  -33.9727   25.0444 H   0  0  0  0  0  0
  -22.7132  -31.3099   21.4090 H   0  0  0  0  0  0
  -23.3742  -35.9640   23.3298 H   0  0  0  0  0  0
  -24.3583  -36.8910   22.2048 H   0  0  0  0  0  0
  -23.7252  -37.6505   23.6657 H   0  0  0  0  0  0
  -26.1011  -31.5544   20.6135 H   0  0  0  0  0  0
  -26.8445  -30.8323   22.0094 H   0  0  0  0  0  0
  -28.1073  -28.9574   21.2051 H   0  0  0  0  0  0
  -25.9246  -25.9699   18.9468 H   0  0  0  0  0  0
  -23.9578  -27.3449   18.9857 H   0  0  0  0  0  0
  -23.7553  -30.6150   19.4082 H   0  0  0  0  0  0
  -22.7530  -29.2660   19.8523 H   0  0  0  0  0  0
  -25.1298  -36.1924   25.0818 H   0  0  0  0  0  0
  -20.9990  -28.3275   24.1387 H   0  0  0  0  0  0
  -20.5698  -26.2307   23.3594 H   0  0  0  0  0  0
  -21.6656  -26.7462   22.1186 H   0  0  0  0  0  0
  -19.6908  -25.6299   21.1242 H   0  0  0  0  0  0
  -19.6694  -27.3197   20.6729 H   0  0  0  0  0  0
  -17.4203  -26.6667   21.4032 H   0  0  0  0  0  0
  -18.0355  -26.0089   22.9035 H   0  0  0  0  0  0
  -19.7935  -30.7288   24.2259 H   0  0  0  0  0  0
  -17.5016  -31.6276   24.5168 H   0  0  0  0  0  0
  -15.5354  -30.2997   23.7672 H   0  0  0  0  0  0
  -15.8675  -28.0843   22.7061 H   0  0  0  0  0  0
  -24.5894  -30.7103   25.7804 H   0  0  0  0  0  0
  -24.8952  -32.2917   26.4900 H   0  0  0  0  0  0
  -25.8062  -30.8907   27.0236 H   0  0  0  0  0  0
  -26.2922  -29.6760   24.1230 H   0  0  0  0  0  0
  -27.4017  -29.7263   25.4724 H   0  0  0  0  0  0
  -27.8810  -30.4282   23.9461 H   0  0  0  0  0  0
  -27.2679  -33.3621   26.2087 H   0  0  0  0  0  0
  -28.3892  -32.6860   25.0354 H   0  0  0  0  0  0
  -28.0718  -31.8436   26.5432 H   0  0  0  0  0  0
  -28.2597  -38.0100   24.7509 H   0  0  0  0  0  0
  -28.1065  -36.2631   24.6295 H   0  0  0  0  0  0
  -27.2293  -37.1469   25.8864 H   0  0  0  0  0  0
  -20.9349  -29.8793   21.6895 H   0  0  0  0  0  0
  -26.0159  -38.2846   24.1405 H   0  0  0  0  0  0
  -31.8295  -19.5107   21.1593 H   0  0  0  0  0  0
  -30.9409  -21.7558   20.8371 H   0  0  0  0  0  0
  -27.0804  -20.0542   19.9769 H   0  0  0  0  0  0
  -29.2566  -23.8852   21.4087 H   0  0  0  0  0  0
  -29.8847  -23.8557   19.7754 H   0  0  0  0  0  0
  -27.0675  -24.7732   20.5131 H   0  0  0  0  0  0
  -27.7677  -24.8529   18.9090 H   0  0  0  0  0  0
  -27.3707  -22.4519   19.8834 H   0  0  0  0  0  0
  -29.0512  -15.8368   20.6154 H   0  0  0  0  0  0
  1 25  1  0  0  0
  1 30  2  0  0  0
  1 81  1  0  0  0
  2  3  1  0  0  0
  2 25  1  0  0  0
  2 84  1  0  0  0
  2 85  1  0  0  0
  3  4  1  0  0  0
  3 86  1  0  0  0
  3 87  1  0  0  0
  4  5  1  0  0  0
  4 88  1  0  0  0
  4 89  1  0  0  0
  5  6  1  0  0  0
  5 26  1  0  0  0
  5 90  1  0  0  0
  6 25  1  0  0  0
  6 91  1  0  0  0
  6 92  1  0  0  0
  7  8  2  0  0  0
  7 26  1  0  0  0
  7 29  1  0  0  0
  8  9  1  0  0  0
  8 22  1  0  0  0
  9 10  1  0  0  0
  9 27  2  0  0  0
 10 11  2  0  0  0
 10 15  1  0  0  0
 11 12  1  0  0  0
 11 93  1  0  0  0
 12 13  2  0  0  0
 12 94  1  0  0  0
 13 14  1  0  0  0
 13 31  1  0  0  0
 14 15  2  0  0  0
 14 95  1  0  0  0
 15 96  1  0  0  0
 16 17  2  0  0  0
 16 21  1  0  0  0
 16 31  1  0  0  0
 17 18  1  0  0  0
 17 97  1  0  0  0
 18 19  2  0  0  0
 18 98  1  0  0  0
 19 20  1  0  0  0
 19 24  1  0  0  0
 20 21  2  0  0  0
 20 99  1  0  0  0
 21 23  1  0  0  0
 22 28  1  0  0  0
 22 32  2  0  0  0
 26 27  1  0  0  0
 28100  1  0  0  0
 28101  1  0  0  0
 29102  1  0  0  0
 29103  1  0  0  0
 33 34  1  0  0  0
 33 66  1  0  0  0
 33 70  2  0  0  0
 34 36  1  0  0  0
 34 59  1  0  0  0
 34104  1  0  0  0
 35 44  2  0  0  0
 35 45  1  0  0  0
 35 68  1  0  0  0
 36 56  1  0  0  0
 36105  1  0  0  0
 37 39  1  0  0  0
 37 47  1  0  0  0
 37 66  1  0  0  0
 37106  1  0  0  0
 38 43  2  0  0  0
 38 46  1  0  0  0
 38 47  1  0  0  0
 39 64  1  0  0  0
 39 67  2  0  0  0
 40 52  1  0  0  0
 40 53  2  0  0  0
 40 58  1  0  0  0
 41107  1  0  0  0
 41108  1  0  0  0
 41109  1  0  0  0
 41 48  1  0  0  0
 42 43  1  0  0  0
 42 66  1  0  0  0
 42110  1  0  0  0
 42111  1  0  0  0
 43 44  1  0  0  0
 44112  1  0  0  0
 45 46  2  0  0  0
 45113  1  0  0  0
 46114  1  0  0  0
 47115  1  0  0  0
 47116  1  0  0  0
 48 56  1  0  0  0
 48 65  1  0  0  0
 48117  1  0  0  0
 49 50  1  0  0  0
 49 53  1  0  0  0
 49 64  1  0  0  0
 49118  1  0  0  0
 50 51  1  0  0  0
 50119  1  0  0  0
 50120  1  0  0  0
 51 52  1  0  0  0
 51121  1  0  0  0
 51122  1  0  0  0
 52123  1  0  0  0
 52124  1  0  0  0
 53 54  1  0  0  0
 54 55  2  0  0  0
 54125  1  0  0  0
 55 57  1  0  0  0
 55126  1  0  0  0
 56 69  2  0  0  0
 57 58  2  0  0  0
 57127  1  0  0  0
 58128  1  0  0  0
 59 60  1  0  0  0
 59 61  1  0  0  0
 59 62  1  0  0  0
 60129  1  0  0  0
 60130  1  0  0  0
 60131  1  0  0  0
 61132  1  0  0  0
 61133  1  0  0  0
 61134  1  0  0  0
 62135  1  0  0  0
 62136  1  0  0  0
 62137  1  0  0  0
 63 65  1  0  0  0
 63138  1  0  0  0
 63139  1  0  0  0
 63140  1  0  0  0
 64141  1  0  0  0
 65142  1  0  0  0
 68 79  1  0  0  0
 71 72  2  0  0  0
 71 74  1  0  0  0
 71143  1  0  0  0
 72 75  1  0  0  0
 72144  1  0  0  0
 73 75  2  0  0  0
 73 76  1  0  0  0
 73145  1  0  0  0
 74 76  2  0  0  0
 74 77  1  0  0  0
 75 80  1  0  0  0
 76 83  1  0  0  0
 77 81  1  0  0  0
 77 82  2  0  0  0
 78 79  1  0  0  0
 78 80  1  0  0  0
 78146  1  0  0  0
 78147  1  0  0  0
 79148  1  0  0  0
 79149  1  0  0  0
 80150  1  0  0  0
 81151  1  0  0  0
M  ISO  4   1 100  68 101  79 101  81 100
M  END
> <chiral flag>
0

> <version>
0

> <s_m_source_file>
/data/baiqing/PycharmProjects/Reinvent-master-3.2/result/LINK_invent/BTK/process_docking_weight1_custom_product_contain_oxygen_bond_distance_aromatic_linkinvent_7_9_3/rearranged_h_0096.sdf

> <i_m_source_file_index>
64

> <r_mmod_Potential_Energy-OPLS-2005>
59.2389030456543

> <r_mmod_Stretch_Energy-OPLS-2005>
80.4775314331055

> <r_mmod_Bend_Energy-OPLS-2005>
162.401992797852

> <r_mmod_Torsional_Energy-OPLS-2005>
212.408294677734

> <r_mmod_Improper_Torsional_Energy-OPLS-2005>
5.27393293380737

> <r_mmod_Van_der_Waal_Energy-OPLS-2005>
164.111450195312

> <r_mmod_Electrostatic_Energy-OPLS-2005>
-401.095977783203

> <r_mmod_Solvation_Energy-OPLS-2005>
-223.799682617188

> <b_mmod_Minimization_Converged-OPLS-2005>
0

> <r_mmod_RMS_Derivative-OPLS-2005>
1.07000434398651

$$$$
64
                    3D
 Structure written by MMmdl.
164173  0  0  1  0            999 V2000
  -30.6599  -14.6530   20.5557 C   0  0  0  0  0  0
  -30.4261  -12.4133   19.4659 C   0  0  0  0  0  0
  -29.5079  -12.5255   18.2313 C   0  0  0  0  0  0
  -28.0298  -12.3623   18.6346 C   0  0  0  0  0  0
  -27.6489  -13.2324   19.8628 C   0  0  2  0  0  0
  -28.6856  -13.1010   20.9959 C   0  0  0  0  0  0
  -25.2513  -13.8190   20.5685 C   0  0  0  0  0  0
  -24.1799  -13.0425   20.9165 C   0  0  0  0  0  0
  -24.6405  -11.6906   20.8721 C   0  0  0  0  0  0
  -23.9082  -10.4276   21.0376 C   0  0  0  0  0  0
  -24.3641   -9.4196   21.9157 C   0  0  0  0  0  0
  -23.6313   -8.2232   22.0735 C   0  0  0  0  0  0
  -22.4286   -8.0265   21.3540 C   0  0  0  0  0  0
  -21.9929   -9.0229   20.4629 C   0  0  0  0  0  0
  -22.7250  -10.2107   20.3030 C   0  0  0  0  0  0
  -21.6850   -6.0728   22.5294 C   0  0  0  0  0  0
  -21.4015   -6.5631   23.8228 C   0  0  0  0  0  0
  -21.3663   -5.6781   24.9189 C   0  0  0  0  0  0
  -21.6053   -4.3047   24.7236 C   0  0  0  0  0  0
  -21.8822   -3.8137   23.4358 C   0  0  0  0  0  0
  -21.9196   -4.6959   22.3414 C   0  0  0  0  0  0
  -22.7817  -13.5193   21.1845 C   0  0  0  0  0  0
  -22.1645   -4.2142   21.0987 F   0  0  0  0  0  0
  -21.5649   -3.4527   25.7747 F   0  0  0  0  0  0
  -30.0054  -13.4463   20.4420 N   0  0  0  0  0  0
  -26.2973  -12.9415   20.3320 N   0  0  0  0  0  0
  -25.9343  -11.6551   20.5744 N   0  0  0  0  0  0
  -22.0462  -12.8181   22.0405 N   0  0  0  0  0  0
  -25.4166  -15.1914   20.4156 N   0  0  0  0  0  0
  -31.7737  -14.8031   20.0424 O   0  0  0  0  0  0
  -21.6651   -6.8860   21.4241 O   0  0  0  0  0  0
  -22.3475  -14.5482   20.6671 O   0  0  0  0  0  0
  -24.6265  -31.8549   23.2007 C   0  0  0  0  0  0
  -25.9093  -32.4762   23.8362 C   0  0  1  0  0  0
  -27.2319  -27.3068   20.1240 C   0  0  0  0  0  0
  -25.5890  -33.8561   24.2284 N   0  0  0  0  0  0
  -23.4243  -30.4738   21.5403 C   0  0  2  0  0  0
  -24.8737  -28.9172   20.1167 C   0  0  0  0  0  0
  -22.7485  -29.4584   22.4926 C   0  0  0  0  0  0
  -18.0278  -28.1379   22.8464 C   0  0  0  0  0  0
  -24.1481  -36.7295   23.2652 C   0  0  0  0  0  0
  -25.9640  -30.7826   21.3723 C   0  0  0  0  0  0
  -26.0419  -29.4072   20.7154 C   0  0  0  0  0  0
  -27.2274  -28.6139   20.7025 C   0  0  0  0  0  0
  -26.0427  -26.8577   19.5175 C   0  0  0  0  0  0
  -24.8749  -27.6482   19.5116 C   0  0  0  0  0  0
  -23.6437  -29.8001   20.1588 C   0  0  0  0  0  0
  -25.4106  -36.3080   24.0343 C   0  0  1  0  0  0
  -20.5878  -28.3671   23.1272 C   0  0  2  0  0  0
  -20.6751  -26.9389   22.5402 C   0  0  0  0  0  0
  -19.5737  -26.6374   21.5187 C   0  0  0  0  0  0
  -18.1918  -26.7918   22.1601 C   0  0  0  0  0  0
  -19.1535  -28.8840   23.2859 C   0  0  0  0  0  0
  -18.9465  -30.1444   23.8880 C   0  0  0  0  0  0
  -17.6469  -30.6587   24.0545 C   0  0  0  0  0  0
  -25.9030  -34.9442   23.5122 C   0  0  0  0  0  0
  -16.5357  -29.9082   23.6330 C   0  0  0  0  0  0
  -16.7265  -28.6495   23.0348 C   0  0  0  0  0  0
  -26.4489  -31.6583   25.0747 C   0  0  0  0  0  0
  -25.3750  -31.3682   26.1495 C   0  0  0  0  0  0
  -27.0352  -30.3022   24.6203 C   0  0  0  0  0  0
  -27.6055  -32.4327   25.7497 C   0  0  0  0  0  0
  -27.5584  -37.1790   24.8467 C   0  0  0  0  0  0
  -21.4193  -29.3029   22.3675 N   0  0  0  0  0  0
  -26.4283  -37.3783   23.9426 N   0  0  0  0  0  0
  -24.6905  -31.0542   22.0957 N   0  0  0  0  0  0
  -23.4183  -28.8130   23.3031 O   0  0  0  0  0  0
  -28.3665  -26.4873   20.0965 O   0  0  0  0  0  0
  -26.5598  -34.8912   22.4692 O   0  0  0  0  0  0
  -23.5427  -32.1338   23.7331 O   0  0  0  0  0  0
  -30.4645  -19.1878   19.6635 C   0  0  0  0  0  0
  -30.6894  -17.8181   19.9952 C   0  0  0  0  0  0
  -28.3800  -19.1494   20.8429 C   0  0  0  0  0  0
  -29.2911  -19.9067   20.0475 C   0  0  0  0  0  0
  -29.7753  -17.0622   20.7776 C   0  0  0  0  0  0
  -28.6057  -17.7705   21.2035 C   0  0  0  0  0  0
  -29.0852  -21.4586   18.1752 C   0  0  0  0  0  0
  -28.6652  -22.3808   20.3331 C   0  0  0  0  0  0
  -28.9840  -22.8470   17.5127 C   0  0  0  0  0  0
  -29.1830  -24.0173   18.4765 C   0  0  0  0  0  0
  -28.3065  -23.8132   19.7076 C   0  0  2  0  0  0
  -30.1553  -15.5526   22.7147 C   0  0  0  0  0  0
  -26.6797  -17.7420   22.6618 C   0  0  0  0  0  0
  -28.3133  -25.1087   20.6510 C   0  0  0  0  0  0
  -29.0075  -21.2877   19.5347 N   0  0  0  0  0  0
  -30.0555  -15.6843   21.2518 N   0  0  0  0  0  0
  -29.2060  -20.5112   17.3888 O   0  0  0  0  0  0
  -28.6138  -22.2730   21.5635 O   0  0  0  0  0  0
  -27.6980  -17.0476   21.9516 O   0  0  0  0  0  0
  -31.4710  -12.5207   19.1697 H   0  0  0  0  0  0
  -30.3462  -11.4186   19.9066 H   0  0  0  0  0  0
  -29.7808  -11.7781   17.4852 H   0  0  0  0  0  0
  -29.6529  -13.4973   17.7572 H   0  0  0  0  0  0
  -27.8626  -11.3076   18.8578 H   0  0  0  0  0  0
  -27.3812  -12.6006   17.7905 H   0  0  0  0  0  0
  -27.6639  -14.2693   19.5261 H   0  0  0  0  0  0
  -28.6952  -12.0854   21.3913 H   0  0  0  0  0  0
  -28.4012  -13.7426   21.8284 H   0  0  0  0  0  0
  -25.2783   -9.5700   22.4731 H   0  0  0  0  0  0
  -24.0031   -7.4635   22.7474 H   0  0  0  0  0  0
  -21.0851   -8.8745   19.8944 H   0  0  0  0  0  0
  -22.3689  -10.9647   19.6153 H   0  0  0  0  0  0
  -21.1986   -7.6135   23.9741 H   0  0  0  0  0  0
  -21.1497   -6.0501   25.9098 H   0  0  0  0  0  0
  -22.0605   -2.7597   23.2866 H   0  0  0  0  0  0
  -22.4063  -11.9854   22.4834 H   0  0  0  0  0  0
  -21.1072  -13.1198   22.2566 H   0  0  0  0  0  0
  -24.6539  -15.8421   20.5595 H   0  0  0  0  0  0
  -26.2996  -15.6485   20.2252 H   0  0  0  0  0  0
  -26.7167  -32.5427   23.1108 H   0  0  0  0  0  0
  -25.0010  -33.9694   25.0413 H   0  0  0  0  0  0
  -22.7199  -31.2939   21.3879 H   0  0  0  0  0  0
  -23.3757  -35.9611   23.3285 H   0  0  0  0  0  0
  -24.3586  -36.8943   22.2075 H   0  0  0  0  0  0
  -23.7200  -37.6478   23.6687 H   0  0  0  0  0  0
  -26.0968  -31.5489   20.6070 H   0  0  0  0  0  0
  -26.8429  -30.8325   22.0037 H   0  0  0  0  0  0
  -28.1325  -28.9868   21.1611 H   0  0  0  0  0  0
  -26.0157  -25.8843   19.0481 H   0  0  0  0  0  0
  -23.9788  -27.2644   19.0442 H   0  0  0  0  0  0
  -23.7694  -30.5702   19.3970 H   0  0  0  0  0  0
  -22.7660  -29.2270   19.8554 H   0  0  0  0  0  0
  -25.1284  -36.1931   25.0836 H   0  0  0  0  0  0
  -20.9954  -28.3225   24.1397 H   0  0  0  0  0  0
  -20.5598  -26.2280   23.3597 H   0  0  0  0  0  0
  -21.6625  -26.7377   22.1229 H   0  0  0  0  0  0
  -19.6893  -25.6278   21.1226 H   0  0  0  0  0  0
  -19.6696  -27.3173   20.6709 H   0  0  0  0  0  0
  -17.4182  -26.6644   21.4021 H   0  0  0  0  0  0
  -18.0344  -26.0068   22.9011 H   0  0  0  0  0  0
  -19.7948  -30.7251   24.2258 H   0  0  0  0  0  0
  -17.5031  -31.6271   24.5137 H   0  0  0  0  0  0
  -15.5359  -30.2979   23.7687 H   0  0  0  0  0  0
  -15.8653  -28.0818   22.7088 H   0  0  0  0  0  0
  -24.5939  -30.6997   25.7847 H   0  0  0  0  0  0
  -24.8925  -32.2826   26.4971 H   0  0  0  0  0  0
  -25.8130  -30.8851   27.0244 H   0  0  0  0  0  0
  -26.2929  -29.6735   24.1272 H   0  0  0  0  0  0
  -27.4108  -29.7310   25.4706 H   0  0  0  0  0  0
  -27.8772  -30.4338   23.9399 H   0  0  0  0  0  0
  -27.2678  -33.3639   26.2055 H   0  0  0  0  0  0
  -28.3863  -32.6856   25.0312 H   0  0  0  0  0  0
  -28.0719  -31.8459   26.5415 H   0  0  0  0  0  0
  -28.2572  -38.0118   24.7550 H   0  0  0  0  0  0
  -28.1099  -36.2645   24.6236 H   0  0  0  0  0  0
  -27.2300  -37.1373   25.8867 H   0  0  0  0  0  0
  -20.9376  -29.8772   21.6898 H   0  0  0  0  0  0
  -26.0162  -38.2850   24.1473 H   0  0  0  0  0  0
  -31.2104  -19.6819   19.0545 H   0  0  0  0  0  0
  -31.6055  -17.3584   19.6555 H   0  0  0  0  0  0
  -27.4694  -19.6395   21.1511 H   0  0  0  0  0  0
  -28.0024  -22.9176   17.0423 H   0  0  0  0  0  0
  -29.7132  -22.9148   16.7053 H   0  0  0  0  0  0
  -28.9188  -24.9483   17.9725 H   0  0  0  0  0  0
  -30.2315  -24.1065   18.7662 H   0  0  0  0  0  0
  -27.2801  -23.7168   19.3549 H   0  0  0  0  0  0
  -29.1718  -15.4882   23.1772 H   0  0  0  0  0  0
  -30.6662  -16.4181   23.1390 H   0  0  0  0  0  0
  -30.7153  -14.6702   23.0316 H   0  0  0  0  0  0
  -26.1707  -17.0422   23.3243 H   0  0  0  0  0  0
  -25.9260  -18.1552   21.9900 H   0  0  0  0  0  0
  -27.0888  -18.5387   23.2848 H   0  0  0  0  0  0
  -29.1914  -25.0296   21.2919 H   0  0  0  0  0  0
  -27.4647  -25.0412   21.3335 H   0  0  0  0  0  0
  1 25  1  0  0  0
  1 30  2  0  0  0
  1 86  1  0  0  0
  2  3  1  0  0  0
  2 25  1  0  0  0
  2 90  1  0  0  0
  2 91  1  0  0  0
  3  4  1  0  0  0
  3 92  1  0  0  0
  3 93  1  0  0  0
  4  5  1  0  0  0
  4 94  1  0  0  0
  4 95  1  0  0  0
  5  6  1  0  0  0
  5 26  1  0  0  0
  5 96  1  0  0  0
  6 25  1  0  0  0
  6 97  1  0  0  0
  6 98  1  0  0  0
  7  8  2  0  0  0
  7 26  1  0  0  0
  7 29  1  0  0  0
  8  9  1  0  0  0
  8 22  1  0  0  0
  9 10  1  0  0  0
  9 27  2  0  0  0
 10 11  2  0  0  0
 10 15  1  0  0  0
 11 12  1  0  0  0
 11 99  1  0  0  0
 12 13  2  0  0  0
 12100  1  0  0  0
 13 14  1  0  0  0
 13 31  1  0  0  0
 14 15  2  0  0  0
 14101  1  0  0  0
 15102  1  0  0  0
 16 17  2  0  0  0
 16 21  1  0  0  0
 16 31  1  0  0  0
 17 18  1  0  0  0
 17103  1  0  0  0
 18 19  2  0  0  0
 18104  1  0  0  0
 19 20  1  0  0  0
 19 24  1  0  0  0
 20 21  2  0  0  0
 20105  1  0  0  0
 21 23  1  0  0  0
 22 28  1  0  0  0
 22 32  2  0  0  0
 26 27  1  0  0  0
 28106  1  0  0  0
 28107  1  0  0  0
 29108  1  0  0  0
 29109  1  0  0  0
 33 34  1  0  0  0
 33 66  1  0  0  0
 33 70  2  0  0  0
 34 36  1  0  0  0
 34 59  1  0  0  0
 34110  1  0  0  0
 35 44  2  0  0  0
 35 45  1  0  0  0
 35 68  1  0  0  0
 36 56  1  0  0  0
 36111  1  0  0  0
 37 39  1  0  0  0
 37 47  1  0  0  0
 37 66  1  0  0  0
 37112  1  0  0  0
 38 43  2  0  0  0
 38 46  1  0  0  0
 38 47  1  0  0  0
 39 64  1  0  0  0
 39 67  2  0  0  0
 40 52  1  0  0  0
 40 53  2  0  0  0
 40 58  1  0  0  0
 41113  1  0  0  0
 41114  1  0  0  0
 41115  1  0  0  0
 41 48  1  0  0  0
 42 43  1  0  0  0
 42 66  1  0  0  0
 42116  1  0  0  0
 42117  1  0  0  0
 43 44  1  0  0  0
 44118  1  0  0  0
 45 46  2  0  0  0
 45119  1  0  0  0
 46120  1  0  0  0
 47121  1  0  0  0
 47122  1  0  0  0
 48 56  1  0  0  0
 48 65  1  0  0  0
 48123  1  0  0  0
 49 50  1  0  0  0
 49 53  1  0  0  0
 49 64  1  0  0  0
 49124  1  0  0  0
 50 51  1  0  0  0
 50125  1  0  0  0
 50126  1  0  0  0
 51 52  1  0  0  0
 51127  1  0  0  0
 51128  1  0  0  0
 52129  1  0  0  0
 52130  1  0  0  0
 53 54  1  0  0  0
 54 55  2  0  0  0
 54131  1  0  0  0
 55 57  1  0  0  0
 55132  1  0  0  0
 56 69  2  0  0  0
 57 58  2  0  0  0
 57133  1  0  0  0
 58134  1  0  0  0
 59 60  1  0  0  0
 59 61  1  0  0  0
 59 62  1  0  0  0
 60135  1  0  0  0
 60136  1  0  0  0
 60137  1  0  0  0
 61138  1  0  0  0
 61139  1  0  0  0
 61140  1  0  0  0
 62141  1  0  0  0
 62142  1  0  0  0
 62143  1  0  0  0
 63 65  1  0  0  0
 63144  1  0  0  0
 63145  1  0  0  0
 63146  1  0  0  0
 64147  1  0  0  0
 65148  1  0  0  0
 68 84  1  0  0  0
 71 72  2  0  0  0
 71 74  1  0  0  0
 71149  1  0  0  0
 72 75  1  0  0  0
 72150  1  0  0  0
 73 74  2  0  0  0
 73 76  1  0  0  0
 73151  1  0  0  0
 74 85  1  0  0  0
 75 76  2  0  0  0
 75 86  1  0  0  0
 76 89  1  0  0  0
 77 79  1  0  0  0
 77 85  1  0  0  0
 77 87  2  0  0  0
 78 81  1  0  0  0
 78 85  1  0  0  0
 78 88  2  0  0  0
 79 80  1  0  0  0
 79152  1  0  0  0
 79153  1  0  0  0
 80 81  1  0  0  0
 80154  1  0  0  0
 80155  1  0  0  0
 81 84  1  0  0  0
 81156  1  0  0  0
 82 86  1  0  0  0
 82157  1  0  0  0
 82158  1  0  0  0
 82159  1  0  0  0
 83 89  1  0  0  0
 83160  1  0  0  0
 83161  1  0  0  0
 83162  1  0  0  0
 84163  1  0  0  0
 84164  1  0  0  0
M  ISO  4   1 100  68 101  84 101  86 100
M  END
> <chiral flag>
0

> <version>
0

> <s_m_source_file>
/data/baiqing/PycharmProjects/Reinvent-master-3.2/result/LINK_invent/BTK/process_docking_weight1_custom_product_contain_oxygen_bond_distance_aromatic_linkinvent_7_9_3/rearranged_h_0096.sdf

> <i_m_source_file_index>
65

> <r_mmod_Potential_Energy-OPLS-2005>
335.250915527344

> <r_mmod_Stretch_Energy-OPLS-2005>
113.919540405273

> <r_mmod_Bend_Energy-OPLS-2005>
165.685928344727

> <r_mmod_Torsional_Energy-OPLS-2005>
362.213928222656

> <r_mmod_Improper_Torsional_Energy-OPLS-2005>
3.99765586853027

> <r_mmod_Van_der_Waal_Energy-OPLS-2005>
159.79377746582

> <r_mmod_Electrostatic_Energy-OPLS-2005>
-302.966644287109

> <r_mmod_Solvation_Energy-OPLS-2005>
-216.27571105957

> <b_mmod_Minimization_Converged-OPLS-2005>
0

> <r_mmod_RMS_Derivative-OPLS-2005>
2.61585569381714

$$$$
65
                    3D
 Structure written by MMmdl.
155163  0  0  1  0            999 V2000
  -30.6788  -14.4669   20.6292 C   0  0  0  0  0  0
  -30.4366  -12.3201   19.4187 C   0  0  0  0  0  0
  -29.4964  -12.5145   18.2085 C   0  0  0  0  0  0
  -28.0184  -12.3668   18.6220 C   0  0  0  0  0  0
  -27.6662  -13.1986   19.8829 C   0  0  2  0  0  0
  -28.7036  -12.9427   20.9990 C   0  0  0  0  0  0
  -25.2592  -13.8141   20.5653 C   0  0  0  0  0  0
  -24.1837  -13.0435   20.9179 C   0  0  0  0  0  0
  -24.6384  -11.6905   20.8748 C   0  0  0  0  0  0
  -23.9055  -10.4293   21.0419 C   0  0  0  0  0  0
  -24.3612   -9.4205   21.9190 C   0  0  0  0  0  0
  -23.6290   -8.2238   22.0755 C   0  0  0  0  0  0
  -22.4275   -8.0279   21.3547 C   0  0  0  0  0  0
  -21.9908   -9.0250   20.4652 C   0  0  0  0  0  0
  -22.7234  -10.2130   20.3061 C   0  0  0  0  0  0
  -21.6845   -6.0735   22.5277 C   0  0  0  0  0  0
  -21.4009   -6.5642   23.8212 C   0  0  0  0  0  0
  -21.3656   -5.6793   24.9175 C   0  0  0  0  0  0
  -21.6051   -4.3056   24.7225 C   0  0  0  0  0  0
  -21.8817   -3.8145   23.4345 C   0  0  0  0  0  0
  -21.9197   -4.6964   22.3402 C   0  0  0  0  0  0
  -22.7866  -13.5239   21.1858 C   0  0  0  0  0  0
  -22.1662   -4.2153   21.0978 F   0  0  0  0  0  0
  -21.5635   -3.4537   25.7737 F   0  0  0  0  0  0
  -30.0426  -13.2725   20.4697 N   0  0  0  0  0  0
  -26.3034  -12.9296   20.3389 N   0  0  0  0  0  0
  -25.9308  -11.6468   20.5787 N   0  0  0  0  0  0
  -22.0513  -12.8223   22.0413 N   0  0  0  0  0  0
  -25.4316  -15.1843   20.3980 N   0  0  0  0  0  0
  -31.7402  -14.7453   20.0606 O   0  0  0  0  0  0
  -21.6639   -6.8880   21.4241 O   0  0  0  0  0  0
  -22.3556  -14.5559   20.6730 O   0  0  0  0  0  0
  -24.6132  -31.8678   23.2088 C   0  0  0  0  0  0
  -25.9017  -32.4825   23.8379 C   0  0  1  0  0  0
  -27.2340  -27.4325   20.1059 C   0  0  0  0  0  0
  -25.5878  -33.8620   24.2321 N   0  0  0  0  0  0
  -23.4025  -30.4901   21.5479 C   0  0  2  0  0  0
  -24.8515  -28.9530   20.1148 C   0  0  0  0  0  0
  -22.7410  -29.4661   22.4972 C   0  0  0  0  0  0
  -18.0286  -28.1392   22.8502 C   0  0  0  0  0  0
  -24.1485  -36.7308   23.2627 C   0  0  0  0  0  0
  -25.9297  -30.8339   21.3601 C   0  0  0  0  0  0
  -26.0108  -29.4666   20.7118 C   0  0  0  0  0  0
  -27.2083  -28.7130   20.7042 C   0  0  0  0  0  0
  -26.0610  -26.9313   19.5065 C   0  0  0  0  0  0
  -24.8701  -27.6830   19.5115 C   0  0  0  0  0  0
  -23.6124  -29.8186   20.1638 C   0  0  0  0  0  0
  -25.4090  -36.3108   24.0348 C   0  0  1  0  0  0
  -20.5876  -28.3673   23.1322 C   0  0  2  0  0  0
  -20.6783  -26.9412   22.5412 C   0  0  0  0  0  0
  -19.5761  -26.6391   21.5217 C   0  0  0  0  0  0
  -18.1940  -26.7942   22.1629 C   0  0  0  0  0  0
  -19.1538  -28.8841   23.2920 C   0  0  0  0  0  0
  -18.9467  -30.1455   23.8914 C   0  0  0  0  0  0
  -17.6469  -30.6592   24.0574 C   0  0  0  0  0  0
  -25.9023  -34.9481   23.5133 C   0  0  0  0  0  0
  -16.5359  -29.9102   23.6337 C   0  0  0  0  0  0
  -16.7274  -28.6527   23.0336 C   0  0  0  0  0  0
  -26.4439  -31.6605   25.0708 C   0  0  0  0  0  0
  -25.3715  -31.3724   26.1469 C   0  0  0  0  0  0
  -27.0270  -30.3053   24.6063 C   0  0  0  0  0  0
  -27.6022  -32.4308   25.7465 C   0  0  0  0  0  0
  -27.5609  -37.1756   24.8428 C   0  0  0  0  0  0
  -21.4138  -29.3038   22.3719 N   0  0  0  0  0  0
  -26.4265  -37.3811   23.9474 N   0  0  0  0  0  0
  -24.6668  -31.0777   22.0990 N   0  0  0  0  0  0
  -23.4194  -28.8220   23.3021 O   0  0  0  0  0  0
  -28.3774  -26.6655   20.0849 O   0  0  0  0  0  0
  -26.5589  -34.8943   22.4701 O   0  0  0  0  0  0
  -23.5317  -32.1415   23.7486 O   0  0  0  0  0  0
  -29.9545  -18.9395   20.2865 C   0  0  0  0  0  0
  -30.4501  -17.6226   20.4882 C   0  0  0  0  0  0
  -27.9923  -18.4017   21.6180 C   0  0  0  0  0  0
  -28.7037  -19.3325   20.8257 C   0  0  0  0  0  0
  -29.7009  -16.6817   21.2388 C   0  0  0  0  0  0
  -28.4870  -17.0981   21.8219 C   0  0  0  0  0  0
  -28.0728  -20.6368   20.5193 C   0  0  0  0  0  0
  -28.2094  -23.1510   20.3514 C   0  0  0  0  0  0
  -29.1456  -24.3385   20.6546 C   0  0  0  0  0  0
  -28.4298  -25.6487   21.1023 C   0  0  0  0  0  0
  -30.0596  -15.3177   21.4645 N   0  0  0  0  0  0
  -28.7314  -21.8214   20.6290 N   0  0  0  0  0  0
  -26.7929  -20.5959   20.1312 N   0  3  0  0  0  0
  -27.0682  -23.3274   19.9055 O   0  0  0  0  0  0
  -27.7709  -16.2155   22.5605 F   0  0  0  0  0  0
  -31.4766  -12.4485   19.1126 H   0  0  0  0  0  0
  -30.3662  -11.2995   19.7985 H   0  0  0  0  0  0
  -29.7369  -11.7908   17.4280 H   0  0  0  0  0  0
  -29.6558  -13.5008   17.7704 H   0  0  0  0  0  0
  -27.8327  -11.3099   18.8155 H   0  0  0  0  0  0
  -27.3646  -12.6405   17.7936 H   0  0  0  0  0  0
  -27.7220  -14.2515   19.6043 H   0  0  0  0  0  0
  -28.6821  -11.8930   21.2942 H   0  0  0  0  0  0
  -28.4390  -13.4911   21.9034 H   0  0  0  0  0  0
  -25.2753   -9.5684   22.4771 H   0  0  0  0  0  0
  -24.0009   -7.4623   22.7453 H   0  0  0  0  0  0
  -21.0850   -8.8766   19.8941 H   0  0  0  0  0  0
  -22.3695  -10.9677   19.6173 H   0  0  0  0  0  0
  -21.1986   -7.6148   23.9719 H   0  0  0  0  0  0
  -21.1483   -6.0521   25.9082 H   0  0  0  0  0  0
  -22.0602   -2.7611   23.2841 H   0  0  0  0  0  0
  -22.4120  -11.9851   22.4754 H   0  0  0  0  0  0
  -21.1139  -13.1255   22.2647 H   0  0  0  0  0  0
  -24.6722  -15.8454   20.5172 H   0  0  0  0  0  0
  -26.2901  -15.6159   20.0834 H   0  0  0  0  0  0
  -26.7089  -32.5525   23.1150 H   0  0  0  0  0  0
  -25.0030  -33.9770   25.0465 H   0  0  0  0  0  0
  -22.6909  -31.3066   21.4041 H   0  0  0  0  0  0
  -23.3775  -35.9600   23.3183 H   0  0  0  0  0  0
  -24.3623  -36.9011   22.2065 H   0  0  0  0  0  0
  -23.7180  -37.6464   23.6694 H   0  0  0  0  0  0
  -26.0340  -31.5991   20.5889 H   0  0  0  0  0  0
  -26.8194  -30.8923   21.9751 H   0  0  0  0  0  0
  -28.1049  -29.1049   21.1635 H   0  0  0  0  0  0
  -26.0692  -25.9541   19.0442 H   0  0  0  0  0  0
  -23.9781  -27.2778   19.0543 H   0  0  0  0  0  0
  -23.7199  -30.5898   19.4003 H   0  0  0  0  0  0
  -22.7371  -29.2353   19.8709 H   0  0  0  0  0  0
  -25.1245  -36.1947   25.0834 H   0  0  0  0  0  0
  -20.9970  -28.3233   24.1443 H   0  0  0  0  0  0
  -20.5712  -26.2270   23.3593 H   0  0  0  0  0  0
  -21.6654  -26.7470   22.1182 H   0  0  0  0  0  0
  -19.6928  -25.6307   21.1232 H   0  0  0  0  0  0
  -19.6715  -27.3218   20.6768 H   0  0  0  0  0  0
  -17.4216  -26.6693   21.4032 H   0  0  0  0  0  0
  -18.0343  -26.0089   22.9025 H   0  0  0  0  0  0
  -19.7942  -30.7281   24.2269 H   0  0  0  0  0  0
  -17.5029  -31.6273   24.5174 H   0  0  0  0  0  0
  -15.5362  -30.3010   23.7652 H   0  0  0  0  0  0
  -15.8678  -28.0862   22.7011 H   0  0  0  0  0  0
  -24.5881  -30.7080   25.7816 H   0  0  0  0  0  0
  -24.8921  -32.2889   26.4910 H   0  0  0  0  0  0
  -25.8062  -30.8903   27.0233 H   0  0  0  0  0  0
  -26.2820  -29.6832   24.1093 H   0  0  0  0  0  0
  -27.4039  -29.7265   25.4502 H   0  0  0  0  0  0
  -27.8643  -30.4381   23.9209 H   0  0  0  0  0  0
  -27.2646  -33.3596   26.2071 H   0  0  0  0  0  0
  -28.3813  -32.6874   25.0278 H   0  0  0  0  0  0
  -28.0708  -31.8419   26.5360 H   0  0  0  0  0  0
  -28.2453  -38.0221   24.7721 H   0  0  0  0  0  0
  -28.1278  -36.2776   24.5912 H   0  0  0  0  0  0
  -27.2392  -37.0970   25.8829 H   0  0  0  0  0  0
  -20.9294  -29.8720   21.6912 H   0  0  0  0  0  0
  -26.0137  -38.2849   24.1635 H   0  0  0  0  0  0
  -30.5211  -19.6280   19.6745 H   0  0  0  0  0  0
  -31.3941  -17.3426   20.0443 H   0  0  0  0  0  0
  -27.0420  -18.6686   22.0585 H   0  0  0  0  0  0
  -29.7692  -24.5299   19.7816 H   0  0  0  0  0  0
  -29.8224  -24.0280   21.4501 H   0  0  0  0  0  0
  -28.9811  -26.0734   21.9414 H   0  0  0  0  0  0
  -27.4379  -25.4260   21.5025 H   0  0  0  0  0  0
  -29.3747  -14.8497   22.0395 H   0  0  0  0  0  0
  -29.6693  -21.6919   20.9784 H   0  0  0  0  0  0
  -26.3179  -19.7178   19.9963 H   0  0  0  0  0  0
  -26.3308  -21.4658   19.8958 H   0  0  0  0  0  0
  1 25  1  0  0  0
  1 30  2  0  0  0
  1 81  1  0  0  0
  2  3  1  0  0  0
  2 25  1  0  0  0
  2 86  1  0  0  0
  2 87  1  0  0  0
  3  4  1  0  0  0
  3 88  1  0  0  0
  3 89  1  0  0  0
  4  5  1  0  0  0
  4 90  1  0  0  0
  4 91  1  0  0  0
  5  6  1  0  0  0
  5 26  1  0  0  0
  5 92  1  0  0  0
  6 25  1  0  0  0
  6 93  1  0  0  0
  6 94  1  0  0  0
  7  8  2  0  0  0
  7 26  1  0  0  0
  7 29  1  0  0  0
  8  9  1  0  0  0
  8 22  1  0  0  0
  9 10  1  0  0  0
  9 27  2  0  0  0
 10 11  2  0  0  0
 10 15  1  0  0  0
 11 12  1  0  0  0
 11 95  1  0  0  0
 12 13  2  0  0  0
 12 96  1  0  0  0
 13 14  1  0  0  0
 13 31  1  0  0  0
 14 15  2  0  0  0
 14 97  1  0  0  0
 15 98  1  0  0  0
 16 17  2  0  0  0
 16 21  1  0  0  0
 16 31  1  0  0  0
 17 18  1  0  0  0
 17 99  1  0  0  0
 18 19  2  0  0  0
 18100  1  0  0  0
 19 20  1  0  0  0
 19 24  1  0  0  0
 20 21  2  0  0  0
 20101  1  0  0  0
 21 23  1  0  0  0
 22 28  1  0  0  0
 22 32  2  0  0  0
 26 27  1  0  0  0
 28102  1  0  0  0
 28103  1  0  0  0
 29104  1  0  0  0
 29105  1  0  0  0
 33 34  1  0  0  0
 33 66  1  0  0  0
 33 70  2  0  0  0
 34 36  1  0  0  0
 34 59  1  0  0  0
 34106  1  0  0  0
 35 44  2  0  0  0
 35 45  1  0  0  0
 35 68  1  0  0  0
 36 56  1  0  0  0
 36107  1  0  0  0
 37 39  1  0  0  0
 37 47  1  0  0  0
 37 66  1  0  0  0
 37108  1  0  0  0
 38 43  2  0  0  0
 38 46  1  0  0  0
 38 47  1  0  0  0
 39 64  1  0  0  0
 39 67  2  0  0  0
 40 52  1  0  0  0
 40 53  2  0  0  0
 40 58  1  0  0  0
 41109  1  0  0  0
 41110  1  0  0  0
 41111  1  0  0  0
 41 48  1  0  0  0
 42 43  1  0  0  0
 42 66  1  0  0  0
 42112  1  0  0  0
 42113  1  0  0  0
 43 44  1  0  0  0
 44114  1  0  0  0
 45 46  2  0  0  0
 45115  1  0  0  0
 46116  1  0  0  0
 47117  1  0  0  0
 47118  1  0  0  0
 48 56  1  0  0  0
 48 65  1  0  0  0
 48119  1  0  0  0
 49 50  1  0  0  0
 49 53  1  0  0  0
 49 64  1  0  0  0
 49120  1  0  0  0
 50 51  1  0  0  0
 50121  1  0  0  0
 50122  1  0  0  0
 51 52  1  0  0  0
 51123  1  0  0  0
 51124  1  0  0  0
 52125  1  0  0  0
 52126  1  0  0  0
 53 54  1  0  0  0
 54 55  2  0  0  0
 54127  1  0  0  0
 55 57  1  0  0  0
 55128  1  0  0  0
 56 69  2  0  0  0
 57 58  2  0  0  0
 57129  1  0  0  0
 58130  1  0  0  0
 59 60  1  0  0  0
 59 61  1  0  0  0
 59 62  1  0  0  0
 60131  1  0  0  0
 60132  1  0  0  0
 60133  1  0  0  0
 61134  1  0  0  0
 61135  1  0  0  0
 61136  1  0  0  0
 62137  1  0  0  0
 62138  1  0  0  0
 62139  1  0  0  0
 63 65  1  0  0  0
 63140  1  0  0  0
 63141  1  0  0  0
 63142  1  0  0  0
 64143  1  0  0  0
 65144  1  0  0  0
 68 80  1  0  0  0
 71 72  2  0  0  0
 71 74  1  0  0  0
 71145  1  0  0  0
 72 75  1  0  0  0
 72146  1  0  0  0
 73 74  2  0  0  0
 73 76  1  0  0  0
 73147  1  0  0  0
 74 77  1  0  0  0
 75 76  2  0  0  0
 75 81  1  0  0  0
 76 85  1  0  0  0
 77 82  1  0  0  0
 77 83  2  0  0  0
 78 79  1  0  0  0
 78 82  1  0  0  0
 78 84  2  0  0  0
 79 80  1  0  0  0
 79148  1  0  0  0
 79149  1  0  0  0
 80150  1  0  0  0
 80151  1  0  0  0
 81152  1  0  0  0
 82153  1  0  0  0
 83154  1  0  0  0
 83155  1  0  0  0
M  CHG  1  83   1
M  ISO  4   1 100  68 101  80 101  81 100
M  END
> <chiral flag>
0

> <version>
0

> <s_m_source_file>
/data/baiqing/PycharmProjects/Reinvent-master-3.2/result/LINK_invent/BTK/process_docking_weight1_custom_product_contain_oxygen_bond_distance_aromatic_linkinvent_7_9_3/rearranged_h_0096.sdf

> <i_m_source_file_index>
66

> <r_mmod_Potential_Energy-OPLS-2005>
-382.109436035156

> <r_mmod_Stretch_Energy-OPLS-2005>
40.2245483398438

> <r_mmod_Bend_Energy-OPLS-2005>
112.81258392334

> <r_mmod_Torsional_Energy-OPLS-2005>
247.19660949707

> <r_mmod_Improper_Torsional_Energy-OPLS-2005>
5.12395524978638

> <r_mmod_Van_der_Waal_Energy-OPLS-2005>
156.845077514648

> <r_mmod_Electrostatic_Energy-OPLS-2005>
-496.087188720703

> <r_mmod_Solvation_Energy-OPLS-2005>
-460.440826416016

> <b_mmod_Minimization_Converged-OPLS-2005>
0

> <r_mmod_RMS_Derivative-OPLS-2005>
1.89835393428802

$$$$
66
                    3D
 Structure written by MMmdl.
156165  0  0  1  0            999 V2000
  -30.6321  -14.7582   20.4447 C   0  0  0  0  0  0
  -30.4236  -12.4632   19.4731 C   0  0  0  0  0  0
  -29.5028  -12.4971   18.2343 C   0  0  0  0  0  0
  -28.0325  -12.3187   18.6555 C   0  0  0  0  0  0
  -27.6367  -13.2353   19.8437 C   0  0  2  0  0  0
  -28.6830  -13.1988   20.9790 C   0  0  0  0  0  0
  -25.2499  -13.8207   20.5709 C   0  0  0  0  0  0
  -24.1796  -13.0441   20.9210 C   0  0  0  0  0  0
  -24.6394  -11.6923   20.8754 C   0  0  0  0  0  0
  -23.9071  -10.4297   21.0409 C   0  0  0  0  0  0
  -24.3625   -9.4209   21.9186 C   0  0  0  0  0  0
  -23.6301   -8.2244   22.0758 C   0  0  0  0  0  0
  -22.4282   -8.0284   21.3545 C   0  0  0  0  0  0
  -21.9918   -9.0255   20.4647 C   0  0  0  0  0  0
  -22.7248  -10.2134   20.3056 C   0  0  0  0  0  0
  -21.6850   -6.0739   22.5281 C   0  0  0  0  0  0
  -21.4010   -6.5644   23.8217 C   0  0  0  0  0  0
  -21.3653   -5.6795   24.9175 C   0  0  0  0  0  0
  -21.6041   -4.3061   24.7225 C   0  0  0  0  0  0
  -21.8821   -3.8152   23.4350 C   0  0  0  0  0  0
  -21.9196   -4.6966   22.3403 C   0  0  0  0  0  0
  -22.7818  -13.5218   21.1872 C   0  0  0  0  0  0
  -22.1667   -4.2156   21.0980 F   0  0  0  0  0  0
  -21.5623   -3.4546   25.7735 F   0  0  0  0  0  0
  -29.9807  -13.5440   20.3882 N   0  0  0  0  0  0
  -26.2918  -12.9422   20.3276 N   0  0  0  0  0  0
  -25.9323  -11.6557   20.5755 N   0  0  0  0  0  0
  -22.0467  -12.8197   22.0424 N   0  0  0  0  0  0
  -25.4181  -15.1933   20.4148 N   0  0  0  0  0  0
  -31.8248  -14.7930   20.1358 O   0  0  0  0  0  0
  -21.6642   -6.8884   21.4244 O   0  0  0  0  0  0
  -22.3500  -14.5521   20.6723 O   0  0  0  0  0  0
  -24.6320  -31.8537   23.1958 C   0  0  0  0  0  0
  -25.9142  -32.4750   23.8308 C   0  0  1  0  0  0
  -27.2264  -27.2576   20.1162 C   0  0  0  0  0  0
  -25.5941  -33.8552   24.2237 N   0  0  0  0  0  0
  -23.4277  -30.4746   21.5409 C   0  0  2  0  0  0
  -24.8746  -28.9191   20.1106 C   0  0  0  0  0  0
  -22.7506  -29.4594   22.4929 C   0  0  0  0  0  0
  -18.0287  -28.1396   22.8480 C   0  0  0  0  0  0
  -24.1483  -36.7270   23.2636 C   0  0  0  0  0  0
  -25.9731  -30.7665   21.3716 C   0  0  0  0  0  0
  -26.0454  -29.3870   20.7165 C   0  0  0  0  0  0
  -27.2196  -28.5675   20.7106 C   0  0  0  0  0  0
  -26.0220  -26.8528   19.4948 C   0  0  0  0  0  0
  -24.8677  -27.6601   19.4927 C   0  0  0  0  0  0
  -23.6437  -29.8035   20.1588 C   0  0  0  0  0  0
  -25.4112  -36.3059   24.0322 C   0  0  1  0  0  0
  -20.5890  -28.3706   23.1280 C   0  0  2  0  0  0
  -20.6779  -26.9427   22.5408 C   0  0  0  0  0  0
  -19.5755  -26.6395   21.5212 C   0  0  0  0  0  0
  -18.1932  -26.7939   22.1615 C   0  0  0  0  0  0
  -19.1537  -28.8871   23.2869 C   0  0  0  0  0  0
  -18.9463  -30.1468   23.8896 C   0  0  0  0  0  0
  -17.6463  -30.6598   24.0567 C   0  0  0  0  0  0
  -25.9065  -34.9438   23.5083 C   0  0  0  0  0  0
  -16.5355  -29.9092   23.6342 C   0  0  0  0  0  0
  -16.7273  -28.6510   23.0361 C   0  0  0  0  0  0
  -26.4510  -31.6579   25.0701 C   0  0  0  0  0  0
  -25.3728  -31.3724   26.1419 C   0  0  0  0  0  0
  -27.0360  -30.3005   24.6174 C   0  0  0  0  0  0
  -27.6070  -32.4323   25.7476 C   0  0  0  0  0  0
  -27.5579  -37.1773   24.8457 C   0  0  0  0  0  0
  -21.4214  -29.3044   22.3676 N   0  0  0  0  0  0
  -26.4275  -37.3768   23.9430 N   0  0  0  0  0  0
  -24.6972  -31.0495   22.0933 N   0  0  0  0  0  0
  -23.4202  -28.8142   23.3039 O   0  0  0  0  0  0
  -28.3486  -26.3957   20.1967 O   0  0  0  0  0  0
  -26.5629  -34.8916   22.4652 O   0  0  0  0  0  0
  -23.5473  -32.1367   23.7256 O   0  0  0  0  0  0
  -31.1965  -20.1303   20.3840 C   0  0  0  0  0  0
  -31.6747  -17.7304   20.5736 C   0  0  0  0  0  0
  -29.8020  -19.9165   20.3662 C   0  0  0  0  0  0
  -30.3021  -17.3787   20.5476 C   0  0  0  0  0  0
  -32.1085  -19.0663   20.4907 C   0  0  0  0  0  0
  -29.3769  -18.5123   20.4644 C   0  0  0  0  0  0
  -27.6706  -22.9709   21.1617 C   0  0  0  0  0  0
  -28.1623  -21.5149   21.4281 C   0  0  0  0  0  0
  -29.2894  -22.3823   19.5565 C   0  0  0  0  0  0
  -28.7969  -23.6596   20.3771 C   0  0  1  0  0  0
  -28.4324  -25.0276   19.5713 C   0  0  0  0  0  0
  -28.9445  -21.0983   20.2653 N   0  0  0  0  0  0
  -29.8973  -15.9330   20.6246 N   0  0  0  0  0  0
  -33.4364  -19.3329   20.5217 F   0  0  0  0  0  0
  -28.0494  -18.2376   20.4602 F   0  0  0  0  0  0
  -31.4644  -12.5729   19.1641 H   0  0  0  0  0  0
  -30.3646  -11.4949   19.9716 H   0  0  0  0  0  0
  -29.7861  -11.7128   17.5306 H   0  0  0  0  0  0
  -29.6239  -13.4432   17.7049 H   0  0  0  0  0  0
  -27.9014  -11.2739   18.9396 H   0  0  0  0  0  0
  -27.3692  -12.4861   17.8062 H   0  0  0  0  0  0
  -27.6221  -14.2493   19.4433 H   0  0  0  0  0  0
  -28.7234  -12.2119   21.4419 H   0  0  0  0  0  0
  -28.4180  -13.9003   21.7716 H   0  0  0  0  0  0
  -25.2770   -9.5681   22.4766 H   0  0  0  0  0  0
  -24.0005   -7.4632   22.7480 H   0  0  0  0  0  0
  -21.0849   -8.8775   19.8952 H   0  0  0  0  0  0
  -22.3712  -10.9673   19.6165 H   0  0  0  0  0  0
  -21.2004   -7.6154   23.9717 H   0  0  0  0  0  0
  -21.1467   -6.0528   25.9075 H   0  0  0  0  0  0
  -22.0606   -2.7616   23.2846 H   0  0  0  0  0  0
  -22.4092  -11.9852   22.4793 H   0  0  0  0  0  0
  -21.1080  -13.1207   22.2626 H   0  0  0  0  0  0
  -24.6513  -15.8452   20.5391 H   0  0  0  0  0  0
  -26.2639  -15.6422   20.0875 H   0  0  0  0  0  0
  -26.7207  -32.5390   23.1047 H   0  0  0  0  0  0
  -25.0106  -33.9696   25.0398 H   0  0  0  0  0  0
  -22.7233  -31.2956   21.3919 H   0  0  0  0  0  0
  -23.3745  -35.9597   23.3292 H   0  0  0  0  0  0
  -24.3571  -36.8904   22.2049 H   0  0  0  0  0  0
  -23.7234  -37.6471   23.6667 H   0  0  0  0  0  0
  -26.1027  -31.5226   20.5958 H   0  0  0  0  0  0
  -26.8549  -30.8238   21.9978 H   0  0  0  0  0  0
  -28.1166  -28.9230   21.1985 H   0  0  0  0  0  0
  -25.9132  -25.8867   19.0312 H   0  0  0  0  0  0
  -23.9655  -27.2917   19.0237 H   0  0  0  0  0  0
  -23.7595  -30.5754   19.3973 H   0  0  0  0  0  0
  -22.7636  -29.2303   19.8611 H   0  0  0  0  0  0
  -25.1281  -36.1893   25.0807 H   0  0  0  0  0  0
  -20.9967  -28.3282   24.1407 H   0  0  0  0  0  0
  -20.5712  -26.2309   23.3606 H   0  0  0  0  0  0
  -21.6645  -26.7478   22.1179 H   0  0  0  0  0  0
  -19.6932  -25.6309   21.1239 H   0  0  0  0  0  0
  -19.6701  -27.3209   20.6747 H   0  0  0  0  0  0
  -17.4206  -26.6694   21.4010 H   0  0  0  0  0  0
  -18.0331  -26.0082   22.9014 H   0  0  0  0  0  0
  -19.7939  -30.7277   24.2271 H   0  0  0  0  0  0
  -17.5018  -31.6282   24.5161 H   0  0  0  0  0  0
  -15.5357  -30.2991   23.7684 H   0  0  0  0  0  0
  -15.8668  -28.0831   22.7090 H   0  0  0  0  0  0
  -24.5933  -30.7042   25.7743 H   0  0  0  0  0  0
  -24.8880  -32.2880   26.4814 H   0  0  0  0  0  0
  -25.8042  -30.8930   27.0217 H   0  0  0  0  0  0
  -26.2938  -29.6744   24.1210 H   0  0  0  0  0  0
  -27.4074  -29.7278   25.4684 H   0  0  0  0  0  0
  -27.8795  -30.4291   23.9388 H   0  0  0  0  0  0
  -27.2702  -33.3658   26.2001 H   0  0  0  0  0  0
  -28.3908  -32.6831   25.0315 H   0  0  0  0  0  0
  -28.0698  -31.8471   26.5436 H   0  0  0  0  0  0
  -28.2547  -38.0117   24.7571 H   0  0  0  0  0  0
  -28.1123  -36.2654   24.6190 H   0  0  0  0  0  0
  -27.2308  -37.1308   25.8858 H   0  0  0  0  0  0
  -20.9427  -29.8748   21.6849 H   0  0  0  0  0  0
  -26.0142  -38.2827   24.1482 H   0  0  0  0  0  0
  -31.6042  -21.1281   20.3448 H   0  0  0  0  0  0
  -32.4489  -16.9883   20.6691 H   0  0  0  0  0  0
  -27.4190  -23.5009   22.0810 H   0  0  0  0  0  0
  -26.7699  -22.9429   20.5466 H   0  0  0  0  0  0
  -27.3231  -20.8408   21.6048 H   0  0  0  0  0  0
  -28.7981  -21.4916   22.3159 H   0  0  0  0  0  0
  -30.3451  -22.4714   19.3053 H   0  0  0  0  0  0
  -28.7603  -22.3648   18.6020 H   0  0  0  0  0  0
  -29.5936  -23.9026   21.0818 H   0  0  0  0  0  0
  -27.6061  -24.8106   18.9031 H   0  0  0  0  0  0
  -29.2627  -25.1559   18.8756 H   0  0  0  0  0  0
  -28.9105  -15.7843   20.7745 H   0  0  0  0  0  0
  1 25  1  0  0  0
  1 30  2  0  0  0
  1 83  1  0  0  0
  2  3  1  0  0  0
  2 25  1  0  0  0
  2 86  1  0  0  0
  2 87  1  0  0  0
  3  4  1  0  0  0
  3 88  1  0  0  0
  3 89  1  0  0  0
  4  5  1  0  0  0
  4 90  1  0  0  0
  4 91  1  0  0  0
  5  6  1  0  0  0
  5 26  1  0  0  0
  5 92  1  0  0  0
  6 25  1  0  0  0
  6 93  1  0  0  0
  6 94  1  0  0  0
  7  8  2  0  0  0
  7 26  1  0  0  0
  7 29  1  0  0  0
  8  9  1  0  0  0
  8 22  1  0  0  0
  9 10  1  0  0  0
  9 27  2  0  0  0
 10 11  2  0  0  0
 10 15  1  0  0  0
 11 12  1  0  0  0
 11 95  1  0  0  0
 12 13  2  0  0  0
 12 96  1  0  0  0
 13 14  1  0  0  0
 13 31  1  0  0  0
 14 15  2  0  0  0
 14 97  1  0  0  0
 15 98  1  0  0  0
 16 17  2  0  0  0
 16 21  1  0  0  0
 16 31  1  0  0  0
 17 18  1  0  0  0
 17 99  1  0  0  0
 18 19  2  0  0  0
 18100  1  0  0  0
 19 20  1  0  0  0
 19 24  1  0  0  0
 20 21  2  0  0  0
 20101  1  0  0  0
 21 23  1  0  0  0
 22 28  1  0  0  0
 22 32  2  0  0  0
 26 27  1  0  0  0
 28102  1  0  0  0
 28103  1  0  0  0
 29104  1  0  0  0
 29105  1  0  0  0
 33 34  1  0  0  0
 33 66  1  0  0  0
 33 70  2  0  0  0
 34 36  1  0  0  0
 34 59  1  0  0  0
 34106  1  0  0  0
 35 44  2  0  0  0
 35 45  1  0  0  0
 35 68  1  0  0  0
 36 56  1  0  0  0
 36107  1  0  0  0
 37 39  1  0  0  0
 37 47  1  0  0  0
 37 66  1  0  0  0
 37108  1  0  0  0
 38 43  2  0  0  0
 38 46  1  0  0  0
 38 47  1  0  0  0
 39 64  1  0  0  0
 39 67  2  0  0  0
 40 52  1  0  0  0
 40 53  2  0  0  0
 40 58  1  0  0  0
 41109  1  0  0  0
 41110  1  0  0  0
 41111  1  0  0  0
 41 48  1  0  0  0
 42 43  1  0  0  0
 42 66  1  0  0  0
 42112  1  0  0  0
 42113  1  0  0  0
 43 44  1  0  0  0
 44114  1  0  0  0
 45 46  2  0  0  0
 45115  1  0  0  0
 46116  1  0  0  0
 47117  1  0  0  0
 47118  1  0  0  0
 48 56  1  0  0  0
 48 65  1  0  0  0
 48119  1  0  0  0
 49 50  1  0  0  0
 49 53  1  0  0  0
 49 64  1  0  0  0
 49120  1  0  0  0
 50 51  1  0  0  0
 50121  1  0  0  0
 50122  1  0  0  0
 51 52  1  0  0  0
 51123  1  0  0  0
 51124  1  0  0  0
 52125  1  0  0  0
 52126  1  0  0  0
 53 54  1  0  0  0
 54 55  2  0  0  0
 54127  1  0  0  0
 55 57  1  0  0  0
 55128  1  0  0  0
 56 69  2  0  0  0
 57 58  2  0  0  0
 57129  1  0  0  0
 58130  1  0  0  0
 59 60  1  0  0  0
 59 61  1  0  0  0
 59 62  1  0  0  0
 60131  1  0  0  0
 60132  1  0  0  0
 60133  1  0  0  0
 61134  1  0  0  0
 61135  1  0  0  0
 61136  1  0  0  0
 62137  1  0  0  0
 62138  1  0  0  0
 62139  1  0  0  0
 63 65  1  0  0  0
 63140  1  0  0  0
 63141  1  0  0  0
 63142  1  0  0  0
 64143  1  0  0  0
 65144  1  0  0  0
 68 81  1  0  0  0
 71 73  2  0  0  0
 71 75  1  0  0  0
 71145  1  0  0  0
 72 74  1  0  0  0
 72 75  2  0  0  0
 72146  1  0  0  0
 73 76  1  0  0  0
 73 82  1  0  0  0
 74 76  2  0  0  0
 74 83  1  0  0  0
 75 84  1  0  0  0
 76 85  1  0  0  0
 77 78  1  0  0  0
 77 80  1  0  0  0
 77147  1  0  0  0
 77148  1  0  0  0
 78 82  1  0  0  0
 78149  1  0  0  0
 78150  1  0  0  0
 79 80  1  0  0  0
 79 82  1  0  0  0
 79151  1  0  0  0
 79152  1  0  0  0
 80 81  1  0  0  0
 80153  1  0  0  0
 81154  1  0  0  0
 81155  1  0  0  0
 83156  1  0  0  0
M  ISO  4   1 100  68 101  81 101  83 100
M  END
> <chiral flag>
0

> <version>
0

> <s_m_source_file>
/data/baiqing/PycharmProjects/Reinvent-master-3.2/result/LINK_invent/BTK/process_docking_weight1_custom_product_contain_oxygen_bond_distance_aromatic_linkinvent_7_9_3/rearranged_h_0096.sdf

> <i_m_source_file_index>
67

> <r_mmod_Potential_Energy-OPLS-2005>
325.067413330078

> <r_mmod_Stretch_Energy-OPLS-2005>
131.866271972656

> <r_mmod_Bend_Energy-OPLS-2005>
218.177261352539

> <r_mmod_Torsional_Energy-OPLS-2005>
274.992980957031

> <r_mmod_Improper_Torsional_Energy-OPLS-2005>
8.38468170166016

> <r_mmod_Van_der_Waal_Energy-OPLS-2005>
142.161956787109

> <r_mmod_Electrostatic_Energy-OPLS-2005>
-326.318511962891

> <r_mmod_Solvation_Energy-OPLS-2005>
-212.212158203125

> <b_mmod_Minimization_Converged-OPLS-2005>
0

> <r_mmod_RMS_Derivative-OPLS-2005>
1.4789867401123

$$$$
67
                    3D
 Structure written by MMmdl.
163172  0  0  1  0            999 V2000
  -30.6707  -14.6091   20.5998 C   0  0  0  0  0  0
  -30.4283  -12.4082   19.4462 C   0  0  0  0  0  0
  -29.5019  -12.5326   18.2188 C   0  0  0  0  0  0
  -28.0270  -12.3509   18.6272 C   0  0  0  0  0  0
  -27.6475  -13.2192   19.8550 C   0  0  2  0  0  0
  -28.6815  -13.0577   20.9851 C   0  0  0  0  0  0
  -25.2535  -13.8200   20.5680 C   0  0  0  0  0  0
  -24.1794  -13.0452   20.9191 C   0  0  0  0  0  0
  -24.6373  -11.6924   20.8732 C   0  0  0  0  0  0
  -23.9050  -10.4298   21.0403 C   0  0  0  0  0  0
  -24.3610   -9.4213   21.9176 C   0  0  0  0  0  0
  -23.6299   -8.2237   22.0739 C   0  0  0  0  0  0
  -22.4275   -8.0279   21.3541 C   0  0  0  0  0  0
  -21.9901   -9.0242   20.4631 C   0  0  0  0  0  0
  -22.7225  -10.2129   20.3043 C   0  0  0  0  0  0
  -21.6850   -6.0735   22.5279 C   0  0  0  0  0  0
  -21.4006   -6.5632   23.8216 C   0  0  0  0  0  0
  -21.3667   -5.6787   24.9177 C   0  0  0  0  0  0
  -21.6051   -4.3051   24.7222 C   0  0  0  0  0  0
  -21.8816   -3.8142   23.4343 C   0  0  0  0  0  0
  -21.9191   -4.6960   22.3406 C   0  0  0  0  0  0
  -22.7824  -13.5241   21.1876 C   0  0  0  0  0  0
  -22.1660   -4.2150   21.0982 F   0  0  0  0  0  0
  -21.5636   -3.4533   25.7734 F   0  0  0  0  0  0
  -30.0076  -13.4125   20.4481 N   0  0  0  0  0  0
  -26.2932  -12.9368   20.3246 N   0  0  0  0  0  0
  -25.9283  -11.6522   20.5705 N   0  0  0  0  0  0
  -22.0470  -12.8223   22.0440 N   0  0  0  0  0  0
  -25.4287  -15.1915   20.4138 N   0  0  0  0  0  0
  -31.7520  -14.8040   20.0347 O   0  0  0  0  0  0
  -21.6649   -6.8871   21.4240 O   0  0  0  0  0  0
  -22.3493  -14.5547   20.6740 O   0  0  0  0  0  0
  -24.6264  -31.8589   23.2029 C   0  0  0  0  0  0
  -25.9114  -32.4758   23.8359 C   0  0  1  0  0  0
  -27.2290  -27.3241   20.1179 C   0  0  0  0  0  0
  -25.5917  -33.8556   24.2299 N   0  0  0  0  0  0
  -23.4195  -30.4860   21.5416 C   0  0  2  0  0  0
  -24.8687  -28.9389   20.1084 C   0  0  0  0  0  0
  -22.7470  -29.4649   22.4896 C   0  0  0  0  0  0
  -18.0291  -28.1365   22.8488 C   0  0  0  0  0  0
  -24.1475  -36.7292   23.2650 C   0  0  0  0  0  0
  -25.9610  -30.7887   21.3783 C   0  0  0  0  0  0
  -26.0349  -29.4175   20.7197 C   0  0  0  0  0  0
  -27.2194  -28.6225   20.7136 C   0  0  0  0  0  0
  -26.0527  -26.9080   19.4597 C   0  0  0  0  0  0
  -24.8809  -27.6909   19.4656 C   0  0  0  0  0  0
  -23.6351  -29.8196   20.1569 C   0  0  0  0  0  0
  -25.4102  -36.3079   24.0351 C   0  0  1  0  0  0
  -20.5890  -28.3709   23.1233 C   0  0  2  0  0  0
  -20.6762  -26.9421   22.5386 C   0  0  0  0  0  0
  -19.5731  -26.6380   21.5194 C   0  0  0  0  0  0
  -18.1925  -26.7907   22.1624 C   0  0  0  0  0  0
  -19.1541  -28.8848   23.2861 C   0  0  0  0  0  0
  -18.9471  -30.1435   23.8897 C   0  0  0  0  0  0
  -17.6471  -30.6567   24.0555 C   0  0  0  0  0  0
  -25.9048  -34.9440   23.5137 C   0  0  0  0  0  0
  -16.5363  -29.9077   23.6299 C   0  0  0  0  0  0
  -16.7279  -28.6480   23.0356 C   0  0  0  0  0  0
  -26.4507  -31.6561   25.0728 C   0  0  0  0  0  0
  -25.3748  -31.3696   26.1467 C   0  0  0  0  0  0
  -27.0378  -30.2982   24.6209 C   0  0  0  0  0  0
  -27.6046  -32.4342   25.7484 C   0  0  0  0  0  0
  -27.5574  -37.1799   24.8464 C   0  0  0  0  0  0
  -21.4182  -29.3073   22.3626 N   0  0  0  0  0  0
  -26.4270  -37.3780   23.9424 N   0  0  0  0  0  0
  -24.6866  -31.0628   22.0957 N   0  0  0  0  0  0
  -23.4204  -28.8179   23.2958 O   0  0  0  0  0  0
  -28.3404  -26.4692   20.1369 O   0  0  0  0  0  0
  -26.5628  -34.8909   22.4710 O   0  0  0  0  0  0
  -23.5434  -32.1377   23.7371 O   0  0  0  0  0  0
  -29.8620  -19.4205   21.7912 C   0  0  0  0  0  0
  -29.9685  -18.0285   22.0743 C   0  0  0  0  0  0
  -29.7354  -17.5121   19.7452 C   0  0  0  0  0  0
  -29.7234  -19.9121   20.4699 C   0  0  0  0  0  0
  -29.9533  -17.0177   21.0637 C   0  0  0  0  0  0
  -29.6203  -18.9125   19.4537 C   0  0  0  0  0  0
  -31.1265  -21.7494   19.7915 C   0  0  0  0  0  0
  -31.3921  -23.2124   19.4100 C   0  0  0  0  0  0
  -30.5189  -24.2353   20.1435 C   0  0  0  0  0  0
  -28.8409  -22.3975   20.5264 C   0  0  0  0  0  0
  -29.0430  -23.8955   19.9747 C   0  0  1  0  0  0
  -30.1798  -15.2543   22.8421 C   0  0  0  0  0  0
  -28.1294  -25.0632   20.5756 C   0  0  0  0  0  0
  -29.8809  -21.3504   20.1732 N   0  0  0  0  0  0
  -29.4064  -19.2985   18.1311 N   0  0  0  0  0  0
  -30.1177  -15.5827   21.4068 N   0  0  0  0  0  0
  -32.0869  -20.9741   19.7101 O   0  0  0  0  0  0
  -31.4694  -12.5329   19.1441 H   0  0  0  0  0  0
  -30.3678  -11.4057   19.8711 H   0  0  0  0  0  0
  -29.7783  -11.7973   17.4613 H   0  0  0  0  0  0
  -29.6369  -13.5133   17.7587 H   0  0  0  0  0  0
  -27.8723  -11.2961   18.8579 H   0  0  0  0  0  0
  -27.3721  -12.5758   17.7845 H   0  0  0  0  0  0
  -27.6714  -14.2580   19.5258 H   0  0  0  0  0  0
  -28.6901  -12.0283   21.3447 H   0  0  0  0  0  0
  -28.3819  -13.6653   21.8367 H   0  0  0  0  0  0
  -25.2749   -9.5705   22.4757 H   0  0  0  0  0  0
  -24.0022   -7.4622   22.7441 H   0  0  0  0  0  0
  -21.0833   -8.8744   19.8934 H   0  0  0  0  0  0
  -22.3669  -10.9664   19.6150 H   0  0  0  0  0  0
  -21.1984   -7.6138   23.9722 H   0  0  0  0  0  0
  -21.1508   -6.0516   25.9090 H   0  0  0  0  0  0
  -22.0592   -2.7602   23.2848 H   0  0  0  0  0  0
  -22.4086  -11.9896   22.4849 H   0  0  0  0  0  0
  -21.1079  -13.1228   22.2633 H   0  0  0  0  0  0
  -24.6738  -15.8591   20.5320 H   0  0  0  0  0  0
  -26.2978  -15.6276   20.1289 H   0  0  0  0  0  0
  -26.7162  -32.5430   23.1083 H   0  0  0  0  0  0
  -25.0013  -33.9662   25.0418 H   0  0  0  0  0  0
  -22.7139  -31.3074   21.3989 H   0  0  0  0  0  0
  -23.3731  -35.9628   23.3307 H   0  0  0  0  0  0
  -24.3552  -36.8918   22.2060 H   0  0  0  0  0  0
  -23.7226  -37.6498   23.6669 H   0  0  0  0  0  0
  -26.1088  -31.5528   20.6142 H   0  0  0  0  0  0
  -26.8328  -30.8244   22.0187 H   0  0  0  0  0  0
  -28.1138  -28.9903   21.1971 H   0  0  0  0  0  0
  -26.0414  -25.9692   18.9257 H   0  0  0  0  0  0
  -23.9964  -27.3354   18.9565 H   0  0  0  0  0  0
  -23.7495  -30.5963   19.3993 H   0  0  0  0  0  0
  -22.7540  -29.2495   19.8576 H   0  0  0  0  0  0
  -25.1277  -36.1925   25.0842 H   0  0  0  0  0  0
  -21.0004  -28.3295   24.1343 H   0  0  0  0  0  0
  -20.5592  -26.2359   23.3622 H   0  0  0  0  0  0
  -21.6632  -26.7389   22.1221 H   0  0  0  0  0  0
  -19.6888  -25.6291   21.1219 H   0  0  0  0  0  0
  -19.6620  -27.3183   20.6714 H   0  0  0  0  0  0
  -17.4183  -26.6645   21.4038 H   0  0  0  0  0  0
  -18.0335  -26.0032   22.9006 H   0  0  0  0  0  0
  -19.7954  -30.7228   24.2287 H   0  0  0  0  0  0
  -17.5036  -31.6243   24.5171 H   0  0  0  0  0  0
  -15.5365  -30.2991   23.7595 H   0  0  0  0  0  0
  -15.8685  -28.0774   22.7107 H   0  0  0  0  0  0
  -24.5854  -30.7134   25.7783 H   0  0  0  0  0  0
  -24.9030  -32.2870   26.4989 H   0  0  0  0  0  0
  -25.8055  -30.8763   27.0188 H   0  0  0  0  0  0
  -26.2973  -29.6697   24.1246 H   0  0  0  0  0  0
  -27.4082  -29.7255   25.4722 H   0  0  0  0  0  0
  -27.8832  -30.4258   23.9446 H   0  0  0  0  0  0
  -27.2604  -33.3609   26.2084 H   0  0  0  0  0  0
  -28.3808  -32.6981   25.0290 H   0  0  0  0  0  0
  -28.0783  -31.8492   26.5374 H   0  0  0  0  0  0
  -28.2603  -38.0088   24.7518 H   0  0  0  0  0  0
  -28.1051  -36.2622   24.6268 H   0  0  0  0  0  0
  -27.2290  -37.1436   25.8865 H   0  0  0  0  0  0
  -20.9372  -29.8824   21.6849 H   0  0  0  0  0  0
  -26.0155  -38.2858   24.1408 H   0  0  0  0  0  0
  -29.9549  -20.1199   22.6091 H   0  0  0  0  0  0
  -30.1015  -17.7655   23.1128 H   0  0  0  0  0  0
  -29.6661  -16.8052   18.9298 H   0  0  0  0  0  0
  -31.2410  -23.3015   18.3341 H   0  0  0  0  0  0
  -32.4415  -23.4400   19.5986 H   0  0  0  0  0  0
  -30.7158  -25.2295   19.7428 H   0  0  0  0  0  0
  -30.7820  -24.2704   21.2016 H   0  0  0  0  0  0
  -27.8615  -22.0286   20.2180 H   0  0  0  0  0  0
  -28.8146  -22.4310   21.6154 H   0  0  0  0  0  0
  -28.8335  -23.8790   18.9023 H   0  0  0  0  0  0
  -29.2861  -15.6059   23.3588 H   0  0  0  0  0  0
  -31.0538  -15.7177   23.3005 H   0  0  0  0  0  0
  -30.2642  -14.1858   23.0522 H   0  0  0  0  0  0
  -28.2718  -25.0676   21.6561 H   0  0  0  0  0  0
  -27.0914  -24.7608   20.4468 H   0  0  0  0  0  0
  -28.9326  -18.6337   17.5274 H   0  0  0  0  0  0
  -29.0729  -20.2435   17.9777 H   0  0  0  0  0  0
  1 25  1  0  0  0
  1 30  2  0  0  0
  1 86  1  0  0  0
  2  3  1  0  0  0
  2 25  1  0  0  0
  2 88  1  0  0  0
  2 89  1  0  0  0
  3  4  1  0  0  0
  3 90  1  0  0  0
  3 91  1  0  0  0
  4  5  1  0  0  0
  4 92  1  0  0  0
  4 93  1  0  0  0
  5  6  1  0  0  0
  5 26  1  0  0  0
  5 94  1  0  0  0
  6 25  1  0  0  0
  6 95  1  0  0  0
  6 96  1  0  0  0
  7  8  2  0  0  0
  7 26  1  0  0  0
  7 29  1  0  0  0
  8  9  1  0  0  0
  8 22  1  0  0  0
  9 10  1  0  0  0
  9 27  2  0  0  0
 10 11  2  0  0  0
 10 15  1  0  0  0
 11 12  1  0  0  0
 11 97  1  0  0  0
 12 13  2  0  0  0
 12 98  1  0  0  0
 13 14  1  0  0  0
 13 31  1  0  0  0
 14 15  2  0  0  0
 14 99  1  0  0  0
 15100  1  0  0  0
 16 17  2  0  0  0
 16 21  1  0  0  0
 16 31  1  0  0  0
 17 18  1  0  0  0
 17101  1  0  0  0
 18 19  2  0  0  0
 18102  1  0  0  0
 19 20  1  0  0  0
 19 24  1  0  0  0
 20 21  2  0  0  0
 20103  1  0  0  0
 21 23  1  0  0  0
 22 28  1  0  0  0
 22 32  2  0  0  0
 26 27  1  0  0  0
 28104  1  0  0  0
 28105  1  0  0  0
 29106  1  0  0  0
 29107  1  0  0  0
 33 34  1  0  0  0
 33 66  1  0  0  0
 33 70  2  0  0  0
 34 36  1  0  0  0
 34 59  1  0  0  0
 34108  1  0  0  0
 35 44  2  0  0  0
 35 45  1  0  0  0
 35 68  1  0  0  0
 36 56  1  0  0  0
 36109  1  0  0  0
 37 39  1  0  0  0
 37 47  1  0  0  0
 37 66  1  0  0  0
 37110  1  0  0  0
 38 43  2  0  0  0
 38 46  1  0  0  0
 38 47  1  0  0  0
 39 64  1  0  0  0
 39 67  2  0  0  0
 40 52  1  0  0  0
 40 53  2  0  0  0
 40 58  1  0  0  0
 41111  1  0  0  0
 41112  1  0  0  0
 41113  1  0  0  0
 41 48  1  0  0  0
 42 43  1  0  0  0
 42 66  1  0  0  0
 42114  1  0  0  0
 42115  1  0  0  0
 43 44  1  0  0  0
 44116  1  0  0  0
 45 46  2  0  0  0
 45117  1  0  0  0
 46118  1  0  0  0
 47119  1  0  0  0
 47120  1  0  0  0
 48 56  1  0  0  0
 48 65  1  0  0  0
 48121  1  0  0  0
 49 50  1  0  0  0
 49 53  1  0  0  0
 49 64  1  0  0  0
 49122  1  0  0  0
 50 51  1  0  0  0
 50123  1  0  0  0
 50124  1  0  0  0
 51 52  1  0  0  0
 51125  1  0  0  0
 51126  1  0  0  0
 52127  1  0  0  0
 52128  1  0  0  0
 53 54  1  0  0  0
 54 55  2  0  0  0
 54129  1  0  0  0
 55 57  1  0  0  0
 55130  1  0  0  0
 56 69  2  0  0  0
 57 58  2  0  0  0
 57131  1  0  0  0
 58132  1  0  0  0
 59 60  1  0  0  0
 59 61  1  0  0  0
 59 62  1  0  0  0
 60133  1  0  0  0
 60134  1  0  0  0
 60135  1  0  0  0
 61136  1  0  0  0
 61137  1  0  0  0
 61138  1  0  0  0
 62139  1  0  0  0
 62140  1  0  0  0
 62141  1  0  0  0
 63 65  1  0  0  0
 63142  1  0  0  0
 63143  1  0  0  0
 63144  1  0  0  0
 64145  1  0  0  0
 65146  1  0  0  0
 68 83  1  0  0  0
 71 72  2  0  0  0
 71 74  1  0  0  0
 71147  1  0  0  0
 72 75  1  0  0  0
 72148  1  0  0  0
 73 75  2  0  0  0
 73 76  1  0  0  0
 73149  1  0  0  0
 74 76  2  0  0  0
 74 84  1  0  0  0
 75 86  1  0  0  0
 76 85  1  0  0  0
 77 78  1  0  0  0
 77 84  1  0  0  0
 77 87  2  0  0  0
 78 79  1  0  0  0
 78150  1  0  0  0
 78151  1  0  0  0
 79 81  1  0  0  0
 79152  1  0  0  0
 79153  1  0  0  0
 80 81  1  0  0  0
 80 84  1  0  0  0
 80154  1  0  0  0
 80155  1  0  0  0
 81 83  1  0  0  0
 81156  1  0  0  0
 82 86  1  0  0  0
 82157  1  0  0  0
 82158  1  0  0  0
 82159  1  0  0  0
 83160  1  0  0  0
 83161  1  0  0  0
 85162  1  0  0  0
 85163  1  0  0  0
M  ISO  4   1 100  68 101  83 101  86 100
M  END
> <chiral flag>
0

> <version>
0

> <s_m_source_file>
/data/baiqing/PycharmProjects/Reinvent-master-3.2/result/LINK_invent/BTK/process_docking_weight1_custom_product_contain_oxygen_bond_distance_aromatic_linkinvent_7_9_3/rearranged_h_0096.sdf

> <i_m_source_file_index>
68

> <r_mmod_Potential_Energy-OPLS-2005>
307.712585449219

> <r_mmod_Stretch_Energy-OPLS-2005>
99.0898208618164

> <r_mmod_Bend_Energy-OPLS-2005>
146.066162109375

> <r_mmod_Torsional_Energy-OPLS-2005>
372.039245605469

> <r_mmod_Improper_Torsional_Energy-OPLS-2005>
8.39142227172852

> <r_mmod_Van_der_Waal_Energy-OPLS-2005>
160.405776977539

> <r_mmod_Electrostatic_Energy-OPLS-2005>
-292.878509521484

> <r_mmod_Solvation_Energy-OPLS-2005>
-227.696426391602

> <b_mmod_Minimization_Converged-OPLS-2005>
0

> <r_mmod_RMS_Derivative-OPLS-2005>
2.94302463531494

$$$$
68
                    3D
 Structure written by MMmdl.
169178  0  0  1  0            999 V2000
  -30.7324  -14.4556   20.4770 C   0  0  0  0  0  0
  -30.4031  -12.2692   19.4387 C   0  0  0  0  0  0
  -29.4887  -12.4651   18.2119 C   0  0  0  0  0  0
  -28.0076  -12.3566   18.6207 C   0  0  0  0  0  0
  -27.6560  -13.2152   19.8664 C   0  0  2  0  0  0
  -28.7022  -13.0492   20.9947 C   0  0  0  0  0  0
  -25.2560  -13.8189   20.5678 C   0  0  0  0  0  0
  -24.1827  -13.0448   20.9199 C   0  0  0  0  0  0
  -24.6403  -11.6924   20.8770 C   0  0  0  0  0  0
  -23.9080  -10.4300   21.0420 C   0  0  0  0  0  0
  -24.3627   -9.4209   21.9191 C   0  0  0  0  0  0
  -23.6296   -8.2244   22.0758 C   0  0  0  0  0  0
  -22.4282   -8.0292   21.3542 C   0  0  0  0  0  0
  -21.9925   -9.0271   20.4649 C   0  0  0  0  0  0
  -22.7258  -10.2144   20.3062 C   0  0  0  0  0  0
  -21.6853   -6.0746   22.5280 C   0  0  0  0  0  0
  -21.4016   -6.5647   23.8216 C   0  0  0  0  0  0
  -21.3659   -5.6797   24.9176 C   0  0  0  0  0  0
  -21.6044   -4.3058   24.7223 C   0  0  0  0  0  0
  -21.8819   -3.8154   23.4346 C   0  0  0  0  0  0
  -21.9191   -4.6975   22.3400 C   0  0  0  0  0  0
  -22.7847  -13.5240   21.1848 C   0  0  0  0  0  0
  -22.1659   -4.2157   21.0977 F   0  0  0  0  0  0
  -21.5629   -3.4543   25.7735 F   0  0  0  0  0  0
  -30.0335  -13.2938   20.4253 N   0  0  0  0  0  0
  -26.3002  -12.9377   20.3364 N   0  0  0  0  0  0
  -25.9329  -11.6535   20.5803 N   0  0  0  0  0  0
  -22.0490  -12.8216   22.0403 N   0  0  0  0  0  0
  -25.4249  -15.1904   20.4044 N   0  0  0  0  0  0
  -31.9218  -14.5298   20.1636 O   0  0  0  0  0  0
  -21.6638   -6.8892   21.4243 O   0  0  0  0  0  0
  -22.3525  -14.5536   20.6693 O   0  0  0  0  0  0
  -24.6100  -31.8699   23.2090 C   0  0  0  0  0  0
  -25.9010  -32.4832   23.8393 C   0  0  1  0  0  0
  -27.2509  -27.4584   20.1121 C   0  0  0  0  0  0
  -25.5886  -33.8629   24.2324 N   0  0  0  0  0  0
  -23.3984  -30.4860   21.5498 C   0  0  2  0  0  0
  -24.8533  -28.9536   20.1137 C   0  0  0  0  0  0
  -22.7395  -29.4637   22.5022 C   0  0  0  0  0  0
  -18.0264  -28.1350   22.8485 C   0  0  0  0  0  0
  -24.1495  -36.7309   23.2633 C   0  0  0  0  0  0
  -25.9215  -30.8419   21.3606 C   0  0  0  0  0  0
  -26.0055  -29.4757   20.7160 C   0  0  0  0  0  0
  -27.2049  -28.7340   20.7217 C   0  0  0  0  0  0
  -26.0926  -26.9553   19.4878 C   0  0  0  0  0  0
  -24.8903  -27.6897   19.4958 C   0  0  0  0  0  0
  -23.6063  -29.8086   20.1666 C   0  0  0  0  0  0
  -25.4112  -36.3109   24.0324 C   0  0  1  0  0  0
  -20.5845  -28.3630   23.1322 C   0  0  2  0  0  0
  -20.6754  -26.9367   22.5421 C   0  0  0  0  0  0
  -19.5744  -26.6361   21.5202 C   0  0  0  0  0  0
  -18.1913  -26.7906   22.1597 C   0  0  0  0  0  0
  -19.1511  -28.8808   23.2898 C   0  0  0  0  0  0
  -18.9447  -30.1418   23.8902 C   0  0  0  0  0  0
  -17.6455  -30.6575   24.0538 C   0  0  0  0  0  0
  -25.9027  -34.9476   23.5116 C   0  0  0  0  0  0
  -16.5346  -29.9060   23.6324 C   0  0  0  0  0  0
  -16.7253  -28.6466   23.0363 C   0  0  0  0  0  0
  -26.4453  -31.6605   25.0710 C   0  0  0  0  0  0
  -25.3723  -31.3722   26.1467 C   0  0  0  0  0  0
  -27.0295  -30.3057   24.6060 C   0  0  0  0  0  0
  -27.6019  -32.4336   25.7486 C   0  0  0  0  0  0
  -27.5587  -37.1808   24.8459 C   0  0  0  0  0  0
  -21.4130  -29.2996   22.3748 N   0  0  0  0  0  0
  -26.4301  -37.3787   23.9393 N   0  0  0  0  0  0
  -24.6602  -31.0804   22.0983 N   0  0  0  0  0  0
  -23.4185  -28.8203   23.3071 O   0  0  0  0  0  0
  -28.3828  -26.6764   20.0973 O   0  0  0  0  0  0
  -26.5581  -34.8920   22.4677 O   0  0  0  0  0  0
  -23.5302  -32.1450   23.7494 O   0  0  0  0  0  0
  -31.0019  -18.7682   21.0591 C   0  0  0  0  0  0
  -30.8515  -20.1274   21.3977 C   0  0  0  0  0  0
  -28.8295  -18.8018   19.9737 C   0  0  0  0  0  0
  -30.0194  -18.1111   20.2926 C   0  0  0  0  0  0
  -29.7113  -20.8541   20.9833 C   0  0  0  0  0  0
  -28.6669  -20.1744   20.3016 C   0  0  0  0  0  0
  -28.2418  -24.1950   21.7661 C   0  0  0  0  0  0
  -30.4956  -24.5113   20.6695 C   0  0  0  0  0  0
  -28.6345  -22.7472   22.1233 C   0  0  0  0  0  0
  -30.8476  -23.0529   21.0345 C   0  0  0  0  0  0
  -29.4771  -25.1171   21.6578 C   0  0  0  0  0  0
  -29.7750  -16.5688   18.2605 C   0  0  0  0  0  0
  -26.5433  -20.2745   19.1661 C   0  0  0  0  0  0
  -29.0974  -26.5813   21.3333 C   0  0  0  0  0  0
  -30.3376  -16.7428   19.6868 C   0  0  2  0  0  0
  -29.6332  -22.2500   21.1813 N   0  0  0  0  0  0
  -29.9842  -15.5737   20.5096 N   0  0  0  0  0  0
  -27.5570  -20.9101   19.9320 O   0  0  0  0  0  0
  -31.4517  -12.3253   19.1401 H   0  0  0  0  0  0
  -30.2661  -11.2748   19.8660 H   0  0  0  0  0  0
  -29.7181  -11.7196   17.4492 H   0  0  0  0  0  0
  -29.6746  -13.4352   17.7518 H   0  0  0  0  0  0
  -27.8013  -11.3055   18.8243 H   0  0  0  0  0  0
  -27.3654  -12.6329   17.7836 H   0  0  0  0  0  0
  -27.6824  -14.2542   19.5375 H   0  0  0  0  0  0
  -28.6629  -12.0427   21.4131 H   0  0  0  0  0  0
  -28.4942  -13.7311   21.8210 H   0  0  0  0  0  0
  -25.2778   -9.5673   22.4767 H   0  0  0  0  0  0
  -24.0007   -7.4633   22.7471 H   0  0  0  0  0  0
  -21.0863   -8.8798   19.8946 H   0  0  0  0  0  0
  -22.3733  -10.9690   19.6169 H   0  0  0  0  0  0
  -21.2010   -7.6158   23.9721 H   0  0  0  0  0  0
  -21.1482   -6.0529   25.9079 H   0  0  0  0  0  0
  -22.0598   -2.7620   23.2842 H   0  0  0  0  0  0
  -22.4119  -11.9883   22.4786 H   0  0  0  0  0  0
  -21.1101  -13.1226   22.2598 H   0  0  0  0  0  0
  -24.6525  -15.8413   20.5001 H   0  0  0  0  0  0
  -26.2696  -15.6294   20.0620 H   0  0  0  0  0  0
  -26.7089  -32.5557   23.1170 H   0  0  0  0  0  0
  -25.0132  -33.9814   25.0534 H   0  0  0  0  0  0
  -22.6827  -31.2978   21.4067 H   0  0  0  0  0  0
  -23.3761  -35.9641   23.3302 H   0  0  0  0  0  0
  -24.3598  -36.8911   22.2047 H   0  0  0  0  0  0
  -23.7250  -37.6506   23.6659 H   0  0  0  0  0  0
  -26.0293  -31.6064   20.5904 H   0  0  0  0  0  0
  -26.8079  -30.9013   21.9781 H   0  0  0  0  0  0
  -28.0892  -29.1400   21.1927 H   0  0  0  0  0  0
  -26.1212  -25.9853   19.0109 H   0  0  0  0  0  0
  -24.0069  -27.2805   19.0245 H   0  0  0  0  0  0
  -23.6965  -30.5771   19.3989 H   0  0  0  0  0  0
  -22.7368  -29.2118   19.8838 H   0  0  0  0  0  0
  -25.1298  -36.1974   25.0816 H   0  0  0  0  0  0
  -20.9924  -28.3209   24.1445 H   0  0  0  0  0  0
  -20.5642  -26.2236   23.3610 H   0  0  0  0  0  0
  -21.6634  -26.7418   22.1228 H   0  0  0  0  0  0
  -19.6916  -25.6276   21.1221 H   0  0  0  0  0  0
  -19.6698  -27.3172   20.6730 H   0  0  0  0  0  0
  -17.4194  -26.6646   21.3989 H   0  0  0  0  0  0
  -18.0296  -26.0033   22.8974 H   0  0  0  0  0  0
  -19.7933  -30.7202   24.2284 H   0  0  0  0  0  0
  -17.5023  -31.6256   24.5139 H   0  0  0  0  0  0
  -15.5347  -30.2963   23.7654 H   0  0  0  0  0  0
  -15.8644  -28.0778   22.7104 H   0  0  0  0  0  0
  -24.5910  -30.7036   25.7829 H   0  0  0  0  0  0
  -24.8898  -32.2884   26.4887 H   0  0  0  0  0  0
  -25.8082  -30.8946   27.0250 H   0  0  0  0  0  0
  -26.2843  -29.6826   24.1098 H   0  0  0  0  0  0
  -27.4065  -29.7275   25.4504 H   0  0  0  0  0  0
  -27.8674  -30.4381   23.9207 H   0  0  0  0  0  0
  -27.2625  -33.3634   26.2074 H   0  0  0  0  0  0
  -28.3842  -32.6905   25.0328 H   0  0  0  0  0  0
  -28.0681  -31.8457   26.5405 H   0  0  0  0  0  0
  -28.2603  -38.0109   24.7521 H   0  0  0  0  0  0
  -28.1085  -36.2641   24.6284 H   0  0  0  0  0  0
  -27.2307  -37.1444   25.8861 H   0  0  0  0  0  0
  -20.9291  -29.8716   21.6964 H   0  0  0  0  0  0
  -26.0197  -38.2858   24.1402 H   0  0  0  0  0  0
  -31.9146  -18.2528   21.3277 H   0  0  0  0  0  0
  -31.6456  -20.6126   21.9460 H   0  0  0  0  0  0
  -28.0763  -18.2825   19.4040 H   0  0  0  0  0  0
  -27.5530  -24.5840   22.5172 H   0  0  0  0  0  0
  -27.6975  -24.1952   20.8198 H   0  0  0  0  0  0
  -30.0911  -24.5467   19.6569 H   0  0  0  0  0  0
  -31.4052  -25.1140   20.6537 H   0  0  0  0  0  0
  -27.7476  -22.1110   22.1321 H   0  0  0  0  0  0
  -29.0486  -22.7114   23.1328 H   0  0  0  0  0  0
  -31.4147  -23.0255   21.9666 H   0  0  0  0  0  0
  -31.4911  -22.6319   20.2603 H   0  0  0  0  0  0
  -29.9546  -25.1293   22.6388 H   0  0  0  0  0  0
  -30.0533  -17.4067   17.6209 H   0  0  0  0  0  0
  -28.6891  -16.4791   18.2483 H   0  0  0  0  0  0
  -30.1787  -15.6725   17.7903 H   0  0  0  0  0  0
  -25.7210  -20.9707   19.0027 H   0  0  0  0  0  0
  -26.1339  -19.4037   19.6787 H   0  0  0  0  0  0
  -26.9217  -19.9746   18.1881 H   0  0  0  0  0  0
  -29.9900  -27.2045   21.2739 H   0  0  0  0  0  0
  -28.5100  -26.9613   22.1727 H   0  0  0  0  0  0
  -31.4212  -16.7776   19.5550 H   0  0  0  0  0  0
  -29.0204  -15.4785   20.7880 H   0  0  0  0  0  0
  1 25  1  0  0  0
  1 30  2  0  0  0
  1 87  1  0  0  0
  2  3  1  0  0  0
  2 25  1  0  0  0
  2 89  1  0  0  0
  2 90  1  0  0  0
  3  4  1  0  0  0
  3 91  1  0  0  0
  3 92  1  0  0  0
  4  5  1  0  0  0
  4 93  1  0  0  0
  4 94  1  0  0  0
  5  6  1  0  0  0
  5 26  1  0  0  0
  5 95  1  0  0  0
  6 25  1  0  0  0
  6 96  1  0  0  0
  6 97  1  0  0  0
  7  8  2  0  0  0
  7 26  1  0  0  0
  7 29  1  0  0  0
  8  9  1  0  0  0
  8 22  1  0  0  0
  9 10  1  0  0  0
  9 27  2  0  0  0
 10 11  2  0  0  0
 10 15  1  0  0  0
 11 12  1  0  0  0
 11 98  1  0  0  0
 12 13  2  0  0  0
 12 99  1  0  0  0
 13 14  1  0  0  0
 13 31  1  0  0  0
 14 15  2  0  0  0
 14100  1  0  0  0
 15101  1  0  0  0
 16 17  2  0  0  0
 16 21  1  0  0  0
 16 31  1  0  0  0
 17 18  1  0  0  0
 17102  1  0  0  0
 18 19  2  0  0  0
 18103  1  0  0  0
 19 20  1  0  0  0
 19 24  1  0  0  0
 20 21  2  0  0  0
 20104  1  0  0  0
 21 23  1  0  0  0
 22 28  1  0  0  0
 22 32  2  0  0  0
 26 27  1  0  0  0
 28105  1  0  0  0
 28106  1  0  0  0
 29107  1  0  0  0
 29108  1  0  0  0
 33 34  1  0  0  0
 33 66  1  0  0  0
 33 70  2  0  0  0
 34 36  1  0  0  0
 34 59  1  0  0  0
 34109  1  0  0  0
 35 44  2  0  0  0
 35 45  1  0  0  0
 35 68  1  0  0  0
 36 56  1  0  0  0
 36110  1  0  0  0
 37 39  1  0  0  0
 37 47  1  0  0  0
 37 66  1  0  0  0
 37111  1  0  0  0
 38 43  2  0  0  0
 38 46  1  0  0  0
 38 47  1  0  0  0
 39 64  1  0  0  0
 39 67  2  0  0  0
 40 52  1  0  0  0
 40 53  2  0  0  0
 40 58  1  0  0  0
 41112  1  0  0  0
 41113  1  0  0  0
 41114  1  0  0  0
 41 48  1  0  0  0
 42 43  1  0  0  0
 42 66  1  0  0  0
 42115  1  0  0  0
 42116  1  0  0  0
 43 44  1  0  0  0
 44117  1  0  0  0
 45 46  2  0  0  0
 45118  1  0  0  0
 46119  1  0  0  0
 47120  1  0  0  0
 47121  1  0  0  0
 48 56  1  0  0  0
 48 65  1  0  0  0
 48122  1  0  0  0
 49 50  1  0  0  0
 49 53  1  0  0  0
 49 64  1  0  0  0
 49123  1  0  0  0
 50 51  1  0  0  0
 50124  1  0  0  0
 50125  1  0  0  0
 51 52  1  0  0  0
 51126  1  0  0  0
 51127  1  0  0  0
 52128  1  0  0  0
 52129  1  0  0  0
 53 54  1  0  0  0
 54 55  2  0  0  0
 54130  1  0  0  0
 55 57  1  0  0  0
 55131  1  0  0  0
 56 69  2  0  0  0
 57 58  2  0  0  0
 57132  1  0  0  0
 58133  1  0  0  0
 59 60  1  0  0  0
 59 61  1  0  0  0
 59 62  1  0  0  0
 60134  1  0  0  0
 60135  1  0  0  0
 60136  1  0  0  0
 61137  1  0  0  0
 61138  1  0  0  0
 61139  1  0  0  0
 62140  1  0  0  0
 62141  1  0  0  0
 62142  1  0  0  0
 63 65  1  0  0  0
 63143  1  0  0  0
 63144  1  0  0  0
 63145  1  0  0  0
 64146  1  0  0  0
 65147  1  0  0  0
 68 84  1  0  0  0
 71 72  2  0  0  0
 71 74  1  0  0  0
 71148  1  0  0  0
 72 75  1  0  0  0
 72149  1  0  0  0
 73 74  2  0  0  0
 73 76  1  0  0  0
 73150  1  0  0  0
 74 85  1  0  0  0
 75 76  2  0  0  0
 75 86  1  0  0  0
 76 88  1  0  0  0
 77 79  1  0  0  0
 77 81  1  0  0  0
 77151  1  0  0  0
 77152  1  0  0  0
 78 80  1  0  0  0
 78 81  1  0  0  0
 78153  1  0  0  0
 78154  1  0  0  0
 79 86  1  0  0  0
 79155  1  0  0  0
 79156  1  0  0  0
 80 86  1  0  0  0
 80157  1  0  0  0
 80158  1  0  0  0
 81 84  1  0  0  0
 81159  1  0  0  0
 82160  1  0  0  0
 82161  1  0  0  0
 82162  1  0  0  0
 82 85  1  0  0  0
 83 88  1  0  0  0
 83163  1  0  0  0
 83164  1  0  0  0
 83165  1  0  0  0
 84166  1  0  0  0
 84167  1  0  0  0
 85 87  1  0  0  0
 85168  1  0  0  0
 87169  1  0  0  0
M  ISO  4   1 100  68 101  84 101  87 100
M  END
> <chiral flag>
0

> <version>
0

> <s_m_source_file>
/data/baiqing/PycharmProjects/Reinvent-master-3.2/result/LINK_invent/BTK/process_docking_weight1_custom_product_contain_oxygen_bond_distance_aromatic_linkinvent_7_9_3/rearranged_h_0096.sdf

> <i_m_source_file_index>
69

> <r_mmod_Potential_Energy-OPLS-2005>
-15.2851438522339

> <r_mmod_Stretch_Energy-OPLS-2005>
36.7349319458008

> <r_mmod_Bend_Energy-OPLS-2005>
108.762153625488

> <r_mmod_Torsional_Energy-OPLS-2005>
284.991302490234

> <r_mmod_Improper_Torsional_Energy-OPLS-2005>
14.8861742019653

> <r_mmod_Van_der_Waal_Energy-OPLS-2005>
164.983581542969

> <r_mmod_Electrostatic_Energy-OPLS-2005>
-418.205718994141

> <r_mmod_Solvation_Energy-OPLS-2005>
-226.613571166992

> <b_mmod_Minimization_Converged-OPLS-2005>
0

> <r_mmod_RMS_Derivative-OPLS-2005>
1.96779227256775

$$$$
69
                    3D
 Structure written by MMmdl.
160169  0  0  1  0            999 V2000
  -30.7766  -14.4657   20.5822 C   0  0  0  0  0  0
  -30.3856  -12.3051   19.4464 C   0  0  0  0  0  0
  -29.4824  -12.4975   18.2148 C   0  0  0  0  0  0
  -28.0054  -12.3597   18.6256 C   0  0  0  0  0  0
  -27.6477  -13.2209   19.8674 C   0  0  2  0  0  0
  -28.6900  -13.0718   21.0000 C   0  0  0  0  0  0
  -25.2513  -13.8204   20.5727 C   0  0  0  0  0  0
  -24.1771  -13.0459   20.9205 C   0  0  0  0  0  0
  -24.6329  -11.6932   20.8727 C   0  0  0  0  0  0
  -23.8995  -10.4312   21.0379 C   0  0  0  0  0  0
  -24.3568   -9.4245   21.9166 C   0  0  0  0  0  0
  -23.6283   -8.2255   22.0730 C   0  0  0  0  0  0
  -22.4263   -8.0273   21.3528 C   0  0  0  0  0  0
  -21.9884   -9.0226   20.4620 C   0  0  0  0  0  0
  -22.7170  -10.2132   20.3029 C   0  0  0  0  0  0
  -21.6855   -6.0727   22.5274 C   0  0  0  0  0  0
  -21.4005   -6.5628   23.8207 C   0  0  0  0  0  0
  -21.3673   -5.6780   24.9171 C   0  0  0  0  0  0
  -21.6057   -4.3043   24.7217 C   0  0  0  0  0  0
  -21.8822   -3.8130   23.4336 C   0  0  0  0  0  0
  -21.9191   -4.6948   22.3399 C   0  0  0  0  0  0
  -22.7798  -13.5246   21.1891 C   0  0  0  0  0  0
  -22.1666   -4.2137   21.0978 F   0  0  0  0  0  0
  -21.5651   -3.4524   25.7728 F   0  0  0  0  0  0
  -30.0190  -13.3391   20.4322 N   0  0  0  0  0  0
  -26.2933  -12.9391   20.3358 N   0  0  0  0  0  0
  -25.9258  -11.6534   20.5751 N   0  0  0  0  0  0
  -22.0459  -12.8208   22.0444 N   0  0  0  0  0  0
  -25.4270  -15.1921   20.4154 N   0  0  0  0  0  0
  -31.9086  -14.5190   20.0946 O   0  0  0  0  0  0
  -21.6648   -6.8858   21.4228 O   0  0  0  0  0  0
  -22.3489  -14.5572   20.6781 O   0  0  0  0  0  0
  -24.6195  -31.8656   23.2142 C   0  0  0  0  0  0
  -25.9088  -32.4805   23.8423 C   0  0  1  0  0  0
  -27.2037  -27.4020   20.1086 C   0  0  0  0  0  0
  -25.5956  -33.8613   24.2352 N   0  0  0  0  0  0
  -23.4071  -30.4960   21.5521 C   0  0  2  0  0  0
  -24.8524  -28.9754   20.0983 C   0  0  0  0  0  0
  -22.7436  -29.4656   22.4954 C   0  0  0  0  0  0
  -18.0285  -28.1363   22.8484 C   0  0  0  0  0  0
  -24.1476  -36.7289   23.2632 C   0  0  0  0  0  0
  -25.9412  -30.8195   21.3797 C   0  0  0  0  0  0
  -26.0105  -29.4544   20.7251 C   0  0  0  0  0  0
  -27.1891  -28.6673   20.7467 C   0  0  0  0  0  0
  -26.0601  -26.9948   19.3946 C   0  0  0  0  0  0
  -24.8732  -27.7450   19.4231 C   0  0  0  0  0  0
  -23.6153  -29.8421   20.1598 C   0  0  0  0  0  0
  -25.4100  -36.3102   24.0339 C   0  0  1  0  0  0
  -20.5883  -28.3652   23.1277 C   0  0  2  0  0  0
  -20.6775  -26.9380   22.5396 C   0  0  0  0  0  0
  -19.5748  -26.6375   21.5196 C   0  0  0  0  0  0
  -18.1925  -26.7915   22.1611 C   0  0  0  0  0  0
  -19.1536  -28.8832   23.2880 C   0  0  0  0  0  0
  -18.9466  -30.1447   23.8883 C   0  0  0  0  0  0
  -17.6468  -30.6569   24.0561 C   0  0  0  0  0  0
  -25.9042  -34.9471   23.5131 C   0  0  0  0  0  0
  -16.5358  -29.9060   23.6332 C   0  0  0  0  0  0
  -16.7271  -28.6480   23.0348 C   0  0  0  0  0  0
  -26.4525  -31.6572   25.0733 C   0  0  0  0  0  0
  -25.3804  -31.3648   26.1474 C   0  0  0  0  0  0
  -27.0351  -30.3006   24.6123 C   0  0  0  0  0  0
  -27.6115  -32.4291   25.7459 C   0  0  0  0  0  0
  -27.5567  -37.1787   24.8468 C   0  0  0  0  0  0
  -21.4161  -29.3021   22.3687 N   0  0  0  0  0  0
  -26.4274  -37.3797   23.9412 N   0  0  0  0  0  0
  -24.6735  -31.0740   22.1063 N   0  0  0  0  0  0
  -23.4202  -28.8197   23.3001 O   0  0  0  0  0  0
  -28.2824  -26.5392   20.1559 O   0  0  0  0  0  0
  -26.5567  -34.8909   22.4669 O   0  0  0  0  0  0
  -23.5392  -32.1453   23.7525 O   0  0  0  0  0  0
  -28.8356  -18.1689   22.1024 C   0  0  0  0  0  0
  -28.1681  -19.4177   22.0913 C   0  0  0  0  0  0
  -30.5974  -19.1421   20.7523 C   0  0  0  0  0  0
  -30.0546  -18.0142   21.4091 C   0  0  0  0  0  0
  -28.6685  -20.5358   21.3585 C   0  0  0  0  0  0
  -29.9191  -20.3779   20.7120 C   0  0  0  0  0  0
  -26.5720  -21.6657   20.9277 C   0  0  0  0  0  0
  -30.8384  -16.7238   21.4058 C   0  0  0  0  0  0
  -25.6730  -22.8925   21.0592 C   0  0  0  0  0  0
  -26.3841  -24.2024   20.7414 C   0  0  0  0  0  0
  -28.5876  -23.0931   21.1845 C   0  0  0  0  0  0
  -27.7018  -24.3406   21.4998 C   0  0  1  0  0  0
  -28.3879  -25.7619   21.3802 C   0  0  0  0  0  0
  -27.8986  -21.7611   21.2324 N   0  0  0  0  0  0
  -30.1912  -15.5620   21.1264 N   0  0  0  0  0  0
  -26.0274  -20.6183   20.5616 O   0  0  0  0  0  0
  -32.0581  -16.8139   21.5974 O   0  0  0  0  0  0
  -30.4736  -21.3897   20.0046 F   0  0  0  0  0  0
  -31.4368  -12.3349   19.1575 H   0  0  0  0  0  0
  -30.2270  -11.3130   19.8727 H   0  0  0  0  0  0
  -29.7250  -11.7640   17.4448 H   0  0  0  0  0  0
  -29.6559  -13.4798   17.7730 H   0  0  0  0  0  0
  -27.8203  -11.3055   18.8388 H   0  0  0  0  0  0
  -27.3542  -12.6221   17.7901 H   0  0  0  0  0  0
  -27.6736  -14.2598   19.5390 H   0  0  0  0  0  0
  -28.6599  -12.0622   21.4113 H   0  0  0  0  0  0
  -28.4556  -13.7406   21.8294 H   0  0  0  0  0  0
  -25.2709   -9.5765   22.4734 H   0  0  0  0  0  0
  -24.0029   -7.4650   22.7429 H   0  0  0  0  0  0
  -21.0832   -8.8689   19.8914 H   0  0  0  0  0  0
  -22.3587  -10.9652   19.6134 H   0  0  0  0  0  0
  -21.1970   -7.6131   23.9705 H   0  0  0  0  0  0
  -21.1518   -6.0508   25.9079 H   0  0  0  0  0  0
  -22.0588   -2.7590   23.2829 H   0  0  0  0  0  0
  -22.4059  -11.9847   22.4800 H   0  0  0  0  0  0
  -21.1073  -13.1210   22.2660 H   0  0  0  0  0  0
  -24.6625  -15.8516   20.5064 H   0  0  0  0  0  0
  -26.2846  -15.6258   20.0982 H   0  0  0  0  0  0
  -26.7153  -32.5481   23.1186 H   0  0  0  0  0  0
  -25.0221  -33.9778   25.0582 H   0  0  0  0  0  0
  -22.6966  -31.3147   21.4189 H   0  0  0  0  0  0
  -23.3747  -35.9613   23.3320 H   0  0  0  0  0  0
  -24.3586  -36.8886   22.2043 H   0  0  0  0  0  0
  -23.7214  -37.6494   23.6631 H   0  0  0  0  0  0
  -26.0711  -31.5854   20.6133 H   0  0  0  0  0  0
  -26.8237  -30.8615   22.0058 H   0  0  0  0  0  0
  -28.0724  -29.0187   21.2633 H   0  0  0  0  0  0
  -26.0693  -26.0804   18.8246 H   0  0  0  0  0  0
  -23.9966  -27.3890   18.8976 H   0  0  0  0  0  0
  -23.7206  -30.6229   19.4050 H   0  0  0  0  0  0
  -22.7400  -29.2623   19.8615 H   0  0  0  0  0  0
  -25.1286  -36.1967   25.0836 H   0  0  0  0  0  0
  -20.9997  -28.3215   24.1387 H   0  0  0  0  0  0
  -20.5653  -26.2264   23.3589 H   0  0  0  0  0  0
  -21.6644  -26.7389   22.1202 H   0  0  0  0  0  0
  -19.6885  -25.6287   21.1211 H   0  0  0  0  0  0
  -19.6689  -27.3201   20.6732 H   0  0  0  0  0  0
  -17.4208  -26.6685   21.4001 H   0  0  0  0  0  0
  -18.0306  -26.0041   22.8986 H   0  0  0  0  0  0
  -19.7952  -30.7269   24.2230 H   0  0  0  0  0  0
  -17.5016  -31.6239   24.5170 H   0  0  0  0  0  0
  -15.5360  -30.2959   23.7641 H   0  0  0  0  0  0
  -15.8671  -28.0792   22.7054 H   0  0  0  0  0  0
  -24.6057  -30.6898   25.7831 H   0  0  0  0  0  0
  -24.8904  -32.2776   26.4856 H   0  0  0  0  0  0
  -25.8195  -30.8902   27.0260 H   0  0  0  0  0  0
  -26.2905  -29.6758   24.1179 H   0  0  0  0  0  0
  -27.4128  -29.7236   25.4573 H   0  0  0  0  0  0
  -27.8750  -30.4310   23.9294 H   0  0  0  0  0  0
  -27.2777  -33.3634   26.1974 H   0  0  0  0  0  0
  -28.3933  -32.6771   25.0270 H   0  0  0  0  0  0
  -28.0765  -31.8449   26.5404 H   0  0  0  0  0  0
  -28.2598  -38.0070   24.7542 H   0  0  0  0  0  0
  -28.1045  -36.2612   24.6285 H   0  0  0  0  0  0
  -27.2281  -37.1443   25.8866 H   0  0  0  0  0  0
  -20.9306  -29.8729   21.6906 H   0  0  0  0  0  0
  -26.0165  -38.2868   24.1447 H   0  0  0  0  0  0
  -28.4144  -17.3415   22.6552 H   0  0  0  0  0  0
  -27.2321  -19.4994   22.6297 H   0  0  0  0  0  0
  -31.5498  -19.0582   20.2459 H   0  0  0  0  0  0
  -25.2759  -22.9123   22.0737 H   0  0  0  0  0  0
  -24.8154  -22.7728   20.3959 H   0  0  0  0  0  0
  -25.7108  -25.0185   20.9980 H   0  0  0  0  0  0
  -26.5833  -24.2293   19.6705 H   0  0  0  0  0  0
  -29.4359  -23.0781   21.8703 H   0  0  0  0  0  0
  -28.9961  -23.2289   20.1848 H   0  0  0  0  0  0
  -27.4525  -24.2483   22.5587 H   0  0  0  0  0  0
  -29.4510  -25.6382   21.5888 H   0  0  0  0  0  0
  -28.0216  -26.3752   22.2061 H   0  0  0  0  0  0
  -29.1894  -15.5578   21.2117 H   0  0  0  0  0  0
  1 25  1  0  0  0
  1 30  2  0  0  0
  1 85  1  0  0  0
  2  3  1  0  0  0
  2 25  1  0  0  0
  2 89  1  0  0  0
  2 90  1  0  0  0
  3  4  1  0  0  0
  3 91  1  0  0  0
  3 92  1  0  0  0
  4  5  1  0  0  0
  4 93  1  0  0  0
  4 94  1  0  0  0
  5  6  1  0  0  0
  5 26  1  0  0  0
  5 95  1  0  0  0
  6 25  1  0  0  0
  6 96  1  0  0  0
  6 97  1  0  0  0
  7  8  2  0  0  0
  7 26  1  0  0  0
  7 29  1  0  0  0
  8  9  1  0  0  0
  8 22  1  0  0  0
  9 10  1  0  0  0
  9 27  2  0  0  0
 10 11  2  0  0  0
 10 15  1  0  0  0
 11 12  1  0  0  0
 11 98  1  0  0  0
 12 13  2  0  0  0
 12 99  1  0  0  0
 13 14  1  0  0  0
 13 31  1  0  0  0
 14 15  2  0  0  0
 14100  1  0  0  0
 15101  1  0  0  0
 16 17  2  0  0  0
 16 21  1  0  0  0
 16 31  1  0  0  0
 17 18  1  0  0  0
 17102  1  0  0  0
 18 19  2  0  0  0
 18103  1  0  0  0
 19 20  1  0  0  0
 19 24  1  0  0  0
 20 21  2  0  0  0
 20104  1  0  0  0
 21 23  1  0  0  0
 22 28  1  0  0  0
 22 32  2  0  0  0
 26 27  1  0  0  0
 28105  1  0  0  0
 28106  1  0  0  0
 29107  1  0  0  0
 29108  1  0  0  0
 33 34  1  0  0  0
 33 66  1  0  0  0
 33 70  2  0  0  0
 34 36  1  0  0  0
 34 59  1  0  0  0
 34109  1  0  0  0
 35 44  2  0  0  0
 35 45  1  0  0  0
 35 68  1  0  0  0
 36 56  1  0  0  0
 36110  1  0  0  0
 37 39  1  0  0  0
 37 47  1  0  0  0
 37 66  1  0  0  0
 37111  1  0  0  0
 38 43  2  0  0  0
 38 46  1  0  0  0
 38 47  1  0  0  0
 39 64  1  0  0  0
 39 67  2  0  0  0
 40 52  1  0  0  0
 40 53  2  0  0  0
 40 58  1  0  0  0
 41112  1  0  0  0
 41113  1  0  0  0
 41114  1  0  0  0
 41 48  1  0  0  0
 42 43  1  0  0  0
 42 66  1  0  0  0
 42115  1  0  0  0
 42116  1  0  0  0
 43 44  1  0  0  0
 44117  1  0  0  0
 45 46  2  0  0  0
 45118  1  0  0  0
 46119  1  0  0  0
 47120  1  0  0  0
 47121  1  0  0  0
 48 56  1  0  0  0
 48 65  1  0  0  0
 48122  1  0  0  0
 49 50  1  0  0  0
 49 53  1  0  0  0
 49 64  1  0  0  0
 49123  1  0  0  0
 50 51  1  0  0  0
 50124  1  0  0  0
 50125  1  0  0  0
 51 52  1  0  0  0
 51126  1  0  0  0
 51127  1  0  0  0
 52128  1  0  0  0
 52129  1  0  0  0
 53 54  1  0  0  0
 54 55  2  0  0  0
 54130  1  0  0  0
 55 57  1  0  0  0
 55131  1  0  0  0
 56 69  2  0  0  0
 57 58  2  0  0  0
 57132  1  0  0  0
 58133  1  0  0  0
 59 60  1  0  0  0
 59 61  1  0  0  0
 59 62  1  0  0  0
 60134  1  0  0  0
 60135  1  0  0  0
 60136  1  0  0  0
 61137  1  0  0  0
 61138  1  0  0  0
 61139  1  0  0  0
 62140  1  0  0  0
 62141  1  0  0  0
 62142  1  0  0  0
 63 65  1  0  0  0
 63143  1  0  0  0
 63144  1  0  0  0
 63145  1  0  0  0
 64146  1  0  0  0
 65147  1  0  0  0
 68 83  1  0  0  0
 71 72  2  0  0  0
 71 74  1  0  0  0
 71148  1  0  0  0
 72 75  1  0  0  0
 72149  1  0  0  0
 73 74  2  0  0  0
 73 76  1  0  0  0
 73150  1  0  0  0
 74 78  1  0  0  0
 75 76  2  0  0  0
 75 84  1  0  0  0
 76 88  1  0  0  0
 77 79  1  0  0  0
 77 84  1  0  0  0
 77 86  2  0  0  0
 78 85  1  0  0  0
 78 87  2  0  0  0
 79 80  1  0  0  0
 79151  1  0  0  0
 79152  1  0  0  0
 80 82  1  0  0  0
 80153  1  0  0  0
 80154  1  0  0  0
 81 82  1  0  0  0
 81 84  1  0  0  0
 81155  1  0  0  0
 81156  1  0  0  0
 82 83  1  0  0  0
 82157  1  0  0  0
 83158  1  0  0  0
 83159  1  0  0  0
 85160  1  0  0  0
M  ISO  4   1 100  68 101  83 101  85 100
M  END
> <chiral flag>
0

> <version>
0

> <s_m_source_file>
/data/baiqing/PycharmProjects/Reinvent-master-3.2/result/LINK_invent/BTK/process_docking_weight1_custom_product_contain_oxygen_bond_distance_aromatic_linkinvent_7_9_3/rearranged_h_0096.sdf

> <i_m_source_file_index>
70

> <r_mmod_Potential_Energy-OPLS-2005>
21.69065284729

> <r_mmod_Stretch_Energy-OPLS-2005>
53.0983963012695

> <r_mmod_Bend_Energy-OPLS-2005>
120.142837524414

> <r_mmod_Torsional_Energy-OPLS-2005>
321.096282958984

> <r_mmod_Improper_Torsional_Energy-OPLS-2005>
4.52504253387451

> <r_mmod_Van_der_Waal_Energy-OPLS-2005>
181.558990478516

> <r_mmod_Electrostatic_Energy-OPLS-2005>
-461.119720458984

> <r_mmod_Solvation_Energy-OPLS-2005>
-226.813400268555

> <b_mmod_Minimization_Converged-OPLS-2005>
0

> <r_mmod_RMS_Derivative-OPLS-2005>
3.05013179779053

$$$$
70
                    3D
 Structure written by MMmdl.
160169  0  0  1  0            999 V2000
  -30.7766  -14.4657   20.5822 C   0  0  0  0  0  0
  -30.3856  -12.3051   19.4464 C   0  0  0  0  0  0
  -29.4824  -12.4975   18.2148 C   0  0  0  0  0  0
  -28.0054  -12.3597   18.6256 C   0  0  0  0  0  0
  -27.6477  -13.2209   19.8674 C   0  0  2  0  0  0
  -28.6900  -13.0718   21.0000 C   0  0  0  0  0  0
  -25.2513  -13.8204   20.5727 C   0  0  0  0  0  0
  -24.1771  -13.0459   20.9205 C   0  0  0  0  0  0
  -24.6329  -11.6932   20.8727 C   0  0  0  0  0  0
  -23.8995  -10.4312   21.0379 C   0  0  0  0  0  0
  -24.3568   -9.4245   21.9166 C   0  0  0  0  0  0
  -23.6283   -8.2255   22.0730 C   0  0  0  0  0  0
  -22.4263   -8.0273   21.3528 C   0  0  0  0  0  0
  -21.9884   -9.0226   20.4620 C   0  0  0  0  0  0
  -22.7170  -10.2132   20.3029 C   0  0  0  0  0  0
  -21.6855   -6.0727   22.5274 C   0  0  0  0  0  0
  -21.4005   -6.5628   23.8207 C   0  0  0  0  0  0
  -21.3673   -5.6780   24.9171 C   0  0  0  0  0  0
  -21.6057   -4.3043   24.7217 C   0  0  0  0  0  0
  -21.8822   -3.8130   23.4336 C   0  0  0  0  0  0
  -21.9191   -4.6948   22.3399 C   0  0  0  0  0  0
  -22.7798  -13.5246   21.1891 C   0  0  0  0  0  0
  -22.1666   -4.2137   21.0978 F   0  0  0  0  0  0
  -21.5651   -3.4524   25.7728 F   0  0  0  0  0  0
  -30.0190  -13.3391   20.4322 N   0  0  0  0  0  0
  -26.2933  -12.9391   20.3358 N   0  0  0  0  0  0
  -25.9258  -11.6534   20.5751 N   0  0  0  0  0  0
  -22.0459  -12.8208   22.0444 N   0  0  0  0  0  0
  -25.4270  -15.1921   20.4154 N   0  0  0  0  0  0
  -31.9086  -14.5190   20.0946 O   0  0  0  0  0  0
  -21.6648   -6.8858   21.4228 O   0  0  0  0  0  0
  -22.3489  -14.5572   20.6781 O   0  0  0  0  0  0
  -24.6195  -31.8656   23.2142 C   0  0  0  0  0  0
  -25.9088  -32.4805   23.8423 C   0  0  1  0  0  0
  -27.2037  -27.4020   20.1086 C   0  0  0  0  0  0
  -25.5956  -33.8613   24.2352 N   0  0  0  0  0  0
  -23.4071  -30.4960   21.5521 C   0  0  2  0  0  0
  -24.8524  -28.9754   20.0983 C   0  0  0  0  0  0
  -22.7436  -29.4656   22.4954 C   0  0  0  0  0  0
  -18.0285  -28.1363   22.8484 C   0  0  0  0  0  0
  -24.1476  -36.7289   23.2632 C   0  0  0  0  0  0
  -25.9412  -30.8195   21.3797 C   0  0  0  0  0  0
  -26.0105  -29.4544   20.7251 C   0  0  0  0  0  0
  -27.1891  -28.6673   20.7467 C   0  0  0  0  0  0
  -26.0601  -26.9948   19.3946 C   0  0  0  0  0  0
  -24.8732  -27.7450   19.4231 C   0  0  0  0  0  0
  -23.6153  -29.8421   20.1598 C   0  0  0  0  0  0
  -25.4100  -36.3102   24.0339 C   0  0  1  0  0  0
  -20.5883  -28.3652   23.1277 C   0  0  2  0  0  0
  -20.6775  -26.9380   22.5396 C   0  0  0  0  0  0
  -19.5748  -26.6375   21.5196 C   0  0  0  0  0  0
  -18.1925  -26.7915   22.1611 C   0  0  0  0  0  0
  -19.1536  -28.8832   23.2880 C   0  0  0  0  0  0
  -18.9466  -30.1447   23.8883 C   0  0  0  0  0  0
  -17.6468  -30.6569   24.0561 C   0  0  0  0  0  0
  -25.9042  -34.9471   23.5131 C   0  0  0  0  0  0
  -16.5358  -29.9060   23.6332 C   0  0  0  0  0  0
  -16.7271  -28.6480   23.0348 C   0  0  0  0  0  0
  -26.4525  -31.6572   25.0733 C   0  0  0  0  0  0
  -25.3804  -31.3648   26.1474 C   0  0  0  0  0  0
  -27.0351  -30.3006   24.6123 C   0  0  0  0  0  0
  -27.6115  -32.4291   25.7459 C   0  0  0  0  0  0
  -27.5567  -37.1787   24.8468 C   0  0  0  0  0  0
  -21.4161  -29.3021   22.3687 N   0  0  0  0  0  0
  -26.4274  -37.3797   23.9412 N   0  0  0  0  0  0
  -24.6735  -31.0740   22.1063 N   0  0  0  0  0  0
  -23.4202  -28.8197   23.3001 O   0  0  0  0  0  0
  -28.2824  -26.5392   20.1559 O   0  0  0  0  0  0
  -26.5567  -34.8909   22.4669 O   0  0  0  0  0  0
  -23.5392  -32.1453   23.7525 O   0  0  0  0  0  0
  -28.8356  -18.1689   22.1024 C   0  0  0  0  0  0
  -28.1681  -19.4177   22.0913 C   0  0  0  0  0  0
  -30.5974  -19.1421   20.7523 C   0  0  0  0  0  0
  -30.0546  -18.0142   21.4091 C   0  0  0  0  0  0
  -28.6685  -20.5358   21.3585 C   0  0  0  0  0  0
  -29.9191  -20.3779   20.7120 C   0  0  0  0  0  0
  -26.5720  -21.6657   20.9277 C   0  0  0  0  0  0
  -30.8384  -16.7238   21.4058 C   0  0  0  0  0  0
  -25.6730  -22.8925   21.0592 C   0  0  0  0  0  0
  -26.3841  -24.2024   20.7414 C   0  0  0  0  0  0
  -28.5876  -23.0931   21.1845 C   0  0  0  0  0  0
  -27.7018  -24.3406   21.4998 C   0  0  1  0  0  0
  -28.3879  -25.7619   21.3802 C   0  0  0  0  0  0
  -27.8986  -21.7611   21.2324 N   0  0  0  0  0  0
  -30.1912  -15.5620   21.1264 N   0  0  0  0  0  0
  -26.0274  -20.6183   20.5616 O   0  0  0  0  0  0
  -32.0581  -16.8139   21.5974 O   0  0  0  0  0  0
  -30.4736  -21.3897   20.0046 F   0  0  0  0  0  0
  -31.4368  -12.3349   19.1575 H   0  0  0  0  0  0
  -30.2270  -11.3130   19.8727 H   0  0  0  0  0  0
  -29.7250  -11.7640   17.4448 H   0  0  0  0  0  0
  -29.6559  -13.4798   17.7730 H   0  0  0  0  0  0
  -27.8203  -11.3055   18.8388 H   0  0  0  0  0  0
  -27.3542  -12.6221   17.7901 H   0  0  0  0  0  0
  -27.6736  -14.2598   19.5390 H   0  0  0  0  0  0
  -28.6599  -12.0622   21.4113 H   0  0  0  0  0  0
  -28.4556  -13.7406   21.8294 H   0  0  0  0  0  0
  -25.2709   -9.5765   22.4734 H   0  0  0  0  0  0
  -24.0029   -7.4650   22.7429 H   0  0  0  0  0  0
  -21.0832   -8.8689   19.8914 H   0  0  0  0  0  0
  -22.3587  -10.9652   19.6134 H   0  0  0  0  0  0
  -21.1970   -7.6131   23.9705 H   0  0  0  0  0  0
  -21.1518   -6.0508   25.9079 H   0  0  0  0  0  0
  -22.0588   -2.7590   23.2829 H   0  0  0  0  0  0
  -22.4059  -11.9847   22.4800 H   0  0  0  0  0  0
  -21.1073  -13.1210   22.2660 H   0  0  0  0  0  0
  -24.6625  -15.8516   20.5064 H   0  0  0  0  0  0
  -26.2846  -15.6258   20.0982 H   0  0  0  0  0  0
  -26.7153  -32.5481   23.1186 H   0  0  0  0  0  0
  -25.0221  -33.9778   25.0582 H   0  0  0  0  0  0
  -22.6966  -31.3147   21.4189 H   0  0  0  0  0  0
  -23.3747  -35.9613   23.3320 H   0  0  0  0  0  0
  -24.3586  -36.8886   22.2043 H   0  0  0  0  0  0
  -23.7214  -37.6494   23.6631 H   0  0  0  0  0  0
  -26.0711  -31.5854   20.6133 H   0  0  0  0  0  0
  -26.8237  -30.8615   22.0058 H   0  0  0  0  0  0
  -28.0724  -29.0187   21.2633 H   0  0  0  0  0  0
  -26.0693  -26.0804   18.8246 H   0  0  0  0  0  0
  -23.9966  -27.3890   18.8976 H   0  0  0  0  0  0
  -23.7206  -30.6229   19.4050 H   0  0  0  0  0  0
  -22.7400  -29.2623   19.8615 H   0  0  0  0  0  0
  -25.1286  -36.1967   25.0836 H   0  0  0  0  0  0
  -20.9997  -28.3215   24.1387 H   0  0  0  0  0  0
  -20.5653  -26.2264   23.3589 H   0  0  0  0  0  0
  -21.6644  -26.7389   22.1202 H   0  0  0  0  0  0
  -19.6885  -25.6287   21.1211 H   0  0  0  0  0  0
  -19.6689  -27.3201   20.6732 H   0  0  0  0  0  0
  -17.4208  -26.6685   21.4001 H   0  0  0  0  0  0
  -18.0306  -26.0041   22.8986 H   0  0  0  0  0  0
  -19.7952  -30.7269   24.2230 H   0  0  0  0  0  0
  -17.5016  -31.6239   24.5170 H   0  0  0  0  0  0
  -15.5360  -30.2959   23.7641 H   0  0  0  0  0  0
  -15.8671  -28.0792   22.7054 H   0  0  0  0  0  0
  -24.6057  -30.6898   25.7831 H   0  0  0  0  0  0
  -24.8904  -32.2776   26.4856 H   0  0  0  0  0  0
  -25.8195  -30.8902   27.0260 H   0  0  0  0  0  0
  -26.2905  -29.6758   24.1179 H   0  0  0  0  0  0
  -27.4128  -29.7236   25.4573 H   0  0  0  0  0  0
  -27.8750  -30.4310   23.9294 H   0  0  0  0  0  0
  -27.2777  -33.3634   26.1974 H   0  0  0  0  0  0
  -28.3933  -32.6771   25.0270 H   0  0  0  0  0  0
  -28.0765  -31.8449   26.5404 H   0  0  0  0  0  0
  -28.2598  -38.0070   24.7542 H   0  0  0  0  0  0
  -28.1045  -36.2612   24.6285 H   0  0  0  0  0  0
  -27.2281  -37.1443   25.8866 H   0  0  0  0  0  0
  -20.9306  -29.8729   21.6906 H   0  0  0  0  0  0
  -26.0165  -38.2868   24.1447 H   0  0  0  0  0  0
  -28.4144  -17.3415   22.6552 H   0  0  0  0  0  0
  -27.2321  -19.4994   22.6297 H   0  0  0  0  0  0
  -31.5498  -19.0582   20.2459 H   0  0  0  0  0  0
  -25.2759  -22.9123   22.0737 H   0  0  0  0  0  0
  -24.8154  -22.7728   20.3959 H   0  0  0  0  0  0
  -25.7108  -25.0185   20.9980 H   0  0  0  0  0  0
  -26.5833  -24.2293   19.6705 H   0  0  0  0  0  0
  -29.4359  -23.0781   21.8703 H   0  0  0  0  0  0
  -28.9961  -23.2289   20.1848 H   0  0  0  0  0  0
  -27.4525  -24.2483   22.5587 H   0  0  0  0  0  0
  -29.4510  -25.6382   21.5888 H   0  0  0  0  0  0
  -28.0216  -26.3752   22.2061 H   0  0  0  0  0  0
  -29.1894  -15.5578   21.2117 H   0  0  0  0  0  0
  1 25  1  0  0  0
  1 30  2  0  0  0
  1 85  1  0  0  0
  2  3  1  0  0  0
  2 25  1  0  0  0
  2 89  1  0  0  0
  2 90  1  0  0  0
  3  4  1  0  0  0
  3 91  1  0  0  0
  3 92  1  0  0  0
  4  5  1  0  0  0
  4 93  1  0  0  0
  4 94  1  0  0  0
  5  6  1  0  0  0
  5 26  1  0  0  0
  5 95  1  0  0  0
  6 25  1  0  0  0
  6 96  1  0  0  0
  6 97  1  0  0  0
  7  8  2  0  0  0
  7 26  1  0  0  0
  7 29  1  0  0  0
  8  9  1  0  0  0
  8 22  1  0  0  0
  9 10  1  0  0  0
  9 27  2  0  0  0
 10 11  2  0  0  0
 10 15  1  0  0  0
 11 12  1  0  0  0
 11 98  1  0  0  0
 12 13  2  0  0  0
 12 99  1  0  0  0
 13 14  1  0  0  0
 13 31  1  0  0  0
 14 15  2  0  0  0
 14100  1  0  0  0
 15101  1  0  0  0
 16 17  2  0  0  0
 16 21  1  0  0  0
 16 31  1  0  0  0
 17 18  1  0  0  0
 17102  1  0  0  0
 18 19  2  0  0  0
 18103  1  0  0  0
 19 20  1  0  0  0
 19 24  1  0  0  0
 20 21  2  0  0  0
 20104  1  0  0  0
 21 23  1  0  0  0
 22 28  1  0  0  0
 22 32  2  0  0  0
 26 27  1  0  0  0
 28105  1  0  0  0
 28106  1  0  0  0
 29107  1  0  0  0
 29108  1  0  0  0
 33 34  1  0  0  0
 33 66  1  0  0  0
 33 70  2  0  0  0
 34 36  1  0  0  0
 34 59  1  0  0  0
 34109  1  0  0  0
 35 44  2  0  0  0
 35 45  1  0  0  0
 35 68  1  0  0  0
 36 56  1  0  0  0
 36110  1  0  0  0
 37 39  1  0  0  0
 37 47  1  0  0  0
 37 66  1  0  0  0
 37111  1  0  0  0
 38 43  2  0  0  0
 38 46  1  0  0  0
 38 47  1  0  0  0
 39 64  1  0  0  0
 39 67  2  0  0  0
 40 52  1  0  0  0
 40 53  2  0  0  0
 40 58  1  0  0  0
 41112  1  0  0  0
 41113  1  0  0  0
 41114  1  0  0  0
 41 48  1  0  0  0
 42 43  1  0  0  0
 42 66  1  0  0  0
 42115  1  0  0  0
 42116  1  0  0  0
 43 44  1  0  0  0
 44117  1  0  0  0
 45 46  2  0  0  0
 45118  1  0  0  0
 46119  1  0  0  0
 47120  1  0  0  0
 47121  1  0  0  0
 48 56  1  0  0  0
 48 65  1  0  0  0
 48122  1  0  0  0
 49 50  1  0  0  0
 49 53  1  0  0  0
 49 64  1  0  0  0
 49123  1  0  0  0
 50 51  1  0  0  0
 50124  1  0  0  0
 50125  1  0  0  0
 51 52  1  0  0  0
 51126  1  0  0  0
 51127  1  0  0  0
 52128  1  0  0  0
 52129  1  0  0  0
 53 54  1  0  0  0
 54 55  2  0  0  0
 54130  1  0  0  0
 55 57  1  0  0  0
 55131  1  0  0  0
 56 69  2  0  0  0
 57 58  2  0  0  0
 57132  1  0  0  0
 58133  1  0  0  0
 59 60  1  0  0  0
 59 61  1  0  0  0
 59 62  1  0  0  0
 60134  1  0  0  0
 60135  1  0  0  0
 60136  1  0  0  0
 61137  1  0  0  0
 61138  1  0  0  0
 61139  1  0  0  0
 62140  1  0  0  0
 62141  1  0  0  0
 62142  1  0  0  0
 63 65  1  0  0  0
 63143  1  0  0  0
 63144  1  0  0  0
 63145  1  0  0  0
 64146  1  0  0  0
 65147  1  0  0  0
 68 83  1  0  0  0
 71 72  2  0  0  0
 71 74  1  0  0  0
 71148  1  0  0  0
 72 75  1  0  0  0
 72149  1  0  0  0
 73 74  2  0  0  0
 73 76  1  0  0  0
 73150  1  0  0  0
 74 78  1  0  0  0
 75 76  2  0  0  0
 75 84  1  0  0  0
 76 88  1  0  0  0
 77 79  1  0  0  0
 77 84  1  0  0  0
 77 86  2  0  0  0
 78 85  1  0  0  0
 78 87  2  0  0  0
 79 80  1  0  0  0
 79151  1  0  0  0
 79152  1  0  0  0
 80 82  1  0  0  0
 80153  1  0  0  0
 80154  1  0  0  0
 81 82  1  0  0  0
 81 84  1  0  0  0
 81155  1  0  0  0
 81156  1  0  0  0
 82 83  1  0  0  0
 82157  1  0  0  0
 83158  1  0  0  0
 83159  1  0  0  0
 85160  1  0  0  0
M  ISO  4   1 100  68 101  83 101  85 100
M  END
> <chiral flag>
0

> <version>
0

> <s_m_source_file>
/data/baiqing/PycharmProjects/Reinvent-master-3.2/result/LINK_invent/BTK/process_docking_weight1_custom_product_contain_oxygen_bond_distance_aromatic_linkinvent_7_9_3/rearranged_h_0096.sdf

> <i_m_source_file_index>
71

> <r_mmod_Potential_Energy-OPLS-2005>
21.69065284729

> <r_mmod_Stretch_Energy-OPLS-2005>
53.0983963012695

> <r_mmod_Bend_Energy-OPLS-2005>
120.142837524414

> <r_mmod_Torsional_Energy-OPLS-2005>
321.096282958984

> <r_mmod_Improper_Torsional_Energy-OPLS-2005>
4.52504253387451

> <r_mmod_Van_der_Waal_Energy-OPLS-2005>
181.558990478516

> <r_mmod_Electrostatic_Energy-OPLS-2005>
-461.119720458984

> <r_mmod_Solvation_Energy-OPLS-2005>
-226.813400268555

> <b_mmod_Minimization_Converged-OPLS-2005>
0

> <r_mmod_RMS_Derivative-OPLS-2005>
3.05013179779053

$$$$
71
                    3D
 Structure written by MMmdl.
163172  0  0  1  0            999 V2000
  -30.7461  -14.4858   20.6299 C   0  0  0  0  0  0
  -30.4111  -12.3411   19.4450 C   0  0  0  0  0  0
  -29.4896  -12.5087   18.2219 C   0  0  0  0  0  0
  -28.0152  -12.3499   18.6316 C   0  0  0  0  0  0
  -27.6488  -13.2139   19.8689 C   0  0  2  0  0  0
  -28.6892  -13.0449   21.0012 C   0  0  0  0  0  0
  -25.2511  -13.8172   20.5687 C   0  0  0  0  0  0
  -24.1785  -13.0437   20.9180 C   0  0  0  0  0  0
  -24.6347  -11.6897   20.8729 C   0  0  0  0  0  0
  -23.9022  -10.4276   21.0383 C   0  0  0  0  0  0
  -24.3574   -9.4194   21.9166 C   0  0  0  0  0  0
  -23.6255   -8.2231   22.0755 C   0  0  0  0  0  0
  -22.4239   -8.0261   21.3541 C   0  0  0  0  0  0
  -21.9868   -9.0229   20.4642 C   0  0  0  0  0  0
  -22.7188  -10.2110   20.3044 C   0  0  0  0  0  0
  -21.6849   -6.0711   22.5264 C   0  0  0  0  0  0
  -21.4012   -6.5629   23.8193 C   0  0  0  0  0  0
  -21.3664   -5.6789   24.9165 C   0  0  0  0  0  0
  -21.6050   -4.3056   24.7211 C   0  0  0  0  0  0
  -21.8831   -3.8131   23.4337 C   0  0  0  0  0  0
  -21.9187   -4.6938   22.3384 C   0  0  0  0  0  0
  -22.7802  -13.5215   21.1843 C   0  0  0  0  0  0
  -22.1660   -4.2132   21.0959 F   0  0  0  0  0  0
  -21.5624   -3.4538   25.7726 F   0  0  0  0  0  0
  -30.0148  -13.3518   20.4418 N   0  0  0  0  0  0
  -26.2933  -12.9360   20.3338 N   0  0  0  0  0  0
  -25.9269  -11.6515   20.5749 N   0  0  0  0  0  0
  -22.0470  -12.8202   22.0414 N   0  0  0  0  0  0
  -25.4238  -15.1892   20.4088 N   0  0  0  0  0  0
  -31.8877  -14.5846   20.1677 O   0  0  0  0  0  0
  -21.6630   -6.8841   21.4226 O   0  0  0  0  0  0
  -22.3481  -14.5523   20.6698 O   0  0  0  0  0  0
  -24.6141  -31.8687   23.2128 C   0  0  0  0  0  0
  -25.9032  -32.4828   23.8418 C   0  0  1  0  0  0
  -27.2319  -27.4400   20.0986 C   0  0  0  0  0  0
  -25.5899  -33.8622   24.2374 N   0  0  0  0  0  0
  -23.4033  -30.4925   21.5529 C   0  0  2  0  0  0
  -24.8524  -28.9570   20.1197 C   0  0  0  0  0  0
  -22.7401  -29.4667   22.4997 C   0  0  0  0  0  0
  -18.0257  -28.1394   22.8516 C   0  0  0  0  0  0
  -24.1488  -36.7290   23.2642 C   0  0  0  0  0  0
  -25.9302  -30.8373   21.3666 C   0  0  0  0  0  0
  -26.0127  -29.4714   20.7135 C   0  0  0  0  0  0
  -27.2113  -28.7188   20.7016 C   0  0  0  0  0  0
  -26.0585  -26.9361   19.5049 C   0  0  0  0  0  0
  -24.8660  -27.6855   19.5169 C   0  0  0  0  0  0
  -23.6127  -29.8231   20.1683 C   0  0  0  0  0  0
  -25.4101  -36.3100   24.0351 C   0  0  1  0  0  0
  -20.5841  -28.3689   23.1320 C   0  0  2  0  0  0
  -20.6761  -26.9437   22.5411 C   0  0  0  0  0  0
  -19.5749  -26.6407   21.5208 C   0  0  0  0  0  0
  -18.1914  -26.7951   22.1608 C   0  0  0  0  0  0
  -19.1510  -28.8850   23.2909 C   0  0  0  0  0  0
  -18.9441  -30.1433   23.8955 C   0  0  0  0  0  0
  -17.6451  -30.6618   24.0569 C   0  0  0  0  0  0
  -25.9015  -34.9465   23.5148 C   0  0  0  0  0  0
  -16.5327  -29.9127   23.6337 C   0  0  0  0  0  0
  -16.7242  -28.6512   23.0409 C   0  0  0  0  0  0
  -26.4483  -31.6608   25.0729 C   0  0  0  0  0  0
  -25.3753  -31.3651   26.1466 C   0  0  0  0  0  0
  -27.0352  -30.3078   24.6094 C   0  0  0  0  0  0
  -27.6073  -32.4335   25.7470 C   0  0  0  0  0  0
  -27.5590  -37.1792   24.8471 C   0  0  0  0  0  0
  -21.4131  -29.3044   22.3722 N   0  0  0  0  0  0
  -26.4300  -37.3789   23.9400 N   0  0  0  0  0  0
  -24.6670  -31.0795   22.1027 N   0  0  0  0  0  0
  -23.4161  -28.8230   23.3069 O   0  0  0  0  0  0
  -28.3807  -26.6868   20.0645 O   0  0  0  0  0  0
  -26.5581  -34.8912   22.4715 O   0  0  0  0  0  0
  -23.5338  -32.1448   23.7508 O   0  0  0  0  0  0
  -29.3192  -18.2883   20.2255 C   0  0  0  0  0  0
  -28.8636  -19.5861   19.9107 C   0  0  0  0  0  0
  -29.9734  -18.0145   21.4460 C   0  0  0  0  0  0
  -29.6551  -20.4010   22.0570 C   0  0  0  0  0  0
  -29.0085  -20.6711   20.8081 C   0  0  0  0  0  0
  -30.1062  -19.0851   22.3855 C   0  0  0  0  0  0
  -28.2847  -23.0909   21.1328 C   0  0  0  0  0  0
  -28.4988  -24.2320   20.4690 C   0  0  0  0  0  0
  -30.7225  -16.6977   21.5869 C   0  0  0  0  0  0
  -28.9360  -23.9345   19.0597 C   0  0  0  0  0  0
  -28.8426  -22.3867   19.0104 C   0  0  0  0  0  0
  -29.9721  -21.5255   23.0451 C   0  0  0  0  0  0
  -30.2874  -18.0201   24.5347 C   0  0  0  0  0  0
  -28.4257  -25.6441   21.0468 C   0  0  0  0  0  0
  -28.5506  -21.9546   20.3854 N   0  0  0  0  0  0
  -30.1144  -15.5529   21.1804 N   0  0  0  0  0  0
  -31.8718  -16.7228   22.0428 O   0  0  0  0  0  0
  -30.7969  -18.9388   23.5710 O   0  0  0  0  0  0
  -31.4551  -12.4296   19.1395 H   0  0  0  0  0  0
  -30.3095  -11.3415   19.8698 H   0  0  0  0  0  0
  -29.7456  -11.7757   17.4558 H   0  0  0  0  0  0
  -29.6483  -13.4899   17.7760 H   0  0  0  0  0  0
  -27.8449  -11.2929   18.8491 H   0  0  0  0  0  0
  -27.3613  -12.5935   17.7940 H   0  0  0  0  0  0
  -27.6795  -14.2545   19.5462 H   0  0  0  0  0  0
  -28.6711  -12.0187   21.3753 H   0  0  0  0  0  0
  -28.4419  -13.6774   21.8564 H   0  0  0  0  0  0
  -25.2720   -9.5687   22.4741 H   0  0  0  0  0  0
  -23.9979   -7.4626   22.7483 H   0  0  0  0  0  0
  -21.0812   -8.8720   19.8929 H   0  0  0  0  0  0
  -22.3638  -10.9637   19.6150 H   0  0  0  0  0  0
  -21.2025   -7.6142   23.9687 H   0  0  0  0  0  0
  -21.1479   -6.0524   25.9068 H   0  0  0  0  0  0
  -22.0607   -2.7588   23.2839 H   0  0  0  0  0  0
  -22.4111  -11.9857   22.4771 H   0  0  0  0  0  0
  -21.1079  -13.1206   22.2656 H   0  0  0  0  0  0
  -24.6586  -15.8457   20.5197 H   0  0  0  0  0  0
  -26.2710  -15.6251   20.0681 H   0  0  0  0  0  0
  -26.7097  -32.5557   23.1174 H   0  0  0  0  0  0
  -25.0055  -33.9789   25.0532 H   0  0  0  0  0  0
  -22.6885  -31.3066   21.4122 H   0  0  0  0  0  0
  -23.3753  -35.9627   23.3317 H   0  0  0  0  0  0
  -24.3584  -36.8902   22.2058 H   0  0  0  0  0  0
  -23.7253  -37.6491   23.6672 H   0  0  0  0  0  0
  -26.0372  -31.6061   20.6008 H   0  0  0  0  0  0
  -26.8202  -30.8956   21.9832 H   0  0  0  0  0  0
  -28.1116  -29.1090   21.1558 H   0  0  0  0  0  0
  -26.0751  -25.9622   19.0363 H   0  0  0  0  0  0
  -23.9717  -27.2824   19.0600 H   0  0  0  0  0  0
  -23.7157  -30.5980   19.4062 H   0  0  0  0  0  0
  -22.7389  -29.2371   19.8792 H   0  0  0  0  0  0
  -25.1286  -36.1956   25.0853 H   0  0  0  0  0  0
  -20.9922  -28.3301   24.1445 H   0  0  0  0  0  0
  -20.5691  -26.2309   23.3585 H   0  0  0  0  0  0
  -21.6638  -26.7524   22.1200 H   0  0  0  0  0  0
  -19.6919  -25.6309   21.1261 H   0  0  0  0  0  0
  -19.6715  -27.3197   20.6716 H   0  0  0  0  0  0
  -17.4184  -26.6699   21.3991 H   0  0  0  0  0  0
  -18.0308  -26.0086   22.8996 H   0  0  0  0  0  0
  -19.7909  -30.7209   24.2420 H   0  0  0  0  0  0
  -17.5014  -31.6324   24.5127 H   0  0  0  0  0  0
  -15.5331  -30.3060   23.7644 H   0  0  0  0  0  0
  -15.8619  -28.0817   22.7193 H   0  0  0  0  0  0
  -24.5979  -30.6959   25.7756 H   0  0  0  0  0  0
  -24.8844  -32.2755   26.4923 H   0  0  0  0  0  0
  -25.8089  -30.8813   27.0229 H   0  0  0  0  0  0
  -26.2894  -29.6757   24.1257 H   0  0  0  0  0  0
  -27.4285  -29.7383   25.4523 H   0  0  0  0  0  0
  -27.8656  -30.4428   23.9155 H   0  0  0  0  0  0
  -27.2753  -33.3671   26.2039 H   0  0  0  0  0  0
  -28.3867  -32.6851   25.0258 H   0  0  0  0  0  0
  -28.0778  -31.8465   26.5380 H   0  0  0  0  0  0
  -28.2595  -38.0103   24.7538 H   0  0  0  0  0  0
  -28.1113  -36.2631   24.6298 H   0  0  0  0  0  0
  -27.2287  -37.1422   25.8871 H   0  0  0  0  0  0
  -20.9295  -29.8709   21.6888 H   0  0  0  0  0  0
  -26.0188  -38.2863   24.1433 H   0  0  0  0  0  0
  -29.2396  -17.5182   19.4709 H   0  0  0  0  0  0
  -28.4286  -19.7452   18.9355 H   0  0  0  0  0  0
  -27.9500  -22.9826   22.1545 H   0  0  0  0  0  0
  -29.9570  -24.2863   18.9037 H   0  0  0  0  0  0
  -28.2853  -24.4106   18.3265 H   0  0  0  0  0  0
  -29.7607  -21.9479   18.6128 H   0  0  0  0  0  0
  -28.0143  -22.0878   18.3673 H   0  0  0  0  0  0
  -30.3660  -22.3979   22.5275 H   0  0  0  0  0  0
  -30.7360  -21.2665   23.7752 H   0  0  0  0  0  0
  -29.0829  -21.8109   23.6028 H   0  0  0  0  0  0
  -31.1021  -17.3916   24.8946 H   0  0  0  0  0  0
  -29.4921  -17.3738   24.1686 H   0  0  0  0  0  0
  -29.8977  -18.5673   25.3923 H   0  0  0  0  0  0
  -29.3457  -25.7901   21.6123 H   0  0  0  0  0  0
  -27.6073  -25.7016   21.7692 H   0  0  0  0  0  0
  -29.1127  -15.5389   21.1872 H   0  0  0  0  0  0
  1 25  1  0  0  0
  1 30  2  0  0  0
  1 86  1  0  0  0
  2  3  1  0  0  0
  2 25  1  0  0  0
  2 89  1  0  0  0
  2 90  1  0  0  0
  3  4  1  0  0  0
  3 91  1  0  0  0
  3 92  1  0  0  0
  4  5  1  0  0  0
  4 93  1  0  0  0
  4 94  1  0  0  0
  5  6  1  0  0  0
  5 26  1  0  0  0
  5 95  1  0  0  0
  6 25  1  0  0  0
  6 96  1  0  0  0
  6 97  1  0  0  0
  7  8  2  0  0  0
  7 26  1  0  0  0
  7 29  1  0  0  0
  8  9  1  0  0  0
  8 22  1  0  0  0
  9 10  1  0  0  0
  9 27  2  0  0  0
 10 11  2  0  0  0
 10 15  1  0  0  0
 11 12  1  0  0  0
 11 98  1  0  0  0
 12 13  2  0  0  0
 12 99  1  0  0  0
 13 14  1  0  0  0
 13 31  1  0  0  0
 14 15  2  0  0  0
 14100  1  0  0  0
 15101  1  0  0  0
 16 17  2  0  0  0
 16 21  1  0  0  0
 16 31  1  0  0  0
 17 18  1  0  0  0
 17102  1  0  0  0
 18 19  2  0  0  0
 18103  1  0  0  0
 19 20  1  0  0  0
 19 24  1  0  0  0
 20 21  2  0  0  0
 20104  1  0  0  0
 21 23  1  0  0  0
 22 28  1  0  0  0
 22 32  2  0  0  0
 26 27  1  0  0  0
 28105  1  0  0  0
 28106  1  0  0  0
 29107  1  0  0  0
 29108  1  0  0  0
 33 34  1  0  0  0
 33 66  1  0  0  0
 33 70  2  0  0  0
 34 36  1  0  0  0
 34 59  1  0  0  0
 34109  1  0  0  0
 35 44  2  0  0  0
 35 45  1  0  0  0
 35 68  1  0  0  0
 36 56  1  0  0  0
 36110  1  0  0  0
 37 39  1  0  0  0
 37 47  1  0  0  0
 37 66  1  0  0  0
 37111  1  0  0  0
 38 43  2  0  0  0
 38 46  1  0  0  0
 38 47  1  0  0  0
 39 64  1  0  0  0
 39 67  2  0  0  0
 40 52  1  0  0  0
 40 53  2  0  0  0
 40 58  1  0  0  0
 41112  1  0  0  0
 41113  1  0  0  0
 41114  1  0  0  0
 41 48  1  0  0  0
 42 43  1  0  0  0
 42 66  1  0  0  0
 42115  1  0  0  0
 42116  1  0  0  0
 43 44  1  0  0  0
 44117  1  0  0  0
 45 46  2  0  0  0
 45118  1  0  0  0
 46119  1  0  0  0
 47120  1  0  0  0
 47121  1  0  0  0
 48 56  1  0  0  0
 48 65  1  0  0  0
 48122  1  0  0  0
 49 50  1  0  0  0
 49 53  1  0  0  0
 49 64  1  0  0  0
 49123  1  0  0  0
 50 51  1  0  0  0
 50124  1  0  0  0
 50125  1  0  0  0
 51 52  1  0  0  0
 51126  1  0  0  0
 51127  1  0  0  0
 52128  1  0  0  0
 52129  1  0  0  0
 53 54  1  0  0  0
 54 55  2  0  0  0
 54130  1  0  0  0
 55 57  1  0  0  0
 55131  1  0  0  0
 56 69  2  0  0  0
 57 58  2  0  0  0
 57132  1  0  0  0
 58133  1  0  0  0
 59 60  1  0  0  0
 59 61  1  0  0  0
 59 62  1  0  0  0
 60134  1  0  0  0
 60135  1  0  0  0
 60136  1  0  0  0
 61137  1  0  0  0
 61138  1  0  0  0
 61139  1  0  0  0
 62140  1  0  0  0
 62141  1  0  0  0
 62142  1  0  0  0
 63 65  1  0  0  0
 63143  1  0  0  0
 63144  1  0  0  0
 63145  1  0  0  0
 64146  1  0  0  0
 65147  1  0  0  0
 68 84  1  0  0  0
 71 72  2  0  0  0
 71 73  1  0  0  0
 71148  1  0  0  0
 72 75  1  0  0  0
 72149  1  0  0  0
 73 76  2  0  0  0
 73 79  1  0  0  0
 74 75  2  0  0  0
 74 76  1  0  0  0
 74 82  1  0  0  0
 75 85  1  0  0  0
 76 88  1  0  0  0
 77 78  2  0  0  0
 77 85  1  0  0  0
 77150  1  0  0  0
 78 80  1  0  0  0
 78 84  1  0  0  0
 79 86  1  0  0  0
 79 87  2  0  0  0
 80 81  1  0  0  0
 80151  1  0  0  0
 80152  1  0  0  0
 81 85  1  0  0  0
 81153  1  0  0  0
 81154  1  0  0  0
 82155  1  0  0  0
 82156  1  0  0  0
 82157  1  0  0  0
 83 88  1  0  0  0
 83158  1  0  0  0
 83159  1  0  0  0
 83160  1  0  0  0
 84161  1  0  0  0
 84162  1  0  0  0
 86163  1  0  0  0
M  ISO  4   1 100  68 101  84 101  86 100
M  END
> <chiral flag>
0

> <version>
0

> <s_m_source_file>
/data/baiqing/PycharmProjects/Reinvent-master-3.2/result/LINK_invent/BTK/process_docking_weight1_custom_product_contain_oxygen_bond_distance_aromatic_linkinvent_7_9_3/rearranged_h_0096.sdf

> <i_m_source_file_index>
72

> <r_mmod_Potential_Energy-OPLS-2005>
86.7291793823242

> <r_mmod_Stretch_Energy-OPLS-2005>
45.9579658508301

> <r_mmod_Bend_Energy-OPLS-2005>
173.524368286133

> <r_mmod_Torsional_Energy-OPLS-2005>
307.885528564453

> <r_mmod_Improper_Torsional_Energy-OPLS-2005>
7.42028522491455

> <r_mmod_Van_der_Waal_Energy-OPLS-2005>
164.216415405273

> <r_mmod_Electrostatic_Energy-OPLS-2005>
-399.288970947266

> <r_mmod_Solvation_Energy-OPLS-2005>
-229.840469360352

> <b_mmod_Minimization_Converged-OPLS-2005>
0

> <r_mmod_RMS_Derivative-OPLS-2005>
5.13449144363403

$$$$
72
                    3D
 Structure written by MMmdl.
152160  0  0  1  0            999 V2000
  -29.2592  -17.1813   20.5447 C   0  0  0  0  0  0
  -30.0736  -14.3386   19.6447 C   0  0  0  0  0  0
  -29.5359  -13.2602   18.5586 C   0  0  0  0  0  0
  -28.2924  -12.5032   19.0160 C   0  0  0  0  0  0
  -27.5136  -13.5032   19.8709 C   0  0  2  0  0  0
  -28.3066  -14.3508   20.9524 C   0  0  0  0  0  0
  -25.1682  -13.8537   20.5929 C   0  0  0  0  0  0
  -24.1368  -13.0395   20.9355 C   0  0  0  0  0  0
  -24.6407  -11.7017   20.8735 C   0  0  0  0  0  0
  -23.9217  -10.4281   21.0329 C   0  0  0  0  0  0
  -24.3728   -9.4208   21.9140 C   0  0  0  0  0  0
  -23.6362   -8.2261   22.0742 C   0  0  0  0  0  0
  -22.4337   -8.0293   21.3540 C   0  0  0  0  0  0
  -22.0000   -9.0259   20.4624 C   0  0  0  0  0  0
  -22.7368  -10.2112   20.3000 C   0  0  0  0  0  0
  -21.6877   -6.0758   22.5284 C   0  0  0  0  0  0
  -21.4033   -6.5652   23.8217 C   0  0  0  0  0  0
  -21.3662   -5.6798   24.9174 C   0  0  0  0  0  0
  -21.6042   -4.3059   24.7220 C   0  0  0  0  0  0
  -21.8816   -3.8159   23.4337 C   0  0  0  0  0  0
  -21.9197   -4.6983   22.3399 C   0  0  0  0  0  0
  -22.7365  -13.4964   21.1975 C   0  0  0  0  0  0
  -22.1661   -4.2165   21.0977 F   0  0  0  0  0  0
  -21.5622   -3.4538   25.7731 F   0  0  0  0  0  0
  -29.1006  -15.5208   20.3146 N   0  0  0  0  0  0
  -26.2376  -13.0256   20.3545 N   0  0  0  0  0  0
  -25.9420  -11.7107   20.5668 N   0  0  0  0  0  0
  -22.0141  -12.7912   22.0572 N   0  0  0  0  0  0
  -25.2841  -15.2326   20.4302 N   0  0  0  0  0  0
  -30.5396  -16.9680   20.4423 O   0  0  0  0  0  0
  -21.6664   -6.8911   21.4255 O   0  0  0  0  0  0
  -22.3001  -14.5258   20.6829 O   0  0  0  0  0  0
  -24.7438  -31.3238   23.2342 C   0  0  0  0  0  0
  -25.9140  -32.2537   23.7825 C   0  0  1  0  0  0
  -27.8962  -27.1215   19.5350 C   0  0  0  0  0  0
  -25.5064  -33.6779   24.0826 N   0  0  0  0  0  0
  -23.5776  -29.2788   21.9354 C   0  0  2  0  0  0
  -25.3480  -27.9889   19.4304 C   0  0  0  0  0  0
  -22.6425  -28.9704   22.9259 C   0  0  0  0  0  0
  -17.9465  -28.1277   22.8353 C   0  0  0  0  0  0
  -24.1444  -36.6503   23.2715 C   0  0  0  0  0  0
  -26.4428  -29.6219   21.8858 C   0  0  0  0  0  0
  -26.6769  -28.7053   20.3039 C   0  0  0  0  0  0
  -27.9155  -28.3756   20.1084 C   0  0  0  0  0  0
  -26.8399  -26.5634   18.7391 C   0  0  0  0  0  0
  -25.5459  -27.0448   18.5535 C   0  0  0  0  0  0
  -23.6523  -28.0998   20.3826 C   0  0  0  0  0  0
  -25.4098  -36.1944   24.0184 C   0  0  1  0  0  0
  -20.4454  -28.2233   23.2611 C   0  0  2  0  0  0
  -20.5392  -26.8229   22.6116 C   0  0  0  0  0  0
  -19.4979  -26.6153   21.5209 C   0  0  0  0  0  0
  -18.1035  -26.7899   22.1284 C   0  0  0  0  0  0
  -19.0677  -28.8364   23.3171 C   0  0  0  0  0  0
  -18.9046  -30.1088   23.9060 C   0  0  0  0  0  0
  -17.6202  -30.6600   24.0487 C   0  0  0  0  0  0
  -25.8975  -34.8191   23.4671 C   0  0  0  0  0  0
  -16.4982  -29.9327   23.6134 C   0  0  0  0  0  0
  -16.6614  -28.6727   23.0080 C   0  0  0  0  0  0
  -26.4953  -31.6334   25.1105 C   0  0  0  0  0  0
  -25.4075  -31.3980   26.1882 C   0  0  0  0  0  0
  -27.1753  -30.2806   24.8477 C   0  0  0  0  0  0
  -27.5944  -32.5325   25.7198 C   0  0  0  0  0  0
  -27.5419  -37.1295   24.8461 C   0  0  0  0  0  0
  -21.3635  -29.0881   22.6008 N   0  0  0  0  0  0
  -26.4140  -37.2870   23.9334 N   0  0  0  0  0  0
  -24.9446  -30.0594   22.5694 N   0  0  0  0  0  0
  -23.1253  -28.5328   23.9493 O   0  0  0  0  0  0
  -28.8882  -26.2552   19.8500 O   0  0  0  0  0  0
  -26.6231  -34.8091   22.4719 O   0  0  0  0  0  0
  -23.6156  -31.7852   23.4990 O   0  0  0  0  0  0
  -27.2734  -24.3826   21.9095 C   0  0  0  0  0  0
  -26.7351  -26.0795   22.0072 C   0  0  0  0  0  0
  -27.0280  -22.9914   21.2144 C   0  0  0  0  0  0
  -25.5518  -27.0101   21.4693 C   0  0  0  0  0  0
  -28.0526  -20.8063   20.9375 C   0  0  0  0  0  0
  -29.9534  -26.0506   22.0960 C   0  0  0  0  0  0
  -24.8684  -29.9983   20.1994 C   0  0  0  0  0  0
  -30.0094  -26.6322   20.6683 C   0  0  0  0  0  0
  -28.8759  -26.4560   23.1372 C   0  0  0  0  0  0
  -28.2917  -18.8787   20.7272 N   0  0  0  0  0  0
  -29.2331  -21.1601   21.0010 O   0  0  0  0  0  0
  -30.8133  -25.2315   22.4341 O   0  0  0  0  0  0
  -27.6267  -26.9136   22.6119 O   0  0  0  0  0  0
  -25.5440  -24.7340   20.7480 S   0  0  0  0  0  0
  -30.8610  -14.8805   19.1185 H   0  0  0  0  0  0
  -30.6352  -13.8211   20.4250 H   0  0  0  0  0  0
  -30.3277  -12.5621   18.2849 H   0  0  0  0  0  0
  -29.2899  -13.8006   17.6437 H   0  0  0  0  0  0
  -28.5826  -11.6462   19.6261 H   0  0  0  0  0  0
  -27.7103  -12.1273   18.1729 H   0  0  0  0  0  0
  -27.2284  -14.2396   19.1160 H   0  0  0  0  0  0
  -28.8818  -13.7167   21.6300 H   0  0  0  0  0  0
  -27.5968  -14.8390   21.6195 H   0  0  0  0  0  0
  -25.2857   -9.5683   22.4739 H   0  0  0  0  0  0
  -24.0045   -7.4663   22.7488 H   0  0  0  0  0  0
  -21.0921   -8.8794   19.8936 H   0  0  0  0  0  0
  -22.3821  -10.9645   19.6102 H   0  0  0  0  0  0
  -21.2041   -7.6161   23.9730 H   0  0  0  0  0  0
  -21.1483   -6.0523   25.9078 H   0  0  0  0  0  0
  -22.0592   -2.7620   23.2830 H   0  0  0  0  0  0
  -22.3888  -11.9635   22.4965 H   0  0  0  0  0  0
  -21.0728  -13.0819   22.2797 H   0  0  0  0  0  0
  -24.4837  -15.8492   20.5222 H   0  0  0  0  0  0
  -26.1133  -15.6983   20.0865 H   0  0  0  0  0  0
  -26.6976  -32.2883   23.0270 H   0  0  0  0  0  0
  -24.8508  -33.7774   24.8434 H   0  0  0  0  0  0
  -23.0253  -30.1622   21.5876 H   0  0  0  0  0  0
  -23.3647  -35.8885   23.3197 H   0  0  0  0  0  0
  -24.3479  -36.8411   22.2167 H   0  0  0  0  0  0
  -23.7300  -37.5616   23.7042 H   0  0  0  0  0  0
  -26.9721  -29.0551   22.6295 H   0  0  0  0  0  0
  -27.0458  -30.5233   21.7777 H   0  0  0  0  0  0
  -28.6842  -28.8025   20.7318 H   0  0  0  0  0  0
  -27.0403  -25.5987   18.2945 H   0  0  0  0  0  0
  -24.7655  -26.4916   18.0496 H   0  0  0  0  0  0
  -22.8801  -28.3902   19.6669 H   0  0  0  0  0  0
  -23.2880  -27.1051   20.6487 H   0  0  0  0  0  0
  -25.1393  -36.0544   25.0671 H   0  0  0  0  0  0
  -20.7251  -28.1136   24.3132 H   0  0  0  0  0  0
  -20.3429  -26.0817   23.3886 H   0  0  0  0  0  0
  -21.5374  -26.5781   22.2488 H   0  0  0  0  0  0
  -19.5962  -25.6214   21.0832 H   0  0  0  0  0  0
  -19.6546  -27.3323   20.7139 H   0  0  0  0  0  0
  -17.3505  -26.7000   21.3442 H   0  0  0  0  0  0
  -17.9028  -25.9927   22.8457 H   0  0  0  0  0  0
  -19.7661  -30.6526   24.2704 H   0  0  0  0  0  0
  -17.4956  -31.6316   24.5064 H   0  0  0  0  0  0
  -15.5075  -30.3486   23.7331 H   0  0  0  0  0  0
  -15.7913  -28.1324   22.6598 H   0  0  0  0  0  0
  -24.6688  -30.6532   25.8902 H   0  0  0  0  0  0
  -24.8696  -32.3156   26.4277 H   0  0  0  0  0  0
  -25.8499  -31.0379   27.1178 H   0  0  0  0  0  0
  -26.4625  -29.4877   24.6294 H   0  0  0  0  0  0
  -27.6926  -29.9332   25.7432 H   0  0  0  0  0  0
  -27.9399  -30.3532   24.0742 H   0  0  0  0  0  0
  -27.2005  -33.4897   26.0622 H   0  0  0  0  0  0
  -28.3791  -32.7466   24.9931 H   0  0  0  0  0  0
  -28.0680  -32.0679   26.5854 H   0  0  0  0  0  0
  -28.2325  -37.9663   24.7328 H   0  0  0  0  0  0
  -28.1006  -36.2129   24.6504 H   0  0  0  0  0  0
  -27.2095  -37.1128   25.8856 H   0  0  0  0  0  0
  -21.0912  -29.4873   21.7140 H   0  0  0  0  0  0
  -25.9813  -38.1875   24.1194 H   0  0  0  0  0  0
  -28.1394  -24.2056   22.5197 H   0  0  0  0  0  0
  -25.3403  -30.2517   19.2286 H   0  0  0  0  0  0
  -25.1961  -30.9868   20.5521 H   0  0  0  0  0  0
  -23.8888  -30.2551   19.7649 H   0  0  0  0  0  0
  -30.8747  -26.1715   20.1928 H   0  0  0  0  0  0
  -30.2635  -27.6877   20.6827 H   0  0  0  0  0  0
  -28.7182  -25.6613   23.8686 H   0  0  0  0  0  0
  -29.2967  -27.2867   23.7038 H   0  0  0  0  0  0
  -27.3316  -18.5688   20.6922 H   0  0  0  0  0  0
  1 25  1  0  0  0
  1 30  2  0  0  0
  1 80  1  0  0  0
  2  3  1  0  0  0
  2 25  1  0  0  0
  2 85  1  0  0  0
  2 86  1  0  0  0
  3  4  1  0  0  0
  3 87  1  0  0  0
  3 88  1  0  0  0
  4  5  1  0  0  0
  4 89  1  0  0  0
  4 90  1  0  0  0
  5  6  1  0  0  0
  5 26  1  0  0  0
  5 91  1  0  0  0
  6 25  1  0  0  0
  6 92  1  0  0  0
  6 93  1  0  0  0
  7  8  2  0  0  0
  7 26  1  0  0  0
  7 29  1  0  0  0
  8  9  1  0  0  0
  8 22  1  0  0  0
  9 10  1  0  0  0
  9 27  2  0  0  0
 10 11  2  0  0  0
 10 15  1  0  0  0
 11 12  1  0  0  0
 11 94  1  0  0  0
 12 13  2  0  0  0
 12 95  1  0  0  0
 13 14  1  0  0  0
 13 31  1  0  0  0
 14 15  2  0  0  0
 14 96  1  0  0  0
 15 97  1  0  0  0
 16 17  2  0  0  0
 16 21  1  0  0  0
 16 31  1  0  0  0
 17 18  1  0  0  0
 17 98  1  0  0  0
 18 19  2  0  0  0
 18 99  1  0  0  0
 19 20  1  0  0  0
 19 24  1  0  0  0
 20 21  2  0  0  0
 20100  1  0  0  0
 21 23  1  0  0  0
 22 28  1  0  0  0
 22 32  2  0  0  0
 26 27  1  0  0  0
 28101  1  0  0  0
 28102  1  0  0  0
 29103  1  0  0  0
 29104  1  0  0  0
 33 34  1  0  0  0
 33 66  1  0  0  0
 33 70  2  0  0  0
 34 36  1  0  0  0
 34 59  1  0  0  0
 34105  1  0  0  0
 35 44  2  0  0  0
 35 45  1  0  0  0
 35 68  1  0  0  0
 36 56  1  0  0  0
 36106  1  0  0  0
 37 39  1  0  0  0
 37 47  1  0  0  0
 37 66  1  0  0  0
 37107  1  0  0  0
 38 43  2  0  0  0
 38 46  1  0  0  0
 38 47  1  0  0  0
 39 64  1  0  0  0
 39 67  2  0  0  0
 40 52  1  0  0  0
 40 53  2  0  0  0
 40 58  1  0  0  0
 41108  1  0  0  0
 41109  1  0  0  0
 41110  1  0  0  0
 41 48  1  0  0  0
 42 43  1  0  0  0
 42 66  1  0  0  0
 42111  1  0  0  0
 42112  1  0  0  0
 43 44  1  0  0  0
 44113  1  0  0  0
 45 46  2  0  0  0
 45114  1  0  0  0
 46115  1  0  0  0
 47116  1  0  0  0
 47117  1  0  0  0
 48 56  1  0  0  0
 48 65  1  0  0  0
 48118  1  0  0  0
 49 50  1  0  0  0
 49 53  1  0  0  0
 49 64  1  0  0  0
 49119  1  0  0  0
 50 51  1  0  0  0
 50120  1  0  0  0
 50121  1  0  0  0
 51 52  1  0  0  0
 51122  1  0  0  0
 51123  1  0  0  0
 52124  1  0  0  0
 52125  1  0  0  0
 53 54  1  0  0  0
 54 55  2  0  0  0
 54126  1  0  0  0
 55 57  1  0  0  0
 55127  1  0  0  0
 56 69  2  0  0  0
 57 58  2  0  0  0
 57128  1  0  0  0
 58129  1  0  0  0
 59 60  1  0  0  0
 59 61  1  0  0  0
 59 62  1  0  0  0
 60130  1  0  0  0
 60131  1  0  0  0
 60132  1  0  0  0
 61133  1  0  0  0
 61134  1  0  0  0
 61135  1  0  0  0
 62136  1  0  0  0
 62137  1  0  0  0
 62138  1  0  0  0
 63 65  1  0  0  0
 63139  1  0  0  0
 63140  1  0  0  0
 63141  1  0  0  0
 64142  1  0  0  0
 65143  1  0  0  0
 68 78  1  0  0  0
 71 72  1  0  0  0
 71 73  2  0  0  0
 71144  1  0  0  0
 72 74  2  0  0  0
 72 83  1  0  0  0
 73 75  1  0  0  0
 73 84  1  0  0  0
 74 77  1  0  0  0
 74 84  1  0  0  0
 75 80  1  0  0  0
 75 81  2  0  0  0
 76 78  1  0  0  0
 76 79  1  0  0  0
 76 82  2  0  0  0
 77145  1  0  0  0
 77146  1  0  0  0
 77147  1  0  0  0
 78148  1  0  0  0
 78149  1  0  0  0
 79 83  1  0  0  0
 79150  1  0  0  0
 79151  1  0  0  0
 80152  1  0  0  0
M  ISO  4   1 100  68 101  78 101  80 100
M  END
> <chiral flag>
0

> <version>
0

> <s_m_source_file>
/data/baiqing/PycharmProjects/Reinvent-master-3.2/result/LINK_invent/BTK/process_docking_weight1_custom_product_contain_oxygen_bond_distance_aromatic_linkinvent_7_9_3/rearranged_h_0096.sdf

> <i_m_source_file_index>
73

> <r_mmod_Potential_Energy-OPLS-2005>
18839.04296875

> <r_mmod_Stretch_Energy-OPLS-2005>
9740.064453125

> <r_mmod_Bend_Energy-OPLS-2005>
2325.87963867188

> <r_mmod_Torsional_Energy-OPLS-2005>
405.9873046875

> <r_mmod_Improper_Torsional_Energy-OPLS-2005>
36.4161720275879

> <r_mmod_Van_der_Waal_Energy-OPLS-2005>
1976.48156738281

> <r_mmod_Electrostatic_Energy-OPLS-2005>
-385.749481201172

> <r_mmod_Solvation_Energy-OPLS-2005>
-254.651977539062

> <b_mmod_Minimization_Converged-OPLS-2005>
0

> <r_mmod_RMS_Derivative-OPLS-2005>
3.01701307296753

$$$$
73
                    3D
 Structure written by MMmdl.
168177  0  0  1  0            999 V2000
  -30.7586  -14.3951   20.6236 C   0  0  0  0  0  0
  -30.4014  -12.2835   19.4067 C   0  0  0  0  0  0
  -29.4809  -12.5111   18.1941 C   0  0  0  0  0  0
  -28.0052  -12.3666   18.6094 C   0  0  0  0  0  0
  -27.6544  -13.2076   19.8654 C   0  0  2  0  0  0
  -28.6935  -12.9921   20.9885 C   0  0  0  0  0  0
  -25.2558  -13.8155   20.5633 C   0  0  0  0  0  0
  -24.1815  -13.0435   20.9174 C   0  0  0  0  0  0
  -24.6367  -11.6905   20.8727 C   0  0  0  0  0  0
  -23.9047  -10.4280   21.0389 C   0  0  0  0  0  0
  -24.3601   -9.4200   21.9164 C   0  0  0  0  0  0
  -23.6276   -8.2241   22.0749 C   0  0  0  0  0  0
  -22.4263   -8.0270   21.3544 C   0  0  0  0  0  0
  -21.9890   -9.0233   20.4643 C   0  0  0  0  0  0
  -22.7216  -10.2110   20.3044 C   0  0  0  0  0  0
  -21.6850   -6.0720   22.5272 C   0  0  0  0  0  0
  -21.4017   -6.5627   23.8203 C   0  0  0  0  0  0
  -21.3662   -5.6785   24.9166 C   0  0  0  0  0  0
  -21.6047   -4.3047   24.7227 C   0  0  0  0  0  0
  -21.8816   -3.8138   23.4349 C   0  0  0  0  0  0
  -21.9193   -4.6952   22.3403 C   0  0  0  0  0  0
  -22.7848  -13.5241   21.1848 C   0  0  0  0  0  0
  -22.1659   -4.2133   21.0982 F   0  0  0  0  0  0
  -21.5636   -3.4538   25.7747 F   0  0  0  0  0  0
  -30.0291  -13.2666   20.4335 N   0  0  0  0  0  0
  -26.2973  -12.9323   20.3277 N   0  0  0  0  0  0
  -25.9282  -11.6489   20.5722 N   0  0  0  0  0  0
  -22.0504  -12.8207   22.0400 N   0  0  0  0  0  0
  -25.4281  -15.1864   20.4006 N   0  0  0  0  0  0
  -31.8858  -14.5379   20.1376 O   0  0  0  0  0  0
  -21.6642   -6.8858   21.4234 O   0  0  0  0  0  0
  -22.3539  -14.5562   20.6725 O   0  0  0  0  0  0
  -24.6149  -31.8720   23.2179 C   0  0  0  0  0  0
  -25.9038  -32.4850   23.8480 C   0  0  1  0  0  0
  -27.2192  -27.4485   20.0897 C   0  0  0  0  0  0
  -25.5893  -33.8657   24.2402 N   0  0  0  0  0  0
  -23.4010  -30.5020   21.5542 C   0  0  2  0  0  0
  -24.8456  -28.9786   20.1168 C   0  0  0  0  0  0
  -22.7403  -29.4698   22.4972 C   0  0  0  0  0  0
  -18.0266  -28.1391   22.8490 C   0  0  0  0  0  0
  -24.1459  -36.7328   23.2637 C   0  0  0  0  0  0
  -25.9338  -30.8364   21.3786 C   0  0  0  0  0  0
  -26.0051  -29.4722   20.7281 C   0  0  0  0  0  0
  -27.1942  -28.7086   20.7260 C   0  0  0  0  0  0
  -26.0545  -26.9985   19.4295 C   0  0  0  0  0  0
  -24.8638  -27.7365   19.4683 C   0  0  0  0  0  0
  -23.6098  -29.8426   20.1665 C   0  0  0  0  0  0
  -25.4079  -36.3142   24.0358 C   0  0  1  0  0  0
  -20.5859  -28.3681   23.1285 C   0  0  2  0  0  0
  -20.6760  -26.9414   22.5382 C   0  0  0  0  0  0
  -19.5729  -26.6394   21.5190 C   0  0  0  0  0  0
  -18.1908  -26.7931   22.1607 C   0  0  0  0  0  0
  -19.1520  -28.8844   23.2891 C   0  0  0  0  0  0
  -18.9450  -30.1457   23.8906 C   0  0  0  0  0  0
  -17.6442  -30.6585   24.0573 C   0  0  0  0  0  0
  -25.9014  -34.9497   23.5171 C   0  0  0  0  0  0
  -16.5348  -29.9097   23.6326 C   0  0  0  0  0  0
  -16.7261  -28.6517   23.0351 C   0  0  0  0  0  0
  -26.4456  -31.6614   25.0800 C   0  0  0  0  0  0
  -25.3696  -31.3659   26.1528 C   0  0  0  0  0  0
  -27.0328  -30.3070   24.6195 C   0  0  0  0  0  0
  -27.6058  -32.4326   25.7493 C   0  0  0  0  0  0
  -27.5570  -37.1808   24.8475 C   0  0  0  0  0  0
  -21.4134  -29.3057   22.3703 N   0  0  0  0  0  0
  -26.4277  -37.3824   23.9435 N   0  0  0  0  0  0
  -24.6678  -31.0848   22.1069 N   0  0  0  0  0  0
  -23.4189  -28.8210   23.2980 O   0  0  0  0  0  0
  -28.3780  -26.7104   20.0390 O   0  0  0  0  0  0
  -26.5541  -34.8918   22.4716 O   0  0  0  0  0  0
  -23.5342  -32.1465   23.7571 O   0  0  0  0  0  0
  -28.5196  -17.9258   21.1458 C   0  0  0  0  0  0
  -27.8538  -18.9976   20.5234 C   0  0  0  0  0  0
  -30.6202  -18.7168   20.1935 C   0  0  0  0  0  0
  -29.9088  -17.7731   20.9621 C   0  0  0  0  0  0
  -28.5532  -19.9009   19.6887 C   0  0  0  0  0  0
  -29.9576  -19.7709   19.5278 C   0  0  0  0  0  0
  -25.8254  -22.0157   20.0654 C   0  0  0  0  0  0
  -30.6519  -16.5950   21.5044 C   0  0  0  0  0  0
  -25.2113  -23.2723   20.7032 C   0  0  0  0  0  0
  -26.2319  -24.2768   21.2638 C   0  0  0  0  0  0
  -28.1164  -22.9781   20.3298 C   0  0  0  0  0  0
  -27.4890  -24.3775   20.3823 C   0  0  2  0  0  0
  -32.0145  -20.3319   18.2312 C   0  0  0  0  0  0
  -27.7462  -20.9575   18.9396 C   0  0  0  0  0  0
  -28.4303  -25.5230   20.8436 C   0  0  0  0  0  0
  -27.1584  -21.9837   19.8094 N   0  0  0  0  0  0
  -30.6733  -20.6590   18.7057 N   0  0  0  0  0  0
  -30.1034  -15.4064   21.2163 N   0  0  0  0  0  0
  -25.0587  -21.1037   19.7447 O   0  0  0  0  0  0
  -31.7555  -16.7458   22.0437 O   0  0  0  0  0  0
  -31.4462  -12.3598   19.1056 H   0  0  0  0  0  0
  -30.2776  -11.2716   19.7958 H   0  0  0  0  0  0
  -29.7193  -11.8072   17.3952 H   0  0  0  0  0  0
  -29.6499  -13.5079   17.7851 H   0  0  0  0  0  0
  -27.8221  -11.3094   18.8049 H   0  0  0  0  0  0
  -27.3517  -12.6385   17.7795 H   0  0  0  0  0  0
  -27.6982  -14.2546   19.5640 H   0  0  0  0  0  0
  -28.6546  -11.9620   21.3475 H   0  0  0  0  0  0
  -28.4558  -13.6108   21.8557 H   0  0  0  0  0  0
  -25.2740   -9.5690   22.4731 H   0  0  0  0  0  0
  -23.9983   -7.4646   22.7475 H   0  0  0  0  0  0
  -21.0819   -8.8736   19.8957 H   0  0  0  0  0  0
  -22.3652  -10.9641   19.6157 H   0  0  0  0  0  0
  -21.2002   -7.6131   23.9701 H   0  0  0  0  0  0
  -21.1496   -6.0518   25.9065 H   0  0  0  0  0  0
  -22.0597   -2.7600   23.2857 H   0  0  0  0  0  0
  -22.4140  -11.9857   22.4745 H   0  0  0  0  0  0
  -21.1136  -13.1222   22.2655 H   0  0  0  0  0  0
  -24.6505  -15.8312   20.4854 H   0  0  0  0  0  0
  -26.2490  -15.6115   19.9900 H   0  0  0  0  0  0
  -26.7125  -32.5566   23.1268 H   0  0  0  0  0  0
  -25.0141  -33.9846   25.0610 H   0  0  0  0  0  0
  -22.6913  -31.3188   21.4147 H   0  0  0  0  0  0
  -23.3726  -35.9658   23.3327 H   0  0  0  0  0  0
  -24.3526  -36.8918   22.2040 H   0  0  0  0  0  0
  -23.7187  -37.6533   23.6638 H   0  0  0  0  0  0
  -26.0524  -31.6048   20.6136 H   0  0  0  0  0  0
  -26.8230  -30.8852   21.9943 H   0  0  0  0  0  0
  -28.0892  -29.0810   21.2064 H   0  0  0  0  0  0
  -26.0368  -26.0946   18.8484 H   0  0  0  0  0  0
  -23.9843  -27.3646   18.9621 H   0  0  0  0  0  0
  -23.7176  -30.6198   19.4086 H   0  0  0  0  0  0
  -22.7363  -29.2602   19.8690 H   0  0  0  0  0  0
  -25.1226  -36.2038   25.0847 H   0  0  0  0  0  0
  -20.9955  -28.3243   24.1400 H   0  0  0  0  0  0
  -20.5643  -26.2283   23.3574 H   0  0  0  0  0  0
  -21.6635  -26.7458   22.1171 H   0  0  0  0  0  0
  -19.6905  -25.6301   21.1234 H   0  0  0  0  0  0
  -19.6686  -27.3198   20.6713 H   0  0  0  0  0  0
  -17.4175  -26.6684   21.4020 H   0  0  0  0  0  0
  -18.0332  -26.0077   22.9006 H   0  0  0  0  0  0
  -19.7928  -30.7275   24.2266 H   0  0  0  0  0  0
  -17.5010  -31.6252   24.5198 H   0  0  0  0  0  0
  -15.5349  -30.3008   23.7646 H   0  0  0  0  0  0
  -15.8656  -28.0846   22.7057 H   0  0  0  0  0  0
  -24.5913  -30.6993   25.7804 H   0  0  0  0  0  0
  -24.8828  -32.2778   26.5025 H   0  0  0  0  0  0
  -25.8023  -30.8768   27.0275 H   0  0  0  0  0  0
  -26.2893  -29.6743   24.1360 H   0  0  0  0  0  0
  -27.4202  -29.7394   25.4669 H   0  0  0  0  0  0
  -27.8678  -30.4400   23.9301 H   0  0  0  0  0  0
  -27.2790  -33.3664   26.2083 H   0  0  0  0  0  0
  -28.3828  -32.6852   25.0262 H   0  0  0  0  0  0
  -28.0801  -31.8445   26.5368 H   0  0  0  0  0  0
  -28.2615  -38.0080   24.7533 H   0  0  0  0  0  0
  -28.1039  -36.2624   24.6302 H   0  0  0  0  0  0
  -27.2283  -37.1439   25.8871 H   0  0  0  0  0  0
  -20.9278  -29.8847   21.6993 H   0  0  0  0  0  0
  -26.0182  -38.2913   24.1438 H   0  0  0  0  0  0
  -27.9583  -17.2182   21.7405 H   0  0  0  0  0  0
  -26.7853  -19.1014   20.6570 H   0  0  0  0  0  0
  -31.6873  -18.5801   20.0817 H   0  0  0  0  0  0
  -24.5049  -22.9751   21.4792 H   0  0  0  0  0  0
  -24.6225  -23.7620   19.9256 H   0  0  0  0  0  0
  -26.5194  -23.9723   22.2717 H   0  0  0  0  0  0
  -25.7549  -25.2468   21.3845 H   0  0  0  0  0  0
  -28.4465  -22.6638   21.3211 H   0  0  0  0  0  0
  -29.0099  -23.0070   19.7048 H   0  0  0  0  0  0
  -27.2285  -24.5671   19.3436 H   0  0  0  0  0  0
  -32.3103  -21.0171   17.4344 H   0  0  0  0  0  0
  -32.0658  -19.3188   17.8274 H   0  0  0  0  0  0
  -32.7477  -20.4216   19.0352 H   0  0  0  0  0  0
  -26.9845  -20.4301   18.3628 H   0  0  0  0  0  0
  -28.3312  -21.4596   18.1712 H   0  0  0  0  0  0
  -29.4641  -25.1786   20.8106 H   0  0  0  0  0  0
  -28.2467  -25.7803   21.8888 H   0  0  0  0  0  0
  -30.1719  -21.3938   18.2144 H   0  0  0  0  0  0
  -29.1008  -15.3515   21.1719 H   0  0  0  0  0  0
  1 25  1  0  0  0
  1 30  2  0  0  0
  1 88  1  0  0  0
  2  3  1  0  0  0
  2 25  1  0  0  0
  2 91  1  0  0  0
  2 92  1  0  0  0
  3  4  1  0  0  0
  3 93  1  0  0  0
  3 94  1  0  0  0
  4  5  1  0  0  0
  4 95  1  0  0  0
  4 96  1  0  0  0
  5  6  1  0  0  0
  5 26  1  0  0  0
  5 97  1  0  0  0
  6 25  1  0  0  0
  6 98  1  0  0  0
  6 99  1  0  0  0
  7  8  2  0  0  0
  7 26  1  0  0  0
  7 29  1  0  0  0
  8  9  1  0  0  0
  8 22  1  0  0  0
  9 10  1  0  0  0
  9 27  2  0  0  0
 10 11  2  0  0  0
 10 15  1  0  0  0
 11 12  1  0  0  0
 11100  1  0  0  0
 12 13  2  0  0  0
 12101  1  0  0  0
 13 14  1  0  0  0
 13 31  1  0  0  0
 14 15  2  0  0  0
 14102  1  0  0  0
 15103  1  0  0  0
 16 17  2  0  0  0
 16 21  1  0  0  0
 16 31  1  0  0  0
 17 18  1  0  0  0
 17104  1  0  0  0
 18 19  2  0  0  0
 18105  1  0  0  0
 19 20  1  0  0  0
 19 24  1  0  0  0
 20 21  2  0  0  0
 20106  1  0  0  0
 21 23  1  0  0  0
 22 28  1  0  0  0
 22 32  2  0  0  0
 26 27  1  0  0  0
 28107  1  0  0  0
 28108  1  0  0  0
 29109  1  0  0  0
 29110  1  0  0  0
 33 34  1  0  0  0
 33 66  1  0  0  0
 33 70  2  0  0  0
 34 36  1  0  0  0
 34 59  1  0  0  0
 34111  1  0  0  0
 35 44  2  0  0  0
 35 45  1  0  0  0
 35 68  1  0  0  0
 36 56  1  0  0  0
 36112  1  0  0  0
 37 39  1  0  0  0
 37 47  1  0  0  0
 37 66  1  0  0  0
 37113  1  0  0  0
 38 43  2  0  0  0
 38 46  1  0  0  0
 38 47  1  0  0  0
 39 64  1  0  0  0
 39 67  2  0  0  0
 40 52  1  0  0  0
 40 53  2  0  0  0
 40 58  1  0  0  0
 41114  1  0  0  0
 41115  1  0  0  0
 41116  1  0  0  0
 41 48  1  0  0  0
 42 43  1  0  0  0
 42 66  1  0  0  0
 42117  1  0  0  0
 42118  1  0  0  0
 43 44  1  0  0  0
 44119  1  0  0  0
 45 46  2  0  0  0
 45120  1  0  0  0
 46121  1  0  0  0
 47122  1  0  0  0
 47123  1  0  0  0
 48 56  1  0  0  0
 48 65  1  0  0  0
 48124  1  0  0  0
 49 50  1  0  0  0
 49 53  1  0  0  0
 49 64  1  0  0  0
 49125  1  0  0  0
 50 51  1  0  0  0
 50126  1  0  0  0
 50127  1  0  0  0
 51 52  1  0  0  0
 51128  1  0  0  0
 51129  1  0  0  0
 52130  1  0  0  0
 52131  1  0  0  0
 53 54  1  0  0  0
 54 55  2  0  0  0
 54132  1  0  0  0
 55 57  1  0  0  0
 55133  1  0  0  0
 56 69  2  0  0  0
 57 58  2  0  0  0
 57134  1  0  0  0
 58135  1  0  0  0
 59 60  1  0  0  0
 59 61  1  0  0  0
 59 62  1  0  0  0
 60136  1  0  0  0
 60137  1  0  0  0
 60138  1  0  0  0
 61139  1  0  0  0
 61140  1  0  0  0
 61141  1  0  0  0
 62142  1  0  0  0
 62143  1  0  0  0
 62144  1  0  0  0
 63 65  1  0  0  0
 63145  1  0  0  0
 63146  1  0  0  0
 63147  1  0  0  0
 64148  1  0  0  0
 65149  1  0  0  0
 68 85  1  0  0  0
 71 72  2  0  0  0
 71 74  1  0  0  0
 71150  1  0  0  0
 72 75  1  0  0  0
 72151  1  0  0  0
 73 74  2  0  0  0
 73 76  1  0  0  0
 73152  1  0  0  0
 74 78  1  0  0  0
 75 76  2  0  0  0
 75 84  1  0  0  0
 76 87  1  0  0  0
 77 79  1  0  0  0
 77 86  1  0  0  0
 77 89  2  0  0  0
 78 88  1  0  0  0
 78 90  2  0  0  0
 79 80  1  0  0  0
 79153  1  0  0  0
 79154  1  0  0  0
 80 82  1  0  0  0
 80155  1  0  0  0
 80156  1  0  0  0
 81 82  1  0  0  0
 81 86  1  0  0  0
 81157  1  0  0  0
 81158  1  0  0  0
 82 85  1  0  0  0
 82159  1  0  0  0
 83 87  1  0  0  0
 83160  1  0  0  0
 83161  1  0  0  0
 83162  1  0  0  0
 84 86  1  0  0  0
 84163  1  0  0  0
 84164  1  0  0  0
 85165  1  0  0  0
 85166  1  0  0  0
 87167  1  0  0  0
 88168  1  0  0  0
M  ISO  4   1 100  68 101  85 101  88 100
M  END
> <chiral flag>
0

> <version>
0

> <s_m_source_file>
/data/baiqing/PycharmProjects/Reinvent-master-3.2/result/LINK_invent/BTK/process_docking_weight1_custom_product_contain_oxygen_bond_distance_aromatic_linkinvent_7_9_3/rearranged_h_0096.sdf

> <i_m_source_file_index>
74

> <r_mmod_Potential_Energy-OPLS-2005>
-88.5344390869141

> <r_mmod_Stretch_Energy-OPLS-2005>
36.0869979858398

> <r_mmod_Bend_Energy-OPLS-2005>
110.989326477051

> <r_mmod_Torsional_Energy-OPLS-2005>
303.267791748047

> <r_mmod_Improper_Torsional_Energy-OPLS-2005>
8.17767810821533

> <r_mmod_Van_der_Waal_Energy-OPLS-2005>
178.89794921875

> <r_mmod_Electrostatic_Energy-OPLS-2005>
-492.036682128906

> <r_mmod_Solvation_Energy-OPLS-2005>
-246.957458496094

> <b_mmod_Minimization_Converged-OPLS-2005>
0

> <r_mmod_RMS_Derivative-OPLS-2005>
3.42559576034546

$$$$
74
                    3D
 Structure written by MMmdl.
147155  0  0  1  0            999 V2000
  -29.9080  -16.6645   20.2440 C   0  0  0  0  0  0
  -30.3129  -13.8622   19.5370 C   0  0  0  0  0  0
  -29.5839  -12.9853   18.4302 C   0  0  0  0  0  0
  -28.2550  -12.4018   18.9154 C   0  0  0  0  0  0
  -27.5699  -13.4469   19.8046 C   0  0  2  0  0  0
  -28.4915  -14.1944   20.8390 C   0  0  0  0  0  0
  -25.2150  -13.8520   20.5926 C   0  0  0  0  0  0
  -24.1676  -13.0483   20.9332 C   0  0  0  0  0  0
  -24.6570  -11.7057   20.8723 C   0  0  0  0  0  0
  -23.9284  -10.4334   21.0322 C   0  0  0  0  0  0
  -24.3756   -9.4241   21.9134 C   0  0  0  0  0  0
  -23.6377   -8.2297   22.0741 C   0  0  0  0  0  0
  -22.4353   -8.0331   21.3541 C   0  0  0  0  0  0
  -22.0028   -9.0315   20.4633 C   0  0  0  0  0  0
  -22.7416  -10.2167   20.3010 C   0  0  0  0  0  0
  -21.6883   -6.0769   22.5279 C   0  0  0  0  0  0
  -21.4038   -6.5659   23.8216 C   0  0  0  0  0  0
  -21.3670   -5.6803   24.9172 C   0  0  0  0  0  0
  -21.6047   -4.3064   24.7214 C   0  0  0  0  0  0
  -21.8816   -3.8163   23.4332 C   0  0  0  0  0  0
  -21.9202   -4.6990   22.3395 C   0  0  0  0  0  0
  -22.7648  -13.5095   21.1944 C   0  0  0  0  0  0
  -22.1662   -4.2175   21.0969 F   0  0  0  0  0  0
  -21.5625   -3.4540   25.7721 F   0  0  0  0  0  0
  -29.5067  -15.1163   20.1456 N   0  0  0  0  0  0
  -26.2801  -13.0150   20.3406 N   0  0  0  0  0  0
  -25.9579  -11.7051   20.5615 N   0  0  0  0  0  0
  -22.0362  -12.8033   22.0495 N   0  0  0  0  0  0
  -25.3507  -15.2287   20.4373 N   0  0  0  0  0  0
  -31.1497  -16.4079   20.3008 O   0  0  0  0  0  0
  -21.6690   -6.8937   21.4250 O   0  0  0  0  0  0
  -22.3270  -14.5379   20.6793 O   0  0  0  0  0  0
  -24.7521  -31.7131   23.0926 C   0  0  0  0  0  0
  -25.9742  -32.4055   23.7744 C   0  0  1  0  0  0
  -27.2651  -25.9837   20.2847 C   0  0  0  0  0  0
  -25.6021  -33.7919   24.1549 N   0  0  0  0  0  0
  -23.6103  -30.2804   21.4655 C   0  0  2  0  0  0
  -25.0723  -28.4626   20.1530 C   0  0  0  0  0  0
  -22.8062  -29.3850   22.4536 C   0  0  0  0  0  0
  -18.0380  -28.1459   22.8411 C   0  0  0  0  0  0
  -24.1488  -36.6977   23.2668 C   0  0  0  0  0  0
  -26.2127  -30.2076   21.4652 C   0  0  0  0  0  0
  -26.2724  -28.6883   20.8362 C   0  0  0  0  0  0
  -27.3194  -27.5075   20.8431 C   0  0  0  0  0  0
  -26.0281  -26.1542   19.5368 C   0  0  0  0  0  0
  -25.0309  -27.2235   19.4771 C   0  0  0  0  0  0
  -23.9030  -29.5048   20.1364 C   0  0  0  0  0  0
  -25.4158  -36.2655   24.0239 C   0  0  1  0  0  0
  -20.6044  -28.3841   23.1015 C   0  0  2  0  0  0
  -20.6808  -26.9437   22.5414 C   0  0  0  0  0  0
  -19.5797  -26.6341   21.5220 C   0  0  0  0  0  0
  -18.1977  -26.7967   22.1602 C   0  0  0  0  0  0
  -19.1663  -28.8987   23.2672 C   0  0  0  0  0  0
  -18.9562  -30.1552   23.8751 C   0  0  0  0  0  0
  -17.6547  -30.6625   24.0526 C   0  0  0  0  0  0
  -25.9184  -34.9067   23.4785 C   0  0  0  0  0  0
  -16.5428  -29.9096   23.6368 C   0  0  0  0  0  0
  -16.7356  -28.6521   23.0378 C   0  0  0  0  0  0
  -26.4704  -31.6402   25.0653 C   0  0  0  0  0  0
  -25.3592  -31.3924   26.1145 C   0  0  0  0  0  0
  -27.0726  -30.2669   24.7040 C   0  0  0  0  0  0
  -27.6027  -32.4433   25.7486 C   0  0  0  0  0  0
  -27.5543  -37.1627   24.8457 C   0  0  0  0  0  0
  -21.4647  -29.2950   22.3265 N   0  0  0  0  0  0
  -26.4217  -37.3504   23.9435 N   0  0  0  0  0  0
  -24.8918  -30.7837   22.0602 N   0  0  0  0  0  0
  -23.4163  -28.7572   23.3214 O   0  0  0  0  0  0
  -28.1760  -24.4689   20.1889 O   0  0  0  0  0  0
  -26.5928  -34.8791   22.4475 O   0  0  0  0  0  0
  -23.6390  -32.0543   23.5410 O   0  0  0  0  0  0
  -25.7039  -19.5494   17.7654 C   0  0  0  0  0  0
  -26.5656  -19.4555   18.8762 C   0  0  0  0  0  0
  -26.0372  -20.3832   16.6809 C   0  0  0  0  0  0
  -28.0957  -21.0286   17.8170 C   0  0  0  0  0  0
  -27.7702  -20.1938   18.9090 C   0  0  0  0  0  0
  -27.2335  -21.1257   16.7070 C   0  0  0  0  0  0
  -28.6967  -20.0928   20.0539 C   0  0  0  0  0  0
  -28.4684  -22.3847   20.5940 C   0  0  0  0  0  0
  -29.1142  -18.4020   20.0165 N   0  0  0  0  0  0
  -27.5678  -21.9499   15.6347 N   0  0  0  0  0  0
  -31.2126  -14.2544   19.0617 H   0  0  0  0  0  0
  -30.7046  -13.2211   20.3296 H   0  0  0  0  0  0
  -30.2405  -12.1877   18.0804 H   0  0  0  0  0  0
  -29.3925  -13.6194   17.5640 H   0  0  0  0  0  0
  -28.4561  -11.5027   19.4998 H   0  0  0  0  0  0
  -27.6218  -12.1038   18.0788 H   0  0  0  0  0  0
  -27.3047  -14.2226   19.0841 H   0  0  0  0  0  0
  -28.9454  -13.4997   21.5483 H   0  0  0  0  0  0
  -27.8763  -14.8450   21.4603 H   0  0  0  0  0  0
  -25.2887   -9.5706   22.4738 H   0  0  0  0  0  0
  -24.0062   -7.4699   22.7491 H   0  0  0  0  0  0
  -21.0945   -8.8863   19.8949 H   0  0  0  0  0  0
  -22.3866  -10.9702   19.6120 H   0  0  0  0  0  0
  -21.2040   -7.6166   23.9730 H   0  0  0  0  0  0
  -21.1492   -6.0525   25.9079 H   0  0  0  0  0  0
  -22.0582   -2.7624   23.2823 H   0  0  0  0  0  0
  -22.4052  -11.9728   22.4884 H   0  0  0  0  0  0
  -21.0953  -13.0975   22.2703 H   0  0  0  0  0  0
  -24.5738  -15.8694   20.5564 H   0  0  0  0  0  0
  -26.2063  -15.6848   20.1457 H   0  0  0  0  0  0
  -26.7916  -32.4406   23.0528 H   0  0  0  0  0  0
  -24.9986  -33.8842   24.9584 H   0  0  0  0  0  0
  -22.9787  -31.1340   21.2103 H   0  0  0  0  0  0
  -23.3807  -35.9245   23.3161 H   0  0  0  0  0  0
  -24.3555  -36.8850   22.2122 H   0  0  0  0  0  0
  -23.7183  -37.6051   23.6914 H   0  0  0  0  0  0
  -26.4812  -30.8788   20.6482 H   0  0  0  0  0  0
  -27.0432  -30.3026   22.1505 H   0  0  0  0  0  0
  -28.2232  -27.7344   21.3906 H   0  0  0  0  0  0
  -25.7564  -25.2833   18.9568 H   0  0  0  0  0  0
  -24.1522  -27.0221   18.8795 H   0  0  0  0  0  0
  -24.1382  -30.2311   19.3572 H   0  0  0  0  0  0
  -22.9948  -29.0067   19.7935 H   0  0  0  0  0  0
  -25.1392  -36.1309   25.0723 H   0  0  0  0  0  0
  -21.0097  -28.3514   24.1153 H   0  0  0  0  0  0
  -20.5608  -26.2483   23.3739 H   0  0  0  0  0  0
  -21.6663  -26.7270   22.1272 H   0  0  0  0  0  0
  -19.6948  -25.6214   21.1340 H   0  0  0  0  0  0
  -19.6767  -27.3076   20.6695 H   0  0  0  0  0  0
  -17.4251  -26.6709   21.4002 H   0  0  0  0  0  0
  -18.0342  -26.0151   22.9033 H   0  0  0  0  0  0
  -19.8041  -30.7390   24.2068 H   0  0  0  0  0  0
  -17.5101  -31.6290   24.5158 H   0  0  0  0  0  0
  -15.5427  -30.2956   23.7779 H   0  0  0  0  0  0
  -15.8747  -28.0791   22.7187 H   0  0  0  0  0  0
  -24.5783  -30.7304   25.7387 H   0  0  0  0  0  0
  -24.8802  -32.3220   26.4232 H   0  0  0  0  0  0
  -25.7592  -30.9253   27.0150 H   0  0  0  0  0  0
  -26.3544  -29.6061   24.2179 H   0  0  0  0  0  0
  -27.4016  -29.7417   25.6015 H   0  0  0  0  0  0
  -27.9573  -30.3641   24.0747 H   0  0  0  0  0  0
  -27.2494  -33.3895   26.1597 H   0  0  0  0  0  0
  -28.4043  -32.6739   25.0457 H   0  0  0  0  0  0
  -28.0462  -31.8891   26.5766 H   0  0  0  0  0  0
  -28.2432  -38.0038   24.7575 H   0  0  0  0  0  0
  -28.1158  -36.2554   24.6172 H   0  0  0  0  0  0
  -27.2281  -37.1110   25.8860 H   0  0  0  0  0  0
  -21.0131  -29.8508   21.6134 H   0  0  0  0  0  0
  -25.9972  -38.2503   24.1519 H   0  0  0  0  0  0
  -24.7864  -18.9777   17.7441 H   0  0  0  0  0  0
  -26.3025  -18.8105   19.7033 H   0  0  0  0  0  0
  -25.3672  -20.4416   15.8337 H   0  0  0  0  0  0
  -29.0215  -21.5878   17.8345 H   0  0  0  0  0  0
  -29.3742  -22.5066   21.1869 H   0  0  0  0  0  0
  -27.6887  -22.3021   21.3508 H   0  0  0  0  0  0
  -26.8452  -22.2158   14.9718 H   0  0  0  0  0  0
  -28.2694  -22.6732   15.7658 H   0  0  0  0  0  0
  1 25  1  0  0  0
  1 30  2  0  0  0
  1 79  1  0  0  0
  2  3  1  0  0  0
  2 25  1  0  0  0
  2 81  1  0  0  0
  2 82  1  0  0  0
  3  4  1  0  0  0
  3 83  1  0  0  0
  3 84  1  0  0  0
  4  5  1  0  0  0
  4 85  1  0  0  0
  4 86  1  0  0  0
  5  6  1  0  0  0
  5 26  1  0  0  0
  5 87  1  0  0  0
  6 25  1  0  0  0
  6 88  1  0  0  0
  6 89  1  0  0  0
  7  8  2  0  0  0
  7 26  1  0  0  0
  7 29  1  0  0  0
  8  9  1  0  0  0
  8 22  1  0  0  0
  9 10  1  0  0  0
  9 27  2  0  0  0
 10 11  2  0  0  0
 10 15  1  0  0  0
 11 12  1  0  0  0
 11 90  1  0  0  0
 12 13  2  0  0  0
 12 91  1  0  0  0
 13 14  1  0  0  0
 13 31  1  0  0  0
 14 15  2  0  0  0
 14 92  1  0  0  0
 15 93  1  0  0  0
 16 17  2  0  0  0
 16 21  1  0  0  0
 16 31  1  0  0  0
 17 18  1  0  0  0
 17 94  1  0  0  0
 18 19  2  0  0  0
 18 95  1  0  0  0
 19 20  1  0  0  0
 19 24  1  0  0  0
 20 21  2  0  0  0
 20 96  1  0  0  0
 21 23  1  0  0  0
 22 28  1  0  0  0
 22 32  2  0  0  0
 26 27  1  0  0  0
 28 97  1  0  0  0
 28 98  1  0  0  0
 29 99  1  0  0  0
 29100  1  0  0  0
 33 34  1  0  0  0
 33 66  1  0  0  0
 33 70  2  0  0  0
 34 36  1  0  0  0
 34 59  1  0  0  0
 34101  1  0  0  0
 35 44  2  0  0  0
 35 45  1  0  0  0
 35 68  1  0  0  0
 36 56  1  0  0  0
 36102  1  0  0  0
 37 39  1  0  0  0
 37 47  1  0  0  0
 37 66  1  0  0  0
 37103  1  0  0  0
 38 43  2  0  0  0
 38 46  1  0  0  0
 38 47  1  0  0  0
 39 64  1  0  0  0
 39 67  2  0  0  0
 40 52  1  0  0  0
 40 53  2  0  0  0
 40 58  1  0  0  0
 41104  1  0  0  0
 41105  1  0  0  0
 41106  1  0  0  0
 41 48  1  0  0  0
 42 43  1  0  0  0
 42 66  1  0  0  0
 42107  1  0  0  0
 42108  1  0  0  0
 43 44  1  0  0  0
 44109  1  0  0  0
 45 46  2  0  0  0
 45110  1  0  0  0
 46111  1  0  0  0
 47112  1  0  0  0
 47113  1  0  0  0
 48 56  1  0  0  0
 48 65  1  0  0  0
 48114  1  0  0  0
 49 50  1  0  0  0
 49 53  1  0  0  0
 49 64  1  0  0  0
 49115  1  0  0  0
 50 51  1  0  0  0
 50116  1  0  0  0
 50117  1  0  0  0
 51 52  1  0  0  0
 51118  1  0  0  0
 51119  1  0  0  0
 52120  1  0  0  0
 52121  1  0  0  0
 53 54  1  0  0  0
 54 55  2  0  0  0
 54122  1  0  0  0
 55 57  1  0  0  0
 55123  1  0  0  0
 56 69  2  0  0  0
 57 58  2  0  0  0
 57124  1  0  0  0
 58125  1  0  0  0
 59 60  1  0  0  0
 59 61  1  0  0  0
 59 62  1  0  0  0
 60126  1  0  0  0
 60127  1  0  0  0
 60128  1  0  0  0
 61129  1  0  0  0
 61130  1  0  0  0
 61131  1  0  0  0
 62132  1  0  0  0
 62133  1  0  0  0
 62134  1  0  0  0
 63 65  1  0  0  0
 63135  1  0  0  0
 63136  1  0  0  0
 63137  1  0  0  0
 64138  1  0  0  0
 65139  1  0  0  0
 68 78  1  0  0  0
 71 72  2  0  0  0
 71 73  1  0  0  0
 71140  1  0  0  0
 72 75  1  0  0  0
 72141  1  0  0  0
 73 76  2  0  0  0
 73142  1  0  0  0
 74 75  2  0  0  0
 74 76  1  0  0  0
 74143  1  0  0  0
 75 77  1  0  0  0
 76 80  1  0  0  0
 77 78  1  0  0  0
 77 79  2  0  0  0
 78144  1  0  0  0
 78145  1  0  0  0
 80146  1  0  0  0
 80147  1  0  0  0
M  ISO  4   1 100  68 101  78 101  79 100
M  END
> <chiral flag>
0

> <version>
0

> <s_m_source_file>
/data/baiqing/PycharmProjects/Reinvent-master-3.2/result/LINK_invent/BTK/process_docking_weight1_custom_product_contain_oxygen_bond_distance_aromatic_linkinvent_7_9_3/rearranged_h_0096.sdf

> <i_m_source_file_index>
75

> <r_mmod_Potential_Energy-OPLS-2005>
7797.55419921875

> <r_mmod_Stretch_Energy-OPLS-2005>
3343.68920898438

> <r_mmod_Bend_Energy-OPLS-2005>
1501.93969726562

> <r_mmod_Torsional_Energy-OPLS-2005>
262.296417236328

> <r_mmod_Improper_Torsional_Energy-OPLS-2005>
12.4007539749146

> <r_mmod_Van_der_Waal_Energy-OPLS-2005>
135.220855712891

> <r_mmod_Electrostatic_Energy-OPLS-2005>
-343.012573242188

> <r_mmod_Solvation_Energy-OPLS-2005>
-206.897644042969

> <b_mmod_Minimization_Converged-OPLS-2005>
0

> <r_mmod_RMS_Derivative-OPLS-2005>
0.956573665142059

$$$$
75
                    3D
 Structure written by MMmdl.
156165  0  0  1  0            999 V2000
  -30.4966  -15.0100   20.3964 C   0  0  0  0  0  0
  -30.4642  -12.6228   19.5037 C   0  0  0  0  0  0
  -29.5454  -12.5289   18.2545 C   0  0  0  0  0  0
  -28.0650  -12.3284   18.6466 C   0  0  0  0  0  0
  -27.6291  -13.2505   19.8167 C   0  0  2  0  0  0
  -28.6728  -13.2835   20.9534 C   0  0  0  0  0  0
  -25.2488  -13.8271   20.5670 C   0  0  0  0  0  0
  -24.1787  -13.0471   20.9170 C   0  0  0  0  0  0
  -24.6425  -11.6971   20.8678 C   0  0  0  0  0  0
  -23.9096  -10.4352   21.0337 C   0  0  0  0  0  0
  -24.3668   -9.4276   21.9111 C   0  0  0  0  0  0
  -23.6332   -8.2308   22.0732 C   0  0  0  0  0  0
  -22.4301   -8.0330   21.3536 C   0  0  0  0  0  0
  -21.9928   -9.0301   20.4630 C   0  0  0  0  0  0
  -22.7264  -10.2174   20.2996 C   0  0  0  0  0  0
  -21.6904   -6.0742   22.5275 C   0  0  0  0  0  0
  -21.4026   -6.5620   23.8211 C   0  0  0  0  0  0
  -21.3639   -5.6759   24.9164 C   0  0  0  0  0  0
  -21.6056   -4.3029   24.7196 C   0  0  0  0  0  0
  -21.8828   -3.8130   23.4316 C   0  0  0  0  0  0
  -21.9217   -4.6966   22.3384 C   0  0  0  0  0  0
  -22.7781  -13.5246   21.1761 C   0  0  0  0  0  0
  -22.1683   -4.2159   21.0959 F   0  0  0  0  0  0
  -21.5653   -3.4506   25.7694 F   0  0  0  0  0  0
  -29.9583  -13.7159   20.3870 N   0  0  0  0  0  0
  -26.2901  -12.9480   20.3109 N   0  0  0  0  0  0
  -25.9360  -11.6614   20.5614 N   0  0  0  0  0  0
  -22.0422  -12.8270   22.0350 N   0  0  0  0  0  0
  -25.4118  -15.2011   20.4176 N   0  0  0  0  0  0
  -31.7155  -15.0818   20.1868 O   0  0  0  0  0  0
  -21.6689   -6.8903   21.4245 O   0  0  0  0  0  0
  -22.3414  -14.5491   20.6553 O   0  0  0  0  0  0
  -24.6472  -31.8396   23.1843 C   0  0  0  0  0  0
  -25.9236  -32.4642   23.8216 C   0  0  1  0  0  0
  -27.2027  -27.1082   20.1622 C   0  0  0  0  0  0
  -25.5972  -33.8446   24.2101 N   0  0  0  0  0  0
  -23.4483  -30.4633   21.5284 C   0  0  2  0  0  0
  -24.8969  -28.8912   20.1037 C   0  0  0  0  0  0
  -22.7552  -29.4554   22.4800 C   0  0  0  0  0  0
  -18.0318  -28.1412   22.8474 C   0  0  0  0  0  0
  -24.1491  -36.7250   23.2626 C   0  0  0  0  0  0
  -26.0084  -30.7069   21.3889 C   0  0  0  0  0  0
  -26.0771  -29.3202   20.7223 C   0  0  0  0  0  0
  -27.2320  -28.4476   20.7316 C   0  0  0  0  0  0
  -25.9997  -26.7924   19.4902 C   0  0  0  0  0  0
  -24.8736  -27.6427   19.4668 C   0  0  0  0  0  0
  -23.6738  -29.7965   20.1453 C   0  0  0  0  0  0
  -25.4128  -36.2994   24.0272 C   0  0  1  0  0  0
  -20.5941  -28.3743   23.1247 C   0  0  2  0  0  0
  -20.6817  -26.9446   22.5416 C   0  0  0  0  0  0
  -19.5789  -26.6381   21.5231 C   0  0  0  0  0  0
  -18.1953  -26.7953   22.1636 C   0  0  0  0  0  0
  -19.1571  -28.8898   23.2854 C   0  0  0  0  0  0
  -18.9493  -30.1503   23.8873 C   0  0  0  0  0  0
  -17.6487  -30.6609   24.0572 C   0  0  0  0  0  0
  -25.9067  -34.9375   23.4978 C   0  0  0  0  0  0
  -16.5372  -29.9097   23.6363 C   0  0  0  0  0  0
  -16.7305  -28.6526   23.0358 C   0  0  0  0  0  0
  -26.4547  -31.6533   25.0687 C   0  0  0  0  0  0
  -25.3703  -31.3761   26.1329 C   0  0  0  0  0  0
  -27.0406  -30.2877   24.6342 C   0  0  0  0  0  0
  -27.6043  -32.4308   25.7502 C   0  0  0  0  0  0
  -27.5561  -37.1777   24.8450 C   0  0  0  0  0  0
  -21.4235  -29.3058   22.3574 N   0  0  0  0  0  0
  -26.4274  -37.3708   23.9375 N   0  0  0  0  0  0
  -24.7200  -31.0262   22.0865 N   0  0  0  0  0  0
  -23.4181  -28.8073   23.2950 O   0  0  0  0  0  0
  -28.2254  -26.0853   20.2702 O   0  0  0  0  0  0
  -26.5701  -34.8918   22.4579 O   0  0  0  0  0  0
  -23.5600  -32.1304   23.7061 O   0  0  0  0  0  0
  -30.6786  -19.6852   22.3738 C   0  0  0  0  0  0
  -30.5652  -18.3432   21.8929 C   0  0  0  0  0  0
  -29.1911  -19.2108   20.1162 C   0  0  0  0  0  0
  -28.6474  -21.8499   20.0395 C   0  0  0  0  0  0
  -30.1573  -22.1049   22.3249 C   0  0  0  0  0  0
  -30.0481  -20.8040   21.7561 C   0  0  0  0  0  0
  -29.2789  -20.6174   20.5896 C   0  0  0  0  0  0
  -29.8151  -18.0060   20.7374 C   0  0  0  0  0  0
  -28.7379  -23.2244   20.6027 C   0  0  0  0  0  0
  -29.5223  -23.2648   21.7865 C   0  0  0  0  0  0
  -29.0006  -16.4653   18.8596 C   0  0  0  0  0  0
  -27.8710  -24.5624   20.1170 C   0  0  0  0  0  0
  -29.5501  -16.4086   20.2983 C   0  0  1  0  0  0
  -29.6438  -24.4654   22.4855 N   0  0  0  0  0  0
  -31.4957  -12.8032   19.1947 H   0  0  0  0  0  0
  -30.4841  -11.6746   20.0434 H   0  0  0  0  0  0
  -29.8691  -11.7123   17.6087 H   0  0  0  0  0  0
  -29.6558  -13.4323   17.6582 H   0  0  0  0  0  0
  -27.9473  -11.2842   18.9355 H   0  0  0  0  0  0
  -27.4209  -12.4766   17.7779 H   0  0  0  0  0  0
  -27.5722  -14.2473   19.3877 H   0  0  0  0  0  0
  -28.7665  -12.3031   21.4202 H   0  0  0  0  0  0
  -28.3530  -13.9678   21.7376 H   0  0  0  0  0  0
  -25.2859   -9.5792   22.4609 H   0  0  0  0  0  0
  -24.0104   -7.4729   22.7458 H   0  0  0  0  0  0
  -21.0854   -8.8813   19.8925 H   0  0  0  0  0  0
  -22.3742  -10.9692   19.6064 H   0  0  0  0  0  0
  -21.2011   -7.6128   23.9713 H   0  0  0  0  0  0
  -21.1436   -6.0469   25.9068 H   0  0  0  0  0  0
  -22.0617   -2.7597   23.2803 H   0  0  0  0  0  0
  -22.4113  -12.0056   22.4914 H   0  0  0  0  0  0
  -21.0972  -13.1183   22.2376 H   0  0  0  0  0  0
  -24.6402  -15.8478   20.5438 H   0  0  0  0  0  0
  -26.2681  -15.6623   20.1380 H   0  0  0  0  0  0
  -26.7253  -32.5241   23.0914 H   0  0  0  0  0  0
  -25.0078  -33.9545   25.0219 H   0  0  0  0  0  0
  -22.7548  -31.2931   21.3721 H   0  0  0  0  0  0
  -23.3743  -35.9595   23.3290 H   0  0  0  0  0  0
  -24.3561  -36.8909   22.2043 H   0  0  0  0  0  0
  -23.7296  -37.6451   23.6706 H   0  0  0  0  0  0
  -26.1795  -31.4672   20.6266 H   0  0  0  0  0  0
  -26.8725  -30.7444   22.0400 H   0  0  0  0  0  0
  -28.1312  -28.7727   21.2368 H   0  0  0  0  0  0
  -25.8896  -25.8402   18.9958 H   0  0  0  0  0  0
  -23.9720  -27.3165   18.9625 H   0  0  0  0  0  0
  -23.8077  -30.5718   19.3922 H   0  0  0  0  0  0
  -22.7905  -29.2356   19.8397 H   0  0  0  0  0  0
  -25.1322  -36.1773   25.0774 H   0  0  0  0  0  0
  -21.0066  -28.3360   24.1351 H   0  0  0  0  0  0
  -20.5783  -26.2343   23.3644 H   0  0  0  0  0  0
  -21.6657  -26.7450   22.1175 H   0  0  0  0  0  0
  -19.6963  -25.6305   21.1268 H   0  0  0  0  0  0
  -19.6754  -27.3186   20.6761 H   0  0  0  0  0  0
  -17.4225  -26.6731   21.4028 H   0  0  0  0  0  0
  -18.0346  -26.0104   22.9044 H   0  0  0  0  0  0
  -19.7963  -30.7340   24.2210 H   0  0  0  0  0  0
  -17.5027  -31.6297   24.5170 H   0  0  0  0  0  0
  -15.5379  -30.2993   23.7703 H   0  0  0  0  0  0
  -15.8699  -28.0854   22.7066 H   0  0  0  0  0  0
  -24.5891  -30.7107   25.7648 H   0  0  0  0  0  0
  -24.8941  -32.2996   26.4673 H   0  0  0  0  0  0
  -25.7987  -30.8988   27.0162 H   0  0  0  0  0  0
  -26.3008  -29.6570   24.1370 H   0  0  0  0  0  0
  -27.3946  -29.7223   25.4982 H   0  0  0  0  0  0
  -27.8967  -30.4041   23.9704 H   0  0  0  0  0  0
  -27.2508  -33.3561   26.2067 H   0  0  0  0  0  0
  -28.3869  -32.6941   25.0364 H   0  0  0  0  0  0
  -28.0682  -31.8463   26.5450 H   0  0  0  0  0  0
  -28.2552  -38.0091   24.7468 H   0  0  0  0  0  0
  -28.1077  -36.2616   24.6293 H   0  0  0  0  0  0
  -27.2264  -37.1420   25.8847 H   0  0  0  0  0  0
  -20.9402  -29.8703   21.6731 H   0  0  0  0  0  0
  -26.0133  -38.2766   24.1424 H   0  0  0  0  0  0
  -31.2432  -19.8489   23.2846 H   0  0  0  0  0  0
  -31.0370  -17.5590   22.4673 H   0  0  0  0  0  0
  -28.5752  -19.0666   19.2408 H   0  0  0  0  0  0
  -28.0334  -21.7323   19.1558 H   0  0  0  0  0  0
  -30.7248  -22.2096   23.2387 H   0  0  0  0  0  0
  -29.0199  -15.5074   18.3465 H   0  0  0  0  0  0
  -29.5884  -17.1431   18.2424 H   0  0  0  0  0  0
  -27.9678  -16.8117   18.8530 H   0  0  0  0  0  0
  -26.9412  -24.4423   20.6731 H   0  0  0  0  0  0
  -27.5851  -24.3830   19.0795 H   0  0  0  0  0  0
  -28.7185  -16.1422   20.9476 H   0  0  0  0  0  0
  -29.0357  -25.2361   22.2182 H   0  0  0  0  0  0
  -29.8346  -24.4328   23.4834 H   0  0  0  0  0  0
  1 25  1  0  0  0
  1 30  2  0  0  0
  1 83  1  0  0  0
  2  3  1  0  0  0
  2 25  1  0  0  0
  2 85  1  0  0  0
  2 86  1  0  0  0
  3  4  1  0  0  0
  3 87  1  0  0  0
  3 88  1  0  0  0
  4  5  1  0  0  0
  4 89  1  0  0  0
  4 90  1  0  0  0
  5  6  1  0  0  0
  5 26  1  0  0  0
  5 91  1  0  0  0
  6 25  1  0  0  0
  6 92  1  0  0  0
  6 93  1  0  0  0
  7  8  2  0  0  0
  7 26  1  0  0  0
  7 29  1  0  0  0
  8  9  1  0  0  0
  8 22  1  0  0  0
  9 10  1  0  0  0
  9 27  2  0  0  0
 10 11  2  0  0  0
 10 15  1  0  0  0
 11 12  1  0  0  0
 11 94  1  0  0  0
 12 13  2  0  0  0
 12 95  1  0  0  0
 13 14  1  0  0  0
 13 31  1  0  0  0
 14 15  2  0  0  0
 14 96  1  0  0  0
 15 97  1  0  0  0
 16 17  2  0  0  0
 16 21  1  0  0  0
 16 31  1  0  0  0
 17 18  1  0  0  0
 17 98  1  0  0  0
 18 19  2  0  0  0
 18 99  1  0  0  0
 19 20  1  0  0  0
 19 24  1  0  0  0
 20 21  2  0  0  0
 20100  1  0  0  0
 21 23  1  0  0  0
 22 28  1  0  0  0
 22 32  2  0  0  0
 26 27  1  0  0  0
 28101  1  0  0  0
 28102  1  0  0  0
 29103  1  0  0  0
 29104  1  0  0  0
 33 34  1  0  0  0
 33 66  1  0  0  0
 33 70  2  0  0  0
 34 36  1  0  0  0
 34 59  1  0  0  0
 34105  1  0  0  0
 35 44  2  0  0  0
 35 45  1  0  0  0
 35 68  1  0  0  0
 36 56  1  0  0  0
 36106  1  0  0  0
 37 39  1  0  0  0
 37 47  1  0  0  0
 37 66  1  0  0  0
 37107  1  0  0  0
 38 43  2  0  0  0
 38 46  1  0  0  0
 38 47  1  0  0  0
 39 64  1  0  0  0
 39 67  2  0  0  0
 40 52  1  0  0  0
 40 53  2  0  0  0
 40 58  1  0  0  0
 41108  1  0  0  0
 41109  1  0  0  0
 41110  1  0  0  0
 41 48  1  0  0  0
 42 43  1  0  0  0
 42 66  1  0  0  0
 42111  1  0  0  0
 42112  1  0  0  0
 43 44  1  0  0  0
 44113  1  0  0  0
 45 46  2  0  0  0
 45114  1  0  0  0
 46115  1  0  0  0
 47116  1  0  0  0
 47117  1  0  0  0
 48 56  1  0  0  0
 48 65  1  0  0  0
 48118  1  0  0  0
 49 50  1  0  0  0
 49 53  1  0  0  0
 49 64  1  0  0  0
 49119  1  0  0  0
 50 51  1  0  0  0
 50120  1  0  0  0
 50121  1  0  0  0
 51 52  1  0  0  0
 51122  1  0  0  0
 51123  1  0  0  0
 52124  1  0  0  0
 52125  1  0  0  0
 53 54  1  0  0  0
 54 55  2  0  0  0
 54126  1  0  0  0
 55 57  1  0  0  0
 55127  1  0  0  0
 56 69  2  0  0  0
 57 58  2  0  0  0
 57128  1  0  0  0
 58129  1  0  0  0
 59 60  1  0  0  0
 59 61  1  0  0  0
 59 62  1  0  0  0
 60130  1  0  0  0
 60131  1  0  0  0
 60132  1  0  0  0
 61133  1  0  0  0
 61134  1  0  0  0
 61135  1  0  0  0
 62136  1  0  0  0
 62137  1  0  0  0
 62138  1  0  0  0
 63 65  1  0  0  0
 63139  1  0  0  0
 63140  1  0  0  0
 63141  1  0  0  0
 64142  1  0  0  0
 65143  1  0  0  0
 68 82  1  0  0  0
 71 72  2  0  0  0
 71 76  1  0  0  0
 71144  1  0  0  0
 72 78  1  0  0  0
 72145  1  0  0  0
 73 77  1  0  0  0
 73 78  2  0  0  0
 73146  1  0  0  0
 74 77  2  0  0  0
 74 79  1  0  0  0
 74147  1  0  0  0
 75 76  2  0  0  0
 75 80  1  0  0  0
 75148  1  0  0  0
 76 77  1  0  0  0
 78 83  1  0  0  0
 79 80  2  0  0  0
 79 82  1  0  0  0
 80 84  1  0  0  0
 81149  1  0  0  0
 81150  1  0  0  0
 81151  1  0  0  0
 81 83  1  0  0  0
 82152  1  0  0  0
 82153  1  0  0  0
 83154  1  0  0  0
 84155  1  0  0  0
 84156  1  0  0  0
M  ISO  4   1 100  68 101  82 101  83 100
M  END
> <chiral flag>
0

> <version>
0

> <s_m_source_file>
/data/baiqing/PycharmProjects/Reinvent-master-3.2/result/LINK_invent/BTK/process_docking_weight1_custom_product_contain_oxygen_bond_distance_aromatic_linkinvent_7_9_3/rearranged_h_0096.sdf

> <i_m_source_file_index>
76

> <r_mmod_Potential_Energy-OPLS-2005>
665.773681640625

> <r_mmod_Stretch_Energy-OPLS-2005>
281.499969482422

> <r_mmod_Bend_Energy-OPLS-2005>
259.720367431641

> <r_mmod_Torsional_Energy-OPLS-2005>
214.599136352539

> <r_mmod_Improper_Torsional_Energy-OPLS-2005>
13.3816633224487

> <r_mmod_Van_der_Waal_Energy-OPLS-2005>
145.284698486328

> <r_mmod_Electrostatic_Energy-OPLS-2005>
-273.481170654297

> <r_mmod_Solvation_Energy-OPLS-2005>
-209.04948425293

> <b_mmod_Minimization_Converged-OPLS-2005>
0

> <r_mmod_RMS_Derivative-OPLS-2005>
5.41605472564697

$$$$
76
                    3D
 Structure written by MMmdl.
165174  0  0  1  0            999 V2000
  -30.7751  -14.4584   20.6298 C   0  0  0  0  0  0
  -30.4437  -12.3308   19.4295 C   0  0  0  0  0  0
  -29.5159  -12.5102   18.2171 C   0  0  0  0  0  0
  -28.0416  -12.3428   18.6304 C   0  0  0  0  0  0
  -27.6730  -13.2019   19.8674 C   0  0  2  0  0  0
  -28.7160  -13.0409   20.9975 C   0  0  0  0  0  0
  -25.2618  -13.8071   20.5539 C   0  0  0  0  0  0
  -24.1929  -13.0420   20.9199 C   0  0  0  0  0  0
  -24.6451  -11.6871   20.8769 C   0  0  0  0  0  0
  -23.9101  -10.4308   21.0394 C   0  0  0  0  0  0
  -24.3651   -9.4230   21.9168 C   0  0  0  0  0  0
  -23.6325   -8.2270   22.0749 C   0  0  0  0  0  0
  -22.4264   -8.0318   21.3579 C   0  0  0  0  0  0
  -21.9925   -9.0284   20.4644 C   0  0  0  0  0  0
  -22.7271  -10.2153   20.3056 C   0  0  0  0  0  0
  -21.6840   -6.0761   22.5283 C   0  0  0  0  0  0
  -21.4025   -6.5660   23.8221 C   0  0  0  0  0  0
  -21.3643   -5.6801   24.9176 C   0  0  0  0  0  0
  -21.6049   -4.3066   24.7217 C   0  0  0  0  0  0
  -21.8820   -3.8167   23.4330 C   0  0  0  0  0  0
  -21.9215   -4.6998   22.3404 C   0  0  0  0  0  0
  -22.7961  -13.5243   21.1841 C   0  0  0  0  0  0
  -22.1668   -4.2179   21.0981 F   0  0  0  0  0  0
  -21.5610   -3.4547   25.7722 F   0  0  0  0  0  0
  -30.0505  -13.3213   20.4450 N   0  0  0  0  0  0
  -26.3117  -12.9282   20.3315 N   0  0  0  0  0  0
  -25.9394  -11.6444   20.5814 N   0  0  0  0  0  0
  -22.0607  -12.8267   22.0358 N   0  0  0  0  0  0
  -25.4305  -15.1796   20.3707 N   0  0  0  0  0  0
  -31.8700  -14.6110   20.0943 O   0  0  0  0  0  0
  -21.6642   -6.8903   21.4239 O   0  0  0  0  0  0
  -22.3706  -14.5599   20.6666 O   0  0  0  0  0  0
  -24.6264  -31.8682   23.2033 C   0  0  0  0  0  0
  -25.9122  -32.4826   23.8335 C   0  0  1  0  0  0
  -27.1876  -27.3970   20.0726 C   0  0  0  0  0  0
  -25.5962  -33.8614   24.2339 N   0  0  0  0  0  0
  -23.4191  -30.5067   21.5435 C   0  0  2  0  0  0
  -24.8327  -28.9714   20.1385 C   0  0  0  0  0  0
  -22.7458  -29.4765   22.4773 C   0  0  0  0  0  0
  -18.0318  -28.1458   22.8484 C   0  0  0  0  0  0
  -24.1494  -36.7264   23.2634 C   0  0  0  0  0  0
  -25.9575  -30.8259   21.3555 C   0  0  0  0  0  0
  -26.0188  -29.4601   20.7010 C   0  0  0  0  0  0
  -27.2062  -28.6901   20.6501 C   0  0  0  0  0  0
  -25.9643  -26.9106   19.5730 C   0  0  0  0  0  0
  -24.7960  -27.6809   19.5928 C   0  0  0  0  0  0
  -23.6310  -29.8739   20.1512 C   0  0  0  0  0  0
  -25.4100  -36.3083   24.0325 C   0  0  1  0  0  0
  -20.5983  -28.3819   23.1282 C   0  0  2  0  0  0
  -20.6881  -26.9533   22.5416 C   0  0  0  0  0  0
  -19.5829  -26.6517   21.5225 C   0  0  0  0  0  0
  -18.2000  -26.7981   22.1645 C   0  0  0  0  0  0
  -19.1592  -28.8909   23.2923 C   0  0  0  0  0  0
  -18.9477  -30.1482   23.8981 C   0  0  0  0  0  0
  -17.6501  -30.6634   24.0602 C   0  0  0  0  0  0
  -25.9039  -34.9451   23.5128 C   0  0  0  0  0  0
  -16.5393  -29.9175   23.6300 C   0  0  0  0  0  0
  -16.7303  -28.6599   23.0282 C   0  0  0  0  0  0
  -26.4565  -31.6521   25.0658 C   0  0  0  0  0  0
  -25.3840  -31.3602   26.1431 C   0  0  0  0  0  0
  -27.0324  -30.2929   24.5954 C   0  0  0  0  0  0
  -27.6143  -32.4202   25.7483 C   0  0  0  0  0  0
  -27.5566  -37.1776   24.8471 C   0  0  0  0  0  0
  -21.4179  -29.3134   22.3555 N   0  0  0  0  0  0
  -26.4277  -37.3732   23.9457 N   0  0  0  0  0  0
  -24.6898  -31.0827   22.0926 N   0  0  0  0  0  0
  -23.4191  -28.8311   23.2848 O   0  0  0  0  0  0
  -28.3405  -26.6314   19.9899 O   0  0  0  0  0  0
  -26.5518  -34.8956   22.4668 O   0  0  0  0  0  0
  -23.5448  -32.1388   23.7455 O   0  0  0  0  0  0
  -28.6862  -19.2574   19.3549 C   0  0  0  0  0  0
  -26.4909  -20.2518   19.0531 C   0  0  0  0  0  0
  -27.8302  -20.1264   18.6380 C   0  0  0  0  0  0
  -28.2170  -18.5587   20.5052 C   0  0  0  0  0  0
  -26.8736  -18.7358   20.9325 C   0  0  0  0  0  0
  -26.0003  -19.5479   20.1657 C   0  0  0  0  0  0
  -27.2203  -22.9941   16.9746 C   0  0  0  0  0  0
  -29.5690  -16.3703   20.7602 C   0  0  0  0  0  0
  -29.1467  -17.7133   21.3207 C   0  0  0  0  0  0
  -28.3091  -20.9342   17.4509 C   0  0  0  0  0  0
  -27.0456  -24.3212   17.6825 C   0  0  0  0  0  0
  -28.8075  -23.0112   18.6740 C   0  0  0  0  0  0
  -28.3204  -24.4749   18.5408 C   0  0  2  0  0  0
  -26.3661  -18.0438   22.2031 C   0  0  0  0  0  0
  -28.2240  -25.1854   19.9327 C   0  0  0  0  0  0
  -30.2191  -15.4664   21.4008 N   0  0  0  0  0  0
  -28.1726  -22.2706   17.5815 N   0  0  0  0  0  0
  -24.6422  -19.6846   20.4759 N   0  0  0  0  0  0
  -26.4789  -22.6349   16.0494 O   0  0  0  0  0  0
  -29.5216  -18.0779   22.4389 O   0  0  0  0  0  0
  -28.7716  -20.3864   16.4414 O   0  0  0  0  0  0
  -31.4814  -12.4400   19.1108 H   0  0  0  0  0  0
  -30.3771  -11.3239   19.8409 H   0  0  0  0  0  0
  -29.7688  -11.7939   17.4347 H   0  0  0  0  0  0
  -29.6769  -13.5027   17.7914 H   0  0  0  0  0  0
  -27.8679  -11.2895   18.8476 H   0  0  0  0  0  0
  -27.3919  -12.5913   17.7943 H   0  0  0  0  0  0
  -27.7043  -14.2408   19.5384 H   0  0  0  0  0  0
  -28.6947  -12.0353   21.4082 H   0  0  0  0  0  0
  -28.4659  -13.6908   21.8402 H   0  0  0  0  0  0
  -25.2804   -9.5696   22.4735 H   0  0  0  0  0  0
  -24.0024   -7.4659   22.7480 H   0  0  0  0  0  0
  -21.0847   -8.8821   19.8969 H   0  0  0  0  0  0
  -22.3741  -10.9690   19.6171 H   0  0  0  0  0  0
  -21.2013   -7.6164   23.9731 H   0  0  0  0  0  0
  -21.1440   -6.0526   25.9076 H   0  0  0  0  0  0
  -22.0616   -2.7630   23.2830 H   0  0  0  0  0  0
  -22.4138  -11.9901   22.4799 H   0  0  0  0  0  0
  -21.1226  -13.1320   22.2503 H   0  0  0  0  0  0
  -24.6473  -15.8186   20.4376 H   0  0  0  0  0  0
  -26.2502  -15.5980   19.9550 H   0  0  0  0  0  0
  -26.7213  -32.5643   23.1089 H   0  0  0  0  0  0
  -25.0085  -33.9802   25.0440 H   0  0  0  0  0  0
  -22.7263  -31.3368   21.4135 H   0  0  0  0  0  0
  -23.3759  -35.9591   23.3290 H   0  0  0  0  0  0
  -24.3626  -36.8835   22.2069 H   0  0  0  0  0  0
  -23.7276  -37.6474   23.6623 H   0  0  0  0  0  0
  -26.0902  -31.5864   20.5896 H   0  0  0  0  0  0
  -26.8461  -30.8748   21.9711 H   0  0  0  0  0  0
  -28.1370  -29.0787   21.0463 H   0  0  0  0  0  0
  -25.8573  -25.9283   19.1772 H   0  0  0  0  0  0
  -23.8710  -27.2757   19.2115 H   0  0  0  0  0  0
  -23.8457  -30.6647   19.4247 H   0  0  0  0  0  0
  -22.7362  -29.3695   19.7901 H   0  0  0  0  0  0
  -25.1287  -36.1917   25.0789 H   0  0  0  0  0  0
  -21.0182  -28.3513   24.1347 H   0  0  0  0  0  0
  -20.5906  -26.2372   23.3573 H   0  0  0  0  0  0
  -21.6738  -26.7669   22.1116 H   0  0  0  0  0  0
  -19.7122  -25.6503   21.1068 H   0  0  0  0  0  0
  -19.6767  -27.3511   20.6893 H   0  0  0  0  0  0
  -17.4262  -26.6585   21.4079 H   0  0  0  0  0  0
  -18.0517  -26.0177   22.9134 H   0  0  0  0  0  0
  -19.7944  -30.7253   24.2369 H   0  0  0  0  0  0
  -17.5054  -31.6305   24.5218 H   0  0  0  0  0  0
  -15.5408  -30.3133   23.7532 H   0  0  0  0  0  0
  -15.8661  -28.0990   22.6917 H   0  0  0  0  0  0
  -24.6068  -30.6846   25.7818 H   0  0  0  0  0  0
  -24.8963  -32.2728   26.4860 H   0  0  0  0  0  0
  -25.8281  -30.8866   27.0192 H   0  0  0  0  0  0
  -26.2799  -29.6744   24.1031 H   0  0  0  0  0  0
  -27.4130  -29.7218   25.4445 H   0  0  0  0  0  0
  -27.8687  -30.4231   23.9069 H   0  0  0  0  0  0
  -27.2726  -33.3454   26.2094 H   0  0  0  0  0  0
  -28.3969  -32.6721   25.0314 H   0  0  0  0  0  0
  -28.0714  -31.8217   26.5349 H   0  0  0  0  0  0
  -28.2564  -38.0088   24.7463 H   0  0  0  0  0  0
  -28.1089  -36.2614   24.6360 H   0  0  0  0  0  0
  -27.2254  -37.1448   25.8852 H   0  0  0  0  0  0
  -20.9335  -29.8704   21.6709 H   0  0  0  0  0  0
  -26.0180  -38.2792   24.1496 H   0  0  0  0  0  0
  -29.7185  -19.1664   19.0334 H   0  0  0  0  0  0
  -25.8324  -20.9078   18.5010 H   0  0  0  0  0  0
  -29.2841  -16.2211   19.7183 H   0  0  0  0  0  0
  -26.1402  -24.1641   18.2729 H   0  0  0  0  0  0
  -26.8999  -25.1486   16.9915 H   0  0  0  0  0  0
  -28.4709  -22.5973   19.6318 H   0  0  0  0  0  0
  -29.8996  -22.8959   18.6280 H   0  0  0  0  0  0
  -29.0123  -25.0477   17.9240 H   0  0  0  0  0  0
  -26.9944  -18.2870   23.0595 H   0  0  0  0  0  0
  -26.3539  -16.9612   22.0917 H   0  0  0  0  0  0
  -25.3619  -18.3531   22.4845 H   0  0  0  0  0  0
  -29.0770  -24.8255   20.5136 H   0  0  0  0  0  0
  -27.3876  -24.8188   20.5278 H   0  0  0  0  0  0
  -24.1994  -18.9633   21.0340 H   0  0  0  0  0  0
  -24.0170  -19.9659   19.7297 H   0  0  0  0  0  0
  1 25  1  0  0  0
  1 30  2  0  0  0
  1 86  1  0  0  0
  2  3  1  0  0  0
  2 25  1  0  0  0
  2 92  1  0  0  0
  2 93  1  0  0  0
  3  4  1  0  0  0
  3 94  1  0  0  0
  3 95  1  0  0  0
  4  5  1  0  0  0
  4 96  1  0  0  0
  4 97  1  0  0  0
  5  6  1  0  0  0
  5 26  1  0  0  0
  5 98  1  0  0  0
  6 25  1  0  0  0
  6 99  1  0  0  0
  6100  1  0  0  0
  7  8  2  0  0  0
  7 26  1  0  0  0
  7 29  1  0  0  0
  8  9  1  0  0  0
  8 22  1  0  0  0
  9 10  1  0  0  0
  9 27  2  0  0  0
 10 11  2  0  0  0
 10 15  1  0  0  0
 11 12  1  0  0  0
 11101  1  0  0  0
 12 13  2  0  0  0
 12102  1  0  0  0
 13 14  1  0  0  0
 13 31  1  0  0  0
 14 15  2  0  0  0
 14103  1  0  0  0
 15104  1  0  0  0
 16 17  2  0  0  0
 16 21  1  0  0  0
 16 31  1  0  0  0
 17 18  1  0  0  0
 17105  1  0  0  0
 18 19  2  0  0  0
 18106  1  0  0  0
 19 20  1  0  0  0
 19 24  1  0  0  0
 20 21  2  0  0  0
 20107  1  0  0  0
 21 23  1  0  0  0
 22 28  1  0  0  0
 22 32  2  0  0  0
 26 27  1  0  0  0
 28108  1  0  0  0
 28109  1  0  0  0
 29110  1  0  0  0
 29111  1  0  0  0
 33 34  1  0  0  0
 33 66  1  0  0  0
 33 70  2  0  0  0
 34 36  1  0  0  0
 34 59  1  0  0  0
 34112  1  0  0  0
 35 44  2  0  0  0
 35 45  1  0  0  0
 35 68  1  0  0  0
 36 56  1  0  0  0
 36113  1  0  0  0
 37 39  1  0  0  0
 37 47  1  0  0  0
 37 66  1  0  0  0
 37114  1  0  0  0
 38 43  2  0  0  0
 38 46  1  0  0  0
 38 47  1  0  0  0
 39 64  1  0  0  0
 39 67  2  0  0  0
 40 52  1  0  0  0
 40 53  2  0  0  0
 40 58  1  0  0  0
 41115  1  0  0  0
 41116  1  0  0  0
 41117  1  0  0  0
 41 48  1  0  0  0
 42 43  1  0  0  0
 42 66  1  0  0  0
 42118  1  0  0  0
 42119  1  0  0  0
 43 44  1  0  0  0
 44120  1  0  0  0
 45 46  2  0  0  0
 45121  1  0  0  0
 46122  1  0  0  0
 47123  1  0  0  0
 47124  1  0  0  0
 48 56  1  0  0  0
 48 65  1  0  0  0
 48125  1  0  0  0
 49 50  1  0  0  0
 49 53  1  0  0  0
 49 64  1  0  0  0
 49126  1  0  0  0
 50 51  1  0  0  0
 50127  1  0  0  0
 50128  1  0  0  0
 51 52  1  0  0  0
 51129  1  0  0  0
 51130  1  0  0  0
 52131  1  0  0  0
 52132  1  0  0  0
 53 54  1  0  0  0
 54 55  2  0  0  0
 54133  1  0  0  0
 55 57  1  0  0  0
 55134  1  0  0  0
 56 69  2  0  0  0
 57 58  2  0  0  0
 57135  1  0  0  0
 58136  1  0  0  0
 59 60  1  0  0  0
 59 61  1  0  0  0
 59 62  1  0  0  0
 60137  1  0  0  0
 60138  1  0  0  0
 60139  1  0  0  0
 61140  1  0  0  0
 61141  1  0  0  0
 61142  1  0  0  0
 62143  1  0  0  0
 62144  1  0  0  0
 62145  1  0  0  0
 63 65  1  0  0  0
 63146  1  0  0  0
 63147  1  0  0  0
 63148  1  0  0  0
 64149  1  0  0  0
 65150  1  0  0  0
 68 85  1  0  0  0
 71 73  2  0  0  0
 71 74  1  0  0  0
 71151  1  0  0  0
 72 73  1  0  0  0
 72 76  2  0  0  0
 72152  1  0  0  0
 73 80  1  0  0  0
 74 75  2  0  0  0
 74 79  1  0  0  0
 75 76  1  0  0  0
 75 84  1  0  0  0
 76 88  1  0  0  0
 77 81  1  0  0  0
 77 87  1  0  0  0
 77 89  2  0  0  0
 78 79  1  0  0  0
 78 86  2  0  0  0
 78153  1  0  0  0
 79 90  2  0  0  0
 80 87  1  0  0  0
 80 91  2  0  0  0
 81 83  1  0  0  0
 81154  1  0  0  0
 81155  1  0  0  0
 82 83  1  0  0  0
 82 87  1  0  0  0
 82156  1  0  0  0
 82157  1  0  0  0
 83 85  1  0  0  0
 83158  1  0  0  0
 84159  1  0  0  0
 84160  1  0  0  0
 84161  1  0  0  0
 85162  1  0  0  0
 85163  1  0  0  0
 88164  1  0  0  0
 88165  1  0  0  0
M  ISO  4   1 100  68 101  85 101  86 100
M  END
> <chiral flag>
0

> <version>
0

> <s_m_source_file>
/data/baiqing/PycharmProjects/Reinvent-master-3.2/result/LINK_invent/BTK/process_docking_weight1_custom_product_contain_oxygen_bond_distance_aromatic_linkinvent_7_9_3/rearranged_h_0096.sdf

> <i_m_source_file_index>
77

> <r_mmod_Potential_Energy-OPLS-2005>
60.489330291748

> <r_mmod_Stretch_Energy-OPLS-2005>
45.946720123291

> <r_mmod_Bend_Energy-OPLS-2005>
145.041809082031

> <r_mmod_Torsional_Energy-OPLS-2005>
332.375305175781

> <r_mmod_Improper_Torsional_Energy-OPLS-2005>
8.5466480255127

> <r_mmod_Van_der_Waal_Energy-OPLS-2005>
161.405792236328

> <r_mmod_Electrostatic_Energy-OPLS-2005>
-420.299285888672

> <r_mmod_Solvation_Energy-OPLS-2005>
-234.607437133789

> <b_mmod_Minimization_Converged-OPLS-2005>
0

> <r_mmod_RMS_Derivative-OPLS-2005>
13.010871887207

$$$$
77
                    3D
 Structure written by MMmdl.
154162  0  0  1  0            999 V2000
  -30.7858  -14.4751   20.5329 C   0  0  0  0  0  0
  -30.3726  -12.3012   19.4486 C   0  0  0  0  0  0
  -29.4862  -12.5369   18.2130 C   0  0  0  0  0  0
  -28.0044  -12.4156   18.6067 C   0  0  0  0  0  0
  -27.6493  -13.2482   19.8705 C   0  0  2  0  0  0
  -28.6982  -13.1061   21.0004 C   0  0  0  0  0  0
  -25.2482  -13.8242   20.5748 C   0  0  0  0  0  0
  -24.1792  -13.0451   20.9199 C   0  0  0  0  0  0
  -24.6410  -11.6936   20.8713 C   0  0  0  0  0  0
  -23.9093  -10.4292   21.0363 C   0  0  0  0  0  0
  -24.3617   -9.4215   21.9155 C   0  0  0  0  0  0
  -23.6304   -8.2252   22.0728 C   0  0  0  0  0  0
  -22.4285   -8.0287   21.3538 C   0  0  0  0  0  0
  -21.9929   -9.0248   20.4625 C   0  0  0  0  0  0
  -22.7253  -10.2123   20.3039 C   0  0  0  0  0  0
  -21.6886   -6.0742   22.5280 C   0  0  0  0  0  0
  -21.4027   -6.5644   23.8202 C   0  0  0  0  0  0
  -21.3656   -5.6798   24.9165 C   0  0  0  0  0  0
  -21.6046   -4.3064   24.7229 C   0  0  0  0  0  0
  -21.8806   -3.8155   23.4352 C   0  0  0  0  0  0
  -21.9188   -4.6971   22.3406 C   0  0  0  0  0  0
  -22.7790  -13.5179   21.1880 C   0  0  0  0  0  0
  -22.1660   -4.2147   21.0994 F   0  0  0  0  0  0
  -21.5618   -3.4555   25.7750 F   0  0  0  0  0  0
  -30.0276  -13.3464   20.4247 N   0  0  0  0  0  0
  -26.2980  -12.9512   20.3422 N   0  0  0  0  0  0
  -25.9348  -11.6623   20.5738 N   0  0  0  0  0  0
  -22.0474  -12.8146   22.0439 N   0  0  0  0  0  0
  -25.4077  -15.1976   20.4220 N   0  0  0  0  0  0
  -31.9367  -14.5035   20.0979 O   0  0  0  0  0  0
  -21.6659   -6.8881   21.4239 O   0  0  0  0  0  0
  -22.3445  -14.5497   20.6761 O   0  0  0  0  0  0
  -24.6128  -31.8647   23.2031 C   0  0  0  0  0  0
  -25.9011  -32.4782   23.8351 C   0  0  1  0  0  0
  -27.2526  -27.4412   20.0870 C   0  0  0  0  0  0
  -25.5861  -33.8601   24.2275 N   0  0  0  0  0  0
  -23.4017  -30.4896   21.5421 C   0  0  2  0  0  0
  -24.8518  -28.9390   20.1152 C   0  0  0  0  0  0
  -22.7389  -29.4674   22.4945 C   0  0  0  0  0  0
  -18.0276  -28.1365   22.8505 C   0  0  0  0  0  0
  -24.1488  -36.7365   23.2606 C   0  0  0  0  0  0
  -25.9232  -30.8342   21.3492 C   0  0  0  0  0  0
  -26.0071  -29.4589   20.7159 C   0  0  0  0  0  0
  -27.2017  -28.7084   20.7098 C   0  0  0  0  0  0
  -26.0882  -26.9434   19.4559 C   0  0  0  0  0  0
  -24.8865  -27.6812   19.4843 C   0  0  0  0  0  0
  -23.6106  -29.8053   20.1607 C   0  0  0  0  0  0
  -25.4099  -36.3088   24.0291 C   0  0  1  0  0  0
  -20.5869  -28.3664   23.1292 C   0  0  2  0  0  0
  -20.6791  -26.9395   22.5371 C   0  0  0  0  0  0
  -19.5749  -26.6408   21.5176 C   0  0  0  0  0  0
  -18.1936  -26.7940   22.1600 C   0  0  0  0  0  0
  -19.1522  -28.8835   23.2918 C   0  0  0  0  0  0
  -18.9455  -30.1448   23.8910 C   0  0  0  0  0  0
  -17.6450  -30.6569   24.0587 C   0  0  0  0  0  0
  -25.9031  -34.9465   23.5105 C   0  0  0  0  0  0
  -16.5356  -29.9072   23.6317 C   0  0  0  0  0  0
  -16.7291  -28.6502   23.0329 C   0  0  0  0  0  0
  -26.4490  -31.6524   25.0661 C   0  0  0  0  0  0
  -25.3790  -31.3600   26.1411 C   0  0  0  0  0  0
  -27.0300  -30.2991   24.5951 C   0  0  0  0  0  0
  -27.6073  -32.4237   25.7430 C   0  0  0  0  0  0
  -27.5582  -37.1789   24.8438 C   0  0  0  0  0  0
  -21.4116  -29.3049   22.3731 N   0  0  0  0  0  0
  -26.4279  -37.3762   23.9391 N   0  0  0  0  0  0
  -24.6641  -31.0770   22.0926 N   0  0  0  0  0  0
  -23.4179  -28.8202   23.2981 O   0  0  0  0  0  0
  -28.4564  -26.7681   20.1315 O   0  0  0  0  0  0
  -26.5565  -34.8901   22.4655 O   0  0  0  0  0  0
  -23.5323  -32.1419   23.7426 O   0  0  0  0  0  0
  -30.2217  -19.1936   21.7873 C   0  0  0  0  0  0
  -29.5308  -20.4135   21.6150 C   0  0  0  0  0  0
  -28.8448  -18.1649   20.0692 C   0  0  0  0  0  0
  -29.8877  -18.0534   21.0184 C   0  0  0  0  0  0
  -28.5133  -20.5395   20.6423 C   0  0  0  0  0  0
  -28.1669  -19.3933   19.8880 C   0  0  0  0  0  0
  -30.7533  -16.8162   21.0975 C   0  0  0  0  0  0
  -28.0059  -24.3011   20.4657 C   0  0  0  0  0  0
  -28.7237  -22.9488   20.2021 C   0  0  0  0  0  0
  -28.6260  -25.4407   19.6176 C   0  0  0  0  0  0
  -27.8652  -21.7698   20.3935 N   0  0  0  0  0  0
  -30.1614  -15.6071   20.9388 N   0  0  0  0  0  0
  -31.9594  -16.9825   21.3175 O   0  0  0  0  0  0
  -27.1936  -19.4878   18.9484 F   0  0  0  0  0  0
  -31.4285  -12.2914   19.1803 H   0  0  0  0  0  0
  -30.1676  -11.3177   19.8722 H   0  0  0  0  0  0
  -29.7279  -11.8266   17.4235 H   0  0  0  0  0  0
  -29.6759  -13.5274   17.7986 H   0  0  0  0  0  0
  -27.7892  -11.3592   18.7714 H   0  0  0  0  0  0
  -27.3708  -12.7249   17.7765 H   0  0  0  0  0  0
  -27.6653  -14.2922   19.5544 H   0  0  0  0  0  0
  -28.6603  -12.1102   21.4412 H   0  0  0  0  0  0
  -28.4825  -13.8067   21.8104 H   0  0  0  0  0  0
  -25.2757   -9.5715   22.4729 H   0  0  0  0  0  0
  -24.0023   -7.4652   22.7444 H   0  0  0  0  0  0
  -21.0867   -8.8744   19.8926 H   0  0  0  0  0  0
  -22.3689  -10.9648   19.6135 H   0  0  0  0  0  0
  -21.2031   -7.6146   23.9718 H   0  0  0  0  0  0
  -21.1492   -6.0531   25.9066 H   0  0  0  0  0  0
  -22.0586   -2.7618   23.2866 H   0  0  0  0  0  0
  -22.4175  -11.9803   22.4766 H   0  0  0  0  0  0
  -21.1053  -13.1037   22.2667 H   0  0  0  0  0  0
  -24.6228  -15.8305   20.5153 H   0  0  0  0  0  0
  -26.2541  -15.6594   20.1169 H   0  0  0  0  0  0
  -26.7060  -32.5550   23.1114 H   0  0  0  0  0  0
  -25.0042  -33.9814   25.0438 H   0  0  0  0  0  0
  -22.6959  -31.3088   21.3927 H   0  0  0  0  0  0
  -23.3720  -35.9737   23.3274 H   0  0  0  0  0  0
  -24.3584  -36.9006   22.2022 H   0  0  0  0  0  0
  -23.7301  -37.6567   23.6695 H   0  0  0  0  0  0
  -25.9954  -31.5793   20.5555 H   0  0  0  0  0  0
  -26.8232  -30.9313   21.9422 H   0  0  0  0  0  0
  -28.1011  -29.0910   21.1727 H   0  0  0  0  0  0
  -26.1039  -26.0028   18.9280 H   0  0  0  0  0  0
  -24.0019  -27.2902   19.0010 H   0  0  0  0  0  0
  -23.7123  -30.5687   19.3886 H   0  0  0  0  0  0
  -22.7380  -29.2150   19.8726 H   0  0  0  0  0  0
  -25.1256  -36.1946   25.0780 H   0  0  0  0  0  0
  -21.0006  -28.3271   24.1390 H   0  0  0  0  0  0
  -20.5631  -26.2308   23.3581 H   0  0  0  0  0  0
  -21.6693  -26.7424   22.1178 H   0  0  0  0  0  0
  -19.6914  -25.6307   21.1218 H   0  0  0  0  0  0
  -19.6687  -27.3250   20.6734 H   0  0  0  0  0  0
  -17.4193  -26.6678   21.4005 H   0  0  0  0  0  0
  -18.0342  -26.0025   22.8955 H   0  0  0  0  0  0
  -19.7920  -30.7284   24.2262 H   0  0  0  0  0  0
  -17.4991  -31.6229   24.5201 H   0  0  0  0  0  0
  -15.5327  -30.2973   23.7630 H   0  0  0  0  0  0
  -15.8700  -28.0849   22.6962 H   0  0  0  0  0  0
  -24.6012  -30.6867   25.7822 H   0  0  0  0  0  0
  -24.8910  -32.2709   26.4852 H   0  0  0  0  0  0
  -25.8134  -30.8825   27.0198 H   0  0  0  0  0  0
  -26.2795  -29.6733   24.1088 H   0  0  0  0  0  0
  -27.4187  -29.7193   25.4321 H   0  0  0  0  0  0
  -27.8590  -30.4267   23.8988 H   0  0  0  0  0  0
  -27.2695  -33.3538   26.2011 H   0  0  0  0  0  0
  -28.3924  -32.6743   25.0308 H   0  0  0  0  0  0
  -28.0716  -31.8344   26.5333 H   0  0  0  0  0  0
  -28.2505  -38.0152   24.7528 H   0  0  0  0  0  0
  -28.1106  -36.2657   24.6209 H   0  0  0  0  0  0
  -27.2296  -37.1462   25.8823 H   0  0  0  0  0  0
  -20.9260  -29.8822   21.7001 H   0  0  0  0  0  0
  -26.0159  -38.2836   24.1429 H   0  0  0  0  0  0
  -31.0429  -19.1543   22.4937 H   0  0  0  0  0  0
  -29.8089  -21.2570   22.2275 H   0  0  0  0  0  0
  -28.6014  -17.3304   19.4279 H   0  0  0  0  0  0
  -28.0961  -24.5459   21.5265 H   0  0  0  0  0  0
  -26.9355  -24.2390   20.2683 H   0  0  0  0  0  0
  -29.6174  -22.9132   20.8298 H   0  0  0  0  0  0
  -29.0927  -22.9219   19.1725 H   0  0  0  0  0  0
  -28.3362  -25.3686   18.5673 H   0  0  0  0  0  0
  -29.7081  -25.2952   19.6258 H   0  0  0  0  0  0
  -27.1693  -21.6624   19.6550 H   0  0  0  0  0  0
  -29.1645  -15.5645   21.0383 H   0  0  0  0  0  0
  1 25  1  0  0  0
  1 30  2  0  0  0
  1 82  1  0  0  0
  2  3  1  0  0  0
  2 25  1  0  0  0
  2 85  1  0  0  0
  2 86  1  0  0  0
  3  4  1  0  0  0
  3 87  1  0  0  0
  3 88  1  0  0  0
  4  5  1  0  0  0
  4 89  1  0  0  0
  4 90  1  0  0  0
  5  6  1  0  0  0
  5 26  1  0  0  0
  5 91  1  0  0  0
  6 25  1  0  0  0
  6 92  1  0  0  0
  6 93  1  0  0  0
  7  8  2  0  0  0
  7 26  1  0  0  0
  7 29  1  0  0  0
  8  9  1  0  0  0
  8 22  1  0  0  0
  9 10  1  0  0  0
  9 27  2  0  0  0
 10 11  2  0  0  0
 10 15  1  0  0  0
 11 12  1  0  0  0
 11 94  1  0  0  0
 12 13  2  0  0  0
 12 95  1  0  0  0
 13 14  1  0  0  0
 13 31  1  0  0  0
 14 15  2  0  0  0
 14 96  1  0  0  0
 15 97  1  0  0  0
 16 17  2  0  0  0
 16 21  1  0  0  0
 16 31  1  0  0  0
 17 18  1  0  0  0
 17 98  1  0  0  0
 18 19  2  0  0  0
 18 99  1  0  0  0
 19 20  1  0  0  0
 19 24  1  0  0  0
 20 21  2  0  0  0
 20100  1  0  0  0
 21 23  1  0  0  0
 22 28  1  0  0  0
 22 32  2  0  0  0
 26 27  1  0  0  0
 28101  1  0  0  0
 28102  1  0  0  0
 29103  1  0  0  0
 29104  1  0  0  0
 33 34  1  0  0  0
 33 66  1  0  0  0
 33 70  2  0  0  0
 34 36  1  0  0  0
 34 59  1  0  0  0
 34105  1  0  0  0
 35 44  2  0  0  0
 35 45  1  0  0  0
 35 68  1  0  0  0
 36 56  1  0  0  0
 36106  1  0  0  0
 37 39  1  0  0  0
 37 47  1  0  0  0
 37 66  1  0  0  0
 37107  1  0  0  0
 38 43  2  0  0  0
 38 46  1  0  0  0
 38 47  1  0  0  0
 39 64  1  0  0  0
 39 67  2  0  0  0
 40 52  1  0  0  0
 40 53  2  0  0  0
 40 58  1  0  0  0
 41108  1  0  0  0
 41109  1  0  0  0
 41110  1  0  0  0
 41 48  1  0  0  0
 42 43  1  0  0  0
 42 66  1  0  0  0
 42111  1  0  0  0
 42112  1  0  0  0
 43 44  1  0  0  0
 44113  1  0  0  0
 45 46  2  0  0  0
 45114  1  0  0  0
 46115  1  0  0  0
 47116  1  0  0  0
 47117  1  0  0  0
 48 56  1  0  0  0
 48 65  1  0  0  0
 48118  1  0  0  0
 49 50  1  0  0  0
 49 53  1  0  0  0
 49 64  1  0  0  0
 49119  1  0  0  0
 50 51  1  0  0  0
 50120  1  0  0  0
 50121  1  0  0  0
 51 52  1  0  0  0
 51122  1  0  0  0
 51123  1  0  0  0
 52124  1  0  0  0
 52125  1  0  0  0
 53 54  1  0  0  0
 54 55  2  0  0  0
 54126  1  0  0  0
 55 57  1  0  0  0
 55127  1  0  0  0
 56 69  2  0  0  0
 57 58  2  0  0  0
 57128  1  0  0  0
 58129  1  0  0  0
 59 60  1  0  0  0
 59 61  1  0  0  0
 59 62  1  0  0  0
 60130  1  0  0  0
 60131  1  0  0  0
 60132  1  0  0  0
 61133  1  0  0  0
 61134  1  0  0  0
 61135  1  0  0  0
 62136  1  0  0  0
 62137  1  0  0  0
 62138  1  0  0  0
 63 65  1  0  0  0
 63139  1  0  0  0
 63140  1  0  0  0
 63141  1  0  0  0
 64142  1  0  0  0
 65143  1  0  0  0
 68 80  1  0  0  0
 71 72  2  0  0  0
 71 74  1  0  0  0
 71144  1  0  0  0
 72 75  1  0  0  0
 72145  1  0  0  0
 73 74  2  0  0  0
 73 76  1  0  0  0
 73146  1  0  0  0
 74 77  1  0  0  0
 75 76  2  0  0  0
 75 81  1  0  0  0
 76 84  1  0  0  0
 77 82  1  0  0  0
 77 83  2  0  0  0
 78 79  1  0  0  0
 78 80  1  0  0  0
 78147  1  0  0  0
 78148  1  0  0  0
 79 81  1  0  0  0
 79149  1  0  0  0
 79150  1  0  0  0
 80151  1  0  0  0
 80152  1  0  0  0
 81153  1  0  0  0
 82154  1  0  0  0
M  ISO  4   1 100  68 101  80 101  82 100
M  END
> <chiral flag>
0

> <version>
0

> <s_m_source_file>
/data/baiqing/PycharmProjects/Reinvent-master-3.2/result/LINK_invent/BTK/process_docking_weight1_custom_product_contain_oxygen_bond_distance_aromatic_linkinvent_7_9_3/rearranged_h_0096.sdf

> <i_m_source_file_index>
78

> <r_mmod_Potential_Energy-OPLS-2005>
-84.4992752075195

> <r_mmod_Stretch_Energy-OPLS-2005>
38.7238655090332

> <r_mmod_Bend_Energy-OPLS-2005>
115.969734191895

> <r_mmod_Torsional_Energy-OPLS-2005>
224.540008544922

> <r_mmod_Improper_Torsional_Energy-OPLS-2005>
10.1482696533203

> <r_mmod_Van_der_Waal_Energy-OPLS-2005>
160.57421875

> <r_mmod_Electrostatic_Energy-OPLS-2005>
-428.435363769531

> <r_mmod_Solvation_Energy-OPLS-2005>
-229.084045410156

> <b_mmod_Minimization_Converged-OPLS-2005>
0

> <r_mmod_RMS_Derivative-OPLS-2005>
7.34371566772461

$$$$
78
                    3D
 Structure written by MMmdl.
160169  0  0  1  0            999 V2000
  -30.6242  -14.6317   20.4617 C   0  0  0  0  0  0
  -30.4374  -12.3788   19.4392 C   0  0  0  0  0  0
  -29.5018  -12.4924   18.2151 C   0  0  0  0  0  0
  -28.0256  -12.3361   18.6341 C   0  0  0  0  0  0
  -27.6505  -13.2135   19.8591 C   0  0  2  0  0  0
  -28.7031  -13.0755   20.9827 C   0  0  0  0  0  0
  -25.2546  -13.8143   20.5731 C   0  0  0  0  0  0
  -24.1799  -13.0402   20.9163 C   0  0  0  0  0  0
  -24.6382  -11.6883   20.8718 C   0  0  0  0  0  0
  -23.9055  -10.4277   21.0384 C   0  0  0  0  0  0
  -24.3611   -9.4203   21.9171 C   0  0  0  0  0  0
  -23.6287   -8.2238   22.0750 C   0  0  0  0  0  0
  -22.4272   -8.0271   21.3535 C   0  0  0  0  0  0
  -21.9901   -9.0238   20.4633 C   0  0  0  0  0  0
  -22.7225  -10.2118   20.3035 C   0  0  0  0  0  0
  -21.6850   -6.0734   22.5281 C   0  0  0  0  0  0
  -21.4009   -6.5640   23.8213 C   0  0  0  0  0  0
  -21.3659   -5.6794   24.9176 C   0  0  0  0  0  0
  -21.6047   -4.3056   24.7225 C   0  0  0  0  0  0
  -21.8817   -3.8145   23.4346 C   0  0  0  0  0  0
  -21.9191   -4.6963   22.3404 C   0  0  0  0  0  0
  -22.7831  -13.5210   21.1854 C   0  0  0  0  0  0
  -22.1660   -4.2152   21.0978 F   0  0  0  0  0  0
  -21.5636   -3.4539   25.7737 F   0  0  0  0  0  0
  -30.0151  -13.4073   20.4068 N   0  0  0  0  0  0
  -26.2990  -12.9335   20.3352 N   0  0  0  0  0  0
  -25.9318  -11.6488   20.5756 N   0  0  0  0  0  0
  -22.0481  -12.8196   22.0402 N   0  0  0  0  0  0
  -25.4134  -15.1891   20.4349 N   0  0  0  0  0  0
  -31.8101  -14.7795   20.1548 O   0  0  0  0  0  0
  -21.6631   -6.8870   21.4239 O   0  0  0  0  0  0
  -22.3522  -14.5543   20.6742 O   0  0  0  0  0  0
  -24.6244  -31.8610   23.2041 C   0  0  0  0  0  0
  -25.9097  -32.4794   23.8360 C   0  0  1  0  0  0
  -27.2270  -27.3350   20.1105 C   0  0  0  0  0  0
  -25.5926  -33.8594   24.2296 N   0  0  0  0  0  0
  -23.4178  -30.4881   21.5427 C   0  0  2  0  0  0
  -24.8649  -28.9460   20.1094 C   0  0  0  0  0  0
  -22.7458  -29.4654   22.4891 C   0  0  0  0  0  0
  -18.0279  -28.1417   22.8483 C   0  0  0  0  0  0
  -24.1492  -36.7279   23.2640 C   0  0  0  0  0  0
  -25.9582  -30.7991   21.3709 C   0  0  0  0  0  0
  -26.0330  -29.4278   20.7125 C   0  0  0  0  0  0
  -27.2176  -28.6344   20.7025 C   0  0  0  0  0  0
  -26.0329  -26.9029   19.4873 C   0  0  0  0  0  0
  -24.8659  -27.6880   19.4890 C   0  0  0  0  0  0
  -23.6331  -29.8254   20.1575 C   0  0  0  0  0  0
  -25.4113  -36.3089   24.0343 C   0  0  1  0  0  0
  -20.5884  -28.3716   23.1265 C   0  0  2  0  0  0
  -20.6779  -26.9439   22.5392 C   0  0  0  0  0  0
  -19.5754  -26.6394   21.5207 C   0  0  0  0  0  0
  -18.1929  -26.7963   22.1615 C   0  0  0  0  0  0
  -19.1536  -28.8869   23.2890 C   0  0  0  0  0  0
  -18.9476  -30.1470   23.8919 C   0  0  0  0  0  0
  -17.6484  -30.6621   24.0568 C   0  0  0  0  0  0
  -25.9040  -34.9463   23.5116 C   0  0  0  0  0  0
  -16.5364  -29.9129   23.6343 C   0  0  0  0  0  0
  -16.7268  -28.6545   23.0355 C   0  0  0  0  0  0
  -26.4479  -31.6599   25.0722 C   0  0  0  0  0  0
  -25.3713  -31.3744   26.1445 C   0  0  0  0  0  0
  -27.0319  -30.3035   24.6155 C   0  0  0  0  0  0
  -27.6061  -32.4304   25.7483 C   0  0  0  0  0  0
  -27.5588  -37.1788   24.8470 C   0  0  0  0  0  0
  -21.4168  -29.3090   22.3662 N   0  0  0  0  0  0
  -26.4288  -37.3790   23.9431 N   0  0  0  0  0  0
  -24.6854  -31.0647   22.0968 N   0  0  0  0  0  0
  -23.4196  -28.8167   23.2940 O   0  0  0  0  0  0
  -28.3525  -26.4982   20.1581 O   0  0  0  0  0  0
  -26.5597  -34.8935   22.4670 O   0  0  0  0  0  0
  -23.5415  -32.1368   23.7397 O   0  0  0  0  0  0
  -31.1621  -19.2556   20.9027 C   0  0  0  0  0  0
  -31.1414  -17.8333   20.8264 C   0  0  0  0  0  0
  -28.8067  -19.3564   20.4260 C   0  0  0  0  0  0
  -29.9890  -20.0655   20.7693 C   0  0  0  0  0  0
  -29.9382  -17.1346   20.5729 C   0  0  0  0  0  0
  -28.7870  -17.9315   20.3245 C   0  0  0  0  0  0
  -30.7303  -21.9993   22.0810 C   0  0  0  0  0  0
  -30.9907  -23.5036   22.2228 C   0  0  0  0  0  0
  -29.7668  -24.3551   21.8909 C   0  0  0  0  0  0
  -29.0465  -22.4836   20.3405 C   0  0  0  0  0  0
  -29.3134  -24.0590   20.4652 C   0  0  1  0  0  0
  -28.1359  -25.0396   20.0503 C   0  0  0  0  0  0
  -30.0063  -21.5264   21.0220 N   0  0  0  0  0  0
  -27.6061  -17.2869   19.9548 N   0  0  0  0  0  0
  -29.7741  -15.6877   20.6229 N   0  0  0  0  0  0
  -31.2132  -21.2741   22.9580 O   0  0  0  0  0  0
  -31.4785  -12.5032   19.1349 H   0  0  0  0  0  0
  -30.3699  -11.3856   19.8862 H   0  0  0  0  0  0
  -29.7599  -11.7348   17.4740 H   0  0  0  0  0  0
  -29.6456  -13.4581   17.7267 H   0  0  0  0  0  0
  -27.8640  -11.2842   18.8724 H   0  0  0  0  0  0
  -27.3672  -12.5593   17.7935 H   0  0  0  0  0  0
  -27.6591  -14.2445   19.5082 H   0  0  0  0  0  0
  -28.7119  -12.0591   21.3792 H   0  0  0  0  0  0
  -28.4610  -13.7233   21.8267 H   0  0  0  0  0  0
  -25.2761   -9.5694   22.4735 H   0  0  0  0  0  0
  -24.0004   -7.4635   22.7470 H   0  0  0  0  0  0
  -21.0836   -8.8743   19.8936 H   0  0  0  0  0  0
  -22.3681  -10.9650   19.6138 H   0  0  0  0  0  0
  -21.1987   -7.6147   23.9718 H   0  0  0  0  0  0
  -21.1487   -6.0523   25.9080 H   0  0  0  0  0  0
  -22.0593   -2.7610   23.2841 H   0  0  0  0  0  0
  -22.4090  -11.9832   22.4750 H   0  0  0  0  0  0
  -21.1109  -13.1226   22.2638 H   0  0  0  0  0  0
  -24.6357  -15.8183   20.5946 H   0  0  0  0  0  0
  -26.2869  -15.6951   20.3056 H   0  0  0  0  0  0
  -26.7165  -32.5466   23.1114 H   0  0  0  0  0  0
  -25.0130  -33.9744   25.0481 H   0  0  0  0  0  0
  -22.7131  -31.3101   21.4008 H   0  0  0  0  0  0
  -23.3784  -35.9581   23.3273 H   0  0  0  0  0  0
  -24.3593  -36.8908   22.2059 H   0  0  0  0  0  0
  -23.7207  -37.6464   23.6655 H   0  0  0  0  0  0
  -26.0843  -31.5649   20.6039 H   0  0  0  0  0  0
  -26.8401  -30.8475   21.9973 H   0  0  0  0  0  0
  -28.1135  -29.0021   21.1827 H   0  0  0  0  0  0
  -25.9722  -25.9425   18.9967 H   0  0  0  0  0  0
  -23.9707  -27.3126   19.0131 H   0  0  0  0  0  0
  -23.7556  -30.6037   19.4036 H   0  0  0  0  0  0
  -22.7542  -29.2552   19.8503 H   0  0  0  0  0  0
  -25.1296  -36.1940   25.0839 H   0  0  0  0  0  0
  -20.9984  -28.3298   24.1381 H   0  0  0  0  0  0
  -20.5672  -26.2338   23.3597 H   0  0  0  0  0  0
  -21.6647  -26.7466   22.1184 H   0  0  0  0  0  0
  -19.6920  -25.6294   21.1260 H   0  0  0  0  0  0
  -19.6714  -27.3178   20.6724 H   0  0  0  0  0  0
  -17.4198  -26.6704   21.4021 H   0  0  0  0  0  0
  -18.0335  -26.0115   22.9020 H   0  0  0  0  0  0
  -19.7959  -30.7270   24.2304 H   0  0  0  0  0  0
  -17.5054  -31.6312   24.5154 H   0  0  0  0  0  0
  -15.5375  -30.3058   23.7670 H   0  0  0  0  0  0
  -15.8656  -28.0877   22.7073 H   0  0  0  0  0  0
  -24.5942  -30.7024   25.7777 H   0  0  0  0  0  0
  -24.8836  -32.2905   26.4785 H   0  0  0  0  0  0
  -25.8032  -30.9001   27.0267 H   0  0  0  0  0  0
  -26.2886  -29.6787   24.1186 H   0  0  0  0  0  0
  -27.4049  -29.7287   25.4643 H   0  0  0  0  0  0
  -27.8737  -30.4348   23.9355 H   0  0  0  0  0  0
  -27.2726  -33.3662   26.1975 H   0  0  0  0  0  0
  -28.3914  -32.6735   25.0312 H   0  0  0  0  0  0
  -28.0656  -31.8450   26.5456 H   0  0  0  0  0  0
  -28.2573  -38.0119   24.7556 H   0  0  0  0  0  0
  -28.1114  -36.2647   24.6235 H   0  0  0  0  0  0
  -27.2310  -37.1351   25.8873 H   0  0  0  0  0  0
  -20.9318  -29.8865   21.6933 H   0  0  0  0  0  0
  -26.0174  -38.2859   24.1467 H   0  0  0  0  0  0
  -32.1117  -19.7233   21.1245 H   0  0  0  0  0  0
  -32.0569  -17.2873   21.0017 H   0  0  0  0  0  0
  -27.8907  -19.9082   20.2718 H   0  0  0  0  0  0
  -31.8207  -23.7654   21.5665 H   0  0  0  0  0  0
  -31.3236  -23.7198   23.2387 H   0  0  0  0  0  0
  -30.0146  -25.4119   21.9993 H   0  0  0  0  0  0
  -28.9592  -24.1491   22.5953 H   0  0  0  0  0  0
  -28.9899  -22.2199   19.2838 H   0  0  0  0  0  0
  -28.0575  -22.2762   20.7513 H   0  0  0  0  0  0
  -30.1491  -24.2923   19.8030 H   0  0  0  0  0  0
  -27.2679  -24.7779   20.6585 H   0  0  0  0  0  0
  -27.8717  -24.8096   19.0172 H   0  0  0  0  0  0
  -26.8693  -17.9175   19.6565 H   0  0  0  0  0  0
  -27.7557  -16.5917   19.2325 H   0  0  0  0  0  0
  -28.8076  -15.4176   20.7168 H   0  0  0  0  0  0
  1 25  1  0  0  0
  1 30  2  0  0  0
  1 85  1  0  0  0
  2  3  1  0  0  0
  2 25  1  0  0  0
  2 87  1  0  0  0
  2 88  1  0  0  0
  3  4  1  0  0  0
  3 89  1  0  0  0
  3 90  1  0  0  0
  4  5  1  0  0  0
  4 91  1  0  0  0
  4 92  1  0  0  0
  5  6  1  0  0  0
  5 26  1  0  0  0
  5 93  1  0  0  0
  6 25  1  0  0  0
  6 94  1  0  0  0
  6 95  1  0  0  0
  7  8  2  0  0  0
  7 26  1  0  0  0
  7 29  1  0  0  0
  8  9  1  0  0  0
  8 22  1  0  0  0
  9 10  1  0  0  0
  9 27  2  0  0  0
 10 11  2  0  0  0
 10 15  1  0  0  0
 11 12  1  0  0  0
 11 96  1  0  0  0
 12 13  2  0  0  0
 12 97  1  0  0  0
 13 14  1  0  0  0
 13 31  1  0  0  0
 14 15  2  0  0  0
 14 98  1  0  0  0
 15 99  1  0  0  0
 16 17  2  0  0  0
 16 21  1  0  0  0
 16 31  1  0  0  0
 17 18  1  0  0  0
 17100  1  0  0  0
 18 19  2  0  0  0
 18101  1  0  0  0
 19 20  1  0  0  0
 19 24  1  0  0  0
 20 21  2  0  0  0
 20102  1  0  0  0
 21 23  1  0  0  0
 22 28  1  0  0  0
 22 32  2  0  0  0
 26 27  1  0  0  0
 28103  1  0  0  0
 28104  1  0  0  0
 29105  1  0  0  0
 29106  1  0  0  0
 33 34  1  0  0  0
 33 66  1  0  0  0
 33 70  2  0  0  0
 34 36  1  0  0  0
 34 59  1  0  0  0
 34107  1  0  0  0
 35 44  2  0  0  0
 35 45  1  0  0  0
 35 68  1  0  0  0
 36 56  1  0  0  0
 36108  1  0  0  0
 37 39  1  0  0  0
 37 47  1  0  0  0
 37 66  1  0  0  0
 37109  1  0  0  0
 38 43  2  0  0  0
 38 46  1  0  0  0
 38 47  1  0  0  0
 39 64  1  0  0  0
 39 67  2  0  0  0
 40 52  1  0  0  0
 40 53  2  0  0  0
 40 58  1  0  0  0
 41110  1  0  0  0
 41111  1  0  0  0
 41112  1  0  0  0
 41 48  1  0  0  0
 42 43  1  0  0  0
 42 66  1  0  0  0
 42113  1  0  0  0
 42114  1  0  0  0
 43 44  1  0  0  0
 44115  1  0  0  0
 45 46  2  0  0  0
 45116  1  0  0  0
 46117  1  0  0  0
 47118  1  0  0  0
 47119  1  0  0  0
 48 56  1  0  0  0
 48 65  1  0  0  0
 48120  1  0  0  0
 49 50  1  0  0  0
 49 53  1  0  0  0
 49 64  1  0  0  0
 49121  1  0  0  0
 50 51  1  0  0  0
 50122  1  0  0  0
 50123  1  0  0  0
 51 52  1  0  0  0
 51124  1  0  0  0
 51125  1  0  0  0
 52126  1  0  0  0
 52127  1  0  0  0
 53 54  1  0  0  0
 54 55  2  0  0  0
 54128  1  0  0  0
 55 57  1  0  0  0
 55129  1  0  0  0
 56 69  2  0  0  0
 57 58  2  0  0  0
 57130  1  0  0  0
 58131  1  0  0  0
 59 60  1  0  0  0
 59 61  1  0  0  0
 59 62  1  0  0  0
 60132  1  0  0  0
 60133  1  0  0  0
 60134  1  0  0  0
 61135  1  0  0  0
 61136  1  0  0  0
 61137  1  0  0  0
 62138  1  0  0  0
 62139  1  0  0  0
 62140  1  0  0  0
 63 65  1  0  0  0
 63141  1  0  0  0
 63142  1  0  0  0
 63143  1  0  0  0
 64144  1  0  0  0
 65145  1  0  0  0
 68 82  1  0  0  0
 71 72  2  0  0  0
 71 74  1  0  0  0
 71146  1  0  0  0
 72 75  1  0  0  0
 72147  1  0  0  0
 73 74  2  0  0  0
 73 76  1  0  0  0
 73148  1  0  0  0
 74 83  1  0  0  0
 75 76  2  0  0  0
 75 85  1  0  0  0
 76 84  1  0  0  0
 77 78  1  0  0  0
 77 83  1  0  0  0
 77 86  2  0  0  0
 78 79  1  0  0  0
 78149  1  0  0  0
 78150  1  0  0  0
 79 81  1  0  0  0
 79151  1  0  0  0
 79152  1  0  0  0
 80 81  1  0  0  0
 80 83  1  0  0  0
 80153  1  0  0  0
 80154  1  0  0  0
 81 82  1  0  0  0
 81155  1  0  0  0
 82156  1  0  0  0
 82157  1  0  0  0
 84158  1  0  0  0
 84159  1  0  0  0
 85160  1  0  0  0
M  ISO  4   1 100  68 101  82 101  85 100
M  END
> <chiral flag>
0

> <version>
0

> <s_m_source_file>
/data/baiqing/PycharmProjects/Reinvent-master-3.2/result/LINK_invent/BTK/process_docking_weight1_custom_product_contain_oxygen_bond_distance_aromatic_linkinvent_7_9_3/rearranged_h_0096.sdf

> <i_m_source_file_index>
79

> <r_mmod_Potential_Energy-OPLS-2005>
40.9131889343262

> <r_mmod_Stretch_Energy-OPLS-2005>
84.1154174804688

> <r_mmod_Bend_Energy-OPLS-2005>
136.44172668457

> <r_mmod_Torsional_Energy-OPLS-2005>
286.580596923828

> <r_mmod_Improper_Torsional_Energy-OPLS-2005>
12.3378562927246

> <r_mmod_Van_der_Waal_Energy-OPLS-2005>
164.841171264648

> <r_mmod_Electrostatic_Energy-OPLS-2005>
-467.493072509766

> <r_mmod_Solvation_Energy-OPLS-2005>
-222.039672851562

> <b_mmod_Minimization_Converged-OPLS-2005>
0

> <r_mmod_RMS_Derivative-OPLS-2005>
1.71051549911499

$$$$
79
                    3D
 Structure written by MMmdl.
154162  0  0  1  0            999 V2000
  -30.6736  -14.6031   20.5885 C   0  0  0  0  0  0
  -30.4358  -12.3939   19.4560 C   0  0  0  0  0  0
  -29.5117  -12.5372   18.2261 C   0  0  0  0  0  0
  -28.0321  -12.3657   18.6239 C   0  0  0  0  0  0
  -27.6580  -13.2134   19.8673 C   0  0  2  0  0  0
  -28.6930  -13.0152   20.9928 C   0  0  0  0  0  0
  -25.2581  -13.8164   20.5663 C   0  0  0  0  0  0
  -24.1840  -13.0433   20.9170 C   0  0  0  0  0  0
  -24.6405  -11.6903   20.8717 C   0  0  0  0  0  0
  -23.9073  -10.4289   21.0392 C   0  0  0  0  0  0
  -24.3625   -9.4209   21.9175 C   0  0  0  0  0  0
  -23.6297   -8.2246   22.0749 C   0  0  0  0  0  0
  -22.4277   -8.0284   21.3542 C   0  0  0  0  0  0
  -21.9913   -9.0257   20.4644 C   0  0  0  0  0  0
  -22.7243  -10.2133   20.3047 C   0  0  0  0  0  0
  -21.6857   -6.0740   22.5282 C   0  0  0  0  0  0
  -21.4017   -6.5643   23.8217 C   0  0  0  0  0  0
  -21.3658   -5.6794   24.9176 C   0  0  0  0  0  0
  -21.6043   -4.3057   24.7226 C   0  0  0  0  0  0
  -21.8820   -3.8150   23.4346 C   0  0  0  0  0  0
  -21.9194   -4.6967   22.3404 C   0  0  0  0  0  0
  -22.7864  -13.5232   21.1842 C   0  0  0  0  0  0
  -22.1660   -4.2155   21.0981 F   0  0  0  0  0  0
  -21.5627   -3.4539   25.7738 F   0  0  0  0  0  0
  -30.0207  -13.3927   20.4688 N   0  0  0  0  0  0
  -26.3006  -12.9337   20.3289 N   0  0  0  0  0  0
  -25.9330  -11.6493   20.5709 N   0  0  0  0  0  0
  -22.0503  -12.8226   22.0403 N   0  0  0  0  0  0
  -25.4301  -15.1887   20.4098 N   0  0  0  0  0  0
  -31.7559  -14.7941   20.0221 O   0  0  0  0  0  0
  -21.6640   -6.8882   21.4243 O   0  0  0  0  0  0
  -22.3544  -14.5534   20.6691 O   0  0  0  0  0  0
  -24.6249  -31.8611   23.2036 C   0  0  0  0  0  0
  -25.9103  -32.4787   23.8364 C   0  0  1  0  0  0
  -27.2316  -27.3415   20.1152 C   0  0  0  0  0  0
  -25.5924  -33.8586   24.2290 N   0  0  0  0  0  0
  -23.4183  -30.4840   21.5454 C   0  0  2  0  0  0
  -24.8670  -28.9412   20.1125 C   0  0  0  0  0  0
  -22.7472  -29.4629   22.4943 C   0  0  0  0  0  0
  -18.0289  -28.1384   22.8482 C   0  0  0  0  0  0
  -24.1491  -36.7301   23.2635 C   0  0  0  0  0  0
  -25.9576  -30.7987   21.3721 C   0  0  0  0  0  0
  -26.0342  -29.4275   20.7155 C   0  0  0  0  0  0
  -27.2217  -28.6397   20.7054 C   0  0  0  0  0  0
  -26.0465  -26.9078   19.4798 C   0  0  0  0  0  0
  -24.8739  -27.6859   19.4853 C   0  0  0  0  0  0
  -23.6326  -29.8171   20.1614 C   0  0  0  0  0  0
  -25.4113  -36.3089   24.0328 C   0  0  1  0  0  0
  -20.5886  -28.3686   23.1282 C   0  0  2  0  0  0
  -20.6778  -26.9411   22.5404 C   0  0  0  0  0  0
  -19.5754  -26.6385   21.5206 C   0  0  0  0  0  0
  -18.1933  -26.7928   22.1619 C   0  0  0  0  0  0
  -19.1540  -28.8853   23.2879 C   0  0  0  0  0  0
  -18.9462  -30.1455   23.8893 C   0  0  0  0  0  0
  -17.6460  -30.6583   24.0564 C   0  0  0  0  0  0
  -25.9048  -34.9456   23.5109 C   0  0  0  0  0  0
  -16.5352  -29.9079   23.6330 C   0  0  0  0  0  0
  -16.7276  -28.6500   23.0347 C   0  0  0  0  0  0
  -26.4493  -31.6590   25.0726 C   0  0  0  0  0  0
  -25.3734  -31.3716   26.1457 C   0  0  0  0  0  0
  -27.0331  -30.3017   24.6165 C   0  0  0  0  0  0
  -27.6059  -32.4316   25.7494 C   0  0  0  0  0  0
  -27.5583  -37.1802   24.8461 C   0  0  0  0  0  0
  -21.4188  -29.3045   22.3683 N   0  0  0  0  0  0
  -26.4294  -37.3781   23.9407 N   0  0  0  0  0  0
  -24.6854  -31.0641   22.0977 N   0  0  0  0  0  0
  -23.4201  -28.8170   23.3021 O   0  0  0  0  0  0
  -28.3556  -26.5072   20.1334 O   0  0  0  0  0  0
  -26.5613  -34.8921   22.4674 O   0  0  0  0  0  0
  -23.5416  -32.1397   23.7376 O   0  0  0  0  0  0
  -30.9148  -17.8914   20.2169 C   0  0  0  0  0  0
  -30.8063  -19.2872   19.9389 C   0  0  0  0  0  0
  -28.8542  -18.0112   21.4259 C   0  0  0  0  0  0
  -29.9459  -17.2022   20.9917 C   0  0  0  0  0  0
  -28.7334  -19.4053   21.1466 C   0  0  0  0  0  0
  -29.7366  -20.1000   20.4040 C   0  0  0  0  0  0
  -30.0538  -15.7429   21.4798 C   0  0  0  0  0  0
  -29.1806  -23.9944   20.1080 C   0  0  0  0  0  0
  -28.1492  -25.1086   20.5628 C   0  0  0  0  0  0
  -28.8626  -22.5009   20.5558 C   0  0  0  0  0  0
  -29.6596  -15.4923   22.6603 N   0  0  0  0  0  0
  -27.5959  -20.0512   21.6269 N   0  0  0  0  0  0
  -29.7896  -21.4767   20.0757 O   0  0  0  0  0  0
  -31.4794  -12.5088   19.1576 H   0  0  0  0  0  0
  -30.3655  -11.3860   19.8690 H   0  0  0  0  0  0
  -29.7829  -11.8074   17.4619 H   0  0  0  0  0  0
  -29.6568  -13.5199   17.7750 H   0  0  0  0  0  0
  -27.8645  -11.3085   18.8328 H   0  0  0  0  0  0
  -27.3830  -12.6159   17.7843 H   0  0  0  0  0  0
  -27.6945  -14.2592   19.5620 H   0  0  0  0  0  0
  -28.7053  -11.9706   21.3070 H   0  0  0  0  0  0
  -28.3844  -13.5596   21.8797 H   0  0  0  0  0  0
  -25.2768   -9.5693   22.4751 H   0  0  0  0  0  0
  -24.0011   -7.4642   22.7470 H   0  0  0  0  0  0
  -21.0841   -8.8775   19.8956 H   0  0  0  0  0  0
  -22.3694  -10.9674   19.6159 H   0  0  0  0  0  0
  -21.2007   -7.6151   23.9723 H   0  0  0  0  0  0
  -21.1479   -6.0521   25.9079 H   0  0  0  0  0  0
  -22.0598   -2.7613   23.2846 H   0  0  0  0  0  0
  -22.4109  -11.9889   22.4804 H   0  0  0  0  0  0
  -21.1125  -13.1259   22.2604 H   0  0  0  0  0  0
  -24.6664  -15.8458   20.5245 H   0  0  0  0  0  0
  -26.2888  -15.6285   20.1035 H   0  0  0  0  0  0
  -26.7176  -32.5464   23.1120 H   0  0  0  0  0  0
  -25.0080  -33.9735   25.0439 H   0  0  0  0  0  0
  -22.7112  -31.3036   21.4014 H   0  0  0  0  0  0
  -23.3752  -35.9634   23.3293 H   0  0  0  0  0  0
  -24.3584  -36.8926   22.2051 H   0  0  0  0  0  0
  -23.7243  -37.6503   23.6659 H   0  0  0  0  0  0
  -26.0869  -31.5632   20.6047 H   0  0  0  0  0  0
  -26.8391  -30.8476   22.0001 H   0  0  0  0  0  0
  -28.1208  -29.0115   21.1768 H   0  0  0  0  0  0
  -26.0144  -25.9577   18.9668 H   0  0  0  0  0  0
  -23.9830  -27.3117   18.9996 H   0  0  0  0  0  0
  -23.7482  -30.5916   19.4025 H   0  0  0  0  0  0
  -22.7545  -29.2420   19.8619 H   0  0  0  0  0  0
  -25.1293  -36.1944   25.0821 H   0  0  0  0  0  0
  -20.9979  -28.3259   24.1403 H   0  0  0  0  0  0
  -20.5678  -26.2296   23.3604 H   0  0  0  0  0  0
  -21.6647  -26.7440   22.1198 H   0  0  0  0  0  0
  -19.6916  -25.6295   21.1238 H   0  0  0  0  0  0
  -19.6694  -27.3195   20.6737 H   0  0  0  0  0  0
  -17.4204  -26.6672   21.4022 H   0  0  0  0  0  0
  -18.0338  -26.0069   22.9015 H   0  0  0  0  0  0
  -19.7937  -30.7274   24.2258 H   0  0  0  0  0  0
  -17.5013  -31.6262   24.5168 H   0  0  0  0  0  0
  -15.5351  -30.2979   23.7656 H   0  0  0  0  0  0
  -15.8678  -28.0819   22.7059 H   0  0  0  0  0  0
  -24.5912  -30.7063   25.7784 H   0  0  0  0  0  0
  -24.8923  -32.2877   26.4895 H   0  0  0  0  0  0
  -25.8068  -30.8885   27.0224 H   0  0  0  0  0  0
  -26.2896  -29.6768   24.1204 H   0  0  0  0  0  0
  -27.4052  -29.7272   25.4658 H   0  0  0  0  0  0
  -27.8758  -30.4308   23.9367 H   0  0  0  0  0  0
  -27.2680  -33.3612   26.2086 H   0  0  0  0  0  0
  -28.3866  -32.6882   25.0319 H   0  0  0  0  0  0
  -28.0737  -31.8431   26.5399 H   0  0  0  0  0  0
  -28.2593  -38.0107   24.7522 H   0  0  0  0  0  0
  -28.1088  -36.2640   24.6270 H   0  0  0  0  0  0
  -27.2302  -37.1430   25.8864 H   0  0  0  0  0  0
  -20.9367  -29.8765   21.6888 H   0  0  0  0  0  0
  -26.0178  -38.2856   24.1413 H   0  0  0  0  0  0
  -31.7853  -17.3625   19.8558 H   0  0  0  0  0  0
  -31.5900  -19.7559   19.3611 H   0  0  0  0  0  0
  -28.0770  -17.5429   22.0138 H   0  0  0  0  0  0
  -30.1715  -24.2650   20.4743 H   0  0  0  0  0  0
  -29.2485  -24.0174   19.0204 H   0  0  0  0  0  0
  -28.1367  -25.1250   21.6532 H   0  0  0  0  0  0
  -27.1631  -24.7448   20.2823 H   0  0  0  0  0  0
  -27.8652  -22.2550   20.1928 H   0  0  0  0  0  0
  -28.8323  -22.4633   21.6451 H   0  0  0  0  0  0
  -29.3195  -16.3316   23.1135 H   0  0  0  0  0  0
  -26.7930  -19.4794   21.8669 H   0  0  0  0  0  0
  -27.3280  -20.9118   21.1657 H   0  0  0  0  0  0
  1 25  1  0  0  0
  1 30  2  0  0  0
  1 77  1  0  0  0
  2  3  1  0  0  0
  2 25  1  0  0  0
  2 84  1  0  0  0
  2 85  1  0  0  0
  3  4  1  0  0  0
  3 86  1  0  0  0
  3 87  1  0  0  0
  4  5  1  0  0  0
  4 88  1  0  0  0
  4 89  1  0  0  0
  5  6  1  0  0  0
  5 26  1  0  0  0
  5 90  1  0  0  0
  6 25  1  0  0  0
  6 91  1  0  0  0
  6 92  1  0  0  0
  7  8  2  0  0  0
  7 26  1  0  0  0
  7 29  1  0  0  0
  8  9  1  0  0  0
  8 22  1  0  0  0
  9 10  1  0  0  0
  9 27  2  0  0  0
 10 11  2  0  0  0
 10 15  1  0  0  0
 11 12  1  0  0  0
 11 93  1  0  0  0
 12 13  2  0  0  0
 12 94  1  0  0  0
 13 14  1  0  0  0
 13 31  1  0  0  0
 14 15  2  0  0  0
 14 95  1  0  0  0
 15 96  1  0  0  0
 16 17  2  0  0  0
 16 21  1  0  0  0
 16 31  1  0  0  0
 17 18  1  0  0  0
 17 97  1  0  0  0
 18 19  2  0  0  0
 18 98  1  0  0  0
 19 20  1  0  0  0
 19 24  1  0  0  0
 20 21  2  0  0  0
 20 99  1  0  0  0
 21 23  1  0  0  0
 22 28  1  0  0  0
 22 32  2  0  0  0
 26 27  1  0  0  0
 28100  1  0  0  0
 28101  1  0  0  0
 29102  1  0  0  0
 29103  1  0  0  0
 33 34  1  0  0  0
 33 66  1  0  0  0
 33 70  2  0  0  0
 34 36  1  0  0  0
 34 59  1  0  0  0
 34104  1  0  0  0
 35 44  2  0  0  0
 35 45  1  0  0  0
 35 68  1  0  0  0
 36 56  1  0  0  0
 36105  1  0  0  0
 37 39  1  0  0  0
 37 47  1  0  0  0
 37 66  1  0  0  0
 37106  1  0  0  0
 38 43  2  0  0  0
 38 46  1  0  0  0
 38 47  1  0  0  0
 39 64  1  0  0  0
 39 67  2  0  0  0
 40 52  1  0  0  0
 40 53  2  0  0  0
 40 58  1  0  0  0
 41107  1  0  0  0
 41108  1  0  0  0
 41109  1  0  0  0
 41 48  1  0  0  0
 42 43  1  0  0  0
 42 66  1  0  0  0
 42110  1  0  0  0
 42111  1  0  0  0
 43 44  1  0  0  0
 44112  1  0  0  0
 45 46  2  0  0  0
 45113  1  0  0  0
 46114  1  0  0  0
 47115  1  0  0  0
 47116  1  0  0  0
 48 56  1  0  0  0
 48 65  1  0  0  0
 48117  1  0  0  0
 49 50  1  0  0  0
 49 53  1  0  0  0
 49 64  1  0  0  0
 49118  1  0  0  0
 50 51  1  0  0  0
 50119  1  0  0  0
 50120  1  0  0  0
 51 52  1  0  0  0
 51121  1  0  0  0
 51122  1  0  0  0
 52123  1  0  0  0
 52124  1  0  0  0
 53 54  1  0  0  0
 54 55  2  0  0  0
 54125  1  0  0  0
 55 57  1  0  0  0
 55126  1  0  0  0
 56 69  2  0  0  0
 57 58  2  0  0  0
 57127  1  0  0  0
 58128  1  0  0  0
 59 60  1  0  0  0
 59 61  1  0  0  0
 59 62  1  0  0  0
 60129  1  0  0  0
 60130  1  0  0  0
 60131  1  0  0  0
 61132  1  0  0  0
 61133  1  0  0  0
 61134  1  0  0  0
 62135  1  0  0  0
 62136  1  0  0  0
 62137  1  0  0  0
 63 65  1  0  0  0
 63138  1  0  0  0
 63139  1  0  0  0
 63140  1  0  0  0
 64141  1  0  0  0
 65142  1  0  0  0
 68 79  1  0  0  0
 71 72  2  0  0  0
 71 74  1  0  0  0
 71143  1  0  0  0
 72 76  1  0  0  0
 72144  1  0  0  0
 73 74  2  0  0  0
 73 75  1  0  0  0
 73145  1  0  0  0
 74 77  1  0  0  0
 75 76  2  0  0  0
 75 82  1  0  0  0
 76 83  1  0  0  0
 77 81  2  0  0  0
 78 79  1  0  0  0
 78 80  1  0  0  0
 78146  1  0  0  0
 78147  1  0  0  0
 79148  1  0  0  0
 79149  1  0  0  0
 80 83  1  0  0  0
 80150  1  0  0  0
 80151  1  0  0  0
 81152  1  0  0  0
 82153  1  0  0  0
 82154  1  0  0  0
M  ISO  4   1 100  68 101  77 100  79 101
M  END
> <chiral flag>
0

> <version>
0

> <s_m_source_file>
/data/baiqing/PycharmProjects/Reinvent-master-3.2/result/LINK_invent/BTK/process_docking_weight1_custom_product_contain_oxygen_bond_distance_aromatic_linkinvent_7_9_3/rearranged_h_0096.sdf

> <i_m_source_file_index>
80

> <r_mmod_Potential_Energy-OPLS-2005>
169.4521484375

> <r_mmod_Stretch_Energy-OPLS-2005>
85.0642166137695

> <r_mmod_Bend_Energy-OPLS-2005>
160.605255126953

> <r_mmod_Torsional_Energy-OPLS-2005>
215.386123657227

> <r_mmod_Improper_Torsional_Energy-OPLS-2005>
6.12695217132568

> <r_mmod_Van_der_Waal_Energy-OPLS-2005>
156.264205932617

> <r_mmod_Electrostatic_Energy-OPLS-2005>
-280.941955566406

> <r_mmod_Solvation_Energy-OPLS-2005>
-208.973754882812

> <b_mmod_Minimization_Converged-OPLS-2005>
0

> <r_mmod_RMS_Derivative-OPLS-2005>
0.904738128185272

$$$$
80
                    3D
 Structure written by MMmdl.
160168  0  0  1  0            999 V2000
  -30.6166  -14.8213   20.3204 C   0  0  0  0  0  0
  -30.4297  -12.4987   19.4337 C   0  0  0  0  0  0
  -29.4899  -12.4548   18.2129 C   0  0  0  0  0  0
  -28.0317  -12.2508   18.6653 C   0  0  0  0  0  0
  -27.6309  -13.1810   19.8390 C   0  0  2  0  0  0
  -28.6961  -13.2479   20.9461 C   0  0  0  0  0  0
  -25.2576  -13.8038   20.5800 C   0  0  0  0  0  0
  -24.1807  -13.0373   20.9285 C   0  0  0  0  0  0
  -24.6333  -11.6832   20.8827 C   0  0  0  0  0  0
  -23.8999  -10.4247   21.0456 C   0  0  0  0  0  0
  -24.3572   -9.4164   21.9218 C   0  0  0  0  0  0
  -23.6269   -8.2190   22.0760 C   0  0  0  0  0  0
  -22.4257   -8.0240   21.3536 C   0  0  0  0  0  0
  -21.9883   -9.0213   20.4646 C   0  0  0  0  0  0
  -22.7191  -10.2104   20.3079 C   0  0  0  0  0  0
  -21.6832   -6.0720   22.5281 C   0  0  0  0  0  0
  -21.3993   -6.5633   23.8211 C   0  0  0  0  0  0
  -21.3662   -5.6794   24.9180 C   0  0  0  0  0  0
  -21.6049   -4.3054   24.7232 C   0  0  0  0  0  0
  -21.8818   -3.8141   23.4353 C   0  0  0  0  0  0
  -21.9188   -4.6954   22.3409 C   0  0  0  0  0  0
  -22.7846  -13.5228   21.1887 C   0  0  0  0  0  0
  -22.1660   -4.2141   21.0987 F   0  0  0  0  0  0
  -21.5642   -3.4541   25.7746 F   0  0  0  0  0  0
  -29.9532  -13.6114   20.2825 N   0  0  0  0  0  0
  -26.2915  -12.9134   20.3367 N   0  0  0  0  0  0
  -25.9240  -11.6341   20.5849 N   0  0  0  0  0  0
  -22.0440  -12.8247   22.0427 N   0  0  0  0  0  0
  -25.4385  -15.1732   20.4214 N   0  0  0  0  0  0
  -31.8490  -14.7817   20.4037 O   0  0  0  0  0  0
  -21.6614   -6.8848   21.4236 O   0  0  0  0  0  0
  -22.3575  -14.5538   20.6705 O   0  0  0  0  0  0
  -24.6321  -31.8554   23.1985 C   0  0  0  0  0  0
  -25.9146  -32.4754   23.8333 C   0  0  1  0  0  0
  -27.2158  -27.2560   20.1270 C   0  0  0  0  0  0
  -25.5943  -33.8555   24.2247 N   0  0  0  0  0  0
  -23.4290  -30.4802   21.5416 C   0  0  2  0  0  0
  -24.8761  -28.9323   20.1073 C   0  0  0  0  0  0
  -22.7507  -29.4611   22.4893 C   0  0  0  0  0  0
  -18.0296  -28.1395   22.8486 C   0  0  0  0  0  0
  -24.1491  -36.7279   23.2639 C   0  0  0  0  0  0
  -25.9780  -30.7664   21.3810 C   0  0  0  0  0  0
  -26.0496  -29.3902   20.7208 C   0  0  0  0  0  0
  -27.2222  -28.5654   20.7203 C   0  0  0  0  0  0
  -26.0183  -26.8775   19.4738 C   0  0  0  0  0  0
  -24.8667  -27.6846   19.4718 C   0  0  0  0  0  0
  -23.6472  -29.8182   20.1568 C   0  0  0  0  0  0
  -25.4117  -36.3065   24.0323 C   0  0  1  0  0  0
  -20.5903  -28.3706   23.1259 C   0  0  2  0  0  0
  -20.6782  -26.9417   22.5403 C   0  0  0  0  0  0
  -19.5755  -26.6386   21.5209 C   0  0  0  0  0  0
  -18.1938  -26.7941   22.1623 C   0  0  0  0  0  0
  -19.1550  -28.8868   23.2870 C   0  0  0  0  0  0
  -18.9470  -30.1468   23.8891 C   0  0  0  0  0  0
  -17.6468  -30.6592   24.0565 C   0  0  0  0  0  0
  -25.9062  -34.9439   23.5085 C   0  0  0  0  0  0
  -16.5358  -29.9090   23.6335 C   0  0  0  0  0  0
  -16.7280  -28.6508   23.0356 C   0  0  0  0  0  0
  -26.4511  -31.6587   25.0728 C   0  0  0  0  0  0
  -25.3723  -31.3746   26.1437 C   0  0  0  0  0  0
  -27.0360  -30.3003   24.6226 C   0  0  0  0  0  0
  -27.6061  -32.4334   25.7498 C   0  0  0  0  0  0
  -27.5578  -37.1789   24.8461 C   0  0  0  0  0  0
  -21.4211  -29.3052   22.3641 N   0  0  0  0  0  0
  -26.4289  -37.3767   23.9410 N   0  0  0  0  0  0
  -24.6990  -31.0518   22.0961 N   0  0  0  0  0  0
  -23.4204  -28.8133   23.2982 O   0  0  0  0  0  0
  -28.2902  -26.3318   20.2007 O   0  0  0  0  0  0
  -26.5627  -34.8922   22.4650 O   0  0  0  0  0  0
  -23.5469  -32.1368   23.7279 O   0  0  0  0  0  0
  -29.7781  -18.4089   20.3132 C   0  0  0  0  0  0
  -27.2404  -18.3623   19.3421 C   0  0  0  0  0  0
  -29.2840  -17.1093   19.8611 C   0  0  0  0  0  0
  -28.0044  -17.1762   19.2421 C   0  0  0  0  0  0
  -28.9691  -19.6212   20.2406 C   0  0  0  0  0  0
  -28.9605  -23.7028   20.4157 C   0  0  0  0  0  0
  -27.5428  -22.0977   21.8151 C   0  0  0  0  0  0
  -30.8337  -16.0898   18.2992 C   0  0  0  0  0  0
  -26.5815  -16.3686   17.4688 C   0  0  0  0  0  0
  -27.9478  -24.8762   19.9969 C   0  0  0  0  0  0
  -28.4122  -22.1741   20.5411 C   0  0  2  0  0  0
  -27.6997  -19.5298   19.8173 N   0  0  0  0  0  0
  -29.3719  -20.9853   20.5217 N   0  0  0  0  0  0
  -30.0963  -15.8875   19.5582 N   0  0  0  0  0  0
  -30.1416  -23.9743   20.6510 O   0  0  0  0  0  0
  -27.5919  -16.1298   18.4474 O   0  0  0  0  0  0
  -31.4599  -12.6475   19.1046 H   0  0  0  0  0  0
  -30.4138  -11.5548   19.9803 H   0  0  0  0  0  0
  -29.7869  -11.6519   17.5370 H   0  0  0  0  0  0
  -29.5684  -13.3799   17.6411 H   0  0  0  0  0  0
  -27.9291  -11.2114   18.9775 H   0  0  0  0  0  0
  -27.3515  -12.3813   17.8230 H   0  0  0  0  0  0
  -27.5900  -14.1587   19.4063 H   0  0  0  0  0  0
  -28.7858  -12.2947   21.4702 H   0  0  0  0  0  0
  -28.4280  -14.0026   21.6873 H   0  0  0  0  0  0
  -25.2706   -9.5648   22.4801 H   0  0  0  0  0  0
  -23.9983   -7.4574   22.7468 H   0  0  0  0  0  0
  -21.0817   -8.8720   19.8946 H   0  0  0  0  0  0
  -22.3644  -10.9653   19.6201 H   0  0  0  0  0  0
  -21.1960   -7.6136   23.9711 H   0  0  0  0  0  0
  -21.1497   -6.0523   25.9083 H   0  0  0  0  0  0
  -22.0597   -2.7602   23.2856 H   0  0  0  0  0  0
  -22.4031  -11.9916   22.4847 H   0  0  0  0  0  0
  -21.1049  -13.1284   22.2578 H   0  0  0  0  0  0
  -24.6683  -15.8278   20.4945 H   0  0  0  0  0  0
  -26.2737  -15.5668   20.0000 H   0  0  0  0  0  0
  -26.7209  -32.5393   23.1071 H   0  0  0  0  0  0
  -25.0094  -33.9695   25.0399 H   0  0  0  0  0  0
  -22.7260  -31.3029   21.3968 H   0  0  0  0  0  0
  -23.3754  -35.9608   23.3295 H   0  0  0  0  0  0
  -24.3585  -36.8904   22.2055 H   0  0  0  0  0  0
  -23.7243  -37.6478   23.6669 H   0  0  0  0  0  0
  -26.1206  -31.5265   20.6120 H   0  0  0  0  0  0
  -26.8551  -30.8122   22.0156 H   0  0  0  0  0  0
  -28.1168  -28.9098   21.2201 H   0  0  0  0  0  0
  -25.9281  -25.9291   18.9663 H   0  0  0  0  0  0
  -23.9706  -27.3305   18.9809 H   0  0  0  0  0  0
  -23.7711  -30.5959   19.4025 H   0  0  0  0  0  0
  -22.7660  -29.2513   19.8512 H   0  0  0  0  0  0
  -25.1299  -36.1902   25.0813 H   0  0  0  0  0  0
  -21.0004  -28.3282   24.1376 H   0  0  0  0  0  0
  -20.5682  -26.2309   23.3609 H   0  0  0  0  0  0
  -21.6647  -26.7436   22.1190 H   0  0  0  0  0  0
  -19.6913  -25.6293   21.1243 H   0  0  0  0  0  0
  -19.6700  -27.3193   20.6736 H   0  0  0  0  0  0
  -17.4202  -26.6687   21.4027 H   0  0  0  0  0  0
  -18.0341  -26.0091   22.9027 H   0  0  0  0  0  0
  -19.7944  -30.7291   24.2251 H   0  0  0  0  0  0
  -17.5020  -31.6272   24.5163 H   0  0  0  0  0  0
  -15.5357  -30.2989   23.7672 H   0  0  0  0  0  0
  -15.8680  -28.0826   22.7074 H   0  0  0  0  0  0
  -24.5910  -30.7082   25.7764 H   0  0  0  0  0  0
  -24.8903  -32.2918   26.4828 H   0  0  0  0  0  0
  -25.8036  -30.8946   27.0232 H   0  0  0  0  0  0
  -26.2946  -29.6748   24.1241 H   0  0  0  0  0  0
  -27.4023  -29.7272   25.4756 H   0  0  0  0  0  0
  -27.8837  -30.4271   23.9490 H   0  0  0  0  0  0
  -27.2666  -33.3644   26.2048 H   0  0  0  0  0  0
  -28.3891  -32.6870   25.0341 H   0  0  0  0  0  0
  -28.0713  -31.8474   26.5436 H   0  0  0  0  0  0
  -28.2577  -38.0105   24.7525 H   0  0  0  0  0  0
  -28.1091  -36.2633   24.6260 H   0  0  0  0  0  0
  -27.2298  -37.1398   25.8865 H   0  0  0  0  0  0
  -20.9386  -29.8781   21.6858 H   0  0  0  0  0  0
  -26.0158  -38.2830   24.1436 H   0  0  0  0  0  0
  -30.8059  -18.4836   20.6389 H   0  0  0  0  0  0
  -26.2457  -18.4287   18.9288 H   0  0  0  0  0  0
  -26.7528  -22.8492   21.8156 H   0  0  0  0  0  0
  -28.1403  -22.2505   22.7148 H   0  0  0  0  0  0
  -27.0487  -21.1310   21.9101 H   0  0  0  0  0  0
  -30.2199  -16.6065   17.5602 H   0  0  0  0  0  0
  -31.1445  -15.1491   17.8402 H   0  0  0  0  0  0
  -31.7258  -16.6940   18.4665 H   0  0  0  0  0  0
  -26.5308  -15.5186   16.7888 H   0  0  0  0  0  0
  -26.7953  -17.2519   16.8651 H   0  0  0  0  0  0
  -25.5968  -16.4788   17.9234 H   0  0  0  0  0  0
  -27.0147  -24.6718   20.5217 H   0  0  0  0  0  0
  -27.7423  -24.7301   18.9364 H   0  0  0  0  0  0
  -27.7458  -22.0352   19.6896 H   0  0  0  0  0  0
  -30.3357  -21.1744   20.7779 H   0  0  0  0  0  0
  1 25  1  0  0  0
  1 30  2  0  0  0
  1 84  1  0  0  0
  2  3  1  0  0  0
  2 25  1  0  0  0
  2 87  1  0  0  0
  2 88  1  0  0  0
  3  4  1  0  0  0
  3 89  1  0  0  0
  3 90  1  0  0  0
  4  5  1  0  0  0
  4 91  1  0  0  0
  4 92  1  0  0  0
  5  6  1  0  0  0
  5 26  1  0  0  0
  5 93  1  0  0  0
  6 25  1  0  0  0
  6 94  1  0  0  0
  6 95  1  0  0  0
  7  8  2  0  0  0
  7 26  1  0  0  0
  7 29  1  0  0  0
  8  9  1  0  0  0
  8 22  1  0  0  0
  9 10  1  0  0  0
  9 27  2  0  0  0
 10 11  2  0  0  0
 10 15  1  0  0  0
 11 12  1  0  0  0
 11 96  1  0  0  0
 12 13  2  0  0  0
 12 97  1  0  0  0
 13 14  1  0  0  0
 13 31  1  0  0  0
 14 15  2  0  0  0
 14 98  1  0  0  0
 15 99  1  0  0  0
 16 17  2  0  0  0
 16 21  1  0  0  0
 16 31  1  0  0  0
 17 18  1  0  0  0
 17100  1  0  0  0
 18 19  2  0  0  0
 18101  1  0  0  0
 19 20  1  0  0  0
 19 24  1  0  0  0
 20 21  2  0  0  0
 20102  1  0  0  0
 21 23  1  0  0  0
 22 28  1  0  0  0
 22 32  2  0  0  0
 26 27  1  0  0  0
 28103  1  0  0  0
 28104  1  0  0  0
 29105  1  0  0  0
 29106  1  0  0  0
 33 34  1  0  0  0
 33 66  1  0  0  0
 33 70  2  0  0  0
 34 36  1  0  0  0
 34 59  1  0  0  0
 34107  1  0  0  0
 35 44  2  0  0  0
 35 45  1  0  0  0
 35 68  1  0  0  0
 36 56  1  0  0  0
 36108  1  0  0  0
 37 39  1  0  0  0
 37 47  1  0  0  0
 37 66  1  0  0  0
 37109  1  0  0  0
 38 43  2  0  0  0
 38 46  1  0  0  0
 38 47  1  0  0  0
 39 64  1  0  0  0
 39 67  2  0  0  0
 40 52  1  0  0  0
 40 53  2  0  0  0
 40 58  1  0  0  0
 41110  1  0  0  0
 41111  1  0  0  0
 41112  1  0  0  0
 41 48  1  0  0  0
 42 43  1  0  0  0
 42 66  1  0  0  0
 42113  1  0  0  0
 42114  1  0  0  0
 43 44  1  0  0  0
 44115  1  0  0  0
 45 46  2  0  0  0
 45116  1  0  0  0
 46117  1  0  0  0
 47118  1  0  0  0
 47119  1  0  0  0
 48 56  1  0  0  0
 48 65  1  0  0  0
 48120  1  0  0  0
 49 50  1  0  0  0
 49 53  1  0  0  0
 49 64  1  0  0  0
 49121  1  0  0  0
 50 51  1  0  0  0
 50122  1  0  0  0
 50123  1  0  0  0
 51 52  1  0  0  0
 51124  1  0  0  0
 51125  1  0  0  0
 52126  1  0  0  0
 52127  1  0  0  0
 53 54  1  0  0  0
 54 55  2  0  0  0
 54128  1  0  0  0
 55 57  1  0  0  0
 55129  1  0  0  0
 56 69  2  0  0  0
 57 58  2  0  0  0
 57130  1  0  0  0
 58131  1  0  0  0
 59 60  1  0  0  0
 59 61  1  0  0  0
 59 62  1  0  0  0
 60132  1  0  0  0
 60133  1  0  0  0
 60134  1  0  0  0
 61135  1  0  0  0
 61136  1  0  0  0
 61137  1  0  0  0
 62138  1  0  0  0
 62139  1  0  0  0
 62140  1  0  0  0
 63 65  1  0  0  0
 63141  1  0  0  0
 63142  1  0  0  0
 63143  1  0  0  0
 64144  1  0  0  0
 65145  1  0  0  0
 68 80  1  0  0  0
 71 73  2  0  0  0
 71 75  1  0  0  0
 71146  1  0  0  0
 72 74  2  0  0  0
 72 82  1  0  0  0
 72147  1  0  0  0
 73 74  1  0  0  0
 73 84  1  0  0  0
 74 86  1  0  0  0
 75 82  2  0  0  0
 75 83  1  0  0  0
 76 80  1  0  0  0
 76 81  1  0  0  0
 76 85  2  0  0  0
 77148  1  0  0  0
 77149  1  0  0  0
 77150  1  0  0  0
 77 81  1  0  0  0
 78 84  1  0  0  0
 78151  1  0  0  0
 78152  1  0  0  0
 78153  1  0  0  0
 79 86  1  0  0  0
 79154  1  0  0  0
 79155  1  0  0  0
 79156  1  0  0  0
 80157  1  0  0  0
 80158  1  0  0  0
 81 83  1  0  0  0
 81159  1  0  0  0
 83160  1  0  0  0
M  ISO  4   1 100  68 101  80 101  84 100
M  END
> <chiral flag>
0

> <version>
0

> <s_m_source_file>
/data/baiqing/PycharmProjects/Reinvent-master-3.2/result/LINK_invent/BTK/process_docking_weight1_custom_product_contain_oxygen_bond_distance_aromatic_linkinvent_7_9_3/rearranged_h_0096.sdf

> <i_m_source_file_index>
81

> <r_mmod_Potential_Energy-OPLS-2005>
323.889862060547

> <r_mmod_Stretch_Energy-OPLS-2005>
137.937484741211

> <r_mmod_Bend_Energy-OPLS-2005>
213.518585205078

> <r_mmod_Torsional_Energy-OPLS-2005>
333.052398681641

> <r_mmod_Improper_Torsional_Energy-OPLS-2005>
37.4242668151855

> <r_mmod_Van_der_Waal_Energy-OPLS-2005>
155.966934204102

> <r_mmod_Electrostatic_Energy-OPLS-2005>
-462.664520263672

> <r_mmod_Solvation_Energy-OPLS-2005>
-224.01188659668

> <b_mmod_Minimization_Converged-OPLS-2005>
0

> <r_mmod_RMS_Derivative-OPLS-2005>
1.42259228229523

$$$$
81
                    3D
 Structure written by MMmdl.
159167  0  0  1  0            999 V2000
  -30.6388  -14.7400   20.3660 C   0  0  0  0  0  0
  -30.4461  -12.4255   19.4464 C   0  0  0  0  0  0
  -29.4934  -12.3640   18.2287 C   0  0  0  0  0  0
  -28.0204  -12.2604   18.6668 C   0  0  0  0  0  0
  -27.6364  -13.2096   19.8323 C   0  0  2  0  0  0
  -28.7037  -13.2043   20.9469 C   0  0  0  0  0  0
  -25.2541  -13.8171   20.5746 C   0  0  0  0  0  0
  -24.1799  -13.0455   20.9251 C   0  0  0  0  0  0
  -24.6357  -11.6918   20.8803 C   0  0  0  0  0  0
  -23.9037  -10.4298   21.0431 C   0  0  0  0  0  0
  -24.3594   -9.4211   21.9199 C   0  0  0  0  0  0
  -23.6279   -8.2242   22.0761 C   0  0  0  0  0  0
  -22.4262   -8.0282   21.3544 C   0  0  0  0  0  0
  -21.9893   -9.0259   20.4647 C   0  0  0  0  0  0
  -22.7217  -10.2143   20.3067 C   0  0  0  0  0  0
  -21.6850   -6.0721   22.5270 C   0  0  0  0  0  0
  -21.4019   -6.5630   23.8203 C   0  0  0  0  0  0
  -21.3658   -5.6782   24.9166 C   0  0  0  0  0  0
  -21.6040   -4.3045   24.7216 C   0  0  0  0  0  0
  -21.8822   -3.8137   23.4340 C   0  0  0  0  0  0
  -21.9194   -4.6950   22.3395 C   0  0  0  0  0  0
  -22.7821  -13.5256   21.1866 C   0  0  0  0  0  0
  -22.1664   -4.2140   21.0971 F   0  0  0  0  0  0
  -21.5626   -3.4531   25.7734 F   0  0  0  0  0  0
  -29.9924  -13.5231   20.3193 N   0  0  0  0  0  0
  -26.2940  -12.9323   20.3341 N   0  0  0  0  0  0
  -25.9285  -11.6498   20.5865 N   0  0  0  0  0  0
  -22.0437  -12.8262   22.0405 N   0  0  0  0  0  0
  -25.4272  -15.1887   20.4149 N   0  0  0  0  0  0
  -31.8700  -14.7757   20.3718 O   0  0  0  0  0  0
  -21.6639   -6.8869   21.4231 O   0  0  0  0  0  0
  -22.3520  -14.5548   20.6687 O   0  0  0  0  0  0
  -24.6248  -31.8582   23.1977 C   0  0  0  0  0  0
  -25.9097  -32.4779   23.8317 C   0  0  1  0  0  0
  -27.2404  -27.3167   20.1563 C   0  0  0  0  0  0
  -25.5915  -33.8570   24.2248 N   0  0  0  0  0  0
  -23.4197  -30.4774   21.5388 C   0  0  2  0  0  0
  -24.8734  -28.9181   20.1211 C   0  0  0  0  0  0
  -22.7453  -29.4633   22.4925 C   0  0  0  0  0  0
  -18.0289  -28.1404   22.8503 C   0  0  0  0  0  0
  -24.1481  -36.7275   23.2640 C   0  0  0  0  0  0
  -25.9576  -30.7923   21.3674 C   0  0  0  0  0  0
  -26.0378  -29.4145   20.7213 C   0  0  0  0  0  0
  -27.2245  -28.6261   20.7240 C   0  0  0  0  0  0
  -26.0562  -26.8583   19.5434 C   0  0  0  0  0  0
  -24.8844  -27.6442   19.5231 C   0  0  0  0  0  0
  -23.6391  -29.7989   20.1593 C   0  0  0  0  0  0
  -25.4113  -36.3081   24.0329 C   0  0  1  0  0  0
  -20.5880  -28.3700   23.1303 C   0  0  2  0  0  0
  -20.6772  -26.9426   22.5432 C   0  0  0  0  0  0
  -19.5751  -26.6413   21.5221 C   0  0  0  0  0  0
  -18.1929  -26.7955   22.1628 C   0  0  0  0  0  0
  -19.1536  -28.8869   23.2901 C   0  0  0  0  0  0
  -18.9462  -30.1467   23.8923 C   0  0  0  0  0  0
  -17.6461  -30.6602   24.0573 C   0  0  0  0  0  0
  -25.9039  -34.9455   23.5089 C   0  0  0  0  0  0
  -16.5354  -29.9106   23.6348 C   0  0  0  0  0  0
  -16.7275  -28.6521   23.0382 C   0  0  0  0  0  0
  -26.4490  -31.6597   25.0687 C   0  0  0  0  0  0
  -25.3732  -31.3751   26.1422 C   0  0  0  0  0  0
  -27.0316  -30.3017   24.6134 C   0  0  0  0  0  0
  -27.6031  -32.4336   25.7491 C   0  0  0  0  0  0
  -27.5568  -37.1806   24.8473 C   0  0  0  0  0  0
  -21.4164  -29.3040   22.3666 N   0  0  0  0  0  0
  -26.4283  -37.3784   23.9410 N   0  0  0  0  0  0
  -24.6855  -31.0605   22.0922 N   0  0  0  0  0  0
  -23.4162  -28.8197   23.3030 O   0  0  0  0  0  0
  -28.3822  -26.5071   20.1538 O   0  0  0  0  0  0
  -26.5610  -34.8928   22.4654 O   0  0  0  0  0  0
  -23.5415  -32.1380   23.7305 O   0  0  0  0  0  0
  -30.7098  -18.2516   19.8924 C   0  0  0  0  0  0
  -30.3900  -19.6370   20.0553 C   0  0  0  0  0  0
  -28.7480  -17.6324   21.1338 C   0  0  0  0  0  0
  -29.8659  -17.2002   20.3680 C   0  0  0  0  0  0
  -28.4300  -19.0190   21.2940 C   0  0  0  0  0  0
  -29.2009  -20.0668   20.7116 C   0  0  0  0  0  0
  -28.1263  -16.2640   16.7282 C   0  0  0  0  0  0
  -28.5011  -16.3654   18.0167 C   0  0  0  0  0  0
  -29.7696  -15.7971   18.4656 C   0  0  0  0  0  0
  -28.6688  -23.8990   19.7886 C   0  0  0  0  0  0
  -28.3364  -25.1401   20.7320 C   0  0  0  0  0  0
  -29.4434  -22.5723   20.2791 C   0  0  0  0  0  0
  -27.2851  -19.3732   22.0045 N   0  0  0  0  0  0
  -29.9566  -15.8275   19.8181 N   0  0  0  0  0  0
  -30.6411  -15.4130   17.6723 O   0  0  0  0  0  0
  -28.7143  -21.4026   20.7897 O   0  0  0  0  0  0
  -31.4733  -12.5736   19.1087 H   0  0  0  0  0  0
  -30.4384  -11.4835   19.9970 H   0  0  0  0  0  0
  -29.7486  -11.4984   17.6162 H   0  0  0  0  0  0
  -29.6178  -13.2128   17.5665 H   0  0  0  0  0  0
  -27.8669  -11.2275   18.9819 H   0  0  0  0  0  0
  -27.3581  -12.4151   17.8154 H   0  0  0  0  0  0
  -27.6022  -14.2088   19.4102 H   0  0  0  0  0  0
  -28.7467  -12.2362   21.4479 H   0  0  0  0  0  0
  -28.4588  -13.9448   21.7102 H   0  0  0  0  0  0
  -25.2733   -9.5696   22.4780 H   0  0  0  0  0  0
  -23.9988   -7.4631   22.7481 H   0  0  0  0  0  0
  -21.0831   -8.8771   19.8945 H   0  0  0  0  0  0
  -22.3672  -10.9687   19.6177 H   0  0  0  0  0  0
  -21.2013   -7.6138   23.9700 H   0  0  0  0  0  0
  -21.1478   -6.0517   25.9069 H   0  0  0  0  0  0
  -22.0603   -2.7603   23.2839 H   0  0  0  0  0  0
  -22.4056  -11.9944   22.4822 H   0  0  0  0  0  0
  -21.1046  -13.1293   22.2568 H   0  0  0  0  0  0
  -24.6644  -15.8461   20.5352 H   0  0  0  0  0  0
  -26.2748  -15.6227   20.0802 H   0  0  0  0  0  0
  -26.7160  -32.5472   23.1071 H   0  0  0  0  0  0
  -25.0106  -33.9691   25.0429 H   0  0  0  0  0  0
  -22.7149  -31.2983   21.3901 H   0  0  0  0  0  0
  -23.3738  -35.9613   23.3330 H   0  0  0  0  0  0
  -24.3545  -36.8855   22.2041 H   0  0  0  0  0  0
  -23.7239  -37.6491   23.6641 H   0  0  0  0  0  0
  -26.0812  -31.5492   20.5912 H   0  0  0  0  0  0
  -26.8387  -30.8527   21.9930 H   0  0  0  0  0  0
  -28.1211  -29.0063   21.1943 H   0  0  0  0  0  0
  -26.0396  -25.8814   19.0816 H   0  0  0  0  0  0
  -23.9924  -27.2521   19.0544 H   0  0  0  0  0  0
  -23.7562  -30.5677   19.3953 H   0  0  0  0  0  0
  -22.7632  -29.2222   19.8583 H   0  0  0  0  0  0
  -25.1304  -36.1944   25.0825 H   0  0  0  0  0  0
  -20.9988  -28.3286   24.1414 H   0  0  0  0  0  0
  -20.5689  -26.2293   23.3615 H   0  0  0  0  0  0
  -21.6639  -26.7465   22.1207 H   0  0  0  0  0  0
  -19.6893  -25.6331   21.1229 H   0  0  0  0  0  0
  -19.6699  -27.3235   20.6756 H   0  0  0  0  0  0
  -17.4203  -26.6731   21.4028 H   0  0  0  0  0  0
  -18.0316  -26.0096   22.9018 H   0  0  0  0  0  0
  -19.7943  -30.7281   24.2291 H   0  0  0  0  0  0
  -17.5029  -31.6290   24.5169 H   0  0  0  0  0  0
  -15.5361  -30.3016   23.7662 H   0  0  0  0  0  0
  -15.8672  -28.0832   22.7105 H   0  0  0  0  0  0
  -24.5939  -30.7049   25.7787 H   0  0  0  0  0  0
  -24.8895  -32.2921   26.4801 H   0  0  0  0  0  0
  -25.8077  -30.9012   27.0229 H   0  0  0  0  0  0
  -26.2876  -29.6798   24.1135 H   0  0  0  0  0  0
  -27.3978  -29.7272   25.4652 H   0  0  0  0  0  0
  -27.8775  -30.4278   23.9364 H   0  0  0  0  0  0
  -27.2626  -33.3647   26.2041 H   0  0  0  0  0  0
  -28.3893  -32.6869   25.0360 H   0  0  0  0  0  0
  -28.0634  -31.8471   26.5455 H   0  0  0  0  0  0
  -28.2636  -38.0059   24.7496 H   0  0  0  0  0  0
  -28.1019  -36.2594   24.6360 H   0  0  0  0  0  0
  -27.2267  -37.1528   25.8871 H   0  0  0  0  0  0
  -20.9320  -29.8723   21.6858 H   0  0  0  0  0  0
  -26.0160  -38.2862   24.1404 H   0  0  0  0  0  0
  -31.5780  -17.9988   19.2986 H   0  0  0  0  0  0
  -31.0529  -20.3617   19.6082 H   0  0  0  0  0  0
  -28.0670  -16.8873   21.5213 H   0  0  0  0  0  0
  -27.1885  -16.6769   16.3906 H   0  0  0  0  0  0
  -28.7421  -15.7675   15.9912 H   0  0  0  0  0  0
  -27.8418  -16.8701   18.7059 H   0  0  0  0  0  0
  -29.3238  -24.3271   19.0283 H   0  0  0  0  0  0
  -27.7725  -23.6076   19.2417 H   0  0  0  0  0  0
  -29.0767  -25.1526   21.5331 H   0  0  0  0  0  0
  -27.3830  -24.9650   21.2342 H   0  0  0  0  0  0
  -30.2221  -22.8386   20.9929 H   0  0  0  0  0  0
  -29.9788  -22.2344   19.3926 H   0  0  0  0  0  0
  -26.9282  -20.3105   21.8460 H   0  0  0  0  0  0
  -26.5583  -18.6801   22.1517 H   0  0  0  0  0  0
  1 25  1  0  0  0
  1 30  2  0  0  0
  1 84  1  0  0  0
  2  3  1  0  0  0
  2 25  1  0  0  0
  2 87  1  0  0  0
  2 88  1  0  0  0
  3  4  1  0  0  0
  3 89  1  0  0  0
  3 90  1  0  0  0
  4  5  1  0  0  0
  4 91  1  0  0  0
  4 92  1  0  0  0
  5  6  1  0  0  0
  5 26  1  0  0  0
  5 93  1  0  0  0
  6 25  1  0  0  0
  6 94  1  0  0  0
  6 95  1  0  0  0
  7  8  2  0  0  0
  7 26  1  0  0  0
  7 29  1  0  0  0
  8  9  1  0  0  0
  8 22  1  0  0  0
  9 10  1  0  0  0
  9 27  2  0  0  0
 10 11  2  0  0  0
 10 15  1  0  0  0
 11 12  1  0  0  0
 11 96  1  0  0  0
 12 13  2  0  0  0
 12 97  1  0  0  0
 13 14  1  0  0  0
 13 31  1  0  0  0
 14 15  2  0  0  0
 14 98  1  0  0  0
 15 99  1  0  0  0
 16 17  2  0  0  0
 16 21  1  0  0  0
 16 31  1  0  0  0
 17 18  1  0  0  0
 17100  1  0  0  0
 18 19  2  0  0  0
 18101  1  0  0  0
 19 20  1  0  0  0
 19 24  1  0  0  0
 20 21  2  0  0  0
 20102  1  0  0  0
 21 23  1  0  0  0
 22 28  1  0  0  0
 22 32  2  0  0  0
 26 27  1  0  0  0
 28103  1  0  0  0
 28104  1  0  0  0
 29105  1  0  0  0
 29106  1  0  0  0
 33 34  1  0  0  0
 33 66  1  0  0  0
 33 70  2  0  0  0
 34 36  1  0  0  0
 34 59  1  0  0  0
 34107  1  0  0  0
 35 44  2  0  0  0
 35 45  1  0  0  0
 35 68  1  0  0  0
 36 56  1  0  0  0
 36108  1  0  0  0
 37 39  1  0  0  0
 37 47  1  0  0  0
 37 66  1  0  0  0
 37109  1  0  0  0
 38 43  2  0  0  0
 38 46  1  0  0  0
 38 47  1  0  0  0
 39 64  1  0  0  0
 39 67  2  0  0  0
 40 52  1  0  0  0
 40 53  2  0  0  0
 40 58  1  0  0  0
 41110  1  0  0  0
 41111  1  0  0  0
 41112  1  0  0  0
 41 48  1  0  0  0
 42 43  1  0  0  0
 42 66  1  0  0  0
 42113  1  0  0  0
 42114  1  0  0  0
 43 44  1  0  0  0
 44115  1  0  0  0
 45 46  2  0  0  0
 45116  1  0  0  0
 46117  1  0  0  0
 47118  1  0  0  0
 47119  1  0  0  0
 48 56  1  0  0  0
 48 65  1  0  0  0
 48120  1  0  0  0
 49 50  1  0  0  0
 49 53  1  0  0  0
 49 64  1  0  0  0
 49121  1  0  0  0
 50 51  1  0  0  0
 50122  1  0  0  0
 50123  1  0  0  0
 51 52  1  0  0  0
 51124  1  0  0  0
 51125  1  0  0  0
 52126  1  0  0  0
 52127  1  0  0  0
 53 54  1  0  0  0
 54 55  2  0  0  0
 54128  1  0  0  0
 55 57  1  0  0  0
 55129  1  0  0  0
 56 69  2  0  0  0
 57 58  2  0  0  0
 57130  1  0  0  0
 58131  1  0  0  0
 59 60  1  0  0  0
 59 61  1  0  0  0
 59 62  1  0  0  0
 60132  1  0  0  0
 60133  1  0  0  0
 60134  1  0  0  0
 61135  1  0  0  0
 61136  1  0  0  0
 61137  1  0  0  0
 62138  1  0  0  0
 62139  1  0  0  0
 62140  1  0  0  0
 63 65  1  0  0  0
 63141  1  0  0  0
 63142  1  0  0  0
 63143  1  0  0  0
 64144  1  0  0  0
 65145  1  0  0  0
 68 81  1  0  0  0
 71 72  2  0  0  0
 71 74  1  0  0  0
 71146  1  0  0  0
 72 76  1  0  0  0
 72147  1  0  0  0
 73 74  2  0  0  0
 73 75  1  0  0  0
 73148  1  0  0  0
 74 84  1  0  0  0
 75 76  2  0  0  0
 75 83  1  0  0  0
 76 86  1  0  0  0
 77 78  2  0  0  0
 77149  1  0  0  0
 77150  1  0  0  0
 78 79  1  0  0  0
 78151  1  0  0  0
 79 84  1  0  0  0
 79 85  2  0  0  0
 80 81  1  0  0  0
 80 82  1  0  0  0
 80152  1  0  0  0
 80153  1  0  0  0
 81154  1  0  0  0
 81155  1  0  0  0
 82 86  1  0  0  0
 82156  1  0  0  0
 82157  1  0  0  0
 83158  1  0  0  0
 83159  1  0  0  0
M  ISO  4   1 100  68 101  81 101  84 100
M  END
> <chiral flag>
0

> <version>
0

> <s_m_source_file>
/data/baiqing/PycharmProjects/Reinvent-master-3.2/result/LINK_invent/BTK/process_docking_weight1_custom_product_contain_oxygen_bond_distance_aromatic_linkinvent_7_9_3/rearranged_h_0096.sdf

> <i_m_source_file_index>
82

> <r_mmod_Potential_Energy-OPLS-2005>
367.779418945312

> <r_mmod_Stretch_Energy-OPLS-2005>
97.3178558349609

> <r_mmod_Bend_Energy-OPLS-2005>
172.276092529297

> <r_mmod_Torsional_Energy-OPLS-2005>
398.027282714844

> <r_mmod_Improper_Torsional_Energy-OPLS-2005>
28.3719024658203

> <r_mmod_Van_der_Waal_Energy-OPLS-2005>
149.506591796875

> <r_mmod_Electrostatic_Energy-OPLS-2005>
-350.100494384766

> <r_mmod_Solvation_Energy-OPLS-2005>
-215.596481323242

> <b_mmod_Minimization_Converged-OPLS-2005>
0

> <r_mmod_RMS_Derivative-OPLS-2005>
2.61876177787781

$$$$
82
                    3D
 Structure written by MMmdl.
162171  0  0  1  0            999 V2000
  -30.6336  -14.7036   20.3616 C   0  0  0  0  0  0
  -30.4369  -12.3928   19.4460 C   0  0  0  0  0  0
  -29.4877  -12.3575   18.2238 C   0  0  0  0  0  0
  -28.0085  -12.2808   18.6483 C   0  0  0  0  0  0
  -27.6359  -13.2084   19.8376 C   0  0  2  0  0  0
  -28.7024  -13.1737   20.9513 C   0  0  0  0  0  0
  -25.2540  -13.8160   20.5745 C   0  0  0  0  0  0
  -24.1802  -13.0437   20.9248 C   0  0  0  0  0  0
  -24.6363  -11.6905   20.8811 C   0  0  0  0  0  0
  -23.9042  -10.4291   21.0440 C   0  0  0  0  0  0
  -24.3606   -9.4202   21.9202 C   0  0  0  0  0  0
  -23.6293   -8.2234   22.0751 C   0  0  0  0  0  0
  -22.4276   -8.0277   21.3539 C   0  0  0  0  0  0
  -21.9912   -9.0253   20.4642 C   0  0  0  0  0  0
  -22.7230  -10.2138   20.3069 C   0  0  0  0  0  0
  -21.6854   -6.0736   22.5277 C   0  0  0  0  0  0
  -21.4013   -6.5638   23.8211 C   0  0  0  0  0  0
  -21.3664   -5.6794   24.9174 C   0  0  0  0  0  0
  -21.6050   -4.3058   24.7224 C   0  0  0  0  0  0
  -21.8821   -3.8148   23.4344 C   0  0  0  0  0  0
  -21.9190   -4.6965   22.3399 C   0  0  0  0  0  0
  -22.7828  -13.5239   21.1876 C   0  0  0  0  0  0
  -22.1661   -4.2154   21.0979 F   0  0  0  0  0  0
  -21.5630   -3.4539   25.7737 F   0  0  0  0  0  0
  -29.9940  -13.4865   20.3265 N   0  0  0  0  0  0
  -26.2937  -12.9312   20.3357 N   0  0  0  0  0  0
  -25.9290  -11.6487   20.5878 N   0  0  0  0  0  0
  -22.0460  -12.8228   22.0419 N   0  0  0  0  0  0
  -25.4273  -15.1876   20.4120 N   0  0  0  0  0  0
  -31.8649  -14.7490   20.3562 O   0  0  0  0  0  0
  -21.6639   -6.8877   21.4235 O   0  0  0  0  0  0
  -22.3522  -14.5542   20.6708 O   0  0  0  0  0  0
  -24.6244  -31.8610   23.2032 C   0  0  0  0  0  0
  -25.9099  -32.4789   23.8357 C   0  0  1  0  0  0
  -27.2269  -27.3389   20.1294 C   0  0  0  0  0  0
  -25.5924  -33.8587   24.2287 N   0  0  0  0  0  0
  -23.4172  -30.4834   21.5448 C   0  0  2  0  0  0
  -24.8656  -28.9370   20.1146 C   0  0  0  0  0  0
  -22.7464  -29.4629   22.4950 C   0  0  0  0  0  0
  -18.0281  -28.1390   22.8482 C   0  0  0  0  0  0
  -24.1492  -36.7302   23.2636 C   0  0  0  0  0  0
  -25.9545  -30.8008   21.3684 C   0  0  0  0  0  0
  -26.0315  -29.4268   20.7171 C   0  0  0  0  0  0
  -27.2175  -28.6390   20.7130 C   0  0  0  0  0  0
  -26.0444  -26.8962   19.4979 C   0  0  0  0  0  0
  -24.8725  -27.6766   19.4952 C   0  0  0  0  0  0
  -23.6314  -29.8135   20.1612 C   0  0  0  0  0  0
  -25.4118  -36.3093   24.0326 C   0  0  1  0  0  0
  -20.5878  -28.3689   23.1297 C   0  0  2  0  0  0
  -20.6776  -26.9417   22.5415 C   0  0  0  0  0  0
  -19.5753  -26.6387   21.5218 C   0  0  0  0  0  0
  -18.1929  -26.7934   22.1623 C   0  0  0  0  0  0
  -19.1530  -28.8859   23.2883 C   0  0  0  0  0  0
  -18.9454  -30.1460   23.8901 C   0  0  0  0  0  0
  -17.6452  -30.6590   24.0566 C   0  0  0  0  0  0
  -25.9047  -34.9457   23.5105 C   0  0  0  0  0  0
  -16.5344  -29.9088   23.6329 C   0  0  0  0  0  0
  -16.7265  -28.6508   23.0345 C   0  0  0  0  0  0
  -26.4484  -31.6592   25.0716 C   0  0  0  0  0  0
  -25.3716  -31.3719   26.1440 C   0  0  0  0  0  0
  -27.0319  -30.3022   24.6143 C   0  0  0  0  0  0
  -27.6048  -32.4311   25.7499 C   0  0  0  0  0  0
  -27.5584  -37.1814   24.8459 C   0  0  0  0  0  0
  -21.4177  -29.3051   22.3700 N   0  0  0  0  0  0
  -26.4298  -37.3787   23.9399 N   0  0  0  0  0  0
  -24.6841  -31.0649   22.0966 N   0  0  0  0  0  0
  -23.4195  -28.8165   23.3020 O   0  0  0  0  0  0
  -28.3546  -26.5153   20.1431 O   0  0  0  0  0  0
  -26.5606  -34.8921   22.4667 O   0  0  0  0  0  0
  -23.5410  -32.1392   23.7376 O   0  0  0  0  0  0
  -30.9916  -19.3191   20.7830 C   0  0  0  0  0  0
  -28.6967  -19.3768   20.0912 C   0  0  0  0  0  0
  -30.9949  -17.8932   20.7272 C   0  0  0  0  0  0
  -28.6858  -17.9517   20.0776 C   0  0  0  0  0  0
  -29.8779  -20.1170   20.3649 C   0  0  0  0  0  0
  -29.8608  -17.1640   20.2852 C   0  0  0  0  0  0
  -31.1016  -21.9925   19.3964 C   0  0  0  0  0  0
  -29.0312  -22.5189   20.4458 C   0  0  0  0  0  0
  -29.7706  -15.7396   18.4516 C   0  0  0  0  0  0
  -31.4651  -23.4803   19.2299 C   0  0  0  0  0  0
  -30.6025  -24.4433   20.0450 C   0  0  0  0  0  0
  -29.1373  -24.0275   19.9528 C   0  0  2  0  0  0
  -30.9929  -15.5280   17.5450 C   0  0  0  0  0  0
  -28.1951  -25.1217   20.6126 C   0  0  0  0  0  0
  -29.9961  -21.5797   20.0986 N   0  0  0  0  0  0
  -29.9343  -15.7697   19.8024 N   0  0  0  0  0  0
  -31.8586  -21.2052   18.8139 O   0  0  0  0  0  0
  -28.0599  -22.2146   21.1483 O   0  0  0  0  0  0
  -28.6760  -15.9276   17.9089 O   0  0  0  0  0  0
  -31.4708  -12.5202   19.1204 H   0  0  0  0  0  0
  -30.4041  -11.4452   19.9865 H   0  0  0  0  0  0
  -29.7274  -11.4893   17.6086 H   0  0  0  0  0  0
  -29.6287  -13.2051   17.5629 H   0  0  0  0  0  0
  -27.8152  -11.2430   18.9205 H   0  0  0  0  0  0
  -27.3622  -12.4889   17.7946 H   0  0  0  0  0  0
  -27.6072  -14.2187   19.4402 H   0  0  0  0  0  0
  -28.7343  -12.1949   21.4319 H   0  0  0  0  0  0
  -28.4660  -13.9017   21.7294 H   0  0  0  0  0  0
  -25.2748   -9.5687   22.4783 H   0  0  0  0  0  0
  -24.0009   -7.4625   22.7464 H   0  0  0  0  0  0
  -21.0850   -8.8771   19.8941 H   0  0  0  0  0  0
  -22.3690  -10.9686   19.6186 H   0  0  0  0  0  0
  -21.2000   -7.6148   23.9720 H   0  0  0  0  0  0
  -21.1486   -6.0518   25.9079 H   0  0  0  0  0  0
  -22.0592   -2.7610   23.2841 H   0  0  0  0  0  0
  -22.4077  -11.9890   22.4816 H   0  0  0  0  0  0
  -21.1066  -13.1233   22.2603 H   0  0  0  0  0  0
  -24.6638  -15.8457   20.5209 H   0  0  0  0  0  0
  -26.2817  -15.6193   20.0837 H   0  0  0  0  0  0
  -26.7173  -32.5473   23.1117 H   0  0  0  0  0  0
  -25.0089  -33.9735   25.0445 H   0  0  0  0  0  0
  -22.7100  -31.3025   21.3995 H   0  0  0  0  0  0
  -23.3754  -35.9634   23.3293 H   0  0  0  0  0  0
  -24.3587  -36.8927   22.2050 H   0  0  0  0  0  0
  -23.7244  -37.6505   23.6656 H   0  0  0  0  0  0
  -26.0746  -31.5619   20.5958 H   0  0  0  0  0  0
  -26.8399  -30.8587   21.9900 H   0  0  0  0  0  0
  -28.1158  -29.0109   21.1855 H   0  0  0  0  0  0
  -26.0190  -25.9363   19.0024 H   0  0  0  0  0  0
  -23.9803  -27.2988   19.0149 H   0  0  0  0  0  0
  -23.7460  -30.5862   19.4000 H   0  0  0  0  0  0
  -22.7538  -29.2366   19.8638 H   0  0  0  0  0  0
  -25.1305  -36.1949   25.0819 H   0  0  0  0  0  0
  -20.9958  -28.3258   24.1422 H   0  0  0  0  0  0
  -20.5689  -26.2296   23.3609 H   0  0  0  0  0  0
  -21.6645  -26.7461   22.1203 H   0  0  0  0  0  0
  -19.6915  -25.6294   21.1257 H   0  0  0  0  0  0
  -19.6700  -27.3192   20.6744 H   0  0  0  0  0  0
  -17.4204  -26.6676   21.4020 H   0  0  0  0  0  0
  -18.0324  -26.0080   22.9022 H   0  0  0  0  0  0
  -19.7927  -30.7276   24.2273 H   0  0  0  0  0  0
  -17.5004  -31.6273   24.5164 H   0  0  0  0  0  0
  -15.5343  -30.2991   23.7659 H   0  0  0  0  0  0
  -15.8662  -28.0834   22.7054 H   0  0  0  0  0  0
  -24.5898  -30.7063   25.7764 H   0  0  0  0  0  0
  -24.8896  -32.2880   26.4865 H   0  0  0  0  0  0
  -25.8040  -30.8896   27.0216 H   0  0  0  0  0  0
  -26.2885  -29.6787   24.1159 H   0  0  0  0  0  0
  -27.4024  -29.7263   25.4635 H   0  0  0  0  0  0
  -27.8749  -30.4321   23.9350 H   0  0  0  0  0  0
  -27.2666  -33.3610   26.2082 H   0  0  0  0  0  0
  -28.3870  -32.6867   25.0338 H   0  0  0  0  0  0
  -28.0696  -31.8420   26.5417 H   0  0  0  0  0  0
  -28.2596  -38.0117   24.7518 H   0  0  0  0  0  0
  -28.1088  -36.2650   24.6277 H   0  0  0  0  0  0
  -27.2295  -37.1450   25.8859 H   0  0  0  0  0  0
  -20.9350  -29.8782   21.6924 H   0  0  0  0  0  0
  -26.0179  -38.2861   24.1402 H   0  0  0  0  0  0
  -31.9230  -19.8014   21.0459 H   0  0  0  0  0  0
  -27.7937  -19.8944   19.7976 H   0  0  0  0  0  0
  -31.9244  -17.3777   20.9252 H   0  0  0  0  0  0
  -27.7704  -17.4679   19.7670 H   0  0  0  0  0  0
  -31.3707  -23.7197   18.1700 H   0  0  0  0  0  0
  -32.5166  -23.6215   19.4809 H   0  0  0  0  0  0
  -30.7374  -25.4558   19.6621 H   0  0  0  0  0  0
  -30.9286  -24.4617   21.0861 H   0  0  0  0  0  0
  -28.8644  -24.0050   18.8968 H   0  0  0  0  0  0
  -31.4046  -14.5235   17.6227 H   0  0  0  0  0  0
  -31.7809  -16.2340   17.8084 H   0  0  0  0  0  0
  -30.7276  -15.7001   16.5021 H   0  0  0  0  0  0
  -28.3795  -25.1337   21.6877 H   0  0  0  0  0  0
  -27.1650  -24.7810   20.5123 H   0  0  0  0  0  0
  1 25  1  0  0  0
  1 30  2  0  0  0
  1 86  1  0  0  0
  2  3  1  0  0  0
  2 25  1  0  0  0
  2 90  1  0  0  0
  2 91  1  0  0  0
  3  4  1  0  0  0
  3 92  1  0  0  0
  3 93  1  0  0  0
  4  5  1  0  0  0
  4 94  1  0  0  0
  4 95  1  0  0  0
  5  6  1  0  0  0
  5 26  1  0  0  0
  5 96  1  0  0  0
  6 25  1  0  0  0
  6 97  1  0  0  0
  6 98  1  0  0  0
  7  8  2  0  0  0
  7 26  1  0  0  0
  7 29  1  0  0  0
  8  9  1  0  0  0
  8 22  1  0  0  0
  9 10  1  0  0  0
  9 27  2  0  0  0
 10 11  2  0  0  0
 10 15  1  0  0  0
 11 12  1  0  0  0
 11 99  1  0  0  0
 12 13  2  0  0  0
 12100  1  0  0  0
 13 14  1  0  0  0
 13 31  1  0  0  0
 14 15  2  0  0  0
 14101  1  0  0  0
 15102  1  0  0  0
 16 17  2  0  0  0
 16 21  1  0  0  0
 16 31  1  0  0  0
 17 18  1  0  0  0
 17103  1  0  0  0
 18 19  2  0  0  0
 18104  1  0  0  0
 19 20  1  0  0  0
 19 24  1  0  0  0
 20 21  2  0  0  0
 20105  1  0  0  0
 21 23  1  0  0  0
 22 28  1  0  0  0
 22 32  2  0  0  0
 26 27  1  0  0  0
 28106  1  0  0  0
 28107  1  0  0  0
 29108  1  0  0  0
 29109  1  0  0  0
 33 34  1  0  0  0
 33 66  1  0  0  0
 33 70  2  0  0  0
 34 36  1  0  0  0
 34 59  1  0  0  0
 34110  1  0  0  0
 35 44  2  0  0  0
 35 45  1  0  0  0
 35 68  1  0  0  0
 36 56  1  0  0  0
 36111  1  0  0  0
 37 39  1  0  0  0
 37 47  1  0  0  0
 37 66  1  0  0  0
 37112  1  0  0  0
 38 43  2  0  0  0
 38 46  1  0  0  0
 38 47  1  0  0  0
 39 64  1  0  0  0
 39 67  2  0  0  0
 40 52  1  0  0  0
 40 53  2  0  0  0
 40 58  1  0  0  0
 41113  1  0  0  0
 41114  1  0  0  0
 41115  1  0  0  0
 41 48  1  0  0  0
 42 43  1  0  0  0
 42 66  1  0  0  0
 42116  1  0  0  0
 42117  1  0  0  0
 43 44  1  0  0  0
 44118  1  0  0  0
 45 46  2  0  0  0
 45119  1  0  0  0
 46120  1  0  0  0
 47121  1  0  0  0
 47122  1  0  0  0
 48 56  1  0  0  0
 48 65  1  0  0  0
 48123  1  0  0  0
 49 50  1  0  0  0
 49 53  1  0  0  0
 49 64  1  0  0  0
 49124  1  0  0  0
 50 51  1  0  0  0
 50125  1  0  0  0
 50126  1  0  0  0
 51 52  1  0  0  0
 51127  1  0  0  0
 51128  1  0  0  0
 52129  1  0  0  0
 52130  1  0  0  0
 53 54  1  0  0  0
 54 55  2  0  0  0
 54131  1  0  0  0
 55 57  1  0  0  0
 55132  1  0  0  0
 56 69  2  0  0  0
 57 58  2  0  0  0
 57133  1  0  0  0
 58134  1  0  0  0
 59 60  1  0  0  0
 59 61  1  0  0  0
 59 62  1  0  0  0
 60135  1  0  0  0
 60136  1  0  0  0
 60137  1  0  0  0
 61138  1  0  0  0
 61139  1  0  0  0
 61140  1  0  0  0
 62141  1  0  0  0
 62142  1  0  0  0
 62143  1  0  0  0
 63 65  1  0  0  0
 63144  1  0  0  0
 63145  1  0  0  0
 63146  1  0  0  0
 64147  1  0  0  0
 65148  1  0  0  0
 68 84  1  0  0  0
 71 73  2  0  0  0
 71 75  1  0  0  0
 71149  1  0  0  0
 72 74  1  0  0  0
 72 75  2  0  0  0
 72150  1  0  0  0
 73 76  1  0  0  0
 73151  1  0  0  0
 74 76  2  0  0  0
 74152  1  0  0  0
 75 85  1  0  0  0
 76 86  1  0  0  0
 77 80  1  0  0  0
 77 85  1  0  0  0
 77 87  2  0  0  0
 78 82  1  0  0  0
 78 85  1  0  0  0
 78 88  2  0  0  0
 79 83  1  0  0  0
 79 86  1  0  0  0
 79 89  2  0  0  0
 80 81  1  0  0  0
 80153  1  0  0  0
 80154  1  0  0  0
 81 82  1  0  0  0
 81155  1  0  0  0
 81156  1  0  0  0
 82 84  1  0  0  0
 82157  1  0  0  0
 83158  1  0  0  0
 83159  1  0  0  0
 83160  1  0  0  0
 84161  1  0  0  0
 84162  1  0  0  0
M  ISO  4   1 100  68 101  84 101  86 100
M  END
> <chiral flag>
0

> <version>
0

> <s_m_source_file>
/data/baiqing/PycharmProjects/Reinvent-master-3.2/result/LINK_invent/BTK/process_docking_weight1_custom_product_contain_oxygen_bond_distance_aromatic_linkinvent_7_9_3/rearranged_h_0096.sdf

> <i_m_source_file_index>
83

> <r_mmod_Potential_Energy-OPLS-2005>
402.726715087891

> <r_mmod_Stretch_Energy-OPLS-2005>
98.1800308227539

> <r_mmod_Bend_Energy-OPLS-2005>
146.73908996582

> <r_mmod_Torsional_Energy-OPLS-2005>
437.159637451172

> <r_mmod_Improper_Torsional_Energy-OPLS-2005>
25.9744472503662

> <r_mmod_Van_der_Waal_Energy-OPLS-2005>
179.961654663086

> <r_mmod_Electrostatic_Energy-OPLS-2005>
-347.712860107422

> <r_mmod_Solvation_Energy-OPLS-2005>
-212.805633544922

> <b_mmod_Minimization_Converged-OPLS-2005>
0

> <r_mmod_RMS_Derivative-OPLS-2005>
1.00069749355316

$$$$
83
                    3D
 Structure written by MMmdl.
160169  0  0  1  0            999 V2000
  -30.6574  -14.6230   20.5869 C   0  0  0  0  0  0
  -30.4271  -12.3983   19.4655 C   0  0  0  0  0  0
  -29.5140  -12.5493   18.2267 C   0  0  0  0  0  0
  -28.0255  -12.4014   18.6079 C   0  0  0  0  0  0
  -27.6485  -13.2289   19.8638 C   0  0  2  0  0  0
  -28.6830  -13.0270   20.9865 C   0  0  0  0  0  0
  -25.2483  -13.8176   20.5642 C   0  0  0  0  0  0
  -24.1769  -13.0410   20.9157 C   0  0  0  0  0  0
  -24.6373  -11.6888   20.8677 C   0  0  0  0  0  0
  -23.9049  -10.4270   21.0378 C   0  0  0  0  0  0
  -24.3603   -9.4197   21.9167 C   0  0  0  0  0  0
  -23.6285   -8.2221   22.0728 C   0  0  0  0  0  0
  -22.4263   -8.0259   21.3511 C   0  0  0  0  0  0
  -21.9906   -9.0233   20.4604 C   0  0  0  0  0  0
  -22.7233  -10.2116   20.3008 C   0  0  0  0  0  0
  -21.6837   -6.0737   22.5300 C   0  0  0  0  0  0
  -21.4019   -6.5629   23.8239 C   0  0  0  0  0  0
  -21.3666   -5.6773   24.9192 C   0  0  0  0  0  0
  -21.6035   -4.3041   24.7235 C   0  0  0  0  0  0
  -21.8805   -3.8130   23.4369 C   0  0  0  0  0  0
  -21.9184   -4.6960   22.3429 C   0  0  0  0  0  0
  -22.7802  -13.5211   21.1860 C   0  0  0  0  0  0
  -22.1637   -4.2141   21.1006 F   0  0  0  0  0  0
  -21.5622   -3.4527   25.7760 F   0  0  0  0  0  0
  -30.0073  -13.4108   20.4613 N   0  0  0  0  0  0
  -26.2925  -12.9382   20.3239 N   0  0  0  0  0  0
  -25.9291  -11.6503   20.5625 N   0  0  0  0  0  0
  -22.0453  -12.8176   22.0421 N   0  0  0  0  0  0
  -25.4135  -15.1918   20.4111 N   0  0  0  0  0  0
  -31.7632  -14.7906   20.0581 O   0  0  0  0  0  0
  -21.6599   -6.8881   21.4249 O   0  0  0  0  0  0
  -22.3471  -14.5534   20.6762 O   0  0  0  0  0  0
  -24.6273  -31.8573   23.2042 C   0  0  0  0  0  0
  -25.9116  -32.4754   23.8375 C   0  0  1  0  0  0
  -27.1994  -27.3026   20.1316 C   0  0  0  0  0  0
  -25.5920  -33.8570   24.2264 N   0  0  0  0  0  0
  -23.4213  -30.4825   21.5462 C   0  0  2  0  0  0
  -24.8625  -28.9396   20.1108 C   0  0  0  0  0  0
  -22.7476  -29.4610   22.4945 C   0  0  0  0  0  0
  -18.0274  -28.1419   22.8486 C   0  0  0  0  0  0
  -24.1486  -36.7276   23.2636 C   0  0  0  0  0  0
  -25.9649  -30.7823   21.3855 C   0  0  0  0  0  0
  -26.0326  -29.4133   20.7186 C   0  0  0  0  0  0
  -27.2080  -28.6063   20.7147 C   0  0  0  0  0  0
  -26.0114  -26.8822   19.4942 C   0  0  0  0  0  0
  -24.8543  -27.6839   19.4865 C   0  0  0  0  0  0
  -23.6347  -29.8217   20.1598 C   0  0  0  0  0  0
  -25.4115  -36.3054   24.0310 C   0  0  1  0  0  0
  -20.5871  -28.3696   23.1302 C   0  0  2  0  0  0
  -20.6776  -26.9420   22.5435 C   0  0  0  0  0  0
  -19.5746  -26.6401   21.5247 C   0  0  0  0  0  0
  -18.1922  -26.7961   22.1635 C   0  0  0  0  0  0
  -19.1527  -28.8884   23.2882 C   0  0  0  0  0  0
  -18.9442  -30.1500   23.8877 C   0  0  0  0  0  0
  -17.6438  -30.6612   24.0582 C   0  0  0  0  0  0
  -25.9066  -34.9433   23.5086 C   0  0  0  0  0  0
  -16.5330  -29.9098   23.6364 C   0  0  0  0  0  0
  -16.7257  -28.6535   23.0342 C   0  0  0  0  0  0
  -26.4485  -31.6598   25.0782 C   0  0  0  0  0  0
  -25.3726  -31.3694   26.1496 C   0  0  0  0  0  0
  -27.0350  -30.3007   24.6315 C   0  0  0  0  0  0
  -27.5987  -32.4396   25.7584 C   0  0  0  0  0  0
  -27.5581  -37.1784   24.8433 C   0  0  0  0  0  0
  -21.4190  -29.3040   22.3687 N   0  0  0  0  0  0
  -26.4265  -37.3774   23.9423 N   0  0  0  0  0  0
  -24.6890  -31.0587   22.1004 N   0  0  0  0  0  0
  -23.4191  -28.8165   23.3044 O   0  0  0  0  0  0
  -28.3074  -26.4491   20.1588 O   0  0  0  0  0  0
  -26.5635  -34.8889   22.4655 O   0  0  0  0  0  0
  -23.5428  -32.1384   23.7344 O   0  0  0  0  0  0
  -31.1239  -19.3114   20.7487 C   0  0  0  0  0  0
  -28.7874  -19.1841   20.2367 C   0  0  0  0  0  0
  -31.1733  -17.9009   20.9566 C   0  0  0  0  0  0
  -28.8280  -17.7730   20.4784 C   0  0  0  0  0  0
  -29.9413  -20.0168   20.3500 C   0  0  0  0  0  0
  -30.0253  -17.0825   20.8153 C   0  0  0  0  0  0
  -31.0556  -21.9439   19.3371 C   0  0  0  0  0  0
  -28.9628  -22.3964   20.3669 C   0  0  0  0  0  0
  -31.4118  -23.4431   19.2649 C   0  0  0  0  0  0
  -30.5139  -24.3523   20.1030 C   0  0  0  0  0  0
  -29.0605  -23.9332   19.9294 C   0  0  2  0  0  0
  -29.7029  -15.5158   22.6473 C   0  0  0  0  0  0
  -28.1013  -25.0314   20.5726 C   0  0  0  0  0  0
  -29.9623  -21.4821   20.0269 N   0  0  0  0  0  0
  -30.0155  -15.6730   21.2247 N   0  0  0  0  0  0
  -31.8015  -21.1964   18.6906 O   0  0  0  0  0  0
  -27.9637  -22.0517   21.0111 O   0  0  0  0  0  0
  -31.4784  -12.4974   19.1880 H   0  0  0  0  0  0
  -30.3327  -11.3916   19.8789 H   0  0  0  0  0  0
  -29.7801  -11.8164   17.4651 H   0  0  0  0  0  0
  -29.6789  -13.5275   17.7726 H   0  0  0  0  0  0
  -27.8257  -11.3437   18.7844 H   0  0  0  0  0  0
  -27.3930  -12.6951   17.7673 H   0  0  0  0  0  0
  -27.6781  -14.2794   19.5703 H   0  0  0  0  0  0
  -28.6964  -11.9801   21.2962 H   0  0  0  0  0  0
  -28.3686  -13.5705   21.8725 H   0  0  0  0  0  0
  -25.2756   -9.5663   22.4724 H   0  0  0  0  0  0
  -23.9989   -7.4609   22.7456 H   0  0  0  0  0  0
  -21.0830   -8.8749   19.8937 H   0  0  0  0  0  0
  -22.3702  -10.9631   19.6081 H   0  0  0  0  0  0
  -21.2004   -7.6129   23.9762 H   0  0  0  0  0  0
  -21.1496   -6.0494   25.9106 H   0  0  0  0  0  0
  -22.0577   -2.7594   23.2867 H   0  0  0  0  0  0
  -22.4084  -11.9843   22.4790 H   0  0  0  0  0  0
  -21.1063  -13.1158   22.2642 H   0  0  0  0  0  0
  -24.6422  -15.8427   20.5118 H   0  0  0  0  0  0
  -26.2598  -15.6296   20.0721 H   0  0  0  0  0  0
  -26.7207  -32.5378   23.1134 H   0  0  0  0  0  0
  -25.0009  -33.9753   25.0359 H   0  0  0  0  0  0
  -22.7186  -31.3056   21.4028 H   0  0  0  0  0  0
  -23.3778  -35.9575   23.3224 H   0  0  0  0  0  0
  -24.3604  -36.9000   22.2075 H   0  0  0  0  0  0
  -23.7204  -37.6429   23.6730 H   0  0  0  0  0  0
  -26.1220  -31.5573   20.6336 H   0  0  0  0  0  0
  -26.8344  -30.8058   22.0309 H   0  0  0  0  0  0
  -28.1064  -28.9584   21.2016 H   0  0  0  0  0  0
  -25.9569  -25.9201   19.0042 H   0  0  0  0  0  0
  -23.9535  -27.3291   19.0039 H   0  0  0  0  0  0
  -23.7560  -30.5996   19.4054 H   0  0  0  0  0  0
  -22.7548  -29.2506   19.8567 H   0  0  0  0  0  0
  -25.1306  -36.1867   25.0799 H   0  0  0  0  0  0
  -20.9952  -28.3271   24.1418 H   0  0  0  0  0  0
  -20.5730  -26.2288   23.3629 H   0  0  0  0  0  0
  -21.6637  -26.7499   22.1170 H   0  0  0  0  0  0
  -19.6917  -25.6311   21.1280 H   0  0  0  0  0  0
  -19.6706  -27.3219   20.6787 H   0  0  0  0  0  0
  -17.4198  -26.6711   21.4027 H   0  0  0  0  0  0
  -18.0304  -26.0112   22.9031 H   0  0  0  0  0  0
  -19.7916  -30.7359   24.2200 H   0  0  0  0  0  0
  -17.4977  -31.6278   24.5210 H   0  0  0  0  0  0
  -15.5329  -30.2980   23.7747 H   0  0  0  0  0  0
  -15.8647  -28.0890   22.7026 H   0  0  0  0  0  0
  -24.5895  -30.7068   25.7800 H   0  0  0  0  0  0
  -24.8941  -32.2836   26.5014 H   0  0  0  0  0  0
  -25.8069  -30.8793   27.0220 H   0  0  0  0  0  0
  -26.2954  -29.6760   24.1291 H   0  0  0  0  0  0
  -27.3924  -29.7269   25.4883 H   0  0  0  0  0  0
  -27.8878  -30.4260   23.9642 H   0  0  0  0  0  0
  -27.2522  -33.3682   26.2131 H   0  0  0  0  0  0
  -28.3807  -32.7012   25.0450 H   0  0  0  0  0  0
  -28.0636  -31.8574   26.5543 H   0  0  0  0  0  0
  -28.2472  -38.0199   24.7619 H   0  0  0  0  0  0
  -28.1190  -36.2732   24.6064 H   0  0  0  0  0  0
  -27.2315  -37.1184   25.8829 H   0  0  0  0  0  0
  -20.9389  -29.8698   21.6829 H   0  0  0  0  0  0
  -26.0108  -38.2813   24.1505 H   0  0  0  0  0  0
  -32.0525  -19.8475   20.8901 H   0  0  0  0  0  0
  -27.8380  -19.6204   19.9613 H   0  0  0  0  0  0
  -32.1091  -17.4547   21.2652 H   0  0  0  0  0  0
  -27.9036  -17.2159   20.4216 H   0  0  0  0  0  0
  -31.3487  -23.7422   18.2178 H   0  0  0  0  0  0
  -32.4521  -23.5784   19.5615 H   0  0  0  0  0  0
  -30.6487  -25.3866   19.7854 H   0  0  0  0  0  0
  -30.7996  -24.3181   21.1571 H   0  0  0  0  0  0
  -28.8239  -23.9454   18.8631 H   0  0  0  0  0  0
  -28.6302  -15.6369   22.8022 H   0  0  0  0  0  0
  -30.2124  -16.2743   23.2418 H   0  0  0  0  0  0
  -30.0027  -14.5492   23.0560 H   0  0  0  0  0  0
  -28.2225  -25.0070   21.6565 H   0  0  0  0  0  0
  -27.0768  -24.7056   20.4068 H   0  0  0  0  0  0
  1 25  1  0  0  0
  1 30  2  0  0  0
  1 85  1  0  0  0
  2  3  1  0  0  0
  2 25  1  0  0  0
  2 88  1  0  0  0
  2 89  1  0  0  0
  3  4  1  0  0  0
  3 90  1  0  0  0
  3 91  1  0  0  0
  4  5  1  0  0  0
  4 92  1  0  0  0
  4 93  1  0  0  0
  5  6  1  0  0  0
  5 26  1  0  0  0
  5 94  1  0  0  0
  6 25  1  0  0  0
  6 95  1  0  0  0
  6 96  1  0  0  0
  7  8  2  0  0  0
  7 26  1  0  0  0
  7 29  1  0  0  0
  8  9  1  0  0  0
  8 22  1  0  0  0
  9 10  1  0  0  0
  9 27  2  0  0  0
 10 11  2  0  0  0
 10 15  1  0  0  0
 11 12  1  0  0  0
 11 97  1  0  0  0
 12 13  2  0  0  0
 12 98  1  0  0  0
 13 14  1  0  0  0
 13 31  1  0  0  0
 14 15  2  0  0  0
 14 99  1  0  0  0
 15100  1  0  0  0
 16 17  2  0  0  0
 16 21  1  0  0  0
 16 31  1  0  0  0
 17 18  1  0  0  0
 17101  1  0  0  0
 18 19  2  0  0  0
 18102  1  0  0  0
 19 20  1  0  0  0
 19 24  1  0  0  0
 20 21  2  0  0  0
 20103  1  0  0  0
 21 23  1  0  0  0
 22 28  1  0  0  0
 22 32  2  0  0  0
 26 27  1  0  0  0
 28104  1  0  0  0
 28105  1  0  0  0
 29106  1  0  0  0
 29107  1  0  0  0
 33 34  1  0  0  0
 33 66  1  0  0  0
 33 70  2  0  0  0
 34 36  1  0  0  0
 34 59  1  0  0  0
 34108  1  0  0  0
 35 44  2  0  0  0
 35 45  1  0  0  0
 35 68  1  0  0  0
 36 56  1  0  0  0
 36109  1  0  0  0
 37 39  1  0  0  0
 37 47  1  0  0  0
 37 66  1  0  0  0
 37110  1  0  0  0
 38 43  2  0  0  0
 38 46  1  0  0  0
 38 47  1  0  0  0
 39 64  1  0  0  0
 39 67  2  0  0  0
 40 52  1  0  0  0
 40 53  2  0  0  0
 40 58  1  0  0  0
 41111  1  0  0  0
 41112  1  0  0  0
 41113  1  0  0  0
 41 48  1  0  0  0
 42 43  1  0  0  0
 42 66  1  0  0  0
 42114  1  0  0  0
 42115  1  0  0  0
 43 44  1  0  0  0
 44116  1  0  0  0
 45 46  2  0  0  0
 45117  1  0  0  0
 46118  1  0  0  0
 47119  1  0  0  0
 47120  1  0  0  0
 48 56  1  0  0  0
 48 65  1  0  0  0
 48121  1  0  0  0
 49 50  1  0  0  0
 49 53  1  0  0  0
 49 64  1  0  0  0
 49122  1  0  0  0
 50 51  1  0  0  0
 50123  1  0  0  0
 50124  1  0  0  0
 51 52  1  0  0  0
 51125  1  0  0  0
 51126  1  0  0  0
 52127  1  0  0  0
 52128  1  0  0  0
 53 54  1  0  0  0
 54 55  2  0  0  0
 54129  1  0  0  0
 55 57  1  0  0  0
 55130  1  0  0  0
 56 69  2  0  0  0
 57 58  2  0  0  0
 57131  1  0  0  0
 58132  1  0  0  0
 59 60  1  0  0  0
 59 61  1  0  0  0
 59 62  1  0  0  0
 60133  1  0  0  0
 60134  1  0  0  0
 60135  1  0  0  0
 61136  1  0  0  0
 61137  1  0  0  0
 61138  1  0  0  0
 62139  1  0  0  0
 62140  1  0  0  0
 62141  1  0  0  0
 63 65  1  0  0  0
 63142  1  0  0  0
 63143  1  0  0  0
 63144  1  0  0  0
 64145  1  0  0  0
 65146  1  0  0  0
 68 83  1  0  0  0
 71 73  2  0  0  0
 71 75  1  0  0  0
 71147  1  0  0  0
 72 74  1  0  0  0
 72 75  2  0  0  0
 72148  1  0  0  0
 73 76  1  0  0  0
 73149  1  0  0  0
 74 76  2  0  0  0
 74150  1  0  0  0
 75 84  1  0  0  0
 76 85  1  0  0  0
 77 79  1  0  0  0
 77 84  1  0  0  0
 77 86  2  0  0  0
 78 81  1  0  0  0
 78 84  1  0  0  0
 78 87  2  0  0  0
 79 80  1  0  0  0
 79151  1  0  0  0
 79152  1  0  0  0
 80 81  1  0  0  0
 80153  1  0  0  0
 80154  1  0  0  0
 81 83  1  0  0  0
 81155  1  0  0  0
 82 85  1  0  0  0
 82156  1  0  0  0
 82157  1  0  0  0
 82158  1  0  0  0
 83159  1  0  0  0
 83160  1  0  0  0
M  ISO  4   1 100  68 101  83 101  85 100
M  END
> <chiral flag>
0

> <version>
0

> <s_m_source_file>
/data/baiqing/PycharmProjects/Reinvent-master-3.2/result/LINK_invent/BTK/process_docking_weight1_custom_product_contain_oxygen_bond_distance_aromatic_linkinvent_7_9_3/rearranged_h_0096.sdf

> <i_m_source_file_index>
84

> <r_mmod_Potential_Energy-OPLS-2005>
341.974700927734

> <r_mmod_Stretch_Energy-OPLS-2005>
106.823135375977

> <r_mmod_Bend_Energy-OPLS-2005>
152.63395690918

> <r_mmod_Torsional_Energy-OPLS-2005>
361.201446533203

> <r_mmod_Improper_Torsional_Energy-OPLS-2005>
5.42532205581665

> <r_mmod_Van_der_Waal_Energy-OPLS-2005>
172.255615234375

> <r_mmod_Electrostatic_Energy-OPLS-2005>
-283.424224853516

> <r_mmod_Solvation_Energy-OPLS-2005>
-220.232925415039

> <b_mmod_Minimization_Converged-OPLS-2005>
0

> <r_mmod_RMS_Derivative-OPLS-2005>
3.59413528442383

$$$$
84
                    3D
 Structure written by MMmdl.
154162  0  0  1  0            999 V2000
  -30.5738  -14.8718   20.4271 C   0  0  0  0  0  0
  -30.4292  -12.5324   19.5093 C   0  0  0  0  0  0
  -29.5179  -12.5158   18.2621 C   0  0  0  0  0  0
  -28.0490  -12.3145   18.6749 C   0  0  0  0  0  0
  -27.6305  -13.2439   19.8450 C   0  0  2  0  0  0
  -28.6686  -13.2482   20.9884 C   0  0  0  0  0  0
  -25.2455  -13.8209   20.5705 C   0  0  0  0  0  0
  -24.1771  -13.0439   20.9215 C   0  0  0  0  0  0
  -24.6383  -11.6919   20.8754 C   0  0  0  0  0  0
  -23.9069  -10.4291   21.0406 C   0  0  0  0  0  0
  -24.3617   -9.4205   21.9183 C   0  0  0  0  0  0
  -23.6285   -8.2243   22.0753 C   0  0  0  0  0  0
  -22.4267   -8.0279   21.3547 C   0  0  0  0  0  0
  -21.9909   -9.0252   20.4647 C   0  0  0  0  0  0
  -22.7242  -10.2133   20.3053 C   0  0  0  0  0  0
  -21.6847   -6.0734   22.5278 C   0  0  0  0  0  0
  -21.4020   -6.5640   23.8213 C   0  0  0  0  0  0
  -21.3653   -5.6791   24.9171 C   0  0  0  0  0  0
  -21.6044   -4.3054   24.7227 C   0  0  0  0  0  0
  -21.8815   -3.8147   23.4347 C   0  0  0  0  0  0
  -21.9190   -4.6962   22.3403 C   0  0  0  0  0  0
  -22.7792  -13.5206   21.1885 C   0  0  0  0  0  0
  -22.1656   -4.2147   21.0978 F   0  0  0  0  0  0
  -21.5622   -3.4538   25.7740 F   0  0  0  0  0  0
  -29.9576  -13.6283   20.4002 N   0  0  0  0  0  0
  -26.2875  -12.9436   20.3256 N   0  0  0  0  0  0
  -25.9315  -11.6573   20.5752 N   0  0  0  0  0  0
  -22.0449  -12.8183   22.0439 N   0  0  0  0  0  0
  -25.4134  -15.1940   20.4125 N   0  0  0  0  0  0
  -31.7730  -14.9205   20.1339 O   0  0  0  0  0  0
  -21.6634   -6.8878   21.4238 O   0  0  0  0  0  0
  -22.3467  -14.5505   20.6721 O   0  0  0  0  0  0
  -24.6384  -31.8480   23.1910 C   0  0  0  0  0  0
  -25.9174  -32.4717   23.8291 C   0  0  1  0  0  0
  -27.2155  -27.1783   20.1447 C   0  0  0  0  0  0
  -25.5944  -33.8524   24.2223 N   0  0  0  0  0  0
  -23.4398  -30.4677   21.5365 C   0  0  2  0  0  0
  -24.8883  -28.9011   20.1083 C   0  0  0  0  0  0
  -22.7535  -29.4564   22.4874 C   0  0  0  0  0  0
  -18.0299  -28.1388   22.8480 C   0  0  0  0  0  0
  -24.1490  -36.7254   23.2644 C   0  0  0  0  0  0
  -25.9920  -30.7337   21.3847 C   0  0  0  0  0  0
  -26.0636  -29.3501   20.7243 C   0  0  0  0  0  0
  -27.2282  -28.5038   20.7265 C   0  0  0  0  0  0
  -26.0171  -26.8182   19.4915 C   0  0  0  0  0  0
  -24.8754  -27.6475   19.4786 C   0  0  0  0  0  0
  -23.6626  -29.7980   20.1550 C   0  0  0  0  0  0
  -25.4124  -36.3048   24.0323 C   0  0  1  0  0  0
  -20.5906  -28.3712   23.1238 C   0  0  2  0  0  0
  -20.6782  -26.9419   22.5402 C   0  0  0  0  0  0
  -19.5767  -26.6380   21.5204 C   0  0  0  0  0  0
  -18.1949  -26.7931   22.1620 C   0  0  0  0  0  0
  -19.1556  -28.8871   23.2851 C   0  0  0  0  0  0
  -18.9474  -30.1462   23.8879 C   0  0  0  0  0  0
  -17.6472  -30.6588   24.0561 C   0  0  0  0  0  0
  -25.9067  -34.9417   23.5081 C   0  0  0  0  0  0
  -16.5362  -29.9083   23.6339 C   0  0  0  0  0  0
  -16.7284  -28.6502   23.0365 C   0  0  0  0  0  0
  -26.4516  -31.6568   25.0709 C   0  0  0  0  0  0
  -25.3714  -31.3742   26.1413 C   0  0  0  0  0  0
  -27.0382  -30.2973   24.6260 C   0  0  0  0  0  0
  -27.6063  -32.4320   25.7485 C   0  0  0  0  0  0
  -27.5580  -37.1784   24.8468 C   0  0  0  0  0  0
  -21.4235  -29.3046   22.3609 N   0  0  0  0  0  0
  -26.4297  -37.3752   23.9406 N   0  0  0  0  0  0
  -24.7099  -31.0362   22.0933 N   0  0  0  0  0  0
  -23.4195  -28.8111   23.3010 O   0  0  0  0  0  0
  -28.2816  -26.2266   20.2241 O   0  0  0  0  0  0
  -26.5648  -34.8905   22.4656 O   0  0  0  0  0  0
  -23.5510  -32.1346   23.7149 O   0  0  0  0  0  0
  -28.5090  -21.1925   19.6377 C   0  0  0  0  0  0
  -28.7141  -19.7541   19.5158 C   0  0  0  0  0  0
  -30.2286  -19.7963   21.3098 C   0  0  0  0  0  0
  -29.1809  -22.0368   20.5860 C   0  0  0  0  0  0
  -29.6160  -18.9717   20.3238 C   0  0  0  0  0  0
  -30.0374  -21.2260   21.4388 C   0  0  0  0  0  0
  -29.1234  -23.6648   20.6579 C   0  0  0  0  0  0
  -30.1700  -17.3383   18.4113 C   0  0  0  0  0  0
  -28.0429  -24.7107   20.0272 C   0  0  0  0  0  0
  -30.1890  -17.4743   19.9461 C   0  0  2  0  0  0
  -30.7914  -21.8041   22.4597 N   0  0  0  0  0  0
  -29.8209  -16.0664   20.5216 N   0  0  0  0  0  0
  -30.0156  -24.2480   21.2869 O   0  0  0  0  0  0
  -30.3935  -11.5743   20.0298 H   0  0  0  0  0  0
  -31.4690  -12.6650   19.2062 H   0  0  0  0  0  0
  -29.8264  -11.7245   17.5785 H   0  0  0  0  0  0
  -29.6228  -13.4550   17.7166 H   0  0  0  0  0  0
  -27.9366  -11.2716   18.9756 H   0  0  0  0  0  0
  -27.3887  -12.4559   17.8190 H   0  0  0  0  0  0
  -27.6042  -14.2498   19.4258 H   0  0  0  0  0  0
  -28.3781  -13.9544   21.7678 H   0  0  0  0  0  0
  -28.7298  -12.2697   21.4664 H   0  0  0  0  0  0
  -25.2759   -9.5676   22.4767 H   0  0  0  0  0  0
  -23.9987   -7.4628   22.7470 H   0  0  0  0  0  0
  -21.0843   -8.8768   19.8950 H   0  0  0  0  0  0
  -22.3691  -10.9669   19.6165 H   0  0  0  0  0  0
  -21.2023   -7.6152   23.9717 H   0  0  0  0  0  0
  -21.1477   -6.0525   25.9074 H   0  0  0  0  0  0
  -22.0604   -2.7610   23.2847 H   0  0  0  0  0  0
  -22.4060  -11.9836   22.4822 H   0  0  0  0  0  0
  -21.1072  -13.1212   22.2666 H   0  0  0  0  0  0
  -24.6468  -15.8468   20.5289 H   0  0  0  0  0  0
  -26.2587  -15.6367   20.0752 H   0  0  0  0  0  0
  -26.7236  -32.5332   23.1019 H   0  0  0  0  0  0
  -25.0078  -33.9665   25.0360 H   0  0  0  0  0  0
  -22.7409  -31.2922   21.3847 H   0  0  0  0  0  0
  -23.3760  -35.9576   23.3301 H   0  0  0  0  0  0
  -24.3573  -36.8886   22.2058 H   0  0  0  0  0  0
  -23.7230  -37.6444   23.6679 H   0  0  0  0  0  0
  -26.1443  -31.4913   20.6150 H   0  0  0  0  0  0
  -26.8633  -30.7807   22.0261 H   0  0  0  0  0  0
  -28.1246  -28.8423   21.2283 H   0  0  0  0  0  0
  -25.9314  -25.8599   19.0005 H   0  0  0  0  0  0
  -23.9767  -27.3020   18.9877 H   0  0  0  0  0  0
  -23.7923  -30.5733   19.3995 H   0  0  0  0  0  0
  -22.7781  -29.2368   19.8481 H   0  0  0  0  0  0
  -25.1304  -36.1895   25.0816 H   0  0  0  0  0  0
  -21.0005  -28.3309   24.1355 H   0  0  0  0  0  0
  -20.5674  -26.2326   23.3617 H   0  0  0  0  0  0
  -21.6652  -26.7431   22.1202 H   0  0  0  0  0  0
  -19.6931  -25.6287   21.1251 H   0  0  0  0  0  0
  -19.6708  -27.3175   20.6722 H   0  0  0  0  0  0
  -17.4211  -26.6670   21.4026 H   0  0  0  0  0  0
  -18.0353  -26.0072   22.9020 H   0  0  0  0  0  0
  -19.7949  -30.7280   24.2246 H   0  0  0  0  0  0
  -17.5028  -31.6269   24.5157 H   0  0  0  0  0  0
  -15.5366  -30.2983   23.7662 H   0  0  0  0  0  0
  -15.8683  -28.0802   22.7103 H   0  0  0  0  0  0
  -24.5887  -30.7106   25.7716 H   0  0  0  0  0  0
  -24.8906  -32.2920   26.4810 H   0  0  0  0  0  0
  -25.7998  -30.8920   27.0211 H   0  0  0  0  0  0
  -26.2999  -29.6696   24.1264 H   0  0  0  0  0  0
  -27.4006  -29.7266   25.4821 H   0  0  0  0  0  0
  -27.8899  -30.4209   23.9568 H   0  0  0  0  0  0
  -27.2676  -33.3634   26.2036 H   0  0  0  0  0  0
  -28.3892  -32.6870   25.0326 H   0  0  0  0  0  0
  -28.0724  -31.8469   26.5424 H   0  0  0  0  0  0
  -28.2595  -38.0081   24.7510 H   0  0  0  0  0  0
  -28.1084  -36.2612   24.6314 H   0  0  0  0  0  0
  -27.2293  -37.1441   25.8870 H   0  0  0  0  0  0
  -20.9432  -29.8744   21.6780 H   0  0  0  0  0  0
  -26.0169  -38.2824   24.1410 H   0  0  0  0  0  0
  -27.8460  -21.6664   18.9271 H   0  0  0  0  0  0
  -28.2068  -19.2573   18.7018 H   0  0  0  0  0  0
  -30.9465  -19.3152   21.9587 H   0  0  0  0  0  0
  -30.6167  -18.2095   17.9330 H   0  0  0  0  0  0
  -29.1519  -17.2355   18.0340 H   0  0  0  0  0  0
  -30.7331  -16.4705   18.0676 H   0  0  0  0  0  0
  -27.0728  -24.4561   20.4537 H   0  0  0  0  0  0
  -27.9712  -24.5109   18.9577 H   0  0  0  0  0  0
  -31.2426  -17.5678   20.2148 H   0  0  0  0  0  0
  -30.8927  -22.8163   22.4084 H   0  0  0  0  0  0
  -31.6621  -21.3456   22.7118 H   0  0  0  0  0  0
  -28.8583  -15.9521   20.8002 H   0  0  0  0  0  0
  1 25  1  0  0  0
  1 30  2  0  0  0
  1 82  1  0  0  0
  2  3  1  0  0  0
  2 25  1  0  0  0
  2 84  1  0  0  0
  2 85  1  0  0  0
  3  4  1  0  0  0
  3 86  1  0  0  0
  3 87  1  0  0  0
  4  5  1  0  0  0
  4 88  1  0  0  0
  4 89  1  0  0  0
  5  6  1  0  0  0
  5 26  1  0  0  0
  5 90  1  0  0  0
  6 25  1  0  0  0
  6 91  1  0  0  0
  6 92  1  0  0  0
  7  8  2  0  0  0
  7 26  1  0  0  0
  7 29  1  0  0  0
  8  9  1  0  0  0
  8 22  1  0  0  0
  9 10  1  0  0  0
  9 27  2  0  0  0
 10 11  2  0  0  0
 10 15  1  0  0  0
 11 12  1  0  0  0
 11 93  1  0  0  0
 12 13  2  0  0  0
 12 94  1  0  0  0
 13 14  1  0  0  0
 13 31  1  0  0  0
 14 15  2  0  0  0
 14 95  1  0  0  0
 15 96  1  0  0  0
 16 17  2  0  0  0
 16 21  1  0  0  0
 16 31  1  0  0  0
 17 18  1  0  0  0
 17 97  1  0  0  0
 18 19  2  0  0  0
 18 98  1  0  0  0
 19 20  1  0  0  0
 19 24  1  0  0  0
 20 21  2  0  0  0
 20 99  1  0  0  0
 21 23  1  0  0  0
 22 28  1  0  0  0
 22 32  2  0  0  0
 26 27  1  0  0  0
 28100  1  0  0  0
 28101  1  0  0  0
 29102  1  0  0  0
 29103  1  0  0  0
 33 34  1  0  0  0
 33 66  1  0  0  0
 33 70  2  0  0  0
 34 36  1  0  0  0
 34 59  1  0  0  0
 34104  1  0  0  0
 35 44  2  0  0  0
 35 45  1  0  0  0
 35 68  1  0  0  0
 36 56  1  0  0  0
 36105  1  0  0  0
 37 39  1  0  0  0
 37 47  1  0  0  0
 37 66  1  0  0  0
 37106  1  0  0  0
 38 43  2  0  0  0
 38 46  1  0  0  0
 38 47  1  0  0  0
 39 64  1  0  0  0
 39 67  2  0  0  0
 40 52  1  0  0  0
 40 53  2  0  0  0
 40 58  1  0  0  0
 41107  1  0  0  0
 41108  1  0  0  0
 41109  1  0  0  0
 41 48  1  0  0  0
 42 43  1  0  0  0
 42 66  1  0  0  0
 42110  1  0  0  0
 42111  1  0  0  0
 43 44  1  0  0  0
 44112  1  0  0  0
 45 46  2  0  0  0
 45113  1  0  0  0
 46114  1  0  0  0
 47115  1  0  0  0
 47116  1  0  0  0
 48 56  1  0  0  0
 48 65  1  0  0  0
 48117  1  0  0  0
 49 50  1  0  0  0
 49 53  1  0  0  0
 49 64  1  0  0  0
 49118  1  0  0  0
 50 51  1  0  0  0
 50119  1  0  0  0
 50120  1  0  0  0
 51 52  1  0  0  0
 51121  1  0  0  0
 51122  1  0  0  0
 52123  1  0  0  0
 52124  1  0  0  0
 53 54  1  0  0  0
 54 55  2  0  0  0
 54125  1  0  0  0
 55 57  1  0  0  0
 55126  1  0  0  0
 56 69  2  0  0  0
 57 58  2  0  0  0
 57127  1  0  0  0
 58128  1  0  0  0
 59 60  1  0  0  0
 59 61  1  0  0  0
 59 62  1  0  0  0
 60129  1  0  0  0
 60130  1  0  0  0
 60131  1  0  0  0
 61132  1  0  0  0
 61133  1  0  0  0
 61134  1  0  0  0
 62135  1  0  0  0
 62136  1  0  0  0
 62137  1  0  0  0
 63 65  1  0  0  0
 63138  1  0  0  0
 63139  1  0  0  0
 63140  1  0  0  0
 64141  1  0  0  0
 65142  1  0  0  0
 68 79  1  0  0  0
 71 72  2  0  0  0
 71 74  1  0  0  0
 71143  1  0  0  0
 72 75  1  0  0  0
 72144  1  0  0  0
 73 75  2  0  0  0
 73 76  1  0  0  0
 73145  1  0  0  0
 74 76  2  0  0  0
 74 77  1  0  0  0
 75 80  1  0  0  0
 76 81  1  0  0  0
 77 79  1  0  0  0
 77 83  2  0  0  0
 78146  1  0  0  0
 78147  1  0  0  0
 78148  1  0  0  0
 78 80  1  0  0  0
 79149  1  0  0  0
 79150  1  0  0  0
 80 82  1  0  0  0
 80151  1  0  0  0
 81152  1  0  0  0
 81153  1  0  0  0
 82154  1  0  0  0
M  ISO  4   1 100  68 101  79 101  82 100
M  END
> <chiral flag>
0

> <version>
0

> <s_m_source_file>
/data/baiqing/PycharmProjects/Reinvent-master-3.2/result/LINK_invent/BTK/process_docking_weight1_custom_product_contain_oxygen_bond_distance_aromatic_linkinvent_7_9_3/rearranged_h_0096.sdf

> <i_m_source_file_index>
85

> <r_mmod_Potential_Energy-OPLS-2005>
440.855133056641

> <r_mmod_Stretch_Energy-OPLS-2005>
209.607070922852

> <r_mmod_Bend_Energy-OPLS-2005>
238.859313964844

> <r_mmod_Torsional_Energy-OPLS-2005>
249.3740234375

> <r_mmod_Improper_Torsional_Energy-OPLS-2005>
14.0298528671265

> <r_mmod_Van_der_Waal_Energy-OPLS-2005>
142.888870239258

> <r_mmod_Electrostatic_Energy-OPLS-2005>
-328.446136474609

> <r_mmod_Solvation_Energy-OPLS-2005>
-234.514801025391

> <b_mmod_Minimization_Converged-OPLS-2005>
0

> <r_mmod_RMS_Derivative-OPLS-2005>
1.69779133796692

$$$$
85
                    3D
 Structure written by MMmdl.
158167  0  0  1  0            999 V2000
  -30.6015  -14.6433   20.4983 C   0  0  0  0  0  0
  -30.4431  -12.3879   19.4589 C   0  0  0  0  0  0
  -29.5176  -12.5129   18.2281 C   0  0  0  0  0  0
  -28.0336  -12.3655   18.6267 C   0  0  0  0  0  0
  -27.6574  -13.2181   19.8691 C   0  0  2  0  0  0
  -28.7000  -13.0496   20.9976 C   0  0  0  0  0  0
  -25.2569  -13.8167   20.5673 C   0  0  0  0  0  0
  -24.1843  -13.0433   20.9196 C   0  0  0  0  0  0
  -24.6412  -11.6906   20.8729 C   0  0  0  0  0  0
  -23.9083  -10.4291   21.0395 C   0  0  0  0  0  0
  -24.3632   -9.4213   21.9180 C   0  0  0  0  0  0
  -23.6299   -8.2252   22.0749 C   0  0  0  0  0  0
  -22.4286   -8.0286   21.3544 C   0  0  0  0  0  0
  -21.9925   -9.0253   20.4647 C   0  0  0  0  0  0
  -22.7250  -10.2133   20.3050 C   0  0  0  0  0  0
  -21.6859   -6.0745   22.5284 C   0  0  0  0  0  0
  -21.4015   -6.5641   23.8224 C   0  0  0  0  0  0
  -21.3662   -5.6793   24.9178 C   0  0  0  0  0  0
  -21.6054   -4.3054   24.7227 C   0  0  0  0  0  0
  -21.8815   -3.8155   23.4343 C   0  0  0  0  0  0
  -21.9195   -4.6971   22.3405 C   0  0  0  0  0  0
  -22.7864  -13.5231   21.1851 C   0  0  0  0  0  0
  -22.1658   -4.2171   21.0977 F   0  0  0  0  0  0
  -21.5633   -3.4530   25.7735 F   0  0  0  0  0  0
  -30.0181  -13.4029   20.4431 N   0  0  0  0  0  0
  -26.3009  -12.9355   20.3320 N   0  0  0  0  0  0
  -25.9343  -11.6503   20.5749 N   0  0  0  0  0  0
  -22.0503  -12.8223   22.0406 N   0  0  0  0  0  0
  -25.4254  -15.1891   20.4058 N   0  0  0  0  0  0
  -31.7463  -14.8367   20.0758 O   0  0  0  0  0  0
  -21.6638   -6.8884   21.4250 O   0  0  0  0  0  0
  -22.3555  -14.5543   20.6704 O   0  0  0  0  0  0
  -24.6254  -31.8607   23.2022 C   0  0  0  0  0  0
  -25.9104  -32.4778   23.8353 C   0  0  1  0  0  0
  -27.2298  -27.3269   20.1172 C   0  0  0  0  0  0
  -25.5926  -33.8585   24.2277 N   0  0  0  0  0  0
  -23.4178  -30.4840   21.5456 C   0  0  2  0  0  0
  -24.8644  -28.9362   20.1133 C   0  0  0  0  0  0
  -22.7464  -29.4637   22.4951 C   0  0  0  0  0  0
  -18.0289  -28.1374   22.8490 C   0  0  0  0  0  0
  -24.1493  -36.7314   23.2629 C   0  0  0  0  0  0
  -25.9566  -30.7960   21.3672 C   0  0  0  0  0  0
  -26.0324  -29.4213   20.7143 C   0  0  0  0  0  0
  -27.2197  -28.6306   20.7020 C   0  0  0  0  0  0
  -26.0404  -26.8941   19.4897 C   0  0  0  0  0  0
  -24.8704  -27.6781   19.4913 C   0  0  0  0  0  0
  -23.6301  -29.8149   20.1618 C   0  0  0  0  0  0
  -25.4112  -36.3091   24.0321 C   0  0  1  0  0  0
  -20.5886  -28.3695   23.1281 C   0  0  2  0  0  0
  -20.6781  -26.9415   22.5413 C   0  0  0  0  0  0
  -19.5755  -26.6377   21.5219 C   0  0  0  0  0  0
  -18.1933  -26.7912   22.1621 C   0  0  0  0  0  0
  -19.1533  -28.8847   23.2884 C   0  0  0  0  0  0
  -18.9454  -30.1444   23.8903 C   0  0  0  0  0  0
  -17.6451  -30.6579   24.0561 C   0  0  0  0  0  0
  -25.9056  -34.9458   23.5105 C   0  0  0  0  0  0
  -16.5346  -29.9072   23.6316 C   0  0  0  0  0  0
  -16.7275  -28.6481   23.0353 C   0  0  0  0  0  0
  -26.4491  -31.6568   25.0714 C   0  0  0  0  0  0
  -25.3751  -31.3685   26.1458 C   0  0  0  0  0  0
  -27.0299  -30.2983   24.6133 C   0  0  0  0  0  0
  -27.6051  -32.4291   25.7504 C   0  0  0  0  0  0
  -27.5590  -37.1794   24.8441 C   0  0  0  0  0  0
  -21.4182  -29.3054   22.3678 N   0  0  0  0  0  0
  -26.4276  -37.3794   23.9425 N   0  0  0  0  0  0
  -24.6856  -31.0632   22.0959 N   0  0  0  0  0  0
  -23.4183  -28.8177   23.3034 O   0  0  0  0  0  0
  -28.3637  -26.5005   20.1217 O   0  0  0  0  0  0
  -26.5629  -34.8920   22.4677 O   0  0  0  0  0  0
  -23.5422  -32.1399   23.7354 O   0  0  0  0  0  0
  -28.5674  -19.2410   21.2733 C   0  0  0  0  0  0
  -28.7931  -17.8498   21.4780 C   0  0  0  0  0  0
  -30.4794  -17.8488   19.7663 C   0  0  0  0  0  0
  -29.2763  -19.9831   20.2958 C   0  0  0  0  0  0
  -29.7365  -17.1035   20.7248 C   0  0  0  0  0  0
  -30.2518  -19.2497   19.5571 C   0  0  0  0  0  0
  -30.0387  -22.6340   21.8547 C   0  0  0  0  0  0
  -30.8094  -23.9191   22.0939 C   0  0  0  0  0  0
  -30.6985  -24.6342   20.7477 C   0  0  0  0  0  0
  -29.4099  -24.0776   20.1194 C   0  0  2  0  0  0
  -28.8659  -21.4708   19.9420 C   0  0  0  0  0  0
  -28.2008  -25.0631   20.4544 C   0  0  0  0  0  0
  -29.3530  -22.6803   20.7001 N   0  0  0  0  0  0
  -29.7911  -15.6532   20.9429 N   0  0  0  0  0  0
  -30.1221  -21.6786   22.6291 O   0  0  0  0  0  0
  -30.9576  -19.8874   18.5927 F   0  0  0  0  0  0
  -31.4865  -12.5144   19.1655 H   0  0  0  0  0  0
  -30.3741  -11.3887   19.8925 H   0  0  0  0  0  0
  -29.7808  -11.7632   17.4805 H   0  0  0  0  0  0
  -29.6773  -13.4827   17.7539 H   0  0  0  0  0  0
  -27.8484  -11.3100   18.8283 H   0  0  0  0  0  0
  -27.3944  -12.6293   17.7829 H   0  0  0  0  0  0
  -27.6809  -14.2598   19.5484 H   0  0  0  0  0  0
  -28.7105  -12.0198   21.3581 H   0  0  0  0  0  0
  -28.4410  -13.6601   21.8640 H   0  0  0  0  0  0
  -25.2770   -9.5695   22.4757 H   0  0  0  0  0  0
  -24.0016   -7.4648   22.7461 H   0  0  0  0  0  0
  -21.0863   -8.8764   19.8948 H   0  0  0  0  0  0
  -22.3703  -10.9666   19.6159 H   0  0  0  0  0  0
  -21.1996   -7.6148   23.9737 H   0  0  0  0  0  0
  -21.1494   -6.0512   25.9088 H   0  0  0  0  0  0
  -22.0594   -2.7618   23.2834 H   0  0  0  0  0  0
  -22.4083  -11.9867   22.4794 H   0  0  0  0  0  0
  -21.1121  -13.1254   22.2591 H   0  0  0  0  0  0
  -24.6516  -15.8364   20.5078 H   0  0  0  0  0  0
  -26.2654  -15.6324   20.0551 H   0  0  0  0  0  0
  -26.7179  -32.5437   23.1108 H   0  0  0  0  0  0
  -25.0061  -33.9740   25.0413 H   0  0  0  0  0  0
  -22.7127  -31.3059   21.4020 H   0  0  0  0  0  0
  -23.3759  -35.9636   23.3236 H   0  0  0  0  0  0
  -24.3604  -36.8997   22.2055 H   0  0  0  0  0  0
  -23.7228  -37.6493   23.6691 H   0  0  0  0  0  0
  -26.0823  -31.5585   20.5960 H   0  0  0  0  0  0
  -26.8395  -30.8484   21.9927 H   0  0  0  0  0  0
  -28.1199  -29.0068   21.1668 H   0  0  0  0  0  0
  -25.9989  -25.9444   18.9786 H   0  0  0  0  0  0
  -23.9774  -27.3075   19.0070 H   0  0  0  0  0  0
  -23.7420  -30.5902   19.4022 H   0  0  0  0  0  0
  -22.7498  -29.2419   19.8637 H   0  0  0  0  0  0
  -25.1281  -36.1941   25.0803 H   0  0  0  0  0  0
  -20.9985  -28.3277   24.1399 H   0  0  0  0  0  0
  -20.5692  -26.2312   23.3622 H   0  0  0  0  0  0
  -21.6652  -26.7451   22.1205 H   0  0  0  0  0  0
  -19.6931  -25.6289   21.1251 H   0  0  0  0  0  0
  -19.6690  -27.3191   20.6746 H   0  0  0  0  0  0
  -17.4214  -26.6673   21.4015 H   0  0  0  0  0  0
  -18.0327  -26.0046   22.9001 H   0  0  0  0  0  0
  -19.7935  -30.7261   24.2282 H   0  0  0  0  0  0
  -17.5006  -31.6259   24.5162 H   0  0  0  0  0  0
  -15.5352  -30.2977   23.7631 H   0  0  0  0  0  0
  -15.8675  -28.0800   22.7077 H   0  0  0  0  0  0
  -24.5931  -30.7017   25.7809 H   0  0  0  0  0  0
  -24.8944  -32.2834   26.4927 H   0  0  0  0  0  0
  -25.8109  -30.8853   27.0210 H   0  0  0  0  0  0
  -26.2830  -29.6767   24.1171 H   0  0  0  0  0  0
  -27.4005  -29.7206   25.4614 H   0  0  0  0  0  0
  -27.8714  -30.4263   23.9319 H   0  0  0  0  0  0
  -27.2652  -33.3588   26.2081 H   0  0  0  0  0  0
  -28.3873  -32.6841   25.0344 H   0  0  0  0  0  0
  -28.0694  -31.8407   26.5429 H   0  0  0  0  0  0
  -28.2534  -38.0162   24.7575 H   0  0  0  0  0  0
  -28.1148  -36.2695   24.6131 H   0  0  0  0  0  0
  -27.2323  -37.1284   25.8840 H   0  0  0  0  0  0
  -20.9357  -29.8771   21.6885 H   0  0  0  0  0  0
  -26.0150  -38.2852   24.1476 H   0  0  0  0  0  0
  -27.8038  -19.7352   21.8565 H   0  0  0  0  0  0
  -28.1920  -17.3448   22.2217 H   0  0  0  0  0  0
  -31.2071  -17.3472   19.1457 H   0  0  0  0  0  0
  -31.8426  -23.7216   22.3788 H   0  0  0  0  0  0
  -30.3276  -24.4851   22.8910 H   0  0  0  0  0  0
  -31.5585  -24.3806   20.1259 H   0  0  0  0  0  0
  -30.6932  -25.7188   20.8587 H   0  0  0  0  0  0
  -29.5257  -24.0245   19.0366 H   0  0  0  0  0  0
  -27.7772  -21.5107   19.9834 H   0  0  0  0  0  0
  -29.1106  -21.6261   18.8913 H   0  0  0  0  0  0
  -28.0076  -25.0196   21.5270 H   0  0  0  0  0  0
  -27.3158  -24.6414   19.9834 H   0  0  0  0  0  0
  -28.9722  -15.2848   21.4034 H   0  0  0  0  0  0
  1 25  1  0  0  0
  1 30  2  0  0  0
  1 84  1  0  0  0
  2  3  1  0  0  0
  2 25  1  0  0  0
  2 87  1  0  0  0
  2 88  1  0  0  0
  3  4  1  0  0  0
  3 89  1  0  0  0
  3 90  1  0  0  0
  4  5  1  0  0  0
  4 91  1  0  0  0
  4 92  1  0  0  0
  5  6  1  0  0  0
  5 26  1  0  0  0
  5 93  1  0  0  0
  6 25  1  0  0  0
  6 94  1  0  0  0
  6 95  1  0  0  0
  7  8  2  0  0  0
  7 26  1  0  0  0
  7 29  1  0  0  0
  8  9  1  0  0  0
  8 22  1  0  0  0
  9 10  1  0  0  0
  9 27  2  0  0  0
 10 11  2  0  0  0
 10 15  1  0  0  0
 11 12  1  0  0  0
 11 96  1  0  0  0
 12 13  2  0  0  0
 12 97  1  0  0  0
 13 14  1  0  0  0
 13 31  1  0  0  0
 14 15  2  0  0  0
 14 98  1  0  0  0
 15 99  1  0  0  0
 16 17  2  0  0  0
 16 21  1  0  0  0
 16 31  1  0  0  0
 17 18  1  0  0  0
 17100  1  0  0  0
 18 19  2  0  0  0
 18101  1  0  0  0
 19 20  1  0  0  0
 19 24  1  0  0  0
 20 21  2  0  0  0
 20102  1  0  0  0
 21 23  1  0  0  0
 22 28  1  0  0  0
 22 32  2  0  0  0
 26 27  1  0  0  0
 28103  1  0  0  0
 28104  1  0  0  0
 29105  1  0  0  0
 29106  1  0  0  0
 33 34  1  0  0  0
 33 66  1  0  0  0
 33 70  2  0  0  0
 34 36  1  0  0  0
 34 59  1  0  0  0
 34107  1  0  0  0
 35 44  2  0  0  0
 35 45  1  0  0  0
 35 68  1  0  0  0
 36 56  1  0  0  0
 36108  1  0  0  0
 37 39  1  0  0  0
 37 47  1  0  0  0
 37 66  1  0  0  0
 37109  1  0  0  0
 38 43  2  0  0  0
 38 46  1  0  0  0
 38 47  1  0  0  0
 39 64  1  0  0  0
 39 67  2  0  0  0
 40 52  1  0  0  0
 40 53  2  0  0  0
 40 58  1  0  0  0
 41110  1  0  0  0
 41111  1  0  0  0
 41112  1  0  0  0
 41 48  1  0  0  0
 42 43  1  0  0  0
 42 66  1  0  0  0
 42113  1  0  0  0
 42114  1  0  0  0
 43 44  1  0  0  0
 44115  1  0  0  0
 45 46  2  0  0  0
 45116  1  0  0  0
 46117  1  0  0  0
 47118  1  0  0  0
 47119  1  0  0  0
 48 56  1  0  0  0
 48 65  1  0  0  0
 48120  1  0  0  0
 49 50  1  0  0  0
 49 53  1  0  0  0
 49 64  1  0  0  0
 49121  1  0  0  0
 50 51  1  0  0  0
 50122  1  0  0  0
 50123  1  0  0  0
 51 52  1  0  0  0
 51124  1  0  0  0
 51125  1  0  0  0
 52126  1  0  0  0
 52127  1  0  0  0
 53 54  1  0  0  0
 54 55  2  0  0  0
 54128  1  0  0  0
 55 57  1  0  0  0
 55129  1  0  0  0
 56 69  2  0  0  0
 57 58  2  0  0  0
 57130  1  0  0  0
 58131  1  0  0  0
 59 60  1  0  0  0
 59 61  1  0  0  0
 59 62  1  0  0  0
 60132  1  0  0  0
 60133  1  0  0  0
 60134  1  0  0  0
 61135  1  0  0  0
 61136  1  0  0  0
 61137  1  0  0  0
 62138  1  0  0  0
 62139  1  0  0  0
 62140  1  0  0  0
 63 65  1  0  0  0
 63141  1  0  0  0
 63142  1  0  0  0
 63143  1  0  0  0
 64144  1  0  0  0
 65145  1  0  0  0
 68 82  1  0  0  0
 71 72  2  0  0  0
 71 74  1  0  0  0
 71146  1  0  0  0
 72 75  1  0  0  0
 72147  1  0  0  0
 73 75  2  0  0  0
 73 76  1  0  0  0
 73148  1  0  0  0
 74 76  2  0  0  0
 74 81  1  0  0  0
 75 84  1  0  0  0
 76 86  1  0  0  0
 77 78  1  0  0  0
 77 83  1  0  0  0
 77 85  2  0  0  0
 78 79  1  0  0  0
 78149  1  0  0  0
 78150  1  0  0  0
 79 80  1  0  0  0
 79151  1  0  0  0
 79152  1  0  0  0
 80 82  1  0  0  0
 80 83  1  0  0  0
 80153  1  0  0  0
 81 83  1  0  0  0
 81154  1  0  0  0
 81155  1  0  0  0
 82156  1  0  0  0
 82157  1  0  0  0
 84158  1  0  0  0
M  ISO  4   1 100  68 101  82 101  84 100
M  END
> <chiral flag>
0

> <version>
0

> <s_m_source_file>
/data/baiqing/PycharmProjects/Reinvent-master-3.2/result/LINK_invent/BTK/process_docking_weight1_custom_product_contain_oxygen_bond_distance_aromatic_linkinvent_7_9_3/rearranged_h_0096.sdf

> <i_m_source_file_index>
86

> <r_mmod_Potential_Energy-OPLS-2005>
114.560249328613

> <r_mmod_Stretch_Energy-OPLS-2005>
84.0092086791992

> <r_mmod_Bend_Energy-OPLS-2005>
176.352844238281

> <r_mmod_Torsional_Energy-OPLS-2005>
268.269989013672

> <r_mmod_Improper_Torsional_Energy-OPLS-2005>
5.0322265625

> <r_mmod_Van_der_Waal_Energy-OPLS-2005>
135.623748779297

> <r_mmod_Electrostatic_Energy-OPLS-2005>
-374.870056152344

> <r_mmod_Solvation_Energy-OPLS-2005>
-224.99641418457

> <b_mmod_Minimization_Converged-OPLS-2005>
0

> <r_mmod_RMS_Derivative-OPLS-2005>
1.88971030712128

$$$$
86
                    3D
 Structure written by MMmdl.
154162  0  0  1  0            999 V2000
  -30.6921  -14.4972   20.5769 C   0  0  0  0  0  0
  -30.4276  -12.3275   19.4217 C   0  0  0  0  0  0
  -29.4957  -12.5047   18.2052 C   0  0  0  0  0  0
  -28.0188  -12.3539   18.6220 C   0  0  0  0  0  0
  -27.6600  -13.2049   19.8697 C   0  0  2  0  0  0
  -28.7020  -13.0020   20.9920 C   0  0  0  0  0  0
  -25.2602  -13.8150   20.5674 C   0  0  0  0  0  0
  -24.1847  -13.0442   20.9177 C   0  0  0  0  0  0
  -24.6389  -11.6902   20.8731 C   0  0  0  0  0  0
  -23.9056  -10.4292   21.0406 C   0  0  0  0  0  0
  -24.3613   -9.4209   21.9183 C   0  0  0  0  0  0
  -23.6292   -8.2241   22.0753 C   0  0  0  0  0  0
  -22.4272   -8.0282   21.3546 C   0  0  0  0  0  0
  -21.9906   -9.0252   20.4650 C   0  0  0  0  0  0
  -22.7229  -10.2132   20.3056 C   0  0  0  0  0  0
  -21.6854   -6.0737   22.5284 C   0  0  0  0  0  0
  -21.4011   -6.5641   23.8216 C   0  0  0  0  0  0
  -21.3656   -5.6795   24.9179 C   0  0  0  0  0  0
  -21.6041   -4.3057   24.7227 C   0  0  0  0  0  0
  -21.8823   -3.8150   23.4350 C   0  0  0  0  0  0
  -21.9194   -4.6966   22.3407 C   0  0  0  0  0  0
  -22.7876  -13.5247   21.1844 C   0  0  0  0  0  0
  -22.1668   -4.2150   21.0985 F   0  0  0  0  0  0
  -21.5624   -3.4542   25.7739 F   0  0  0  0  0  0
  -30.0272  -13.3177   20.4342 N   0  0  0  0  0  0
  -26.3023  -12.9310   20.3341 N   0  0  0  0  0  0
  -25.9313  -11.6475   20.5757 N   0  0  0  0  0  0
  -22.0518  -12.8234   22.0400 N   0  0  0  0  0  0
  -25.4356  -15.1865   20.4078 N   0  0  0  0  0  0
  -31.8268  -14.6748   20.1236 O   0  0  0  0  0  0
  -21.6641   -6.8876   21.4244 O   0  0  0  0  0  0
  -22.3568  -14.5560   20.6706 O   0  0  0  0  0  0
  -24.6173  -31.8679   23.2109 C   0  0  0  0  0  0
  -25.9060  -32.4819   23.8400 C   0  0  1  0  0  0
  -27.2232  -27.4028   20.0919 C   0  0  0  0  0  0
  -25.5916  -33.8621   24.2332 N   0  0  0  0  0  0
  -23.4051  -30.4943   21.5534 C   0  0  2  0  0  0
  -24.8475  -28.9631   20.1132 C   0  0  0  0  0  0
  -22.7425  -29.4663   22.4991 C   0  0  0  0  0  0
  -18.0276  -28.1374   22.8491 C   0  0  0  0  0  0
  -24.1490  -36.7306   23.2637 C   0  0  0  0  0  0
  -25.9398  -30.8217   21.3717 C   0  0  0  0  0  0
  -26.0131  -29.4571   20.7118 C   0  0  0  0  0  0
  -27.2026  -28.6849   20.6986 C   0  0  0  0  0  0
  -26.0356  -26.9467   19.4681 C   0  0  0  0  0  0
  -24.8553  -27.7074   19.4892 C   0  0  0  0  0  0
  -23.6126  -29.8330   20.1666 C   0  0  0  0  0  0
  -25.4111  -36.3108   24.0335 C   0  0  1  0  0  0
  -20.5870  -28.3662   23.1309 C   0  0  2  0  0  0
  -20.6766  -26.9396   22.5416 C   0  0  0  0  0  0
  -19.5746  -26.6375   21.5215 C   0  0  0  0  0  0
  -18.1922  -26.7921   22.1619 C   0  0  0  0  0  0
  -19.1528  -28.8834   23.2896 C   0  0  0  0  0  0
  -18.9456  -30.1441   23.8902 C   0  0  0  0  0  0
  -17.6458  -30.6580   24.0565 C   0  0  0  0  0  0
  -25.9040  -34.9476   23.5129 C   0  0  0  0  0  0
  -16.5348  -29.9080   23.6334 C   0  0  0  0  0  0
  -16.7264  -28.6501   23.0349 C   0  0  0  0  0  0
  -26.4473  -31.6601   25.0735 C   0  0  0  0  0  0
  -25.3737  -31.3736   26.1490 C   0  0  0  0  0  0
  -27.0288  -30.3033   24.6124 C   0  0  0  0  0  0
  -27.6060  -32.4317   25.7480 C   0  0  0  0  0  0
  -27.5583  -37.1803   24.8464 C   0  0  0  0  0  0
  -21.4150  -29.3031   22.3720 N   0  0  0  0  0  0
  -26.4298  -37.3793   23.9407 N   0  0  0  0  0  0
  -24.6727  -31.0755   22.1027 N   0  0  0  0  0  0
  -23.4191  -28.8205   23.3040 O   0  0  0  0  0  0
  -28.3714  -26.6199   20.1349 O   0  0  0  0  0  0
  -26.5597  -34.8926   22.4686 O   0  0  0  0  0  0
  -23.5360  -32.1443   23.7487 O   0  0  0  0  0  0
  -29.8282  -17.9378   20.9564 C   0  0  0  0  0  0
  -31.3729  -19.3439   22.1168 C   0  0  0  0  0  0
  -30.4495  -16.8103   21.4096 C   0  0  0  0  0  0
  -30.3041  -19.2879   21.2922 C   0  0  0  0  0  0
  -31.5941  -16.9298   22.3348 C   0  0  0  0  0  0
  -29.9803  -21.7496   20.8469 C   0  0  0  0  0  0
  -29.0165  -22.7617   20.1866 C   0  0  0  0  0  0
  -29.3168  -24.2761   20.4443 C   0  0  0  0  0  0
  -28.1992  -25.2007   19.8984 C   0  0  0  0  0  0
  -31.9829  -18.1883   22.6130 N   0  0  0  0  0  0
  -29.6488  -20.4327   20.7641 N   0  0  0  0  0  0
  -29.9685  -15.5173   21.0952 N   0  0  0  0  0  0
  -32.1638  -15.9769   22.8717 O   0  0  0  0  0  0
  -30.9953  -22.1761   21.4022 O   0  0  0  0  0  0
  -31.4702  -12.4369   19.1179 H   0  0  0  0  0  0
  -30.3413  -11.3189   19.8285 H   0  0  0  0  0  0
  -29.7421  -11.7750   17.4326 H   0  0  0  0  0  0
  -29.6523  -13.4877   17.7582 H   0  0  0  0  0  0
  -27.8428  -11.2985   18.8327 H   0  0  0  0  0  0
  -27.3628  -12.6089   17.7888 H   0  0  0  0  0  0
  -27.6995  -14.2492   19.5599 H   0  0  0  0  0  0
  -28.6877  -11.9682   21.3401 H   0  0  0  0  0  0
  -28.4600  -13.6068   21.8670 H   0  0  0  0  0  0
  -25.2760   -9.5687   22.4756 H   0  0  0  0  0  0
  -24.0009   -7.4633   22.7464 H   0  0  0  0  0  0
  -21.0842   -8.8766   19.8955 H   0  0  0  0  0  0
  -22.3689  -10.9670   19.6166 H   0  0  0  0  0  0
  -21.2003   -7.6149   23.9718 H   0  0  0  0  0  0
  -21.1473   -6.0526   25.9079 H   0  0  0  0  0  0
  -22.0602   -2.7612   23.2852 H   0  0  0  0  0  0
  -22.4134  -11.9887   22.4770 H   0  0  0  0  0  0
  -21.1140  -13.1266   22.2613 H   0  0  0  0  0  0
  -24.6699  -15.8441   20.5065 H   0  0  0  0  0  0
  -26.2862  -15.6185   20.0699 H   0  0  0  0  0  0
  -26.7125  -32.5516   23.1155 H   0  0  0  0  0  0
  -25.0095  -33.9793   25.0494 H   0  0  0  0  0  0
  -22.6944  -31.3123   21.4175 H   0  0  0  0  0  0
  -23.3762  -35.9631   23.3304 H   0  0  0  0  0  0
  -24.3590  -36.8916   22.2052 H   0  0  0  0  0  0
  -23.7236  -37.6507   23.6647 H   0  0  0  0  0  0
  -26.0638  -31.5914   20.6085 H   0  0  0  0  0  0
  -26.8240  -30.8659   21.9955 H   0  0  0  0  0  0
  -28.0985  -29.0588   21.1745 H   0  0  0  0  0  0
  -25.9894  -25.9958   18.9584 H   0  0  0  0  0  0
  -23.9606  -27.3217   19.0199 H   0  0  0  0  0  0
  -23.7223  -30.6110   19.4107 H   0  0  0  0  0  0
  -22.7340  -29.2574   19.8686 H   0  0  0  0  0  0
  -25.1292  -36.1972   25.0830 H   0  0  0  0  0  0
  -20.9956  -28.3225   24.1432 H   0  0  0  0  0  0
  -20.5669  -26.2272   23.3607 H   0  0  0  0  0  0
  -21.6636  -26.7434   22.1210 H   0  0  0  0  0  0
  -19.6909  -25.6292   21.1229 H   0  0  0  0  0  0
  -19.6687  -27.3199   20.6762 H   0  0  0  0  0  0
  -17.4196  -26.6680   21.4012 H   0  0  0  0  0  0
  -18.0311  -26.0056   22.9007 H   0  0  0  0  0  0
  -19.7937  -30.7258   24.2258 H   0  0  0  0  0  0
  -17.5018  -31.6262   24.5164 H   0  0  0  0  0  0
  -15.5350  -30.2985   23.7655 H   0  0  0  0  0  0
  -15.8665  -28.0825   22.7052 H   0  0  0  0  0  0
  -24.5891  -30.7098   25.7838 H   0  0  0  0  0  0
  -24.8952  -32.2908   26.4935 H   0  0  0  0  0  0
  -25.8088  -30.8903   27.0248 H   0  0  0  0  0  0
  -26.2825  -29.6808   24.1172 H   0  0  0  0  0  0
  -27.4040  -29.7261   25.4586 H   0  0  0  0  0  0
  -27.8678  -30.4343   23.9288 H   0  0  0  0  0  0
  -27.2695  -33.3629   26.2051 H   0  0  0  0  0  0
  -28.3858  -32.6853   25.0287 H   0  0  0  0  0  0
  -28.0729  -31.8440   26.5394 H   0  0  0  0  0  0
  -28.2609  -38.0093   24.7508 H   0  0  0  0  0  0
  -28.1074  -36.2628   24.6293 H   0  0  0  0  0  0
  -27.2306  -37.1453   25.8869 H   0  0  0  0  0  0
  -20.9304  -29.8765   21.6956 H   0  0  0  0  0  0
  -26.0192  -38.2872   24.1413 H   0  0  0  0  0  0
  -28.9653  -17.8339   20.3139 H   0  0  0  0  0  0
  -31.8500  -20.2429   22.4759 H   0  0  0  0  0  0
  -28.0110  -22.5311   20.5404 H   0  0  0  0  0  0
  -29.0125  -22.5730   19.1127 H   0  0  0  0  0  0
  -30.2695  -24.5465   19.9884 H   0  0  0  0  0  0
  -29.4293  -24.4500   21.5151 H   0  0  0  0  0  0
  -27.2746  -24.8582   20.3662 H   0  0  0  0  0  0
  -28.0970  -25.0369   18.8245 H   0  0  0  0  0  0
  -32.7574  -18.3115   23.2496 H   0  0  0  0  0  0
  -28.8014  -20.2412   20.2466 H   0  0  0  0  0  0
  -29.0004  -15.3319   21.3044 H   0  0  0  0  0  0
  1 25  1  0  0  0
  1 30  2  0  0  0
  1 82  1  0  0  0
  2  3  1  0  0  0
  2 25  1  0  0  0
  2 85  1  0  0  0
  2 86  1  0  0  0
  3  4  1  0  0  0
  3 87  1  0  0  0
  3 88  1  0  0  0
  4  5  1  0  0  0
  4 89  1  0  0  0
  4 90  1  0  0  0
  5  6  1  0  0  0
  5 26  1  0  0  0
  5 91  1  0  0  0
  6 25  1  0  0  0
  6 92  1  0  0  0
  6 93  1  0  0  0
  7  8  2  0  0  0
  7 26  1  0  0  0
  7 29  1  0  0  0
  8  9  1  0  0  0
  8 22  1  0  0  0
  9 10  1  0  0  0
  9 27  2  0  0  0
 10 11  2  0  0  0
 10 15  1  0  0  0
 11 12  1  0  0  0
 11 94  1  0  0  0
 12 13  2  0  0  0
 12 95  1  0  0  0
 13 14  1  0  0  0
 13 31  1  0  0  0
 14 15  2  0  0  0
 14 96  1  0  0  0
 15 97  1  0  0  0
 16 17  2  0  0  0
 16 21  1  0  0  0
 16 31  1  0  0  0
 17 18  1  0  0  0
 17 98  1  0  0  0
 18 19  2  0  0  0
 18 99  1  0  0  0
 19 20  1  0  0  0
 19 24  1  0  0  0
 20 21  2  0  0  0
 20100  1  0  0  0
 21 23  1  0  0  0
 22 28  1  0  0  0
 22 32  2  0  0  0
 26 27  1  0  0  0
 28101  1  0  0  0
 28102  1  0  0  0
 29103  1  0  0  0
 29104  1  0  0  0
 33 34  1  0  0  0
 33 66  1  0  0  0
 33 70  2  0  0  0
 34 36  1  0  0  0
 34 59  1  0  0  0
 34105  1  0  0  0
 35 44  2  0  0  0
 35 45  1  0  0  0
 35 68  1  0  0  0
 36 56  1  0  0  0
 36106  1  0  0  0
 37 39  1  0  0  0
 37 47  1  0  0  0
 37 66  1  0  0  0
 37107  1  0  0  0
 38 43  2  0  0  0
 38 46  1  0  0  0
 38 47  1  0  0  0
 39 64  1  0  0  0
 39 67  2  0  0  0
 40 52  1  0  0  0
 40 53  2  0  0  0
 40 58  1  0  0  0
 41108  1  0  0  0
 41109  1  0  0  0
 41110  1  0  0  0
 41 48  1  0  0  0
 42 43  1  0  0  0
 42 66  1  0  0  0
 42111  1  0  0  0
 42112  1  0  0  0
 43 44  1  0  0  0
 44113  1  0  0  0
 45 46  2  0  0  0
 45114  1  0  0  0
 46115  1  0  0  0
 47116  1  0  0  0
 47117  1  0  0  0
 48 56  1  0  0  0
 48 65  1  0  0  0
 48118  1  0  0  0
 49 50  1  0  0  0
 49 53  1  0  0  0
 49 64  1  0  0  0
 49119  1  0  0  0
 50 51  1  0  0  0
 50120  1  0  0  0
 50121  1  0  0  0
 51 52  1  0  0  0
 51122  1  0  0  0
 51123  1  0  0  0
 52124  1  0  0  0
 52125  1  0  0  0
 53 54  1  0  0  0
 54 55  2  0  0  0
 54126  1  0  0  0
 55 57  1  0  0  0
 55127  1  0  0  0
 56 69  2  0  0  0
 57 58  2  0  0  0
 57128  1  0  0  0
 58129  1  0  0  0
 59 60  1  0  0  0
 59 61  1  0  0  0
 59 62  1  0  0  0
 60130  1  0  0  0
 60131  1  0  0  0
 60132  1  0  0  0
 61133  1  0  0  0
 61134  1  0  0  0
 61135  1  0  0  0
 62136  1  0  0  0
 62137  1  0  0  0
 62138  1  0  0  0
 63 65  1  0  0  0
 63139  1  0  0  0
 63140  1  0  0  0
 63141  1  0  0  0
 64142  1  0  0  0
 65143  1  0  0  0
 68 79  1  0  0  0
 71 73  2  0  0  0
 71 74  1  0  0  0
 71144  1  0  0  0
 72 74  2  0  0  0
 72 80  1  0  0  0
 72145  1  0  0  0
 73 75  1  0  0  0
 73 82  1  0  0  0
 74 81  1  0  0  0
 75 80  1  0  0  0
 75 83  2  0  0  0
 76 77  1  0  0  0
 76 81  1  0  0  0
 76 84  2  0  0  0
 77 78  1  0  0  0
 77146  1  0  0  0
 77147  1  0  0  0
 78 79  1  0  0  0
 78148  1  0  0  0
 78149  1  0  0  0
 79150  1  0  0  0
 79151  1  0  0  0
 80152  1  0  0  0
 81153  1  0  0  0
 82154  1  0  0  0
M  ISO  4   1 100  68 101  79 101  82 100
M  END
> <chiral flag>
0

> <version>
0

> <s_m_source_file>
/data/baiqing/PycharmProjects/Reinvent-master-3.2/result/LINK_invent/BTK/process_docking_weight1_custom_product_contain_oxygen_bond_distance_aromatic_linkinvent_7_9_3/rearranged_h_0096.sdf

> <i_m_source_file_index>
87

> <r_mmod_Potential_Energy-OPLS-2005>
-226.885620117188

> <r_mmod_Stretch_Energy-OPLS-2005>
47.157283782959

> <r_mmod_Bend_Energy-OPLS-2005>
112.028045654297

> <r_mmod_Torsional_Energy-OPLS-2005>
216.931976318359

> <r_mmod_Improper_Torsional_Energy-OPLS-2005>
3.75038242340088

> <r_mmod_Van_der_Waal_Energy-OPLS-2005>
177.255905151367

> <r_mmod_Electrostatic_Energy-OPLS-2005>
-534.111877441406

> <r_mmod_Solvation_Energy-OPLS-2005>
-268.324829101562

> <b_mmod_Minimization_Converged-OPLS-2005>
0

> <r_mmod_RMS_Derivative-OPLS-2005>
0.967876851558685

$$$$
87
                    3D
 Structure written by MMmdl.
161170  0  0  1  0            999 V2000
  -30.6811  -14.4767   20.5967 C   0  0  0  0  0  0
  -30.4330  -12.3162   19.4184 C   0  0  0  0  0  0
  -29.5008  -12.5180   18.2047 C   0  0  0  0  0  0
  -28.0208  -12.3716   18.6132 C   0  0  0  0  0  0
  -27.6657  -13.2010   19.8759 C   0  0  2  0  0  0
  -28.7042  -12.9587   20.9945 C   0  0  0  0  0  0
  -25.2601  -13.8139   20.5608 C   0  0  0  0  0  0
  -24.1863  -13.0439   20.9189 C   0  0  0  0  0  0
  -24.6403  -11.6902   20.8741 C   0  0  0  0  0  0
  -23.9060  -10.4292   21.0415 C   0  0  0  0  0  0
  -24.3610   -9.4206   21.9191 C   0  0  0  0  0  0
  -23.6285   -8.2243   22.0758 C   0  0  0  0  0  0
  -22.4270   -8.0283   21.3549 C   0  0  0  0  0  0
  -21.9905   -9.0257   20.4653 C   0  0  0  0  0  0
  -22.7232  -10.2137   20.3063 C   0  0  0  0  0  0
  -21.6854   -6.0734   22.5279 C   0  0  0  0  0  0
  -21.4011   -6.5638   23.8213 C   0  0  0  0  0  0
  -21.3656   -5.6791   24.9175 C   0  0  0  0  0  0
  -21.6045   -4.3055   24.7226 C   0  0  0  0  0  0
  -21.8819   -3.8145   23.4349 C   0  0  0  0  0  0
  -21.9191   -4.6960   22.3403 C   0  0  0  0  0  0
  -22.7886  -13.5248   21.1845 C   0  0  0  0  0  0
  -22.1662   -4.2147   21.0981 F   0  0  0  0  0  0
  -21.5627   -3.4539   25.7738 F   0  0  0  0  0  0
  -30.0383  -13.2837   20.4550 N   0  0  0  0  0  0
  -26.3036  -12.9297   20.3322 N   0  0  0  0  0  0
  -25.9325  -11.6468   20.5747 N   0  0  0  0  0  0
  -22.0506  -12.8252   22.0393 N   0  0  0  0  0  0
  -25.4294  -15.1838   20.3854 N   0  0  0  0  0  0
  -31.7869  -14.6977   20.0934 O   0  0  0  0  0  0
  -21.6640   -6.8879   21.4242 O   0  0  0  0  0  0
  -22.3582  -14.5553   20.6682 O   0  0  0  0  0  0
  -24.6146  -31.8681   23.2094 C   0  0  0  0  0  0
  -25.9035  -32.4820   23.8390 C   0  0  1  0  0  0
  -27.2305  -27.4306   20.1021 C   0  0  0  0  0  0
  -25.5895  -33.8617   24.2327 N   0  0  0  0  0  0
  -23.4029  -30.4928   21.5491 C   0  0  2  0  0  0
  -24.8485  -28.9559   20.1160 C   0  0  0  0  0  0
  -22.7404  -29.4670   22.4974 C   0  0  0  0  0  0
  -18.0280  -28.1390   22.8498 C   0  0  0  0  0  0
  -24.1485  -36.7315   23.2634 C   0  0  0  0  0  0
  -25.9315  -30.8342   21.3604 C   0  0  0  0  0  0
  -26.0095  -29.4670   20.7103 C   0  0  0  0  0  0
  -27.2068  -28.7139   20.6958 C   0  0  0  0  0  0
  -26.0548  -26.9358   19.4986 C   0  0  0  0  0  0
  -24.8654  -27.6893   19.5063 C   0  0  0  0  0  0
  -23.6121  -29.8251   20.1638 C   0  0  0  0  0  0
  -25.4105  -36.3112   24.0342 C   0  0  1  0  0  0
  -20.5872  -28.3678   23.1317 C   0  0  2  0  0  0
  -20.6777  -26.9416   22.5417 C   0  0  0  0  0  0
  -19.5756  -26.6403   21.5215 C   0  0  0  0  0  0
  -18.1931  -26.7942   22.1625 C   0  0  0  0  0  0
  -19.1530  -28.8850   23.2910 C   0  0  0  0  0  0
  -18.9459  -30.1458   23.8920 C   0  0  0  0  0  0
  -17.6463  -30.6597   24.0581 C   0  0  0  0  0  0
  -25.9041  -34.9478   23.5134 C   0  0  0  0  0  0
  -16.5352  -29.9107   23.6326 C   0  0  0  0  0  0
  -16.7272  -28.6525   23.0342 C   0  0  0  0  0  0
  -26.4465  -31.6593   25.0711 C   0  0  0  0  0  0
  -25.3736  -31.3705   26.1464 C   0  0  0  0  0  0
  -27.0287  -30.3036   24.6070 C   0  0  0  0  0  0
  -27.6046  -32.4300   25.7473 C   0  0  0  0  0  0
  -27.5585  -37.1810   24.8465 C   0  0  0  0  0  0
  -21.4133  -29.3048   22.3715 N   0  0  0  0  0  0
  -26.4290  -37.3796   23.9421 N   0  0  0  0  0  0
  -24.6681  -31.0790   22.0987 N   0  0  0  0  0  0
  -23.4170  -28.8206   23.3014 O   0  0  0  0  0  0
  -28.3892  -26.6836   20.0793 O   0  0  0  0  0  0
  -26.5598  -34.8929   22.4691 O   0  0  0  0  0  0
  -23.5339  -32.1427   23.7496 O   0  0  0  0  0  0
  -31.2324  -18.9940   21.0580 C   0  0  0  0  0  0
  -31.2026  -17.5889   20.8923 C   0  0  0  0  0  0
  -28.9921  -18.9339   22.0041 C   0  0  0  0  0  0
  -30.1368  -19.6752   21.6389 C   0  0  0  0  0  0
  -30.0714  -16.8388   21.3005 C   0  0  0  0  0  0
  -28.9587  -17.5312   21.8380 C   0  0  0  0  0  0
  -29.7119  -22.0335   21.0647 C   0  0  0  0  0  0
  -29.8607  -23.3722   21.2323 C   0  0  0  0  0  0
  -30.7669  -21.4368   23.1584 C   0  0  0  0  0  0
  -30.6298  -23.8965   22.4321 C   0  0  0  0  0  0
  -30.6297  -22.8988   23.5997 C   0  0  0  0  0  0
  -29.4223  -24.4369   20.2210 C   0  0  0  0  0  0
  -28.3078  -25.3959   20.7169 C   0  0  0  0  0  0
  -30.2206  -21.0681   21.9675 N   0  0  0  0  0  0
  -27.8195  -16.8290   22.2371 N   0  0  0  0  0  0
  -29.9709  -15.4119   21.2577 N   0  0  0  0  0  0
  -31.3438  -20.6512   23.9204 O   0  0  0  0  0  0
  -31.4763  -12.4302   19.1184 H   0  0  0  0  0  0
  -30.3452  -11.2988   19.8030 H   0  0  0  0  0  0
  -29.7459  -11.8021   17.4191 H   0  0  0  0  0  0
  -29.6656  -13.5082   17.7763 H   0  0  0  0  0  0
  -27.8320  -11.3140   18.8006 H   0  0  0  0  0  0
  -27.3721  -12.6529   17.7830 H   0  0  0  0  0  0
  -27.7175  -14.2524   19.5918 H   0  0  0  0  0  0
  -28.6840  -11.9133   21.3062 H   0  0  0  0  0  0
  -28.4523  -13.5248   21.8918 H   0  0  0  0  0  0
  -25.2760   -9.5682   22.4760 H   0  0  0  0  0  0
  -23.9996   -7.4637   22.7479 H   0  0  0  0  0  0
  -21.0835   -8.8776   19.8963 H   0  0  0  0  0  0
  -22.3693  -10.9675   19.6166 H   0  0  0  0  0  0
  -21.2004   -7.6148   23.9713 H   0  0  0  0  0  0
  -21.1480   -6.0525   25.9077 H   0  0  0  0  0  0
  -22.0600   -2.7608   23.2849 H   0  0  0  0  0  0
  -22.4101  -11.9912   22.4794 H   0  0  0  0  0  0
  -21.1123  -13.1293   22.2580 H   0  0  0  0  0  0
  -24.6315  -15.8084   20.4315 H   0  0  0  0  0  0
  -26.2100  -15.5855   19.8819 H   0  0  0  0  0  0
  -26.7101  -32.5534   23.1155 H   0  0  0  0  0  0
  -25.0049  -33.9771   25.0474 H   0  0  0  0  0  0
  -22.6936  -31.3110   21.4105 H   0  0  0  0  0  0
  -23.3742  -35.9651   23.3300 H   0  0  0  0  0  0
  -24.3587  -36.8922   22.2049 H   0  0  0  0  0  0
  -23.7241  -37.6523   23.6641 H   0  0  0  0  0  0
  -26.0412  -31.5966   20.5878 H   0  0  0  0  0  0
  -26.8211  -30.8913   21.9762 H   0  0  0  0  0  0
  -28.1058  -29.1072   21.1503 H   0  0  0  0  0  0
  -26.0565  -25.9696   19.0141 H   0  0  0  0  0  0
  -23.9743  -27.2923   19.0405 H   0  0  0  0  0  0
  -23.7232  -30.6003   19.4046 H   0  0  0  0  0  0
  -22.7351  -29.2479   19.8671 H   0  0  0  0  0  0
  -25.1280  -36.1974   25.0836 H   0  0  0  0  0  0
  -20.9983  -28.3249   24.1431 H   0  0  0  0  0  0
  -20.5695  -26.2284   23.3602 H   0  0  0  0  0  0
  -21.6644  -26.7480   22.1196 H   0  0  0  0  0  0
  -19.6919  -25.6319   21.1229 H   0  0  0  0  0  0
  -19.6689  -27.3225   20.6754 H   0  0  0  0  0  0
  -17.4205  -26.6694   21.4021 H   0  0  0  0  0  0
  -18.0335  -26.0083   22.9023 H   0  0  0  0  0  0
  -19.7935  -30.7276   24.2279 H   0  0  0  0  0  0
  -17.5022  -31.6271   24.5196 H   0  0  0  0  0  0
  -15.5356  -30.3026   23.7639 H   0  0  0  0  0  0
  -15.8670  -28.0865   22.7030 H   0  0  0  0  0  0
  -24.5905  -30.7052   25.7813 H   0  0  0  0  0  0
  -24.8924  -32.2859   26.4915 H   0  0  0  0  0  0
  -25.8091  -30.8876   27.0218 H   0  0  0  0  0  0
  -26.2825  -29.6807   24.1119 H   0  0  0  0  0  0
  -27.4064  -29.7263   25.4519 H   0  0  0  0  0  0
  -27.8656  -30.4368   23.9210 H   0  0  0  0  0  0
  -27.2673  -33.3596   26.2072 H   0  0  0  0  0  0
  -28.3842  -32.6858   25.0287 H   0  0  0  0  0  0
  -28.0716  -31.8398   26.5369 H   0  0  0  0  0  0
  -28.2597  -38.0112   24.7527 H   0  0  0  0  0  0
  -28.1087  -36.2648   24.6268 H   0  0  0  0  0  0
  -27.2312  -37.1438   25.8868 H   0  0  0  0  0  0
  -20.9288  -29.8762   21.6936 H   0  0  0  0  0  0
  -26.0180  -38.2873   24.1422 H   0  0  0  0  0  0
  -32.1220  -19.5427   20.7816 H   0  0  0  0  0  0
  -32.0765  -17.1051   20.4824 H   0  0  0  0  0  0
  -28.1540  -19.4479   22.4540 H   0  0  0  0  0  0
  -29.2196  -21.6013   20.2048 H   0  0  0  0  0  0
  -30.2132  -24.8411   22.7786 H   0  0  0  0  0  0
  -31.6521  -24.1098   22.1170 H   0  0  0  0  0  0
  -31.4157  -23.1513   24.3118 H   0  0  0  0  0  0
  -29.6848  -22.9768   24.1387 H   0  0  0  0  0  0
  -29.1023  -23.9597   19.2938 H   0  0  0  0  0  0
  -30.3108  -25.0173   19.9678 H   0  0  0  0  0  0
  -28.3881  -25.5729   21.7888 H   0  0  0  0  0  0
  -27.3428  -24.9091   20.5726 H   0  0  0  0  0  0
  -27.0187  -17.3962   22.4939 H   0  0  0  0  0  0
  -27.5192  -16.0574   21.6538 H   0  0  0  0  0  0
  -29.1242  -15.0689   21.6842 H   0  0  0  0  0  0
  1 25  1  0  0  0
  1 30  2  0  0  0
  1 86  1  0  0  0
  2  3  1  0  0  0
  2 25  1  0  0  0
  2 88  1  0  0  0
  2 89  1  0  0  0
  3  4  1  0  0  0
  3 90  1  0  0  0
  3 91  1  0  0  0
  4  5  1  0  0  0
  4 92  1  0  0  0
  4 93  1  0  0  0
  5  6  1  0  0  0
  5 26  1  0  0  0
  5 94  1  0  0  0
  6 25  1  0  0  0
  6 95  1  0  0  0
  6 96  1  0  0  0
  7  8  2  0  0  0
  7 26  1  0  0  0
  7 29  1  0  0  0
  8  9  1  0  0  0
  8 22  1  0  0  0
  9 10  1  0  0  0
  9 27  2  0  0  0
 10 11  2  0  0  0
 10 15  1  0  0  0
 11 12  1  0  0  0
 11 97  1  0  0  0
 12 13  2  0  0  0
 12 98  1  0  0  0
 13 14  1  0  0  0
 13 31  1  0  0  0
 14 15  2  0  0  0
 14 99  1  0  0  0
 15100  1  0  0  0
 16 17  2  0  0  0
 16 21  1  0  0  0
 16 31  1  0  0  0
 17 18  1  0  0  0
 17101  1  0  0  0
 18 19  2  0  0  0
 18102  1  0  0  0
 19 20  1  0  0  0
 19 24  1  0  0  0
 20 21  2  0  0  0
 20103  1  0  0  0
 21 23  1  0  0  0
 22 28  1  0  0  0
 22 32  2  0  0  0
 26 27  1  0  0  0
 28104  1  0  0  0
 28105  1  0  0  0
 29106  1  0  0  0
 29107  1  0  0  0
 33 34  1  0  0  0
 33 66  1  0  0  0
 33 70  2  0  0  0
 34 36  1  0  0  0
 34 59  1  0  0  0
 34108  1  0  0  0
 35 44  2  0  0  0
 35 45  1  0  0  0
 35 68  1  0  0  0
 36 56  1  0  0  0
 36109  1  0  0  0
 37 39  1  0  0  0
 37 47  1  0  0  0
 37 66  1  0  0  0
 37110  1  0  0  0
 38 43  2  0  0  0
 38 46  1  0  0  0
 38 47  1  0  0  0
 39 64  1  0  0  0
 39 67  2  0  0  0
 40 52  1  0  0  0
 40 53  2  0  0  0
 40 58  1  0  0  0
 41111  1  0  0  0
 41112  1  0  0  0
 41113  1  0  0  0
 41 48  1  0  0  0
 42 43  1  0  0  0
 42 66  1  0  0  0
 42114  1  0  0  0
 42115  1  0  0  0
 43 44  1  0  0  0
 44116  1  0  0  0
 45 46  2  0  0  0
 45117  1  0  0  0
 46118  1  0  0  0
 47119  1  0  0  0
 47120  1  0  0  0
 48 56  1  0  0  0
 48 65  1  0  0  0
 48121  1  0  0  0
 49 50  1  0  0  0
 49 53  1  0  0  0
 49 64  1  0  0  0
 49122  1  0  0  0
 50 51  1  0  0  0
 50123  1  0  0  0
 50124  1  0  0  0
 51 52  1  0  0  0
 51125  1  0  0  0
 51126  1  0  0  0
 52127  1  0  0  0
 52128  1  0  0  0
 53 54  1  0  0  0
 54 55  2  0  0  0
 54129  1  0  0  0
 55 57  1  0  0  0
 55130  1  0  0  0
 56 69  2  0  0  0
 57 58  2  0  0  0
 57131  1  0  0  0
 58132  1  0  0  0
 59 60  1  0  0  0
 59 61  1  0  0  0
 59 62  1  0  0  0
 60133  1  0  0  0
 60134  1  0  0  0
 60135  1  0  0  0
 61136  1  0  0  0
 61137  1  0  0  0
 61138  1  0  0  0
 62139  1  0  0  0
 62140  1  0  0  0
 62141  1  0  0  0
 63 65  1  0  0  0
 63142  1  0  0  0
 63143  1  0  0  0
 63144  1  0  0  0
 64145  1  0  0  0
 65146  1  0  0  0
 68 83  1  0  0  0
 71 72  2  0  0  0
 71 74  1  0  0  0
 71147  1  0  0  0
 72 75  1  0  0  0
 72148  1  0  0  0
 73 74  2  0  0  0
 73 76  1  0  0  0
 73149  1  0  0  0
 74 84  1  0  0  0
 75 76  2  0  0  0
 75 86  1  0  0  0
 76 85  1  0  0  0
 77 78  2  0  0  0
 77 84  1  0  0  0
 77150  1  0  0  0
 78 80  1  0  0  0
 78 82  1  0  0  0
 79 81  1  0  0  0
 79 84  1  0  0  0
 79 87  2  0  0  0
 80 81  1  0  0  0
 80151  1  0  0  0
 80152  1  0  0  0
 81153  1  0  0  0
 81154  1  0  0  0
 82 83  1  0  0  0
 82155  1  0  0  0
 82156  1  0  0  0
 83157  1  0  0  0
 83158  1  0  0  0
 85159  1  0  0  0
 85160  1  0  0  0
 86161  1  0  0  0
M  ISO  4   1 100  68 101  83 101  86 100
M  END
> <chiral flag>
0

> <version>
0

> <s_m_source_file>
/data/baiqing/PycharmProjects/Reinvent-master-3.2/result/LINK_invent/BTK/process_docking_weight1_custom_product_contain_oxygen_bond_distance_aromatic_linkinvent_7_9_3/rearranged_h_0096.sdf

> <i_m_source_file_index>
88

> <r_mmod_Potential_Energy-OPLS-2005>
-32.1804504394531

> <r_mmod_Stretch_Energy-OPLS-2005>
42.1394348144531

> <r_mmod_Bend_Energy-OPLS-2005>
102.996780395508

> <r_mmod_Torsional_Energy-OPLS-2005>
308.200378417969

> <r_mmod_Improper_Torsional_Energy-OPLS-2005>
9.30441951751709

> <r_mmod_Van_der_Waal_Energy-OPLS-2005>
169.830718994141

> <r_mmod_Electrostatic_Energy-OPLS-2005>
-455.382690429688

> <r_mmod_Solvation_Energy-OPLS-2005>
-221.25700378418

> <b_mmod_Minimization_Converged-OPLS-2005>
0

> <r_mmod_RMS_Derivative-OPLS-2005>
1.03653419017792

$$$$
88
                    3D
 Structure written by MMmdl.
161170  0  0  1  0            999 V2000
  -30.6057  -14.6628   20.4750 C   0  0  0  0  0  0
  -30.4442  -12.4036   19.4491 C   0  0  0  0  0  0
  -29.5086  -12.5034   18.2233 C   0  0  0  0  0  0
  -28.0327  -12.3331   18.6386 C   0  0  0  0  0  0
  -27.6489  -13.2120   19.8580 C   0  0  2  0  0  0
  -28.6986  -13.0826   20.9852 C   0  0  0  0  0  0
  -25.2520  -13.8114   20.5717 C   0  0  0  0  0  0
  -24.1791  -13.0386   20.9199 C   0  0  0  0  0  0
  -24.6372  -11.6867   20.8731 C   0  0  0  0  0  0
  -23.9050  -10.4259   21.0393 C   0  0  0  0  0  0
  -24.3600   -9.4181   21.9175 C   0  0  0  0  0  0
  -23.6273   -8.2220   22.0747 C   0  0  0  0  0  0
  -22.4253   -8.0266   21.3547 C   0  0  0  0  0  0
  -21.9890   -9.0238   20.4648 C   0  0  0  0  0  0
  -22.7223  -10.2110   20.3047 C   0  0  0  0  0  0
  -21.6846   -6.0722   22.5277 C   0  0  0  0  0  0
  -21.4010   -6.5625   23.8210 C   0  0  0  0  0  0
  -21.3661   -5.6778   24.9174 C   0  0  0  0  0  0
  -21.6043   -4.3045   24.7225 C   0  0  0  0  0  0
  -21.8820   -3.8137   23.4346 C   0  0  0  0  0  0
  -21.9191   -4.6953   22.3399 C   0  0  0  0  0  0
  -22.7818  -13.5196   21.1861 C   0  0  0  0  0  0
  -22.1662   -4.2141   21.0977 F   0  0  0  0  0  0
  -21.5630   -3.4528   25.7737 F   0  0  0  0  0  0
  -30.0102  -13.4297   20.4152 N   0  0  0  0  0  0
  -26.2955  -12.9307   20.3308 N   0  0  0  0  0  0
  -25.9299  -11.6467   20.5736 N   0  0  0  0  0  0
  -22.0454  -12.8208   22.0423 N   0  0  0  0  0  0
  -25.4170  -15.1828   20.4207 N   0  0  0  0  0  0
  -31.7874  -14.8265   20.1585 O   0  0  0  0  0  0
  -21.6626   -6.8864   21.4241 O   0  0  0  0  0  0
  -22.3517  -14.5512   20.6714 O   0  0  0  0  0  0
  -24.6258  -31.8606   23.2035 C   0  0  0  0  0  0
  -25.9105  -32.4783   23.8369 C   0  0  1  0  0  0
  -27.2273  -27.3304   20.1125 C   0  0  0  0  0  0
  -25.5922  -33.8582   24.2295 N   0  0  0  0  0  0
  -23.4196  -30.4837   21.5469 C   0  0  2  0  0  0
  -24.8669  -28.9406   20.1125 C   0  0  0  0  0  0
  -22.7476  -29.4617   22.4948 C   0  0  0  0  0  0
  -18.0287  -28.1381   22.8478 C   0  0  0  0  0  0
  -24.1487  -36.7292   23.2636 C   0  0  0  0  0  0
  -25.9603  -30.7925   21.3753 C   0  0  0  0  0  0
  -26.0355  -29.4209   20.7184 C   0  0  0  0  0  0
  -27.2202  -28.6272   20.7099 C   0  0  0  0  0  0
  -26.0419  -26.9075   19.4711 C   0  0  0  0  0  0
  -24.8715  -27.6880   19.4802 C   0  0  0  0  0  0
  -23.6342  -29.8192   20.1622 C   0  0  0  0  0  0
  -25.4104  -36.3085   24.0337 C   0  0  1  0  0  0
  -20.5884  -28.3678   23.1283 C   0  0  2  0  0  0
  -20.6772  -26.9402   22.5406 C   0  0  0  0  0  0
  -19.5750  -26.6380   21.5202 C   0  0  0  0  0  0
  -18.1929  -26.7923   22.1614 C   0  0  0  0  0  0
  -19.1539  -28.8847   23.2876 C   0  0  0  0  0  0
  -18.9461  -30.1447   23.8896 C   0  0  0  0  0  0
  -17.6459  -30.6581   24.0558 C   0  0  0  0  0  0
  -25.9045  -34.9453   23.5118 C   0  0  0  0  0  0
  -16.5352  -29.9076   23.6325 C   0  0  0  0  0  0
  -16.7273  -28.6496   23.0347 C   0  0  0  0  0  0
  -26.4490  -31.6588   25.0737 C   0  0  0  0  0  0
  -25.3732  -31.3725   26.1473 C   0  0  0  0  0  0
  -27.0321  -30.3014   24.6177 C   0  0  0  0  0  0
  -27.6066  -32.4313   25.7492 C   0  0  0  0  0  0
  -27.5587  -37.1785   24.8452 C   0  0  0  0  0  0
  -21.4190  -29.3035   22.3684 N   0  0  0  0  0  0
  -26.4279  -37.3785   23.9426 N   0  0  0  0  0  0
  -24.6872  -31.0623   22.0988 N   0  0  0  0  0  0
  -23.4202  -28.8154   23.3025 O   0  0  0  0  0  0
  -28.3418  -26.4806   20.1297 O   0  0  0  0  0  0
  -26.5612  -34.8921   22.4683 O   0  0  0  0  0  0
  -23.5422  -32.1397   23.7361 O   0  0  0  0  0  0
  -28.9581  -19.3374   19.7189 C   0  0  0  0  0  0
  -30.7372  -17.9331   21.3603 C   0  0  0  0  0  0
  -28.9884  -17.9073   19.7039 C   0  0  0  0  0  0
  -29.8016  -20.1172   20.5519 C   0  0  0  0  0  0
  -29.8747  -17.1626   20.5389 C   0  0  0  0  0  0
  -30.6984  -19.3629   21.3750 C   0  0  0  0  0  0
  -30.4621  -23.8495   20.5549 C   0  0  0  0  0  0
  -30.9193  -22.3912   20.3394 C   0  0  0  0  0  0
  -28.5538  -22.4117   20.3043 C   0  0  0  0  0  0
  -29.0276  -23.8949   20.0149 C   0  0  1  0  0  0
  -28.0306  -17.1942   18.7657 C   0  0  0  0  0  0
  -28.1136  -25.0809   20.5584 C   0  0  0  0  0  0
  -29.7407  -21.5634   20.5899 N   0  0  0  0  0  0
  -31.5139  -20.0332   22.2863 N   0  0  0  0  0  0
  -29.7417  -15.7091   20.6736 N   0  0  0  0  0  0
  -31.4835  -12.5399   19.1448 H   0  0  0  0  0  0
  -30.3891  -11.4124   19.9008 H   0  0  0  0  0  0
  -29.7771  -11.7495   17.4825 H   0  0  0  0  0  0
  -29.6429  -13.4709   17.7365 H   0  0  0  0  0  0
  -27.8805  -11.2813   18.8841 H   0  0  0  0  0  0
  -27.3758  -12.5479   17.7953 H   0  0  0  0  0  0
  -27.6566  -14.2409   19.5007 H   0  0  0  0  0  0
  -28.7171  -12.0650   21.3762 H   0  0  0  0  0  0
  -28.4442  -13.7236   21.8311 H   0  0  0  0  0  0
  -25.2742   -9.5658   22.4755 H   0  0  0  0  0  0
  -23.9985   -7.4606   22.7458 H   0  0  0  0  0  0
  -21.0821   -8.8757   19.8947 H   0  0  0  0  0  0
  -22.3684  -10.9649   19.6153 H   0  0  0  0  0  0
  -21.1998   -7.6128   23.9716 H   0  0  0  0  0  0
  -21.1483   -6.0503   25.9078 H   0  0  0  0  0  0
  -22.0597   -2.7595   23.2849 H   0  0  0  0  0  0
  -22.4052  -11.9876   22.4837 H   0  0  0  0  0  0
  -21.1077  -13.1262   22.2620 H   0  0  0  0  0  0
  -24.6457  -15.8306   20.5399 H   0  0  0  0  0  0
  -26.2634  -15.6321   20.1047 H   0  0  0  0  0  0
  -26.7172  -32.5454   23.1119 H   0  0  0  0  0  0
  -25.0081  -33.9731   25.0449 H   0  0  0  0  0  0
  -22.7128  -31.3039   21.4050 H   0  0  0  0  0  0
  -23.3757  -35.9614   23.3275 H   0  0  0  0  0  0
  -24.3599  -36.8931   22.2056 H   0  0  0  0  0  0
  -23.7223  -37.6483   23.6664 H   0  0  0  0  0  0
  -26.0920  -31.5547   20.6063 H   0  0  0  0  0  0
  -26.8407  -30.8415   22.0043 H   0  0  0  0  0  0
  -28.1172  -28.9904   21.1914 H   0  0  0  0  0  0
  -26.0071  -25.9599   18.9538 H   0  0  0  0  0  0
  -23.9810  -27.3182   18.9914 H   0  0  0  0  0  0
  -23.7532  -30.5959   19.4061 H   0  0  0  0  0  0
  -22.7539  -29.2488   19.8598 H   0  0  0  0  0  0
  -25.1273  -36.1941   25.0827 H   0  0  0  0  0  0
  -20.9978  -28.3254   24.1402 H   0  0  0  0  0  0
  -20.5661  -26.2286   23.3603 H   0  0  0  0  0  0
  -21.6646  -26.7429   22.1210 H   0  0  0  0  0  0
  -19.6911  -25.6291   21.1233 H   0  0  0  0  0  0
  -19.6686  -27.3189   20.6733 H   0  0  0  0  0  0
  -17.4196  -26.6665   21.4020 H   0  0  0  0  0  0
  -18.0333  -26.0069   22.9015 H   0  0  0  0  0  0
  -19.7938  -30.7261   24.2269 H   0  0  0  0  0  0
  -17.5016  -31.6263   24.5154 H   0  0  0  0  0  0
  -15.5351  -30.2977   23.7652 H   0  0  0  0  0  0
  -15.8674  -28.0811   22.7067 H   0  0  0  0  0  0
  -24.5911  -30.7059   25.7820 H   0  0  0  0  0  0
  -24.8908  -32.2883   26.4902 H   0  0  0  0  0  0
  -25.8069  -30.8916   27.0252 H   0  0  0  0  0  0
  -26.2882  -29.6777   24.1206 H   0  0  0  0  0  0
  -27.4028  -29.7261   25.4673 H   0  0  0  0  0  0
  -27.8754  -30.4304   23.9389 H   0  0  0  0  0  0
  -27.2698  -33.3621   26.2071 H   0  0  0  0  0  0
  -28.3868  -32.6858   25.0305 H   0  0  0  0  0  0
  -28.0742  -31.8434   26.5403 H   0  0  0  0  0  0
  -28.2563  -38.0125   24.7575 H   0  0  0  0  0  0
  -28.1127  -36.2667   24.6170 H   0  0  0  0  0  0
  -27.2326  -37.1312   25.8856 H   0  0  0  0  0  0
  -20.9366  -29.8769   21.6904 H   0  0  0  0  0  0
  -26.0163  -38.2851   24.1474 H   0  0  0  0  0  0
  -28.2592  -19.8418   19.0681 H   0  0  0  0  0  0
  -31.4023  -17.4152   22.0359 H   0  0  0  0  0  0
  -31.1172  -24.5698   20.0636 H   0  0  0  0  0  0
  -30.4642  -24.0798   21.6215 H   0  0  0  0  0  0
  -31.7658  -22.1596   20.9845 H   0  0  0  0  0  0
  -31.2470  -22.2425   19.3092 H   0  0  0  0  0  0
  -27.9776  -22.0302   19.4602 H   0  0  0  0  0  0
  -27.8946  -22.3905   21.1739 H   0  0  0  0  0  0
  -29.0881  -23.9987   18.9296 H   0  0  0  0  0  0
  -27.7683  -17.8297   17.9188 H   0  0  0  0  0  0
  -27.1088  -16.9476   19.2872 H   0  0  0  0  0  0
  -28.4669  -16.2815   18.3592 H   0  0  0  0  0  0
  -28.1732  -25.0812   21.6471 H   0  0  0  0  0  0
  -27.0902  -24.7735   20.3557 H   0  0  0  0  0  0
  -31.7163  -19.5556   23.1574 H   0  0  0  0  0  0
  -31.2156  -20.9922   22.4388 H   0  0  0  0  0  0
  -28.7939  -15.3902   20.7933 H   0  0  0  0  0  0
  1 25  1  0  0  0
  1 30  2  0  0  0
  1 85  1  0  0  0
  2  3  1  0  0  0
  2 25  1  0  0  0
  2 86  1  0  0  0
  2 87  1  0  0  0
  3  4  1  0  0  0
  3 88  1  0  0  0
  3 89  1  0  0  0
  4  5  1  0  0  0
  4 90  1  0  0  0
  4 91  1  0  0  0
  5  6  1  0  0  0
  5 26  1  0  0  0
  5 92  1  0  0  0
  6 25  1  0  0  0
  6 93  1  0  0  0
  6 94  1  0  0  0
  7  8  2  0  0  0
  7 26  1  0  0  0
  7 29  1  0  0  0
  8  9  1  0  0  0
  8 22  1  0  0  0
  9 10  1  0  0  0
  9 27  2  0  0  0
 10 11  2  0  0  0
 10 15  1  0  0  0
 11 12  1  0  0  0
 11 95  1  0  0  0
 12 13  2  0  0  0
 12 96  1  0  0  0
 13 14  1  0  0  0
 13 31  1  0  0  0
 14 15  2  0  0  0
 14 97  1  0  0  0
 15 98  1  0  0  0
 16 17  2  0  0  0
 16 21  1  0  0  0
 16 31  1  0  0  0
 17 18  1  0  0  0
 17 99  1  0  0  0
 18 19  2  0  0  0
 18100  1  0  0  0
 19 20  1  0  0  0
 19 24  1  0  0  0
 20 21  2  0  0  0
 20101  1  0  0  0
 21 23  1  0  0  0
 22 28  1  0  0  0
 22 32  2  0  0  0
 26 27  1  0  0  0
 28102  1  0  0  0
 28103  1  0  0  0
 29104  1  0  0  0
 29105  1  0  0  0
 33 34  1  0  0  0
 33 66  1  0  0  0
 33 70  2  0  0  0
 34 36  1  0  0  0
 34 59  1  0  0  0
 34106  1  0  0  0
 35 44  2  0  0  0
 35 45  1  0  0  0
 35 68  1  0  0  0
 36 56  1  0  0  0
 36107  1  0  0  0
 37 39  1  0  0  0
 37 47  1  0  0  0
 37 66  1  0  0  0
 37108  1  0  0  0
 38 43  2  0  0  0
 38 46  1  0  0  0
 38 47  1  0  0  0
 39 64  1  0  0  0
 39 67  2  0  0  0
 40 52  1  0  0  0
 40 53  2  0  0  0
 40 58  1  0  0  0
 41109  1  0  0  0
 41110  1  0  0  0
 41111  1  0  0  0
 41 48  1  0  0  0
 42 43  1  0  0  0
 42 66  1  0  0  0
 42112  1  0  0  0
 42113  1  0  0  0
 43 44  1  0  0  0
 44114  1  0  0  0
 45 46  2  0  0  0
 45115  1  0  0  0
 46116  1  0  0  0
 47117  1  0  0  0
 47118  1  0  0  0
 48 56  1  0  0  0
 48 65  1  0  0  0
 48119  1  0  0  0
 49 50  1  0  0  0
 49 53  1  0  0  0
 49 64  1  0  0  0
 49120  1  0  0  0
 50 51  1  0  0  0
 50121  1  0  0  0
 50122  1  0  0  0
 51 52  1  0  0  0
 51123  1  0  0  0
 51124  1  0  0  0
 52125  1  0  0  0
 52126  1  0  0  0
 53 54  1  0  0  0
 54 55  2  0  0  0
 54127  1  0  0  0
 55 57  1  0  0  0
 55128  1  0  0  0
 56 69  2  0  0  0
 57 58  2  0  0  0
 57129  1  0  0  0
 58130  1  0  0  0
 59 60  1  0  0  0
 59 61  1  0  0  0
 59 62  1  0  0  0
 60131  1  0  0  0
 60132  1  0  0  0
 60133  1  0  0  0
 61134  1  0  0  0
 61135  1  0  0  0
 61136  1  0  0  0
 62137  1  0  0  0
 62138  1  0  0  0
 62139  1  0  0  0
 63 65  1  0  0  0
 63140  1  0  0  0
 63141  1  0  0  0
 63142  1  0  0  0
 64143  1  0  0  0
 65144  1  0  0  0
 68 82  1  0  0  0
 71 73  2  0  0  0
 71 74  1  0  0  0
 71145  1  0  0  0
 72 75  2  0  0  0
 72 76  1  0  0  0
 72146  1  0  0  0
 73 75  1  0  0  0
 73 81  1  0  0  0
 74 76  2  0  0  0
 74 83  1  0  0  0
 75 85  1  0  0  0
 76 84  1  0  0  0
 77 78  1  0  0  0
 77 80  1  0  0  0
 77147  1  0  0  0
 77148  1  0  0  0
 78 83  1  0  0  0
 78149  1  0  0  0
 78150  1  0  0  0
 79 80  1  0  0  0
 79 83  1  0  0  0
 79151  1  0  0  0
 79152  1  0  0  0
 80 82  1  0  0  0
 80153  1  0  0  0
 81154  1  0  0  0
 81155  1  0  0  0
 81156  1  0  0  0
 82157  1  0  0  0
 82158  1  0  0  0
 84159  1  0  0  0
 84160  1  0  0  0
 85161  1  0  0  0
M  ISO  4   1 100  68 101  82 101  85 100
M  END
> <chiral flag>
0

> <version>
0

> <s_m_source_file>
/data/baiqing/PycharmProjects/Reinvent-master-3.2/result/LINK_invent/BTK/process_docking_weight1_custom_product_contain_oxygen_bond_distance_aromatic_linkinvent_7_9_3/rearranged_h_0096.sdf

> <i_m_source_file_index>
89

> <r_mmod_Potential_Energy-OPLS-2005>
139.106918334961

> <r_mmod_Stretch_Energy-OPLS-2005>
77.196533203125

> <r_mmod_Bend_Energy-OPLS-2005>
174.860992431641

> <r_mmod_Torsional_Energy-OPLS-2005>
320.17529296875

> <r_mmod_Improper_Torsional_Energy-OPLS-2005>
13.2441234588623

> <r_mmod_Van_der_Waal_Energy-OPLS-2005>
141.834381103516

> <r_mmod_Electrostatic_Energy-OPLS-2005>
-407.174560546875

> <r_mmod_Solvation_Energy-OPLS-2005>
-233.08674621582

> <b_mmod_Minimization_Converged-OPLS-2005>
0

> <r_mmod_RMS_Derivative-OPLS-2005>
1.28649711608887

$$$$
89
                    3D
 Structure written by MMmdl.
159167  0  0  1  0            999 V2000
  -30.4417  -15.2160   20.3727 C   0  0  0  0  0  0
  -30.4475  -12.7628   19.5384 C   0  0  0  0  0  0
  -29.5409  -12.5769   18.2946 C   0  0  0  0  0  0
  -28.0911  -12.2960   18.7197 C   0  0  0  0  0  0
  -27.6233  -13.2669   19.8316 C   0  0  2  0  0  0
  -28.6557  -13.4162   20.9718 C   0  0  0  0  0  0
  -25.2460  -13.8261   20.5719 C   0  0  0  0  0  0
  -24.1811  -13.0458   20.9295 C   0  0  0  0  0  0
  -24.6441  -11.6949   20.8779 C   0  0  0  0  0  0
  -23.9136  -10.4310   21.0414 C   0  0  0  0  0  0
  -24.3662   -9.4215   21.9193 C   0  0  0  0  0  0
  -23.6316   -8.2252   22.0769 C   0  0  0  0  0  0
  -22.4302   -8.0303   21.3558 C   0  0  0  0  0  0
  -21.9941   -9.0285   20.4665 C   0  0  0  0  0  0
  -22.7285  -10.2162   20.3082 C   0  0  0  0  0  0
  -21.6878   -6.0750   22.5270 C   0  0  0  0  0  0
  -21.4024   -6.5640   23.8201 C   0  0  0  0  0  0
  -21.3652   -5.6795   24.9150 C   0  0  0  0  0  0
  -21.6029   -4.3051   24.7207 C   0  0  0  0  0  0
  -21.8814   -3.8152   23.4333 C   0  0  0  0  0  0
  -21.9198   -4.6971   22.3386 C   0  0  0  0  0  0
  -22.7825  -13.5227   21.1869 C   0  0  0  0  0  0
  -22.1658   -4.2158   21.0967 F   0  0  0  0  0  0
  -21.5642   -3.4538   25.7724 F   0  0  0  0  0  0
  -29.9060  -13.9006   20.3620 N   0  0  0  0  0  0
  -26.2892  -12.9527   20.3244 N   0  0  0  0  0  0
  -25.9374  -11.6651   20.5745 N   0  0  0  0  0  0
  -22.0474  -12.8225   22.0424 N   0  0  0  0  0  0
  -25.4065  -15.2006   20.3939 N   0  0  0  0  0  0
  -31.6484  -15.2627   20.0983 O   0  0  0  0  0  0
  -21.6665   -6.8904   21.4245 O   0  0  0  0  0  0
  -22.3554  -14.5527   20.6677 O   0  0  0  0  0  0
  -24.6590  -31.8273   23.1680 C   0  0  0  0  0  0
  -25.9285  -32.4590   23.8147 C   0  0  1  0  0  0
  -27.2305  -26.9650   20.1994 C   0  0  0  0  0  0
  -25.5963  -33.8401   24.2077 N   0  0  0  0  0  0
  -23.4730  -30.4347   21.5189 C   0  0  2  0  0  0
  -24.9293  -28.8228   20.1199 C   0  0  0  0  0  0
  -22.7656  -29.4425   22.4778 C   0  0  0  0  0  0
  -18.0305  -28.1424   22.8493 C   0  0  0  0  0  0
  -24.1508  -36.7225   23.2649 C   0  0  0  0  0  0
  -26.0390  -30.6492   21.3897 C   0  0  0  0  0  0
  -26.1121  -29.2389   20.7430 C   0  0  0  0  0  0
  -27.2621  -28.3340   20.7505 C   0  0  0  0  0  0
  -26.0141  -26.6832   19.5395 C   0  0  0  0  0  0
  -24.9023  -27.5651   19.4941 C   0  0  0  0  0  0
  -23.7125  -29.7456   20.1470 C   0  0  0  0  0  0
  -25.4136  -36.2968   24.0310 C   0  0  1  0  0  0
  -20.5927  -28.3746   23.1182 C   0  0  2  0  0  0
  -20.6711  -26.9390   22.5530 C   0  0  0  0  0  0
  -19.5719  -26.6303   21.5323 C   0  0  0  0  0  0
  -18.1942  -26.7872   22.1821 C   0  0  0  0  0  0
  -19.1577  -28.8934   23.2764 C   0  0  0  0  0  0
  -18.9519  -30.1548   23.8760 C   0  0  0  0  0  0
  -17.6508  -30.6629   24.0538 C   0  0  0  0  0  0
  -25.9092  -34.9352   23.5011 C   0  0  0  0  0  0
  -16.5389  -29.9100   23.6384 C   0  0  0  0  0  0
  -16.7285  -28.6541   23.0371 C   0  0  0  0  0  0
  -26.4560  -31.6502   25.0656 C   0  0  0  0  0  0
  -25.3698  -31.3762   26.1327 C   0  0  0  0  0  0
  -27.0438  -30.2865   24.6354 C   0  0  0  0  0  0
  -27.6042  -32.4299   25.7476 C   0  0  0  0  0  0
  -27.5565  -37.1758   24.8459 C   0  0  0  0  0  0
  -21.4343  -29.2934   22.3463 N   0  0  0  0  0  0
  -26.4277  -37.3691   23.9413 N   0  0  0  0  0  0
  -24.7453  -30.9972   22.0797 N   0  0  0  0  0  0
  -23.4200  -28.8069   23.3063 O   0  0  0  0  0  0
  -28.2760  -25.9127   20.1912 O   0  0  0  0  0  0
  -26.5693  -34.8890   22.4607 O   0  0  0  0  0  0
  -23.5660  -32.1222   23.6788 O   0  0  0  0  0  0
  -28.3971  -20.3736   20.9965 C   0  0  0  0  0  0
  -30.2967  -18.9620   19.6187 C   0  0  0  0  0  0
  -29.0987  -21.3057   20.1251 C   0  0  0  0  0  0
  -28.5968  -18.9000   21.1713 C   0  0  0  0  0  0
  -30.1113  -20.4364   19.4858 C   0  0  0  0  0  0
  -29.5472  -18.0344   20.4503 C   0  0  0  0  0  0
  -29.0211  -23.3044   18.5040 C   0  0  0  0  0  0
  -28.7682  -22.9559   19.7788 C   0  0  0  0  0  0
  -28.0481  -18.8839   23.6505 C   0  0  0  0  0  0
  -28.1554  -24.3317   20.6068 C   0  0  0  0  0  0
  -27.7517  -18.2515   22.2772 C   0  0  1  0  0  0
  -31.0593  -21.0444   18.6597 N   0  0  0  0  0  0
  -29.6063  -16.4160   20.5577 N   0  0  0  0  0  0
  -26.3168  -18.2507   21.9443 N   0  3  0  0  0  0
  -31.4774  -12.9439   19.2256 H   0  0  0  0  0  0
  -30.4848  -11.8458   20.1283 H   0  0  0  0  0  0
  -29.9156  -11.7687   17.6683 H   0  0  0  0  0  0
  -29.5729  -13.4825   17.6865 H   0  0  0  0  0  0
  -28.0515  -11.2707   19.0897 H   0  0  0  0  0  0
  -27.4222  -12.3394   17.8594 H   0  0  0  0  0  0
  -27.5515  -14.2387   19.3416 H   0  0  0  0  0  0
  -28.8058  -12.4745   21.5032 H   0  0  0  0  0  0
  -28.3014  -14.1354   21.7134 H   0  0  0  0  0  0
  -25.2806   -9.5681   22.4758 H   0  0  0  0  0  0
  -24.0022   -7.4640   22.7475 H   0  0  0  0  0  0
  -21.0889   -8.8787   19.8966 H   0  0  0  0  0  0
  -22.3734  -10.9698   19.6201 H   0  0  0  0  0  0
  -21.2023   -7.6152   23.9709 H   0  0  0  0  0  0
  -21.1483   -6.0518   25.9059 H   0  0  0  0  0  0
  -22.0609   -2.7624   23.2807 H   0  0  0  0  0  0
  -22.4083  -11.9855   22.4767 H   0  0  0  0  0  0
  -21.1090  -13.1250   22.2608 H   0  0  0  0  0  0
  -24.5184  -15.6722   20.2507 H   0  0  0  0  0  0
  -26.0725  -15.4499   19.6732 H   0  0  0  0  0  0
  -26.7355  -32.5185   23.0866 H   0  0  0  0  0  0
  -25.0075  -33.9491   25.0198 H   0  0  0  0  0  0
  -22.7851  -31.2651   21.3426 H   0  0  0  0  0  0
  -23.3764  -35.9552   23.3276 H   0  0  0  0  0  0
  -24.3591  -36.8902   22.2063 H   0  0  0  0  0  0
  -23.7257  -37.6410   23.6716 H   0  0  0  0  0  0
  -26.2056  -31.3887   20.6060 H   0  0  0  0  0  0
  -26.9053  -30.7171   22.0367 H   0  0  0  0  0  0
  -28.1692  -28.6649   21.2382 H   0  0  0  0  0  0
  -25.9096  -25.7191   19.0595 H   0  0  0  0  0  0
  -24.0049  -27.2396   18.9875 H   0  0  0  0  0  0
  -23.8654  -30.5109   19.3836 H   0  0  0  0  0  0
  -22.8265  -29.1923   19.8319 H   0  0  0  0  0  0
  -25.1319  -36.1768   25.0786 H   0  0  0  0  0  0
  -21.0001  -28.3424   24.1312 H   0  0  0  0  0  0
  -21.6609  -26.7218   22.1477 H   0  0  0  0  0  0
  -20.5497  -26.2488   23.3881 H   0  0  0  0  0  0
  -19.6874  -25.6195   21.1424 H   0  0  0  0  0  0
  -19.6642  -27.3082   20.6829 H   0  0  0  0  0  0
  -17.4099  -26.6322   21.4385 H   0  0  0  0  0  0
  -18.0515  -26.0157   22.9411 H   0  0  0  0  0  0
  -19.7993  -30.7409   24.2017 H   0  0  0  0  0  0
  -17.5107  -31.6300   24.5168 H   0  0  0  0  0  0
  -15.5410  -30.2996   23.7799 H   0  0  0  0  0  0
  -15.8674  -28.0841   22.7139 H   0  0  0  0  0  0
  -24.5901  -30.7089   25.7665 H   0  0  0  0  0  0
  -24.8891  -32.2982   26.4609 H   0  0  0  0  0  0
  -25.7956  -30.9033   27.0190 H   0  0  0  0  0  0
  -26.3097  -29.6554   24.1357 H   0  0  0  0  0  0
  -27.3985  -29.7203   25.4981 H   0  0  0  0  0  0
  -27.9016  -30.4052   23.9734 H   0  0  0  0  0  0
  -27.2588  -33.3632   26.1936 H   0  0  0  0  0  0
  -28.3918  -32.6815   25.0357 H   0  0  0  0  0  0
  -28.0640  -31.8509   26.5499 H   0  0  0  0  0  0
  -28.2542  -38.0090   24.7491 H   0  0  0  0  0  0
  -28.1096  -36.2608   24.6285 H   0  0  0  0  0  0
  -27.2292  -37.1391   25.8864 H   0  0  0  0  0  0
  -20.9595  -29.8425   21.6444 H   0  0  0  0  0  0
  -26.0138  -38.2756   24.1401 H   0  0  0  0  0  0
  -27.6170  -20.8329   21.5855 H   0  0  0  0  0  0
  -31.0802  -18.5145   19.0237 H   0  0  0  0  0  0
  -29.3629  -22.6130   17.7528 H   0  0  0  0  0  0
  -28.8645  -24.3222   18.1776 H   0  0  0  0  0  0
  -27.7827  -19.9386   23.6986 H   0  0  0  0  0  0
  -29.1124  -18.8101   23.8780 H   0  0  0  0  0  0
  -27.5201  -18.3716   24.4530 H   0  0  0  0  0  0
  -28.6445  -24.2912   21.5787 H   0  0  0  0  0  0
  -27.1069  -24.1265   20.8254 H   0  0  0  0  0  0
  -28.0285  -17.2015   22.3708 H   0  0  0  0  0  0
  -31.5391  -20.4966   17.9511 H   0  0  0  0  0  0
  -30.9120  -22.0132   18.3941 H   0  0  0  0  0  0
  -28.7117  -16.0562   20.8447 H   0  0  0  0  0  0
  -25.9576  -19.1790   21.8254 H   0  0  0  0  0  0
  -25.7931  -17.7985   22.6741 H   0  0  0  0  0  0
  -26.1667  -17.7378   21.0923 H   0  0  0  0  0  0
  1 25  1  0  0  0
  1 30  2  0  0  0
  1 83  1  0  0  0
  2  3  1  0  0  0
  2 25  1  0  0  0
  2 85  1  0  0  0
  2 86  1  0  0  0
  3  4  1  0  0  0
  3 87  1  0  0  0
  3 88  1  0  0  0
  4  5  1  0  0  0
  4 89  1  0  0  0
  4 90  1  0  0  0
  5  6  1  0  0  0
  5 26  1  0  0  0
  5 91  1  0  0  0
  6 25  1  0  0  0
  6 92  1  0  0  0
  6 93  1  0  0  0
  7  8  2  0  0  0
  7 26  1  0  0  0
  7 29  1  0  0  0
  8  9  1  0  0  0
  8 22  1  0  0  0
  9 10  1  0  0  0
  9 27  2  0  0  0
 10 11  2  0  0  0
 10 15  1  0  0  0
 11 12  1  0  0  0
 11 94  1  0  0  0
 12 13  2  0  0  0
 12 95  1  0  0  0
 13 14  1  0  0  0
 13 31  1  0  0  0
 14 15  2  0  0  0
 14 96  1  0  0  0
 15 97  1  0  0  0
 16 17  2  0  0  0
 16 21  1  0  0  0
 16 31  1  0  0  0
 17 18  1  0  0  0
 17 98  1  0  0  0
 18 19  2  0  0  0
 18 99  1  0  0  0
 19 20  1  0  0  0
 19 24  1  0  0  0
 20 21  2  0  0  0
 20100  1  0  0  0
 21 23  1  0  0  0
 22 28  1  0  0  0
 22 32  2  0  0  0
 26 27  1  0  0  0
 28101  1  0  0  0
 28102  1  0  0  0
 29103  1  0  0  0
 29104  1  0  0  0
 33 34  1  0  0  0
 33 66  1  0  0  0
 33 70  2  0  0  0
 34 36  1  0  0  0
 34 59  1  0  0  0
 34105  1  0  0  0
 35 44  2  0  0  0
 35 45  1  0  0  0
 35 68  1  0  0  0
 36 56  1  0  0  0
 36106  1  0  0  0
 37 39  1  0  0  0
 37 47  1  0  0  0
 37 66  1  0  0  0
 37107  1  0  0  0
 38 43  2  0  0  0
 38 46  1  0  0  0
 38 47  1  0  0  0
 39 64  1  0  0  0
 39 67  2  0  0  0
 40 52  1  0  0  0
 40 53  2  0  0  0
 40 58  1  0  0  0
 41108  1  0  0  0
 41109  1  0  0  0
 41110  1  0  0  0
 41 48  1  0  0  0
 42 43  1  0  0  0
 42 66  1  0  0  0
 42111  1  0  0  0
 42112  1  0  0  0
 43 44  1  0  0  0
 44113  1  0  0  0
 45 46  2  0  0  0
 45114  1  0  0  0
 46115  1  0  0  0
 47116  1  0  0  0
 47117  1  0  0  0
 48 56  1  0  0  0
 48 65  1  0  0  0
 48118  1  0  0  0
 49 50  1  0  0  0
 49 53  1  0  0  0
 49 64  1  0  0  0
 49119  1  0  0  0
 50 51  1  0  0  0
 50120  1  0  0  0
 50121  1  0  0  0
 51 52  1  0  0  0
 51122  1  0  0  0
 51123  1  0  0  0
 52124  1  0  0  0
 52125  1  0  0  0
 53 54  1  0  0  0
 54 55  2  0  0  0
 54126  1  0  0  0
 55 57  1  0  0  0
 55127  1  0  0  0
 56 69  2  0  0  0
 57 58  2  0  0  0
 57128  1  0  0  0
 58129  1  0  0  0
 59 60  1  0  0  0
 59 61  1  0  0  0
 59 62  1  0  0  0
 60130  1  0  0  0
 60131  1  0  0  0
 60132  1  0  0  0
 61133  1  0  0  0
 61134  1  0  0  0
 61135  1  0  0  0
 62136  1  0  0  0
 62137  1  0  0  0
 62138  1  0  0  0
 63 65  1  0  0  0
 63139  1  0  0  0
 63140  1  0  0  0
 63141  1  0  0  0
 64142  1  0  0  0
 65143  1  0  0  0
 68 80  1  0  0  0
 71 73  2  0  0  0
 71 74  1  0  0  0
 71144  1  0  0  0
 72 75  2  0  0  0
 72 76  1  0  0  0
 72145  1  0  0  0
 73 75  1  0  0  0
 73 78  1  0  0  0
 74 76  2  0  0  0
 74 81  1  0  0  0
 75 82  1  0  0  0
 76 83  1  0  0  0
 77 78  2  0  0  0
 77146  1  0  0  0
 77147  1  0  0  0
 78 80  1  0  0  0
 79148  1  0  0  0
 79149  1  0  0  0
 79150  1  0  0  0
 79 81  1  0  0  0
 80151  1  0  0  0
 80152  1  0  0  0
 81 84  1  0  0  0
 81153  1  0  0  0
 82154  1  0  0  0
 82155  1  0  0  0
 83156  1  0  0  0
 84157  1  0  0  0
 84158  1  0  0  0
 84159  1  0  0  0
M  CHG  1  84   1
M  ISO  4   1 100  68 101  80 101  83 100
M  END
> <chiral flag>
0

> <version>
0

> <s_m_source_file>
/data/baiqing/PycharmProjects/Reinvent-master-3.2/result/LINK_invent/BTK/process_docking_weight1_custom_product_contain_oxygen_bond_distance_aromatic_linkinvent_7_9_3/rearranged_h_0096.sdf

> <i_m_source_file_index>
90

> <r_mmod_Potential_Energy-OPLS-2005>
875.078857421875

> <r_mmod_Stretch_Energy-OPLS-2005>
501.733428955078

> <r_mmod_Bend_Energy-OPLS-2005>
425.678588867188

> <r_mmod_Torsional_Energy-OPLS-2005>
246.465927124023

> <r_mmod_Improper_Torsional_Energy-OPLS-2005>
11.5356941223145

> <r_mmod_Van_der_Waal_Energy-OPLS-2005>
132.238067626953

> <r_mmod_Electrostatic_Energy-OPLS-2005>
-315.248413085938

> <r_mmod_Solvation_Energy-OPLS-2005>
-527.0439453125

> <b_mmod_Minimization_Converged-OPLS-2005>
0

> <r_mmod_RMS_Derivative-OPLS-2005>
4.25222969055176

$$$$
90
                    3D
 Structure written by MMmdl.
158166  0  0  1  0            999 V2000
  -30.7074  -14.6027   20.4948 C   0  0  0  0  0  0
  -30.4135  -12.3760   19.4521 C   0  0  0  0  0  0
  -29.4942  -12.4925   18.2201 C   0  0  0  0  0  0
  -28.0202  -12.3414   18.6381 C   0  0  0  0  0  0
  -27.6463  -13.2298   19.8557 C   0  0  2  0  0  0
  -28.6940  -13.1316   20.9868 C   0  0  0  0  0  0
  -25.2523  -13.8202   20.5701 C   0  0  0  0  0  0
  -24.1805  -13.0444   20.9189 C   0  0  0  0  0  0
  -24.6399  -11.6925   20.8746 C   0  0  0  0  0  0
  -23.9072  -10.4297   21.0403 C   0  0  0  0  0  0
  -24.3621   -9.4212   21.9182 C   0  0  0  0  0  0
  -23.6295   -8.2246   22.0753 C   0  0  0  0  0  0
  -22.4278   -8.0281   21.3540 C   0  0  0  0  0  0
  -21.9914   -9.0256   20.4640 C   0  0  0  0  0  0
  -22.7245  -10.2137   20.3052 C   0  0  0  0  0  0
  -21.6856   -6.0732   22.5277 C   0  0  0  0  0  0
  -21.4014   -6.5637   23.8210 C   0  0  0  0  0  0
  -21.3660   -5.6790   24.9171 C   0  0  0  0  0  0
  -21.6047   -4.3054   24.7223 C   0  0  0  0  0  0
  -21.8821   -3.8146   23.4345 C   0  0  0  0  0  0
  -21.9191   -4.6958   22.3399 C   0  0  0  0  0  0
  -22.7826  -13.5224   21.1853 C   0  0  0  0  0  0
  -22.1662   -4.2144   21.0976 F   0  0  0  0  0  0
  -21.5628   -3.4540   25.7738 F   0  0  0  0  0  0
  -30.0068  -13.4308   20.4029 N   0  0  0  0  0  0
  -26.2964  -12.9415   20.3326 N   0  0  0  0  0  0
  -25.9335  -11.6553   20.5777 N   0  0  0  0  0  0
  -22.0478  -12.8204   22.0410 N   0  0  0  0  0  0
  -25.4211  -15.1924   20.4145 N   0  0  0  0  0  0
  -31.8892  -14.6539   20.1504 O   0  0  0  0  0  0
  -21.6643   -6.8877   21.4239 O   0  0  0  0  0  0
  -22.3499  -14.5523   20.6700 O   0  0  0  0  0  0
  -24.6252  -31.8633   23.2074 C   0  0  0  0  0  0
  -25.9109  -32.4798   23.8380 C   0  0  1  0  0  0
  -27.2144  -27.3330   20.1075 C   0  0  0  0  0  0
  -25.5934  -33.8597   24.2309 N   0  0  0  0  0  0
  -23.4172  -30.4896   21.5513 C   0  0  2  0  0  0
  -24.8606  -28.9555   20.1097 C   0  0  0  0  0  0
  -22.7466  -29.4634   22.4954 C   0  0  0  0  0  0
  -18.0290  -28.1379   22.8483 C   0  0  0  0  0  0
  -24.1491  -36.7293   23.2638 C   0  0  0  0  0  0
  -25.9589  -30.7980   21.3785 C   0  0  0  0  0  0
  -26.0318  -29.4294   20.7148 C   0  0  0  0  0  0
  -27.2138  -28.6302   20.7046 C   0  0  0  0  0  0
  -26.0178  -26.9196   19.4708 C   0  0  0  0  0  0
  -24.8553  -27.7057   19.4788 C   0  0  0  0  0  0
  -23.6297  -29.8335   20.1635 C   0  0  0  0  0  0
  -25.4113  -36.3090   24.0335 C   0  0  1  0  0  0
  -20.5883  -28.3682   23.1283 C   0  0  2  0  0  0
  -20.6778  -26.9409   22.5403 C   0  0  0  0  0  0
  -19.5749  -26.6384   21.5208 C   0  0  0  0  0  0
  -18.1927  -26.7920   22.1621 C   0  0  0  0  0  0
  -19.1540  -28.8848   23.2879 C   0  0  0  0  0  0
  -18.9465  -30.1448   23.8892 C   0  0  0  0  0  0
  -17.6466  -30.6586   24.0556 C   0  0  0  0  0  0
  -25.9053  -34.9460   23.5117 C   0  0  0  0  0  0
  -16.5357  -29.9081   23.6331 C   0  0  0  0  0  0
  -16.7274  -28.6498   23.0353 C   0  0  0  0  0  0
  -26.4498  -31.6594   25.0740 C   0  0  0  0  0  0
  -25.3733  -31.3718   26.1465 C   0  0  0  0  0  0
  -27.0346  -30.3023   24.6182 C   0  0  0  0  0  0
  -27.6061  -32.4321   25.7506 C   0  0  0  0  0  0
  -27.5582  -37.1800   24.8465 C   0  0  0  0  0  0
  -21.4184  -29.3038   22.3686 N   0  0  0  0  0  0
  -26.4294  -37.3781   23.9412 N   0  0  0  0  0  0
  -24.6862  -31.0652   22.1031 N   0  0  0  0  0  0
  -23.4196  -28.8160   23.3017 O   0  0  0  0  0  0
  -28.3192  -26.4681   20.1664 O   0  0  0  0  0  0
  -26.5615  -34.8919   22.4678 O   0  0  0  0  0  0
  -23.5416  -32.1435   23.7404 O   0  0  0  0  0  0
  -30.6497  -19.5081   19.9397 C   0  0  0  0  0  0
  -28.3822  -20.2214   21.3568 C   0  0  0  0  0  0
  -30.0207  -18.4887   20.7081 C   0  0  0  0  0  0
  -28.8613  -18.8791   21.4243 C   0  0  0  0  0  0
  -29.0259  -21.2476   20.6093 C   0  0  0  0  0  0
  -30.1795  -20.8609   19.8715 C   0  0  0  0  0  0
  -31.8499  -21.4346   18.2289 C   0  0  0  0  0  0
  -30.7418  -17.0972   20.8347 C   0  0  0  0  0  0
  -29.0693  -23.9017   20.4306 C   0  0  0  0  0  0
  -28.0152  -25.0262   20.0683 C   0  0  0  0  0  0
  -28.1959  -17.9613   22.2379 N   0  0  0  0  0  0
  -28.4372  -22.5579   20.6116 N   0  0  0  0  0  0
  -30.0462  -15.7651   20.7845 N   0  0  0  0  0  0
  -30.7938  -21.8243   19.0974 O   0  0  0  0  0  0
  -31.4581  -12.4594   19.1470 H   0  0  0  0  0  0
  -30.3176  -11.3925   19.9147 H   0  0  0  0  0  0
  -29.7516  -11.7310   17.4828 H   0  0  0  0  0  0
  -29.6455  -13.4569   17.7324 H   0  0  0  0  0  0
  -27.8575  -11.2914   18.8837 H   0  0  0  0  0  0
  -27.3632  -12.5608   17.7956 H   0  0  0  0  0  0
  -27.6534  -14.2585   19.4943 H   0  0  0  0  0  0
  -28.6971  -12.1339   21.4279 H   0  0  0  0  0  0
  -28.4544  -13.8239   21.7957 H   0  0  0  0  0  0
  -25.2766   -9.5686   22.4761 H   0  0  0  0  0  0
  -23.9999   -7.4639   22.7480 H   0  0  0  0  0  0
  -21.0842   -8.8778   19.8949 H   0  0  0  0  0  0
  -22.3702  -10.9674   19.6162 H   0  0  0  0  0  0
  -21.2012   -7.6148   23.9708 H   0  0  0  0  0  0
  -21.1479   -6.0523   25.9071 H   0  0  0  0  0  0
  -22.0600   -2.7608   23.2848 H   0  0  0  0  0  0
  -22.4099  -11.9865   22.4792 H   0  0  0  0  0  0
  -21.1098  -13.1221   22.2631 H   0  0  0  0  0  0
  -24.6631  -15.8517   20.5527 H   0  0  0  0  0  0
  -26.2898  -15.6420   20.1517 H   0  0  0  0  0  0
  -26.7177  -32.5481   23.1126 H   0  0  0  0  0  0
  -25.0079  -33.9742   25.0451 H   0  0  0  0  0  0
  -22.7116  -31.3111   21.4131 H   0  0  0  0  0  0
  -23.3763  -35.9619   23.3303 H   0  0  0  0  0  0
  -24.3576  -36.8911   22.2052 H   0  0  0  0  0  0
  -23.7233  -37.6491   23.6653 H   0  0  0  0  0  0
  -26.0882  -31.5665   20.6153 H   0  0  0  0  0  0
  -26.8391  -30.8424   22.0080 H   0  0  0  0  0  0
  -28.1108  -28.9864   21.1916 H   0  0  0  0  0  0
  -25.9373  -25.9707   18.9640 H   0  0  0  0  0  0
  -23.9596  -27.3391   18.9961 H   0  0  0  0  0  0
  -23.7466  -30.6136   19.4096 H   0  0  0  0  0  0
  -22.7496  -29.2631   19.8613 H   0  0  0  0  0  0
  -25.1290  -36.1948   25.0829 H   0  0  0  0  0  0
  -20.9968  -28.3254   24.1408 H   0  0  0  0  0  0
  -20.5686  -26.2296   23.3607 H   0  0  0  0  0  0
  -21.6650  -26.7455   22.1186 H   0  0  0  0  0  0
  -19.6924  -25.6297   21.1238 H   0  0  0  0  0  0
  -19.6682  -27.3201   20.6737 H   0  0  0  0  0  0
  -17.4198  -26.6669   21.4023 H   0  0  0  0  0  0
  -18.0318  -26.0068   22.9022 H   0  0  0  0  0  0
  -19.7950  -30.7248   24.2272 H   0  0  0  0  0  0
  -17.5033  -31.6269   24.5148 H   0  0  0  0  0  0
  -15.5355  -30.2979   23.7670 H   0  0  0  0  0  0
  -15.8673  -28.0814   22.7076 H   0  0  0  0  0  0
  -24.5914  -30.7061   25.7783 H   0  0  0  0  0  0
  -24.8914  -32.2879   26.4893 H   0  0  0  0  0  0
  -25.8060  -30.8888   27.0239 H   0  0  0  0  0  0
  -26.2914  -29.6766   24.1220 H   0  0  0  0  0  0
  -27.4067  -29.7279   25.4678 H   0  0  0  0  0  0
  -27.8778  -30.4319   23.9391 H   0  0  0  0  0  0
  -27.2678  -33.3627   26.2077 H   0  0  0  0  0  0
  -28.3870  -32.6875   25.0329 H   0  0  0  0  0  0
  -28.0729  -31.8450   26.5425 H   0  0  0  0  0  0
  -28.2593  -38.0108   24.7524 H   0  0  0  0  0  0
  -28.1088  -36.2633   24.6278 H   0  0  0  0  0  0
  -27.2295  -37.1428   25.8868 H   0  0  0  0  0  0
  -20.9370  -29.8766   21.6901 H   0  0  0  0  0  0
  -26.0187  -38.2860   24.1424 H   0  0  0  0  0  0
  -31.5468  -19.2297   19.4091 H   0  0  0  0  0  0
  -27.4971  -20.4778   21.9208 H   0  0  0  0  0  0
  -32.1342  -22.2821   17.6050 H   0  0  0  0  0  0
  -31.5479  -20.6278   17.5591 H   0  0  0  0  0  0
  -32.7339  -21.1283   18.7898 H   0  0  0  0  0  0
  -31.2851  -17.1248   21.7803 H   0  0  0  0  0  0
  -31.5192  -17.0935   20.0688 H   0  0  0  0  0  0
  -29.5681  -24.1671   21.3636 H   0  0  0  0  0  0
  -29.8410  -23.8855   19.6635 H   0  0  0  0  0  0
  -27.1434  -24.8431   20.7001 H   0  0  0  0  0  0
  -27.7103  -24.8176   19.0421 H   0  0  0  0  0  0
  -27.5109  -18.3167   22.8970 H   0  0  0  0  0  0
  -28.7357  -17.1973   22.6292 H   0  0  0  0  0  0
  -27.5461  -22.6072   21.0980 H   0  0  0  0  0  0
  -29.0564  -15.7340   20.9791 H   0  0  0  0  0  0
  1 25  1  0  0  0
  1 30  2  0  0  0
  1 83  1  0  0  0
  2  3  1  0  0  0
  2 25  1  0  0  0
  2 85  1  0  0  0
  2 86  1  0  0  0
  3  4  1  0  0  0
  3 87  1  0  0  0
  3 88  1  0  0  0
  4  5  1  0  0  0
  4 89  1  0  0  0
  4 90  1  0  0  0
  5  6  1  0  0  0
  5 26  1  0  0  0
  5 91  1  0  0  0
  6 25  1  0  0  0
  6 92  1  0  0  0
  6 93  1  0  0  0
  7  8  2  0  0  0
  7 26  1  0  0  0
  7 29  1  0  0  0
  8  9  1  0  0  0
  8 22  1  0  0  0
  9 10  1  0  0  0
  9 27  2  0  0  0
 10 11  2  0  0  0
 10 15  1  0  0  0
 11 12  1  0  0  0
 11 94  1  0  0  0
 12 13  2  0  0  0
 12 95  1  0  0  0
 13 14  1  0  0  0
 13 31  1  0  0  0
 14 15  2  0  0  0
 14 96  1  0  0  0
 15 97  1  0  0  0
 16 17  2  0  0  0
 16 21  1  0  0  0
 16 31  1  0  0  0
 17 18  1  0  0  0
 17 98  1  0  0  0
 18 19  2  0  0  0
 18 99  1  0  0  0
 19 20  1  0  0  0
 19 24  1  0  0  0
 20 21  2  0  0  0
 20100  1  0  0  0
 21 23  1  0  0  0
 22 28  1  0  0  0
 22 32  2  0  0  0
 26 27  1  0  0  0
 28101  1  0  0  0
 28102  1  0  0  0
 29103  1  0  0  0
 29104  1  0  0  0
 33 34  1  0  0  0
 33 66  1  0  0  0
 33 70  2  0  0  0
 34 36  1  0  0  0
 34 59  1  0  0  0
 34105  1  0  0  0
 35 44  2  0  0  0
 35 45  1  0  0  0
 35 68  1  0  0  0
 36 56  1  0  0  0
 36106  1  0  0  0
 37 39  1  0  0  0
 37 47  1  0  0  0
 37 66  1  0  0  0
 37107  1  0  0  0
 38 43  2  0  0  0
 38 46  1  0  0  0
 38 47  1  0  0  0
 39 64  1  0  0  0
 39 67  2  0  0  0
 40 52  1  0  0  0
 40 53  2  0  0  0
 40 58  1  0  0  0
 41108  1  0  0  0
 41109  1  0  0  0
 41110  1  0  0  0
 41 48  1  0  0  0
 42 43  1  0  0  0
 42 66  1  0  0  0
 42111  1  0  0  0
 42112  1  0  0  0
 43 44  1  0  0  0
 44113  1  0  0  0
 45 46  2  0  0  0
 45114  1  0  0  0
 46115  1  0  0  0
 47116  1  0  0  0
 47117  1  0  0  0
 48 56  1  0  0  0
 48 65  1  0  0  0
 48118  1  0  0  0
 49 50  1  0  0  0
 49 53  1  0  0  0
 49 64  1  0  0  0
 49119  1  0  0  0
 50 51  1  0  0  0
 50120  1  0  0  0
 50121  1  0  0  0
 51 52  1  0  0  0
 51122  1  0  0  0
 51123  1  0  0  0
 52124  1  0  0  0
 52125  1  0  0  0
 53 54  1  0  0  0
 54 55  2  0  0  0
 54126  1  0  0  0
 55 57  1  0  0  0
 55127  1  0  0  0
 56 69  2  0  0  0
 57 58  2  0  0  0
 57128  1  0  0  0
 58129  1  0  0  0
 59 60  1  0  0  0
 59 61  1  0  0  0
 59 62  1  0  0  0
 60130  1  0  0  0
 60131  1  0  0  0
 60132  1  0  0  0
 61133  1  0  0  0
 61134  1  0  0  0
 61135  1  0  0  0
 62136  1  0  0  0
 62137  1  0  0  0
 62138  1  0  0  0
 63 65  1  0  0  0
 63139  1  0  0  0
 63140  1  0  0  0
 63141  1  0  0  0
 64142  1  0  0  0
 65143  1  0  0  0
 68 80  1  0  0  0
 71 73  2  0  0  0
 71 76  1  0  0  0
 71144  1  0  0  0
 72 74  2  0  0  0
 72 75  1  0  0  0
 72145  1  0  0  0
 73 74  1  0  0  0
 73 78  1  0  0  0
 74 81  1  0  0  0
 75 76  2  0  0  0
 75 82  1  0  0  0
 76 84  1  0  0  0
 77 84  1  0  0  0
 77146  1  0  0  0
 77147  1  0  0  0
 77148  1  0  0  0
 78 83  1  0  0  0
 78149  1  0  0  0
 78150  1  0  0  0
 79 80  1  0  0  0
 79 82  1  0  0  0
 79151  1  0  0  0
 79152  1  0  0  0
 80153  1  0  0  0
 80154  1  0  0  0
 81155  1  0  0  0
 81156  1  0  0  0
 82157  1  0  0  0
 83158  1  0  0  0
M  ISO  4   1 100  68 101  80 101  83 100
M  END
> <chiral flag>
0

> <version>
0

> <s_m_source_file>
/data/baiqing/PycharmProjects/Reinvent-master-3.2/result/LINK_invent/BTK/process_docking_weight1_custom_product_contain_oxygen_bond_distance_aromatic_linkinvent_7_9_3/rearranged_h_0096.sdf

> <i_m_source_file_index>
91

> <r_mmod_Potential_Energy-OPLS-2005>
55.2139701843262

> <r_mmod_Stretch_Energy-OPLS-2005>
72.9365997314453

> <r_mmod_Bend_Energy-OPLS-2005>
169.060562133789

> <r_mmod_Torsional_Energy-OPLS-2005>
204.491439819336

> <r_mmod_Improper_Torsional_Energy-OPLS-2005>
9.3286190032959

> <r_mmod_Van_der_Waal_Energy-OPLS-2005>
163.632675170898

> <r_mmod_Electrostatic_Energy-OPLS-2005>
-378.175018310547

> <r_mmod_Solvation_Energy-OPLS-2005>
-232.995574951172

> <b_mmod_Minimization_Converged-OPLS-2005>
0

> <r_mmod_RMS_Derivative-OPLS-2005>
1.1784416437149

$$$$
