0
 OpenBabel04052305473D

160168  0  0  0  0  0  0  0  0999 V2000
  -30.7652  -14.3608   20.6636 C   0  0  0  0  0  0  0  0  0  0  0  0
  -30.4392  -12.2669   19.3775 C   0  0  0  0  0  0  0  0  0  0  0  0
  -29.4791  -12.5281   18.1977 C   0  0  0  0  0  0  0  0  0  0  0  0
  -27.9985  -12.3963   18.6038 C   0  0  0  0  0  0  0  0  0  0  0  0
  -27.6639  -13.2170   19.8820 C   0  0  2  0  0  0  0  0  0  0  0  0
  -28.6795  -12.9602   21.0279 C   0  0  0  0  0  0  0  0  0  0  0  0
  -25.2633  -13.8245   20.5754 C   0  0  0  0  0  0  0  0  0  0  0  0
  -24.1645  -13.0409   20.9408 C   0  0  0  0  0  0  0  0  0  0  0  0
  -24.6400  -11.7009   20.8697 C   0  0  0  0  0  0  0  0  0  0  0  0
  -23.9005  -10.4085   21.0420 C   0  0  0  0  0  0  0  0  0  0  0  0
  -24.3588   -9.4123   21.9123 C   0  0  0  0  0  0  0  0  0  0  0  0
  -23.6296   -8.2350   22.0803 C   0  0  0  0  0  0  0  0  0  0  0  0
  -22.4385   -8.0419   21.3657 C   0  0  0  0  0  0  0  0  0  0  0  0
  -22.0103   -9.0167   20.4678 C   0  0  0  0  0  0  0  0  0  0  0  0
  -22.7317  -10.1925   20.3102 C   0  0  0  0  0  0  0  0  0  0  0  0
  -21.6857   -6.0709   22.5391 C   0  0  0  0  0  0  0  0  0  0  0  0
  -21.4064   -6.5490   23.8264 C   0  0  0  0  0  0  0  0  0  0  0  0
  -21.3635   -5.6677   24.9085 C   0  0  0  0  0  0  0  0  0  0  0  0
  -21.5973   -4.3067   24.7088 C   0  0  0  0  0  0  0  0  0  0  0  0
  -21.8700   -3.8284   23.4282 C   0  0  0  0  0  0  0  0  0  0  0  0
  -21.9144   -4.7056   22.3460 C   0  0  0  0  0  0  0  0  0  0  0  0
  -22.8194  -13.5263   21.1763 C   0  0  0  0  0  0  0  0  0  0  0  0
  -22.1559   -4.2206   21.1063 F   0  0  0  0  0  0  0  0  0  0  0  0
  -21.5628   -3.4510   25.7555 F   0  0  0  0  0  0  0  0  0  0  0  0
  -30.0261  -13.1803   20.4553 N   0  0  0  0  0  0  0  0  0  0  0  0
  -26.2911  -12.9356   20.3443 N   0  0  0  0  0  0  0  0  0  0  0  0
  -25.9236  -11.6675   20.5847 N   0  0  0  0  0  0  0  0  0  0  0  0
  -22.0708  -12.7905   22.0005 N   0  0  0  0  0  0  0  0  0  0  0  0
  -25.4117  -15.1773   20.4097 N   0  0  0  0  0  0  0  0  0  0  0  0
  -31.7916  -14.6724   20.0536 O   0  0  0  0  0  0  0  0  0  0  0  0
  -21.6670   -6.9022   21.4423 O   0  0  0  0  0  0  0  0  0  0  0  0
  -22.3946  -14.5564   20.6568 O   0  0  0  0  0  0  0  0  0  0  0  0
  -24.6048  -31.8614   23.2223 C   0  0  0  0  0  0  0  0  0  0  0  0
  -25.8822  -32.4841   23.8616 C   0  0  1  0  0  0  0  0  0  0  0  0
  -27.2536  -27.5042   20.1156 C   0  0  0  0  0  0  0  0  0  0  0  0
  -25.5726  -33.8762   24.2210 N   0  0  0  0  0  0  0  0  0  0  0  0
  -23.4066  -30.4859   21.5461 C   0  0  2  0  0  0  0  0  0  0  0  0
  -24.8467  -28.9636   20.1247 C   0  0  0  0  0  0  0  0  0  0  0  0
  -22.7412  -29.4652   22.5052 C   0  0  0  0  0  0  0  0  0  0  0  0
  -18.0167  -28.1302   22.8626 C   0  0  0  0  0  0  0  0  0  0  0  0
  -24.1342  -36.7390   23.2568 C   0  0  0  0  0  0  0  0  0  0  0  0
  -25.9141  -30.8882   21.3456 C   0  0  0  0  0  0  0  0  0  0  0  0
  -25.9930  -29.5029   20.7208 C   0  0  0  0  0  0  0  0  0  0  0  0
  -27.1758  -28.7612   20.7331 C   0  0  0  0  0  0  0  0  0  0  0  0
  -26.1032  -26.9836   19.5230 C   0  0  0  0  0  0  0  0  0  0  0  0
  -24.9097  -27.7011   19.5331 C   0  0  0  0  0  0  0  0  0  0  0  0
  -23.5715  -29.7899   20.1582 C   0  0  0  0  0  0  0  0  0  0  0  0
  -25.3990  -36.3212   24.0232 C   0  0  1  0  0  0  0  0  0  0  0  0
  -20.5793  -28.3813   23.1004 C   0  0  2  0  0  0  0  0  0  0  0  0
  -20.6548  -26.9392   22.5411 C   0  0  0  0  0  0  0  0  0  0  0  0
  -19.5615  -26.6407   21.5143 C   0  0  0  0  0  0  0  0  0  0  0  0
  -18.1797  -26.7818   22.1673 C   0  0  0  0  0  0  0  0  0  0  0  0
  -19.1385  -28.8769   23.2988 C   0  0  0  0  0  0  0  0  0  0  0  0
  -18.9183  -30.1286   23.8878 C   0  0  0  0  0  0  0  0  0  0  0  0
  -17.6396  -30.6493   24.0352 C   0  0  0  0  0  0  0  0  0  0  0  0
  -25.9153  -34.9582   23.4993 C   0  0  0  0  0  0  0  0  0  0  0  0
  -16.5415  -29.9068   23.6254 C   0  0  0  0  0  0  0  0  0  0  0  0
  -16.7331  -28.6521   23.0586 C   0  0  0  0  0  0  0  0  0  0  0  0
  -26.4583  -31.6439   25.0683 C   0  0  0  0  0  0  0  0  0  0  0  0
  -25.3807  -31.3179   26.1374 C   0  0  0  0  0  0  0  0  0  0  0  0
  -27.0530  -30.3024   24.5680 C   0  0  0  0  0  0  0  0  0  0  0  0
  -27.6014  -32.4281   25.7651 C   0  0  0  0  0  0  0  0  0  0  0  0
  -27.5629  -37.2220   24.8621 C   0  0  0  0  0  0  0  0  0  0  0  0
  -21.4133  -29.3375   22.3735 N   0  0  0  0  0  0  0  0  0  0  0  0
  -26.4706  -37.3372   23.9061 N   0  0  0  0  0  0  0  0  0  0  0  0
  -24.6674  -31.0544   22.1178 N   0  0  0  0  0  0  0  0  0  0  0  0
  -23.4259  -28.8150   23.2971 O   0  0  0  0  0  0  0  0  0  0  0  0
  -28.3948  -26.7345   20.0089 O   0  0  0  0  0  0  0  0  0  0  0  0
  -26.5870  -34.9065   22.4671 O   0  0  0  0  0  0  0  0  0  0  0  0
  -23.5365  -32.1254   23.7833 O   0  0  0  0  0  0  0  0  0  0  0  0
  -29.2813  -21.1705   20.1432 C   0  0  0  0  0  0  0  0  0  0  0  0
  -29.9900  -19.0443   19.6887 C   0  0  0  0  0  0  0  0  0  0  0  0
  -28.7046  -18.5793   19.8595 C   0  0  0  0  0  0  0  0  0  0  0  0
  -27.9958  -20.7057   20.3132 C   0  0  0  0  0  0  0  0  0  0  0  0
  -31.1222  -18.1614   19.3435 C   0  0  0  0  0  0  0  0  0  0  0  0
  -28.3764  -17.1338   19.7030 C   0  0  0  0  0  0  0  0  0  0  0  0
  -34.2148  -17.5834   20.0264 C   0  0  0  0  0  0  0  0  0  0  0  0
  -33.0538  -15.7302   21.2853 C   0  0  0  0  0  0  0  0  0  0  0  0
  -31.8346  -14.8189   21.3682 C   0  0  0  0  0  0  0  0  0  0  0  0
  -32.9675  -16.7184   20.1241 C   0  0  1  0  0  0  0  0  0  0  0  0
  -30.3015  -20.3481   19.8278 N   0  0  0  0  0  0  0  0  0  0  0  0
  -27.6844  -19.4018   20.1745 N   0  0  0  0  0  0  0  0  0  0  0  0
  -31.3896  -17.9581   18.0535 N   0  0  0  0  0  0  0  0  0  0  0  0
  -26.9788  -21.6352   20.6442 N   0  0  0  0  0  0  0  0  0  0  0  0
  -31.8208  -17.6084   20.3403 N   0  3  0  0  0  0  0  0  0  0  0  0
  -31.4485  -12.4701   19.0860 H   0  0  0  0  0  0  0  0  0  0  0  0
  -30.3970  -11.2460   19.6950 H   0  0  0  0  0  0  0  0  0  0  0  0
  -29.6870  -11.8204   17.4226 H   0  0  0  0  0  0  0  0  0  0  0  0
  -29.6375  -13.5326   17.8649 H   0  0  0  0  0  0  0  0  0  0  0  0
  -27.7830  -11.3650   18.7904 H   0  0  0  0  0  0  0  0  0  0  0  0
  -27.4028  -12.7801   17.8021 H   0  0  0  0  0  0  0  0  0  0  0  0
  -27.7353  -14.2503   19.6136 H   0  0  0  0  0  0  0  0  0  0  0  0
  -28.5890  -11.9550   21.3832 H   0  0  0  0  0  0  0  0  0  0  0  0
  -28.5005  -13.6134   21.8562 H   0  0  0  0  0  0  0  0  0  0  0  0
  -25.2399   -9.5495   22.4318 H   0  0  0  0  0  0  0  0  0  0  0  0
  -23.9663   -7.5070   22.7297 H   0  0  0  0  0  0  0  0  0  0  0  0
  -21.1515   -8.8641   19.9162 H   0  0  0  0  0  0  0  0  0  0  0  0
  -22.4016  -10.9115   19.6476 H   0  0  0  0  0  0  0  0  0  0  0  0
  -21.2319   -7.5552   23.9750 H   0  0  0  0  0  0  0  0  0  0  0  0
  -21.1589   -6.0228   25.8556 H   0  0  0  0  0  0  0  0  0  0  0  0
  -22.0396   -2.8212   23.2809 H   0  0  0  0  0  0  0  0  0  0  0  0
  -22.4401  -11.9703   22.4008 H   0  0  0  0  0  0  0  0  0  0  0  0
  -21.1493  -13.0679   22.2082 H   0  0  0  0  0  0  0  0  0  0  0  0
  -24.6538  -15.7807   20.5848 H   0  0  0  0  0  0  0  0  0  0  0  0
  -26.2762  -15.5453   20.1156 H   0  0  0  0  0  0  0  0  0  0  0  0
  -26.6778  -32.4663   23.1464 H   0  0  0  0  0  0  0  0  0  0  0  0
  -25.0747  -34.0282   25.0566 H   0  0  0  0  0  0  0  0  0  0  0  0
  -22.7881  -31.3489   21.4131 H   0  0  0  0  0  0  0  0  0  0  0  0
  -23.3854  -35.9823   23.3648 H   0  0  0  0  0  0  0  0  0  0  0  0
  -24.3696  -36.8624   22.2204 H   0  0  0  0  0  0  0  0  0  0  0  0
  -23.7669  -37.6632   23.6516 H   0  0  0  0  0  0  0  0  0  0  0  0
  -25.9445  -31.6237   20.5691 H   0  0  0  0  0  0  0  0  0  0  0  0
  -26.7436  -31.0079   22.0108 H   0  0  0  0  0  0  0  0  0  0  0  0
  -28.0090  -29.1452   21.2057 H   0  0  0  0  0  0  0  0  0  0  0  0
  -26.1369  -26.0560   19.0719 H   0  0  0  0  0  0  0  0  0  0  0  0
  -24.0652  -27.2961   19.0997 H   0  0  0  0  0  0  0  0  0  0  0  0
  -23.6156  -30.5365   19.3930 H   0  0  0  0  0  0  0  0  0  0  0  0
  -22.7355  -29.1425   19.9945 H   0  0  0  0  0  0  0  0  0  0  0  0
  -25.1353  -36.2335   25.0565 H   0  0  0  0  0  0  0  0  0  0  0  0
  -21.0070  -28.3206   24.0793 H   0  0  0  0  0  0  0  0  0  0  0  0
  -20.5555  -26.2518   23.3550 H   0  0  0  0  0  0  0  0  0  0  0  0
  -21.5974  -26.8362   22.0454 H   0  0  0  0  0  0  0  0  0  0  0  0
  -19.6810  -25.6422   21.1488 H   0  0  0  0  0  0  0  0  0  0  0  0
  -19.6406  -27.3343   20.7034 H   0  0  0  0  0  0  0  0  0  0  0  0
  -17.4282  -26.6888   21.4113 H   0  0  0  0  0  0  0  0  0  0  0  0
  -18.0803  -26.0130   22.9049 H   0  0  0  0  0  0  0  0  0  0  0  0
  -19.7265  -30.6774   24.2204 H   0  0  0  0  0  0  0  0  0  0  0  0
  -17.5064  -31.5856   24.4483 H   0  0  0  0  0  0  0  0  0  0  0  0
  -15.5878  -30.2839   23.7407 H   0  0  0  0  0  0  0  0  0  0  0  0
  -15.9120  -28.0941   22.7766 H   0  0  0  0  0  0  0  0  0  0  0  0
  -24.5787  -30.7757   25.6817 H   0  0  0  0  0  0  0  0  0  0  0  0
  -25.0041  -32.2289   26.5536 H   0  0  0  0  0  0  0  0  0  0  0  0
  -25.8166  -30.7245   26.9138 H   0  0  0  0  0  0  0  0  0  0  0  0
  -26.2892  -29.7335   24.0803 H   0  0  0  0  0  0  0  0  0  0  0  0
  -27.4336  -29.7484   25.4006 H   0  0  0  0  0  0  0  0  0  0  0  0
  -27.8466  -30.4994   23.8779 H   0  0  0  0  0  0  0  0  0  0  0  0
  -27.2251  -33.3632   26.1242 H   0  0  0  0  0  0  0  0  0  0  0  0
  -28.3902  -32.6065   25.0645 H   0  0  0  0  0  0  0  0  0  0  0  0
  -27.9772  -31.8555   26.5872 H   0  0  0  0  0  0  0  0  0  0  0  0
  -28.2744  -38.0016   24.6863 H   0  0  0  0  0  0  0  0  0  0  0  0
  -28.0396  -36.2711   24.7461 H   0  0  0  0  0  0  0  0  0  0  0  0
  -27.1773  -37.3087   25.8564 H   0  0  0  0  0  0  0  0  0  0  0  0
  -20.9627  -29.9365   21.7352 H   0  0  0  0  0  0  0  0  0  0  0  0
  -26.0447  -38.2561   24.0273 H   0  0  0  0  0  0  0  0  0  0  0  0
  -29.4688  -22.1785   20.2608 H   0  0  0  0  0  0  0  0  0  0  0  0
  -29.2646  -16.5912   19.4549 H   0  0  0  0  0  0  0  0  0  0  0  0
  -27.6555  -17.0143   18.9214 H   0  0  0  0  0  0  0  0  0  0  0  0
  -27.9735  -16.7582   20.6203 H   0  0  0  0  0  0  0  0  0  0  0  0
  -35.0698  -16.9598   19.8682 H   0  0  0  0  0  0  0  0  0  0  0  0
  -34.3386  -18.1347   20.9351 H   0  0  0  0  0  0  0  0  0  0  0  0
  -34.1134  -18.2642   19.2072 H   0  0  0  0  0  0  0  0  0  0  0  0
  -33.9266  -15.1248   21.1565 H   0  0  0  0  0  0  0  0  0  0  0  0
  -33.0983  -16.2969   22.1918 H   0  0  0  0  0  0  0  0  0  0  0  0
  -31.6257  -14.3320   22.2978 H   0  0  0  0  0  0  0  0  0  0  0  0
  -31.5731  -13.9460   20.8073 H   0  0  0  0  0  0  0  0  0  0  0  0
  -32.8656  -16.1532   19.2213 H   0  0  0  0  0  0  0  0  0  0  0  0
  -30.8397  -18.3929   17.3623 H   0  0  0  0  0  0  0  0  0  0  0  0
  -32.1370  -17.3731   17.7920 H   0  0  0  0  0  0  0  0  0  0  0  0
  -26.3851  -22.4119   20.7606 H   0  0  0  0  0  0  0  0  0  0  0  0
  -31.5524  -17.8083   21.2662 H   0  0  0  0  0  0  0  0  0  0  0  0
  1 25  1  0  0  0  0
  1 30  2  0  0  0  0
  1 84  1  0  0  0  0
  2  3  1  0  0  0  0
  2 25  1  0  0  0  0
  2 86  1  0  0  0  0
  2 87  1  0  0  0  0
  3  4  1  0  0  0  0
  3 88  1  0  0  0  0
  3 89  1  0  0  0  0
  4  5  1  0  0  0  0
  4 90  1  0  0  0  0
  4 91  1  0  0  0  0
  5  6  1  0  0  0  0
  5 26  1  0  0  0  0
  5 92  1  6  0  0  0
  6 25  1  0  0  0  0
  6 93  1  0  0  0  0
  6 94  1  0  0  0  0
  7  8  2  0  0  0  0
  7 26  1  0  0  0  0
  7 29  1  0  0  0  0
  8  9  1  0  0  0  0
  8 22  1  0  0  0  0
  9 10  1  0  0  0  0
  9 27  2  0  0  0  0
 10 11  2  0  0  0  0
 10 15  1  0  0  0  0
 11 12  1  0  0  0  0
 11 95  1  0  0  0  0
 12 13  2  0  0  0  0
 12 96  1  0  0  0  0
 13 14  1  0  0  0  0
 13 31  1  0  0  0  0
 14 15  2  0  0  0  0
 14 97  1  0  0  0  0
 15 98  1  0  0  0  0
 16 17  2  0  0  0  0
 16 21  1  0  0  0  0
 16 31  1  0  0  0  0
 17 18  1  0  0  0  0
 17 99  1  0  0  0  0
 18 19  2  0  0  0  0
 18100  1  0  0  0  0
 19 20  1  0  0  0  0
 19 24  1  0  0  0  0
 20 21  2  0  0  0  0
 20101  1  0  0  0  0
 21 23  1  0  0  0  0
 22 28  1  0  0  0  0
 22 32  2  0  0  0  0
 26 27  1  0  0  0  0
 28102  1  0  0  0  0
 28103  1  0  0  0  0
 29104  1  0  0  0  0
 29105  1  0  0  0  0
 33 34  1  0  0  0  0
 33 66  1  0  0  0  0
 33 70  2  0  0  0  0
 34 36  1  0  0  0  0
 34 59  1  0  0  0  0
 34106  1  6  0  0  0
 35 44  2  0  0  0  0
 35 45  1  0  0  0  0
 35 68  1  0  0  0  0
 36 56  1  0  0  0  0
 36107  1  0  0  0  0
 37 39  1  0  0  0  0
 37 47  1  0  0  0  0
 37 66  1  0  0  0  0
 37108  1  6  0  0  0
 38 43  2  0  0  0  0
 38 46  1  0  0  0  0
 38 47  1  0  0  0  0
 39 64  1  0  0  0  0
 39 67  2  0  0  0  0
 40 52  1  0  0  0  0
 40 53  2  0  0  0  0
 40 58  1  0  0  0  0
 41109  1  0  0  0  0
 41110  1  0  0  0  0
 41111  1  0  0  0  0
 42 43  1  0  0  0  0
 42 66  1  0  0  0  0
 42112  1  0  0  0  0
 42113  1  0  0  0  0
 43 44  1  0  0  0  0
 44114  1  0  0  0  0
 45 46  2  0  0  0  0
 45115  1  0  0  0  0
 46116  1  0  0  0  0
 47117  1  0  0  0  0
 47118  1  0  0  0  0
 48 41  1  0  0  0  0
 48 56  1  0  0  0  0
 48 65  1  0  0  0  0
 48119  1  1  0  0  0
 49 50  1  0  0  0  0
 49 53  1  0  0  0  0
 49 64  1  0  0  0  0
 49120  1  1  0  0  0
 50 51  1  0  0  0  0
 50121  1  0  0  0  0
 50122  1  0  0  0  0
 51 52  1  0  0  0  0
 51123  1  0  0  0  0
 51124  1  0  0  0  0
 52125  1  0  0  0  0
 52126  1  0  0  0  0
 53 54  1  0  0  0  0
 54 55  2  0  0  0  0
 54127  1  0  0  0  0
 55 57  1  0  0  0  0
 55128  1  0  0  0  0
 56 69  2  0  0  0  0
 57 58  2  0  0  0  0
 57129  1  0  0  0  0
 58130  1  0  0  0  0
 59 60  1  0  0  0  0
 59 61  1  0  0  0  0
 59 62  1  0  0  0  0
 60131  1  0  0  0  0
 60132  1  0  0  0  0
 60133  1  0  0  0  0
 61134  1  0  0  0  0
 61135  1  0  0  0  0
 61136  1  0  0  0  0
 62137  1  0  0  0  0
 62138  1  0  0  0  0
 62139  1  0  0  0  0
 63 65  1  0  0  0  0
 63140  1  0  0  0  0
 63141  1  0  0  0  0
 63142  1  0  0  0  0
 64143  1  0  0  0  0
 65144  1  0  0  0  0
 68 79  1  0  0  0  0
 71 74  2  0  0  0  0
 71 81  1  0  0  0  0
 71145  1  0  0  0  0
 72 73  1  0  0  0  0
 72 75  1  0  0  0  0
 72 81  2  0  0  0  0
 73 76  1  0  0  0  0
 73 82  2  0  0  0  0
 74 82  1  0  0  0  0
 74 84  1  0  0  0  0
 75 83  1  0  0  0  0
 75 85  2  0  0  0  0
 76146  1  0  0  0  0
 76147  1  0  0  0  0
 76148  1  0  0  0  0
 77149  1  0  0  0  0
 77150  1  0  0  0  0
 77151  1  0  0  0  0
 78 79  1  0  0  0  0
 78 80  1  0  0  0  0
 78152  1  0  0  0  0
 78153  1  0  0  0  0
 79154  1  0  0  0  0
 79155  1  0  0  0  0
 80 77  1  0  0  0  0
 80 85  1  0  0  0  0
 80156  1  6  0  0  0
 83157  1  0  0  0  0
 83158  1  0  0  0  0
 84159  1  0  0  0  0
 85160  1  0  0  0  0
M  ISO  4   1 100  68 101  79 101  84 100
M  CHG  1  85   1
M  END
$$$$
1
 OpenBabel04052305473D

152160  0  0  0  0  0  0  0  0999 V2000
  -30.7652  -14.3608   20.6636 C   0  0  0  0  0  0  0  0  0  0  0  0
  -30.4392  -12.2669   19.3775 C   0  0  0  0  0  0  0  0  0  0  0  0
  -29.4791  -12.5281   18.1977 C   0  0  0  0  0  0  0  0  0  0  0  0
  -27.9985  -12.3963   18.6038 C   0  0  0  0  0  0  0  0  0  0  0  0
  -27.6639  -13.2170   19.8820 C   0  0  2  0  0  0  0  0  0  0  0  0
  -28.6795  -12.9602   21.0279 C   0  0  0  0  0  0  0  0  0  0  0  0
  -25.2633  -13.8245   20.5754 C   0  0  0  0  0  0  0  0  0  0  0  0
  -24.1645  -13.0409   20.9408 C   0  0  0  0  0  0  0  0  0  0  0  0
  -24.6400  -11.7009   20.8697 C   0  0  0  0  0  0  0  0  0  0  0  0
  -23.9005  -10.4085   21.0420 C   0  0  0  0  0  0  0  0  0  0  0  0
  -24.3588   -9.4123   21.9123 C   0  0  0  0  0  0  0  0  0  0  0  0
  -23.6296   -8.2350   22.0803 C   0  0  0  0  0  0  0  0  0  0  0  0
  -22.4385   -8.0419   21.3657 C   0  0  0  0  0  0  0  0  0  0  0  0
  -22.0103   -9.0167   20.4678 C   0  0  0  0  0  0  0  0  0  0  0  0
  -22.7317  -10.1925   20.3102 C   0  0  0  0  0  0  0  0  0  0  0  0
  -21.6857   -6.0709   22.5391 C   0  0  0  0  0  0  0  0  0  0  0  0
  -21.4064   -6.5490   23.8264 C   0  0  0  0  0  0  0  0  0  0  0  0
  -21.3635   -5.6677   24.9085 C   0  0  0  0  0  0  0  0  0  0  0  0
  -21.5973   -4.3067   24.7088 C   0  0  0  0  0  0  0  0  0  0  0  0
  -21.8700   -3.8284   23.4282 C   0  0  0  0  0  0  0  0  0  0  0  0
  -21.9144   -4.7056   22.3460 C   0  0  0  0  0  0  0  0  0  0  0  0
  -22.8194  -13.5263   21.1763 C   0  0  0  0  0  0  0  0  0  0  0  0
  -22.1559   -4.2206   21.1063 F   0  0  0  0  0  0  0  0  0  0  0  0
  -21.5628   -3.4510   25.7555 F   0  0  0  0  0  0  0  0  0  0  0  0
  -30.0261  -13.1803   20.4553 N   0  0  0  0  0  0  0  0  0  0  0  0
  -26.2911  -12.9356   20.3443 N   0  0  0  0  0  0  0  0  0  0  0  0
  -25.9236  -11.6675   20.5847 N   0  0  0  0  0  0  0  0  0  0  0  0
  -22.0708  -12.7905   22.0005 N   0  0  0  0  0  0  0  0  0  0  0  0
  -25.4117  -15.1773   20.4097 N   0  0  0  0  0  0  0  0  0  0  0  0
  -31.7916  -14.6724   20.0536 O   0  0  0  0  0  0  0  0  0  0  0  0
  -21.6670   -6.9022   21.4423 O   0  0  0  0  0  0  0  0  0  0  0  0
  -22.3946  -14.5564   20.6568 O   0  0  0  0  0  0  0  0  0  0  0  0
  -24.6048  -31.8614   23.2223 C   0  0  0  0  0  0  0  0  0  0  0  0
  -25.8822  -32.4841   23.8616 C   0  0  1  0  0  0  0  0  0  0  0  0
  -27.2536  -27.5042   20.1156 C   0  0  0  0  0  0  0  0  0  0  0  0
  -25.5726  -33.8762   24.2210 N   0  0  0  0  0  0  0  0  0  0  0  0
  -23.4066  -30.4859   21.5461 C   0  0  2  0  0  0  0  0  0  0  0  0
  -24.8467  -28.9636   20.1247 C   0  0  0  0  0  0  0  0  0  0  0  0
  -22.7412  -29.4652   22.5052 C   0  0  0  0  0  0  0  0  0  0  0  0
  -18.0167  -28.1302   22.8626 C   0  0  0  0  0  0  0  0  0  0  0  0
  -24.1342  -36.7390   23.2568 C   0  0  0  0  0  0  0  0  0  0  0  0
  -25.9141  -30.8882   21.3456 C   0  0  0  0  0  0  0  0  0  0  0  0
  -25.9930  -29.5029   20.7208 C   0  0  0  0  0  0  0  0  0  0  0  0
  -27.1758  -28.7612   20.7331 C   0  0  0  0  0  0  0  0  0  0  0  0
  -26.1032  -26.9836   19.5230 C   0  0  0  0  0  0  0  0  0  0  0  0
  -24.9097  -27.7011   19.5331 C   0  0  0  0  0  0  0  0  0  0  0  0
  -23.5715  -29.7899   20.1582 C   0  0  0  0  0  0  0  0  0  0  0  0
  -25.3990  -36.3212   24.0232 C   0  0  1  0  0  0  0  0  0  0  0  0
  -20.5793  -28.3813   23.1004 C   0  0  2  0  0  0  0  0  0  0  0  0
  -20.6548  -26.9392   22.5411 C   0  0  0  0  0  0  0  0  0  0  0  0
  -19.5615  -26.6407   21.5143 C   0  0  0  0  0  0  0  0  0  0  0  0
  -18.1797  -26.7818   22.1673 C   0  0  0  0  0  0  0  0  0  0  0  0
  -19.1385  -28.8769   23.2988 C   0  0  0  0  0  0  0  0  0  0  0  0
  -18.9183  -30.1286   23.8878 C   0  0  0  0  0  0  0  0  0  0  0  0
  -17.6396  -30.6493   24.0352 C   0  0  0  0  0  0  0  0  0  0  0  0
  -25.9153  -34.9582   23.4993 C   0  0  0  0  0  0  0  0  0  0  0  0
  -16.5415  -29.9068   23.6254 C   0  0  0  0  0  0  0  0  0  0  0  0
  -16.7331  -28.6521   23.0586 C   0  0  0  0  0  0  0  0  0  0  0  0
  -26.4583  -31.6439   25.0683 C   0  0  0  0  0  0  0  0  0  0  0  0
  -25.3807  -31.3179   26.1374 C   0  0  0  0  0  0  0  0  0  0  0  0
  -27.0530  -30.3024   24.5680 C   0  0  0  0  0  0  0  0  0  0  0  0
  -27.6014  -32.4281   25.7651 C   0  0  0  0  0  0  0  0  0  0  0  0
  -27.5629  -37.2220   24.8621 C   0  0  0  0  0  0  0  0  0  0  0  0
  -21.4133  -29.3375   22.3735 N   0  0  0  0  0  0  0  0  0  0  0  0
  -26.4706  -37.3372   23.9061 N   0  0  0  0  0  0  0  0  0  0  0  0
  -24.6674  -31.0544   22.1178 N   0  0  0  0  0  0  0  0  0  0  0  0
  -23.4259  -28.8150   23.2971 O   0  0  0  0  0  0  0  0  0  0  0  0
  -28.3948  -26.7345   20.0089 O   0  0  0  0  0  0  0  0  0  0  0  0
  -26.5870  -34.9065   22.4671 O   0  0  0  0  0  0  0  0  0  0  0  0
  -23.5365  -32.1254   23.7833 O   0  0  0  0  0  0  0  0  0  0  0  0
  -32.3138  -18.6221   21.4239 C   0  0  0  0  0  0  0  0  0  0  0  0
  -29.8976  -17.8752   22.2793 C   0  0  0  0  0  0  0  0  0  0  0  0
  -31.5441  -19.4603   22.2002 C   0  0  0  0  0  0  0  0  0  0  0  0
  -30.6669  -17.0373   21.5024 C   0  0  0  0  0  0  0  0  0  0  0  0
  -31.4028  -22.5013   20.8633 C   0  0  0  0  0  0  0  0  0  0  0  0
  -32.0498  -20.8204   22.5855 C   0  0  0  0  0  0  0  0  0  0  0  0
  -31.9802  -23.2313   19.6607 C   0  0  0  0  0  0  0  0  0  0  0  0
  -30.9889  -24.1859   19.0132 C   0  0  0  0  0  0  0  0  0  0  0  0
  -30.3223  -19.1018   22.6421 N   0  0  0  0  0  0  0  0  0  0  0  0
  -31.8888  -17.3957   21.0609 N   0  0  0  0  0  0  0  0  0  0  0  0
  -30.1484  -15.7628   21.1640 N   0  0  0  0  0  0  0  0  0  0  0  0
  -32.3320  -21.6401   21.4291 N   0  0  0  0  0  0  0  0  0  0  0  0
  -30.2548  -22.6688   21.2656 O   0  0  0  0  0  0  0  0  0  0  0  0
  -31.4485  -12.4701   19.0860 H   0  0  0  0  0  0  0  0  0  0  0  0
  -30.3970  -11.2460   19.6950 H   0  0  0  0  0  0  0  0  0  0  0  0
  -29.6870  -11.8204   17.4226 H   0  0  0  0  0  0  0  0  0  0  0  0
  -29.6375  -13.5326   17.8649 H   0  0  0  0  0  0  0  0  0  0  0  0
  -27.7830  -11.3650   18.7904 H   0  0  0  0  0  0  0  0  0  0  0  0
  -27.4028  -12.7801   17.8021 H   0  0  0  0  0  0  0  0  0  0  0  0
  -27.7353  -14.2503   19.6136 H   0  0  0  0  0  0  0  0  0  0  0  0
  -28.5890  -11.9550   21.3832 H   0  0  0  0  0  0  0  0  0  0  0  0
  -28.5005  -13.6134   21.8562 H   0  0  0  0  0  0  0  0  0  0  0  0
  -25.2399   -9.5495   22.4318 H   0  0  0  0  0  0  0  0  0  0  0  0
  -23.9663   -7.5070   22.7297 H   0  0  0  0  0  0  0  0  0  0  0  0
  -21.1515   -8.8641   19.9162 H   0  0  0  0  0  0  0  0  0  0  0  0
  -22.4016  -10.9115   19.6476 H   0  0  0  0  0  0  0  0  0  0  0  0
  -21.2319   -7.5552   23.9750 H   0  0  0  0  0  0  0  0  0  0  0  0
  -21.1589   -6.0228   25.8556 H   0  0  0  0  0  0  0  0  0  0  0  0
  -22.0396   -2.8212   23.2809 H   0  0  0  0  0  0  0  0  0  0  0  0
  -22.4401  -11.9703   22.4008 H   0  0  0  0  0  0  0  0  0  0  0  0
  -21.1493  -13.0679   22.2082 H   0  0  0  0  0  0  0  0  0  0  0  0
  -24.6538  -15.7807   20.5848 H   0  0  0  0  0  0  0  0  0  0  0  0
  -26.2762  -15.5453   20.1156 H   0  0  0  0  0  0  0  0  0  0  0  0
  -26.6778  -32.4663   23.1464 H   0  0  0  0  0  0  0  0  0  0  0  0
  -25.0747  -34.0282   25.0566 H   0  0  0  0  0  0  0  0  0  0  0  0
  -22.7881  -31.3489   21.4131 H   0  0  0  0  0  0  0  0  0  0  0  0
  -23.3854  -35.9823   23.3648 H   0  0  0  0  0  0  0  0  0  0  0  0
  -24.3696  -36.8624   22.2204 H   0  0  0  0  0  0  0  0  0  0  0  0
  -23.7669  -37.6632   23.6516 H   0  0  0  0  0  0  0  0  0  0  0  0
  -25.9445  -31.6237   20.5691 H   0  0  0  0  0  0  0  0  0  0  0  0
  -26.7436  -31.0079   22.0108 H   0  0  0  0  0  0  0  0  0  0  0  0
  -28.0090  -29.1452   21.2057 H   0  0  0  0  0  0  0  0  0  0  0  0
  -26.1369  -26.0560   19.0719 H   0  0  0  0  0  0  0  0  0  0  0  0
  -24.0652  -27.2961   19.0997 H   0  0  0  0  0  0  0  0  0  0  0  0
  -23.6156  -30.5365   19.3930 H   0  0  0  0  0  0  0  0  0  0  0  0
  -22.7355  -29.1425   19.9945 H   0  0  0  0  0  0  0  0  0  0  0  0
  -25.1353  -36.2335   25.0565 H   0  0  0  0  0  0  0  0  0  0  0  0
  -21.0070  -28.3206   24.0793 H   0  0  0  0  0  0  0  0  0  0  0  0
  -20.5555  -26.2518   23.3550 H   0  0  0  0  0  0  0  0  0  0  0  0
  -21.5974  -26.8362   22.0454 H   0  0  0  0  0  0  0  0  0  0  0  0
  -19.6810  -25.6422   21.1488 H   0  0  0  0  0  0  0  0  0  0  0  0
  -19.6406  -27.3343   20.7034 H   0  0  0  0  0  0  0  0  0  0  0  0
  -17.4282  -26.6888   21.4113 H   0  0  0  0  0  0  0  0  0  0  0  0
  -18.0803  -26.0130   22.9049 H   0  0  0  0  0  0  0  0  0  0  0  0
  -19.7265  -30.6774   24.2204 H   0  0  0  0  0  0  0  0  0  0  0  0
  -17.5064  -31.5856   24.4483 H   0  0  0  0  0  0  0  0  0  0  0  0
  -15.5878  -30.2839   23.7407 H   0  0  0  0  0  0  0  0  0  0  0  0
  -15.9120  -28.0941   22.7766 H   0  0  0  0  0  0  0  0  0  0  0  0
  -24.5787  -30.7757   25.6817 H   0  0  0  0  0  0  0  0  0  0  0  0
  -25.0041  -32.2289   26.5536 H   0  0  0  0  0  0  0  0  0  0  0  0
  -25.8166  -30.7245   26.9138 H   0  0  0  0  0  0  0  0  0  0  0  0
  -26.2892  -29.7335   24.0803 H   0  0  0  0  0  0  0  0  0  0  0  0
  -27.4336  -29.7484   25.4006 H   0  0  0  0  0  0  0  0  0  0  0  0
  -27.8466  -30.4994   23.8779 H   0  0  0  0  0  0  0  0  0  0  0  0
  -27.2251  -33.3632   26.1242 H   0  0  0  0  0  0  0  0  0  0  0  0
  -28.3902  -32.6065   25.0645 H   0  0  0  0  0  0  0  0  0  0  0  0
  -27.9772  -31.8555   26.5872 H   0  0  0  0  0  0  0  0  0  0  0  0
  -28.2744  -38.0016   24.6863 H   0  0  0  0  0  0  0  0  0  0  0  0
  -28.0396  -36.2711   24.7461 H   0  0  0  0  0  0  0  0  0  0  0  0
  -27.1773  -37.3087   25.8564 H   0  0  0  0  0  0  0  0  0  0  0  0
  -20.9627  -29.9365   21.7352 H   0  0  0  0  0  0  0  0  0  0  0  0
  -26.0447  -38.2561   24.0273 H   0  0  0  0  0  0  0  0  0  0  0  0
  -33.2435  -18.9428   21.1110 H   0  0  0  0  0  0  0  0  0  0  0  0
  -28.9683  -17.5542   22.5929 H   0  0  0  0  0  0  0  0  0  0  0  0
  -32.9480  -20.7063   23.1557 H   0  0  0  0  0  0  0  0  0  0  0  0
  -31.2876  -21.3068   23.1576 H   0  0  0  0  0  0  0  0  0  0  0  0
  -32.2802  -22.5062   18.9333 H   0  0  0  0  0  0  0  0  0  0  0  0
  -32.8073  -23.8150   20.0072 H   0  0  0  0  0  0  0  0  0  0  0  0
  -30.4113  -23.5174   18.4095 H   0  0  0  0  0  0  0  0  0  0  0  0
  -31.7364  -24.9339   18.8502 H   0  0  0  0  0  0  0  0  0  0  0  0
  -29.1691  -15.7243   21.2578 H   0  0  0  0  0  0  0  0  0  0  0  0
  -33.2272  -21.5847   21.0230 H   0  0  0  0  0  0  0  0  0  0  0  0
  1 25  1  0  0  0  0
  1 30  2  0  0  0  0
  1 81  1  0  0  0  0
  2  3  1  0  0  0  0
  2 25  1  0  0  0  0
  2 84  1  0  0  0  0
  2 85  1  0  0  0  0
  3  4  1  0  0  0  0
  3 86  1  0  0  0  0
  3 87  1  0  0  0  0
  4  5  1  0  0  0  0
  4 88  1  0  0  0  0
  4 89  1  0  0  0  0
  5  6  1  0  0  0  0
  5 26  1  0  0  0  0
  5 90  1  6  0  0  0
  6 25  1  0  0  0  0
  6 91  1  0  0  0  0
  6 92  1  0  0  0  0
  7  8  2  0  0  0  0
  7 26  1  0  0  0  0
  7 29  1  0  0  0  0
  8  9  1  0  0  0  0
  8 22  1  0  0  0  0
  9 10  1  0  0  0  0
  9 27  2  0  0  0  0
 10 11  2  0  0  0  0
 10 15  1  0  0  0  0
 11 12  1  0  0  0  0
 11 93  1  0  0  0  0
 12 13  2  0  0  0  0
 12 94  1  0  0  0  0
 13 14  1  0  0  0  0
 13 31  1  0  0  0  0
 14 15  2  0  0  0  0
 14 95  1  0  0  0  0
 15 96  1  0  0  0  0
 16 17  2  0  0  0  0
 16 21  1  0  0  0  0
 16 31  1  0  0  0  0
 17 18  1  0  0  0  0
 17 97  1  0  0  0  0
 18 19  2  0  0  0  0
 18 98  1  0  0  0  0
 19 20  1  0  0  0  0
 19 24  1  0  0  0  0
 20 21  2  0  0  0  0
 20 99  1  0  0  0  0
 21 23  1  0  0  0  0
 22 28  1  0  0  0  0
 22 32  2  0  0  0  0
 26 27  1  0  0  0  0
 28100  1  0  0  0  0
 28101  1  0  0  0  0
 29102  1  0  0  0  0
 29103  1  0  0  0  0
 33 34  1  0  0  0  0
 33 66  1  0  0  0  0
 33 70  2  0  0  0  0
 34 36  1  0  0  0  0
 34 59  1  0  0  0  0
 34104  1  6  0  0  0
 35 44  2  0  0  0  0
 35 45  1  0  0  0  0
 35 68  1  0  0  0  0
 36 56  1  0  0  0  0
 36105  1  0  0  0  0
 37 39  1  0  0  0  0
 37 47  1  0  0  0  0
 37 66  1  0  0  0  0
 37106  1  6  0  0  0
 38 43  2  0  0  0  0
 38 46  1  0  0  0  0
 38 47  1  0  0  0  0
 39 64  1  0  0  0  0
 39 67  2  0  0  0  0
 40 52  1  0  0  0  0
 40 53  2  0  0  0  0
 40 58  1  0  0  0  0
 41107  1  0  0  0  0
 41108  1  0  0  0  0
 41109  1  0  0  0  0
 42 43  1  0  0  0  0
 42 66  1  0  0  0  0
 42110  1  0  0  0  0
 42111  1  0  0  0  0
 43 44  1  0  0  0  0
 44112  1  0  0  0  0
 45 46  2  0  0  0  0
 45113  1  0  0  0  0
 46114  1  0  0  0  0
 47115  1  0  0  0  0
 47116  1  0  0  0  0
 48 41  1  0  0  0  0
 48 56  1  0  0  0  0
 48 65  1  0  0  0  0
 48117  1  1  0  0  0
 49 50  1  0  0  0  0
 49 53  1  0  0  0  0
 49 64  1  0  0  0  0
 49118  1  1  0  0  0
 50 51  1  0  0  0  0
 50119  1  0  0  0  0
 50120  1  0  0  0  0
 51 52  1  0  0  0  0
 51121  1  0  0  0  0
 51122  1  0  0  0  0
 52123  1  0  0  0  0
 52124  1  0  0  0  0
 53 54  1  0  0  0  0
 54 55  2  0  0  0  0
 54125  1  0  0  0  0
 55 57  1  0  0  0  0
 55126  1  0  0  0  0
 56 69  2  0  0  0  0
 57 58  2  0  0  0  0
 57127  1  0  0  0  0
 58128  1  0  0  0  0
 59 60  1  0  0  0  0
 59 61  1  0  0  0  0
 59 62  1  0  0  0  0
 60129  1  0  0  0  0
 60130  1  0  0  0  0
 60131  1  0  0  0  0
 61132  1  0  0  0  0
 61133  1  0  0  0  0
 61134  1  0  0  0  0
 62135  1  0  0  0  0
 62136  1  0  0  0  0
 62137  1  0  0  0  0
 63 65  1  0  0  0  0
 63138  1  0  0  0  0
 63139  1  0  0  0  0
 63140  1  0  0  0  0
 64141  1  0  0  0  0
 65142  1  0  0  0  0
 68 78  1  0  0  0  0
 71 73  2  0  0  0  0
 71 80  1  0  0  0  0
 71143  1  0  0  0  0
 72 74  1  0  0  0  0
 72 79  2  0  0  0  0
 72144  1  0  0  0  0
 73 76  1  0  0  0  0
 73 79  1  0  0  0  0
 74 80  2  0  0  0  0
 74 81  1  0  0  0  0
 75 77  1  0  0  0  0
 75 82  1  0  0  0  0
 75 83  2  0  0  0  0
 76 82  1  0  0  0  0
 76145  1  0  0  0  0
 76146  1  0  0  0  0
 77 78  1  0  0  0  0
 77147  1  0  0  0  0
 77148  1  0  0  0  0
 78149  1  0  0  0  0
 78150  1  0  0  0  0
 81151  1  0  0  0  0
 82152  1  0  0  0  0
M  ISO  4   1 100  68 101  78 101  81 100
M  END
$$$$
2
 OpenBabel04052305473D

155163  0  0  0  0  0  0  0  0999 V2000
  -30.7652  -14.3608   20.6636 C   0  0  0  0  0  0  0  0  0  0  0  0
  -30.4392  -12.2669   19.3775 C   0  0  0  0  0  0  0  0  0  0  0  0
  -29.4791  -12.5281   18.1977 C   0  0  0  0  0  0  0  0  0  0  0  0
  -27.9985  -12.3963   18.6038 C   0  0  0  0  0  0  0  0  0  0  0  0
  -27.6639  -13.2170   19.8820 C   0  0  2  0  0  0  0  0  0  0  0  0
  -28.6795  -12.9602   21.0279 C   0  0  0  0  0  0  0  0  0  0  0  0
  -25.2633  -13.8245   20.5754 C   0  0  0  0  0  0  0  0  0  0  0  0
  -24.1645  -13.0409   20.9408 C   0  0  0  0  0  0  0  0  0  0  0  0
  -24.6400  -11.7009   20.8697 C   0  0  0  0  0  0  0  0  0  0  0  0
  -23.9005  -10.4085   21.0420 C   0  0  0  0  0  0  0  0  0  0  0  0
  -24.3588   -9.4123   21.9123 C   0  0  0  0  0  0  0  0  0  0  0  0
  -23.6296   -8.2350   22.0803 C   0  0  0  0  0  0  0  0  0  0  0  0
  -22.4385   -8.0419   21.3657 C   0  0  0  0  0  0  0  0  0  0  0  0
  -22.0103   -9.0167   20.4678 C   0  0  0  0  0  0  0  0  0  0  0  0
  -22.7317  -10.1925   20.3102 C   0  0  0  0  0  0  0  0  0  0  0  0
  -21.6857   -6.0709   22.5391 C   0  0  0  0  0  0  0  0  0  0  0  0
  -21.4064   -6.5490   23.8264 C   0  0  0  0  0  0  0  0  0  0  0  0
  -21.3635   -5.6677   24.9085 C   0  0  0  0  0  0  0  0  0  0  0  0
  -21.5973   -4.3067   24.7088 C   0  0  0  0  0  0  0  0  0  0  0  0
  -21.8700   -3.8284   23.4282 C   0  0  0  0  0  0  0  0  0  0  0  0
  -21.9144   -4.7056   22.3460 C   0  0  0  0  0  0  0  0  0  0  0  0
  -22.8194  -13.5263   21.1763 C   0  0  0  0  0  0  0  0  0  0  0  0
  -22.1559   -4.2206   21.1063 F   0  0  0  0  0  0  0  0  0  0  0  0
  -21.5628   -3.4510   25.7555 F   0  0  0  0  0  0  0  0  0  0  0  0
  -30.0261  -13.1803   20.4553 N   0  0  0  0  0  0  0  0  0  0  0  0
  -26.2911  -12.9356   20.3443 N   0  0  0  0  0  0  0  0  0  0  0  0
  -25.9236  -11.6675   20.5847 N   0  0  0  0  0  0  0  0  0  0  0  0
  -22.0708  -12.7905   22.0005 N   0  0  0  0  0  0  0  0  0  0  0  0
  -25.4117  -15.1773   20.4097 N   0  0  0  0  0  0  0  0  0  0  0  0
  -31.7916  -14.6724   20.0536 O   0  0  0  0  0  0  0  0  0  0  0  0
  -21.6670   -6.9022   21.4423 O   0  0  0  0  0  0  0  0  0  0  0  0
  -22.3946  -14.5564   20.6568 O   0  0  0  0  0  0  0  0  0  0  0  0
  -24.6048  -31.8614   23.2223 C   0  0  0  0  0  0  0  0  0  0  0  0
  -25.8822  -32.4841   23.8616 C   0  0  1  0  0  0  0  0  0  0  0  0
  -27.2536  -27.5042   20.1156 C   0  0  0  0  0  0  0  0  0  0  0  0
  -25.5726  -33.8762   24.2210 N   0  0  0  0  0  0  0  0  0  0  0  0
  -23.4066  -30.4859   21.5461 C   0  0  2  0  0  0  0  0  0  0  0  0
  -24.8467  -28.9636   20.1247 C   0  0  0  0  0  0  0  0  0  0  0  0
  -22.7412  -29.4652   22.5052 C   0  0  0  0  0  0  0  0  0  0  0  0
  -18.0167  -28.1302   22.8626 C   0  0  0  0  0  0  0  0  0  0  0  0
  -24.1342  -36.7390   23.2568 C   0  0  0  0  0  0  0  0  0  0  0  0
  -25.9141  -30.8882   21.3456 C   0  0  0  0  0  0  0  0  0  0  0  0
  -25.9930  -29.5029   20.7208 C   0  0  0  0  0  0  0  0  0  0  0  0
  -27.1758  -28.7612   20.7331 C   0  0  0  0  0  0  0  0  0  0  0  0
  -26.1032  -26.9836   19.5230 C   0  0  0  0  0  0  0  0  0  0  0  0
  -24.9097  -27.7011   19.5331 C   0  0  0  0  0  0  0  0  0  0  0  0
  -23.5715  -29.7899   20.1582 C   0  0  0  0  0  0  0  0  0  0  0  0
  -25.3990  -36.3212   24.0232 C   0  0  1  0  0  0  0  0  0  0  0  0
  -20.5793  -28.3813   23.1004 C   0  0  2  0  0  0  0  0  0  0  0  0
  -20.6548  -26.9392   22.5411 C   0  0  0  0  0  0  0  0  0  0  0  0
  -19.5615  -26.6407   21.5143 C   0  0  0  0  0  0  0  0  0  0  0  0
  -18.1797  -26.7818   22.1673 C   0  0  0  0  0  0  0  0  0  0  0  0
  -19.1385  -28.8769   23.2988 C   0  0  0  0  0  0  0  0  0  0  0  0
  -18.9183  -30.1286   23.8878 C   0  0  0  0  0  0  0  0  0  0  0  0
  -17.6396  -30.6493   24.0352 C   0  0  0  0  0  0  0  0  0  0  0  0
  -25.9153  -34.9582   23.4993 C   0  0  0  0  0  0  0  0  0  0  0  0
  -16.5415  -29.9068   23.6254 C   0  0  0  0  0  0  0  0  0  0  0  0
  -16.7331  -28.6521   23.0586 C   0  0  0  0  0  0  0  0  0  0  0  0
  -26.4583  -31.6439   25.0683 C   0  0  0  0  0  0  0  0  0  0  0  0
  -25.3807  -31.3179   26.1374 C   0  0  0  0  0  0  0  0  0  0  0  0
  -27.0530  -30.3024   24.5680 C   0  0  0  0  0  0  0  0  0  0  0  0
  -27.6014  -32.4281   25.7651 C   0  0  0  0  0  0  0  0  0  0  0  0
  -27.5629  -37.2220   24.8621 C   0  0  0  0  0  0  0  0  0  0  0  0
  -21.4133  -29.3375   22.3735 N   0  0  0  0  0  0  0  0  0  0  0  0
  -26.4706  -37.3372   23.9061 N   0  0  0  0  0  0  0  0  0  0  0  0
  -24.6674  -31.0544   22.1178 N   0  0  0  0  0  0  0  0  0  0  0  0
  -23.4259  -28.8150   23.2971 O   0  0  0  0  0  0  0  0  0  0  0  0
  -28.3948  -26.7345   20.0089 O   0  0  0  0  0  0  0  0  0  0  0  0
  -26.5870  -34.9065   22.4671 O   0  0  0  0  0  0  0  0  0  0  0  0
  -23.5365  -32.1254   23.7833 O   0  0  0  0  0  0  0  0  0  0  0  0
  -32.7737  -15.1376   25.7626 C   0  0  0  0  0  0  0  0  0  0  0  0
  -30.6404  -14.8122   24.6919 C   0  0  0  0  0  0  0  0  0  0  0  0
  -33.3824  -14.5644   24.6552 C   0  0  0  0  0  0  0  0  0  0  0  0
  -31.3877  -15.2608   25.7768 C   0  0  0  0  0  0  0  0  0  0  0  0
  -31.3032  -14.2474   23.6115 C   0  0  0  0  0  0  0  0  0  0  0  0
  -28.6890  -14.6524   27.3246 C   0  0  0  0  0  0  0  0  0  0  0  0
  -28.9830  -17.0576   28.0132 C   0  0  0  0  0  0  0  0  0  0  0  0
  -29.5404  -18.4336   27.6631 C   0  0  0  0  0  0  0  0  0  0  0  0
  -29.3187  -15.9940   26.9630 C   0  0  1  0  0  0  0  0  0  0  0  0
  -32.6389  -14.1409   23.6240 N   0  3  0  0  0  0  0  0  0  0  0  0
  -30.7540  -15.8268   26.8684 N   0  0  0  0  0  0  0  0  0  0  0  0
  -30.5471  -13.7884   22.5045 N   0  0  0  0  0  0  0  0  0  0  0  0
  -31.4485  -12.4701   19.0860 H   0  0  0  0  0  0  0  0  0  0  0  0
  -30.3970  -11.2460   19.6950 H   0  0  0  0  0  0  0  0  0  0  0  0
  -29.6870  -11.8204   17.4226 H   0  0  0  0  0  0  0  0  0  0  0  0
  -29.6375  -13.5326   17.8649 H   0  0  0  0  0  0  0  0  0  0  0  0
  -27.7830  -11.3650   18.7904 H   0  0  0  0  0  0  0  0  0  0  0  0
  -27.4028  -12.7801   17.8021 H   0  0  0  0  0  0  0  0  0  0  0  0
  -27.7353  -14.2503   19.6136 H   0  0  0  0  0  0  0  0  0  0  0  0
  -28.5890  -11.9550   21.3832 H   0  0  0  0  0  0  0  0  0  0  0  0
  -28.5005  -13.6134   21.8562 H   0  0  0  0  0  0  0  0  0  0  0  0
  -25.2399   -9.5495   22.4318 H   0  0  0  0  0  0  0  0  0  0  0  0
  -23.9663   -7.5070   22.7297 H   0  0  0  0  0  0  0  0  0  0  0  0
  -21.1515   -8.8641   19.9162 H   0  0  0  0  0  0  0  0  0  0  0  0
  -22.4016  -10.9115   19.6476 H   0  0  0  0  0  0  0  0  0  0  0  0
  -21.2319   -7.5552   23.9750 H   0  0  0  0  0  0  0  0  0  0  0  0
  -21.1589   -6.0228   25.8556 H   0  0  0  0  0  0  0  0  0  0  0  0
  -22.0396   -2.8212   23.2809 H   0  0  0  0  0  0  0  0  0  0  0  0
  -22.4401  -11.9703   22.4008 H   0  0  0  0  0  0  0  0  0  0  0  0
  -21.1493  -13.0679   22.2082 H   0  0  0  0  0  0  0  0  0  0  0  0
  -24.6538  -15.7807   20.5848 H   0  0  0  0  0  0  0  0  0  0  0  0
  -26.2762  -15.5453   20.1156 H   0  0  0  0  0  0  0  0  0  0  0  0
  -26.6778  -32.4663   23.1464 H   0  0  0  0  0  0  0  0  0  0  0  0
  -25.0747  -34.0282   25.0566 H   0  0  0  0  0  0  0  0  0  0  0  0
  -22.7881  -31.3489   21.4131 H   0  0  0  0  0  0  0  0  0  0  0  0
  -23.3854  -35.9823   23.3648 H   0  0  0  0  0  0  0  0  0  0  0  0
  -24.3696  -36.8624   22.2204 H   0  0  0  0  0  0  0  0  0  0  0  0
  -23.7669  -37.6632   23.6516 H   0  0  0  0  0  0  0  0  0  0  0  0
  -25.9445  -31.6237   20.5691 H   0  0  0  0  0  0  0  0  0  0  0  0
  -26.7436  -31.0079   22.0108 H   0  0  0  0  0  0  0  0  0  0  0  0
  -28.0090  -29.1452   21.2057 H   0  0  0  0  0  0  0  0  0  0  0  0
  -26.1369  -26.0560   19.0719 H   0  0  0  0  0  0  0  0  0  0  0  0
  -24.0652  -27.2961   19.0997 H   0  0  0  0  0  0  0  0  0  0  0  0
  -23.6156  -30.5365   19.3930 H   0  0  0  0  0  0  0  0  0  0  0  0
  -22.7355  -29.1425   19.9945 H   0  0  0  0  0  0  0  0  0  0  0  0
  -25.1353  -36.2335   25.0565 H   0  0  0  0  0  0  0  0  0  0  0  0
  -21.0070  -28.3206   24.0793 H   0  0  0  0  0  0  0  0  0  0  0  0
  -20.5555  -26.2518   23.3550 H   0  0  0  0  0  0  0  0  0  0  0  0
  -21.5974  -26.8362   22.0454 H   0  0  0  0  0  0  0  0  0  0  0  0
  -19.6810  -25.6422   21.1488 H   0  0  0  0  0  0  0  0  0  0  0  0
  -19.6406  -27.3343   20.7034 H   0  0  0  0  0  0  0  0  0  0  0  0
  -17.4282  -26.6888   21.4113 H   0  0  0  0  0  0  0  0  0  0  0  0
  -18.0803  -26.0130   22.9049 H   0  0  0  0  0  0  0  0  0  0  0  0
  -19.7265  -30.6774   24.2204 H   0  0  0  0  0  0  0  0  0  0  0  0
  -17.5064  -31.5856   24.4483 H   0  0  0  0  0  0  0  0  0  0  0  0
  -15.5878  -30.2839   23.7407 H   0  0  0  0  0  0  0  0  0  0  0  0
  -15.9120  -28.0941   22.7766 H   0  0  0  0  0  0  0  0  0  0  0  0
  -24.5787  -30.7757   25.6817 H   0  0  0  0  0  0  0  0  0  0  0  0
  -25.0041  -32.2289   26.5536 H   0  0  0  0  0  0  0  0  0  0  0  0
  -25.8166  -30.7245   26.9138 H   0  0  0  0  0  0  0  0  0  0  0  0
  -26.2892  -29.7335   24.0803 H   0  0  0  0  0  0  0  0  0  0  0  0
  -27.4336  -29.7484   25.4006 H   0  0  0  0  0  0  0  0  0  0  0  0
  -27.8466  -30.4994   23.8779 H   0  0  0  0  0  0  0  0  0  0  0  0
  -27.2251  -33.3632   26.1242 H   0  0  0  0  0  0  0  0  0  0  0  0
  -28.3902  -32.6065   25.0645 H   0  0  0  0  0  0  0  0  0  0  0  0
  -27.9772  -31.8555   26.5872 H   0  0  0  0  0  0  0  0  0  0  0  0
  -28.2744  -38.0016   24.6863 H   0  0  0  0  0  0  0  0  0  0  0  0
  -28.0396  -36.2711   24.7461 H   0  0  0  0  0  0  0  0  0  0  0  0
  -27.1773  -37.3087   25.8564 H   0  0  0  0  0  0  0  0  0  0  0  0
  -20.9627  -29.9365   21.7352 H   0  0  0  0  0  0  0  0  0  0  0  0
  -26.0447  -38.2561   24.0273 H   0  0  0  0  0  0  0  0  0  0  0  0
  -33.3386  -15.4666   26.5612 H   0  0  0  0  0  0  0  0  0  0  0  0
  -29.6120  -14.8980   24.6909 H   0  0  0  0  0  0  0  0  0  0  0  0
  -34.4091  -14.4641   24.6257 H   0  0  0  0  0  0  0  0  0  0  0  0
  -27.6274  -14.7647   27.3971 H   0  0  0  0  0  0  0  0  0  0  0  0
  -29.0773  -14.3177   28.2638 H   0  0  0  0  0  0  0  0  0  0  0  0
  -28.9207  -13.9338   26.5665 H   0  0  0  0  0  0  0  0  0  0  0  0
  -27.9188  -17.1313   28.0965 H   0  0  0  0  0  0  0  0  0  0  0  0
  -29.4342  -16.7531   28.9344 H   0  0  0  0  0  0  0  0  0  0  0  0
  -30.5847  -18.2170   27.5773 H   0  0  0  0  0  0  0  0  0  0  0  0
  -28.8765  -18.9196   28.3471 H   0  0  0  0  0  0  0  0  0  0  0  0
  -28.9252  -16.3233   26.0240 H   0  0  0  0  0  0  0  0  0  0  0  0
  -33.0901  -13.7370   22.8478 H   0  0  0  0  0  0  0  0  0  0  0  0
  -31.3089  -16.1326   27.6219 H   0  0  0  0  0  0  0  0  0  0  0  0
  -29.8484  -13.1189   22.6858 H   0  0  0  0  0  0  0  0  0  0  0  0
  1 25  1  0  0  0  0
  1 30  2  0  0  0  0
  1 82  1  0  0  0  0
  2  3  1  0  0  0  0
  2 25  1  0  0  0  0
  2 83  1  0  0  0  0
  2 84  1  0  0  0  0
  3  4  1  0  0  0  0
  3 85  1  0  0  0  0
  3 86  1  0  0  0  0
  4  5  1  0  0  0  0
  4 87  1  0  0  0  0
  4 88  1  0  0  0  0
  5  6  1  0  0  0  0
  5 26  1  0  0  0  0
  5 89  1  6  0  0  0
  6 25  1  0  0  0  0
  6 90  1  0  0  0  0
  6 91  1  0  0  0  0
  7  8  2  0  0  0  0
  7 26  1  0  0  0  0
  7 29  1  0  0  0  0
  8  9  1  0  0  0  0
  8 22  1  0  0  0  0
  9 10  1  0  0  0  0
  9 27  2  0  0  0  0
 10 11  2  0  0  0  0
 10 15  1  0  0  0  0
 11 12  1  0  0  0  0
 11 92  1  0  0  0  0
 12 13  2  0  0  0  0
 12 93  1  0  0  0  0
 13 14  1  0  0  0  0
 13 31  1  0  0  0  0
 14 15  2  0  0  0  0
 14 94  1  0  0  0  0
 15 95  1  0  0  0  0
 16 17  2  0  0  0  0
 16 21  1  0  0  0  0
 16 31  1  0  0  0  0
 17 18  1  0  0  0  0
 17 96  1  0  0  0  0
 18 19  2  0  0  0  0
 18 97  1  0  0  0  0
 19 20  1  0  0  0  0
 19 24  1  0  0  0  0
 20 21  2  0  0  0  0
 20 98  1  0  0  0  0
 21 23  1  0  0  0  0
 22 28  1  0  0  0  0
 22 32  2  0  0  0  0
 26 27  1  0  0  0  0
 28 99  1  0  0  0  0
 28100  1  0  0  0  0
 29101  1  0  0  0  0
 29102  1  0  0  0  0
 33 34  1  0  0  0  0
 33 66  1  0  0  0  0
 33 70  2  0  0  0  0
 34 36  1  0  0  0  0
 34 59  1  0  0  0  0
 34103  1  6  0  0  0
 35 44  2  0  0  0  0
 35 45  1  0  0  0  0
 35 68  1  0  0  0  0
 36 56  1  0  0  0  0
 36104  1  0  0  0  0
 37 39  1  0  0  0  0
 37 47  1  0  0  0  0
 37 66  1  0  0  0  0
 37105  1  6  0  0  0
 38 43  2  0  0  0  0
 38 46  1  0  0  0  0
 38 47  1  0  0  0  0
 39 64  1  0  0  0  0
 39 67  2  0  0  0  0
 40 52  1  0  0  0  0
 40 53  2  0  0  0  0
 40 58  1  0  0  0  0
 41106  1  0  0  0  0
 41107  1  0  0  0  0
 41108  1  0  0  0  0
 42 43  1  0  0  0  0
 42 66  1  0  0  0  0
 42109  1  0  0  0  0
 42110  1  0  0  0  0
 43 44  1  0  0  0  0
 44111  1  0  0  0  0
 45 46  2  0  0  0  0
 45112  1  0  0  0  0
 46113  1  0  0  0  0
 47114  1  0  0  0  0
 47115  1  0  0  0  0
 48 41  1  0  0  0  0
 48 56  1  0  0  0  0
 48 65  1  0  0  0  0
 48116  1  1  0  0  0
 49 50  1  0  0  0  0
 49 53  1  0  0  0  0
 49 64  1  0  0  0  0
 49117  1  1  0  0  0
 50 51  1  0  0  0  0
 50118  1  0  0  0  0
 50119  1  0  0  0  0
 51 52  1  0  0  0  0
 51120  1  0  0  0  0
 51121  1  0  0  0  0
 52122  1  0  0  0  0
 52123  1  0  0  0  0
 53 54  1  0  0  0  0
 54 55  2  0  0  0  0
 54124  1  0  0  0  0
 55 57  1  0  0  0  0
 55125  1  0  0  0  0
 56 69  2  0  0  0  0
 57 58  2  0  0  0  0
 57126  1  0  0  0  0
 58127  1  0  0  0  0
 59 60  1  0  0  0  0
 59 61  1  0  0  0  0
 59 62  1  0  0  0  0
 60128  1  0  0  0  0
 60129  1  0  0  0  0
 60130  1  0  0  0  0
 61131  1  0  0  0  0
 61132  1  0  0  0  0
 61133  1  0  0  0  0
 62134  1  0  0  0  0
 62135  1  0  0  0  0
 62136  1  0  0  0  0
 63 65  1  0  0  0  0
 63137  1  0  0  0  0
 63138  1  0  0  0  0
 63139  1  0  0  0  0
 64140  1  0  0  0  0
 65141  1  0  0  0  0
 68 78  1  0  0  0  0
 71 73  2  0  0  0  0
 71 74  1  0  0  0  0
 71142  1  0  0  0  0
 72 74  2  0  0  0  0
 72 75  1  0  0  0  0
 72143  1  0  0  0  0
 73 80  1  0  0  0  0
 73144  1  0  0  0  0
 74 81  1  0  0  0  0
 75 80  2  0  0  0  0
 75 82  1  0  0  0  0
 76145  1  0  0  0  0
 76146  1  0  0  0  0
 76147  1  0  0  0  0
 77 78  1  0  0  0  0
 77 79  1  0  0  0  0
 77148  1  0  0  0  0
 77149  1  0  0  0  0
 78150  1  0  0  0  0
 78151  1  0  0  0  0
 79 76  1  0  0  0  0
 79 81  1  0  0  0  0
 79152  1  6  0  0  0
 80153  1  0  0  0  0
 81154  1  0  0  0  0
 82155  1  0  0  0  0
M  ISO  4   1 100  68 101  78 101  82 100
M  CHG  1  80   1
M  END
$$$$
3
 OpenBabel04052305473D

153161  0  0  0  0  0  0  0  0999 V2000
  -30.7652  -14.3608   20.6636 C   0  0  0  0  0  0  0  0  0  0  0  0
  -30.4392  -12.2669   19.3775 C   0  0  0  0  0  0  0  0  0  0  0  0
  -29.4791  -12.5281   18.1977 C   0  0  0  0  0  0  0  0  0  0  0  0
  -27.9985  -12.3963   18.6038 C   0  0  0  0  0  0  0  0  0  0  0  0
  -27.6639  -13.2170   19.8820 C   0  0  2  0  0  0  0  0  0  0  0  0
  -28.6795  -12.9602   21.0279 C   0  0  0  0  0  0  0  0  0  0  0  0
  -25.2633  -13.8245   20.5754 C   0  0  0  0  0  0  0  0  0  0  0  0
  -24.1645  -13.0409   20.9408 C   0  0  0  0  0  0  0  0  0  0  0  0
  -24.6400  -11.7009   20.8697 C   0  0  0  0  0  0  0  0  0  0  0  0
  -23.9005  -10.4085   21.0420 C   0  0  0  0  0  0  0  0  0  0  0  0
  -24.3588   -9.4123   21.9123 C   0  0  0  0  0  0  0  0  0  0  0  0
  -23.6296   -8.2350   22.0803 C   0  0  0  0  0  0  0  0  0  0  0  0
  -22.4385   -8.0419   21.3657 C   0  0  0  0  0  0  0  0  0  0  0  0
  -22.0103   -9.0167   20.4678 C   0  0  0  0  0  0  0  0  0  0  0  0
  -22.7317  -10.1925   20.3102 C   0  0  0  0  0  0  0  0  0  0  0  0
  -21.6857   -6.0709   22.5391 C   0  0  0  0  0  0  0  0  0  0  0  0
  -21.4064   -6.5490   23.8264 C   0  0  0  0  0  0  0  0  0  0  0  0
  -21.3635   -5.6677   24.9085 C   0  0  0  0  0  0  0  0  0  0  0  0
  -21.5973   -4.3067   24.7088 C   0  0  0  0  0  0  0  0  0  0  0  0
  -21.8700   -3.8284   23.4282 C   0  0  0  0  0  0  0  0  0  0  0  0
  -21.9144   -4.7056   22.3460 C   0  0  0  0  0  0  0  0  0  0  0  0
  -22.8194  -13.5263   21.1763 C   0  0  0  0  0  0  0  0  0  0  0  0
  -22.1559   -4.2206   21.1063 F   0  0  0  0  0  0  0  0  0  0  0  0
  -21.5628   -3.4510   25.7555 F   0  0  0  0  0  0  0  0  0  0  0  0
  -30.0261  -13.1803   20.4553 N   0  0  0  0  0  0  0  0  0  0  0  0
  -26.2911  -12.9356   20.3443 N   0  0  0  0  0  0  0  0  0  0  0  0
  -25.9236  -11.6675   20.5847 N   0  0  0  0  0  0  0  0  0  0  0  0
  -22.0708  -12.7905   22.0005 N   0  0  0  0  0  0  0  0  0  0  0  0
  -25.4117  -15.1773   20.4097 N   0  0  0  0  0  0  0  0  0  0  0  0
  -31.7916  -14.6724   20.0536 O   0  0  0  0  0  0  0  0  0  0  0  0
  -21.6670   -6.9022   21.4423 O   0  0  0  0  0  0  0  0  0  0  0  0
  -22.3946  -14.5564   20.6568 O   0  0  0  0  0  0  0  0  0  0  0  0
  -24.6048  -31.8614   23.2223 C   0  0  0  0  0  0  0  0  0  0  0  0
  -25.8822  -32.4841   23.8616 C   0  0  1  0  0  0  0  0  0  0  0  0
  -27.2536  -27.5042   20.1156 C   0  0  0  0  0  0  0  0  0  0  0  0
  -25.5726  -33.8762   24.2210 N   0  0  0  0  0  0  0  0  0  0  0  0
  -23.4066  -30.4859   21.5461 C   0  0  2  0  0  0  0  0  0  0  0  0
  -24.8467  -28.9636   20.1247 C   0  0  0  0  0  0  0  0  0  0  0  0
  -22.7412  -29.4652   22.5052 C   0  0  0  0  0  0  0  0  0  0  0  0
  -18.0167  -28.1302   22.8626 C   0  0  0  0  0  0  0  0  0  0  0  0
  -24.1342  -36.7390   23.2568 C   0  0  0  0  0  0  0  0  0  0  0  0
  -25.9141  -30.8882   21.3456 C   0  0  0  0  0  0  0  0  0  0  0  0
  -25.9930  -29.5029   20.7208 C   0  0  0  0  0  0  0  0  0  0  0  0
  -27.1758  -28.7612   20.7331 C   0  0  0  0  0  0  0  0  0  0  0  0
  -26.1032  -26.9836   19.5230 C   0  0  0  0  0  0  0  0  0  0  0  0
  -24.9097  -27.7011   19.5331 C   0  0  0  0  0  0  0  0  0  0  0  0
  -23.5715  -29.7899   20.1582 C   0  0  0  0  0  0  0  0  0  0  0  0
  -25.3990  -36.3212   24.0232 C   0  0  1  0  0  0  0  0  0  0  0  0
  -20.5793  -28.3813   23.1004 C   0  0  2  0  0  0  0  0  0  0  0  0
  -20.6548  -26.9392   22.5411 C   0  0  0  0  0  0  0  0  0  0  0  0
  -19.5615  -26.6407   21.5143 C   0  0  0  0  0  0  0  0  0  0  0  0
  -18.1797  -26.7818   22.1673 C   0  0  0  0  0  0  0  0  0  0  0  0
  -19.1385  -28.8769   23.2988 C   0  0  0  0  0  0  0  0  0  0  0  0
  -18.9183  -30.1286   23.8878 C   0  0  0  0  0  0  0  0  0  0  0  0
  -17.6396  -30.6493   24.0352 C   0  0  0  0  0  0  0  0  0  0  0  0
  -25.9153  -34.9582   23.4993 C   0  0  0  0  0  0  0  0  0  0  0  0
  -16.5415  -29.9068   23.6254 C   0  0  0  0  0  0  0  0  0  0  0  0
  -16.7331  -28.6521   23.0586 C   0  0  0  0  0  0  0  0  0  0  0  0
  -26.4583  -31.6439   25.0683 C   0  0  0  0  0  0  0  0  0  0  0  0
  -25.3807  -31.3179   26.1374 C   0  0  0  0  0  0  0  0  0  0  0  0
  -27.0530  -30.3024   24.5680 C   0  0  0  0  0  0  0  0  0  0  0  0
  -27.6014  -32.4281   25.7651 C   0  0  0  0  0  0  0  0  0  0  0  0
  -27.5629  -37.2220   24.8621 C   0  0  0  0  0  0  0  0  0  0  0  0
  -21.4133  -29.3375   22.3735 N   0  0  0  0  0  0  0  0  0  0  0  0
  -26.4706  -37.3372   23.9061 N   0  0  0  0  0  0  0  0  0  0  0  0
  -24.6674  -31.0544   22.1178 N   0  0  0  0  0  0  0  0  0  0  0  0
  -23.4259  -28.8150   23.2971 O   0  0  0  0  0  0  0  0  0  0  0  0
  -28.3948  -26.7345   20.0089 O   0  0  0  0  0  0  0  0  0  0  0  0
  -26.5870  -34.9065   22.4671 O   0  0  0  0  0  0  0  0  0  0  0  0
  -23.5365  -32.1254   23.7833 O   0  0  0  0  0  0  0  0  0  0  0  0
  -30.4136  -23.2828   25.5752 C   0  0  0  0  0  0  0  0  0  0  0  0
  -28.7853  -24.0607   26.9799 C   0  0  0  0  0  0  0  0  0  0  0  0
  -29.5074  -23.2587   24.5381 C   0  0  0  0  0  0  0  0  0  0  0  0
  -27.8792  -24.0373   25.9427 C   0  0  0  0  0  0  0  0  0  0  0  0
  -24.4387  -25.4140   25.6427 C   0  0  0  0  0  0  0  0  0  0  0  0
  -29.9240  -22.8093   23.1812 C   0  0  0  0  0  0  0  0  0  0  0  0
  -24.9975  -23.0493   24.9838 C   0  0  0  0  0  0  0  0  0  0  0  0
  -25.5385  -24.4625   25.1904 C   0  0  2  0  0  0  0  0  0  0  0  0
  -30.0688  -23.6841   26.8148 N   0  0  0  0  0  0  0  0  0  0  0  0
  -28.2239  -23.6356   24.7032 N   0  0  0  0  0  0  0  0  0  0  0  0
  -26.5812  -24.4404   26.1967 N   0  0  0  0  0  0  0  0  0  0  0  0
  -29.1766  -23.4624   22.1298 N   0  0  0  0  0  0  0  0  0  0  0  0
  -31.4485  -12.4701   19.0860 H   0  0  0  0  0  0  0  0  0  0  0  0
  -30.3970  -11.2460   19.6950 H   0  0  0  0  0  0  0  0  0  0  0  0
  -29.6870  -11.8204   17.4226 H   0  0  0  0  0  0  0  0  0  0  0  0
  -29.6375  -13.5326   17.8649 H   0  0  0  0  0  0  0  0  0  0  0  0
  -27.7830  -11.3650   18.7904 H   0  0  0  0  0  0  0  0  0  0  0  0
  -27.4028  -12.7801   17.8021 H   0  0  0  0  0  0  0  0  0  0  0  0
  -27.7353  -14.2503   19.6136 H   0  0  0  0  0  0  0  0  0  0  0  0
  -28.5890  -11.9550   21.3832 H   0  0  0  0  0  0  0  0  0  0  0  0
  -28.5005  -13.6134   21.8562 H   0  0  0  0  0  0  0  0  0  0  0  0
  -25.2399   -9.5495   22.4318 H   0  0  0  0  0  0  0  0  0  0  0  0
  -23.9663   -7.5070   22.7297 H   0  0  0  0  0  0  0  0  0  0  0  0
  -21.1515   -8.8641   19.9162 H   0  0  0  0  0  0  0  0  0  0  0  0
  -22.4016  -10.9115   19.6476 H   0  0  0  0  0  0  0  0  0  0  0  0
  -21.2319   -7.5552   23.9750 H   0  0  0  0  0  0  0  0  0  0  0  0
  -21.1589   -6.0228   25.8556 H   0  0  0  0  0  0  0  0  0  0  0  0
  -22.0396   -2.8212   23.2809 H   0  0  0  0  0  0  0  0  0  0  0  0
  -22.4401  -11.9703   22.4008 H   0  0  0  0  0  0  0  0  0  0  0  0
  -21.1493  -13.0679   22.2082 H   0  0  0  0  0  0  0  0  0  0  0  0
  -24.6538  -15.7807   20.5848 H   0  0  0  0  0  0  0  0  0  0  0  0
  -26.2762  -15.5453   20.1156 H   0  0  0  0  0  0  0  0  0  0  0  0
  -26.6778  -32.4663   23.1464 H   0  0  0  0  0  0  0  0  0  0  0  0
  -25.0747  -34.0282   25.0566 H   0  0  0  0  0  0  0  0  0  0  0  0
  -22.7881  -31.3489   21.4131 H   0  0  0  0  0  0  0  0  0  0  0  0
  -23.3854  -35.9823   23.3648 H   0  0  0  0  0  0  0  0  0  0  0  0
  -24.3696  -36.8624   22.2204 H   0  0  0  0  0  0  0  0  0  0  0  0
  -23.7669  -37.6632   23.6516 H   0  0  0  0  0  0  0  0  0  0  0  0
  -25.9445  -31.6237   20.5691 H   0  0  0  0  0  0  0  0  0  0  0  0
  -26.7436  -31.0079   22.0108 H   0  0  0  0  0  0  0  0  0  0  0  0
  -28.0090  -29.1452   21.2057 H   0  0  0  0  0  0  0  0  0  0  0  0
  -26.1369  -26.0560   19.0719 H   0  0  0  0  0  0  0  0  0  0  0  0
  -24.0652  -27.2961   19.0997 H   0  0  0  0  0  0  0  0  0  0  0  0
  -23.6156  -30.5365   19.3930 H   0  0  0  0  0  0  0  0  0  0  0  0
  -22.7355  -29.1425   19.9945 H   0  0  0  0  0  0  0  0  0  0  0  0
  -25.1353  -36.2335   25.0565 H   0  0  0  0  0  0  0  0  0  0  0  0
  -21.0070  -28.3206   24.0793 H   0  0  0  0  0  0  0  0  0  0  0  0
  -20.5555  -26.2518   23.3550 H   0  0  0  0  0  0  0  0  0  0  0  0
  -21.5974  -26.8362   22.0454 H   0  0  0  0  0  0  0  0  0  0  0  0
  -19.6810  -25.6422   21.1488 H   0  0  0  0  0  0  0  0  0  0  0  0
  -19.6406  -27.3343   20.7034 H   0  0  0  0  0  0  0  0  0  0  0  0
  -17.4282  -26.6888   21.4113 H   0  0  0  0  0  0  0  0  0  0  0  0
  -18.0803  -26.0130   22.9049 H   0  0  0  0  0  0  0  0  0  0  0  0
  -19.7265  -30.6774   24.2204 H   0  0  0  0  0  0  0  0  0  0  0  0
  -17.5064  -31.5856   24.4483 H   0  0  0  0  0  0  0  0  0  0  0  0
  -15.5878  -30.2839   23.7407 H   0  0  0  0  0  0  0  0  0  0  0  0
  -15.9120  -28.0941   22.7766 H   0  0  0  0  0  0  0  0  0  0  0  0
  -24.5787  -30.7757   25.6817 H   0  0  0  0  0  0  0  0  0  0  0  0
  -25.0041  -32.2289   26.5536 H   0  0  0  0  0  0  0  0  0  0  0  0
  -25.8166  -30.7245   26.9138 H   0  0  0  0  0  0  0  0  0  0  0  0
  -26.2892  -29.7335   24.0803 H   0  0  0  0  0  0  0  0  0  0  0  0
  -27.4336  -29.7484   25.4006 H   0  0  0  0  0  0  0  0  0  0  0  0
  -27.8466  -30.4994   23.8779 H   0  0  0  0  0  0  0  0  0  0  0  0
  -27.2251  -33.3632   26.1242 H   0  0  0  0  0  0  0  0  0  0  0  0
  -28.3902  -32.6065   25.0645 H   0  0  0  0  0  0  0  0  0  0  0  0
  -27.9772  -31.8555   26.5872 H   0  0  0  0  0  0  0  0  0  0  0  0
  -28.2744  -38.0016   24.6863 H   0  0  0  0  0  0  0  0  0  0  0  0
  -28.0396  -36.2711   24.7461 H   0  0  0  0  0  0  0  0  0  0  0  0
  -27.1773  -37.3087   25.8564 H   0  0  0  0  0  0  0  0  0  0  0  0
  -20.9627  -29.9365   21.7352 H   0  0  0  0  0  0  0  0  0  0  0  0
  -26.0447  -38.2561   24.0273 H   0  0  0  0  0  0  0  0  0  0  0  0
  -31.3855  -22.9847   25.3978 H   0  0  0  0  0  0  0  0  0  0  0  0
  -28.4720  -24.3760   27.9113 H   0  0  0  0  0  0  0  0  0  0  0  0
  -23.6628  -25.4381   24.9063 H   0  0  0  0  0  0  0  0  0  0  0  0
  -24.8449  -26.3963   25.7650 H   0  0  0  0  0  0  0  0  0  0  0  0
  -24.0357  -25.0761   26.5745 H   0  0  0  0  0  0  0  0  0  0  0  0
  -29.7700  -21.7530   23.1069 H   0  0  0  0  0  0  0  0  0  0  0  0
  -30.9552  -23.0654   23.0554 H   0  0  0  0  0  0  0  0  0  0  0  0
  -23.9446  -22.8741   24.9090 H   0  0  0  0  0  0  0  0  0  0  0  0
  -25.1079  -22.0966   25.4582 H   0  0  0  0  0  0  0  0  0  0  0  0
  -25.9283  -24.8074   24.2555 H   0  0  0  0  0  0  0  0  0  0  0  0
  -26.3531  -24.7279   27.1102 H   0  0  0  0  0  0  0  0  0  0  0  0
  -28.7745  -24.2966   21.7958 H   0  0  0  0  0  0  0  0  0  0  0  0
  1 25  1  0  0  0  0
  1 30  2  0  0  0  0
  1 82  1  0  0  0  0
  2  3  1  0  0  0  0
  2 25  1  0  0  0  0
  2 83  1  0  0  0  0
  2 84  1  0  0  0  0
  3  4  1  0  0  0  0
  3 85  1  0  0  0  0
  3 86  1  0  0  0  0
  4  5  1  0  0  0  0
  4 87  1  0  0  0  0
  4 88  1  0  0  0  0
  5  6  1  0  0  0  0
  5 26  1  0  0  0  0
  5 89  1  6  0  0  0
  6 25  1  0  0  0  0
  6 90  1  0  0  0  0
  6 91  1  0  0  0  0
  7  8  2  0  0  0  0
  7 26  1  0  0  0  0
  7 29  1  0  0  0  0
  8  9  1  0  0  0  0
  8 22  1  0  0  0  0
  9 10  1  0  0  0  0
  9 27  2  0  0  0  0
 10 11  2  0  0  0  0
 10 15  1  0  0  0  0
 11 12  1  0  0  0  0
 11 92  1  0  0  0  0
 12 13  2  0  0  0  0
 12 93  1  0  0  0  0
 13 14  1  0  0  0  0
 13 31  1  0  0  0  0
 14 15  2  0  0  0  0
 14 94  1  0  0  0  0
 15 95  1  0  0  0  0
 16 17  2  0  0  0  0
 16 21  1  0  0  0  0
 16 31  1  0  0  0  0
 17 18  1  0  0  0  0
 17 96  1  0  0  0  0
 18 19  2  0  0  0  0
 18 97  1  0  0  0  0
 19 20  1  0  0  0  0
 19 24  1  0  0  0  0
 20 21  2  0  0  0  0
 20 98  1  0  0  0  0
 21 23  1  0  0  0  0
 22 28  1  0  0  0  0
 22 32  2  0  0  0  0
 26 27  1  0  0  0  0
 28 99  1  0  0  0  0
 28100  1  0  0  0  0
 29101  1  0  0  0  0
 29102  1  0  0  0  0
 33 34  1  0  0  0  0
 33 66  1  0  0  0  0
 33 70  2  0  0  0  0
 34 36  1  0  0  0  0
 34 59  1  0  0  0  0
 34103  1  6  0  0  0
 35 44  2  0  0  0  0
 35 45  1  0  0  0  0
 35 68  1  0  0  0  0
 36 56  1  0  0  0  0
 36104  1  0  0  0  0
 37 39  1  0  0  0  0
 37 47  1  0  0  0  0
 37 66  1  0  0  0  0
 37105  1  6  0  0  0
 38 43  2  0  0  0  0
 38 46  1  0  0  0  0
 38 47  1  0  0  0  0
 39 64  1  0  0  0  0
 39 67  2  0  0  0  0
 40 52  1  0  0  0  0
 40 53  2  0  0  0  0
 40 58  1  0  0  0  0
 41106  1  0  0  0  0
 41107  1  0  0  0  0
 41108  1  0  0  0  0
 42 43  1  0  0  0  0
 42 66  1  0  0  0  0
 42109  1  0  0  0  0
 42110  1  0  0  0  0
 43 44  1  0  0  0  0
 44111  1  0  0  0  0
 45 46  2  0  0  0  0
 45112  1  0  0  0  0
 46113  1  0  0  0  0
 47114  1  0  0  0  0
 47115  1  0  0  0  0
 48 41  1  0  0  0  0
 48 56  1  0  0  0  0
 48 65  1  0  0  0  0
 48116  1  1  0  0  0
 49 50  1  0  0  0  0
 49 53  1  0  0  0  0
 49 64  1  0  0  0  0
 49117  1  1  0  0  0
 50 51  1  0  0  0  0
 50118  1  0  0  0  0
 50119  1  0  0  0  0
 51 52  1  0  0  0  0
 51120  1  0  0  0  0
 51121  1  0  0  0  0
 52122  1  0  0  0  0
 52123  1  0  0  0  0
 53 54  1  0  0  0  0
 54 55  2  0  0  0  0
 54124  1  0  0  0  0
 55 57  1  0  0  0  0
 55125  1  0  0  0  0
 56 69  2  0  0  0  0
 57 58  2  0  0  0  0
 57126  1  0  0  0  0
 58127  1  0  0  0  0
 59 60  1  0  0  0  0
 59 61  1  0  0  0  0
 59 62  1  0  0  0  0
 60128  1  0  0  0  0
 60129  1  0  0  0  0
 60130  1  0  0  0  0
 61131  1  0  0  0  0
 61132  1  0  0  0  0
 61133  1  0  0  0  0
 62134  1  0  0  0  0
 62135  1  0  0  0  0
 62136  1  0  0  0  0
 63 65  1  0  0  0  0
 63137  1  0  0  0  0
 63138  1  0  0  0  0
 63139  1  0  0  0  0
 64140  1  0  0  0  0
 65141  1  0  0  0  0
 68 77  1  0  0  0  0
 71 73  2  0  0  0  0
 71 79  1  0  0  0  0
 71142  1  0  0  0  0
 72 74  1  0  0  0  0
 72 79  2  0  0  0  0
 72143  1  0  0  0  0
 73 76  1  0  0  0  0
 73 80  1  0  0  0  0
 74 80  2  0  0  0  0
 74 81  1  0  0  0  0
 75144  1  0  0  0  0
 75145  1  0  0  0  0
 75146  1  0  0  0  0
 76 82  1  0  0  0  0
 76147  1  0  0  0  0
 76148  1  0  0  0  0
 77 78  1  0  0  0  0
 77149  1  0  0  0  0
 77150  1  0  0  0  0
 78 75  1  0  0  0  0
 78 81  1  0  0  0  0
 78151  1  6  0  0  0
 81152  1  0  0  0  0
 82153  1  0  0  0  0
M  ISO  4   1 100  68 101  77 101  82 100
M  END
$$$$
4
 OpenBabel04052305473D

152160  0  0  0  0  0  0  0  0999 V2000
  -30.7652  -14.3608   20.6636 C   0  0  0  0  0  0  0  0  0  0  0  0
  -30.4392  -12.2669   19.3775 C   0  0  0  0  0  0  0  0  0  0  0  0
  -29.4791  -12.5281   18.1977 C   0  0  0  0  0  0  0  0  0  0  0  0
  -27.9985  -12.3963   18.6038 C   0  0  0  0  0  0  0  0  0  0  0  0
  -27.6639  -13.2170   19.8820 C   0  0  2  0  0  0  0  0  0  0  0  0
  -28.6795  -12.9602   21.0279 C   0  0  0  0  0  0  0  0  0  0  0  0
  -25.2633  -13.8245   20.5754 C   0  0  0  0  0  0  0  0  0  0  0  0
  -24.1645  -13.0409   20.9408 C   0  0  0  0  0  0  0  0  0  0  0  0
  -24.6400  -11.7009   20.8697 C   0  0  0  0  0  0  0  0  0  0  0  0
  -23.9005  -10.4085   21.0420 C   0  0  0  0  0  0  0  0  0  0  0  0
  -24.3588   -9.4123   21.9123 C   0  0  0  0  0  0  0  0  0  0  0  0
  -23.6296   -8.2350   22.0803 C   0  0  0  0  0  0  0  0  0  0  0  0
  -22.4385   -8.0419   21.3657 C   0  0  0  0  0  0  0  0  0  0  0  0
  -22.0103   -9.0167   20.4678 C   0  0  0  0  0  0  0  0  0  0  0  0
  -22.7317  -10.1925   20.3102 C   0  0  0  0  0  0  0  0  0  0  0  0
  -21.6857   -6.0709   22.5391 C   0  0  0  0  0  0  0  0  0  0  0  0
  -21.4064   -6.5490   23.8264 C   0  0  0  0  0  0  0  0  0  0  0  0
  -21.3635   -5.6677   24.9085 C   0  0  0  0  0  0  0  0  0  0  0  0
  -21.5973   -4.3067   24.7088 C   0  0  0  0  0  0  0  0  0  0  0  0
  -21.8700   -3.8284   23.4282 C   0  0  0  0  0  0  0  0  0  0  0  0
  -21.9144   -4.7056   22.3460 C   0  0  0  0  0  0  0  0  0  0  0  0
  -22.8194  -13.5263   21.1763 C   0  0  0  0  0  0  0  0  0  0  0  0
  -22.1559   -4.2206   21.1063 F   0  0  0  0  0  0  0  0  0  0  0  0
  -21.5628   -3.4510   25.7555 F   0  0  0  0  0  0  0  0  0  0  0  0
  -30.0261  -13.1803   20.4553 N   0  0  0  0  0  0  0  0  0  0  0  0
  -26.2911  -12.9356   20.3443 N   0  0  0  0  0  0  0  0  0  0  0  0
  -25.9236  -11.6675   20.5847 N   0  0  0  0  0  0  0  0  0  0  0  0
  -22.0708  -12.7905   22.0005 N   0  0  0  0  0  0  0  0  0  0  0  0
  -25.4117  -15.1773   20.4097 N   0  0  0  0  0  0  0  0  0  0  0  0
  -31.7916  -14.6724   20.0536 O   0  0  0  0  0  0  0  0  0  0  0  0
  -21.6670   -6.9022   21.4423 O   0  0  0  0  0  0  0  0  0  0  0  0
  -22.3946  -14.5564   20.6568 O   0  0  0  0  0  0  0  0  0  0  0  0
  -24.6048  -31.8614   23.2223 C   0  0  0  0  0  0  0  0  0  0  0  0
  -25.8822  -32.4841   23.8616 C   0  0  1  0  0  0  0  0  0  0  0  0
  -27.2536  -27.5042   20.1156 C   0  0  0  0  0  0  0  0  0  0  0  0
  -25.5726  -33.8762   24.2210 N   0  0  0  0  0  0  0  0  0  0  0  0
  -23.4066  -30.4859   21.5461 C   0  0  2  0  0  0  0  0  0  0  0  0
  -24.8467  -28.9636   20.1247 C   0  0  0  0  0  0  0  0  0  0  0  0
  -22.7412  -29.4652   22.5052 C   0  0  0  0  0  0  0  0  0  0  0  0
  -18.0167  -28.1302   22.8626 C   0  0  0  0  0  0  0  0  0  0  0  0
  -24.1342  -36.7390   23.2568 C   0  0  0  0  0  0  0  0  0  0  0  0
  -25.9141  -30.8882   21.3456 C   0  0  0  0  0  0  0  0  0  0  0  0
  -25.9930  -29.5029   20.7208 C   0  0  0  0  0  0  0  0  0  0  0  0
  -27.1758  -28.7612   20.7331 C   0  0  0  0  0  0  0  0  0  0  0  0
  -26.1032  -26.9836   19.5230 C   0  0  0  0  0  0  0  0  0  0  0  0
  -24.9097  -27.7011   19.5331 C   0  0  0  0  0  0  0  0  0  0  0  0
  -23.5715  -29.7899   20.1582 C   0  0  0  0  0  0  0  0  0  0  0  0
  -25.3990  -36.3212   24.0232 C   0  0  1  0  0  0  0  0  0  0  0  0
  -20.5793  -28.3813   23.1004 C   0  0  2  0  0  0  0  0  0  0  0  0
  -20.6548  -26.9392   22.5411 C   0  0  0  0  0  0  0  0  0  0  0  0
  -19.5615  -26.6407   21.5143 C   0  0  0  0  0  0  0  0  0  0  0  0
  -18.1797  -26.7818   22.1673 C   0  0  0  0  0  0  0  0  0  0  0  0
  -19.1385  -28.8769   23.2988 C   0  0  0  0  0  0  0  0  0  0  0  0
  -18.9183  -30.1286   23.8878 C   0  0  0  0  0  0  0  0  0  0  0  0
  -17.6396  -30.6493   24.0352 C   0  0  0  0  0  0  0  0  0  0  0  0
  -25.9153  -34.9582   23.4993 C   0  0  0  0  0  0  0  0  0  0  0  0
  -16.5415  -29.9068   23.6254 C   0  0  0  0  0  0  0  0  0  0  0  0
  -16.7331  -28.6521   23.0586 C   0  0  0  0  0  0  0  0  0  0  0  0
  -26.4583  -31.6439   25.0683 C   0  0  0  0  0  0  0  0  0  0  0  0
  -25.3807  -31.3179   26.1374 C   0  0  0  0  0  0  0  0  0  0  0  0
  -27.0530  -30.3024   24.5680 C   0  0  0  0  0  0  0  0  0  0  0  0
  -27.6014  -32.4281   25.7651 C   0  0  0  0  0  0  0  0  0  0  0  0
  -27.5629  -37.2220   24.8621 C   0  0  0  0  0  0  0  0  0  0  0  0
  -21.4133  -29.3375   22.3735 N   0  0  0  0  0  0  0  0  0  0  0  0
  -26.4706  -37.3372   23.9061 N   0  0  0  0  0  0  0  0  0  0  0  0
  -24.6674  -31.0544   22.1178 N   0  0  0  0  0  0  0  0  0  0  0  0
  -23.4259  -28.8150   23.2971 O   0  0  0  0  0  0  0  0  0  0  0  0
  -28.3948  -26.7345   20.0089 O   0  0  0  0  0  0  0  0  0  0  0  0
  -26.5870  -34.9065   22.4671 O   0  0  0  0  0  0  0  0  0  0  0  0
  -23.5365  -32.1254   23.7833 O   0  0  0  0  0  0  0  0  0  0  0  0
  -29.5346  -23.0579   17.3489 C   0  0  0  0  0  0  0  0  0  0  0  0
  -30.1782  -23.6868   18.3941 C   0  0  0  0  0  0  0  0  0  0  0  0
  -29.8147  -21.7467   19.3502 C   0  0  0  0  0  0  0  0  0  0  0  0
  -30.5280  -28.0046   18.6852 C   0  0  0  0  0  0  0  0  0  0  0  0
  -31.3200  -25.6541   19.4197 C   0  0  0  0  0  0  0  0  0  0  0  0
  -29.3421  -27.8866   19.6311 C   0  0  0  0  0  0  0  0  0  0  0  0
  -31.7012  -27.0875   19.0464 C   0  0  1  0  0  0  0  0  0  0  0  0
  -30.3394  -22.9366   19.5426 N   0  0  0  0  0  0  0  0  0  0  0  0
  -30.6449  -24.9892   18.3287 N   0  0  0  0  0  0  0  0  0  0  0  0
  -29.7595  -20.6662   20.2652 N   0  0  0  0  0  0  0  0  0  0  0  0
  -32.6079  -27.0363   17.9432 O   0  0  0  0  0  0  0  0  0  0  0  0
  -29.1112  -21.4615   17.8111 S   0  0  0  0  0  0  0  0  0  0  0  0
  -31.4485  -12.4701   19.0860 H   0  0  0  0  0  0  0  0  0  0  0  0
  -30.3970  -11.2460   19.6950 H   0  0  0  0  0  0  0  0  0  0  0  0
  -29.6870  -11.8204   17.4226 H   0  0  0  0  0  0  0  0  0  0  0  0
  -29.6375  -13.5326   17.8649 H   0  0  0  0  0  0  0  0  0  0  0  0
  -27.7830  -11.3650   18.7904 H   0  0  0  0  0  0  0  0  0  0  0  0
  -27.4028  -12.7801   17.8021 H   0  0  0  0  0  0  0  0  0  0  0  0
  -27.7353  -14.2503   19.6136 H   0  0  0  0  0  0  0  0  0  0  0  0
  -28.5890  -11.9550   21.3832 H   0  0  0  0  0  0  0  0  0  0  0  0
  -28.5005  -13.6134   21.8562 H   0  0  0  0  0  0  0  0  0  0  0  0
  -25.2399   -9.5495   22.4318 H   0  0  0  0  0  0  0  0  0  0  0  0
  -23.9663   -7.5070   22.7297 H   0  0  0  0  0  0  0  0  0  0  0  0
  -21.1515   -8.8641   19.9162 H   0  0  0  0  0  0  0  0  0  0  0  0
  -22.4016  -10.9115   19.6476 H   0  0  0  0  0  0  0  0  0  0  0  0
  -21.2319   -7.5552   23.9750 H   0  0  0  0  0  0  0  0  0  0  0  0
  -21.1589   -6.0228   25.8556 H   0  0  0  0  0  0  0  0  0  0  0  0
  -22.0396   -2.8212   23.2809 H   0  0  0  0  0  0  0  0  0  0  0  0
  -22.4401  -11.9703   22.4008 H   0  0  0  0  0  0  0  0  0  0  0  0
  -21.1493  -13.0679   22.2082 H   0  0  0  0  0  0  0  0  0  0  0  0
  -24.6538  -15.7807   20.5848 H   0  0  0  0  0  0  0  0  0  0  0  0
  -26.2762  -15.5453   20.1156 H   0  0  0  0  0  0  0  0  0  0  0  0
  -26.6778  -32.4663   23.1464 H   0  0  0  0  0  0  0  0  0  0  0  0
  -25.0747  -34.0282   25.0566 H   0  0  0  0  0  0  0  0  0  0  0  0
  -22.7881  -31.3489   21.4131 H   0  0  0  0  0  0  0  0  0  0  0  0
  -23.3854  -35.9823   23.3648 H   0  0  0  0  0  0  0  0  0  0  0  0
  -24.3696  -36.8624   22.2204 H   0  0  0  0  0  0  0  0  0  0  0  0
  -23.7669  -37.6632   23.6516 H   0  0  0  0  0  0  0  0  0  0  0  0
  -25.9445  -31.6237   20.5691 H   0  0  0  0  0  0  0  0  0  0  0  0
  -26.7436  -31.0079   22.0108 H   0  0  0  0  0  0  0  0  0  0  0  0
  -28.0090  -29.1452   21.2057 H   0  0  0  0  0  0  0  0  0  0  0  0
  -26.1369  -26.0560   19.0719 H   0  0  0  0  0  0  0  0  0  0  0  0
  -24.0652  -27.2961   19.0997 H   0  0  0  0  0  0  0  0  0  0  0  0
  -23.6156  -30.5365   19.3930 H   0  0  0  0  0  0  0  0  0  0  0  0
  -22.7355  -29.1425   19.9945 H   0  0  0  0  0  0  0  0  0  0  0  0
  -25.1353  -36.2335   25.0565 H   0  0  0  0  0  0  0  0  0  0  0  0
  -21.0070  -28.3206   24.0793 H   0  0  0  0  0  0  0  0  0  0  0  0
  -20.5555  -26.2518   23.3550 H   0  0  0  0  0  0  0  0  0  0  0  0
  -21.5974  -26.8362   22.0454 H   0  0  0  0  0  0  0  0  0  0  0  0
  -19.6810  -25.6422   21.1488 H   0  0  0  0  0  0  0  0  0  0  0  0
  -19.6406  -27.3343   20.7034 H   0  0  0  0  0  0  0  0  0  0  0  0
  -17.4282  -26.6888   21.4113 H   0  0  0  0  0  0  0  0  0  0  0  0
  -18.0803  -26.0130   22.9049 H   0  0  0  0  0  0  0  0  0  0  0  0
  -19.7265  -30.6774   24.2204 H   0  0  0  0  0  0  0  0  0  0  0  0
  -17.5064  -31.5856   24.4483 H   0  0  0  0  0  0  0  0  0  0  0  0
  -15.5878  -30.2839   23.7407 H   0  0  0  0  0  0  0  0  0  0  0  0
  -15.9120  -28.0941   22.7766 H   0  0  0  0  0  0  0  0  0  0  0  0
  -24.5787  -30.7757   25.6817 H   0  0  0  0  0  0  0  0  0  0  0  0
  -25.0041  -32.2289   26.5536 H   0  0  0  0  0  0  0  0  0  0  0  0
  -25.8166  -30.7245   26.9138 H   0  0  0  0  0  0  0  0  0  0  0  0
  -26.2892  -29.7335   24.0803 H   0  0  0  0  0  0  0  0  0  0  0  0
  -27.4336  -29.7484   25.4006 H   0  0  0  0  0  0  0  0  0  0  0  0
  -27.8466  -30.4994   23.8779 H   0  0  0  0  0  0  0  0  0  0  0  0
  -27.2251  -33.3632   26.1242 H   0  0  0  0  0  0  0  0  0  0  0  0
  -28.3902  -32.6065   25.0645 H   0  0  0  0  0  0  0  0  0  0  0  0
  -27.9772  -31.8555   26.5872 H   0  0  0  0  0  0  0  0  0  0  0  0
  -28.2744  -38.0016   24.6863 H   0  0  0  0  0  0  0  0  0  0  0  0
  -28.0396  -36.2711   24.7461 H   0  0  0  0  0  0  0  0  0  0  0  0
  -27.1773  -37.3087   25.8564 H   0  0  0  0  0  0  0  0  0  0  0  0
  -20.9627  -29.9365   21.7352 H   0  0  0  0  0  0  0  0  0  0  0  0
  -26.0447  -38.2561   24.0273 H   0  0  0  0  0  0  0  0  0  0  0  0
  -29.3379  -23.4829   16.4293 H   0  0  0  0  0  0  0  0  0  0  0  0
  -30.8737  -29.0171   18.7023 H   0  0  0  0  0  0  0  0  0  0  0  0
  -30.1851  -27.7051   17.7169 H   0  0  0  0  0  0  0  0  0  0  0  0
  -30.6705  -25.6763   20.2697 H   0  0  0  0  0  0  0  0  0  0  0  0
  -32.2161  -25.1133   19.6420 H   0  0  0  0  0  0  0  0  0  0  0  0
  -28.6742  -28.6449   19.2792 H   0  0  0  0  0  0  0  0  0  0  0  0
  -29.9266  -27.8391   20.5261 H   0  0  0  0  0  0  0  0  0  0  0  0
  -32.1380  -27.5176   19.9234 H   0  0  0  0  0  0  0  0  0  0  0  0
  -30.5091  -25.4900   17.4921 H   0  0  0  0  0  0  0  0  0  0  0  0
  -29.4645  -21.0016   21.1426 H   0  0  0  0  0  0  0  0  0  0  0  0
  -32.1635  -26.6397   17.1776 H   0  0  0  0  0  0  0  0  0  0  0  0
  1 25  1  0  0  0  0
  1 30  2  0  0  0  0
  1 80  1  0  0  0  0
  2  3  1  0  0  0  0
  2 25  1  0  0  0  0
  2 83  1  0  0  0  0
  2 84  1  0  0  0  0
  3  4  1  0  0  0  0
  3 85  1  0  0  0  0
  3 86  1  0  0  0  0
  4  5  1  0  0  0  0
  4 87  1  0  0  0  0
  4 88  1  0  0  0  0
  5  6  1  0  0  0  0
  5 26  1  0  0  0  0
  5 89  1  6  0  0  0
  6 25  1  0  0  0  0
  6 90  1  0  0  0  0
  6 91  1  0  0  0  0
  7  8  2  0  0  0  0
  7 26  1  0  0  0  0
  7 29  1  0  0  0  0
  8  9  1  0  0  0  0
  8 22  1  0  0  0  0
  9 10  1  0  0  0  0
  9 27  2  0  0  0  0
 10 11  2  0  0  0  0
 10 15  1  0  0  0  0
 11 12  1  0  0  0  0
 11 92  1  0  0  0  0
 12 13  2  0  0  0  0
 12 93  1  0  0  0  0
 13 14  1  0  0  0  0
 13 31  1  0  0  0  0
 14 15  2  0  0  0  0
 14 94  1  0  0  0  0
 15 95  1  0  0  0  0
 16 17  2  0  0  0  0
 16 21  1  0  0  0  0
 16 31  1  0  0  0  0
 17 18  1  0  0  0  0
 17 96  1  0  0  0  0
 18 19  2  0  0  0  0
 18 97  1  0  0  0  0
 19 20  1  0  0  0  0
 19 24  1  0  0  0  0
 20 21  2  0  0  0  0
 20 98  1  0  0  0  0
 21 23  1  0  0  0  0
 22 28  1  0  0  0  0
 22 32  2  0  0  0  0
 26 27  1  0  0  0  0
 28 99  1  0  0  0  0
 28100  1  0  0  0  0
 29101  1  0  0  0  0
 29102  1  0  0  0  0
 33 34  1  0  0  0  0
 33 66  1  0  0  0  0
 33 70  2  0  0  0  0
 34 36  1  0  0  0  0
 34 59  1  0  0  0  0
 34103  1  6  0  0  0
 35 44  2  0  0  0  0
 35 45  1  0  0  0  0
 35 68  1  0  0  0  0
 36 56  1  0  0  0  0
 36104  1  0  0  0  0
 37 39  1  0  0  0  0
 37 47  1  0  0  0  0
 37 66  1  0  0  0  0
 37105  1  6  0  0  0
 38 43  2  0  0  0  0
 38 46  1  0  0  0  0
 38 47  1  0  0  0  0
 39 64  1  0  0  0  0
 39 67  2  0  0  0  0
 40 52  1  0  0  0  0
 40 53  2  0  0  0  0
 40 58  1  0  0  0  0
 41106  1  0  0  0  0
 41107  1  0  0  0  0
 41108  1  0  0  0  0
 42 43  1  0  0  0  0
 42 66  1  0  0  0  0
 42109  1  0  0  0  0
 42110  1  0  0  0  0
 43 44  1  0  0  0  0
 44111  1  0  0  0  0
 45 46  2  0  0  0  0
 45112  1  0  0  0  0
 46113  1  0  0  0  0
 47114  1  0  0  0  0
 47115  1  0  0  0  0
 48 41  1  0  0  0  0
 48 56  1  0  0  0  0
 48 65  1  0  0  0  0
 48116  1  1  0  0  0
 49 50  1  0  0  0  0
 49 53  1  0  0  0  0
 49 64  1  0  0  0  0
 49117  1  1  0  0  0
 50 51  1  0  0  0  0
 50118  1  0  0  0  0
 50119  1  0  0  0  0
 51 52  1  0  0  0  0
 51120  1  0  0  0  0
 51121  1  0  0  0  0
 52122  1  0  0  0  0
 52123  1  0  0  0  0
 53 54  1  0  0  0  0
 54 55  2  0  0  0  0
 54124  1  0  0  0  0
 55 57  1  0  0  0  0
 55125  1  0  0  0  0
 56 69  2  0  0  0  0
 57 58  2  0  0  0  0
 57126  1  0  0  0  0
 58127  1  0  0  0  0
 59 60  1  0  0  0  0
 59 61  1  0  0  0  0
 59 62  1  0  0  0  0
 60128  1  0  0  0  0
 60129  1  0  0  0  0
 60130  1  0  0  0  0
 61131  1  0  0  0  0
 61132  1  0  0  0  0
 61133  1  0  0  0  0
 62134  1  0  0  0  0
 62135  1  0  0  0  0
 62136  1  0  0  0  0
 63 65  1  0  0  0  0
 63137  1  0  0  0  0
 63138  1  0  0  0  0
 63139  1  0  0  0  0
 64140  1  0  0  0  0
 65141  1  0  0  0  0
 68 76  1  0  0  0  0
 71 72  2  0  0  0  0
 71 82  1  0  0  0  0
 71142  1  0  0  0  0
 72 78  1  0  0  0  0
 72 79  1  0  0  0  0
 73 78  2  0  0  0  0
 73 80  1  0  0  0  0
 73 82  1  0  0  0  0
 74 76  1  0  0  0  0
 74 77  1  0  0  0  0
 74143  1  0  0  0  0
 74144  1  0  0  0  0
 75 77  1  0  0  0  0
 75 79  1  0  0  0  0
 75145  1  0  0  0  0
 75146  1  0  0  0  0
 76147  1  0  0  0  0
 76148  1  0  0  0  0
 77 81  1  0  0  0  0
 77149  1  1  0  0  0
 79150  1  0  0  0  0
 80151  1  0  0  0  0
 81152  1  0  0  0  0
M  ISO  4   1 100  68 101  76 101  80 100
M  END
$$$$
5
 OpenBabel04052305473D

162170  0  0  0  0  0  0  0  0999 V2000
  -30.7652  -14.3608   20.6636 C   0  0  0  0  0  0  0  0  0  0  0  0
  -30.4392  -12.2669   19.3775 C   0  0  0  0  0  0  0  0  0  0  0  0
  -29.4791  -12.5281   18.1977 C   0  0  0  0  0  0  0  0  0  0  0  0
  -27.9985  -12.3963   18.6038 C   0  0  0  0  0  0  0  0  0  0  0  0
  -27.6639  -13.2170   19.8820 C   0  0  2  0  0  0  0  0  0  0  0  0
  -28.6795  -12.9602   21.0279 C   0  0  0  0  0  0  0  0  0  0  0  0
  -25.2633  -13.8245   20.5754 C   0  0  0  0  0  0  0  0  0  0  0  0
  -24.1645  -13.0409   20.9408 C   0  0  0  0  0  0  0  0  0  0  0  0
  -24.6400  -11.7009   20.8697 C   0  0  0  0  0  0  0  0  0  0  0  0
  -23.9005  -10.4085   21.0420 C   0  0  0  0  0  0  0  0  0  0  0  0
  -24.3588   -9.4123   21.9123 C   0  0  0  0  0  0  0  0  0  0  0  0
  -23.6296   -8.2350   22.0803 C   0  0  0  0  0  0  0  0  0  0  0  0
  -22.4385   -8.0419   21.3657 C   0  0  0  0  0  0  0  0  0  0  0  0
  -22.0103   -9.0167   20.4678 C   0  0  0  0  0  0  0  0  0  0  0  0
  -22.7317  -10.1925   20.3102 C   0  0  0  0  0  0  0  0  0  0  0  0
  -21.6857   -6.0709   22.5391 C   0  0  0  0  0  0  0  0  0  0  0  0
  -21.4064   -6.5490   23.8264 C   0  0  0  0  0  0  0  0  0  0  0  0
  -21.3635   -5.6677   24.9085 C   0  0  0  0  0  0  0  0  0  0  0  0
  -21.5973   -4.3067   24.7088 C   0  0  0  0  0  0  0  0  0  0  0  0
  -21.8700   -3.8284   23.4282 C   0  0  0  0  0  0  0  0  0  0  0  0
  -21.9144   -4.7056   22.3460 C   0  0  0  0  0  0  0  0  0  0  0  0
  -22.8194  -13.5263   21.1763 C   0  0  0  0  0  0  0  0  0  0  0  0
  -22.1559   -4.2206   21.1063 F   0  0  0  0  0  0  0  0  0  0  0  0
  -21.5628   -3.4510   25.7555 F   0  0  0  0  0  0  0  0  0  0  0  0
  -30.0261  -13.1803   20.4553 N   0  0  0  0  0  0  0  0  0  0  0  0
  -26.2911  -12.9356   20.3443 N   0  0  0  0  0  0  0  0  0  0  0  0
  -25.9236  -11.6675   20.5847 N   0  0  0  0  0  0  0  0  0  0  0  0
  -22.0708  -12.7905   22.0005 N   0  0  0  0  0  0  0  0  0  0  0  0
  -25.4117  -15.1773   20.4097 N   0  0  0  0  0  0  0  0  0  0  0  0
  -31.7916  -14.6724   20.0536 O   0  0  0  0  0  0  0  0  0  0  0  0
  -21.6670   -6.9022   21.4423 O   0  0  0  0  0  0  0  0  0  0  0  0
  -22.3946  -14.5564   20.6568 O   0  0  0  0  0  0  0  0  0  0  0  0
  -24.6048  -31.8614   23.2223 C   0  0  0  0  0  0  0  0  0  0  0  0
  -25.8822  -32.4841   23.8616 C   0  0  1  0  0  0  0  0  0  0  0  0
  -27.2536  -27.5042   20.1156 C   0  0  0  0  0  0  0  0  0  0  0  0
  -25.5726  -33.8762   24.2210 N   0  0  0  0  0  0  0  0  0  0  0  0
  -23.4066  -30.4859   21.5461 C   0  0  2  0  0  0  0  0  0  0  0  0
  -24.8467  -28.9636   20.1247 C   0  0  0  0  0  0  0  0  0  0  0  0
  -22.7412  -29.4652   22.5052 C   0  0  0  0  0  0  0  0  0  0  0  0
  -18.0167  -28.1302   22.8626 C   0  0  0  0  0  0  0  0  0  0  0  0
  -24.1342  -36.7390   23.2568 C   0  0  0  0  0  0  0  0  0  0  0  0
  -25.9141  -30.8882   21.3456 C   0  0  0  0  0  0  0  0  0  0  0  0
  -25.9930  -29.5029   20.7208 C   0  0  0  0  0  0  0  0  0  0  0  0
  -27.1758  -28.7612   20.7331 C   0  0  0  0  0  0  0  0  0  0  0  0
  -26.1032  -26.9836   19.5230 C   0  0  0  0  0  0  0  0  0  0  0  0
  -24.9097  -27.7011   19.5331 C   0  0  0  0  0  0  0  0  0  0  0  0
  -23.5715  -29.7899   20.1582 C   0  0  0  0  0  0  0  0  0  0  0  0
  -25.3990  -36.3212   24.0232 C   0  0  1  0  0  0  0  0  0  0  0  0
  -20.5793  -28.3813   23.1004 C   0  0  2  0  0  0  0  0  0  0  0  0
  -20.6548  -26.9392   22.5411 C   0  0  0  0  0  0  0  0  0  0  0  0
  -19.5615  -26.6407   21.5143 C   0  0  0  0  0  0  0  0  0  0  0  0
  -18.1797  -26.7818   22.1673 C   0  0  0  0  0  0  0  0  0  0  0  0
  -19.1385  -28.8769   23.2988 C   0  0  0  0  0  0  0  0  0  0  0  0
  -18.9183  -30.1286   23.8878 C   0  0  0  0  0  0  0  0  0  0  0  0
  -17.6396  -30.6493   24.0352 C   0  0  0  0  0  0  0  0  0  0  0  0
  -25.9153  -34.9582   23.4993 C   0  0  0  0  0  0  0  0  0  0  0  0
  -16.5415  -29.9068   23.6254 C   0  0  0  0  0  0  0  0  0  0  0  0
  -16.7331  -28.6521   23.0586 C   0  0  0  0  0  0  0  0  0  0  0  0
  -26.4583  -31.6439   25.0683 C   0  0  0  0  0  0  0  0  0  0  0  0
  -25.3807  -31.3179   26.1374 C   0  0  0  0  0  0  0  0  0  0  0  0
  -27.0530  -30.3024   24.5680 C   0  0  0  0  0  0  0  0  0  0  0  0
  -27.6014  -32.4281   25.7651 C   0  0  0  0  0  0  0  0  0  0  0  0
  -27.5629  -37.2220   24.8621 C   0  0  0  0  0  0  0  0  0  0  0  0
  -21.4133  -29.3375   22.3735 N   0  0  0  0  0  0  0  0  0  0  0  0
  -26.4706  -37.3372   23.9061 N   0  0  0  0  0  0  0  0  0  0  0  0
  -24.6674  -31.0544   22.1178 N   0  0  0  0  0  0  0  0  0  0  0  0
  -23.4259  -28.8150   23.2971 O   0  0  0  0  0  0  0  0  0  0  0  0
  -28.3948  -26.7345   20.0089 O   0  0  0  0  0  0  0  0  0  0  0  0
  -26.5870  -34.9065   22.4671 O   0  0  0  0  0  0  0  0  0  0  0  0
  -23.5365  -32.1254   23.7833 O   0  0  0  0  0  0  0  0  0  0  0  0
  -29.5006  -20.8522   22.5791 C   0  0  0  0  0  0  0  0  0  0  0  0
  -28.7283  -21.8313   21.9639 C   0  0  0  0  0  0  0  0  0  0  0  0
  -29.6150  -19.7080   20.4972 C   0  0  0  0  0  0  0  0  0  0  0  0
  -29.9563  -19.7671   21.8387 C   0  0  0  0  0  0  0  0  0  0  0  0
  -28.4421  -21.6799   20.6167 C   0  0  0  0  0  0  0  0  0  0  0  0
  -32.2597  -19.7818   23.9850 C   0  0  0  0  0  0  0  0  0  0  0  0
  -33.4967  -21.4671   25.4094 C   0  0  0  0  0  0  0  0  0  0  0  0
  -30.9930  -14.9510   24.5337 C   0  0  0  0  0  0  0  0  0  0  0  0
  -32.3172  -20.5156   25.3163 C   0  0  0  0  0  0  0  0  0  0  0  0
  -31.5712  -17.3901   24.2600 C   0  0  0  0  0  0  0  0  0  0  0  0
  -31.1174  -18.7865   23.8176 C   0  0  2  0  0  0  0  0  0  0  0  0
  -30.4837  -16.3199   24.1008 C   0  0  1  0  0  0  0  0  0  0  0  0
  -28.8670  -20.6397   19.8648 N   0  0  0  0  0  0  0  0  0  0  0  0
  -30.7272  -18.7781   22.4240 N   0  0  0  0  0  0  0  0  0  0  0  0
  -27.6533  -22.6821   19.9994 N   0  0  0  0  0  0  0  0  0  0  0  0
  -33.0972  -19.9650   23.1011 O   0  0  0  0  0  0  0  0  0  0  0  0
  -31.4485  -12.4701   19.0860 H   0  0  0  0  0  0  0  0  0  0  0  0
  -30.3970  -11.2460   19.6950 H   0  0  0  0  0  0  0  0  0  0  0  0
  -29.6870  -11.8204   17.4226 H   0  0  0  0  0  0  0  0  0  0  0  0
  -29.6375  -13.5326   17.8649 H   0  0  0  0  0  0  0  0  0  0  0  0
  -27.7830  -11.3650   18.7904 H   0  0  0  0  0  0  0  0  0  0  0  0
  -27.4028  -12.7801   17.8021 H   0  0  0  0  0  0  0  0  0  0  0  0
  -27.7353  -14.2503   19.6136 H   0  0  0  0  0  0  0  0  0  0  0  0
  -28.5890  -11.9550   21.3832 H   0  0  0  0  0  0  0  0  0  0  0  0
  -28.5005  -13.6134   21.8562 H   0  0  0  0  0  0  0  0  0  0  0  0
  -25.2399   -9.5495   22.4318 H   0  0  0  0  0  0  0  0  0  0  0  0
  -23.9663   -7.5070   22.7297 H   0  0  0  0  0  0  0  0  0  0  0  0
  -21.1515   -8.8641   19.9162 H   0  0  0  0  0  0  0  0  0  0  0  0
  -22.4016  -10.9115   19.6476 H   0  0  0  0  0  0  0  0  0  0  0  0
  -21.2319   -7.5552   23.9750 H   0  0  0  0  0  0  0  0  0  0  0  0
  -21.1589   -6.0228   25.8556 H   0  0  0  0  0  0  0  0  0  0  0  0
  -22.0396   -2.8212   23.2809 H   0  0  0  0  0  0  0  0  0  0  0  0
  -22.4401  -11.9703   22.4008 H   0  0  0  0  0  0  0  0  0  0  0  0
  -21.1493  -13.0679   22.2082 H   0  0  0  0  0  0  0  0  0  0  0  0
  -24.6538  -15.7807   20.5848 H   0  0  0  0  0  0  0  0  0  0  0  0
  -26.2762  -15.5453   20.1156 H   0  0  0  0  0  0  0  0  0  0  0  0
  -26.6778  -32.4663   23.1464 H   0  0  0  0  0  0  0  0  0  0  0  0
  -25.0747  -34.0282   25.0566 H   0  0  0  0  0  0  0  0  0  0  0  0
  -22.7881  -31.3489   21.4131 H   0  0  0  0  0  0  0  0  0  0  0  0
  -23.3854  -35.9823   23.3648 H   0  0  0  0  0  0  0  0  0  0  0  0
  -24.3696  -36.8624   22.2204 H   0  0  0  0  0  0  0  0  0  0  0  0
  -23.7669  -37.6632   23.6516 H   0  0  0  0  0  0  0  0  0  0  0  0
  -25.9445  -31.6237   20.5691 H   0  0  0  0  0  0  0  0  0  0  0  0
  -26.7436  -31.0079   22.0108 H   0  0  0  0  0  0  0  0  0  0  0  0
  -28.0090  -29.1452   21.2057 H   0  0  0  0  0  0  0  0  0  0  0  0
  -26.1369  -26.0560   19.0719 H   0  0  0  0  0  0  0  0  0  0  0  0
  -24.0652  -27.2961   19.0997 H   0  0  0  0  0  0  0  0  0  0  0  0
  -23.6156  -30.5365   19.3930 H   0  0  0  0  0  0  0  0  0  0  0  0
  -22.7355  -29.1425   19.9945 H   0  0  0  0  0  0  0  0  0  0  0  0
  -25.1353  -36.2335   25.0565 H   0  0  0  0  0  0  0  0  0  0  0  0
  -21.0070  -28.3206   24.0793 H   0  0  0  0  0  0  0  0  0  0  0  0
  -20.5555  -26.2518   23.3550 H   0  0  0  0  0  0  0  0  0  0  0  0
  -21.5974  -26.8362   22.0454 H   0  0  0  0  0  0  0  0  0  0  0  0
  -19.6810  -25.6422   21.1488 H   0  0  0  0  0  0  0  0  0  0  0  0
  -19.6406  -27.3343   20.7034 H   0  0  0  0  0  0  0  0  0  0  0  0
  -17.4282  -26.6888   21.4113 H   0  0  0  0  0  0  0  0  0  0  0  0
  -18.0803  -26.0130   22.9049 H   0  0  0  0  0  0  0  0  0  0  0  0
  -19.7265  -30.6774   24.2204 H   0  0  0  0  0  0  0  0  0  0  0  0
  -17.5064  -31.5856   24.4483 H   0  0  0  0  0  0  0  0  0  0  0  0
  -15.5878  -30.2839   23.7407 H   0  0  0  0  0  0  0  0  0  0  0  0
  -15.9120  -28.0941   22.7766 H   0  0  0  0  0  0  0  0  0  0  0  0
  -24.5787  -30.7757   25.6817 H   0  0  0  0  0  0  0  0  0  0  0  0
  -25.0041  -32.2289   26.5536 H   0  0  0  0  0  0  0  0  0  0  0  0
  -25.8166  -30.7245   26.9138 H   0  0  0  0  0  0  0  0  0  0  0  0
  -26.2892  -29.7335   24.0803 H   0  0  0  0  0  0  0  0  0  0  0  0
  -27.4336  -29.7484   25.4006 H   0  0  0  0  0  0  0  0  0  0  0  0
  -27.8466  -30.4994   23.8779 H   0  0  0  0  0  0  0  0  0  0  0  0
  -27.2251  -33.3632   26.1242 H   0  0  0  0  0  0  0  0  0  0  0  0
  -28.3902  -32.6065   25.0645 H   0  0  0  0  0  0  0  0  0  0  0  0
  -27.9772  -31.8555   26.5872 H   0  0  0  0  0  0  0  0  0  0  0  0
  -28.2744  -38.0016   24.6863 H   0  0  0  0  0  0  0  0  0  0  0  0
  -28.0396  -36.2711   24.7461 H   0  0  0  0  0  0  0  0  0  0  0  0
  -27.1773  -37.3087   25.8564 H   0  0  0  0  0  0  0  0  0  0  0  0
  -20.9627  -29.9365   21.7352 H   0  0  0  0  0  0  0  0  0  0  0  0
  -26.0447  -38.2561   24.0273 H   0  0  0  0  0  0  0  0  0  0  0  0
  -29.7346  -20.9306   23.5812 H   0  0  0  0  0  0  0  0  0  0  0  0
  -28.3793  -22.6451   22.4940 H   0  0  0  0  0  0  0  0  0  0  0  0
  -29.9527  -18.9030   19.9467 H   0  0  0  0  0  0  0  0  0  0  0  0
  -33.4879  -21.9540   26.3622 H   0  0  0  0  0  0  0  0  0  0  0  0
  -33.4255  -22.2004   24.6335 H   0  0  0  0  0  0  0  0  0  0  0  0
  -34.4080  -20.9175   25.2982 H   0  0  0  0  0  0  0  0  0  0  0  0
  -30.2393  -14.4558   25.1096 H   0  0  0  0  0  0  0  0  0  0  0  0
  -31.8750  -15.0701   25.1277 H   0  0  0  0  0  0  0  0  0  0  0  0
  -31.2224  -14.3656   23.6679 H   0  0  0  0  0  0  0  0  0  0  0  0
  -32.3967  -19.7937   26.1021 H   0  0  0  0  0  0  0  0  0  0  0  0
  -31.4239  -21.0981   25.4036 H   0  0  0  0  0  0  0  0  0  0  0  0
  -31.8544  -17.4358   25.2908 H   0  0  0  0  0  0  0  0  0  0  0  0
  -32.3883  -17.1079   23.6295 H   0  0  0  0  0  0  0  0  0  0  0  0
  -30.2832  -19.0698   24.4248 H   0  0  0  0  0  0  0  0  0  0  0  0
  -29.6608  -15.6365   24.0735 H   0  0  0  0  0  0  0  0  0  0  0  0
  -31.0266  -18.0276   21.8615 H   0  0  0  0  0  0  0  0  0  0  0  0
  -27.1942  -23.5138   19.7409 H   0  0  0  0  0  0  0  0  0  0  0  0
  1 25  1  0  0  0  0
  1 30  2  0  0  0  0
  1 85  1  0  0  0  0
  2  3  1  0  0  0  0
  2 25  1  0  0  0  0
  2 87  1  0  0  0  0
  2 88  1  0  0  0  0
  3  4  1  0  0  0  0
  3 89  1  0  0  0  0
  3 90  1  0  0  0  0
  4  5  1  0  0  0  0
  4 91  1  0  0  0  0
  4 92  1  0  0  0  0
  5  6  1  0  0  0  0
  5 26  1  0  0  0  0
  5 93  1  6  0  0  0
  6 25  1  0  0  0  0
  6 94  1  0  0  0  0
  6 95  1  0  0  0  0
  7  8  2  0  0  0  0
  7 26  1  0  0  0  0
  7 29  1  0  0  0  0
  8  9  1  0  0  0  0
  8 22  1  0  0  0  0
  9 10  1  0  0  0  0
  9 27  2  0  0  0  0
 10 11  2  0  0  0  0
 10 15  1  0  0  0  0
 11 12  1  0  0  0  0
 11 96  1  0  0  0  0
 12 13  2  0  0  0  0
 12 97  1  0  0  0  0
 13 14  1  0  0  0  0
 13 31  1  0  0  0  0
 14 15  2  0  0  0  0
 14 98  1  0  0  0  0
 15 99  1  0  0  0  0
 16 17  2  0  0  0  0
 16 21  1  0  0  0  0
 16 31  1  0  0  0  0
 17 18  1  0  0  0  0
 17100  1  0  0  0  0
 18 19  2  0  0  0  0
 18101  1  0  0  0  0
 19 20  1  0  0  0  0
 19 24  1  0  0  0  0
 20 21  2  0  0  0  0
 20102  1  0  0  0  0
 21 23  1  0  0  0  0
 22 28  1  0  0  0  0
 22 32  2  0  0  0  0
 26 27  1  0  0  0  0
 28103  1  0  0  0  0
 28104  1  0  0  0  0
 29105  1  0  0  0  0
 29106  1  0  0  0  0
 33 34  1  0  0  0  0
 33 66  1  0  0  0  0
 33 70  2  0  0  0  0
 34 36  1  0  0  0  0
 34 59  1  0  0  0  0
 34107  1  6  0  0  0
 35 44  2  0  0  0  0
 35 45  1  0  0  0  0
 35 68  1  0  0  0  0
 36 56  1  0  0  0  0
 36108  1  0  0  0  0
 37 39  1  0  0  0  0
 37 47  1  0  0  0  0
 37 66  1  0  0  0  0
 37109  1  6  0  0  0
 38 43  2  0  0  0  0
 38 46  1  0  0  0  0
 38 47  1  0  0  0  0
 39 64  1  0  0  0  0
 39 67  2  0  0  0  0
 40 52  1  0  0  0  0
 40 53  2  0  0  0  0
 40 58  1  0  0  0  0
 41110  1  0  0  0  0
 41111  1  0  0  0  0
 41112  1  0  0  0  0
 42 43  1  0  0  0  0
 42 66  1  0  0  0  0
 42113  1  0  0  0  0
 42114  1  0  0  0  0
 43 44  1  0  0  0  0
 44115  1  0  0  0  0
 45 46  2  0  0  0  0
 45116  1  0  0  0  0
 46117  1  0  0  0  0
 47118  1  0  0  0  0
 47119  1  0  0  0  0
 48 41  1  0  0  0  0
 48 56  1  0  0  0  0
 48 65  1  0  0  0  0
 48120  1  1  0  0  0
 49 50  1  0  0  0  0
 49 53  1  0  0  0  0
 49 64  1  0  0  0  0
 49121  1  1  0  0  0
 50 51  1  0  0  0  0
 50122  1  0  0  0  0
 50123  1  0  0  0  0
 51 52  1  0  0  0  0
 51124  1  0  0  0  0
 51125  1  0  0  0  0
 52126  1  0  0  0  0
 52127  1  0  0  0  0
 53 54  1  0  0  0  0
 54 55  2  0  0  0  0
 54128  1  0  0  0  0
 55 57  1  0  0  0  0
 55129  1  0  0  0  0
 56 69  2  0  0  0  0
 57 58  2  0  0  0  0
 57130  1  0  0  0  0
 58131  1  0  0  0  0
 59 60  1  0  0  0  0
 59 61  1  0  0  0  0
 59 62  1  0  0  0  0
 60132  1  0  0  0  0
 60133  1  0  0  0  0
 60134  1  0  0  0  0
 61135  1  0  0  0  0
 61136  1  0  0  0  0
 61137  1  0  0  0  0
 62138  1  0  0  0  0
 62139  1  0  0  0  0
 62140  1  0  0  0  0
 63 65  1  0  0  0  0
 63141  1  0  0  0  0
 63142  1  0  0  0  0
 63143  1  0  0  0  0
 64144  1  0  0  0  0
 65145  1  0  0  0  0
 68 82  1  0  0  0  0
 71 72  2  0  0  0  0
 71 74  1  0  0  0  0
 71146  1  0  0  0  0
 72 75  1  0  0  0  0
 72147  1  0  0  0  0
 73 74  2  0  0  0  0
 73 83  1  0  0  0  0
 73148  1  0  0  0  0
 74 84  1  0  0  0  0
 75 83  2  0  0  0  0
 75 85  1  0  0  0  0
 76 79  1  0  0  0  0
 76 81  1  0  0  0  0
 76 86  2  0  0  0  0
 77 79  1  0  0  0  0
 77149  1  0  0  0  0
 77150  1  0  0  0  0
 77151  1  0  0  0  0
 78152  1  0  0  0  0
 78153  1  0  0  0  0
 78154  1  0  0  0  0
 79155  1  0  0  0  0
 79156  1  0  0  0  0
 80 82  1  0  0  0  0
 80157  1  0  0  0  0
 80158  1  0  0  0  0
 81 80  1  0  0  0  0
 81 84  1  0  0  0  0
 81159  1  1  0  0  0
 82 78  1  0  0  0  0
 82160  1  1  0  0  0
 84161  1  0  0  0  0
 85162  1  0  0  0  0
M  ISO  4   1 100  68 101  82 101  85 100
M  END
$$$$
6
 OpenBabel04052305473D

151159  0  0  0  0  0  0  0  0999 V2000
  -30.7652  -14.3608   20.6636 C   0  0  0  0  0  0  0  0  0  0  0  0
  -30.4392  -12.2669   19.3775 C   0  0  0  0  0  0  0  0  0  0  0  0
  -29.4791  -12.5281   18.1977 C   0  0  0  0  0  0  0  0  0  0  0  0
  -27.9985  -12.3963   18.6038 C   0  0  0  0  0  0  0  0  0  0  0  0
  -27.6639  -13.2170   19.8820 C   0  0  2  0  0  0  0  0  0  0  0  0
  -28.6795  -12.9602   21.0279 C   0  0  0  0  0  0  0  0  0  0  0  0
  -25.2633  -13.8245   20.5754 C   0  0  0  0  0  0  0  0  0  0  0  0
  -24.1645  -13.0409   20.9408 C   0  0  0  0  0  0  0  0  0  0  0  0
  -24.6400  -11.7009   20.8697 C   0  0  0  0  0  0  0  0  0  0  0  0
  -23.9005  -10.4085   21.0420 C   0  0  0  0  0  0  0  0  0  0  0  0
  -24.3588   -9.4123   21.9123 C   0  0  0  0  0  0  0  0  0  0  0  0
  -23.6296   -8.2350   22.0803 C   0  0  0  0  0  0  0  0  0  0  0  0
  -22.4385   -8.0419   21.3657 C   0  0  0  0  0  0  0  0  0  0  0  0
  -22.0103   -9.0167   20.4678 C   0  0  0  0  0  0  0  0  0  0  0  0
  -22.7317  -10.1925   20.3102 C   0  0  0  0  0  0  0  0  0  0  0  0
  -21.6857   -6.0709   22.5391 C   0  0  0  0  0  0  0  0  0  0  0  0
  -21.4064   -6.5490   23.8264 C   0  0  0  0  0  0  0  0  0  0  0  0
  -21.3635   -5.6677   24.9085 C   0  0  0  0  0  0  0  0  0  0  0  0
  -21.5973   -4.3067   24.7088 C   0  0  0  0  0  0  0  0  0  0  0  0
  -21.8700   -3.8284   23.4282 C   0  0  0  0  0  0  0  0  0  0  0  0
  -21.9144   -4.7056   22.3460 C   0  0  0  0  0  0  0  0  0  0  0  0
  -22.8194  -13.5263   21.1763 C   0  0  0  0  0  0  0  0  0  0  0  0
  -22.1559   -4.2206   21.1063 F   0  0  0  0  0  0  0  0  0  0  0  0
  -21.5628   -3.4510   25.7555 F   0  0  0  0  0  0  0  0  0  0  0  0
  -30.0261  -13.1803   20.4553 N   0  0  0  0  0  0  0  0  0  0  0  0
  -26.2911  -12.9356   20.3443 N   0  0  0  0  0  0  0  0  0  0  0  0
  -25.9236  -11.6675   20.5847 N   0  0  0  0  0  0  0  0  0  0  0  0
  -22.0708  -12.7905   22.0005 N   0  0  0  0  0  0  0  0  0  0  0  0
  -25.4117  -15.1773   20.4097 N   0  0  0  0  0  0  0  0  0  0  0  0
  -31.7916  -14.6724   20.0536 O   0  0  0  0  0  0  0  0  0  0  0  0
  -21.6670   -6.9022   21.4423 O   0  0  0  0  0  0  0  0  0  0  0  0
  -22.3946  -14.5564   20.6568 O   0  0  0  0  0  0  0  0  0  0  0  0
  -24.6048  -31.8614   23.2223 C   0  0  0  0  0  0  0  0  0  0  0  0
  -25.8822  -32.4841   23.8616 C   0  0  1  0  0  0  0  0  0  0  0  0
  -27.2536  -27.5042   20.1156 C   0  0  0  0  0  0  0  0  0  0  0  0
  -25.5726  -33.8762   24.2210 N   0  0  0  0  0  0  0  0  0  0  0  0
  -23.4066  -30.4859   21.5461 C   0  0  2  0  0  0  0  0  0  0  0  0
  -24.8467  -28.9636   20.1247 C   0  0  0  0  0  0  0  0  0  0  0  0
  -22.7412  -29.4652   22.5052 C   0  0  0  0  0  0  0  0  0  0  0  0
  -18.0167  -28.1302   22.8626 C   0  0  0  0  0  0  0  0  0  0  0  0
  -24.1342  -36.7390   23.2568 C   0  0  0  0  0  0  0  0  0  0  0  0
  -25.9141  -30.8882   21.3456 C   0  0  0  0  0  0  0  0  0  0  0  0
  -25.9930  -29.5029   20.7208 C   0  0  0  0  0  0  0  0  0  0  0  0
  -27.1758  -28.7612   20.7331 C   0  0  0  0  0  0  0  0  0  0  0  0
  -26.1032  -26.9836   19.5230 C   0  0  0  0  0  0  0  0  0  0  0  0
  -24.9097  -27.7011   19.5331 C   0  0  0  0  0  0  0  0  0  0  0  0
  -23.5715  -29.7899   20.1582 C   0  0  0  0  0  0  0  0  0  0  0  0
  -25.3990  -36.3212   24.0232 C   0  0  1  0  0  0  0  0  0  0  0  0
  -20.5793  -28.3813   23.1004 C   0  0  2  0  0  0  0  0  0  0  0  0
  -20.6548  -26.9392   22.5411 C   0  0  0  0  0  0  0  0  0  0  0  0
  -19.5615  -26.6407   21.5143 C   0  0  0  0  0  0  0  0  0  0  0  0
  -18.1797  -26.7818   22.1673 C   0  0  0  0  0  0  0  0  0  0  0  0
  -19.1385  -28.8769   23.2988 C   0  0  0  0  0  0  0  0  0  0  0  0
  -18.9183  -30.1286   23.8878 C   0  0  0  0  0  0  0  0  0  0  0  0
  -17.6396  -30.6493   24.0352 C   0  0  0  0  0  0  0  0  0  0  0  0
  -25.9153  -34.9582   23.4993 C   0  0  0  0  0  0  0  0  0  0  0  0
  -16.5415  -29.9068   23.6254 C   0  0  0  0  0  0  0  0  0  0  0  0
  -16.7331  -28.6521   23.0586 C   0  0  0  0  0  0  0  0  0  0  0  0
  -26.4583  -31.6439   25.0683 C   0  0  0  0  0  0  0  0  0  0  0  0
  -25.3807  -31.3179   26.1374 C   0  0  0  0  0  0  0  0  0  0  0  0
  -27.0530  -30.3024   24.5680 C   0  0  0  0  0  0  0  0  0  0  0  0
  -27.6014  -32.4281   25.7651 C   0  0  0  0  0  0  0  0  0  0  0  0
  -27.5629  -37.2220   24.8621 C   0  0  0  0  0  0  0  0  0  0  0  0
  -21.4133  -29.3375   22.3735 N   0  0  0  0  0  0  0  0  0  0  0  0
  -26.4706  -37.3372   23.9061 N   0  0  0  0  0  0  0  0  0  0  0  0
  -24.6674  -31.0544   22.1178 N   0  0  0  0  0  0  0  0  0  0  0  0
  -23.4259  -28.8150   23.2971 O   0  0  0  0  0  0  0  0  0  0  0  0
  -28.3948  -26.7345   20.0089 O   0  0  0  0  0  0  0  0  0  0  0  0
  -26.5870  -34.9065   22.4671 O   0  0  0  0  0  0  0  0  0  0  0  0
  -23.5365  -32.1254   23.7833 O   0  0  0  0  0  0  0  0  0  0  0  0
  -29.5275  -18.9211   24.7771 C   0  0  0  0  0  0  0  0  0  0  0  0
  -30.3586  -18.1089   24.0136 C   0  0  0  0  0  0  0  0  0  0  0  0
  -28.3196  -19.3626   24.2485 C   0  0  0  0  0  0  0  0  0  0  0  0
  -29.9393  -17.7693   22.7374 C   0  0  0  0  0  0  0  0  0  0  0  0
  -27.9917  -18.9670   22.9618 C   0  0  0  0  0  0  0  0  0  0  0  0
  -30.8068  -16.8992   21.8901 C   0  0  0  0  0  0  0  0  0  0  0  0
  -25.8687  -20.2596   23.1801 C   0  0  0  0  0  0  0  0  0  0  0  0
  -24.6531  -20.5812   22.3269 C   0  0  0  0  0  0  0  0  0  0  0  0
  -28.7731  -18.1789   22.1898 N   0  0  0  0  0  0  0  0  0  0  0  0
  -26.7852  -19.4147   22.4494 N   0  0  0  0  0  0  0  0  0  0  0  0
  -30.1422  -15.6762   21.4987 N   0  0  0  0  0  0  0  0  0  0  0  0
  -31.4485  -12.4701   19.0860 H   0  0  0  0  0  0  0  0  0  0  0  0
  -30.3970  -11.2460   19.6950 H   0  0  0  0  0  0  0  0  0  0  0  0
  -29.6870  -11.8204   17.4226 H   0  0  0  0  0  0  0  0  0  0  0  0
  -29.6375  -13.5326   17.8649 H   0  0  0  0  0  0  0  0  0  0  0  0
  -27.7830  -11.3650   18.7904 H   0  0  0  0  0  0  0  0  0  0  0  0
  -27.4028  -12.7801   17.8021 H   0  0  0  0  0  0  0  0  0  0  0  0
  -27.7353  -14.2503   19.6136 H   0  0  0  0  0  0  0  0  0  0  0  0
  -28.5890  -11.9550   21.3832 H   0  0  0  0  0  0  0  0  0  0  0  0
  -28.5005  -13.6134   21.8562 H   0  0  0  0  0  0  0  0  0  0  0  0
  -25.2399   -9.5495   22.4318 H   0  0  0  0  0  0  0  0  0  0  0  0
  -23.9663   -7.5070   22.7297 H   0  0  0  0  0  0  0  0  0  0  0  0
  -21.1515   -8.8641   19.9162 H   0  0  0  0  0  0  0  0  0  0  0  0
  -22.4016  -10.9115   19.6476 H   0  0  0  0  0  0  0  0  0  0  0  0
  -21.2319   -7.5552   23.9750 H   0  0  0  0  0  0  0  0  0  0  0  0
  -21.1589   -6.0228   25.8556 H   0  0  0  0  0  0  0  0  0  0  0  0
  -22.0396   -2.8212   23.2809 H   0  0  0  0  0  0  0  0  0  0  0  0
  -22.4401  -11.9703   22.4008 H   0  0  0  0  0  0  0  0  0  0  0  0
  -21.1493  -13.0679   22.2082 H   0  0  0  0  0  0  0  0  0  0  0  0
  -24.6538  -15.7807   20.5848 H   0  0  0  0  0  0  0  0  0  0  0  0
  -26.2762  -15.5453   20.1156 H   0  0  0  0  0  0  0  0  0  0  0  0
  -26.6778  -32.4663   23.1464 H   0  0  0  0  0  0  0  0  0  0  0  0
  -25.0747  -34.0282   25.0566 H   0  0  0  0  0  0  0  0  0  0  0  0
  -22.7881  -31.3489   21.4131 H   0  0  0  0  0  0  0  0  0  0  0  0
  -23.3854  -35.9823   23.3648 H   0  0  0  0  0  0  0  0  0  0  0  0
  -24.3696  -36.8624   22.2204 H   0  0  0  0  0  0  0  0  0  0  0  0
  -23.7669  -37.6632   23.6516 H   0  0  0  0  0  0  0  0  0  0  0  0
  -25.9445  -31.6237   20.5691 H   0  0  0  0  0  0  0  0  0  0  0  0
  -26.7436  -31.0079   22.0108 H   0  0  0  0  0  0  0  0  0  0  0  0
  -28.0090  -29.1452   21.2057 H   0  0  0  0  0  0  0  0  0  0  0  0
  -26.1369  -26.0560   19.0719 H   0  0  0  0  0  0  0  0  0  0  0  0
  -24.0652  -27.2961   19.0997 H   0  0  0  0  0  0  0  0  0  0  0  0
  -23.6156  -30.5365   19.3930 H   0  0  0  0  0  0  0  0  0  0  0  0
  -22.7355  -29.1425   19.9945 H   0  0  0  0  0  0  0  0  0  0  0  0
  -25.1353  -36.2335   25.0565 H   0  0  0  0  0  0  0  0  0  0  0  0
  -21.0070  -28.3206   24.0793 H   0  0  0  0  0  0  0  0  0  0  0  0
  -20.5555  -26.2518   23.3550 H   0  0  0  0  0  0  0  0  0  0  0  0
  -21.5974  -26.8362   22.0454 H   0  0  0  0  0  0  0  0  0  0  0  0
  -19.6810  -25.6422   21.1488 H   0  0  0  0  0  0  0  0  0  0  0  0
  -19.6406  -27.3343   20.7034 H   0  0  0  0  0  0  0  0  0  0  0  0
  -17.4282  -26.6888   21.4113 H   0  0  0  0  0  0  0  0  0  0  0  0
  -18.0803  -26.0130   22.9049 H   0  0  0  0  0  0  0  0  0  0  0  0
  -19.7265  -30.6774   24.2204 H   0  0  0  0  0  0  0  0  0  0  0  0
  -17.5064  -31.5856   24.4483 H   0  0  0  0  0  0  0  0  0  0  0  0
  -15.5878  -30.2839   23.7407 H   0  0  0  0  0  0  0  0  0  0  0  0
  -15.9120  -28.0941   22.7766 H   0  0  0  0  0  0  0  0  0  0  0  0
  -24.5787  -30.7757   25.6817 H   0  0  0  0  0  0  0  0  0  0  0  0
  -25.0041  -32.2289   26.5536 H   0  0  0  0  0  0  0  0  0  0  0  0
  -25.8166  -30.7245   26.9138 H   0  0  0  0  0  0  0  0  0  0  0  0
  -26.2892  -29.7335   24.0803 H   0  0  0  0  0  0  0  0  0  0  0  0
  -27.4336  -29.7484   25.4006 H   0  0  0  0  0  0  0  0  0  0  0  0
  -27.8466  -30.4994   23.8779 H   0  0  0  0  0  0  0  0  0  0  0  0
  -27.2251  -33.3632   26.1242 H   0  0  0  0  0  0  0  0  0  0  0  0
  -28.3902  -32.6065   25.0645 H   0  0  0  0  0  0  0  0  0  0  0  0
  -27.9772  -31.8555   26.5872 H   0  0  0  0  0  0  0  0  0  0  0  0
  -28.2744  -38.0016   24.6863 H   0  0  0  0  0  0  0  0  0  0  0  0
  -28.0396  -36.2711   24.7461 H   0  0  0  0  0  0  0  0  0  0  0  0
  -27.1773  -37.3087   25.8564 H   0  0  0  0  0  0  0  0  0  0  0  0
  -20.9627  -29.9365   21.7352 H   0  0  0  0  0  0  0  0  0  0  0  0
  -26.0447  -38.2561   24.0273 H   0  0  0  0  0  0  0  0  0  0  0  0
  -29.8060  -19.1951   25.7323 H   0  0  0  0  0  0  0  0  0  0  0  0
  -31.2594  -17.7697   24.3857 H   0  0  0  0  0  0  0  0  0  0  0  0
  -27.6873  -19.9659   24.7973 H   0  0  0  0  0  0  0  0  0  0  0  0
  -31.6885  -16.6500   22.4427 H   0  0  0  0  0  0  0  0  0  0  0  0
  -31.0443  -17.4422   20.9992 H   0  0  0  0  0  0  0  0  0  0  0  0
  -25.5527  -19.7526   24.0678 H   0  0  0  0  0  0  0  0  0  0  0  0
  -26.3654  -21.1721   23.4360 H   0  0  0  0  0  0  0  0  0  0  0  0
  -23.7589  -20.7822   22.8790 H   0  0  0  0  0  0  0  0  0  0  0  0
  -24.2424  -19.8743   21.6366 H   0  0  0  0  0  0  0  0  0  0  0  0
  -26.5383  -19.1420   21.5362 H   0  0  0  0  0  0  0  0  0  0  0  0
  -29.1949  -15.6056   21.7574 H   0  0  0  0  0  0  0  0  0  0  0  0
  1 25  1  0  0  0  0
  1 30  2  0  0  0  0
  1 81  1  0  0  0  0
  2  3  1  0  0  0  0
  2 25  1  0  0  0  0
  2 82  1  0  0  0  0
  2 83  1  0  0  0  0
  3  4  1  0  0  0  0
  3 84  1  0  0  0  0
  3 85  1  0  0  0  0
  4  5  1  0  0  0  0
  4 86  1  0  0  0  0
  4 87  1  0  0  0  0
  5  6  1  0  0  0  0
  5 26  1  0  0  0  0
  5 88  1  6  0  0  0
  6 25  1  0  0  0  0
  6 89  1  0  0  0  0
  6 90  1  0  0  0  0
  7  8  2  0  0  0  0
  7 26  1  0  0  0  0
  7 29  1  0  0  0  0
  8  9  1  0  0  0  0
  8 22  1  0  0  0  0
  9 10  1  0  0  0  0
  9 27  2  0  0  0  0
 10 11  2  0  0  0  0
 10 15  1  0  0  0  0
 11 12  1  0  0  0  0
 11 91  1  0  0  0  0
 12 13  2  0  0  0  0
 12 92  1  0  0  0  0
 13 14  1  0  0  0  0
 13 31  1  0  0  0  0
 14 15  2  0  0  0  0
 14 93  1  0  0  0  0
 15 94  1  0  0  0  0
 16 17  2  0  0  0  0
 16 21  1  0  0  0  0
 16 31  1  0  0  0  0
 17 18  1  0  0  0  0
 17 95  1  0  0  0  0
 18 19  2  0  0  0  0
 18 96  1  0  0  0  0
 19 20  1  0  0  0  0
 19 24  1  0  0  0  0
 20 21  2  0  0  0  0
 20 97  1  0  0  0  0
 21 23  1  0  0  0  0
 22 28  1  0  0  0  0
 22 32  2  0  0  0  0
 26 27  1  0  0  0  0
 28 98  1  0  0  0  0
 28 99  1  0  0  0  0
 29100  1  0  0  0  0
 29101  1  0  0  0  0
 33 34  1  0  0  0  0
 33 66  1  0  0  0  0
 33 70  2  0  0  0  0
 34 36  1  0  0  0  0
 34 59  1  0  0  0  0
 34102  1  6  0  0  0
 35 44  2  0  0  0  0
 35 45  1  0  0  0  0
 35 68  1  0  0  0  0
 36 56  1  0  0  0  0
 36103  1  0  0  0  0
 37 39  1  0  0  0  0
 37 47  1  0  0  0  0
 37 66  1  0  0  0  0
 37104  1  6  0  0  0
 38 43  2  0  0  0  0
 38 46  1  0  0  0  0
 38 47  1  0  0  0  0
 39 64  1  0  0  0  0
 39 67  2  0  0  0  0
 40 52  1  0  0  0  0
 40 53  2  0  0  0  0
 40 58  1  0  0  0  0
 41105  1  0  0  0  0
 41106  1  0  0  0  0
 41107  1  0  0  0  0
 42 43  1  0  0  0  0
 42 66  1  0  0  0  0
 42108  1  0  0  0  0
 42109  1  0  0  0  0
 43 44  1  0  0  0  0
 44110  1  0  0  0  0
 45 46  2  0  0  0  0
 45111  1  0  0  0  0
 46112  1  0  0  0  0
 47113  1  0  0  0  0
 47114  1  0  0  0  0
 48 41  1  0  0  0  0
 48 56  1  0  0  0  0
 48 65  1  0  0  0  0
 48115  1  1  0  0  0
 49 50  1  0  0  0  0
 49 53  1  0  0  0  0
 49 64  1  0  0  0  0
 49116  1  1  0  0  0
 50 51  1  0  0  0  0
 50117  1  0  0  0  0
 50118  1  0  0  0  0
 51 52  1  0  0  0  0
 51119  1  0  0  0  0
 51120  1  0  0  0  0
 52121  1  0  0  0  0
 52122  1  0  0  0  0
 53 54  1  0  0  0  0
 54 55  2  0  0  0  0
 54123  1  0  0  0  0
 55 57  1  0  0  0  0
 55124  1  0  0  0  0
 56 69  2  0  0  0  0
 57 58  2  0  0  0  0
 57125  1  0  0  0  0
 58126  1  0  0  0  0
 59 60  1  0  0  0  0
 59 61  1  0  0  0  0
 59 62  1  0  0  0  0
 60127  1  0  0  0  0
 60128  1  0  0  0  0
 60129  1  0  0  0  0
 61130  1  0  0  0  0
 61131  1  0  0  0  0
 61132  1  0  0  0  0
 62133  1  0  0  0  0
 62134  1  0  0  0  0
 62135  1  0  0  0  0
 63 65  1  0  0  0  0
 63136  1  0  0  0  0
 63137  1  0  0  0  0
 63138  1  0  0  0  0
 64139  1  0  0  0  0
 65140  1  0  0  0  0
 68 78  1  0  0  0  0
 71 72  2  0  0  0  0
 71 73  1  0  0  0  0
 71141  1  0  0  0  0
 72 74  1  0  0  0  0
 72142  1  0  0  0  0
 73 75  2  0  0  0  0
 73143  1  0  0  0  0
 74 76  1  0  0  0  0
 74 79  2  0  0  0  0
 75 79  1  0  0  0  0
 75 80  1  0  0  0  0
 76 81  1  0  0  0  0
 76144  1  0  0  0  0
 76145  1  0  0  0  0
 77 78  1  0  0  0  0
 77 80  1  0  0  0  0
 77146  1  0  0  0  0
 77147  1  0  0  0  0
 78148  1  0  0  0  0
 78149  1  0  0  0  0
 80150  1  0  0  0  0
 81151  1  0  0  0  0
M  ISO  4   1 100  68 101  78 101  81 100
M  END
$$$$
7
 OpenBabel04052305473D

151159  0  0  0  0  0  0  0  0999 V2000
  -30.7652  -14.3608   20.6636 C   0  0  0  0  0  0  0  0  0  0  0  0
  -30.4392  -12.2669   19.3775 C   0  0  0  0  0  0  0  0  0  0  0  0
  -29.4791  -12.5281   18.1977 C   0  0  0  0  0  0  0  0  0  0  0  0
  -27.9985  -12.3963   18.6038 C   0  0  0  0  0  0  0  0  0  0  0  0
  -27.6639  -13.2170   19.8820 C   0  0  2  0  0  0  0  0  0  0  0  0
  -28.6795  -12.9602   21.0279 C   0  0  0  0  0  0  0  0  0  0  0  0
  -25.2633  -13.8245   20.5754 C   0  0  0  0  0  0  0  0  0  0  0  0
  -24.1645  -13.0409   20.9408 C   0  0  0  0  0  0  0  0  0  0  0  0
  -24.6400  -11.7009   20.8697 C   0  0  0  0  0  0  0  0  0  0  0  0
  -23.9005  -10.4085   21.0420 C   0  0  0  0  0  0  0  0  0  0  0  0
  -24.3588   -9.4123   21.9123 C   0  0  0  0  0  0  0  0  0  0  0  0
  -23.6296   -8.2350   22.0803 C   0  0  0  0  0  0  0  0  0  0  0  0
  -22.4385   -8.0419   21.3657 C   0  0  0  0  0  0  0  0  0  0  0  0
  -22.0103   -9.0167   20.4678 C   0  0  0  0  0  0  0  0  0  0  0  0
  -22.7317  -10.1925   20.3102 C   0  0  0  0  0  0  0  0  0  0  0  0
  -21.6857   -6.0709   22.5391 C   0  0  0  0  0  0  0  0  0  0  0  0
  -21.4064   -6.5490   23.8264 C   0  0  0  0  0  0  0  0  0  0  0  0
  -21.3635   -5.6677   24.9085 C   0  0  0  0  0  0  0  0  0  0  0  0
  -21.5973   -4.3067   24.7088 C   0  0  0  0  0  0  0  0  0  0  0  0
  -21.8700   -3.8284   23.4282 C   0  0  0  0  0  0  0  0  0  0  0  0
  -21.9144   -4.7056   22.3460 C   0  0  0  0  0  0  0  0  0  0  0  0
  -22.8194  -13.5263   21.1763 C   0  0  0  0  0  0  0  0  0  0  0  0
  -22.1559   -4.2206   21.1063 F   0  0  0  0  0  0  0  0  0  0  0  0
  -21.5628   -3.4510   25.7555 F   0  0  0  0  0  0  0  0  0  0  0  0
  -30.0261  -13.1803   20.4553 N   0  0  0  0  0  0  0  0  0  0  0  0
  -26.2911  -12.9356   20.3443 N   0  0  0  0  0  0  0  0  0  0  0  0
  -25.9236  -11.6675   20.5847 N   0  0  0  0  0  0  0  0  0  0  0  0
  -22.0708  -12.7905   22.0005 N   0  0  0  0  0  0  0  0  0  0  0  0
  -25.4117  -15.1773   20.4097 N   0  0  0  0  0  0  0  0  0  0  0  0
  -31.7916  -14.6724   20.0536 O   0  0  0  0  0  0  0  0  0  0  0  0
  -21.6670   -6.9022   21.4423 O   0  0  0  0  0  0  0  0  0  0  0  0
  -22.3946  -14.5564   20.6568 O   0  0  0  0  0  0  0  0  0  0  0  0
  -24.6048  -31.8614   23.2223 C   0  0  0  0  0  0  0  0  0  0  0  0
  -25.8822  -32.4841   23.8616 C   0  0  1  0  0  0  0  0  0  0  0  0
  -27.2536  -27.5042   20.1156 C   0  0  0  0  0  0  0  0  0  0  0  0
  -25.5726  -33.8762   24.2210 N   0  0  0  0  0  0  0  0  0  0  0  0
  -23.4066  -30.4859   21.5461 C   0  0  2  0  0  0  0  0  0  0  0  0
  -24.8467  -28.9636   20.1247 C   0  0  0  0  0  0  0  0  0  0  0  0
  -22.7412  -29.4652   22.5052 C   0  0  0  0  0  0  0  0  0  0  0  0
  -18.0167  -28.1302   22.8626 C   0  0  0  0  0  0  0  0  0  0  0  0
  -24.1342  -36.7390   23.2568 C   0  0  0  0  0  0  0  0  0  0  0  0
  -25.9141  -30.8882   21.3456 C   0  0  0  0  0  0  0  0  0  0  0  0
  -25.9930  -29.5029   20.7208 C   0  0  0  0  0  0  0  0  0  0  0  0
  -27.1758  -28.7612   20.7331 C   0  0  0  0  0  0  0  0  0  0  0  0
  -26.1032  -26.9836   19.5230 C   0  0  0  0  0  0  0  0  0  0  0  0
  -24.9097  -27.7011   19.5331 C   0  0  0  0  0  0  0  0  0  0  0  0
  -23.5715  -29.7899   20.1582 C   0  0  0  0  0  0  0  0  0  0  0  0
  -25.3990  -36.3212   24.0232 C   0  0  1  0  0  0  0  0  0  0  0  0
  -20.5793  -28.3813   23.1004 C   0  0  2  0  0  0  0  0  0  0  0  0
  -20.6548  -26.9392   22.5411 C   0  0  0  0  0  0  0  0  0  0  0  0
  -19.5615  -26.6407   21.5143 C   0  0  0  0  0  0  0  0  0  0  0  0
  -18.1797  -26.7818   22.1673 C   0  0  0  0  0  0  0  0  0  0  0  0
  -19.1385  -28.8769   23.2988 C   0  0  0  0  0  0  0  0  0  0  0  0
  -18.9183  -30.1286   23.8878 C   0  0  0  0  0  0  0  0  0  0  0  0
  -17.6396  -30.6493   24.0352 C   0  0  0  0  0  0  0  0  0  0  0  0
  -25.9153  -34.9582   23.4993 C   0  0  0  0  0  0  0  0  0  0  0  0
  -16.5415  -29.9068   23.6254 C   0  0  0  0  0  0  0  0  0  0  0  0
  -16.7331  -28.6521   23.0586 C   0  0  0  0  0  0  0  0  0  0  0  0
  -26.4583  -31.6439   25.0683 C   0  0  0  0  0  0  0  0  0  0  0  0
  -25.3807  -31.3179   26.1374 C   0  0  0  0  0  0  0  0  0  0  0  0
  -27.0530  -30.3024   24.5680 C   0  0  0  0  0  0  0  0  0  0  0  0
  -27.6014  -32.4281   25.7651 C   0  0  0  0  0  0  0  0  0  0  0  0
  -27.5629  -37.2220   24.8621 C   0  0  0  0  0  0  0  0  0  0  0  0
  -21.4133  -29.3375   22.3735 N   0  0  0  0  0  0  0  0  0  0  0  0
  -26.4706  -37.3372   23.9061 N   0  0  0  0  0  0  0  0  0  0  0  0
  -24.6674  -31.0544   22.1178 N   0  0  0  0  0  0  0  0  0  0  0  0
  -23.4259  -28.8150   23.2971 O   0  0  0  0  0  0  0  0  0  0  0  0
  -28.3948  -26.7345   20.0089 O   0  0  0  0  0  0  0  0  0  0  0  0
  -26.5870  -34.9065   22.4671 O   0  0  0  0  0  0  0  0  0  0  0  0
  -23.5365  -32.1254   23.7833 O   0  0  0  0  0  0  0  0  0  0  0  0
  -29.5780  -22.6987   19.7582 C   0  0  0  0  0  0  0  0  0  0  0  0
  -30.3712  -21.2739   21.3000 C   0  0  0  0  0  0  0  0  0  0  0  0
  -31.0478  -23.4137   21.2962 C   0  0  0  0  0  0  0  0  0  0  0  0
  -33.1063  -26.4702   21.7891 C   0  0  0  0  0  0  0  0  0  0  0  0
  -30.5896  -26.5315   21.8147 C   0  0  0  0  0  0  0  0  0  0  0  0
  -31.8281  -25.7835   21.3262 C   0  0  2  0  0  0  0  0  0  0  0  0
  -29.5674  -21.4445   20.2382 N   0  0  0  0  0  0  0  0  0  0  0  0
  -30.2907  -23.7325   20.2340 N   0  0  0  0  0  0  0  0  0  0  0  0
  -31.1389  -22.2091   21.8823 N   0  0  0  0  0  0  0  0  0  0  0  0
  -28.7542  -22.9561   18.6410 N   0  0  0  0  0  0  0  0  0  0  0  0
  -30.4162  -19.9742   21.8628 N   0  0  0  0  0  0  0  0  0  0  0  0
  -31.8116  -24.4291   21.8416 N   0  0  0  0  0  0  0  0  0  0  0  0
  -31.4485  -12.4701   19.0860 H   0  0  0  0  0  0  0  0  0  0  0  0
  -30.3970  -11.2460   19.6950 H   0  0  0  0  0  0  0  0  0  0  0  0
  -29.6870  -11.8204   17.4226 H   0  0  0  0  0  0  0  0  0  0  0  0
  -29.6375  -13.5326   17.8649 H   0  0  0  0  0  0  0  0  0  0  0  0
  -27.7830  -11.3650   18.7904 H   0  0  0  0  0  0  0  0  0  0  0  0
  -27.4028  -12.7801   17.8021 H   0  0  0  0  0  0  0  0  0  0  0  0
  -27.7353  -14.2503   19.6136 H   0  0  0  0  0  0  0  0  0  0  0  0
  -28.5890  -11.9550   21.3832 H   0  0  0  0  0  0  0  0  0  0  0  0
  -28.5005  -13.6134   21.8562 H   0  0  0  0  0  0  0  0  0  0  0  0
  -25.2399   -9.5495   22.4318 H   0  0  0  0  0  0  0  0  0  0  0  0
  -23.9663   -7.5070   22.7297 H   0  0  0  0  0  0  0  0  0  0  0  0
  -21.1515   -8.8641   19.9162 H   0  0  0  0  0  0  0  0  0  0  0  0
  -22.4016  -10.9115   19.6476 H   0  0  0  0  0  0  0  0  0  0  0  0
  -21.2319   -7.5552   23.9750 H   0  0  0  0  0  0  0  0  0  0  0  0
  -21.1589   -6.0228   25.8556 H   0  0  0  0  0  0  0  0  0  0  0  0
  -22.0396   -2.8212   23.2809 H   0  0  0  0  0  0  0  0  0  0  0  0
  -22.4401  -11.9703   22.4008 H   0  0  0  0  0  0  0  0  0  0  0  0
  -21.1493  -13.0679   22.2082 H   0  0  0  0  0  0  0  0  0  0  0  0
  -24.6538  -15.7807   20.5848 H   0  0  0  0  0  0  0  0  0  0  0  0
  -26.2762  -15.5453   20.1156 H   0  0  0  0  0  0  0  0  0  0  0  0
  -26.6778  -32.4663   23.1464 H   0  0  0  0  0  0  0  0  0  0  0  0
  -25.0747  -34.0282   25.0566 H   0  0  0  0  0  0  0  0  0  0  0  0
  -22.7881  -31.3489   21.4131 H   0  0  0  0  0  0  0  0  0  0  0  0
  -23.3854  -35.9823   23.3648 H   0  0  0  0  0  0  0  0  0  0  0  0
  -24.3696  -36.8624   22.2204 H   0  0  0  0  0  0  0  0  0  0  0  0
  -23.7669  -37.6632   23.6516 H   0  0  0  0  0  0  0  0  0  0  0  0
  -25.9445  -31.6237   20.5691 H   0  0  0  0  0  0  0  0  0  0  0  0
  -26.7436  -31.0079   22.0108 H   0  0  0  0  0  0  0  0  0  0  0  0
  -28.0090  -29.1452   21.2057 H   0  0  0  0  0  0  0  0  0  0  0  0
  -26.1369  -26.0560   19.0719 H   0  0  0  0  0  0  0  0  0  0  0  0
  -24.0652  -27.2961   19.0997 H   0  0  0  0  0  0  0  0  0  0  0  0
  -23.6156  -30.5365   19.3930 H   0  0  0  0  0  0  0  0  0  0  0  0
  -22.7355  -29.1425   19.9945 H   0  0  0  0  0  0  0  0  0  0  0  0
  -25.1353  -36.2335   25.0565 H   0  0  0  0  0  0  0  0  0  0  0  0
  -21.0070  -28.3206   24.0793 H   0  0  0  0  0  0  0  0  0  0  0  0
  -20.5555  -26.2518   23.3550 H   0  0  0  0  0  0  0  0  0  0  0  0
  -21.5974  -26.8362   22.0454 H   0  0  0  0  0  0  0  0  0  0  0  0
  -19.6810  -25.6422   21.1488 H   0  0  0  0  0  0  0  0  0  0  0  0
  -19.6406  -27.3343   20.7034 H   0  0  0  0  0  0  0  0  0  0  0  0
  -17.4282  -26.6888   21.4113 H   0  0  0  0  0  0  0  0  0  0  0  0
  -18.0803  -26.0130   22.9049 H   0  0  0  0  0  0  0  0  0  0  0  0
  -19.7265  -30.6774   24.2204 H   0  0  0  0  0  0  0  0  0  0  0  0
  -17.5064  -31.5856   24.4483 H   0  0  0  0  0  0  0  0  0  0  0  0
  -15.5878  -30.2839   23.7407 H   0  0  0  0  0  0  0  0  0  0  0  0
  -15.9120  -28.0941   22.7766 H   0  0  0  0  0  0  0  0  0  0  0  0
  -24.5787  -30.7757   25.6817 H   0  0  0  0  0  0  0  0  0  0  0  0
  -25.0041  -32.2289   26.5536 H   0  0  0  0  0  0  0  0  0  0  0  0
  -25.8166  -30.7245   26.9138 H   0  0  0  0  0  0  0  0  0  0  0  0
  -26.2892  -29.7335   24.0803 H   0  0  0  0  0  0  0  0  0  0  0  0
  -27.4336  -29.7484   25.4006 H   0  0  0  0  0  0  0  0  0  0  0  0
  -27.8466  -30.4994   23.8779 H   0  0  0  0  0  0  0  0  0  0  0  0
  -27.2251  -33.3632   26.1242 H   0  0  0  0  0  0  0  0  0  0  0  0
  -28.3902  -32.6065   25.0645 H   0  0  0  0  0  0  0  0  0  0  0  0
  -27.9772  -31.8555   26.5872 H   0  0  0  0  0  0  0  0  0  0  0  0
  -28.2744  -38.0016   24.6863 H   0  0  0  0  0  0  0  0  0  0  0  0
  -28.0396  -36.2711   24.7461 H   0  0  0  0  0  0  0  0  0  0  0  0
  -27.1773  -37.3087   25.8564 H   0  0  0  0  0  0  0  0  0  0  0  0
  -20.9627  -29.9365   21.7352 H   0  0  0  0  0  0  0  0  0  0  0  0
  -26.0447  -38.2561   24.0273 H   0  0  0  0  0  0  0  0  0  0  0  0
  -33.1290  -27.4720   21.4139 H   0  0  0  0  0  0  0  0  0  0  0  0
  -33.9542  -25.9318   21.4201 H   0  0  0  0  0  0  0  0  0  0  0  0
  -33.1338  -26.4892   22.8586 H   0  0  0  0  0  0  0  0  0  0  0  0
  -30.8927  -27.5264   22.0661 H   0  0  0  0  0  0  0  0  0  0  0  0
  -30.2206  -25.9493   22.6331 H   0  0  0  0  0  0  0  0  0  0  0  0
  -31.8097  -25.7768   20.2564 H   0  0  0  0  0  0  0  0  0  0  0  0
  -28.2108  -22.2326   18.2530 H   0  0  0  0  0  0  0  0  0  0  0  0
  -28.7231  -23.8591   18.2499 H   0  0  0  0  0  0  0  0  0  0  0  0
  -30.3694  -20.0694   22.8416 H   0  0  0  0  0  0  0  0  0  0  0  0
  -32.3745  -24.2208   22.6220 H   0  0  0  0  0  0  0  0  0  0  0  0
  1 25  1  0  0  0  0
  1 30  2  0  0  0  0
  1 81  1  0  0  0  0
  2  3  1  0  0  0  0
  2 25  1  0  0  0  0
  2 83  1  0  0  0  0
  2 84  1  0  0  0  0
  3  4  1  0  0  0  0
  3 85  1  0  0  0  0
  3 86  1  0  0  0  0
  4  5  1  0  0  0  0
  4 87  1  0  0  0  0
  4 88  1  0  0  0  0
  5  6  1  0  0  0  0
  5 26  1  0  0  0  0
  5 89  1  6  0  0  0
  6 25  1  0  0  0  0
  6 90  1  0  0  0  0
  6 91  1  0  0  0  0
  7  8  2  0  0  0  0
  7 26  1  0  0  0  0
  7 29  1  0  0  0  0
  8  9  1  0  0  0  0
  8 22  1  0  0  0  0
  9 10  1  0  0  0  0
  9 27  2  0  0  0  0
 10 11  2  0  0  0  0
 10 15  1  0  0  0  0
 11 12  1  0  0  0  0
 11 92  1  0  0  0  0
 12 13  2  0  0  0  0
 12 93  1  0  0  0  0
 13 14  1  0  0  0  0
 13 31  1  0  0  0  0
 14 15  2  0  0  0  0
 14 94  1  0  0  0  0
 15 95  1  0  0  0  0
 16 17  2  0  0  0  0
 16 21  1  0  0  0  0
 16 31  1  0  0  0  0
 17 18  1  0  0  0  0
 17 96  1  0  0  0  0
 18 19  2  0  0  0  0
 18 97  1  0  0  0  0
 19 20  1  0  0  0  0
 19 24  1  0  0  0  0
 20 21  2  0  0  0  0
 20 98  1  0  0  0  0
 21 23  1  0  0  0  0
 22 28  1  0  0  0  0
 22 32  2  0  0  0  0
 26 27  1  0  0  0  0
 28 99  1  0  0  0  0
 28100  1  0  0  0  0
 29101  1  0  0  0  0
 29102  1  0  0  0  0
 33 34  1  0  0  0  0
 33 66  1  0  0  0  0
 33 70  2  0  0  0  0
 34 36  1  0  0  0  0
 34 59  1  0  0  0  0
 34103  1  6  0  0  0
 35 44  2  0  0  0  0
 35 45  1  0  0  0  0
 35 68  1  0  0  0  0
 36 56  1  0  0  0  0
 36104  1  0  0  0  0
 37 39  1  0  0  0  0
 37 47  1  0  0  0  0
 37 66  1  0  0  0  0
 37105  1  6  0  0  0
 38 43  2  0  0  0  0
 38 46  1  0  0  0  0
 38 47  1  0  0  0  0
 39 64  1  0  0  0  0
 39 67  2  0  0  0  0
 40 52  1  0  0  0  0
 40 53  2  0  0  0  0
 40 58  1  0  0  0  0
 41106  1  0  0  0  0
 41107  1  0  0  0  0
 41108  1  0  0  0  0
 42 43  1  0  0  0  0
 42 66  1  0  0  0  0
 42109  1  0  0  0  0
 42110  1  0  0  0  0
 43 44  1  0  0  0  0
 44111  1  0  0  0  0
 45 46  2  0  0  0  0
 45112  1  0  0  0  0
 46113  1  0  0  0  0
 47114  1  0  0  0  0
 47115  1  0  0  0  0
 48 41  1  0  0  0  0
 48 56  1  0  0  0  0
 48 65  1  0  0  0  0
 48116  1  1  0  0  0
 49 50  1  0  0  0  0
 49 53  1  0  0  0  0
 49 64  1  0  0  0  0
 49117  1  1  0  0  0
 50 51  1  0  0  0  0
 50118  1  0  0  0  0
 50119  1  0  0  0  0
 51 52  1  0  0  0  0
 51120  1  0  0  0  0
 51121  1  0  0  0  0
 52122  1  0  0  0  0
 52123  1  0  0  0  0
 53 54  1  0  0  0  0
 54 55  2  0  0  0  0
 54124  1  0  0  0  0
 55 57  1  0  0  0  0
 55125  1  0  0  0  0
 56 69  2  0  0  0  0
 57 58  2  0  0  0  0
 57126  1  0  0  0  0
 58127  1  0  0  0  0
 59 60  1  0  0  0  0
 59 61  1  0  0  0  0
 59 62  1  0  0  0  0
 60128  1  0  0  0  0
 60129  1  0  0  0  0
 60130  1  0  0  0  0
 61131  1  0  0  0  0
 61132  1  0  0  0  0
 61133  1  0  0  0  0
 62134  1  0  0  0  0
 62135  1  0  0  0  0
 62136  1  0  0  0  0
 63 65  1  0  0  0  0
 63137  1  0  0  0  0
 63138  1  0  0  0  0
 63139  1  0  0  0  0
 64140  1  0  0  0  0
 65141  1  0  0  0  0
 68 75  1  0  0  0  0
 71 77  2  0  0  0  0
 71 78  1  0  0  0  0
 71 80  1  0  0  0  0
 72 77  1  0  0  0  0
 72 79  2  0  0  0  0
 72 81  1  0  0  0  0
 73 78  2  0  0  0  0
 73 79  1  0  0  0  0
 73 82  1  0  0  0  0
 74142  1  0  0  0  0
 74143  1  0  0  0  0
 74144  1  0  0  0  0
 75 76  1  0  0  0  0
 75145  1  0  0  0  0
 75146  1  0  0  0  0
 76 74  1  0  0  0  0
 76 82  1  0  0  0  0
 76147  1  6  0  0  0
 80148  1  0  0  0  0
 80149  1  0  0  0  0
 81150  1  0  0  0  0
 82151  1  0  0  0  0
M  ISO  4   1 100  68 101  75 101  81 100
M  END
$$$$
8
 OpenBabel04052305473D

166174  0  0  0  0  0  0  0  0999 V2000
  -30.7652  -14.3608   20.6636 C   0  0  0  0  0  0  0  0  0  0  0  0
  -30.4392  -12.2669   19.3775 C   0  0  0  0  0  0  0  0  0  0  0  0
  -29.4791  -12.5281   18.1977 C   0  0  0  0  0  0  0  0  0  0  0  0
  -27.9985  -12.3963   18.6038 C   0  0  0  0  0  0  0  0  0  0  0  0
  -27.6639  -13.2170   19.8820 C   0  0  2  0  0  0  0  0  0  0  0  0
  -28.6795  -12.9602   21.0279 C   0  0  0  0  0  0  0  0  0  0  0  0
  -25.2633  -13.8245   20.5754 C   0  0  0  0  0  0  0  0  0  0  0  0
  -24.1645  -13.0409   20.9408 C   0  0  0  0  0  0  0  0  0  0  0  0
  -24.6400  -11.7009   20.8697 C   0  0  0  0  0  0  0  0  0  0  0  0
  -23.9005  -10.4085   21.0420 C   0  0  0  0  0  0  0  0  0  0  0  0
  -24.3588   -9.4123   21.9123 C   0  0  0  0  0  0  0  0  0  0  0  0
  -23.6296   -8.2350   22.0803 C   0  0  0  0  0  0  0  0  0  0  0  0
  -22.4385   -8.0419   21.3657 C   0  0  0  0  0  0  0  0  0  0  0  0
  -22.0103   -9.0167   20.4678 C   0  0  0  0  0  0  0  0  0  0  0  0
  -22.7317  -10.1925   20.3102 C   0  0  0  0  0  0  0  0  0  0  0  0
  -21.6857   -6.0709   22.5391 C   0  0  0  0  0  0  0  0  0  0  0  0
  -21.4064   -6.5490   23.8264 C   0  0  0  0  0  0  0  0  0  0  0  0
  -21.3635   -5.6677   24.9085 C   0  0  0  0  0  0  0  0  0  0  0  0
  -21.5973   -4.3067   24.7088 C   0  0  0  0  0  0  0  0  0  0  0  0
  -21.8700   -3.8284   23.4282 C   0  0  0  0  0  0  0  0  0  0  0  0
  -21.9144   -4.7056   22.3460 C   0  0  0  0  0  0  0  0  0  0  0  0
  -22.8194  -13.5263   21.1763 C   0  0  0  0  0  0  0  0  0  0  0  0
  -22.1559   -4.2206   21.1063 F   0  0  0  0  0  0  0  0  0  0  0  0
  -21.5628   -3.4510   25.7555 F   0  0  0  0  0  0  0  0  0  0  0  0
  -30.0261  -13.1803   20.4553 N   0  0  0  0  0  0  0  0  0  0  0  0
  -26.2911  -12.9356   20.3443 N   0  0  0  0  0  0  0  0  0  0  0  0
  -25.9236  -11.6675   20.5847 N   0  0  0  0  0  0  0  0  0  0  0  0
  -22.0708  -12.7905   22.0005 N   0  0  0  0  0  0  0  0  0  0  0  0
  -25.4117  -15.1773   20.4097 N   0  0  0  0  0  0  0  0  0  0  0  0
  -31.7916  -14.6724   20.0536 O   0  0  0  0  0  0  0  0  0  0  0  0
  -21.6670   -6.9022   21.4423 O   0  0  0  0  0  0  0  0  0  0  0  0
  -22.3946  -14.5564   20.6568 O   0  0  0  0  0  0  0  0  0  0  0  0
  -24.6048  -31.8614   23.2223 C   0  0  0  0  0  0  0  0  0  0  0  0
  -25.8822  -32.4841   23.8616 C   0  0  1  0  0  0  0  0  0  0  0  0
  -27.2536  -27.5042   20.1156 C   0  0  0  0  0  0  0  0  0  0  0  0
  -25.5726  -33.8762   24.2210 N   0  0  0  0  0  0  0  0  0  0  0  0
  -23.4066  -30.4859   21.5461 C   0  0  2  0  0  0  0  0  0  0  0  0
  -24.8467  -28.9636   20.1247 C   0  0  0  0  0  0  0  0  0  0  0  0
  -22.7412  -29.4652   22.5052 C   0  0  0  0  0  0  0  0  0  0  0  0
  -18.0167  -28.1302   22.8626 C   0  0  0  0  0  0  0  0  0  0  0  0
  -24.1342  -36.7390   23.2568 C   0  0  0  0  0  0  0  0  0  0  0  0
  -25.9141  -30.8882   21.3456 C   0  0  0  0  0  0  0  0  0  0  0  0
  -25.9930  -29.5029   20.7208 C   0  0  0  0  0  0  0  0  0  0  0  0
  -27.1758  -28.7612   20.7331 C   0  0  0  0  0  0  0  0  0  0  0  0
  -26.1032  -26.9836   19.5230 C   0  0  0  0  0  0  0  0  0  0  0  0
  -24.9097  -27.7011   19.5331 C   0  0  0  0  0  0  0  0  0  0  0  0
  -23.5715  -29.7899   20.1582 C   0  0  0  0  0  0  0  0  0  0  0  0
  -25.3990  -36.3212   24.0232 C   0  0  1  0  0  0  0  0  0  0  0  0
  -20.5793  -28.3813   23.1004 C   0  0  2  0  0  0  0  0  0  0  0  0
  -20.6548  -26.9392   22.5411 C   0  0  0  0  0  0  0  0  0  0  0  0
  -19.5615  -26.6407   21.5143 C   0  0  0  0  0  0  0  0  0  0  0  0
  -18.1797  -26.7818   22.1673 C   0  0  0  0  0  0  0  0  0  0  0  0
  -19.1385  -28.8769   23.2988 C   0  0  0  0  0  0  0  0  0  0  0  0
  -18.9183  -30.1286   23.8878 C   0  0  0  0  0  0  0  0  0  0  0  0
  -17.6396  -30.6493   24.0352 C   0  0  0  0  0  0  0  0  0  0  0  0
  -25.9153  -34.9582   23.4993 C   0  0  0  0  0  0  0  0  0  0  0  0
  -16.5415  -29.9068   23.6254 C   0  0  0  0  0  0  0  0  0  0  0  0
  -16.7331  -28.6521   23.0586 C   0  0  0  0  0  0  0  0  0  0  0  0
  -26.4583  -31.6439   25.0683 C   0  0  0  0  0  0  0  0  0  0  0  0
  -25.3807  -31.3179   26.1374 C   0  0  0  0  0  0  0  0  0  0  0  0
  -27.0530  -30.3024   24.5680 C   0  0  0  0  0  0  0  0  0  0  0  0
  -27.6014  -32.4281   25.7651 C   0  0  0  0  0  0  0  0  0  0  0  0
  -27.5629  -37.2220   24.8621 C   0  0  0  0  0  0  0  0  0  0  0  0
  -21.4133  -29.3375   22.3735 N   0  0  0  0  0  0  0  0  0  0  0  0
  -26.4706  -37.3372   23.9061 N   0  0  0  0  0  0  0  0  0  0  0  0
  -24.6674  -31.0544   22.1178 N   0  0  0  0  0  0  0  0  0  0  0  0
  -23.4259  -28.8150   23.2971 O   0  0  0  0  0  0  0  0  0  0  0  0
  -28.3948  -26.7345   20.0089 O   0  0  0  0  0  0  0  0  0  0  0  0
  -26.5870  -34.9065   22.4671 O   0  0  0  0  0  0  0  0  0  0  0  0
  -23.5365  -32.1254   23.7833 O   0  0  0  0  0  0  0  0  0  0  0  0
  -30.8383  -19.5524   23.0897 C   0  0  0  0  0  0  0  0  0  0  0  0
  -30.0917  -19.9921   24.1637 C   0  0  0  0  0  0  0  0  0  0  0  0
  -29.0323  -19.1849   24.5249 C   0  0  0  0  0  0  0  0  0  0  0  0
  -29.5207  -17.7142   22.8619 C   0  0  0  0  0  0  0  0  0  0  0  0
  -26.6870  -17.7876   26.1193 C   0  0  0  0  0  0  0  0  0  0  0  0
  -25.4901  -17.0491   25.5741 C   0  0  0  0  0  0  0  0  0  0  0  0
  -31.8962  -22.9054   25.6270 C   0  0  0  0  0  0  0  0  0  0  0  0
  -31.1134  -22.8460   23.2334 C   0  0  0  0  0  0  0  0  0  0  0  0
  -26.1516  -20.2091   26.6837 C   0  0  0  0  0  0  0  0  0  0  0  0
  -26.3263  -21.6869   26.3422 C   0  0  0  0  0  0  0  0  0  0  0  0
  -26.8392  -19.2479   25.7131 C   0  0  1  0  0  0  0  0  0  0  0  0
  -31.5145  -22.0220   24.4482 C   0  0  0  0  0  0  0  0  0  0  0  0
  -30.5801  -18.4140   22.4132 N   0  0  0  0  0  0  0  0  0  0  0  0
  -28.7168  -18.0350   23.8936 N   0  0  0  0  0  0  0  0  0  0  0  0
  -30.4119  -21.1844   24.8262 N   0  0  0  0  0  0  0  0  0  0  0  0
  -28.2451  -19.5716   25.5951 N   0  0  0  0  0  0  0  0  0  0  0  0
  -29.2194  -16.5122   22.1747 N   0  0  0  0  0  0  0  0  0  0  0  0
  -27.4864  -17.2196   26.8641 O   0  0  0  0  0  0  0  0  0  0  0  0
  -31.4485  -12.4701   19.0860 H   0  0  0  0  0  0  0  0  0  0  0  0
  -30.3970  -11.2460   19.6950 H   0  0  0  0  0  0  0  0  0  0  0  0
  -29.6870  -11.8204   17.4226 H   0  0  0  0  0  0  0  0  0  0  0  0
  -29.6375  -13.5326   17.8649 H   0  0  0  0  0  0  0  0  0  0  0  0
  -27.7830  -11.3650   18.7904 H   0  0  0  0  0  0  0  0  0  0  0  0
  -27.4028  -12.7801   17.8021 H   0  0  0  0  0  0  0  0  0  0  0  0
  -27.7353  -14.2503   19.6136 H   0  0  0  0  0  0  0  0  0  0  0  0
  -28.5890  -11.9550   21.3832 H   0  0  0  0  0  0  0  0  0  0  0  0
  -28.5005  -13.6134   21.8562 H   0  0  0  0  0  0  0  0  0  0  0  0
  -25.2399   -9.5495   22.4318 H   0  0  0  0  0  0  0  0  0  0  0  0
  -23.9663   -7.5070   22.7297 H   0  0  0  0  0  0  0  0  0  0  0  0
  -21.1515   -8.8641   19.9162 H   0  0  0  0  0  0  0  0  0  0  0  0
  -22.4016  -10.9115   19.6476 H   0  0  0  0  0  0  0  0  0  0  0  0
  -21.2319   -7.5552   23.9750 H   0  0  0  0  0  0  0  0  0  0  0  0
  -21.1589   -6.0228   25.8556 H   0  0  0  0  0  0  0  0  0  0  0  0
  -22.0396   -2.8212   23.2809 H   0  0  0  0  0  0  0  0  0  0  0  0
  -22.4401  -11.9703   22.4008 H   0  0  0  0  0  0  0  0  0  0  0  0
  -21.1493  -13.0679   22.2082 H   0  0  0  0  0  0  0  0  0  0  0  0
  -24.6538  -15.7807   20.5848 H   0  0  0  0  0  0  0  0  0  0  0  0
  -26.2762  -15.5453   20.1156 H   0  0  0  0  0  0  0  0  0  0  0  0
  -26.6778  -32.4663   23.1464 H   0  0  0  0  0  0  0  0  0  0  0  0
  -25.0747  -34.0282   25.0566 H   0  0  0  0  0  0  0  0  0  0  0  0
  -22.7881  -31.3489   21.4131 H   0  0  0  0  0  0  0  0  0  0  0  0
  -23.3854  -35.9823   23.3648 H   0  0  0  0  0  0  0  0  0  0  0  0
  -24.3696  -36.8624   22.2204 H   0  0  0  0  0  0  0  0  0  0  0  0
  -23.7669  -37.6632   23.6516 H   0  0  0  0  0  0  0  0  0  0  0  0
  -25.9445  -31.6237   20.5691 H   0  0  0  0  0  0  0  0  0  0  0  0
  -26.7436  -31.0079   22.0108 H   0  0  0  0  0  0  0  0  0  0  0  0
  -28.0090  -29.1452   21.2057 H   0  0  0  0  0  0  0  0  0  0  0  0
  -26.1369  -26.0560   19.0719 H   0  0  0  0  0  0  0  0  0  0  0  0
  -24.0652  -27.2961   19.0997 H   0  0  0  0  0  0  0  0  0  0  0  0
  -23.6156  -30.5365   19.3930 H   0  0  0  0  0  0  0  0  0  0  0  0
  -22.7355  -29.1425   19.9945 H   0  0  0  0  0  0  0  0  0  0  0  0
  -25.1353  -36.2335   25.0565 H   0  0  0  0  0  0  0  0  0  0  0  0
  -21.0070  -28.3206   24.0793 H   0  0  0  0  0  0  0  0  0  0  0  0
  -20.5555  -26.2518   23.3550 H   0  0  0  0  0  0  0  0  0  0  0  0
  -21.5974  -26.8362   22.0454 H   0  0  0  0  0  0  0  0  0  0  0  0
  -19.6810  -25.6422   21.1488 H   0  0  0  0  0  0  0  0  0  0  0  0
  -19.6406  -27.3343   20.7034 H   0  0  0  0  0  0  0  0  0  0  0  0
  -17.4282  -26.6888   21.4113 H   0  0  0  0  0  0  0  0  0  0  0  0
  -18.0803  -26.0130   22.9049 H   0  0  0  0  0  0  0  0  0  0  0  0
  -19.7265  -30.6774   24.2204 H   0  0  0  0  0  0  0  0  0  0  0  0
  -17.5064  -31.5856   24.4483 H   0  0  0  0  0  0  0  0  0  0  0  0
  -15.5878  -30.2839   23.7407 H   0  0  0  0  0  0  0  0  0  0  0  0
  -15.9120  -28.0941   22.7766 H   0  0  0  0  0  0  0  0  0  0  0  0
  -24.5787  -30.7757   25.6817 H   0  0  0  0  0  0  0  0  0  0  0  0
  -25.0041  -32.2289   26.5536 H   0  0  0  0  0  0  0  0  0  0  0  0
  -25.8166  -30.7245   26.9138 H   0  0  0  0  0  0  0  0  0  0  0  0
  -26.2892  -29.7335   24.0803 H   0  0  0  0  0  0  0  0  0  0  0  0
  -27.4336  -29.7484   25.4006 H   0  0  0  0  0  0  0  0  0  0  0  0
  -27.8466  -30.4994   23.8779 H   0  0  0  0  0  0  0  0  0  0  0  0
  -27.2251  -33.3632   26.1242 H   0  0  0  0  0  0  0  0  0  0  0  0
  -28.3902  -32.6065   25.0645 H   0  0  0  0  0  0  0  0  0  0  0  0
  -27.9772  -31.8555   26.5872 H   0  0  0  0  0  0  0  0  0  0  0  0
  -28.2744  -38.0016   24.6863 H   0  0  0  0  0  0  0  0  0  0  0  0
  -28.0396  -36.2711   24.7461 H   0  0  0  0  0  0  0  0  0  0  0  0
  -27.1773  -37.3087   25.8564 H   0  0  0  0  0  0  0  0  0  0  0  0
  -20.9627  -29.9365   21.7352 H   0  0  0  0  0  0  0  0  0  0  0  0
  -26.0447  -38.2561   24.0273 H   0  0  0  0  0  0  0  0  0  0  0  0
  -31.6400  -20.1272   22.7866 H   0  0  0  0  0  0  0  0  0  0  0  0
  -24.9188  -17.7059   24.9519 H   0  0  0  0  0  0  0  0  0  0  0  0
  -24.8818  -16.7076   26.3854 H   0  0  0  0  0  0  0  0  0  0  0  0
  -25.8206  -16.2100   24.9983 H   0  0  0  0  0  0  0  0  0  0  0  0
  -32.7181  -23.5325   25.3513 H   0  0  0  0  0  0  0  0  0  0  0  0
  -32.1788  -22.2911   26.4563 H   0  0  0  0  0  0  0  0  0  0  0  0
  -31.0601  -23.5137   25.9023 H   0  0  0  0  0  0  0  0  0  0  0  0
  -31.9294  -23.4744   22.9434 H   0  0  0  0  0  0  0  0  0  0  0  0
  -30.2659  -23.4519   23.4774 H   0  0  0  0  0  0  0  0  0  0  0  0
  -30.8629  -22.1911   22.4251 H   0  0  0  0  0  0  0  0  0  0  0  0
  -25.1046  -19.9884   26.6870 H   0  0  0  0  0  0  0  0  0  0  0  0
  -26.6137  -20.0606   27.6373 H   0  0  0  0  0  0  0  0  0  0  0  0
  -27.0409  -21.9838   27.0812 H   0  0  0  0  0  0  0  0  0  0  0  0
  -25.2821  -21.7998   26.1380 H   0  0  0  0  0  0  0  0  0  0  0  0
  -26.3530  -19.3706   24.7679 H   0  0  0  0  0  0  0  0  0  0  0  0
  -32.3686  -21.4331   24.1861 H   0  0  0  0  0  0  0  0  0  0  0  0
  -29.8533  -21.4612   25.5882 H   0  0  0  0  0  0  0  0  0  0  0  0
  -28.6641  -20.0955   26.3157 H   0  0  0  0  0  0  0  0  0  0  0  0
  -28.2539  -16.3205   22.1888 H   0  0  0  0  0  0  0  0  0  0  0  0
  1 25  1  0  0  0  0
  1 30  2  0  0  0  0
  1 87  1  0  0  0  0
  2  3  1  0  0  0  0
  2 25  1  0  0  0  0
  2 89  1  0  0  0  0
  2 90  1  0  0  0  0
  3  4  1  0  0  0  0
  3 91  1  0  0  0  0
  3 92  1  0  0  0  0
  4  5  1  0  0  0  0
  4 93  1  0  0  0  0
  4 94  1  0  0  0  0
  5  6  1  0  0  0  0
  5 26  1  0  0  0  0
  5 95  1  6  0  0  0
  6 25  1  0  0  0  0
  6 96  1  0  0  0  0
  6 97  1  0  0  0  0
  7  8  2  0  0  0  0
  7 26  1  0  0  0  0
  7 29  1  0  0  0  0
  8  9  1  0  0  0  0
  8 22  1  0  0  0  0
  9 10  1  0  0  0  0
  9 27  2  0  0  0  0
 10 11  2  0  0  0  0
 10 15  1  0  0  0  0
 11 12  1  0  0  0  0
 11 98  1  0  0  0  0
 12 13  2  0  0  0  0
 12 99  1  0  0  0  0
 13 14  1  0  0  0  0
 13 31  1  0  0  0  0
 14 15  2  0  0  0  0
 14100  1  0  0  0  0
 15101  1  0  0  0  0
 16 17  2  0  0  0  0
 16 21  1  0  0  0  0
 16 31  1  0  0  0  0
 17 18  1  0  0  0  0
 17102  1  0  0  0  0
 18 19  2  0  0  0  0
 18103  1  0  0  0  0
 19 20  1  0  0  0  0
 19 24  1  0  0  0  0
 20 21  2  0  0  0  0
 20104  1  0  0  0  0
 21 23  1  0  0  0  0
 22 28  1  0  0  0  0
 22 32  2  0  0  0  0
 26 27  1  0  0  0  0
 28105  1  0  0  0  0
 28106  1  0  0  0  0
 29107  1  0  0  0  0
 29108  1  0  0  0  0
 33 34  1  0  0  0  0
 33 66  1  0  0  0  0
 33 70  2  0  0  0  0
 34 36  1  0  0  0  0
 34 59  1  0  0  0  0
 34109  1  6  0  0  0
 35 44  2  0  0  0  0
 35 45  1  0  0  0  0
 35 68  1  0  0  0  0
 36 56  1  0  0  0  0
 36110  1  0  0  0  0
 37 39  1  0  0  0  0
 37 47  1  0  0  0  0
 37 66  1  0  0  0  0
 37111  1  6  0  0  0
 38 43  2  0  0  0  0
 38 46  1  0  0  0  0
 38 47  1  0  0  0  0
 39 64  1  0  0  0  0
 39 67  2  0  0  0  0
 40 52  1  0  0  0  0
 40 53  2  0  0  0  0
 40 58  1  0  0  0  0
 41112  1  0  0  0  0
 41113  1  0  0  0  0
 41114  1  0  0  0  0
 42 43  1  0  0  0  0
 42 66  1  0  0  0  0
 42115  1  0  0  0  0
 42116  1  0  0  0  0
 43 44  1  0  0  0  0
 44117  1  0  0  0  0
 45 46  2  0  0  0  0
 45118  1  0  0  0  0
 46119  1  0  0  0  0
 47120  1  0  0  0  0
 47121  1  0  0  0  0
 48 41  1  0  0  0  0
 48 56  1  0  0  0  0
 48 65  1  0  0  0  0
 48122  1  1  0  0  0
 49 50  1  0  0  0  0
 49 53  1  0  0  0  0
 49 64  1  0  0  0  0
 49123  1  1  0  0  0
 50 51  1  0  0  0  0
 50124  1  0  0  0  0
 50125  1  0  0  0  0
 51 52  1  0  0  0  0
 51126  1  0  0  0  0
 51127  1  0  0  0  0
 52128  1  0  0  0  0
 52129  1  0  0  0  0
 53 54  1  0  0  0  0
 54 55  2  0  0  0  0
 54130  1  0  0  0  0
 55 57  1  0  0  0  0
 55131  1  0  0  0  0
 56 69  2  0  0  0  0
 57 58  2  0  0  0  0
 57132  1  0  0  0  0
 58133  1  0  0  0  0
 59 60  1  0  0  0  0
 59 61  1  0  0  0  0
 59 62  1  0  0  0  0
 60134  1  0  0  0  0
 60135  1  0  0  0  0
 60136  1  0  0  0  0
 61137  1  0  0  0  0
 61138  1  0  0  0  0
 61139  1  0  0  0  0
 62140  1  0  0  0  0
 62141  1  0  0  0  0
 62142  1  0  0  0  0
 63 65  1  0  0  0  0
 63143  1  0  0  0  0
 63144  1  0  0  0  0
 63145  1  0  0  0  0
 64146  1  0  0  0  0
 65147  1  0  0  0  0
 68 80  1  0  0  0  0
 71 72  2  0  0  0  0
 71 83  1  0  0  0  0
 71148  1  0  0  0  0
 72 73  1  0  0  0  0
 72 85  1  0  0  0  0
 73 84  2  0  0  0  0
 73 86  1  0  0  0  0
 74 83  2  0  0  0  0
 74 84  1  0  0  0  0
 74 87  1  0  0  0  0
 75 76  1  0  0  0  0
 75 81  1  0  0  0  0
 75 88  2  0  0  0  0
 76149  1  0  0  0  0
 76150  1  0  0  0  0
 76151  1  0  0  0  0
 77152  1  0  0  0  0
 77153  1  0  0  0  0
 77154  1  0  0  0  0
 78 82  1  0  0  0  0
 78155  1  0  0  0  0
 78156  1  0  0  0  0
 78157  1  0  0  0  0
 79 80  1  0  0  0  0
 79158  1  0  0  0  0
 79159  1  0  0  0  0
 80160  1  0  0  0  0
 80161  1  0  0  0  0
 81 79  1  0  0  0  0
 81 86  1  0  0  0  0
 81162  1  6  0  0  0
 82 77  1  0  0  0  0
 82 85  1  0  0  0  0
 82163  1  0  0  0  0
 85164  1  0  0  0  0
 86165  1  0  0  0  0
 87166  1  0  0  0  0
M  ISO  4   1 100  68 101  80 101  87 100
M  END
$$$$
9
 OpenBabel04052305473D

160168  0  0  0  0  0  0  0  0999 V2000
  -30.7652  -14.3608   20.6636 C   0  0  0  0  0  0  0  0  0  0  0  0
  -30.4392  -12.2669   19.3775 C   0  0  0  0  0  0  0  0  0  0  0  0
  -29.4791  -12.5281   18.1977 C   0  0  0  0  0  0  0  0  0  0  0  0
  -27.9985  -12.3963   18.6038 C   0  0  0  0  0  0  0  0  0  0  0  0
  -27.6639  -13.2170   19.8820 C   0  0  2  0  0  0  0  0  0  0  0  0
  -28.6795  -12.9602   21.0279 C   0  0  0  0  0  0  0  0  0  0  0  0
  -25.2633  -13.8245   20.5754 C   0  0  0  0  0  0  0  0  0  0  0  0
  -24.1645  -13.0409   20.9408 C   0  0  0  0  0  0  0  0  0  0  0  0
  -24.6400  -11.7009   20.8697 C   0  0  0  0  0  0  0  0  0  0  0  0
  -23.9005  -10.4085   21.0420 C   0  0  0  0  0  0  0  0  0  0  0  0
  -24.3588   -9.4123   21.9123 C   0  0  0  0  0  0  0  0  0  0  0  0
  -23.6296   -8.2350   22.0803 C   0  0  0  0  0  0  0  0  0  0  0  0
  -22.4385   -8.0419   21.3657 C   0  0  0  0  0  0  0  0  0  0  0  0
  -22.0103   -9.0167   20.4678 C   0  0  0  0  0  0  0  0  0  0  0  0
  -22.7317  -10.1925   20.3102 C   0  0  0  0  0  0  0  0  0  0  0  0
  -21.6857   -6.0709   22.5391 C   0  0  0  0  0  0  0  0  0  0  0  0
  -21.4064   -6.5490   23.8264 C   0  0  0  0  0  0  0  0  0  0  0  0
  -21.3635   -5.6677   24.9085 C   0  0  0  0  0  0  0  0  0  0  0  0
  -21.5973   -4.3067   24.7088 C   0  0  0  0  0  0  0  0  0  0  0  0
  -21.8700   -3.8284   23.4282 C   0  0  0  0  0  0  0  0  0  0  0  0
  -21.9144   -4.7056   22.3460 C   0  0  0  0  0  0  0  0  0  0  0  0
  -22.8194  -13.5263   21.1763 C   0  0  0  0  0  0  0  0  0  0  0  0
  -22.1559   -4.2206   21.1063 F   0  0  0  0  0  0  0  0  0  0  0  0
  -21.5628   -3.4510   25.7555 F   0  0  0  0  0  0  0  0  0  0  0  0
  -30.0261  -13.1803   20.4553 N   0  0  0  0  0  0  0  0  0  0  0  0
  -26.2911  -12.9356   20.3443 N   0  0  0  0  0  0  0  0  0  0  0  0
  -25.9236  -11.6675   20.5847 N   0  0  0  0  0  0  0  0  0  0  0  0
  -22.0708  -12.7905   22.0005 N   0  0  0  0  0  0  0  0  0  0  0  0
  -25.4117  -15.1773   20.4097 N   0  0  0  0  0  0  0  0  0  0  0  0
  -31.7916  -14.6724   20.0536 O   0  0  0  0  0  0  0  0  0  0  0  0
  -21.6670   -6.9022   21.4423 O   0  0  0  0  0  0  0  0  0  0  0  0
  -22.3946  -14.5564   20.6568 O   0  0  0  0  0  0  0  0  0  0  0  0
  -24.6048  -31.8614   23.2223 C   0  0  0  0  0  0  0  0  0  0  0  0
  -25.8822  -32.4841   23.8616 C   0  0  1  0  0  0  0  0  0  0  0  0
  -27.2536  -27.5042   20.1156 C   0  0  0  0  0  0  0  0  0  0  0  0
  -25.5726  -33.8762   24.2210 N   0  0  0  0  0  0  0  0  0  0  0  0
  -23.4066  -30.4859   21.5461 C   0  0  2  0  0  0  0  0  0  0  0  0
  -24.8467  -28.9636   20.1247 C   0  0  0  0  0  0  0  0  0  0  0  0
  -22.7412  -29.4652   22.5052 C   0  0  0  0  0  0  0  0  0  0  0  0
  -18.0167  -28.1302   22.8626 C   0  0  0  0  0  0  0  0  0  0  0  0
  -24.1342  -36.7390   23.2568 C   0  0  0  0  0  0  0  0  0  0  0  0
  -25.9141  -30.8882   21.3456 C   0  0  0  0  0  0  0  0  0  0  0  0
  -25.9930  -29.5029   20.7208 C   0  0  0  0  0  0  0  0  0  0  0  0
  -27.1758  -28.7612   20.7331 C   0  0  0  0  0  0  0  0  0  0  0  0
  -26.1032  -26.9836   19.5230 C   0  0  0  0  0  0  0  0  0  0  0  0
  -24.9097  -27.7011   19.5331 C   0  0  0  0  0  0  0  0  0  0  0  0
  -23.5715  -29.7899   20.1582 C   0  0  0  0  0  0  0  0  0  0  0  0
  -25.3990  -36.3212   24.0232 C   0  0  1  0  0  0  0  0  0  0  0  0
  -20.5793  -28.3813   23.1004 C   0  0  2  0  0  0  0  0  0  0  0  0
  -20.6548  -26.9392   22.5411 C   0  0  0  0  0  0  0  0  0  0  0  0
  -19.5615  -26.6407   21.5143 C   0  0  0  0  0  0  0  0  0  0  0  0
  -18.1797  -26.7818   22.1673 C   0  0  0  0  0  0  0  0  0  0  0  0
  -19.1385  -28.8769   23.2988 C   0  0  0  0  0  0  0  0  0  0  0  0
  -18.9183  -30.1286   23.8878 C   0  0  0  0  0  0  0  0  0  0  0  0
  -17.6396  -30.6493   24.0352 C   0  0  0  0  0  0  0  0  0  0  0  0
  -25.9153  -34.9582   23.4993 C   0  0  0  0  0  0  0  0  0  0  0  0
  -16.5415  -29.9068   23.6254 C   0  0  0  0  0  0  0  0  0  0  0  0
  -16.7331  -28.6521   23.0586 C   0  0  0  0  0  0  0  0  0  0  0  0
  -26.4583  -31.6439   25.0683 C   0  0  0  0  0  0  0  0  0  0  0  0
  -25.3807  -31.3179   26.1374 C   0  0  0  0  0  0  0  0  0  0  0  0
  -27.0530  -30.3024   24.5680 C   0  0  0  0  0  0  0  0  0  0  0  0
  -27.6014  -32.4281   25.7651 C   0  0  0  0  0  0  0  0  0  0  0  0
  -27.5629  -37.2220   24.8621 C   0  0  0  0  0  0  0  0  0  0  0  0
  -21.4133  -29.3375   22.3735 N   0  0  0  0  0  0  0  0  0  0  0  0
  -26.4706  -37.3372   23.9061 N   0  0  0  0  0  0  0  0  0  0  0  0
  -24.6674  -31.0544   22.1178 N   0  0  0  0  0  0  0  0  0  0  0  0
  -23.4259  -28.8150   23.2971 O   0  0  0  0  0  0  0  0  0  0  0  0
  -28.3948  -26.7345   20.0089 O   0  0  0  0  0  0  0  0  0  0  0  0
  -26.5870  -34.9065   22.4671 O   0  0  0  0  0  0  0  0  0  0  0  0
  -23.5365  -32.1254   23.7833 O   0  0  0  0  0  0  0  0  0  0  0  0
  -20.8047  -21.6564   20.4645 C   0  0  0  0  0  0  0  0  0  0  0  0
  -19.6009  -22.3516   20.4347 C   0  0  0  0  0  0  0  0  0  0  0  0
  -19.5845  -23.7145   20.7094 C   0  0  0  0  0  0  0  0  0  0  0  0
  -21.9552  -22.3647   20.7719 C   0  0  0  0  0  0  0  0  0  0  0  0
  -20.7896  -24.3306   21.0060 C   0  0  0  0  0  0  0  0  0  0  0  0
  -18.3801  -21.6232   20.1133 C   0  0  0  0  0  0  0  0  0  0  0  0
  -17.8378  -27.4125   20.6135 C   0  0  0  0  0  0  0  0  0  0  0  0
  -17.8750  -25.0756   19.5049 C   0  0  0  0  0  0  0  0  0  0  0  0
  -18.9613  -28.0355   19.7982 C   0  0  0  0  0  0  0  0  0  0  0  0
  -17.0638  -26.3206   19.8674 C   0  0  1  0  0  0  0  0  0  0  0  0
  -21.9788  -23.6886   21.0444 N   0  0  0  0  0  0  0  0  0  0  0  0
  -18.3560  -20.3518   19.8516 N   0  0  0  0  0  0  0  0  0  0  0  0
  -20.7849  -25.7202   21.2870 N   0  0  0  0  0  0  0  0  0  0  0  0
  -18.3968  -24.4265   20.6858 N   0  0  0  0  0  0  0  0  0  0  0  0
  -23.1772  -21.6481   20.8001 N   0  0  0  0  0  0  0  0  0  0  0  0
  -15.9506  -25.9125   20.6647 O   0  0  0  0  0  0  0  0  0  0  0  0
  -31.4485  -12.4701   19.0860 H   0  0  0  0  0  0  0  0  0  0  0  0
  -30.3970  -11.2460   19.6950 H   0  0  0  0  0  0  0  0  0  0  0  0
  -29.6870  -11.8204   17.4226 H   0  0  0  0  0  0  0  0  0  0  0  0
  -29.6375  -13.5326   17.8649 H   0  0  0  0  0  0  0  0  0  0  0  0
  -27.7830  -11.3650   18.7904 H   0  0  0  0  0  0  0  0  0  0  0  0
  -27.4028  -12.7801   17.8021 H   0  0  0  0  0  0  0  0  0  0  0  0
  -27.7353  -14.2503   19.6136 H   0  0  0  0  0  0  0  0  0  0  0  0
  -28.5890  -11.9550   21.3832 H   0  0  0  0  0  0  0  0  0  0  0  0
  -28.5005  -13.6134   21.8562 H   0  0  0  0  0  0  0  0  0  0  0  0
  -25.2399   -9.5495   22.4318 H   0  0  0  0  0  0  0  0  0  0  0  0
  -23.9663   -7.5070   22.7297 H   0  0  0  0  0  0  0  0  0  0  0  0
  -21.1515   -8.8641   19.9162 H   0  0  0  0  0  0  0  0  0  0  0  0
  -22.4016  -10.9115   19.6476 H   0  0  0  0  0  0  0  0  0  0  0  0
  -21.2319   -7.5552   23.9750 H   0  0  0  0  0  0  0  0  0  0  0  0
  -21.1589   -6.0228   25.8556 H   0  0  0  0  0  0  0  0  0  0  0  0
  -22.0396   -2.8212   23.2809 H   0  0  0  0  0  0  0  0  0  0  0  0
  -22.4401  -11.9703   22.4008 H   0  0  0  0  0  0  0  0  0  0  0  0
  -21.1493  -13.0679   22.2082 H   0  0  0  0  0  0  0  0  0  0  0  0
  -24.6538  -15.7807   20.5848 H   0  0  0  0  0  0  0  0  0  0  0  0
  -26.2762  -15.5453   20.1156 H   0  0  0  0  0  0  0  0  0  0  0  0
  -26.6778  -32.4663   23.1464 H   0  0  0  0  0  0  0  0  0  0  0  0
  -25.0747  -34.0282   25.0566 H   0  0  0  0  0  0  0  0  0  0  0  0
  -22.7881  -31.3489   21.4131 H   0  0  0  0  0  0  0  0  0  0  0  0
  -23.3854  -35.9823   23.3648 H   0  0  0  0  0  0  0  0  0  0  0  0
  -24.3696  -36.8624   22.2204 H   0  0  0  0  0  0  0  0  0  0  0  0
  -23.7669  -37.6632   23.6516 H   0  0  0  0  0  0  0  0  0  0  0  0
  -25.9445  -31.6237   20.5691 H   0  0  0  0  0  0  0  0  0  0  0  0
  -26.7436  -31.0079   22.0108 H   0  0  0  0  0  0  0  0  0  0  0  0
  -28.0090  -29.1452   21.2057 H   0  0  0  0  0  0  0  0  0  0  0  0
  -26.1369  -26.0560   19.0719 H   0  0  0  0  0  0  0  0  0  0  0  0
  -24.0652  -27.2961   19.0997 H   0  0  0  0  0  0  0  0  0  0  0  0
  -23.6156  -30.5365   19.3930 H   0  0  0  0  0  0  0  0  0  0  0  0
  -22.7355  -29.1425   19.9945 H   0  0  0  0  0  0  0  0  0  0  0  0
  -25.1353  -36.2335   25.0565 H   0  0  0  0  0  0  0  0  0  0  0  0
  -21.0070  -28.3206   24.0793 H   0  0  0  0  0  0  0  0  0  0  0  0
  -20.5555  -26.2518   23.3550 H   0  0  0  0  0  0  0  0  0  0  0  0
  -21.5974  -26.8362   22.0454 H   0  0  0  0  0  0  0  0  0  0  0  0
  -19.6810  -25.6422   21.1488 H   0  0  0  0  0  0  0  0  0  0  0  0
  -19.6406  -27.3343   20.7034 H   0  0  0  0  0  0  0  0  0  0  0  0
  -17.4282  -26.6888   21.4113 H   0  0  0  0  0  0  0  0  0  0  0  0
  -18.0803  -26.0130   22.9049 H   0  0  0  0  0  0  0  0  0  0  0  0
  -19.7265  -30.6774   24.2204 H   0  0  0  0  0  0  0  0  0  0  0  0
  -17.5064  -31.5856   24.4483 H   0  0  0  0  0  0  0  0  0  0  0  0
  -15.5878  -30.2839   23.7407 H   0  0  0  0  0  0  0  0  0  0  0  0
  -15.9120  -28.0941   22.7766 H   0  0  0  0  0  0  0  0  0  0  0  0
  -24.5787  -30.7757   25.6817 H   0  0  0  0  0  0  0  0  0  0  0  0
  -25.0041  -32.2289   26.5536 H   0  0  0  0  0  0  0  0  0  0  0  0
  -25.8166  -30.7245   26.9138 H   0  0  0  0  0  0  0  0  0  0  0  0
  -26.2892  -29.7335   24.0803 H   0  0  0  0  0  0  0  0  0  0  0  0
  -27.4336  -29.7484   25.4006 H   0  0  0  0  0  0  0  0  0  0  0  0
  -27.8466  -30.4994   23.8779 H   0  0  0  0  0  0  0  0  0  0  0  0
  -27.2251  -33.3632   26.1242 H   0  0  0  0  0  0  0  0  0  0  0  0
  -28.3902  -32.6065   25.0645 H   0  0  0  0  0  0  0  0  0  0  0  0
  -27.9772  -31.8555   26.5872 H   0  0  0  0  0  0  0  0  0  0  0  0
  -28.2744  -38.0016   24.6863 H   0  0  0  0  0  0  0  0  0  0  0  0
  -28.0396  -36.2711   24.7461 H   0  0  0  0  0  0  0  0  0  0  0  0
  -27.1773  -37.3087   25.8564 H   0  0  0  0  0  0  0  0  0  0  0  0
  -20.9627  -29.9365   21.7352 H   0  0  0  0  0  0  0  0  0  0  0  0
  -26.0447  -38.2561   24.0273 H   0  0  0  0  0  0  0  0  0  0  0  0
  -20.8401  -20.6447   20.2640 H   0  0  0  0  0  0  0  0  0  0  0  0
  -17.4897  -22.1445   20.0927 H   0  0  0  0  0  0  0  0  0  0  0  0
  -17.1508  -28.1858   20.8872 H   0  0  0  0  0  0  0  0  0  0  0  0
  -18.2910  -26.9473   21.4638 H   0  0  0  0  0  0  0  0  0  0  0  0
  -18.6913  -25.3626   18.8755 H   0  0  0  0  0  0  0  0  0  0  0  0
  -17.2301  -24.3880   18.9987 H   0  0  0  0  0  0  0  0  0  0  0  0
  -18.8464  -29.0855   19.9693 H   0  0  0  0  0  0  0  0  0  0  0  0
  -18.7796  -27.4888   18.8965 H   0  0  0  0  0  0  0  0  0  0  0  0
  -16.7694  -26.7650   18.9396 H   0  0  0  0  0  0  0  0  0  0  0  0
  -19.1912  -19.8307   19.8644 H   0  0  0  0  0  0  0  0  0  0  0  0
  -19.9388  -26.2232   21.2690 H   0  0  0  0  0  0  0  0  0  0  0  0
  -21.6278  -26.1822   21.5001 H   0  0  0  0  0  0  0  0  0  0  0  0
  -17.8790  -24.4942   21.5204 H   0  0  0  0  0  0  0  0  0  0  0  0
  -23.7651  -22.4258   20.9369 H   0  0  0  0  0  0  0  0  0  0  0  0
  -16.2718  -25.5180   21.4906 H   0  0  0  0  0  0  0  0  0  0  0  0
  1 25  1  0  0  0  0
  1 30  2  0  0  0  0
  1 85  1  0  0  0  0
  2  3  1  0  0  0  0
  2 25  1  0  0  0  0
  2 87  1  0  0  0  0
  2 88  1  0  0  0  0
  3  4  1  0  0  0  0
  3 89  1  0  0  0  0
  3 90  1  0  0  0  0
  4  5  1  0  0  0  0
  4 91  1  0  0  0  0
  4 92  1  0  0  0  0
  5  6  1  0  0  0  0
  5 26  1  0  0  0  0
  5 93  1  6  0  0  0
  6 25  1  0  0  0  0
  6 94  1  0  0  0  0
  6 95  1  0  0  0  0
  7  8  2  0  0  0  0
  7 26  1  0  0  0  0
  7 29  1  0  0  0  0
  8  9  1  0  0  0  0
  8 22  1  0  0  0  0
  9 10  1  0  0  0  0
  9 27  2  0  0  0  0
 10 11  2  0  0  0  0
 10 15  1  0  0  0  0
 11 12  1  0  0  0  0
 11 96  1  0  0  0  0
 12 13  2  0  0  0  0
 12 97  1  0  0  0  0
 13 14  1  0  0  0  0
 13 31  1  0  0  0  0
 14 15  2  0  0  0  0
 14 98  1  0  0  0  0
 15 99  1  0  0  0  0
 16 17  2  0  0  0  0
 16 21  1  0  0  0  0
 16 31  1  0  0  0  0
 17 18  1  0  0  0  0
 17100  1  0  0  0  0
 18 19  2  0  0  0  0
 18101  1  0  0  0  0
 19 20  1  0  0  0  0
 19 24  1  0  0  0  0
 20 21  2  0  0  0  0
 20102  1  0  0  0  0
 21 23  1  0  0  0  0
 22 28  1  0  0  0  0
 22 32  2  0  0  0  0
 26 27  1  0  0  0  0
 28103  1  0  0  0  0
 28104  1  0  0  0  0
 29105  1  0  0  0  0
 29106  1  0  0  0  0
 33 34  1  0  0  0  0
 33 66  1  0  0  0  0
 33 70  2  0  0  0  0
 34 36  1  0  0  0  0
 34 59  1  0  0  0  0
 34107  1  6  0  0  0
 35 44  2  0  0  0  0
 35 45  1  0  0  0  0
 35 68  1  0  0  0  0
 36 56  1  0  0  0  0
 36108  1  0  0  0  0
 37 39  1  0  0  0  0
 37 47  1  0  0  0  0
 37 66  1  0  0  0  0
 37109  1  6  0  0  0
 38 43  2  0  0  0  0
 38 46  1  0  0  0  0
 38 47  1  0  0  0  0
 39 64  1  0  0  0  0
 39 67  2  0  0  0  0
 40 52  1  0  0  0  0
 40 53  2  0  0  0  0
 40 58  1  0  0  0  0
 41110  1  0  0  0  0
 41111  1  0  0  0  0
 41112  1  0  0  0  0
 42 43  1  0  0  0  0
 42 66  1  0  0  0  0
 42113  1  0  0  0  0
 42114  1  0  0  0  0
 43 44  1  0  0  0  0
 44115  1  0  0  0  0
 45 46  2  0  0  0  0
 45116  1  0  0  0  0
 46117  1  0  0  0  0
 47118  1  0  0  0  0
 47119  1  0  0  0  0
 48 41  1  0  0  0  0
 48 56  1  0  0  0  0
 48 65  1  0  0  0  0
 48120  1  1  0  0  0
 49 50  1  0  0  0  0
 49 53  1  0  0  0  0
 49 64  1  0  0  0  0
 49121  1  1  0  0  0
 50 51  1  0  0  0  0
 50122  1  0  0  0  0
 50123  1  0  0  0  0
 51 52  1  0  0  0  0
 51124  1  0  0  0  0
 51125  1  0  0  0  0
 52126  1  0  0  0  0
 52127  1  0  0  0  0
 53 54  1  0  0  0  0
 54 55  2  0  0  0  0
 54128  1  0  0  0  0
 55 57  1  0  0  0  0
 55129  1  0  0  0  0
 56 69  2  0  0  0  0
 57 58  2  0  0  0  0
 57130  1  0  0  0  0
 58131  1  0  0  0  0
 59 60  1  0  0  0  0
 59 61  1  0  0  0  0
 59 62  1  0  0  0  0
 60132  1  0  0  0  0
 60133  1  0  0  0  0
 60134  1  0  0  0  0
 61135  1  0  0  0  0
 61136  1  0  0  0  0
 61137  1  0  0  0  0
 62138  1  0  0  0  0
 62139  1  0  0  0  0
 62140  1  0  0  0  0
 63 65  1  0  0  0  0
 63141  1  0  0  0  0
 63142  1  0  0  0  0
 63143  1  0  0  0  0
 64144  1  0  0  0  0
 65145  1  0  0  0  0
 68 79  1  0  0  0  0
 71 72  2  0  0  0  0
 71 74  1  0  0  0  0
 71146  1  0  0  0  0
 72 73  1  0  0  0  0
 72 76  1  0  0  0  0
 73 75  2  0  0  0  0
 73 84  1  0  0  0  0
 74 81  2  0  0  0  0
 74 85  1  0  0  0  0
 75 81  1  0  0  0  0
 75 83  1  0  0  0  0
 76 82  2  0  0  0  0
 76147  1  0  0  0  0
 77 79  1  0  0  0  0
 77 80  1  0  0  0  0
 77148  1  0  0  0  0
 77149  1  0  0  0  0
 78 80  1  0  0  0  0
 78 84  1  0  0  0  0
 78150  1  0  0  0  0
 78151  1  0  0  0  0
 79152  1  0  0  0  0
 79153  1  0  0  0  0
 80 86  1  0  0  0  0
 80154  1  6  0  0  0
 82155  1  0  0  0  0
 83156  1  0  0  0  0
 83157  1  0  0  0  0
 84158  1  0  0  0  0
 85159  1  0  0  0  0
 86160  1  0  0  0  0
M  ISO  4   1 100  68 101  79 101  85 100
M  END
$$$$
10
 OpenBabel04052305473D

152160  0  0  0  0  0  0  0  0999 V2000
  -30.7652  -14.3608   20.6636 C   0  0  0  0  0  0  0  0  0  0  0  0
  -30.4392  -12.2669   19.3775 C   0  0  0  0  0  0  0  0  0  0  0  0
  -29.4791  -12.5281   18.1977 C   0  0  0  0  0  0  0  0  0  0  0  0
  -27.9985  -12.3963   18.6038 C   0  0  0  0  0  0  0  0  0  0  0  0
  -27.6639  -13.2170   19.8820 C   0  0  2  0  0  0  0  0  0  0  0  0
  -28.6795  -12.9602   21.0279 C   0  0  0  0  0  0  0  0  0  0  0  0
  -25.2633  -13.8245   20.5754 C   0  0  0  0  0  0  0  0  0  0  0  0
  -24.1645  -13.0409   20.9408 C   0  0  0  0  0  0  0  0  0  0  0  0
  -24.6400  -11.7009   20.8697 C   0  0  0  0  0  0  0  0  0  0  0  0
  -23.9005  -10.4085   21.0420 C   0  0  0  0  0  0  0  0  0  0  0  0
  -24.3588   -9.4123   21.9123 C   0  0  0  0  0  0  0  0  0  0  0  0
  -23.6296   -8.2350   22.0803 C   0  0  0  0  0  0  0  0  0  0  0  0
  -22.4385   -8.0419   21.3657 C   0  0  0  0  0  0  0  0  0  0  0  0
  -22.0103   -9.0167   20.4678 C   0  0  0  0  0  0  0  0  0  0  0  0
  -22.7317  -10.1925   20.3102 C   0  0  0  0  0  0  0  0  0  0  0  0
  -21.6857   -6.0709   22.5391 C   0  0  0  0  0  0  0  0  0  0  0  0
  -21.4064   -6.5490   23.8264 C   0  0  0  0  0  0  0  0  0  0  0  0
  -21.3635   -5.6677   24.9085 C   0  0  0  0  0  0  0  0  0  0  0  0
  -21.5973   -4.3067   24.7088 C   0  0  0  0  0  0  0  0  0  0  0  0
  -21.8700   -3.8284   23.4282 C   0  0  0  0  0  0  0  0  0  0  0  0
  -21.9144   -4.7056   22.3460 C   0  0  0  0  0  0  0  0  0  0  0  0
  -22.8194  -13.5263   21.1763 C   0  0  0  0  0  0  0  0  0  0  0  0
  -22.1559   -4.2206   21.1063 F   0  0  0  0  0  0  0  0  0  0  0  0
  -21.5628   -3.4510   25.7555 F   0  0  0  0  0  0  0  0  0  0  0  0
  -30.0261  -13.1803   20.4553 N   0  0  0  0  0  0  0  0  0  0  0  0
  -26.2911  -12.9356   20.3443 N   0  0  0  0  0  0  0  0  0  0  0  0
  -25.9236  -11.6675   20.5847 N   0  0  0  0  0  0  0  0  0  0  0  0
  -22.0708  -12.7905   22.0005 N   0  0  0  0  0  0  0  0  0  0  0  0
  -25.4117  -15.1773   20.4097 N   0  0  0  0  0  0  0  0  0  0  0  0
  -31.7916  -14.6724   20.0536 O   0  0  0  0  0  0  0  0  0  0  0  0
  -21.6670   -6.9022   21.4423 O   0  0  0  0  0  0  0  0  0  0  0  0
  -22.3946  -14.5564   20.6568 O   0  0  0  0  0  0  0  0  0  0  0  0
  -24.6048  -31.8614   23.2223 C   0  0  0  0  0  0  0  0  0  0  0  0
  -25.8822  -32.4841   23.8616 C   0  0  1  0  0  0  0  0  0  0  0  0
  -27.2536  -27.5042   20.1156 C   0  0  0  0  0  0  0  0  0  0  0  0
  -25.5726  -33.8762   24.2210 N   0  0  0  0  0  0  0  0  0  0  0  0
  -23.4066  -30.4859   21.5461 C   0  0  2  0  0  0  0  0  0  0  0  0
  -24.8467  -28.9636   20.1247 C   0  0  0  0  0  0  0  0  0  0  0  0
  -22.7412  -29.4652   22.5052 C   0  0  0  0  0  0  0  0  0  0  0  0
  -18.0167  -28.1302   22.8626 C   0  0  0  0  0  0  0  0  0  0  0  0
  -24.1342  -36.7390   23.2568 C   0  0  0  0  0  0  0  0  0  0  0  0
  -25.9141  -30.8882   21.3456 C   0  0  0  0  0  0  0  0  0  0  0  0
  -25.9930  -29.5029   20.7208 C   0  0  0  0  0  0  0  0  0  0  0  0
  -27.1758  -28.7612   20.7331 C   0  0  0  0  0  0  0  0  0  0  0  0
  -26.1032  -26.9836   19.5230 C   0  0  0  0  0  0  0  0  0  0  0  0
  -24.9097  -27.7011   19.5331 C   0  0  0  0  0  0  0  0  0  0  0  0
  -23.5715  -29.7899   20.1582 C   0  0  0  0  0  0  0  0  0  0  0  0
  -25.3990  -36.3212   24.0232 C   0  0  1  0  0  0  0  0  0  0  0  0
  -20.5793  -28.3813   23.1004 C   0  0  2  0  0  0  0  0  0  0  0  0
  -20.6548  -26.9392   22.5411 C   0  0  0  0  0  0  0  0  0  0  0  0
  -19.5615  -26.6407   21.5143 C   0  0  0  0  0  0  0  0  0  0  0  0
  -18.1797  -26.7818   22.1673 C   0  0  0  0  0  0  0  0  0  0  0  0
  -19.1385  -28.8769   23.2988 C   0  0  0  0  0  0  0  0  0  0  0  0
  -18.9183  -30.1286   23.8878 C   0  0  0  0  0  0  0  0  0  0  0  0
  -17.6396  -30.6493   24.0352 C   0  0  0  0  0  0  0  0  0  0  0  0
  -25.9153  -34.9582   23.4993 C   0  0  0  0  0  0  0  0  0  0  0  0
  -16.5415  -29.9068   23.6254 C   0  0  0  0  0  0  0  0  0  0  0  0
  -16.7331  -28.6521   23.0586 C   0  0  0  0  0  0  0  0  0  0  0  0
  -26.4583  -31.6439   25.0683 C   0  0  0  0  0  0  0  0  0  0  0  0
  -25.3807  -31.3179   26.1374 C   0  0  0  0  0  0  0  0  0  0  0  0
  -27.0530  -30.3024   24.5680 C   0  0  0  0  0  0  0  0  0  0  0  0
  -27.6014  -32.4281   25.7651 C   0  0  0  0  0  0  0  0  0  0  0  0
  -27.5629  -37.2220   24.8621 C   0  0  0  0  0  0  0  0  0  0  0  0
  -21.4133  -29.3375   22.3735 N   0  0  0  0  0  0  0  0  0  0  0  0
  -26.4706  -37.3372   23.9061 N   0  0  0  0  0  0  0  0  0  0  0  0
  -24.6674  -31.0544   22.1178 N   0  0  0  0  0  0  0  0  0  0  0  0
  -23.4259  -28.8150   23.2971 O   0  0  0  0  0  0  0  0  0  0  0  0
  -28.3948  -26.7345   20.0089 O   0  0  0  0  0  0  0  0  0  0  0  0
  -26.5870  -34.9065   22.4671 O   0  0  0  0  0  0  0  0  0  0  0  0
  -23.5365  -32.1254   23.7833 O   0  0  0  0  0  0  0  0  0  0  0  0
  -28.8315  -20.5474   19.7801 C   0  0  0  0  0  0  0  0  0  0  0  0
  -28.6345  -19.1916   20.0173 C   0  0  0  0  0  0  0  0  0  0  0  0
  -30.9042  -20.0118   18.7440 C   0  0  0  0  0  0  0  0  0  0  0  0
  -29.9853  -20.9736   19.1318 C   0  0  0  0  0  0  0  0  0  0  0  0
  -29.6138  -18.3095   19.5896 C   0  0  0  0  0  0  0  0  0  0  0  0
  -29.2877  -23.3658   19.2605 C   0  0  0  0  0  0  0  0  0  0  0  0
  -28.7105  -25.7613   18.7420 C   0  0  0  0  0  0  0  0  0  0  0  0
  -29.8251  -24.7230   18.8109 C   0  0  1  0  0  0  0  0  0  0  0  0
  -30.7476  -18.6860   18.9569 N   0  0  0  0  0  0  0  0  0  0  0  0
  -30.2079  -22.3171   18.8814 N   0  0  0  0  0  0  0  0  0  0  0  0
  -29.4044  -16.9302   19.8373 N   0  0  0  0  0  0  0  0  0  0  0  0
  -30.7888  -25.1820   19.7611 O   0  0  0  0  0  0  0  0  0  0  0  0
  -31.4485  -12.4701   19.0860 H   0  0  0  0  0  0  0  0  0  0  0  0
  -30.3970  -11.2460   19.6950 H   0  0  0  0  0  0  0  0  0  0  0  0
  -29.6870  -11.8204   17.4226 H   0  0  0  0  0  0  0  0  0  0  0  0
  -29.6375  -13.5326   17.8649 H   0  0  0  0  0  0  0  0  0  0  0  0
  -27.7830  -11.3650   18.7904 H   0  0  0  0  0  0  0  0  0  0  0  0
  -27.4028  -12.7801   17.8021 H   0  0  0  0  0  0  0  0  0  0  0  0
  -27.7353  -14.2503   19.6136 H   0  0  0  0  0  0  0  0  0  0  0  0
  -28.5890  -11.9550   21.3832 H   0  0  0  0  0  0  0  0  0  0  0  0
  -28.5005  -13.6134   21.8562 H   0  0  0  0  0  0  0  0  0  0  0  0
  -25.2399   -9.5495   22.4318 H   0  0  0  0  0  0  0  0  0  0  0  0
  -23.9663   -7.5070   22.7297 H   0  0  0  0  0  0  0  0  0  0  0  0
  -21.1515   -8.8641   19.9162 H   0  0  0  0  0  0  0  0  0  0  0  0
  -22.4016  -10.9115   19.6476 H   0  0  0  0  0  0  0  0  0  0  0  0
  -21.2319   -7.5552   23.9750 H   0  0  0  0  0  0  0  0  0  0  0  0
  -21.1589   -6.0228   25.8556 H   0  0  0  0  0  0  0  0  0  0  0  0
  -22.0396   -2.8212   23.2809 H   0  0  0  0  0  0  0  0  0  0  0  0
  -22.4401  -11.9703   22.4008 H   0  0  0  0  0  0  0  0  0  0  0  0
  -21.1493  -13.0679   22.2082 H   0  0  0  0  0  0  0  0  0  0  0  0
  -24.6538  -15.7807   20.5848 H   0  0  0  0  0  0  0  0  0  0  0  0
  -26.2762  -15.5453   20.1156 H   0  0  0  0  0  0  0  0  0  0  0  0
  -26.6778  -32.4663   23.1464 H   0  0  0  0  0  0  0  0  0  0  0  0
  -25.0747  -34.0282   25.0566 H   0  0  0  0  0  0  0  0  0  0  0  0
  -22.7881  -31.3489   21.4131 H   0  0  0  0  0  0  0  0  0  0  0  0
  -23.3854  -35.9823   23.3648 H   0  0  0  0  0  0  0  0  0  0  0  0
  -24.3696  -36.8624   22.2204 H   0  0  0  0  0  0  0  0  0  0  0  0
  -23.7669  -37.6632   23.6516 H   0  0  0  0  0  0  0  0  0  0  0  0
  -25.9445  -31.6237   20.5691 H   0  0  0  0  0  0  0  0  0  0  0  0
  -26.7436  -31.0079   22.0108 H   0  0  0  0  0  0  0  0  0  0  0  0
  -28.0090  -29.1452   21.2057 H   0  0  0  0  0  0  0  0  0  0  0  0
  -26.1369  -26.0560   19.0719 H   0  0  0  0  0  0  0  0  0  0  0  0
  -24.0652  -27.2961   19.0997 H   0  0  0  0  0  0  0  0  0  0  0  0
  -23.6156  -30.5365   19.3930 H   0  0  0  0  0  0  0  0  0  0  0  0
  -22.7355  -29.1425   19.9945 H   0  0  0  0  0  0  0  0  0  0  0  0
  -25.1353  -36.2335   25.0565 H   0  0  0  0  0  0  0  0  0  0  0  0
  -21.0070  -28.3206   24.0793 H   0  0  0  0  0  0  0  0  0  0  0  0
  -20.5555  -26.2518   23.3550 H   0  0  0  0  0  0  0  0  0  0  0  0
  -21.5974  -26.8362   22.0454 H   0  0  0  0  0  0  0  0  0  0  0  0
  -19.6810  -25.6422   21.1488 H   0  0  0  0  0  0  0  0  0  0  0  0
  -19.6406  -27.3343   20.7034 H   0  0  0  0  0  0  0  0  0  0  0  0
  -17.4282  -26.6888   21.4113 H   0  0  0  0  0  0  0  0  0  0  0  0
  -18.0803  -26.0130   22.9049 H   0  0  0  0  0  0  0  0  0  0  0  0
  -19.7265  -30.6774   24.2204 H   0  0  0  0  0  0  0  0  0  0  0  0
  -17.5064  -31.5856   24.4483 H   0  0  0  0  0  0  0  0  0  0  0  0
  -15.5878  -30.2839   23.7407 H   0  0  0  0  0  0  0  0  0  0  0  0
  -15.9120  -28.0941   22.7766 H   0  0  0  0  0  0  0  0  0  0  0  0
  -24.5787  -30.7757   25.6817 H   0  0  0  0  0  0  0  0  0  0  0  0
  -25.0041  -32.2289   26.5536 H   0  0  0  0  0  0  0  0  0  0  0  0
  -25.8166  -30.7245   26.9138 H   0  0  0  0  0  0  0  0  0  0  0  0
  -26.2892  -29.7335   24.0803 H   0  0  0  0  0  0  0  0  0  0  0  0
  -27.4336  -29.7484   25.4006 H   0  0  0  0  0  0  0  0  0  0  0  0
  -27.8466  -30.4994   23.8779 H   0  0  0  0  0  0  0  0  0  0  0  0
  -27.2251  -33.3632   26.1242 H   0  0  0  0  0  0  0  0  0  0  0  0
  -28.3902  -32.6065   25.0645 H   0  0  0  0  0  0  0  0  0  0  0  0
  -27.9772  -31.8555   26.5872 H   0  0  0  0  0  0  0  0  0  0  0  0
  -28.2744  -38.0016   24.6863 H   0  0  0  0  0  0  0  0  0  0  0  0
  -28.0396  -36.2711   24.7461 H   0  0  0  0  0  0  0  0  0  0  0  0
  -27.1773  -37.3087   25.8564 H   0  0  0  0  0  0  0  0  0  0  0  0
  -20.9627  -29.9365   21.7352 H   0  0  0  0  0  0  0  0  0  0  0  0
  -26.0447  -38.2561   24.0273 H   0  0  0  0  0  0  0  0  0  0  0  0
  -28.1241  -21.2346   20.0840 H   0  0  0  0  0  0  0  0  0  0  0  0
  -27.7857  -18.8529   20.4968 H   0  0  0  0  0  0  0  0  0  0  0  0
  -31.7611  -20.3270   18.2629 H   0  0  0  0  0  0  0  0  0  0  0  0
  -28.3396  -23.1894   18.7970 H   0  0  0  0  0  0  0  0  0  0  0  0
  -29.1778  -23.3676   20.3248 H   0  0  0  0  0  0  0  0  0  0  0  0
  -27.8073  -25.2256   18.5368 H   0  0  0  0  0  0  0  0  0  0  0  0
  -29.0702  -26.4455   18.0022 H   0  0  0  0  0  0  0  0  0  0  0  0
  -30.2588  -24.6024   17.8402 H   0  0  0  0  0  0  0  0  0  0  0  0
  -31.0390  -22.5724   18.4195 H   0  0  0  0  0  0  0  0  0  0  0  0
  -28.4525  -16.7338   19.6804 H   0  0  0  0  0  0  0  0  0  0  0  0
  -30.3659  -25.2811   20.6284 H   0  0  0  0  0  0  0  0  0  0  0  0
  1 25  1  0  0  0  0
  1 30  2  0  0  0  0
  1 81  1  0  0  0  0
  2  3  1  0  0  0  0
  2 25  1  0  0  0  0
  2 83  1  0  0  0  0
  2 84  1  0  0  0  0
  3  4  1  0  0  0  0
  3 85  1  0  0  0  0
  3 86  1  0  0  0  0
  4  5  1  0  0  0  0
  4 87  1  0  0  0  0
  4 88  1  0  0  0  0
  5  6  1  0  0  0  0
  5 26  1  0  0  0  0
  5 89  1  6  0  0  0
  6 25  1  0  0  0  0
  6 90  1  0  0  0  0
  6 91  1  0  0  0  0
  7  8  2  0  0  0  0
  7 26  1  0  0  0  0
  7 29  1  0  0  0  0
  8  9  1  0  0  0  0
  8 22  1  0  0  0  0
  9 10  1  0  0  0  0
  9 27  2  0  0  0  0
 10 11  2  0  0  0  0
 10 15  1  0  0  0  0
 11 12  1  0  0  0  0
 11 92  1  0  0  0  0
 12 13  2  0  0  0  0
 12 93  1  0  0  0  0
 13 14  1  0  0  0  0
 13 31  1  0  0  0  0
 14 15  2  0  0  0  0
 14 94  1  0  0  0  0
 15 95  1  0  0  0  0
 16 17  2  0  0  0  0
 16 21  1  0  0  0  0
 16 31  1  0  0  0  0
 17 18  1  0  0  0  0
 17 96  1  0  0  0  0
 18 19  2  0  0  0  0
 18 97  1  0  0  0  0
 19 20  1  0  0  0  0
 19 24  1  0  0  0  0
 20 21  2  0  0  0  0
 20 98  1  0  0  0  0
 21 23  1  0  0  0  0
 22 28  1  0  0  0  0
 22 32  2  0  0  0  0
 26 27  1  0  0  0  0
 28 99  1  0  0  0  0
 28100  1  0  0  0  0
 29101  1  0  0  0  0
 29102  1  0  0  0  0
 33 34  1  0  0  0  0
 33 66  1  0  0  0  0
 33 70  2  0  0  0  0
 34 36  1  0  0  0  0
 34 59  1  0  0  0  0
 34103  1  6  0  0  0
 35 44  2  0  0  0  0
 35 45  1  0  0  0  0
 35 68  1  0  0  0  0
 36 56  1  0  0  0  0
 36104  1  0  0  0  0
 37 39  1  0  0  0  0
 37 47  1  0  0  0  0
 37 66  1  0  0  0  0
 37105  1  6  0  0  0
 38 43  2  0  0  0  0
 38 46  1  0  0  0  0
 38 47  1  0  0  0  0
 39 64  1  0  0  0  0
 39 67  2  0  0  0  0
 40 52  1  0  0  0  0
 40 53  2  0  0  0  0
 40 58  1  0  0  0  0
 41106  1  0  0  0  0
 41107  1  0  0  0  0
 41108  1  0  0  0  0
 42 43  1  0  0  0  0
 42 66  1  0  0  0  0
 42109  1  0  0  0  0
 42110  1  0  0  0  0
 43 44  1  0  0  0  0
 44111  1  0  0  0  0
 45 46  2  0  0  0  0
 45112  1  0  0  0  0
 46113  1  0  0  0  0
 47114  1  0  0  0  0
 47115  1  0  0  0  0
 48 41  1  0  0  0  0
 48 56  1  0  0  0  0
 48 65  1  0  0  0  0
 48116  1  1  0  0  0
 49 50  1  0  0  0  0
 49 53  1  0  0  0  0
 49 64  1  0  0  0  0
 49117  1  1  0  0  0
 50 51  1  0  0  0  0
 50118  1  0  0  0  0
 50119  1  0  0  0  0
 51 52  1  0  0  0  0
 51120  1  0  0  0  0
 51121  1  0  0  0  0
 52122  1  0  0  0  0
 52123  1  0  0  0  0
 53 54  1  0  0  0  0
 54 55  2  0  0  0  0
 54124  1  0  0  0  0
 55 57  1  0  0  0  0
 55125  1  0  0  0  0
 56 69  2  0  0  0  0
 57 58  2  0  0  0  0
 57126  1  0  0  0  0
 58127  1  0  0  0  0
 59 60  1  0  0  0  0
 59 61  1  0  0  0  0
 59 62  1  0  0  0  0
 60128  1  0  0  0  0
 60129  1  0  0  0  0
 60130  1  0  0  0  0
 61131  1  0  0  0  0
 61132  1  0  0  0  0
 61133  1  0  0  0  0
 62134  1  0  0  0  0
 62135  1  0  0  0  0
 62136  1  0  0  0  0
 63 65  1  0  0  0  0
 63137  1  0  0  0  0
 63138  1  0  0  0  0
 63139  1  0  0  0  0
 64140  1  0  0  0  0
 65141  1  0  0  0  0
 68 77  1  0  0  0  0
 71 72  2  0  0  0  0
 71 74  1  0  0  0  0
 71142  1  0  0  0  0
 72 75  1  0  0  0  0
 72143  1  0  0  0  0
 73 74  2  0  0  0  0
 73 79  1  0  0  0  0
 73144  1  0  0  0  0
 74 80  1  0  0  0  0
 75 79  2  0  0  0  0
 75 81  1  0  0  0  0
 76 78  1  0  0  0  0
 76 80  1  0  0  0  0
 76145  1  0  0  0  0
 76146  1  0  0  0  0
 77 78  1  0  0  0  0
 77147  1  0  0  0  0
 77148  1  0  0  0  0
 78 82  1  0  0  0  0
 78149  1  6  0  0  0
 80150  1  0  0  0  0
 81151  1  0  0  0  0
 82152  1  0  0  0  0
M  ISO  4   1 100  68 101  77 101  81 100
M  END
$$$$
11
 OpenBabel04052305473D

154162  0  0  0  0  0  0  0  0999 V2000
  -30.7652  -14.3608   20.6636 C   0  0  0  0  0  0  0  0  0  0  0  0
  -30.4392  -12.2669   19.3775 C   0  0  0  0  0  0  0  0  0  0  0  0
  -29.4791  -12.5281   18.1977 C   0  0  0  0  0  0  0  0  0  0  0  0
  -27.9985  -12.3963   18.6038 C   0  0  0  0  0  0  0  0  0  0  0  0
  -27.6639  -13.2170   19.8820 C   0  0  2  0  0  0  0  0  0  0  0  0
  -28.6795  -12.9602   21.0279 C   0  0  0  0  0  0  0  0  0  0  0  0
  -25.2633  -13.8245   20.5754 C   0  0  0  0  0  0  0  0  0  0  0  0
  -24.1645  -13.0409   20.9408 C   0  0  0  0  0  0  0  0  0  0  0  0
  -24.6400  -11.7009   20.8697 C   0  0  0  0  0  0  0  0  0  0  0  0
  -23.9005  -10.4085   21.0420 C   0  0  0  0  0  0  0  0  0  0  0  0
  -24.3588   -9.4123   21.9123 C   0  0  0  0  0  0  0  0  0  0  0  0
  -23.6296   -8.2350   22.0803 C   0  0  0  0  0  0  0  0  0  0  0  0
  -22.4385   -8.0419   21.3657 C   0  0  0  0  0  0  0  0  0  0  0  0
  -22.0103   -9.0167   20.4678 C   0  0  0  0  0  0  0  0  0  0  0  0
  -22.7317  -10.1925   20.3102 C   0  0  0  0  0  0  0  0  0  0  0  0
  -21.6857   -6.0709   22.5391 C   0  0  0  0  0  0  0  0  0  0  0  0
  -21.4064   -6.5490   23.8264 C   0  0  0  0  0  0  0  0  0  0  0  0
  -21.3635   -5.6677   24.9085 C   0  0  0  0  0  0  0  0  0  0  0  0
  -21.5973   -4.3067   24.7088 C   0  0  0  0  0  0  0  0  0  0  0  0
  -21.8700   -3.8284   23.4282 C   0  0  0  0  0  0  0  0  0  0  0  0
  -21.9144   -4.7056   22.3460 C   0  0  0  0  0  0  0  0  0  0  0  0
  -22.8194  -13.5263   21.1763 C   0  0  0  0  0  0  0  0  0  0  0  0
  -22.1559   -4.2206   21.1063 F   0  0  0  0  0  0  0  0  0  0  0  0
  -21.5628   -3.4510   25.7555 F   0  0  0  0  0  0  0  0  0  0  0  0
  -30.0261  -13.1803   20.4553 N   0  0  0  0  0  0  0  0  0  0  0  0
  -26.2911  -12.9356   20.3443 N   0  0  0  0  0  0  0  0  0  0  0  0
  -25.9236  -11.6675   20.5847 N   0  0  0  0  0  0  0  0  0  0  0  0
  -22.0708  -12.7905   22.0005 N   0  0  0  0  0  0  0  0  0  0  0  0
  -25.4117  -15.1773   20.4097 N   0  0  0  0  0  0  0  0  0  0  0  0
  -31.7916  -14.6724   20.0536 O   0  0  0  0  0  0  0  0  0  0  0  0
  -21.6670   -6.9022   21.4423 O   0  0  0  0  0  0  0  0  0  0  0  0
  -22.3946  -14.5564   20.6568 O   0  0  0  0  0  0  0  0  0  0  0  0
  -24.6048  -31.8614   23.2223 C   0  0  0  0  0  0  0  0  0  0  0  0
  -25.8822  -32.4841   23.8616 C   0  0  1  0  0  0  0  0  0  0  0  0
  -27.2536  -27.5042   20.1156 C   0  0  0  0  0  0  0  0  0  0  0  0
  -25.5726  -33.8762   24.2210 N   0  0  0  0  0  0  0  0  0  0  0  0
  -23.4066  -30.4859   21.5461 C   0  0  2  0  0  0  0  0  0  0  0  0
  -24.8467  -28.9636   20.1247 C   0  0  0  0  0  0  0  0  0  0  0  0
  -22.7412  -29.4652   22.5052 C   0  0  0  0  0  0  0  0  0  0  0  0
  -18.0167  -28.1302   22.8626 C   0  0  0  0  0  0  0  0  0  0  0  0
  -24.1342  -36.7390   23.2568 C   0  0  0  0  0  0  0  0  0  0  0  0
  -25.9141  -30.8882   21.3456 C   0  0  0  0  0  0  0  0  0  0  0  0
  -25.9930  -29.5029   20.7208 C   0  0  0  0  0  0  0  0  0  0  0  0
  -27.1758  -28.7612   20.7331 C   0  0  0  0  0  0  0  0  0  0  0  0
  -26.1032  -26.9836   19.5230 C   0  0  0  0  0  0  0  0  0  0  0  0
  -24.9097  -27.7011   19.5331 C   0  0  0  0  0  0  0  0  0  0  0  0
  -23.5715  -29.7899   20.1582 C   0  0  0  0  0  0  0  0  0  0  0  0
  -25.3990  -36.3212   24.0232 C   0  0  1  0  0  0  0  0  0  0  0  0
  -20.5793  -28.3813   23.1004 C   0  0  2  0  0  0  0  0  0  0  0  0
  -20.6548  -26.9392   22.5411 C   0  0  0  0  0  0  0  0  0  0  0  0
  -19.5615  -26.6407   21.5143 C   0  0  0  0  0  0  0  0  0  0  0  0
  -18.1797  -26.7818   22.1673 C   0  0  0  0  0  0  0  0  0  0  0  0
  -19.1385  -28.8769   23.2988 C   0  0  0  0  0  0  0  0  0  0  0  0
  -18.9183  -30.1286   23.8878 C   0  0  0  0  0  0  0  0  0  0  0  0
  -17.6396  -30.6493   24.0352 C   0  0  0  0  0  0  0  0  0  0  0  0
  -25.9153  -34.9582   23.4993 C   0  0  0  0  0  0  0  0  0  0  0  0
  -16.5415  -29.9068   23.6254 C   0  0  0  0  0  0  0  0  0  0  0  0
  -16.7331  -28.6521   23.0586 C   0  0  0  0  0  0  0  0  0  0  0  0
  -26.4583  -31.6439   25.0683 C   0  0  0  0  0  0  0  0  0  0  0  0
  -25.3807  -31.3179   26.1374 C   0  0  0  0  0  0  0  0  0  0  0  0
  -27.0530  -30.3024   24.5680 C   0  0  0  0  0  0  0  0  0  0  0  0
  -27.6014  -32.4281   25.7651 C   0  0  0  0  0  0  0  0  0  0  0  0
  -27.5629  -37.2220   24.8621 C   0  0  0  0  0  0  0  0  0  0  0  0
  -21.4133  -29.3375   22.3735 N   0  0  0  0  0  0  0  0  0  0  0  0
  -26.4706  -37.3372   23.9061 N   0  0  0  0  0  0  0  0  0  0  0  0
  -24.6674  -31.0544   22.1178 N   0  0  0  0  0  0  0  0  0  0  0  0
  -23.4259  -28.8150   23.2971 O   0  0  0  0  0  0  0  0  0  0  0  0
  -28.3948  -26.7345   20.0089 O   0  0  0  0  0  0  0  0  0  0  0  0
  -26.5870  -34.9065   22.4671 O   0  0  0  0  0  0  0  0  0  0  0  0
  -23.5365  -32.1254   23.7833 O   0  0  0  0  0  0  0  0  0  0  0  0
  -29.8634  -19.3599   22.3720 C   0  0  0  0  0  0  0  0  0  0  0  0
  -31.8858  -18.9507   21.2772 C   0  0  0  0  0  0  0  0  0  0  0  0
  -31.0941  -19.8407   21.9738 C   0  0  0  0  0  0  0  0  0  0  0  0
  -30.2922  -17.3368   21.4284 C   0  0  0  0  0  0  0  0  0  0  0  0
  -31.7814  -24.1242   21.7994 C   0  0  0  0  0  0  0  0  0  0  0  0
  -30.7057  -22.0901   22.9813 C   0  0  0  0  0  0  0  0  0  0  0  0
  -30.5676  -24.5424   20.9828 C   0  0  0  0  0  0  0  0  0  0  0  0
  -31.4298  -23.4303   23.1196 C   0  0  1  0  0  0  0  0  0  0  0  0
  -29.4287  -18.1087   22.1154 N   0  0  0  0  0  0  0  0  0  0  0  0
  -31.5152  -17.6865   20.9860 N   0  0  0  0  0  0  0  0  0  0  0  0
  -31.5077  -21.1323   22.2550 N   0  0  0  0  0  0  0  0  0  0  0  0
  -29.8690  -16.0156   21.1405 N   0  0  0  0  0  0  0  0  0  0  0  0
  -32.6293  -23.2156   23.8657 O   0  0  0  0  0  0  0  0  0  0  0  0
  -31.4485  -12.4701   19.0860 H   0  0  0  0  0  0  0  0  0  0  0  0
  -30.3970  -11.2460   19.6950 H   0  0  0  0  0  0  0  0  0  0  0  0
  -29.6870  -11.8204   17.4226 H   0  0  0  0  0  0  0  0  0  0  0  0
  -29.6375  -13.5326   17.8649 H   0  0  0  0  0  0  0  0  0  0  0  0
  -27.7830  -11.3650   18.7904 H   0  0  0  0  0  0  0  0  0  0  0  0
  -27.4028  -12.7801   17.8021 H   0  0  0  0  0  0  0  0  0  0  0  0
  -27.7353  -14.2503   19.6136 H   0  0  0  0  0  0  0  0  0  0  0  0
  -28.5890  -11.9550   21.3832 H   0  0  0  0  0  0  0  0  0  0  0  0
  -28.5005  -13.6134   21.8562 H   0  0  0  0  0  0  0  0  0  0  0  0
  -25.2399   -9.5495   22.4318 H   0  0  0  0  0  0  0  0  0  0  0  0
  -23.9663   -7.5070   22.7297 H   0  0  0  0  0  0  0  0  0  0  0  0
  -21.1515   -8.8641   19.9162 H   0  0  0  0  0  0  0  0  0  0  0  0
  -22.4016  -10.9115   19.6476 H   0  0  0  0  0  0  0  0  0  0  0  0
  -21.2319   -7.5552   23.9750 H   0  0  0  0  0  0  0  0  0  0  0  0
  -21.1589   -6.0228   25.8556 H   0  0  0  0  0  0  0  0  0  0  0  0
  -22.0396   -2.8212   23.2809 H   0  0  0  0  0  0  0  0  0  0  0  0
  -22.4401  -11.9703   22.4008 H   0  0  0  0  0  0  0  0  0  0  0  0
  -21.1493  -13.0679   22.2082 H   0  0  0  0  0  0  0  0  0  0  0  0
  -24.6538  -15.7807   20.5848 H   0  0  0  0  0  0  0  0  0  0  0  0
  -26.2762  -15.5453   20.1156 H   0  0  0  0  0  0  0  0  0  0  0  0
  -26.6778  -32.4663   23.1464 H   0  0  0  0  0  0  0  0  0  0  0  0
  -25.0747  -34.0282   25.0566 H   0  0  0  0  0  0  0  0  0  0  0  0
  -22.7881  -31.3489   21.4131 H   0  0  0  0  0  0  0  0  0  0  0  0
  -23.3854  -35.9823   23.3648 H   0  0  0  0  0  0  0  0  0  0  0  0
  -24.3696  -36.8624   22.2204 H   0  0  0  0  0  0  0  0  0  0  0  0
  -23.7669  -37.6632   23.6516 H   0  0  0  0  0  0  0  0  0  0  0  0
  -25.9445  -31.6237   20.5691 H   0  0  0  0  0  0  0  0  0  0  0  0
  -26.7436  -31.0079   22.0108 H   0  0  0  0  0  0  0  0  0  0  0  0
  -28.0090  -29.1452   21.2057 H   0  0  0  0  0  0  0  0  0  0  0  0
  -26.1369  -26.0560   19.0719 H   0  0  0  0  0  0  0  0  0  0  0  0
  -24.0652  -27.2961   19.0997 H   0  0  0  0  0  0  0  0  0  0  0  0
  -23.6156  -30.5365   19.3930 H   0  0  0  0  0  0  0  0  0  0  0  0
  -22.7355  -29.1425   19.9945 H   0  0  0  0  0  0  0  0  0  0  0  0
  -25.1353  -36.2335   25.0565 H   0  0  0  0  0  0  0  0  0  0  0  0
  -21.0070  -28.3206   24.0793 H   0  0  0  0  0  0  0  0  0  0  0  0
  -20.5555  -26.2518   23.3550 H   0  0  0  0  0  0  0  0  0  0  0  0
  -21.5974  -26.8362   22.0454 H   0  0  0  0  0  0  0  0  0  0  0  0
  -19.6810  -25.6422   21.1488 H   0  0  0  0  0  0  0  0  0  0  0  0
  -19.6406  -27.3343   20.7034 H   0  0  0  0  0  0  0  0  0  0  0  0
  -17.4282  -26.6888   21.4113 H   0  0  0  0  0  0  0  0  0  0  0  0
  -18.0803  -26.0130   22.9049 H   0  0  0  0  0  0  0  0  0  0  0  0
  -19.7265  -30.6774   24.2204 H   0  0  0  0  0  0  0  0  0  0  0  0
  -17.5064  -31.5856   24.4483 H   0  0  0  0  0  0  0  0  0  0  0  0
  -15.5878  -30.2839   23.7407 H   0  0  0  0  0  0  0  0  0  0  0  0
  -15.9120  -28.0941   22.7766 H   0  0  0  0  0  0  0  0  0  0  0  0
  -24.5787  -30.7757   25.6817 H   0  0  0  0  0  0  0  0  0  0  0  0
  -25.0041  -32.2289   26.5536 H   0  0  0  0  0  0  0  0  0  0  0  0
  -25.8166  -30.7245   26.9138 H   0  0  0  0  0  0  0  0  0  0  0  0
  -26.2892  -29.7335   24.0803 H   0  0  0  0  0  0  0  0  0  0  0  0
  -27.4336  -29.7484   25.4006 H   0  0  0  0  0  0  0  0  0  0  0  0
  -27.8466  -30.4994   23.8779 H   0  0  0  0  0  0  0  0  0  0  0  0
  -27.2251  -33.3632   26.1242 H   0  0  0  0  0  0  0  0  0  0  0  0
  -28.3902  -32.6065   25.0645 H   0  0  0  0  0  0  0  0  0  0  0  0
  -27.9772  -31.8555   26.5872 H   0  0  0  0  0  0  0  0  0  0  0  0
  -28.2744  -38.0016   24.6863 H   0  0  0  0  0  0  0  0  0  0  0  0
  -28.0396  -36.2711   24.7461 H   0  0  0  0  0  0  0  0  0  0  0  0
  -27.1773  -37.3087   25.8564 H   0  0  0  0  0  0  0  0  0  0  0  0
  -20.9627  -29.9365   21.7352 H   0  0  0  0  0  0  0  0  0  0  0  0
  -26.0447  -38.2561   24.0273 H   0  0  0  0  0  0  0  0  0  0  0  0
  -29.2399  -19.9936   22.8960 H   0  0  0  0  0  0  0  0  0  0  0  0
  -32.8146  -19.2704   20.9608 H   0  0  0  0  0  0  0  0  0  0  0  0
  -32.3566  -24.9989   22.0208 H   0  0  0  0  0  0  0  0  0  0  0  0
  -32.3243  -23.4153   21.2098 H   0  0  0  0  0  0  0  0  0  0  0  0
  -29.7858  -22.2435   22.4567 H   0  0  0  0  0  0  0  0  0  0  0  0
  -30.5224  -21.7026   23.9617 H   0  0  0  0  0  0  0  0  0  0  0  0
  -29.8829  -23.8039   21.3443 H   0  0  0  0  0  0  0  0  0  0  0  0
  -31.2361  -24.9170   20.2361 H   0  0  0  0  0  0  0  0  0  0  0  0
  -30.7460  -24.0889   23.6131 H   0  0  0  0  0  0  0  0  0  0  0  0
  -32.3979  -21.4136   21.9426 H   0  0  0  0  0  0  0  0  0  0  0  0
  -28.8914  -15.9126   21.1951 H   0  0  0  0  0  0  0  0  0  0  0  0
  -33.2115  -22.6141   23.3757 H   0  0  0  0  0  0  0  0  0  0  0  0
  1 25  1  0  0  0  0
  1 30  2  0  0  0  0
  1 82  1  0  0  0  0
  2  3  1  0  0  0  0
  2 25  1  0  0  0  0
  2 84  1  0  0  0  0
  2 85  1  0  0  0  0
  3  4  1  0  0  0  0
  3 86  1  0  0  0  0
  3 87  1  0  0  0  0
  4  5  1  0  0  0  0
  4 88  1  0  0  0  0
  4 89  1  0  0  0  0
  5  6  1  0  0  0  0
  5 26  1  0  0  0  0
  5 90  1  6  0  0  0
  6 25  1  0  0  0  0
  6 91  1  0  0  0  0
  6 92  1  0  0  0  0
  7  8  2  0  0  0  0
  7 26  1  0  0  0  0
  7 29  1  0  0  0  0
  8  9  1  0  0  0  0
  8 22  1  0  0  0  0
  9 10  1  0  0  0  0
  9 27  2  0  0  0  0
 10 11  2  0  0  0  0
 10 15  1  0  0  0  0
 11 12  1  0  0  0  0
 11 93  1  0  0  0  0
 12 13  2  0  0  0  0
 12 94  1  0  0  0  0
 13 14  1  0  0  0  0
 13 31  1  0  0  0  0
 14 15  2  0  0  0  0
 14 95  1  0  0  0  0
 15 96  1  0  0  0  0
 16 17  2  0  0  0  0
 16 21  1  0  0  0  0
 16 31  1  0  0  0  0
 17 18  1  0  0  0  0
 17 97  1  0  0  0  0
 18 19  2  0  0  0  0
 18 98  1  0  0  0  0
 19 20  1  0  0  0  0
 19 24  1  0  0  0  0
 20 21  2  0  0  0  0
 20 99  1  0  0  0  0
 21 23  1  0  0  0  0
 22 28  1  0  0  0  0
 22 32  2  0  0  0  0
 26 27  1  0  0  0  0
 28100  1  0  0  0  0
 28101  1  0  0  0  0
 29102  1  0  0  0  0
 29103  1  0  0  0  0
 33 34  1  0  0  0  0
 33 66  1  0  0  0  0
 33 70  2  0  0  0  0
 34 36  1  0  0  0  0
 34 59  1  0  0  0  0
 34104  1  6  0  0  0
 35 44  2  0  0  0  0
 35 45  1  0  0  0  0
 35 68  1  0  0  0  0
 36 56  1  0  0  0  0
 36105  1  0  0  0  0
 37 39  1  0  0  0  0
 37 47  1  0  0  0  0
 37 66  1  0  0  0  0
 37106  1  6  0  0  0
 38 43  2  0  0  0  0
 38 46  1  0  0  0  0
 38 47  1  0  0  0  0
 39 64  1  0  0  0  0
 39 67  2  0  0  0  0
 40 52  1  0  0  0  0
 40 53  2  0  0  0  0
 40 58  1  0  0  0  0
 41107  1  0  0  0  0
 41108  1  0  0  0  0
 41109  1  0  0  0  0
 42 43  1  0  0  0  0
 42 66  1  0  0  0  0
 42110  1  0  0  0  0
 42111  1  0  0  0  0
 43 44  1  0  0  0  0
 44112  1  0  0  0  0
 45 46  2  0  0  0  0
 45113  1  0  0  0  0
 46114  1  0  0  0  0
 47115  1  0  0  0  0
 47116  1  0  0  0  0
 48 41  1  0  0  0  0
 48 56  1  0  0  0  0
 48 65  1  0  0  0  0
 48117  1  1  0  0  0
 49 50  1  0  0  0  0
 49 53  1  0  0  0  0
 49 64  1  0  0  0  0
 49118  1  1  0  0  0
 50 51  1  0  0  0  0
 50119  1  0  0  0  0
 50120  1  0  0  0  0
 51 52  1  0  0  0  0
 51121  1  0  0  0  0
 51122  1  0  0  0  0
 52123  1  0  0  0  0
 52124  1  0  0  0  0
 53 54  1  0  0  0  0
 54 55  2  0  0  0  0
 54125  1  0  0  0  0
 55 57  1  0  0  0  0
 55126  1  0  0  0  0
 56 69  2  0  0  0  0
 57 58  2  0  0  0  0
 57127  1  0  0  0  0
 58128  1  0  0  0  0
 59 60  1  0  0  0  0
 59 61  1  0  0  0  0
 59 62  1  0  0  0  0
 60129  1  0  0  0  0
 60130  1  0  0  0  0
 60131  1  0  0  0  0
 61132  1  0  0  0  0
 61133  1  0  0  0  0
 61134  1  0  0  0  0
 62135  1  0  0  0  0
 62136  1  0  0  0  0
 62137  1  0  0  0  0
 63 65  1  0  0  0  0
 63138  1  0  0  0  0
 63139  1  0  0  0  0
 63140  1  0  0  0  0
 64141  1  0  0  0  0
 65142  1  0  0  0  0
 68 77  1  0  0  0  0
 71 73  2  0  0  0  0
 71 79  1  0  0  0  0
 71143  1  0  0  0  0
 72 73  1  0  0  0  0
 72 80  2  0  0  0  0
 72144  1  0  0  0  0
 73 81  1  0  0  0  0
 74 79  2  0  0  0  0
 74 80  1  0  0  0  0
 74 82  1  0  0  0  0
 75 77  1  0  0  0  0
 75 78  1  0  0  0  0
 75145  1  0  0  0  0
 75146  1  0  0  0  0
 76 78  1  0  0  0  0
 76 81  1  0  0  0  0
 76147  1  0  0  0  0
 76148  1  0  0  0  0
 77149  1  0  0  0  0
 77150  1  0  0  0  0
 78 83  1  0  0  0  0
 78151  1  1  0  0  0
 81152  1  0  0  0  0
 82153  1  0  0  0  0
 83154  1  0  0  0  0
M  ISO  4   1 100  68 101  77 101  82 100
M  END
$$$$
12
 OpenBabel04052305473D

153161  0  0  0  0  0  0  0  0999 V2000
  -30.7652  -14.3608   20.6636 C   0  0  0  0  0  0  0  0  0  0  0  0
  -30.4392  -12.2669   19.3775 C   0  0  0  0  0  0  0  0  0  0  0  0
  -29.4791  -12.5281   18.1977 C   0  0  0  0  0  0  0  0  0  0  0  0
  -27.9985  -12.3963   18.6038 C   0  0  0  0  0  0  0  0  0  0  0  0
  -27.6639  -13.2170   19.8820 C   0  0  2  0  0  0  0  0  0  0  0  0
  -28.6795  -12.9602   21.0279 C   0  0  0  0  0  0  0  0  0  0  0  0
  -25.2633  -13.8245   20.5754 C   0  0  0  0  0  0  0  0  0  0  0  0
  -24.1645  -13.0409   20.9408 C   0  0  0  0  0  0  0  0  0  0  0  0
  -24.6400  -11.7009   20.8697 C   0  0  0  0  0  0  0  0  0  0  0  0
  -23.9005  -10.4085   21.0420 C   0  0  0  0  0  0  0  0  0  0  0  0
  -24.3588   -9.4123   21.9123 C   0  0  0  0  0  0  0  0  0  0  0  0
  -23.6296   -8.2350   22.0803 C   0  0  0  0  0  0  0  0  0  0  0  0
  -22.4385   -8.0419   21.3657 C   0  0  0  0  0  0  0  0  0  0  0  0
  -22.0103   -9.0167   20.4678 C   0  0  0  0  0  0  0  0  0  0  0  0
  -22.7317  -10.1925   20.3102 C   0  0  0  0  0  0  0  0  0  0  0  0
  -21.6857   -6.0709   22.5391 C   0  0  0  0  0  0  0  0  0  0  0  0
  -21.4064   -6.5490   23.8264 C   0  0  0  0  0  0  0  0  0  0  0  0
  -21.3635   -5.6677   24.9085 C   0  0  0  0  0  0  0  0  0  0  0  0
  -21.5973   -4.3067   24.7088 C   0  0  0  0  0  0  0  0  0  0  0  0
  -21.8700   -3.8284   23.4282 C   0  0  0  0  0  0  0  0  0  0  0  0
  -21.9144   -4.7056   22.3460 C   0  0  0  0  0  0  0  0  0  0  0  0
  -22.8194  -13.5263   21.1763 C   0  0  0  0  0  0  0  0  0  0  0  0
  -22.1559   -4.2206   21.1063 F   0  0  0  0  0  0  0  0  0  0  0  0
  -21.5628   -3.4510   25.7555 F   0  0  0  0  0  0  0  0  0  0  0  0
  -30.0261  -13.1803   20.4553 N   0  0  0  0  0  0  0  0  0  0  0  0
  -26.2911  -12.9356   20.3443 N   0  0  0  0  0  0  0  0  0  0  0  0
  -25.9236  -11.6675   20.5847 N   0  0  0  0  0  0  0  0  0  0  0  0
  -22.0708  -12.7905   22.0005 N   0  0  0  0  0  0  0  0  0  0  0  0
  -25.4117  -15.1773   20.4097 N   0  0  0  0  0  0  0  0  0  0  0  0
  -31.7916  -14.6724   20.0536 O   0  0  0  0  0  0  0  0  0  0  0  0
  -21.6670   -6.9022   21.4423 O   0  0  0  0  0  0  0  0  0  0  0  0
  -22.3946  -14.5564   20.6568 O   0  0  0  0  0  0  0  0  0  0  0  0
  -24.6048  -31.8614   23.2223 C   0  0  0  0  0  0  0  0  0  0  0  0
  -25.8822  -32.4841   23.8616 C   0  0  1  0  0  0  0  0  0  0  0  0
  -27.2536  -27.5042   20.1156 C   0  0  0  0  0  0  0  0  0  0  0  0
  -25.5726  -33.8762   24.2210 N   0  0  0  0  0  0  0  0  0  0  0  0
  -23.4066  -30.4859   21.5461 C   0  0  2  0  0  0  0  0  0  0  0  0
  -24.8467  -28.9636   20.1247 C   0  0  0  0  0  0  0  0  0  0  0  0
  -22.7412  -29.4652   22.5052 C   0  0  0  0  0  0  0  0  0  0  0  0
  -18.0167  -28.1302   22.8626 C   0  0  0  0  0  0  0  0  0  0  0  0
  -24.1342  -36.7390   23.2568 C   0  0  0  0  0  0  0  0  0  0  0  0
  -25.9141  -30.8882   21.3456 C   0  0  0  0  0  0  0  0  0  0  0  0
  -25.9930  -29.5029   20.7208 C   0  0  0  0  0  0  0  0  0  0  0  0
  -27.1758  -28.7612   20.7331 C   0  0  0  0  0  0  0  0  0  0  0  0
  -26.1032  -26.9836   19.5230 C   0  0  0  0  0  0  0  0  0  0  0  0
  -24.9097  -27.7011   19.5331 C   0  0  0  0  0  0  0  0  0  0  0  0
  -23.5715  -29.7899   20.1582 C   0  0  0  0  0  0  0  0  0  0  0  0
  -25.3990  -36.3212   24.0232 C   0  0  1  0  0  0  0  0  0  0  0  0
  -20.5793  -28.3813   23.1004 C   0  0  2  0  0  0  0  0  0  0  0  0
  -20.6548  -26.9392   22.5411 C   0  0  0  0  0  0  0  0  0  0  0  0
  -19.5615  -26.6407   21.5143 C   0  0  0  0  0  0  0  0  0  0  0  0
  -18.1797  -26.7818   22.1673 C   0  0  0  0  0  0  0  0  0  0  0  0
  -19.1385  -28.8769   23.2988 C   0  0  0  0  0  0  0  0  0  0  0  0
  -18.9183  -30.1286   23.8878 C   0  0  0  0  0  0  0  0  0  0  0  0
  -17.6396  -30.6493   24.0352 C   0  0  0  0  0  0  0  0  0  0  0  0
  -25.9153  -34.9582   23.4993 C   0  0  0  0  0  0  0  0  0  0  0  0
  -16.5415  -29.9068   23.6254 C   0  0  0  0  0  0  0  0  0  0  0  0
  -16.7331  -28.6521   23.0586 C   0  0  0  0  0  0  0  0  0  0  0  0
  -26.4583  -31.6439   25.0683 C   0  0  0  0  0  0  0  0  0  0  0  0
  -25.3807  -31.3179   26.1374 C   0  0  0  0  0  0  0  0  0  0  0  0
  -27.0530  -30.3024   24.5680 C   0  0  0  0  0  0  0  0  0  0  0  0
  -27.6014  -32.4281   25.7651 C   0  0  0  0  0  0  0  0  0  0  0  0
  -27.5629  -37.2220   24.8621 C   0  0  0  0  0  0  0  0  0  0  0  0
  -21.4133  -29.3375   22.3735 N   0  0  0  0  0  0  0  0  0  0  0  0
  -26.4706  -37.3372   23.9061 N   0  0  0  0  0  0  0  0  0  0  0  0
  -24.6674  -31.0544   22.1178 N   0  0  0  0  0  0  0  0  0  0  0  0
  -23.4259  -28.8150   23.2971 O   0  0  0  0  0  0  0  0  0  0  0  0
  -28.3948  -26.7345   20.0089 O   0  0  0  0  0  0  0  0  0  0  0  0
  -26.5870  -34.9065   22.4671 O   0  0  0  0  0  0  0  0  0  0  0  0
  -23.5365  -32.1254   23.7833 O   0  0  0  0  0  0  0  0  0  0  0  0
  -28.1700  -22.5454   16.8005 C   0  0  0  0  0  0  0  0  0  0  0  0
  -28.2611  -23.6102   15.9275 C   0  0  0  0  0  0  0  0  0  0  0  0
  -28.7799  -22.7237   18.0254 C   0  0  0  0  0  0  0  0  0  0  0  0
  -29.4503  -24.8164   17.4435 C   0  0  0  0  0  0  0  0  0  0  0  0
  -32.0994  -25.4776   19.0540 C   0  0  0  0  0  0  0  0  0  0  0  0
  -30.9508  -27.7071   19.2887 C   0  0  0  0  0  0  0  0  0  0  0  0
  -29.6317  -28.4704   19.3546 C   0  0  0  0  0  0  0  0  0  0  0  0
  -30.7591  -26.2061   19.0501 C   0  0  1  0  0  0  0  0  0  0  0  0
  -28.8959  -24.7649   16.2173 N   0  0  0  0  0  0  0  0  0  0  0  0
  -29.4314  -23.8503   18.3816 N   0  0  0  0  0  0  0  0  0  0  0  0
  -28.7121  -21.6562   18.9547 N   0  0  0  0  0  0  0  0  0  0  0  0
  -30.1108  -25.9860   17.7741 N   0  0  0  0  0  0  0  0  0  0  0  0
  -31.4485  -12.4701   19.0860 H   0  0  0  0  0  0  0  0  0  0  0  0
  -30.3970  -11.2460   19.6950 H   0  0  0  0  0  0  0  0  0  0  0  0
  -29.6870  -11.8204   17.4226 H   0  0  0  0  0  0  0  0  0  0  0  0
  -29.6375  -13.5326   17.8649 H   0  0  0  0  0  0  0  0  0  0  0  0
  -27.7830  -11.3650   18.7904 H   0  0  0  0  0  0  0  0  0  0  0  0
  -27.4028  -12.7801   17.8021 H   0  0  0  0  0  0  0  0  0  0  0  0
  -27.7353  -14.2503   19.6136 H   0  0  0  0  0  0  0  0  0  0  0  0
  -28.5890  -11.9550   21.3832 H   0  0  0  0  0  0  0  0  0  0  0  0
  -28.5005  -13.6134   21.8562 H   0  0  0  0  0  0  0  0  0  0  0  0
  -25.2399   -9.5495   22.4318 H   0  0  0  0  0  0  0  0  0  0  0  0
  -23.9663   -7.5070   22.7297 H   0  0  0  0  0  0  0  0  0  0  0  0
  -21.1515   -8.8641   19.9162 H   0  0  0  0  0  0  0  0  0  0  0  0
  -22.4016  -10.9115   19.6476 H   0  0  0  0  0  0  0  0  0  0  0  0
  -21.2319   -7.5552   23.9750 H   0  0  0  0  0  0  0  0  0  0  0  0
  -21.1589   -6.0228   25.8556 H   0  0  0  0  0  0  0  0  0  0  0  0
  -22.0396   -2.8212   23.2809 H   0  0  0  0  0  0  0  0  0  0  0  0
  -22.4401  -11.9703   22.4008 H   0  0  0  0  0  0  0  0  0  0  0  0
  -21.1493  -13.0679   22.2082 H   0  0  0  0  0  0  0  0  0  0  0  0
  -24.6538  -15.7807   20.5848 H   0  0  0  0  0  0  0  0  0  0  0  0
  -26.2762  -15.5453   20.1156 H   0  0  0  0  0  0  0  0  0  0  0  0
  -26.6778  -32.4663   23.1464 H   0  0  0  0  0  0  0  0  0  0  0  0
  -25.0747  -34.0282   25.0566 H   0  0  0  0  0  0  0  0  0  0  0  0
  -22.7881  -31.3489   21.4131 H   0  0  0  0  0  0  0  0  0  0  0  0
  -23.3854  -35.9823   23.3648 H   0  0  0  0  0  0  0  0  0  0  0  0
  -24.3696  -36.8624   22.2204 H   0  0  0  0  0  0  0  0  0  0  0  0
  -23.7669  -37.6632   23.6516 H   0  0  0  0  0  0  0  0  0  0  0  0
  -25.9445  -31.6237   20.5691 H   0  0  0  0  0  0  0  0  0  0  0  0
  -26.7436  -31.0079   22.0108 H   0  0  0  0  0  0  0  0  0  0  0  0
  -28.0090  -29.1452   21.2057 H   0  0  0  0  0  0  0  0  0  0  0  0
  -26.1369  -26.0560   19.0719 H   0  0  0  0  0  0  0  0  0  0  0  0
  -24.0652  -27.2961   19.0997 H   0  0  0  0  0  0  0  0  0  0  0  0
  -23.6156  -30.5365   19.3930 H   0  0  0  0  0  0  0  0  0  0  0  0
  -22.7355  -29.1425   19.9945 H   0  0  0  0  0  0  0  0  0  0  0  0
  -25.1353  -36.2335   25.0565 H   0  0  0  0  0  0  0  0  0  0  0  0
  -21.0070  -28.3206   24.0793 H   0  0  0  0  0  0  0  0  0  0  0  0
  -20.5555  -26.2518   23.3550 H   0  0  0  0  0  0  0  0  0  0  0  0
  -21.5974  -26.8362   22.0454 H   0  0  0  0  0  0  0  0  0  0  0  0
  -19.6810  -25.6422   21.1488 H   0  0  0  0  0  0  0  0  0  0  0  0
  -19.6406  -27.3343   20.7034 H   0  0  0  0  0  0  0  0  0  0  0  0
  -17.4282  -26.6888   21.4113 H   0  0  0  0  0  0  0  0  0  0  0  0
  -18.0803  -26.0130   22.9049 H   0  0  0  0  0  0  0  0  0  0  0  0
  -19.7265  -30.6774   24.2204 H   0  0  0  0  0  0  0  0  0  0  0  0
  -17.5064  -31.5856   24.4483 H   0  0  0  0  0  0  0  0  0  0  0  0
  -15.5878  -30.2839   23.7407 H   0  0  0  0  0  0  0  0  0  0  0  0
  -15.9120  -28.0941   22.7766 H   0  0  0  0  0  0  0  0  0  0  0  0
  -24.5787  -30.7757   25.6817 H   0  0  0  0  0  0  0  0  0  0  0  0
  -25.0041  -32.2289   26.5536 H   0  0  0  0  0  0  0  0  0  0  0  0
  -25.8166  -30.7245   26.9138 H   0  0  0  0  0  0  0  0  0  0  0  0
  -26.2892  -29.7335   24.0803 H   0  0  0  0  0  0  0  0  0  0  0  0
  -27.4336  -29.7484   25.4006 H   0  0  0  0  0  0  0  0  0  0  0  0
  -27.8466  -30.4994   23.8779 H   0  0  0  0  0  0  0  0  0  0  0  0
  -27.2251  -33.3632   26.1242 H   0  0  0  0  0  0  0  0  0  0  0  0
  -28.3902  -32.6065   25.0645 H   0  0  0  0  0  0  0  0  0  0  0  0
  -27.9772  -31.8555   26.5872 H   0  0  0  0  0  0  0  0  0  0  0  0
  -28.2744  -38.0016   24.6863 H   0  0  0  0  0  0  0  0  0  0  0  0
  -28.0396  -36.2711   24.7461 H   0  0  0  0  0  0  0  0  0  0  0  0
  -27.1773  -37.3087   25.8564 H   0  0  0  0  0  0  0  0  0  0  0  0
  -20.9627  -29.9365   21.7352 H   0  0  0  0  0  0  0  0  0  0  0  0
  -26.0447  -38.2561   24.0273 H   0  0  0  0  0  0  0  0  0  0  0  0
  -27.6778  -21.6726   16.5534 H   0  0  0  0  0  0  0  0  0  0  0  0
  -27.8183  -23.5180   14.9999 H   0  0  0  0  0  0  0  0  0  0  0  0
  -32.5875  -25.6337   19.9933 H   0  0  0  0  0  0  0  0  0  0  0  0
  -32.7142  -25.8577   18.2651 H   0  0  0  0  0  0  0  0  0  0  0  0
  -31.9366  -24.4304   18.9064 H   0  0  0  0  0  0  0  0  0  0  0  0
  -31.4701  -27.8422   20.2144 H   0  0  0  0  0  0  0  0  0  0  0  0
  -31.5059  -28.0958   18.4606 H   0  0  0  0  0  0  0  0  0  0  0  0
  -29.3302  -28.8584   18.4041 H   0  0  0  0  0  0  0  0  0  0  0  0
  -29.6046  -29.3482   19.9659 H   0  0  0  0  0  0  0  0  0  0  0  0
  -30.1501  -25.8224   19.8418 H   0  0  0  0  0  0  0  0  0  0  0  0
  -28.1705  -21.9784   19.7111 H   0  0  0  0  0  0  0  0  0  0  0  0
  -30.1418  -26.7080   17.1055 H   0  0  0  0  0  0  0  0  0  0  0  0
  1 25  1  0  0  0  0
  1 30  2  0  0  0  0
  1 81  1  0  0  0  0
  2  3  1  0  0  0  0
  2 25  1  0  0  0  0
  2 83  1  0  0  0  0
  2 84  1  0  0  0  0
  3  4  1  0  0  0  0
  3 85  1  0  0  0  0
  3 86  1  0  0  0  0
  4  5  1  0  0  0  0
  4 87  1  0  0  0  0
  4 88  1  0  0  0  0
  5  6  1  0  0  0  0
  5 26  1  0  0  0  0
  5 89  1  6  0  0  0
  6 25  1  0  0  0  0
  6 90  1  0  0  0  0
  6 91  1  0  0  0  0
  7  8  2  0  0  0  0
  7 26  1  0  0  0  0
  7 29  1  0  0  0  0
  8  9  1  0  0  0  0
  8 22  1  0  0  0  0
  9 10  1  0  0  0  0
  9 27  2  0  0  0  0
 10 11  2  0  0  0  0
 10 15  1  0  0  0  0
 11 12  1  0  0  0  0
 11 92  1  0  0  0  0
 12 13  2  0  0  0  0
 12 93  1  0  0  0  0
 13 14  1  0  0  0  0
 13 31  1  0  0  0  0
 14 15  2  0  0  0  0
 14 94  1  0  0  0  0
 15 95  1  0  0  0  0
 16 17  2  0  0  0  0
 16 21  1  0  0  0  0
 16 31  1  0  0  0  0
 17 18  1  0  0  0  0
 17 96  1  0  0  0  0
 18 19  2  0  0  0  0
 18 97  1  0  0  0  0
 19 20  1  0  0  0  0
 19 24  1  0  0  0  0
 20 21  2  0  0  0  0
 20 98  1  0  0  0  0
 21 23  1  0  0  0  0
 22 28  1  0  0  0  0
 22 32  2  0  0  0  0
 26 27  1  0  0  0  0
 28 99  1  0  0  0  0
 28100  1  0  0  0  0
 29101  1  0  0  0  0
 29102  1  0  0  0  0
 33 34  1  0  0  0  0
 33 66  1  0  0  0  0
 33 70  2  0  0  0  0
 34 36  1  0  0  0  0
 34 59  1  0  0  0  0
 34103  1  6  0  0  0
 35 44  2  0  0  0  0
 35 45  1  0  0  0  0
 35 68  1  0  0  0  0
 36 56  1  0  0  0  0
 36104  1  0  0  0  0
 37 39  1  0  0  0  0
 37 47  1  0  0  0  0
 37 66  1  0  0  0  0
 37105  1  6  0  0  0
 38 43  2  0  0  0  0
 38 46  1  0  0  0  0
 38 47  1  0  0  0  0
 39 64  1  0  0  0  0
 39 67  2  0  0  0  0
 40 52  1  0  0  0  0
 40 53  2  0  0  0  0
 40 58  1  0  0  0  0
 41106  1  0  0  0  0
 41107  1  0  0  0  0
 41108  1  0  0  0  0
 42 43  1  0  0  0  0
 42 66  1  0  0  0  0
 42109  1  0  0  0  0
 42110  1  0  0  0  0
 43 44  1  0  0  0  0
 44111  1  0  0  0  0
 45 46  2  0  0  0  0
 45112  1  0  0  0  0
 46113  1  0  0  0  0
 47114  1  0  0  0  0
 47115  1  0  0  0  0
 48 41  1  0  0  0  0
 48 56  1  0  0  0  0
 48 65  1  0  0  0  0
 48116  1  1  0  0  0
 49 50  1  0  0  0  0
 49 53  1  0  0  0  0
 49 64  1  0  0  0  0
 49117  1  1  0  0  0
 50 51  1  0  0  0  0
 50118  1  0  0  0  0
 50119  1  0  0  0  0
 51 52  1  0  0  0  0
 51120  1  0  0  0  0
 51121  1  0  0  0  0
 52122  1  0  0  0  0
 52123  1  0  0  0  0
 53 54  1  0  0  0  0
 54 55  2  0  0  0  0
 54124  1  0  0  0  0
 55 57  1  0  0  0  0
 55125  1  0  0  0  0
 56 69  2  0  0  0  0
 57 58  2  0  0  0  0
 57126  1  0  0  0  0
 58127  1  0  0  0  0
 59 60  1  0  0  0  0
 59 61  1  0  0  0  0
 59 62  1  0  0  0  0
 60128  1  0  0  0  0
 60129  1  0  0  0  0
 60130  1  0  0  0  0
 61131  1  0  0  0  0
 61132  1  0  0  0  0
 61133  1  0  0  0  0
 62134  1  0  0  0  0
 62135  1  0  0  0  0
 62136  1  0  0  0  0
 63 65  1  0  0  0  0
 63137  1  0  0  0  0
 63138  1  0  0  0  0
 63139  1  0  0  0  0
 64140  1  0  0  0  0
 65141  1  0  0  0  0
 68 77  1  0  0  0  0
 71 72  2  0  0  0  0
 71 73  1  0  0  0  0
 71142  1  0  0  0  0
 72 79  1  0  0  0  0
 72143  1  0  0  0  0
 73 80  2  0  0  0  0
 73 81  1  0  0  0  0
 74 79  2  0  0  0  0
 74 80  1  0  0  0  0
 74 82  1  0  0  0  0
 75144  1  0  0  0  0
 75145  1  0  0  0  0
 75146  1  0  0  0  0
 76 77  1  0  0  0  0
 76 78  1  0  0  0  0
 76147  1  0  0  0  0
 76148  1  0  0  0  0
 77149  1  0  0  0  0
 77150  1  0  0  0  0
 78 75  1  0  0  0  0
 78 82  1  0  0  0  0
 78151  1  1  0  0  0
 81152  1  0  0  0  0
 82153  1  0  0  0  0
M  ISO  4   1 100  68 101  77 101  81 100
M  END
$$$$
13
 OpenBabel04052305473D

147155  0  0  0  0  0  0  0  0999 V2000
  -30.7652  -14.3608   20.6636 C   0  0  0  0  0  0  0  0  0  0  0  0
  -30.4392  -12.2669   19.3775 C   0  0  0  0  0  0  0  0  0  0  0  0
  -29.4791  -12.5281   18.1977 C   0  0  0  0  0  0  0  0  0  0  0  0
  -27.9985  -12.3963   18.6038 C   0  0  0  0  0  0  0  0  0  0  0  0
  -27.6639  -13.2170   19.8820 C   0  0  2  0  0  0  0  0  0  0  0  0
  -28.6795  -12.9602   21.0279 C   0  0  0  0  0  0  0  0  0  0  0  0
  -25.2633  -13.8245   20.5754 C   0  0  0  0  0  0  0  0  0  0  0  0
  -24.1645  -13.0409   20.9408 C   0  0  0  0  0  0  0  0  0  0  0  0
  -24.6400  -11.7009   20.8697 C   0  0  0  0  0  0  0  0  0  0  0  0
  -23.9005  -10.4085   21.0420 C   0  0  0  0  0  0  0  0  0  0  0  0
  -24.3588   -9.4123   21.9123 C   0  0  0  0  0  0  0  0  0  0  0  0
  -23.6296   -8.2350   22.0803 C   0  0  0  0  0  0  0  0  0  0  0  0
  -22.4385   -8.0419   21.3657 C   0  0  0  0  0  0  0  0  0  0  0  0
  -22.0103   -9.0167   20.4678 C   0  0  0  0  0  0  0  0  0  0  0  0
  -22.7317  -10.1925   20.3102 C   0  0  0  0  0  0  0  0  0  0  0  0
  -21.6857   -6.0709   22.5391 C   0  0  0  0  0  0  0  0  0  0  0  0
  -21.4064   -6.5490   23.8264 C   0  0  0  0  0  0  0  0  0  0  0  0
  -21.3635   -5.6677   24.9085 C   0  0  0  0  0  0  0  0  0  0  0  0
  -21.5973   -4.3067   24.7088 C   0  0  0  0  0  0  0  0  0  0  0  0
  -21.8700   -3.8284   23.4282 C   0  0  0  0  0  0  0  0  0  0  0  0
  -21.9144   -4.7056   22.3460 C   0  0  0  0  0  0  0  0  0  0  0  0
  -22.8194  -13.5263   21.1763 C   0  0  0  0  0  0  0  0  0  0  0  0
  -22.1559   -4.2206   21.1063 F   0  0  0  0  0  0  0  0  0  0  0  0
  -21.5628   -3.4510   25.7555 F   0  0  0  0  0  0  0  0  0  0  0  0
  -30.0261  -13.1803   20.4553 N   0  0  0  0  0  0  0  0  0  0  0  0
  -26.2911  -12.9356   20.3443 N   0  0  0  0  0  0  0  0  0  0  0  0
  -25.9236  -11.6675   20.5847 N   0  0  0  0  0  0  0  0  0  0  0  0
  -22.0708  -12.7905   22.0005 N   0  0  0  0  0  0  0  0  0  0  0  0
  -25.4117  -15.1773   20.4097 N   0  0  0  0  0  0  0  0  0  0  0  0
  -31.7916  -14.6724   20.0536 O   0  0  0  0  0  0  0  0  0  0  0  0
  -21.6670   -6.9022   21.4423 O   0  0  0  0  0  0  0  0  0  0  0  0
  -22.3946  -14.5564   20.6568 O   0  0  0  0  0  0  0  0  0  0  0  0
  -24.6048  -31.8614   23.2223 C   0  0  0  0  0  0  0  0  0  0  0  0
  -25.8822  -32.4841   23.8616 C   0  0  1  0  0  0  0  0  0  0  0  0
  -27.2536  -27.5042   20.1156 C   0  0  0  0  0  0  0  0  0  0  0  0
  -25.5726  -33.8762   24.2210 N   0  0  0  0  0  0  0  0  0  0  0  0
  -23.4066  -30.4859   21.5461 C   0  0  2  0  0  0  0  0  0  0  0  0
  -24.8467  -28.9636   20.1247 C   0  0  0  0  0  0  0  0  0  0  0  0
  -22.7412  -29.4652   22.5052 C   0  0  0  0  0  0  0  0  0  0  0  0
  -18.0167  -28.1302   22.8626 C   0  0  0  0  0  0  0  0  0  0  0  0
  -24.1342  -36.7390   23.2568 C   0  0  0  0  0  0  0  0  0  0  0  0
  -25.9141  -30.8882   21.3456 C   0  0  0  0  0  0  0  0  0  0  0  0
  -25.9930  -29.5029   20.7208 C   0  0  0  0  0  0  0  0  0  0  0  0
  -27.1758  -28.7612   20.7331 C   0  0  0  0  0  0  0  0  0  0  0  0
  -26.1032  -26.9836   19.5230 C   0  0  0  0  0  0  0  0  0  0  0  0
  -24.9097  -27.7011   19.5331 C   0  0  0  0  0  0  0  0  0  0  0  0
  -23.5715  -29.7899   20.1582 C   0  0  0  0  0  0  0  0  0  0  0  0
  -25.3990  -36.3212   24.0232 C   0  0  1  0  0  0  0  0  0  0  0  0
  -20.5793  -28.3813   23.1004 C   0  0  2  0  0  0  0  0  0  0  0  0
  -20.6548  -26.9392   22.5411 C   0  0  0  0  0  0  0  0  0  0  0  0
  -19.5615  -26.6407   21.5143 C   0  0  0  0  0  0  0  0  0  0  0  0
  -18.1797  -26.7818   22.1673 C   0  0  0  0  0  0  0  0  0  0  0  0
  -19.1385  -28.8769   23.2988 C   0  0  0  0  0  0  0  0  0  0  0  0
  -18.9183  -30.1286   23.8878 C   0  0  0  0  0  0  0  0  0  0  0  0
  -17.6396  -30.6493   24.0352 C   0  0  0  0  0  0  0  0  0  0  0  0
  -25.9153  -34.9582   23.4993 C   0  0  0  0  0  0  0  0  0  0  0  0
  -16.5415  -29.9068   23.6254 C   0  0  0  0  0  0  0  0  0  0  0  0
  -16.7331  -28.6521   23.0586 C   0  0  0  0  0  0  0  0  0  0  0  0
  -26.4583  -31.6439   25.0683 C   0  0  0  0  0  0  0  0  0  0  0  0
  -25.3807  -31.3179   26.1374 C   0  0  0  0  0  0  0  0  0  0  0  0
  -27.0530  -30.3024   24.5680 C   0  0  0  0  0  0  0  0  0  0  0  0
  -27.6014  -32.4281   25.7651 C   0  0  0  0  0  0  0  0  0  0  0  0
  -27.5629  -37.2220   24.8621 C   0  0  0  0  0  0  0  0  0  0  0  0
  -21.4133  -29.3375   22.3735 N   0  0  0  0  0  0  0  0  0  0  0  0
  -26.4706  -37.3372   23.9061 N   0  0  0  0  0  0  0  0  0  0  0  0
  -24.6674  -31.0544   22.1178 N   0  0  0  0  0  0  0  0  0  0  0  0
  -23.4259  -28.8150   23.2971 O   0  0  0  0  0  0  0  0  0  0  0  0
  -28.3948  -26.7345   20.0089 O   0  0  0  0  0  0  0  0  0  0  0  0
  -26.5870  -34.9065   22.4671 O   0  0  0  0  0  0  0  0  0  0  0  0
  -23.5365  -32.1254   23.7833 O   0  0  0  0  0  0  0  0  0  0  0  0
  -31.3895  -19.2642   20.0365 C   0  0  0  0  0  0  0  0  0  0  0  0
  -30.1425  -19.6453   20.4859 C   0  0  0  0  0  0  0  0  0  0  0  0
  -31.0244  -17.6143   21.4346 C   0  0  0  0  0  0  0  0  0  0  0  0
  -29.5809  -21.7789   19.2749 C   0  0  0  0  0  0  0  0  0  0  0  0
  -31.2187  -16.3729   22.2154 C   0  0  0  0  0  0  0  0  0  0  0  0
  -28.4282  -22.7648   19.2346 C   0  0  0  0  0  0  0  0  0  0  0  0
  -31.8970  -18.1000   20.5797 N   0  0  0  0  0  0  0  0  0  0  0  0
  -29.3151  -20.7493   20.1713 N   0  0  0  0  0  0  0  0  0  0  0  0
  -30.4449  -15.2633   21.7048 N   0  0  0  0  0  0  0  0  0  0  0  0
  -30.5820  -21.9321   18.5829 O   0  0  0  0  0  0  0  0  0  0  0  0
  -29.5719  -18.5062   21.6340 S   0  0  0  0  0  0  0  0  0  0  0  0
  -31.4485  -12.4701   19.0860 H   0  0  0  0  0  0  0  0  0  0  0  0
  -30.3970  -11.2460   19.6950 H   0  0  0  0  0  0  0  0  0  0  0  0
  -29.6870  -11.8204   17.4226 H   0  0  0  0  0  0  0  0  0  0  0  0
  -29.6375  -13.5326   17.8649 H   0  0  0  0  0  0  0  0  0  0  0  0
  -27.7830  -11.3650   18.7904 H   0  0  0  0  0  0  0  0  0  0  0  0
  -27.4028  -12.7801   17.8021 H   0  0  0  0  0  0  0  0  0  0  0  0
  -27.7353  -14.2503   19.6136 H   0  0  0  0  0  0  0  0  0  0  0  0
  -28.5890  -11.9550   21.3832 H   0  0  0  0  0  0  0  0  0  0  0  0
  -28.5005  -13.6134   21.8562 H   0  0  0  0  0  0  0  0  0  0  0  0
  -25.2399   -9.5495   22.4318 H   0  0  0  0  0  0  0  0  0  0  0  0
  -23.9663   -7.5070   22.7297 H   0  0  0  0  0  0  0  0  0  0  0  0
  -21.1515   -8.8641   19.9162 H   0  0  0  0  0  0  0  0  0  0  0  0
  -22.4016  -10.9115   19.6476 H   0  0  0  0  0  0  0  0  0  0  0  0
  -21.2319   -7.5552   23.9750 H   0  0  0  0  0  0  0  0  0  0  0  0
  -21.1589   -6.0228   25.8556 H   0  0  0  0  0  0  0  0  0  0  0  0
  -22.0396   -2.8212   23.2809 H   0  0  0  0  0  0  0  0  0  0  0  0
  -22.4401  -11.9703   22.4008 H   0  0  0  0  0  0  0  0  0  0  0  0
  -21.1493  -13.0679   22.2082 H   0  0  0  0  0  0  0  0  0  0  0  0
  -24.6538  -15.7807   20.5848 H   0  0  0  0  0  0  0  0  0  0  0  0
  -26.2762  -15.5453   20.1156 H   0  0  0  0  0  0  0  0  0  0  0  0
  -26.6778  -32.4663   23.1464 H   0  0  0  0  0  0  0  0  0  0  0  0
  -25.0747  -34.0282   25.0566 H   0  0  0  0  0  0  0  0  0  0  0  0
  -22.7881  -31.3489   21.4131 H   0  0  0  0  0  0  0  0  0  0  0  0
  -23.3854  -35.9823   23.3648 H   0  0  0  0  0  0  0  0  0  0  0  0
  -24.3696  -36.8624   22.2204 H   0  0  0  0  0  0  0  0  0  0  0  0
  -23.7669  -37.6632   23.6516 H   0  0  0  0  0  0  0  0  0  0  0  0
  -25.9445  -31.6237   20.5691 H   0  0  0  0  0  0  0  0  0  0  0  0
  -26.7436  -31.0079   22.0108 H   0  0  0  0  0  0  0  0  0  0  0  0
  -28.0090  -29.1452   21.2057 H   0  0  0  0  0  0  0  0  0  0  0  0
  -26.1369  -26.0560   19.0719 H   0  0  0  0  0  0  0  0  0  0  0  0
  -24.0652  -27.2961   19.0997 H   0  0  0  0  0  0  0  0  0  0  0  0
  -23.6156  -30.5365   19.3930 H   0  0  0  0  0  0  0  0  0  0  0  0
  -22.7355  -29.1425   19.9945 H   0  0  0  0  0  0  0  0  0  0  0  0
  -25.1353  -36.2335   25.0565 H   0  0  0  0  0  0  0  0  0  0  0  0
  -21.0070  -28.3206   24.0793 H   0  0  0  0  0  0  0  0  0  0  0  0
  -20.5555  -26.2518   23.3550 H   0  0  0  0  0  0  0  0  0  0  0  0
  -21.5974  -26.8362   22.0454 H   0  0  0  0  0  0  0  0  0  0  0  0
  -19.6810  -25.6422   21.1488 H   0  0  0  0  0  0  0  0  0  0  0  0
  -19.6406  -27.3343   20.7034 H   0  0  0  0  0  0  0  0  0  0  0  0
  -17.4282  -26.6888   21.4113 H   0  0  0  0  0  0  0  0  0  0  0  0
  -18.0803  -26.0130   22.9049 H   0  0  0  0  0  0  0  0  0  0  0  0
  -19.7265  -30.6774   24.2204 H   0  0  0  0  0  0  0  0  0  0  0  0
  -17.5064  -31.5856   24.4483 H   0  0  0  0  0  0  0  0  0  0  0  0
  -15.5878  -30.2839   23.7407 H   0  0  0  0  0  0  0  0  0  0  0  0
  -15.9120  -28.0941   22.7766 H   0  0  0  0  0  0  0  0  0  0  0  0
  -24.5787  -30.7757   25.6817 H   0  0  0  0  0  0  0  0  0  0  0  0
  -25.0041  -32.2289   26.5536 H   0  0  0  0  0  0  0  0  0  0  0  0
  -25.8166  -30.7245   26.9138 H   0  0  0  0  0  0  0  0  0  0  0  0
  -26.2892  -29.7335   24.0803 H   0  0  0  0  0  0  0  0  0  0  0  0
  -27.4336  -29.7484   25.4006 H   0  0  0  0  0  0  0  0  0  0  0  0
  -27.8466  -30.4994   23.8779 H   0  0  0  0  0  0  0  0  0  0  0  0
  -27.2251  -33.3632   26.1242 H   0  0  0  0  0  0  0  0  0  0  0  0
  -28.3902  -32.6065   25.0645 H   0  0  0  0  0  0  0  0  0  0  0  0
  -27.9772  -31.8555   26.5872 H   0  0  0  0  0  0  0  0  0  0  0  0
  -28.2744  -38.0016   24.6863 H   0  0  0  0  0  0  0  0  0  0  0  0
  -28.0396  -36.2711   24.7461 H   0  0  0  0  0  0  0  0  0  0  0  0
  -27.1773  -37.3087   25.8564 H   0  0  0  0  0  0  0  0  0  0  0  0
  -20.9627  -29.9365   21.7352 H   0  0  0  0  0  0  0  0  0  0  0  0
  -26.0447  -38.2561   24.0273 H   0  0  0  0  0  0  0  0  0  0  0  0
  -31.9115  -19.8151   19.3372 H   0  0  0  0  0  0  0  0  0  0  0  0
  -30.9260  -16.5566   23.2281 H   0  0  0  0  0  0  0  0  0  0  0  0
  -32.2522  -16.1053   22.1434 H   0  0  0  0  0  0  0  0  0  0  0  0
  -27.7111  -22.3583   19.9168 H   0  0  0  0  0  0  0  0  0  0  0  0
  -28.3272  -22.8248   18.1711 H   0  0  0  0  0  0  0  0  0  0  0  0
  -28.4512  -20.7937   20.6414 H   0  0  0  0  0  0  0  0  0  0  0  0
  -29.5753  -15.1155   22.1420 H   0  0  0  0  0  0  0  0  0  0  0  0
  1 25  1  0  0  0  0
  1 30  2  0  0  0  0
  1 79  1  0  0  0  0
  2  3  1  0  0  0  0
  2 25  1  0  0  0  0
  2 82  1  0  0  0  0
  2 83  1  0  0  0  0
  3  4  1  0  0  0  0
  3 84  1  0  0  0  0
  3 85  1  0  0  0  0
  4  5  1  0  0  0  0
  4 86  1  0  0  0  0
  4 87  1  0  0  0  0
  5  6  1  0  0  0  0
  5 26  1  0  0  0  0
  5 88  1  6  0  0  0
  6 25  1  0  0  0  0
  6 89  1  0  0  0  0
  6 90  1  0  0  0  0
  7  8  2  0  0  0  0
  7 26  1  0  0  0  0
  7 29  1  0  0  0  0
  8  9  1  0  0  0  0
  8 22  1  0  0  0  0
  9 10  1  0  0  0  0
  9 27  2  0  0  0  0
 10 11  2  0  0  0  0
 10 15  1  0  0  0  0
 11 12  1  0  0  0  0
 11 91  1  0  0  0  0
 12 13  2  0  0  0  0
 12 92  1  0  0  0  0
 13 14  1  0  0  0  0
 13 31  1  0  0  0  0
 14 15  2  0  0  0  0
 14 93  1  0  0  0  0
 15 94  1  0  0  0  0
 16 17  2  0  0  0  0
 16 21  1  0  0  0  0
 16 31  1  0  0  0  0
 17 18  1  0  0  0  0
 17 95  1  0  0  0  0
 18 19  2  0  0  0  0
 18 96  1  0  0  0  0
 19 20  1  0  0  0  0
 19 24  1  0  0  0  0
 20 21  2  0  0  0  0
 20 97  1  0  0  0  0
 21 23  1  0  0  0  0
 22 28  1  0  0  0  0
 22 32  2  0  0  0  0
 26 27  1  0  0  0  0
 28 98  1  0  0  0  0
 28 99  1  0  0  0  0
 29100  1  0  0  0  0
 29101  1  0  0  0  0
 33 34  1  0  0  0  0
 33 66  1  0  0  0  0
 33 70  2  0  0  0  0
 34 36  1  0  0  0  0
 34 59  1  0  0  0  0
 34102  1  6  0  0  0
 35 44  2  0  0  0  0
 35 45  1  0  0  0  0
 35 68  1  0  0  0  0
 36 56  1  0  0  0  0
 36103  1  0  0  0  0
 37 39  1  0  0  0  0
 37 47  1  0  0  0  0
 37 66  1  0  0  0  0
 37104  1  6  0  0  0
 38 43  2  0  0  0  0
 38 46  1  0  0  0  0
 38 47  1  0  0  0  0
 39 64  1  0  0  0  0
 39 67  2  0  0  0  0
 40 52  1  0  0  0  0
 40 53  2  0  0  0  0
 40 58  1  0  0  0  0
 41105  1  0  0  0  0
 41106  1  0  0  0  0
 41107  1  0  0  0  0
 42 43  1  0  0  0  0
 42 66  1  0  0  0  0
 42108  1  0  0  0  0
 42109  1  0  0  0  0
 43 44  1  0  0  0  0
 44110  1  0  0  0  0
 45 46  2  0  0  0  0
 45111  1  0  0  0  0
 46112  1  0  0  0  0
 47113  1  0  0  0  0
 47114  1  0  0  0  0
 48 41  1  0  0  0  0
 48 56  1  0  0  0  0
 48 65  1  0  0  0  0
 48115  1  1  0  0  0
 49 50  1  0  0  0  0
 49 53  1  0  0  0  0
 49 64  1  0  0  0  0
 49116  1  1  0  0  0
 50 51  1  0  0  0  0
 50117  1  0  0  0  0
 50118  1  0  0  0  0
 51 52  1  0  0  0  0
 51119  1  0  0  0  0
 51120  1  0  0  0  0
 52121  1  0  0  0  0
 52122  1  0  0  0  0
 53 54  1  0  0  0  0
 54 55  2  0  0  0  0
 54123  1  0  0  0  0
 55 57  1  0  0  0  0
 55124  1  0  0  0  0
 56 69  2  0  0  0  0
 57 58  2  0  0  0  0
 57125  1  0  0  0  0
 58126  1  0  0  0  0
 59 60  1  0  0  0  0
 59 61  1  0  0  0  0
 59 62  1  0  0  0  0
 60127  1  0  0  0  0
 60128  1  0  0  0  0
 60129  1  0  0  0  0
 61130  1  0  0  0  0
 61131  1  0  0  0  0
 61132  1  0  0  0  0
 62133  1  0  0  0  0
 62134  1  0  0  0  0
 62135  1  0  0  0  0
 63 65  1  0  0  0  0
 63136  1  0  0  0  0
 63137  1  0  0  0  0
 63138  1  0  0  0  0
 64139  1  0  0  0  0
 65140  1  0  0  0  0
 68 76  1  0  0  0  0
 71 72  2  0  0  0  0
 71 77  1  0  0  0  0
 71141  1  0  0  0  0
 72 78  1  0  0  0  0
 72 81  1  0  0  0  0
 73 75  1  0  0  0  0
 73 77  2  0  0  0  0
 73 81  1  0  0  0  0
 74 76  1  0  0  0  0
 74 78  1  0  0  0  0
 74 80  2  0  0  0  0
 75 79  1  0  0  0  0
 75142  1  0  0  0  0
 75143  1  0  0  0  0
 76144  1  0  0  0  0
 76145  1  0  0  0  0
 78146  1  0  0  0  0
 79147  1  0  0  0  0
M  ISO  4   1 100  68 101  76 101  79 100
M  END
$$$$
14
 OpenBabel04052305473D

152160  0  0  0  0  0  0  0  0999 V2000
  -30.7652  -14.3608   20.6636 C   0  0  0  0  0  0  0  0  0  0  0  0
  -30.4392  -12.2669   19.3775 C   0  0  0  0  0  0  0  0  0  0  0  0
  -29.4791  -12.5281   18.1977 C   0  0  0  0  0  0  0  0  0  0  0  0
  -27.9985  -12.3963   18.6038 C   0  0  0  0  0  0  0  0  0  0  0  0
  -27.6639  -13.2170   19.8820 C   0  0  2  0  0  0  0  0  0  0  0  0
  -28.6795  -12.9602   21.0279 C   0  0  0  0  0  0  0  0  0  0  0  0
  -25.2633  -13.8245   20.5754 C   0  0  0  0  0  0  0  0  0  0  0  0
  -24.1645  -13.0409   20.9408 C   0  0  0  0  0  0  0  0  0  0  0  0
  -24.6400  -11.7009   20.8697 C   0  0  0  0  0  0  0  0  0  0  0  0
  -23.9005  -10.4085   21.0420 C   0  0  0  0  0  0  0  0  0  0  0  0
  -24.3588   -9.4123   21.9123 C   0  0  0  0  0  0  0  0  0  0  0  0
  -23.6296   -8.2350   22.0803 C   0  0  0  0  0  0  0  0  0  0  0  0
  -22.4385   -8.0419   21.3657 C   0  0  0  0  0  0  0  0  0  0  0  0
  -22.0103   -9.0167   20.4678 C   0  0  0  0  0  0  0  0  0  0  0  0
  -22.7317  -10.1925   20.3102 C   0  0  0  0  0  0  0  0  0  0  0  0
  -21.6857   -6.0709   22.5391 C   0  0  0  0  0  0  0  0  0  0  0  0
  -21.4064   -6.5490   23.8264 C   0  0  0  0  0  0  0  0  0  0  0  0
  -21.3635   -5.6677   24.9085 C   0  0  0  0  0  0  0  0  0  0  0  0
  -21.5973   -4.3067   24.7088 C   0  0  0  0  0  0  0  0  0  0  0  0
  -21.8700   -3.8284   23.4282 C   0  0  0  0  0  0  0  0  0  0  0  0
  -21.9144   -4.7056   22.3460 C   0  0  0  0  0  0  0  0  0  0  0  0
  -22.8194  -13.5263   21.1763 C   0  0  0  0  0  0  0  0  0  0  0  0
  -22.1559   -4.2206   21.1063 F   0  0  0  0  0  0  0  0  0  0  0  0
  -21.5628   -3.4510   25.7555 F   0  0  0  0  0  0  0  0  0  0  0  0
  -30.0261  -13.1803   20.4553 N   0  0  0  0  0  0  0  0  0  0  0  0
  -26.2911  -12.9356   20.3443 N   0  0  0  0  0  0  0  0  0  0  0  0
  -25.9236  -11.6675   20.5847 N   0  0  0  0  0  0  0  0  0  0  0  0
  -22.0708  -12.7905   22.0005 N   0  0  0  0  0  0  0  0  0  0  0  0
  -25.4117  -15.1773   20.4097 N   0  0  0  0  0  0  0  0  0  0  0  0
  -31.7916  -14.6724   20.0536 O   0  0  0  0  0  0  0  0  0  0  0  0
  -21.6670   -6.9022   21.4423 O   0  0  0  0  0  0  0  0  0  0  0  0
  -22.3946  -14.5564   20.6568 O   0  0  0  0  0  0  0  0  0  0  0  0
  -24.6048  -31.8614   23.2223 C   0  0  0  0  0  0  0  0  0  0  0  0
  -25.8822  -32.4841   23.8616 C   0  0  1  0  0  0  0  0  0  0  0  0
  -27.2536  -27.5042   20.1156 C   0  0  0  0  0  0  0  0  0  0  0  0
  -25.5726  -33.8762   24.2210 N   0  0  0  0  0  0  0  0  0  0  0  0
  -23.4066  -30.4859   21.5461 C   0  0  2  0  0  0  0  0  0  0  0  0
  -24.8467  -28.9636   20.1247 C   0  0  0  0  0  0  0  0  0  0  0  0
  -22.7412  -29.4652   22.5052 C   0  0  0  0  0  0  0  0  0  0  0  0
  -18.0167  -28.1302   22.8626 C   0  0  0  0  0  0  0  0  0  0  0  0
  -24.1342  -36.7390   23.2568 C   0  0  0  0  0  0  0  0  0  0  0  0
  -25.9141  -30.8882   21.3456 C   0  0  0  0  0  0  0  0  0  0  0  0
  -25.9930  -29.5029   20.7208 C   0  0  0  0  0  0  0  0  0  0  0  0
  -27.1758  -28.7612   20.7331 C   0  0  0  0  0  0  0  0  0  0  0  0
  -26.1032  -26.9836   19.5230 C   0  0  0  0  0  0  0  0  0  0  0  0
  -24.9097  -27.7011   19.5331 C   0  0  0  0  0  0  0  0  0  0  0  0
  -23.5715  -29.7899   20.1582 C   0  0  0  0  0  0  0  0  0  0  0  0
  -25.3990  -36.3212   24.0232 C   0  0  1  0  0  0  0  0  0  0  0  0
  -20.5793  -28.3813   23.1004 C   0  0  2  0  0  0  0  0  0  0  0  0
  -20.6548  -26.9392   22.5411 C   0  0  0  0  0  0  0  0  0  0  0  0
  -19.5615  -26.6407   21.5143 C   0  0  0  0  0  0  0  0  0  0  0  0
  -18.1797  -26.7818   22.1673 C   0  0  0  0  0  0  0  0  0  0  0  0
  -19.1385  -28.8769   23.2988 C   0  0  0  0  0  0  0  0  0  0  0  0
  -18.9183  -30.1286   23.8878 C   0  0  0  0  0  0  0  0  0  0  0  0
  -17.6396  -30.6493   24.0352 C   0  0  0  0  0  0  0  0  0  0  0  0
  -25.9153  -34.9582   23.4993 C   0  0  0  0  0  0  0  0  0  0  0  0
  -16.5415  -29.9068   23.6254 C   0  0  0  0  0  0  0  0  0  0  0  0
  -16.7331  -28.6521   23.0586 C   0  0  0  0  0  0  0  0  0  0  0  0
  -26.4583  -31.6439   25.0683 C   0  0  0  0  0  0  0  0  0  0  0  0
  -25.3807  -31.3179   26.1374 C   0  0  0  0  0  0  0  0  0  0  0  0
  -27.0530  -30.3024   24.5680 C   0  0  0  0  0  0  0  0  0  0  0  0
  -27.6014  -32.4281   25.7651 C   0  0  0  0  0  0  0  0  0  0  0  0
  -27.5629  -37.2220   24.8621 C   0  0  0  0  0  0  0  0  0  0  0  0
  -21.4133  -29.3375   22.3735 N   0  0  0  0  0  0  0  0  0  0  0  0
  -26.4706  -37.3372   23.9061 N   0  0  0  0  0  0  0  0  0  0  0  0
  -24.6674  -31.0544   22.1178 N   0  0  0  0  0  0  0  0  0  0  0  0
  -23.4259  -28.8150   23.2971 O   0  0  0  0  0  0  0  0  0  0  0  0
  -28.3948  -26.7345   20.0089 O   0  0  0  0  0  0  0  0  0  0  0  0
  -26.5870  -34.9065   22.4671 O   0  0  0  0  0  0  0  0  0  0  0  0
  -23.5365  -32.1254   23.7833 O   0  0  0  0  0  0  0  0  0  0  0  0
  -29.8645  -17.9981   21.1380 C   0  0  0  0  0  0  0  0  0  0  0  0
  -30.7021  -16.9416   20.8557 C   0  0  0  0  0  0  0  0  0  0  0  0
  -31.6775  -19.3701   21.3829 C   0  0  0  0  0  0  0  0  0  0  0  0
  -32.5153  -18.3135   21.1013 C   0  0  0  0  0  0  0  0  0  0  0  0
  -32.4550  -21.5810   20.5659 C   0  0  0  0  0  0  0  0  0  0  0  0
  -32.5508  -21.0350   23.0033 C   0  0  0  0  0  0  0  0  0  0  0  0
  -31.3032  -21.5026   23.7340 C   0  0  0  0  0  0  0  0  0  0  0  0
  -30.3371  -19.2313   21.4067 N   0  0  0  0  0  0  0  0  0  0  0  0
  -32.0426  -17.0804   20.8323 N   0  0  0  0  0  0  0  0  0  0  0  0
  -33.9145  -18.5142   21.0901 N   0  0  0  0  0  0  0  0  0  0  0  0
  -30.1264  -15.6758   20.5835 N   0  0  0  0  0  0  0  0  0  0  0  0
  -32.2215  -20.6324   21.6552 N   0  0  0  0  0  0  0  0  0  0  0  0
  -31.4485  -12.4701   19.0860 H   0  0  0  0  0  0  0  0  0  0  0  0
  -30.3970  -11.2460   19.6950 H   0  0  0  0  0  0  0  0  0  0  0  0
  -29.6870  -11.8204   17.4226 H   0  0  0  0  0  0  0  0  0  0  0  0
  -29.6375  -13.5326   17.8649 H   0  0  0  0  0  0  0  0  0  0  0  0
  -27.7830  -11.3650   18.7904 H   0  0  0  0  0  0  0  0  0  0  0  0
  -27.4028  -12.7801   17.8021 H   0  0  0  0  0  0  0  0  0  0  0  0
  -27.7353  -14.2503   19.6136 H   0  0  0  0  0  0  0  0  0  0  0  0
  -28.5890  -11.9550   21.3832 H   0  0  0  0  0  0  0  0  0  0  0  0
  -28.5005  -13.6134   21.8562 H   0  0  0  0  0  0  0  0  0  0  0  0
  -25.2399   -9.5495   22.4318 H   0  0  0  0  0  0  0  0  0  0  0  0
  -23.9663   -7.5070   22.7297 H   0  0  0  0  0  0  0  0  0  0  0  0
  -21.1515   -8.8641   19.9162 H   0  0  0  0  0  0  0  0  0  0  0  0
  -22.4016  -10.9115   19.6476 H   0  0  0  0  0  0  0  0  0  0  0  0
  -21.2319   -7.5552   23.9750 H   0  0  0  0  0  0  0  0  0  0  0  0
  -21.1589   -6.0228   25.8556 H   0  0  0  0  0  0  0  0  0  0  0  0
  -22.0396   -2.8212   23.2809 H   0  0  0  0  0  0  0  0  0  0  0  0
  -22.4401  -11.9703   22.4008 H   0  0  0  0  0  0  0  0  0  0  0  0
  -21.1493  -13.0679   22.2082 H   0  0  0  0  0  0  0  0  0  0  0  0
  -24.6538  -15.7807   20.5848 H   0  0  0  0  0  0  0  0  0  0  0  0
  -26.2762  -15.5453   20.1156 H   0  0  0  0  0  0  0  0  0  0  0  0
  -26.6778  -32.4663   23.1464 H   0  0  0  0  0  0  0  0  0  0  0  0
  -25.0747  -34.0282   25.0566 H   0  0  0  0  0  0  0  0  0  0  0  0
  -22.7881  -31.3489   21.4131 H   0  0  0  0  0  0  0  0  0  0  0  0
  -23.3854  -35.9823   23.3648 H   0  0  0  0  0  0  0  0  0  0  0  0
  -24.3696  -36.8624   22.2204 H   0  0  0  0  0  0  0  0  0  0  0  0
  -23.7669  -37.6632   23.6516 H   0  0  0  0  0  0  0  0  0  0  0  0
  -25.9445  -31.6237   20.5691 H   0  0  0  0  0  0  0  0  0  0  0  0
  -26.7436  -31.0079   22.0108 H   0  0  0  0  0  0  0  0  0  0  0  0
  -28.0090  -29.1452   21.2057 H   0  0  0  0  0  0  0  0  0  0  0  0
  -26.1369  -26.0560   19.0719 H   0  0  0  0  0  0  0  0  0  0  0  0
  -24.0652  -27.2961   19.0997 H   0  0  0  0  0  0  0  0  0  0  0  0
  -23.6156  -30.5365   19.3930 H   0  0  0  0  0  0  0  0  0  0  0  0
  -22.7355  -29.1425   19.9945 H   0  0  0  0  0  0  0  0  0  0  0  0
  -25.1353  -36.2335   25.0565 H   0  0  0  0  0  0  0  0  0  0  0  0
  -21.0070  -28.3206   24.0793 H   0  0  0  0  0  0  0  0  0  0  0  0
  -20.5555  -26.2518   23.3550 H   0  0  0  0  0  0  0  0  0  0  0  0
  -21.5974  -26.8362   22.0454 H   0  0  0  0  0  0  0  0  0  0  0  0
  -19.6810  -25.6422   21.1488 H   0  0  0  0  0  0  0  0  0  0  0  0
  -19.6406  -27.3343   20.7034 H   0  0  0  0  0  0  0  0  0  0  0  0
  -17.4282  -26.6888   21.4113 H   0  0  0  0  0  0  0  0  0  0  0  0
  -18.0803  -26.0130   22.9049 H   0  0  0  0  0  0  0  0  0  0  0  0
  -19.7265  -30.6774   24.2204 H   0  0  0  0  0  0  0  0  0  0  0  0
  -17.5064  -31.5856   24.4483 H   0  0  0  0  0  0  0  0  0  0  0  0
  -15.5878  -30.2839   23.7407 H   0  0  0  0  0  0  0  0  0  0  0  0
  -15.9120  -28.0941   22.7766 H   0  0  0  0  0  0  0  0  0  0  0  0
  -24.5787  -30.7757   25.6817 H   0  0  0  0  0  0  0  0  0  0  0  0
  -25.0041  -32.2289   26.5536 H   0  0  0  0  0  0  0  0  0  0  0  0
  -25.8166  -30.7245   26.9138 H   0  0  0  0  0  0  0  0  0  0  0  0
  -26.2892  -29.7335   24.0803 H   0  0  0  0  0  0  0  0  0  0  0  0
  -27.4336  -29.7484   25.4006 H   0  0  0  0  0  0  0  0  0  0  0  0
  -27.8466  -30.4994   23.8779 H   0  0  0  0  0  0  0  0  0  0  0  0
  -27.2251  -33.3632   26.1242 H   0  0  0  0  0  0  0  0  0  0  0  0
  -28.3902  -32.6065   25.0645 H   0  0  0  0  0  0  0  0  0  0  0  0
  -27.9772  -31.8555   26.5872 H   0  0  0  0  0  0  0  0  0  0  0  0
  -28.2744  -38.0016   24.6863 H   0  0  0  0  0  0  0  0  0  0  0  0
  -28.0396  -36.2711   24.7461 H   0  0  0  0  0  0  0  0  0  0  0  0
  -27.1773  -37.3087   25.8564 H   0  0  0  0  0  0  0  0  0  0  0  0
  -20.9627  -29.9365   21.7352 H   0  0  0  0  0  0  0  0  0  0  0  0
  -26.0447  -38.2561   24.0273 H   0  0  0  0  0  0  0  0  0  0  0  0
  -28.8446  -17.8406   21.1439 H   0  0  0  0  0  0  0  0  0  0  0  0
  -32.1627  -21.1368   19.6374 H   0  0  0  0  0  0  0  0  0  0  0  0
  -33.4942  -21.8332   20.5292 H   0  0  0  0  0  0  0  0  0  0  0  0
  -31.8788  -22.4667   20.7346 H   0  0  0  0  0  0  0  0  0  0  0  0
  -32.9753  -20.2036   23.5262 H   0  0  0  0  0  0  0  0  0  0  0  0
  -33.2535  -21.8409   22.9639 H   0  0  0  0  0  0  0  0  0  0  0  0
  -31.5657  -21.8552   24.7095 H   0  0  0  0  0  0  0  0  0  0  0  0
  -30.6107  -20.6935   23.8373 H   0  0  0  0  0  0  0  0  0  0  0  0
  -34.2855  -19.4054   21.2833 H   0  0  0  0  0  0  0  0  0  0  0  0
  -34.5180  -17.7628   20.8891 H   0  0  0  0  0  0  0  0  0  0  0  0
  -29.1816  -15.6812   20.3068 H   0  0  0  0  0  0  0  0  0  0  0  0
  1 25  1  0  0  0  0
  1 30  2  0  0  0  0
  1 81  1  0  0  0  0
  2  3  1  0  0  0  0
  2 25  1  0  0  0  0
  2 83  1  0  0  0  0
  2 84  1  0  0  0  0
  3  4  1  0  0  0  0
  3 85  1  0  0  0  0
  3 86  1  0  0  0  0
  4  5  1  0  0  0  0
  4 87  1  0  0  0  0
  4 88  1  0  0  0  0
  5  6  1  0  0  0  0
  5 26  1  0  0  0  0
  5 89  1  6  0  0  0
  6 25  1  0  0  0  0
  6 90  1  0  0  0  0
  6 91  1  0  0  0  0
  7  8  2  0  0  0  0
  7 26  1  0  0  0  0
  7 29  1  0  0  0  0
  8  9  1  0  0  0  0
  8 22  1  0  0  0  0
  9 10  1  0  0  0  0
  9 27  2  0  0  0  0
 10 11  2  0  0  0  0
 10 15  1  0  0  0  0
 11 12  1  0  0  0  0
 11 92  1  0  0  0  0
 12 13  2  0  0  0  0
 12 93  1  0  0  0  0
 13 14  1  0  0  0  0
 13 31  1  0  0  0  0
 14 15  2  0  0  0  0
 14 94  1  0  0  0  0
 15 95  1  0  0  0  0
 16 17  2  0  0  0  0
 16 21  1  0  0  0  0
 16 31  1  0  0  0  0
 17 18  1  0  0  0  0
 17 96  1  0  0  0  0
 18 19  2  0  0  0  0
 18 97  1  0  0  0  0
 19 20  1  0  0  0  0
 19 24  1  0  0  0  0
 20 21  2  0  0  0  0
 20 98  1  0  0  0  0
 21 23  1  0  0  0  0
 22 28  1  0  0  0  0
 22 32  2  0  0  0  0
 26 27  1  0  0  0  0
 28 99  1  0  0  0  0
 28100  1  0  0  0  0
 29101  1  0  0  0  0
 29102  1  0  0  0  0
 33 34  1  0  0  0  0
 33 66  1  0  0  0  0
 33 70  2  0  0  0  0
 34 36  1  0  0  0  0
 34 59  1  0  0  0  0
 34103  1  6  0  0  0
 35 44  2  0  0  0  0
 35 45  1  0  0  0  0
 35 68  1  0  0  0  0
 36 56  1  0  0  0  0
 36104  1  0  0  0  0
 37 39  1  0  0  0  0
 37 47  1  0  0  0  0
 37 66  1  0  0  0  0
 37105  1  6  0  0  0
 38 43  2  0  0  0  0
 38 46  1  0  0  0  0
 38 47  1  0  0  0  0
 39 64  1  0  0  0  0
 39 67  2  0  0  0  0
 40 52  1  0  0  0  0
 40 53  2  0  0  0  0
 40 58  1  0  0  0  0
 41106  1  0  0  0  0
 41107  1  0  0  0  0
 41108  1  0  0  0  0
 42 43  1  0  0  0  0
 42 66  1  0  0  0  0
 42109  1  0  0  0  0
 42110  1  0  0  0  0
 43 44  1  0  0  0  0
 44111  1  0  0  0  0
 45 46  2  0  0  0  0
 45112  1  0  0  0  0
 46113  1  0  0  0  0
 47114  1  0  0  0  0
 47115  1  0  0  0  0
 48 41  1  0  0  0  0
 48 56  1  0  0  0  0
 48 65  1  0  0  0  0
 48116  1  1  0  0  0
 49 50  1  0  0  0  0
 49 53  1  0  0  0  0
 49 64  1  0  0  0  0
 49117  1  1  0  0  0
 50 51  1  0  0  0  0
 50118  1  0  0  0  0
 50119  1  0  0  0  0
 51 52  1  0  0  0  0
 51120  1  0  0  0  0
 51121  1  0  0  0  0
 52122  1  0  0  0  0
 52123  1  0  0  0  0
 53 54  1  0  0  0  0
 54 55  2  0  0  0  0
 54124  1  0  0  0  0
 55 57  1  0  0  0  0
 55125  1  0  0  0  0
 56 69  2  0  0  0  0
 57 58  2  0  0  0  0
 57126  1  0  0  0  0
 58127  1  0  0  0  0
 59 60  1  0  0  0  0
 59 61  1  0  0  0  0
 59 62  1  0  0  0  0
 60128  1  0  0  0  0
 60129  1  0  0  0  0
 60130  1  0  0  0  0
 61131  1  0  0  0  0
 61132  1  0  0  0  0
 61133  1  0  0  0  0
 62134  1  0  0  0  0
 62135  1  0  0  0  0
 62136  1  0  0  0  0
 63 65  1  0  0  0  0
 63137  1  0  0  0  0
 63138  1  0  0  0  0
 63139  1  0  0  0  0
 64140  1  0  0  0  0
 65141  1  0  0  0  0
 68 77  1  0  0  0  0
 71 72  2  0  0  0  0
 71 78  1  0  0  0  0
 71142  1  0  0  0  0
 72 79  1  0  0  0  0
 72 81  1  0  0  0  0
 73 74  1  0  0  0  0
 73 78  2  0  0  0  0
 73 82  1  0  0  0  0
 74 79  2  0  0  0  0
 74 80  1  0  0  0  0
 75 82  1  0  0  0  0
 75143  1  0  0  0  0
 75144  1  0  0  0  0
 75145  1  0  0  0  0
 76 77  1  0  0  0  0
 76 82  1  0  0  0  0
 76146  1  0  0  0  0
 76147  1  0  0  0  0
 77148  1  0  0  0  0
 77149  1  0  0  0  0
 80150  1  0  0  0  0
 80151  1  0  0  0  0
 81152  1  0  0  0  0
M  ISO  4   1 100  68 101  77 101  81 100
M  END
$$$$
15
 OpenBabel04052305473D

156164  0  0  0  0  0  0  0  0999 V2000
  -30.7652  -14.3608   20.6636 C   0  0  0  0  0  0  0  0  0  0  0  0
  -30.4392  -12.2669   19.3775 C   0  0  0  0  0  0  0  0  0  0  0  0
  -29.4791  -12.5281   18.1977 C   0  0  0  0  0  0  0  0  0  0  0  0
  -27.9985  -12.3963   18.6038 C   0  0  0  0  0  0  0  0  0  0  0  0
  -27.6639  -13.2170   19.8820 C   0  0  2  0  0  0  0  0  0  0  0  0
  -28.6795  -12.9602   21.0279 C   0  0  0  0  0  0  0  0  0  0  0  0
  -25.2633  -13.8245   20.5754 C   0  0  0  0  0  0  0  0  0  0  0  0
  -24.1645  -13.0409   20.9408 C   0  0  0  0  0  0  0  0  0  0  0  0
  -24.6400  -11.7009   20.8697 C   0  0  0  0  0  0  0  0  0  0  0  0
  -23.9005  -10.4085   21.0420 C   0  0  0  0  0  0  0  0  0  0  0  0
  -24.3588   -9.4123   21.9123 C   0  0  0  0  0  0  0  0  0  0  0  0
  -23.6296   -8.2350   22.0803 C   0  0  0  0  0  0  0  0  0  0  0  0
  -22.4385   -8.0419   21.3657 C   0  0  0  0  0  0  0  0  0  0  0  0
  -22.0103   -9.0167   20.4678 C   0  0  0  0  0  0  0  0  0  0  0  0
  -22.7317  -10.1925   20.3102 C   0  0  0  0  0  0  0  0  0  0  0  0
  -21.6857   -6.0709   22.5391 C   0  0  0  0  0  0  0  0  0  0  0  0
  -21.4064   -6.5490   23.8264 C   0  0  0  0  0  0  0  0  0  0  0  0
  -21.3635   -5.6677   24.9085 C   0  0  0  0  0  0  0  0  0  0  0  0
  -21.5973   -4.3067   24.7088 C   0  0  0  0  0  0  0  0  0  0  0  0
  -21.8700   -3.8284   23.4282 C   0  0  0  0  0  0  0  0  0  0  0  0
  -21.9144   -4.7056   22.3460 C   0  0  0  0  0  0  0  0  0  0  0  0
  -22.8194  -13.5263   21.1763 C   0  0  0  0  0  0  0  0  0  0  0  0
  -22.1559   -4.2206   21.1063 F   0  0  0  0  0  0  0  0  0  0  0  0
  -21.5628   -3.4510   25.7555 F   0  0  0  0  0  0  0  0  0  0  0  0
  -30.0261  -13.1803   20.4553 N   0  0  0  0  0  0  0  0  0  0  0  0
  -26.2911  -12.9356   20.3443 N   0  0  0  0  0  0  0  0  0  0  0  0
  -25.9236  -11.6675   20.5847 N   0  0  0  0  0  0  0  0  0  0  0  0
  -22.0708  -12.7905   22.0005 N   0  0  0  0  0  0  0  0  0  0  0  0
  -25.4117  -15.1773   20.4097 N   0  0  0  0  0  0  0  0  0  0  0  0
  -31.7916  -14.6724   20.0536 O   0  0  0  0  0  0  0  0  0  0  0  0
  -21.6670   -6.9022   21.4423 O   0  0  0  0  0  0  0  0  0  0  0  0
  -22.3946  -14.5564   20.6568 O   0  0  0  0  0  0  0  0  0  0  0  0
  -24.6048  -31.8614   23.2223 C   0  0  0  0  0  0  0  0  0  0  0  0
  -25.8822  -32.4841   23.8616 C   0  0  1  0  0  0  0  0  0  0  0  0
  -27.2536  -27.5042   20.1156 C   0  0  0  0  0  0  0  0  0  0  0  0
  -25.5726  -33.8762   24.2210 N   0  0  0  0  0  0  0  0  0  0  0  0
  -23.4066  -30.4859   21.5461 C   0  0  2  0  0  0  0  0  0  0  0  0
  -24.8467  -28.9636   20.1247 C   0  0  0  0  0  0  0  0  0  0  0  0
  -22.7412  -29.4652   22.5052 C   0  0  0  0  0  0  0  0  0  0  0  0
  -18.0167  -28.1302   22.8626 C   0  0  0  0  0  0  0  0  0  0  0  0
  -24.1342  -36.7390   23.2568 C   0  0  0  0  0  0  0  0  0  0  0  0
  -25.9141  -30.8882   21.3456 C   0  0  0  0  0  0  0  0  0  0  0  0
  -25.9930  -29.5029   20.7208 C   0  0  0  0  0  0  0  0  0  0  0  0
  -27.1758  -28.7612   20.7331 C   0  0  0  0  0  0  0  0  0  0  0  0
  -26.1032  -26.9836   19.5230 C   0  0  0  0  0  0  0  0  0  0  0  0
  -24.9097  -27.7011   19.5331 C   0  0  0  0  0  0  0  0  0  0  0  0
  -23.5715  -29.7899   20.1582 C   0  0  0  0  0  0  0  0  0  0  0  0
  -25.3990  -36.3212   24.0232 C   0  0  1  0  0  0  0  0  0  0  0  0
  -20.5793  -28.3813   23.1004 C   0  0  2  0  0  0  0  0  0  0  0  0
  -20.6548  -26.9392   22.5411 C   0  0  0  0  0  0  0  0  0  0  0  0
  -19.5615  -26.6407   21.5143 C   0  0  0  0  0  0  0  0  0  0  0  0
  -18.1797  -26.7818   22.1673 C   0  0  0  0  0  0  0  0  0  0  0  0
  -19.1385  -28.8769   23.2988 C   0  0  0  0  0  0  0  0  0  0  0  0
  -18.9183  -30.1286   23.8878 C   0  0  0  0  0  0  0  0  0  0  0  0
  -17.6396  -30.6493   24.0352 C   0  0  0  0  0  0  0  0  0  0  0  0
  -25.9153  -34.9582   23.4993 C   0  0  0  0  0  0  0  0  0  0  0  0
  -16.5415  -29.9068   23.6254 C   0  0  0  0  0  0  0  0  0  0  0  0
  -16.7331  -28.6521   23.0586 C   0  0  0  0  0  0  0  0  0  0  0  0
  -26.4583  -31.6439   25.0683 C   0  0  0  0  0  0  0  0  0  0  0  0
  -25.3807  -31.3179   26.1374 C   0  0  0  0  0  0  0  0  0  0  0  0
  -27.0530  -30.3024   24.5680 C   0  0  0  0  0  0  0  0  0  0  0  0
  -27.6014  -32.4281   25.7651 C   0  0  0  0  0  0  0  0  0  0  0  0
  -27.5629  -37.2220   24.8621 C   0  0  0  0  0  0  0  0  0  0  0  0
  -21.4133  -29.3375   22.3735 N   0  0  0  0  0  0  0  0  0  0  0  0
  -26.4706  -37.3372   23.9061 N   0  0  0  0  0  0  0  0  0  0  0  0
  -24.6674  -31.0544   22.1178 N   0  0  0  0  0  0  0  0  0  0  0  0
  -23.4259  -28.8150   23.2971 O   0  0  0  0  0  0  0  0  0  0  0  0
  -28.3948  -26.7345   20.0089 O   0  0  0  0  0  0  0  0  0  0  0  0
  -26.5870  -34.9065   22.4671 O   0  0  0  0  0  0  0  0  0  0  0  0
  -23.5365  -32.1254   23.7833 O   0  0  0  0  0  0  0  0  0  0  0  0
  -29.7512  -17.7393   22.6512 C   0  0  0  0  0  0  0  0  0  0  0  0
  -31.3923  -19.3312   22.6965 C   0  0  0  0  0  0  0  0  0  0  0  0
  -30.5537  -16.9341   21.8733 C   0  0  0  0  0  0  0  0  0  0  0  0
  -32.1952  -18.5257   21.9192 C   0  0  0  0  0  0  0  0  0  0  0  0
  -31.8080  -20.6641   23.1773 C   0  0  0  0  0  0  0  0  0  0  0  0
  -33.8370  -23.1874   20.4494 C   0  0  0  0  0  0  0  0  0  0  0  0
  -32.5432  -22.9554   22.6243 C   0  0  0  0  0  0  0  0  0  0  0  0
  -32.7703  -23.7769   21.3619 C   0  0  2  0  0  0  0  0  0  0  0  0
  -30.1561  -18.9523   23.0767 N   0  0  0  0  0  0  0  0  0  0  0  0
  -31.7901  -17.3128   21.4934 N   0  0  0  0  0  0  0  0  0  0  0  0
  -33.4820  -18.9824   21.5553 N   0  0  0  0  0  0  0  0  0  0  0  0
  -31.8552  -20.8704   24.4934 N   0  0  0  0  0  0  0  0  0  0  0  0
  -30.0543  -15.6719   21.4669 N   0  0  0  0  0  0  0  0  0  0  0  0
  -32.1145  -21.5994   22.2708 N   0  3  0  0  0  0  0  0  0  0  0  0
  -31.4485  -12.4701   19.0860 H   0  0  0  0  0  0  0  0  0  0  0  0
  -30.3970  -11.2460   19.6950 H   0  0  0  0  0  0  0  0  0  0  0  0
  -29.6870  -11.8204   17.4226 H   0  0  0  0  0  0  0  0  0  0  0  0
  -29.6375  -13.5326   17.8649 H   0  0  0  0  0  0  0  0  0  0  0  0
  -27.7830  -11.3650   18.7904 H   0  0  0  0  0  0  0  0  0  0  0  0
  -27.4028  -12.7801   17.8021 H   0  0  0  0  0  0  0  0  0  0  0  0
  -27.7353  -14.2503   19.6136 H   0  0  0  0  0  0  0  0  0  0  0  0
  -28.5890  -11.9550   21.3832 H   0  0  0  0  0  0  0  0  0  0  0  0
  -28.5005  -13.6134   21.8562 H   0  0  0  0  0  0  0  0  0  0  0  0
  -25.2399   -9.5495   22.4318 H   0  0  0  0  0  0  0  0  0  0  0  0
  -23.9663   -7.5070   22.7297 H   0  0  0  0  0  0  0  0  0  0  0  0
  -21.1515   -8.8641   19.9162 H   0  0  0  0  0  0  0  0  0  0  0  0
  -22.4016  -10.9115   19.6476 H   0  0  0  0  0  0  0  0  0  0  0  0
  -21.2319   -7.5552   23.9750 H   0  0  0  0  0  0  0  0  0  0  0  0
  -21.1589   -6.0228   25.8556 H   0  0  0  0  0  0  0  0  0  0  0  0
  -22.0396   -2.8212   23.2809 H   0  0  0  0  0  0  0  0  0  0  0  0
  -22.4401  -11.9703   22.4008 H   0  0  0  0  0  0  0  0  0  0  0  0
  -21.1493  -13.0679   22.2082 H   0  0  0  0  0  0  0  0  0  0  0  0
  -24.6538  -15.7807   20.5848 H   0  0  0  0  0  0  0  0  0  0  0  0
  -26.2762  -15.5453   20.1156 H   0  0  0  0  0  0  0  0  0  0  0  0
  -26.6778  -32.4663   23.1464 H   0  0  0  0  0  0  0  0  0  0  0  0
  -25.0747  -34.0282   25.0566 H   0  0  0  0  0  0  0  0  0  0  0  0
  -22.7881  -31.3489   21.4131 H   0  0  0  0  0  0  0  0  0  0  0  0
  -23.3854  -35.9823   23.3648 H   0  0  0  0  0  0  0  0  0  0  0  0
  -24.3696  -36.8624   22.2204 H   0  0  0  0  0  0  0  0  0  0  0  0
  -23.7669  -37.6632   23.6516 H   0  0  0  0  0  0  0  0  0  0  0  0
  -25.9445  -31.6237   20.5691 H   0  0  0  0  0  0  0  0  0  0  0  0
  -26.7436  -31.0079   22.0108 H   0  0  0  0  0  0  0  0  0  0  0  0
  -28.0090  -29.1452   21.2057 H   0  0  0  0  0  0  0  0  0  0  0  0
  -26.1369  -26.0560   19.0719 H   0  0  0  0  0  0  0  0  0  0  0  0
  -24.0652  -27.2961   19.0997 H   0  0  0  0  0  0  0  0  0  0  0  0
  -23.6156  -30.5365   19.3930 H   0  0  0  0  0  0  0  0  0  0  0  0
  -22.7355  -29.1425   19.9945 H   0  0  0  0  0  0  0  0  0  0  0  0
  -25.1353  -36.2335   25.0565 H   0  0  0  0  0  0  0  0  0  0  0  0
  -21.0070  -28.3206   24.0793 H   0  0  0  0  0  0  0  0  0  0  0  0
  -20.5555  -26.2518   23.3550 H   0  0  0  0  0  0  0  0  0  0  0  0
  -21.5974  -26.8362   22.0454 H   0  0  0  0  0  0  0  0  0  0  0  0
  -19.6810  -25.6422   21.1488 H   0  0  0  0  0  0  0  0  0  0  0  0
  -19.6406  -27.3343   20.7034 H   0  0  0  0  0  0  0  0  0  0  0  0
  -17.4282  -26.6888   21.4113 H   0  0  0  0  0  0  0  0  0  0  0  0
  -18.0803  -26.0130   22.9049 H   0  0  0  0  0  0  0  0  0  0  0  0
  -19.7265  -30.6774   24.2204 H   0  0  0  0  0  0  0  0  0  0  0  0
  -17.5064  -31.5856   24.4483 H   0  0  0  0  0  0  0  0  0  0  0  0
  -15.5878  -30.2839   23.7407 H   0  0  0  0  0  0  0  0  0  0  0  0
  -15.9120  -28.0941   22.7766 H   0  0  0  0  0  0  0  0  0  0  0  0
  -24.5787  -30.7757   25.6817 H   0  0  0  0  0  0  0  0  0  0  0  0
  -25.0041  -32.2289   26.5536 H   0  0  0  0  0  0  0  0  0  0  0  0
  -25.8166  -30.7245   26.9138 H   0  0  0  0  0  0  0  0  0  0  0  0
  -26.2892  -29.7335   24.0803 H   0  0  0  0  0  0  0  0  0  0  0  0
  -27.4336  -29.7484   25.4006 H   0  0  0  0  0  0  0  0  0  0  0  0
  -27.8466  -30.4994   23.8779 H   0  0  0  0  0  0  0  0  0  0  0  0
  -27.2251  -33.3632   26.1242 H   0  0  0  0  0  0  0  0  0  0  0  0
  -28.3902  -32.6065   25.0645 H   0  0  0  0  0  0  0  0  0  0  0  0
  -27.9772  -31.8555   26.5872 H   0  0  0  0  0  0  0  0  0  0  0  0
  -28.2744  -38.0016   24.6863 H   0  0  0  0  0  0  0  0  0  0  0  0
  -28.0396  -36.2711   24.7461 H   0  0  0  0  0  0  0  0  0  0  0  0
  -27.1773  -37.3087   25.8564 H   0  0  0  0  0  0  0  0  0  0  0  0
  -20.9627  -29.9365   21.7352 H   0  0  0  0  0  0  0  0  0  0  0  0
  -26.0447  -38.2561   24.0273 H   0  0  0  0  0  0  0  0  0  0  0  0
  -28.8119  -17.4037   22.9161 H   0  0  0  0  0  0  0  0  0  0  0  0
  -34.5588  -22.6608   21.0382 H   0  0  0  0  0  0  0  0  0  0  0  0
  -34.3217  -23.9754   19.9118 H   0  0  0  0  0  0  0  0  0  0  0  0
  -33.3802  -22.5117   19.7569 H   0  0  0  0  0  0  0  0  0  0  0  0
  -31.7863  -23.4223   23.2193 H   0  0  0  0  0  0  0  0  0  0  0  0
  -33.4579  -22.9013   23.1768 H   0  0  0  0  0  0  0  0  0  0  0  0
  -33.3553  -24.6718   21.4055 H   0  0  0  0  0  0  0  0  0  0  0  0
  -33.7945  -19.8658   21.8574 H   0  0  0  0  0  0  0  0  0  0  0  0
  -34.0660  -18.4172   20.9997 H   0  0  0  0  0  0  0  0  0  0  0  0
  -31.6183  -20.1441   25.1143 H   0  0  0  0  0  0  0  0  0  0  0  0
  -32.1270  -21.7491   24.8445 H   0  0  0  0  0  0  0  0  0  0  0  0
  -29.1078  -15.5287   21.6966 H   0  0  0  0  0  0  0  0  0  0  0  0
  -32.0486  -21.3644   21.3170 H   0  0  0  0  0  0  0  0  0  0  0  0
  1 25  1  0  0  0  0
  1 30  2  0  0  0  0
  1 83  1  0  0  0  0
  2  3  1  0  0  0  0
  2 25  1  0  0  0  0
  2 85  1  0  0  0  0
  2 86  1  0  0  0  0
  3  4  1  0  0  0  0
  3 87  1  0  0  0  0
  3 88  1  0  0  0  0
  4  5  1  0  0  0  0
  4 89  1  0  0  0  0
  4 90  1  0  0  0  0
  5  6  1  0  0  0  0
  5 26  1  0  0  0  0
  5 91  1  6  0  0  0
  6 25  1  0  0  0  0
  6 92  1  0  0  0  0
  6 93  1  0  0  0  0
  7  8  2  0  0  0  0
  7 26  1  0  0  0  0
  7 29  1  0  0  0  0
  8  9  1  0  0  0  0
  8 22  1  0  0  0  0
  9 10  1  0  0  0  0
  9 27  2  0  0  0  0
 10 11  2  0  0  0  0
 10 15  1  0  0  0  0
 11 12  1  0  0  0  0
 11 94  1  0  0  0  0
 12 13  2  0  0  0  0
 12 95  1  0  0  0  0
 13 14  1  0  0  0  0
 13 31  1  0  0  0  0
 14 15  2  0  0  0  0
 14 96  1  0  0  0  0
 15 97  1  0  0  0  0
 16 17  2  0  0  0  0
 16 21  1  0  0  0  0
 16 31  1  0  0  0  0
 17 18  1  0  0  0  0
 17 98  1  0  0  0  0
 18 19  2  0  0  0  0
 18 99  1  0  0  0  0
 19 20  1  0  0  0  0
 19 24  1  0  0  0  0
 20 21  2  0  0  0  0
 20100  1  0  0  0  0
 21 23  1  0  0  0  0
 22 28  1  0  0  0  0
 22 32  2  0  0  0  0
 26 27  1  0  0  0  0
 28101  1  0  0  0  0
 28102  1  0  0  0  0
 29103  1  0  0  0  0
 29104  1  0  0  0  0
 33 34  1  0  0  0  0
 33 66  1  0  0  0  0
 33 70  2  0  0  0  0
 34 36  1  0  0  0  0
 34 59  1  0  0  0  0
 34105  1  6  0  0  0
 35 44  2  0  0  0  0
 35 45  1  0  0  0  0
 35 68  1  0  0  0  0
 36 56  1  0  0  0  0
 36106  1  0  0  0  0
 37 39  1  0  0  0  0
 37 47  1  0  0  0  0
 37 66  1  0  0  0  0
 37107  1  6  0  0  0
 38 43  2  0  0  0  0
 38 46  1  0  0  0  0
 38 47  1  0  0  0  0
 39 64  1  0  0  0  0
 39 67  2  0  0  0  0
 40 52  1  0  0  0  0
 40 53  2  0  0  0  0
 40 58  1  0  0  0  0
 41108  1  0  0  0  0
 41109  1  0  0  0  0
 41110  1  0  0  0  0
 42 43  1  0  0  0  0
 42 66  1  0  0  0  0
 42111  1  0  0  0  0
 42112  1  0  0  0  0
 43 44  1  0  0  0  0
 44113  1  0  0  0  0
 45 46  2  0  0  0  0
 45114  1  0  0  0  0
 46115  1  0  0  0  0
 47116  1  0  0  0  0
 47117  1  0  0  0  0
 48 41  1  0  0  0  0
 48 56  1  0  0  0  0
 48 65  1  0  0  0  0
 48118  1  1  0  0  0
 49 50  1  0  0  0  0
 49 53  1  0  0  0  0
 49 64  1  0  0  0  0
 49119  1  1  0  0  0
 50 51  1  0  0  0  0
 50120  1  0  0  0  0
 50121  1  0  0  0  0
 51 52  1  0  0  0  0
 51122  1  0  0  0  0
 51123  1  0  0  0  0
 52124  1  0  0  0  0
 52125  1  0  0  0  0
 53 54  1  0  0  0  0
 54 55  2  0  0  0  0
 54126  1  0  0  0  0
 55 57  1  0  0  0  0
 55127  1  0  0  0  0
 56 69  2  0  0  0  0
 57 58  2  0  0  0  0
 57128  1  0  0  0  0
 58129  1  0  0  0  0
 59 60  1  0  0  0  0
 59 61  1  0  0  0  0
 59 62  1  0  0  0  0
 60130  1  0  0  0  0
 60131  1  0  0  0  0
 60132  1  0  0  0  0
 61133  1  0  0  0  0
 61134  1  0  0  0  0
 61135  1  0  0  0  0
 62136  1  0  0  0  0
 62137  1  0  0  0  0
 62138  1  0  0  0  0
 63 65  1  0  0  0  0
 63139  1  0  0  0  0
 63140  1  0  0  0  0
 63141  1  0  0  0  0
 64142  1  0  0  0  0
 65143  1  0  0  0  0
 68 78  1  0  0  0  0
 71 73  2  0  0  0  0
 71 79  1  0  0  0  0
 71144  1  0  0  0  0
 72 74  1  0  0  0  0
 72 75  1  0  0  0  0
 72 79  2  0  0  0  0
 73 80  1  0  0  0  0
 73 83  1  0  0  0  0
 74 80  2  0  0  0  0
 74 81  1  0  0  0  0
 75 82  1  0  0  0  0
 75 84  2  0  0  0  0
 76145  1  0  0  0  0
 76146  1  0  0  0  0
 76147  1  0  0  0  0
 77 78  1  0  0  0  0
 77 84  1  0  0  0  0
 77148  1  0  0  0  0
 77149  1  0  0  0  0
 78 76  1  0  0  0  0
 78150  1  1  0  0  0
 81151  1  0  0  0  0
 81152  1  0  0  0  0
 82153  1  0  0  0  0
 82154  1  0  0  0  0
 83155  1  0  0  0  0
 84156  1  0  0  0  0
M  ISO  4   1 100  68 101  78 101  83 100
M  CHG  1  84   1
M  END
$$$$
16
 OpenBabel04052305473D

151159  0  0  0  0  0  0  0  0999 V2000
  -30.7652  -14.3608   20.6636 C   0  0  0  0  0  0  0  0  0  0  0  0
  -30.4392  -12.2669   19.3775 C   0  0  0  0  0  0  0  0  0  0  0  0
  -29.4791  -12.5281   18.1977 C   0  0  0  0  0  0  0  0  0  0  0  0
  -27.9985  -12.3963   18.6038 C   0  0  0  0  0  0  0  0  0  0  0  0
  -27.6639  -13.2170   19.8820 C   0  0  2  0  0  0  0  0  0  0  0  0
  -28.6795  -12.9602   21.0279 C   0  0  0  0  0  0  0  0  0  0  0  0
  -25.2633  -13.8245   20.5754 C   0  0  0  0  0  0  0  0  0  0  0  0
  -24.1645  -13.0409   20.9408 C   0  0  0  0  0  0  0  0  0  0  0  0
  -24.6400  -11.7009   20.8697 C   0  0  0  0  0  0  0  0  0  0  0  0
  -23.9005  -10.4085   21.0420 C   0  0  0  0  0  0  0  0  0  0  0  0
  -24.3588   -9.4123   21.9123 C   0  0  0  0  0  0  0  0  0  0  0  0
  -23.6296   -8.2350   22.0803 C   0  0  0  0  0  0  0  0  0  0  0  0
  -22.4385   -8.0419   21.3657 C   0  0  0  0  0  0  0  0  0  0  0  0
  -22.0103   -9.0167   20.4678 C   0  0  0  0  0  0  0  0  0  0  0  0
  -22.7317  -10.1925   20.3102 C   0  0  0  0  0  0  0  0  0  0  0  0
  -21.6857   -6.0709   22.5391 C   0  0  0  0  0  0  0  0  0  0  0  0
  -21.4064   -6.5490   23.8264 C   0  0  0  0  0  0  0  0  0  0  0  0
  -21.3635   -5.6677   24.9085 C   0  0  0  0  0  0  0  0  0  0  0  0
  -21.5973   -4.3067   24.7088 C   0  0  0  0  0  0  0  0  0  0  0  0
  -21.8700   -3.8284   23.4282 C   0  0  0  0  0  0  0  0  0  0  0  0
  -21.9144   -4.7056   22.3460 C   0  0  0  0  0  0  0  0  0  0  0  0
  -22.8194  -13.5263   21.1763 C   0  0  0  0  0  0  0  0  0  0  0  0
  -22.1559   -4.2206   21.1063 F   0  0  0  0  0  0  0  0  0  0  0  0
  -21.5628   -3.4510   25.7555 F   0  0  0  0  0  0  0  0  0  0  0  0
  -30.0261  -13.1803   20.4553 N   0  0  0  0  0  0  0  0  0  0  0  0
  -26.2911  -12.9356   20.3443 N   0  0  0  0  0  0  0  0  0  0  0  0
  -25.9236  -11.6675   20.5847 N   0  0  0  0  0  0  0  0  0  0  0  0
  -22.0708  -12.7905   22.0005 N   0  0  0  0  0  0  0  0  0  0  0  0
  -25.4117  -15.1773   20.4097 N   0  0  0  0  0  0  0  0  0  0  0  0
  -31.7916  -14.6724   20.0536 O   0  0  0  0  0  0  0  0  0  0  0  0
  -21.6670   -6.9022   21.4423 O   0  0  0  0  0  0  0  0  0  0  0  0
  -22.3946  -14.5564   20.6568 O   0  0  0  0  0  0  0  0  0  0  0  0
  -24.6048  -31.8614   23.2223 C   0  0  0  0  0  0  0  0  0  0  0  0
  -25.8822  -32.4841   23.8616 C   0  0  1  0  0  0  0  0  0  0  0  0
  -27.2536  -27.5042   20.1156 C   0  0  0  0  0  0  0  0  0  0  0  0
  -25.5726  -33.8762   24.2210 N   0  0  0  0  0  0  0  0  0  0  0  0
  -23.4066  -30.4859   21.5461 C   0  0  2  0  0  0  0  0  0  0  0  0
  -24.8467  -28.9636   20.1247 C   0  0  0  0  0  0  0  0  0  0  0  0
  -22.7412  -29.4652   22.5052 C   0  0  0  0  0  0  0  0  0  0  0  0
  -18.0167  -28.1302   22.8626 C   0  0  0  0  0  0  0  0  0  0  0  0
  -24.1342  -36.7390   23.2568 C   0  0  0  0  0  0  0  0  0  0  0  0
  -25.9141  -30.8882   21.3456 C   0  0  0  0  0  0  0  0  0  0  0  0
  -25.9930  -29.5029   20.7208 C   0  0  0  0  0  0  0  0  0  0  0  0
  -27.1758  -28.7612   20.7331 C   0  0  0  0  0  0  0  0  0  0  0  0
  -26.1032  -26.9836   19.5230 C   0  0  0  0  0  0  0  0  0  0  0  0
  -24.9097  -27.7011   19.5331 C   0  0  0  0  0  0  0  0  0  0  0  0
  -23.5715  -29.7899   20.1582 C   0  0  0  0  0  0  0  0  0  0  0  0
  -25.3990  -36.3212   24.0232 C   0  0  1  0  0  0  0  0  0  0  0  0
  -20.5793  -28.3813   23.1004 C   0  0  2  0  0  0  0  0  0  0  0  0
  -20.6548  -26.9392   22.5411 C   0  0  0  0  0  0  0  0  0  0  0  0
  -19.5615  -26.6407   21.5143 C   0  0  0  0  0  0  0  0  0  0  0  0
  -18.1797  -26.7818   22.1673 C   0  0  0  0  0  0  0  0  0  0  0  0
  -19.1385  -28.8769   23.2988 C   0  0  0  0  0  0  0  0  0  0  0  0
  -18.9183  -30.1286   23.8878 C   0  0  0  0  0  0  0  0  0  0  0  0
  -17.6396  -30.6493   24.0352 C   0  0  0  0  0  0  0  0  0  0  0  0
  -25.9153  -34.9582   23.4993 C   0  0  0  0  0  0  0  0  0  0  0  0
  -16.5415  -29.9068   23.6254 C   0  0  0  0  0  0  0  0  0  0  0  0
  -16.7331  -28.6521   23.0586 C   0  0  0  0  0  0  0  0  0  0  0  0
  -26.4583  -31.6439   25.0683 C   0  0  0  0  0  0  0  0  0  0  0  0
  -25.3807  -31.3179   26.1374 C   0  0  0  0  0  0  0  0  0  0  0  0
  -27.0530  -30.3024   24.5680 C   0  0  0  0  0  0  0  0  0  0  0  0
  -27.6014  -32.4281   25.7651 C   0  0  0  0  0  0  0  0  0  0  0  0
  -27.5629  -37.2220   24.8621 C   0  0  0  0  0  0  0  0  0  0  0  0
  -21.4133  -29.3375   22.3735 N   0  0  0  0  0  0  0  0  0  0  0  0
  -26.4706  -37.3372   23.9061 N   0  0  0  0  0  0  0  0  0  0  0  0
  -24.6674  -31.0544   22.1178 N   0  0  0  0  0  0  0  0  0  0  0  0
  -23.4259  -28.8150   23.2971 O   0  0  0  0  0  0  0  0  0  0  0  0
  -28.3948  -26.7345   20.0089 O   0  0  0  0  0  0  0  0  0  0  0  0
  -26.5870  -34.9065   22.4671 O   0  0  0  0  0  0  0  0  0  0  0  0
  -23.5365  -32.1254   23.7833 O   0  0  0  0  0  0  0  0  0  0  0  0
  -28.5692  -19.1783   20.2190 C   0  0  0  0  0  0  0  0  0  0  0  0
  -29.5564  -18.3095   19.8090 C   0  0  0  0  0  0  0  0  0  0  0  0
  -29.8054  -20.9439   19.4551 C   0  0  0  0  0  0  0  0  0  0  0  0
  -30.7931  -20.0753   19.0457 C   0  0  0  0  0  0  0  0  0  0  0  0
  -29.0259  -23.3076   19.6302 C   0  0  0  0  0  0  0  0  0  0  0  0
  -28.5301  -25.7764   19.6254 C   0  0  0  0  0  0  0  0  0  0  0  0
  -29.5277  -24.6934   19.2290 C   0  0  1  0  0  0  0  0  0  0  0  0
  -28.6759  -20.5111   20.0494 N   0  0  0  0  0  0  0  0  0  0  0  0
  -30.6861  -18.7425   19.2150 N   0  0  0  0  0  0  0  0  0  0  0  0
  -29.3690  -16.9219   20.0260 N   0  0  0  0  0  0  0  0  0  0  0  0
  -29.9887  -22.3002   19.2452 N   0  0  0  0  0  0  0  0  0  0  0  0
  -30.7545  -24.9616   19.9110 O   0  0  0  0  0  0  0  0  0  0  0  0
  -31.9041  -20.5442   18.4575 F   0  0  0  0  0  0  0  0  0  0  0  0
  -31.4485  -12.4701   19.0860 H   0  0  0  0  0  0  0  0  0  0  0  0
  -30.3970  -11.2460   19.6950 H   0  0  0  0  0  0  0  0  0  0  0  0
  -29.6870  -11.8204   17.4226 H   0  0  0  0  0  0  0  0  0  0  0  0
  -29.6375  -13.5326   17.8649 H   0  0  0  0  0  0  0  0  0  0  0  0
  -27.7830  -11.3650   18.7904 H   0  0  0  0  0  0  0  0  0  0  0  0
  -27.4028  -12.7801   17.8021 H   0  0  0  0  0  0  0  0  0  0  0  0
  -27.7353  -14.2503   19.6136 H   0  0  0  0  0  0  0  0  0  0  0  0
  -28.5890  -11.9550   21.3832 H   0  0  0  0  0  0  0  0  0  0  0  0
  -28.5005  -13.6134   21.8562 H   0  0  0  0  0  0  0  0  0  0  0  0
  -25.2399   -9.5495   22.4318 H   0  0  0  0  0  0  0  0  0  0  0  0
  -23.9663   -7.5070   22.7297 H   0  0  0  0  0  0  0  0  0  0  0  0
  -21.1515   -8.8641   19.9162 H   0  0  0  0  0  0  0  0  0  0  0  0
  -22.4016  -10.9115   19.6476 H   0  0  0  0  0  0  0  0  0  0  0  0
  -21.2319   -7.5552   23.9750 H   0  0  0  0  0  0  0  0  0  0  0  0
  -21.1589   -6.0228   25.8556 H   0  0  0  0  0  0  0  0  0  0  0  0
  -22.0396   -2.8212   23.2809 H   0  0  0  0  0  0  0  0  0  0  0  0
  -22.4401  -11.9703   22.4008 H   0  0  0  0  0  0  0  0  0  0  0  0
  -21.1493  -13.0679   22.2082 H   0  0  0  0  0  0  0  0  0  0  0  0
  -24.6538  -15.7807   20.5848 H   0  0  0  0  0  0  0  0  0  0  0  0
  -26.2762  -15.5453   20.1156 H   0  0  0  0  0  0  0  0  0  0  0  0
  -26.6778  -32.4663   23.1464 H   0  0  0  0  0  0  0  0  0  0  0  0
  -25.0747  -34.0282   25.0566 H   0  0  0  0  0  0  0  0  0  0  0  0
  -22.7881  -31.3489   21.4131 H   0  0  0  0  0  0  0  0  0  0  0  0
  -23.3854  -35.9823   23.3648 H   0  0  0  0  0  0  0  0  0  0  0  0
  -24.3696  -36.8624   22.2204 H   0  0  0  0  0  0  0  0  0  0  0  0
  -23.7669  -37.6632   23.6516 H   0  0  0  0  0  0  0  0  0  0  0  0
  -25.9445  -31.6237   20.5691 H   0  0  0  0  0  0  0  0  0  0  0  0
  -26.7436  -31.0079   22.0108 H   0  0  0  0  0  0  0  0  0  0  0  0
  -28.0090  -29.1452   21.2057 H   0  0  0  0  0  0  0  0  0  0  0  0
  -26.1369  -26.0560   19.0719 H   0  0  0  0  0  0  0  0  0  0  0  0
  -24.0652  -27.2961   19.0997 H   0  0  0  0  0  0  0  0  0  0  0  0
  -23.6156  -30.5365   19.3930 H   0  0  0  0  0  0  0  0  0  0  0  0
  -22.7355  -29.1425   19.9945 H   0  0  0  0  0  0  0  0  0  0  0  0
  -25.1353  -36.2335   25.0565 H   0  0  0  0  0  0  0  0  0  0  0  0
  -21.0070  -28.3206   24.0793 H   0  0  0  0  0  0  0  0  0  0  0  0
  -20.5555  -26.2518   23.3550 H   0  0  0  0  0  0  0  0  0  0  0  0
  -21.5974  -26.8362   22.0454 H   0  0  0  0  0  0  0  0  0  0  0  0
  -19.6810  -25.6422   21.1488 H   0  0  0  0  0  0  0  0  0  0  0  0
  -19.6406  -27.3343   20.7034 H   0  0  0  0  0  0  0  0  0  0  0  0
  -17.4282  -26.6888   21.4113 H   0  0  0  0  0  0  0  0  0  0  0  0
  -18.0803  -26.0130   22.9049 H   0  0  0  0  0  0  0  0  0  0  0  0
  -19.7265  -30.6774   24.2204 H   0  0  0  0  0  0  0  0  0  0  0  0
  -17.5064  -31.5856   24.4483 H   0  0  0  0  0  0  0  0  0  0  0  0
  -15.5878  -30.2839   23.7407 H   0  0  0  0  0  0  0  0  0  0  0  0
  -15.9120  -28.0941   22.7766 H   0  0  0  0  0  0  0  0  0  0  0  0
  -24.5787  -30.7757   25.6817 H   0  0  0  0  0  0  0  0  0  0  0  0
  -25.0041  -32.2289   26.5536 H   0  0  0  0  0  0  0  0  0  0  0  0
  -25.8166  -30.7245   26.9138 H   0  0  0  0  0  0  0  0  0  0  0  0
  -26.2892  -29.7335   24.0803 H   0  0  0  0  0  0  0  0  0  0  0  0
  -27.4336  -29.7484   25.4006 H   0  0  0  0  0  0  0  0  0  0  0  0
  -27.8466  -30.4994   23.8779 H   0  0  0  0  0  0  0  0  0  0  0  0
  -27.2251  -33.3632   26.1242 H   0  0  0  0  0  0  0  0  0  0  0  0
  -28.3902  -32.6065   25.0645 H   0  0  0  0  0  0  0  0  0  0  0  0
  -27.9772  -31.8555   26.5872 H   0  0  0  0  0  0  0  0  0  0  0  0
  -28.2744  -38.0016   24.6863 H   0  0  0  0  0  0  0  0  0  0  0  0
  -28.0396  -36.2711   24.7461 H   0  0  0  0  0  0  0  0  0  0  0  0
  -27.1773  -37.3087   25.8564 H   0  0  0  0  0  0  0  0  0  0  0  0
  -20.9627  -29.9365   21.7352 H   0  0  0  0  0  0  0  0  0  0  0  0
  -26.0447  -38.2561   24.0273 H   0  0  0  0  0  0  0  0  0  0  0  0
  -27.7225  -18.7972   20.6695 H   0  0  0  0  0  0  0  0  0  0  0  0
  -28.0948  -23.1128   19.1404 H   0  0  0  0  0  0  0  0  0  0  0  0
  -28.8923  -23.2771   20.6914 H   0  0  0  0  0  0  0  0  0  0  0  0
  -27.9315  -25.2218   20.3175 H   0  0  0  0  0  0  0  0  0  0  0  0
  -28.5762  -26.1800   18.6355 H   0  0  0  0  0  0  0  0  0  0  0  0
  -29.6596  -24.7033   18.1672 H   0  0  0  0  0  0  0  0  0  0  0  0
  -28.4088  -16.7273   19.9293 H   0  0  0  0  0  0  0  0  0  0  0  0
  -30.8209  -22.5949   18.8096 H   0  0  0  0  0  0  0  0  0  0  0  0
  -30.6021  -24.9457   20.8688 H   0  0  0  0  0  0  0  0  0  0  0  0
  1 25  1  0  0  0  0
  1 30  2  0  0  0  0
  1 80  1  0  0  0  0
  2  3  1  0  0  0  0
  2 25  1  0  0  0  0
  2 84  1  0  0  0  0
  2 85  1  0  0  0  0
  3  4  1  0  0  0  0
  3 86  1  0  0  0  0
  3 87  1  0  0  0  0
  4  5  1  0  0  0  0
  4 88  1  0  0  0  0
  4 89  1  0  0  0  0
  5  6  1  0  0  0  0
  5 26  1  0  0  0  0
  5 90  1  6  0  0  0
  6 25  1  0  0  0  0
  6 91  1  0  0  0  0
  6 92  1  0  0  0  0
  7  8  2  0  0  0  0
  7 26  1  0  0  0  0
  7 29  1  0  0  0  0
  8  9  1  0  0  0  0
  8 22  1  0  0  0  0
  9 10  1  0  0  0  0
  9 27  2  0  0  0  0
 10 11  2  0  0  0  0
 10 15  1  0  0  0  0
 11 12  1  0  0  0  0
 11 93  1  0  0  0  0
 12 13  2  0  0  0  0
 12 94  1  0  0  0  0
 13 14  1  0  0  0  0
 13 31  1  0  0  0  0
 14 15  2  0  0  0  0
 14 95  1  0  0  0  0
 15 96  1  0  0  0  0
 16 17  2  0  0  0  0
 16 21  1  0  0  0  0
 16 31  1  0  0  0  0
 17 18  1  0  0  0  0
 17 97  1  0  0  0  0
 18 19  2  0  0  0  0
 18 98  1  0  0  0  0
 19 20  1  0  0  0  0
 19 24  1  0  0  0  0
 20 21  2  0  0  0  0
 20 99  1  0  0  0  0
 21 23  1  0  0  0  0
 22 28  1  0  0  0  0
 22 32  2  0  0  0  0
 26 27  1  0  0  0  0
 28100  1  0  0  0  0
 28101  1  0  0  0  0
 29102  1  0  0  0  0
 29103  1  0  0  0  0
 33 34  1  0  0  0  0
 33 66  1  0  0  0  0
 33 70  2  0  0  0  0
 34 36  1  0  0  0  0
 34 59  1  0  0  0  0
 34104  1  6  0  0  0
 35 44  2  0  0  0  0
 35 45  1  0  0  0  0
 35 68  1  0  0  0  0
 36 56  1  0  0  0  0
 36105  1  0  0  0  0
 37 39  1  0  0  0  0
 37 47  1  0  0  0  0
 37 66  1  0  0  0  0
 37106  1  6  0  0  0
 38 43  2  0  0  0  0
 38 46  1  0  0  0  0
 38 47  1  0  0  0  0
 39 64  1  0  0  0  0
 39 67  2  0  0  0  0
 40 52  1  0  0  0  0
 40 53  2  0  0  0  0
 40 58  1  0  0  0  0
 41107  1  0  0  0  0
 41108  1  0  0  0  0
 41109  1  0  0  0  0
 42 43  1  0  0  0  0
 42 66  1  0  0  0  0
 42110  1  0  0  0  0
 42111  1  0  0  0  0
 43 44  1  0  0  0  0
 44112  1  0  0  0  0
 45 46  2  0  0  0  0
 45113  1  0  0  0  0
 46114  1  0  0  0  0
 47115  1  0  0  0  0
 47116  1  0  0  0  0
 48 41  1  0  0  0  0
 48 56  1  0  0  0  0
 48 65  1  0  0  0  0
 48117  1  1  0  0  0
 49 50  1  0  0  0  0
 49 53  1  0  0  0  0
 49 64  1  0  0  0  0
 49118  1  1  0  0  0
 50 51  1  0  0  0  0
 50119  1  0  0  0  0
 50120  1  0  0  0  0
 51 52  1  0  0  0  0
 51121  1  0  0  0  0
 51122  1  0  0  0  0
 52123  1  0  0  0  0
 52124  1  0  0  0  0
 53 54  1  0  0  0  0
 54 55  2  0  0  0  0
 54125  1  0  0  0  0
 55 57  1  0  0  0  0
 55126  1  0  0  0  0
 56 69  2  0  0  0  0
 57 58  2  0  0  0  0
 57127  1  0  0  0  0
 58128  1  0  0  0  0
 59 60  1  0  0  0  0
 59 61  1  0  0  0  0
 59 62  1  0  0  0  0
 60129  1  0  0  0  0
 60130  1  0  0  0  0
 60131  1  0  0  0  0
 61132  1  0  0  0  0
 61133  1  0  0  0  0
 61134  1  0  0  0  0
 62135  1  0  0  0  0
 62136  1  0  0  0  0
 62137  1  0  0  0  0
 63 65  1  0  0  0  0
 63138  1  0  0  0  0
 63139  1  0  0  0  0
 63140  1  0  0  0  0
 64141  1  0  0  0  0
 65142  1  0  0  0  0
 68 76  1  0  0  0  0
 71 72  2  0  0  0  0
 71 78  1  0  0  0  0
 71143  1  0  0  0  0
 72 79  1  0  0  0  0
 72 80  1  0  0  0  0
 73 74  1  0  0  0  0
 73 78  2  0  0  0  0
 73 81  1  0  0  0  0
 74 79  2  0  0  0  0
 74 83  1  0  0  0  0
 75 77  1  0  0  0  0
 75 81  1  0  0  0  0
 75144  1  0  0  0  0
 75145  1  0  0  0  0
 76 77  1  0  0  0  0
 76146  1  0  0  0  0
 76147  1  0  0  0  0
 77 82  1  0  0  0  0
 77148  1  6  0  0  0
 80149  1  0  0  0  0
 81150  1  0  0  0  0
 82151  1  0  0  0  0
M  ISO  4   1 100  68 101  76 101  80 100
M  END
$$$$
17
 OpenBabel04052305473D

150158  0  0  0  0  0  0  0  0999 V2000
  -30.7652  -14.3608   20.6636 C   0  0  0  0  0  0  0  0  0  0  0  0
  -30.4392  -12.2669   19.3775 C   0  0  0  0  0  0  0  0  0  0  0  0
  -29.4791  -12.5281   18.1977 C   0  0  0  0  0  0  0  0  0  0  0  0
  -27.9985  -12.3963   18.6038 C   0  0  0  0  0  0  0  0  0  0  0  0
  -27.6639  -13.2170   19.8820 C   0  0  2  0  0  0  0  0  0  0  0  0
  -28.6795  -12.9602   21.0279 C   0  0  0  0  0  0  0  0  0  0  0  0
  -25.2633  -13.8245   20.5754 C   0  0  0  0  0  0  0  0  0  0  0  0
  -24.1645  -13.0409   20.9408 C   0  0  0  0  0  0  0  0  0  0  0  0
  -24.6400  -11.7009   20.8697 C   0  0  0  0  0  0  0  0  0  0  0  0
  -23.9005  -10.4085   21.0420 C   0  0  0  0  0  0  0  0  0  0  0  0
  -24.3588   -9.4123   21.9123 C   0  0  0  0  0  0  0  0  0  0  0  0
  -23.6296   -8.2350   22.0803 C   0  0  0  0  0  0  0  0  0  0  0  0
  -22.4385   -8.0419   21.3657 C   0  0  0  0  0  0  0  0  0  0  0  0
  -22.0103   -9.0167   20.4678 C   0  0  0  0  0  0  0  0  0  0  0  0
  -22.7317  -10.1925   20.3102 C   0  0  0  0  0  0  0  0  0  0  0  0
  -21.6857   -6.0709   22.5391 C   0  0  0  0  0  0  0  0  0  0  0  0
  -21.4064   -6.5490   23.8264 C   0  0  0  0  0  0  0  0  0  0  0  0
  -21.3635   -5.6677   24.9085 C   0  0  0  0  0  0  0  0  0  0  0  0
  -21.5973   -4.3067   24.7088 C   0  0  0  0  0  0  0  0  0  0  0  0
  -21.8700   -3.8284   23.4282 C   0  0  0  0  0  0  0  0  0  0  0  0
  -21.9144   -4.7056   22.3460 C   0  0  0  0  0  0  0  0  0  0  0  0
  -22.8194  -13.5263   21.1763 C   0  0  0  0  0  0  0  0  0  0  0  0
  -22.1559   -4.2206   21.1063 F   0  0  0  0  0  0  0  0  0  0  0  0
  -21.5628   -3.4510   25.7555 F   0  0  0  0  0  0  0  0  0  0  0  0
  -30.0261  -13.1803   20.4553 N   0  0  0  0  0  0  0  0  0  0  0  0
  -26.2911  -12.9356   20.3443 N   0  0  0  0  0  0  0  0  0  0  0  0
  -25.9236  -11.6675   20.5847 N   0  0  0  0  0  0  0  0  0  0  0  0
  -22.0708  -12.7905   22.0005 N   0  0  0  0  0  0  0  0  0  0  0  0
  -25.4117  -15.1773   20.4097 N   0  0  0  0  0  0  0  0  0  0  0  0
  -31.7916  -14.6724   20.0536 O   0  0  0  0  0  0  0  0  0  0  0  0
  -21.6670   -6.9022   21.4423 O   0  0  0  0  0  0  0  0  0  0  0  0
  -22.3946  -14.5564   20.6568 O   0  0  0  0  0  0  0  0  0  0  0  0
  -24.6048  -31.8614   23.2223 C   0  0  0  0  0  0  0  0  0  0  0  0
  -25.8822  -32.4841   23.8616 C   0  0  1  0  0  0  0  0  0  0  0  0
  -27.2536  -27.5042   20.1156 C   0  0  0  0  0  0  0  0  0  0  0  0
  -25.5726  -33.8762   24.2210 N   0  0  0  0  0  0  0  0  0  0  0  0
  -23.4066  -30.4859   21.5461 C   0  0  2  0  0  0  0  0  0  0  0  0
  -24.8467  -28.9636   20.1247 C   0  0  0  0  0  0  0  0  0  0  0  0
  -22.7412  -29.4652   22.5052 C   0  0  0  0  0  0  0  0  0  0  0  0
  -18.0167  -28.1302   22.8626 C   0  0  0  0  0  0  0  0  0  0  0  0
  -24.1342  -36.7390   23.2568 C   0  0  0  0  0  0  0  0  0  0  0  0
  -25.9141  -30.8882   21.3456 C   0  0  0  0  0  0  0  0  0  0  0  0
  -25.9930  -29.5029   20.7208 C   0  0  0  0  0  0  0  0  0  0  0  0
  -27.1758  -28.7612   20.7331 C   0  0  0  0  0  0  0  0  0  0  0  0
  -26.1032  -26.9836   19.5230 C   0  0  0  0  0  0  0  0  0  0  0  0
  -24.9097  -27.7011   19.5331 C   0  0  0  0  0  0  0  0  0  0  0  0
  -23.5715  -29.7899   20.1582 C   0  0  0  0  0  0  0  0  0  0  0  0
  -25.3990  -36.3212   24.0232 C   0  0  1  0  0  0  0  0  0  0  0  0
  -20.5793  -28.3813   23.1004 C   0  0  2  0  0  0  0  0  0  0  0  0
  -20.6548  -26.9392   22.5411 C   0  0  0  0  0  0  0  0  0  0  0  0
  -19.5615  -26.6407   21.5143 C   0  0  0  0  0  0  0  0  0  0  0  0
  -18.1797  -26.7818   22.1673 C   0  0  0  0  0  0  0  0  0  0  0  0
  -19.1385  -28.8769   23.2988 C   0  0  0  0  0  0  0  0  0  0  0  0
  -18.9183  -30.1286   23.8878 C   0  0  0  0  0  0  0  0  0  0  0  0
  -17.6396  -30.6493   24.0352 C   0  0  0  0  0  0  0  0  0  0  0  0
  -25.9153  -34.9582   23.4993 C   0  0  0  0  0  0  0  0  0  0  0  0
  -16.5415  -29.9068   23.6254 C   0  0  0  0  0  0  0  0  0  0  0  0
  -16.7331  -28.6521   23.0586 C   0  0  0  0  0  0  0  0  0  0  0  0
  -26.4583  -31.6439   25.0683 C   0  0  0  0  0  0  0  0  0  0  0  0
  -25.3807  -31.3179   26.1374 C   0  0  0  0  0  0  0  0  0  0  0  0
  -27.0530  -30.3024   24.5680 C   0  0  0  0  0  0  0  0  0  0  0  0
  -27.6014  -32.4281   25.7651 C   0  0  0  0  0  0  0  0  0  0  0  0
  -27.5629  -37.2220   24.8621 C   0  0  0  0  0  0  0  0  0  0  0  0
  -21.4133  -29.3375   22.3735 N   0  0  0  0  0  0  0  0  0  0  0  0
  -26.4706  -37.3372   23.9061 N   0  0  0  0  0  0  0  0  0  0  0  0
  -24.6674  -31.0544   22.1178 N   0  0  0  0  0  0  0  0  0  0  0  0
  -23.4259  -28.8150   23.2971 O   0  0  0  0  0  0  0  0  0  0  0  0
  -28.3948  -26.7345   20.0089 O   0  0  0  0  0  0  0  0  0  0  0  0
  -26.5870  -34.9065   22.4671 O   0  0  0  0  0  0  0  0  0  0  0  0
  -23.5365  -32.1254   23.7833 O   0  0  0  0  0  0  0  0  0  0  0  0
  -29.9356  -22.2375   25.4746 C   0  0  0  0  0  0  0  0  0  0  0  0
  -28.3663  -23.0312   26.7564 C   0  0  0  0  0  0  0  0  0  0  0  0
  -25.0926  -24.7323   26.2970 C   0  0  0  0  0  0  0  0  0  0  0  0
  -30.7078  -21.7601   24.3125 C   0  0  0  0  0  0  0  0  0  0  0  0
  -25.4947  -22.3700   25.5248 C   0  0  0  0  0  0  0  0  0  0  0  0
  -26.1381  -23.7129   25.8643 C   0  0  2  0  0  0  0  0  0  0  0  0
  -28.7012  -22.6905   25.4568 N   0  0  0  0  0  0  0  0  0  0  0  0
  -29.2413  -22.8757   27.7498 N   0  0  0  0  0  0  0  0  0  0  0  0
  -27.0921  -23.5354   26.9407 N   0  0  0  0  0  0  0  0  0  0  0  0
  -30.3402  -22.4220   23.0806 N   0  0  0  0  0  0  0  0  0  0  0  0
  -30.6237  -22.2471   27.0465 S   0  0  0  0  0  0  0  0  0  0  0  0
  -31.4485  -12.4701   19.0860 H   0  0  0  0  0  0  0  0  0  0  0  0
  -30.3970  -11.2460   19.6950 H   0  0  0  0  0  0  0  0  0  0  0  0
  -29.6870  -11.8204   17.4226 H   0  0  0  0  0  0  0  0  0  0  0  0
  -29.6375  -13.5326   17.8649 H   0  0  0  0  0  0  0  0  0  0  0  0
  -27.7830  -11.3650   18.7904 H   0  0  0  0  0  0  0  0  0  0  0  0
  -27.4028  -12.7801   17.8021 H   0  0  0  0  0  0  0  0  0  0  0  0
  -27.7353  -14.2503   19.6136 H   0  0  0  0  0  0  0  0  0  0  0  0
  -28.5890  -11.9550   21.3832 H   0  0  0  0  0  0  0  0  0  0  0  0
  -28.5005  -13.6134   21.8562 H   0  0  0  0  0  0  0  0  0  0  0  0
  -25.2399   -9.5495   22.4318 H   0  0  0  0  0  0  0  0  0  0  0  0
  -23.9663   -7.5070   22.7297 H   0  0  0  0  0  0  0  0  0  0  0  0
  -21.1515   -8.8641   19.9162 H   0  0  0  0  0  0  0  0  0  0  0  0
  -22.4016  -10.9115   19.6476 H   0  0  0  0  0  0  0  0  0  0  0  0
  -21.2319   -7.5552   23.9750 H   0  0  0  0  0  0  0  0  0  0  0  0
  -21.1589   -6.0228   25.8556 H   0  0  0  0  0  0  0  0  0  0  0  0
  -22.0396   -2.8212   23.2809 H   0  0  0  0  0  0  0  0  0  0  0  0
  -22.4401  -11.9703   22.4008 H   0  0  0  0  0  0  0  0  0  0  0  0
  -21.1493  -13.0679   22.2082 H   0  0  0  0  0  0  0  0  0  0  0  0
  -24.6538  -15.7807   20.5848 H   0  0  0  0  0  0  0  0  0  0  0  0
  -26.2762  -15.5453   20.1156 H   0  0  0  0  0  0  0  0  0  0  0  0
  -26.6778  -32.4663   23.1464 H   0  0  0  0  0  0  0  0  0  0  0  0
  -25.0747  -34.0282   25.0566 H   0  0  0  0  0  0  0  0  0  0  0  0
  -22.7881  -31.3489   21.4131 H   0  0  0  0  0  0  0  0  0  0  0  0
  -23.3854  -35.9823   23.3648 H   0  0  0  0  0  0  0  0  0  0  0  0
  -24.3696  -36.8624   22.2204 H   0  0  0  0  0  0  0  0  0  0  0  0
  -23.7669  -37.6632   23.6516 H   0  0  0  0  0  0  0  0  0  0  0  0
  -25.9445  -31.6237   20.5691 H   0  0  0  0  0  0  0  0  0  0  0  0
  -26.7436  -31.0079   22.0108 H   0  0  0  0  0  0  0  0  0  0  0  0
  -28.0090  -29.1452   21.2057 H   0  0  0  0  0  0  0  0  0  0  0  0
  -26.1369  -26.0560   19.0719 H   0  0  0  0  0  0  0  0  0  0  0  0
  -24.0652  -27.2961   19.0997 H   0  0  0  0  0  0  0  0  0  0  0  0
  -23.6156  -30.5365   19.3930 H   0  0  0  0  0  0  0  0  0  0  0  0
  -22.7355  -29.1425   19.9945 H   0  0  0  0  0  0  0  0  0  0  0  0
  -25.1353  -36.2335   25.0565 H   0  0  0  0  0  0  0  0  0  0  0  0
  -21.0070  -28.3206   24.0793 H   0  0  0  0  0  0  0  0  0  0  0  0
  -20.5555  -26.2518   23.3550 H   0  0  0  0  0  0  0  0  0  0  0  0
  -21.5974  -26.8362   22.0454 H   0  0  0  0  0  0  0  0  0  0  0  0
  -19.6810  -25.6422   21.1488 H   0  0  0  0  0  0  0  0  0  0  0  0
  -19.6406  -27.3343   20.7034 H   0  0  0  0  0  0  0  0  0  0  0  0
  -17.4282  -26.6888   21.4113 H   0  0  0  0  0  0  0  0  0  0  0  0
  -18.0803  -26.0130   22.9049 H   0  0  0  0  0  0  0  0  0  0  0  0
  -19.7265  -30.6774   24.2204 H   0  0  0  0  0  0  0  0  0  0  0  0
  -17.5064  -31.5856   24.4483 H   0  0  0  0  0  0  0  0  0  0  0  0
  -15.5878  -30.2839   23.7407 H   0  0  0  0  0  0  0  0  0  0  0  0
  -15.9120  -28.0941   22.7766 H   0  0  0  0  0  0  0  0  0  0  0  0
  -24.5787  -30.7757   25.6817 H   0  0  0  0  0  0  0  0  0  0  0  0
  -25.0041  -32.2289   26.5536 H   0  0  0  0  0  0  0  0  0  0  0  0
  -25.8166  -30.7245   26.9138 H   0  0  0  0  0  0  0  0  0  0  0  0
  -26.2892  -29.7335   24.0803 H   0  0  0  0  0  0  0  0  0  0  0  0
  -27.4336  -29.7484   25.4006 H   0  0  0  0  0  0  0  0  0  0  0  0
  -27.8466  -30.4994   23.8779 H   0  0  0  0  0  0  0  0  0  0  0  0
  -27.2251  -33.3632   26.1242 H   0  0  0  0  0  0  0  0  0  0  0  0
  -28.3902  -32.6065   25.0645 H   0  0  0  0  0  0  0  0  0  0  0  0
  -27.9772  -31.8555   26.5872 H   0  0  0  0  0  0  0  0  0  0  0  0
  -28.2744  -38.0016   24.6863 H   0  0  0  0  0  0  0  0  0  0  0  0
  -28.0396  -36.2711   24.7461 H   0  0  0  0  0  0  0  0  0  0  0  0
  -27.1773  -37.3087   25.8564 H   0  0  0  0  0  0  0  0  0  0  0  0
  -20.9627  -29.9365   21.7352 H   0  0  0  0  0  0  0  0  0  0  0  0
  -26.0447  -38.2561   24.0273 H   0  0  0  0  0  0  0  0  0  0  0  0
  -24.3823  -24.8712   25.5089 H   0  0  0  0  0  0  0  0  0  0  0  0
  -25.5715  -25.6642   26.5139 H   0  0  0  0  0  0  0  0  0  0  0  0
  -24.5894  -24.3776   27.1722 H   0  0  0  0  0  0  0  0  0  0  0  0
  -30.5389  -20.7096   24.1989 H   0  0  0  0  0  0  0  0  0  0  0  0
  -31.7380  -21.9806   24.4998 H   0  0  0  0  0  0  0  0  0  0  0  0
  -24.4352  -22.2470   25.6093 H   0  0  0  0  0  0  0  0  0  0  0  0
  -25.6366  -21.3589   25.8450 H   0  0  0  0  0  0  0  0  0  0  0  0
  -26.6290  -24.0759   24.9856 H   0  0  0  0  0  0  0  0  0  0  0  0
  -26.8182  -23.7874   27.8521 H   0  0  0  0  0  0  0  0  0  0  0  0
  -30.1471  -23.3185   22.7224 H   0  0  0  0  0  0  0  0  0  0  0  0
  1 25  1  0  0  0  0
  1 30  2  0  0  0  0
  1 80  1  0  0  0  0
  2  3  1  0  0  0  0
  2 25  1  0  0  0  0
  2 82  1  0  0  0  0
  2 83  1  0  0  0  0
  3  4  1  0  0  0  0
  3 84  1  0  0  0  0
  3 85  1  0  0  0  0
  4  5  1  0  0  0  0
  4 86  1  0  0  0  0
  4 87  1  0  0  0  0
  5  6  1  0  0  0  0
  5 26  1  0  0  0  0
  5 88  1  6  0  0  0
  6 25  1  0  0  0  0
  6 89  1  0  0  0  0
  6 90  1  0  0  0  0
  7  8  2  0  0  0  0
  7 26  1  0  0  0  0
  7 29  1  0  0  0  0
  8  9  1  0  0  0  0
  8 22  1  0  0  0  0
  9 10  1  0  0  0  0
  9 27  2  0  0  0  0
 10 11  2  0  0  0  0
 10 15  1  0  0  0  0
 11 12  1  0  0  0  0
 11 91  1  0  0  0  0
 12 13  2  0  0  0  0
 12 92  1  0  0  0  0
 13 14  1  0  0  0  0
 13 31  1  0  0  0  0
 14 15  2  0  0  0  0
 14 93  1  0  0  0  0
 15 94  1  0  0  0  0
 16 17  2  0  0  0  0
 16 21  1  0  0  0  0
 16 31  1  0  0  0  0
 17 18  1  0  0  0  0
 17 95  1  0  0  0  0
 18 19  2  0  0  0  0
 18 96  1  0  0  0  0
 19 20  1  0  0  0  0
 19 24  1  0  0  0  0
 20 21  2  0  0  0  0
 20 97  1  0  0  0  0
 21 23  1  0  0  0  0
 22 28  1  0  0  0  0
 22 32  2  0  0  0  0
 26 27  1  0  0  0  0
 28 98  1  0  0  0  0
 28 99  1  0  0  0  0
 29100  1  0  0  0  0
 29101  1  0  0  0  0
 33 34  1  0  0  0  0
 33 66  1  0  0  0  0
 33 70  2  0  0  0  0
 34 36  1  0  0  0  0
 34 59  1  0  0  0  0
 34102  1  6  0  0  0
 35 44  2  0  0  0  0
 35 45  1  0  0  0  0
 35 68  1  0  0  0  0
 36 56  1  0  0  0  0
 36103  1  0  0  0  0
 37 39  1  0  0  0  0
 37 47  1  0  0  0  0
 37 66  1  0  0  0  0
 37104  1  6  0  0  0
 38 43  2  0  0  0  0
 38 46  1  0  0  0  0
 38 47  1  0  0  0  0
 39 64  1  0  0  0  0
 39 67  2  0  0  0  0
 40 52  1  0  0  0  0
 40 53  2  0  0  0  0
 40 58  1  0  0  0  0
 41105  1  0  0  0  0
 41106  1  0  0  0  0
 41107  1  0  0  0  0
 42 43  1  0  0  0  0
 42 66  1  0  0  0  0
 42108  1  0  0  0  0
 42109  1  0  0  0  0
 43 44  1  0  0  0  0
 44110  1  0  0  0  0
 45 46  2  0  0  0  0
 45111  1  0  0  0  0
 46112  1  0  0  0  0
 47113  1  0  0  0  0
 47114  1  0  0  0  0
 48 41  1  0  0  0  0
 48 56  1  0  0  0  0
 48 65  1  0  0  0  0
 48115  1  1  0  0  0
 49 50  1  0  0  0  0
 49 53  1  0  0  0  0
 49 64  1  0  0  0  0
 49116  1  1  0  0  0
 50 51  1  0  0  0  0
 50117  1  0  0  0  0
 50118  1  0  0  0  0
 51 52  1  0  0  0  0
 51119  1  0  0  0  0
 51120  1  0  0  0  0
 52121  1  0  0  0  0
 52122  1  0  0  0  0
 53 54  1  0  0  0  0
 54 55  2  0  0  0  0
 54123  1  0  0  0  0
 55 57  1  0  0  0  0
 55124  1  0  0  0  0
 56 69  2  0  0  0  0
 57 58  2  0  0  0  0
 57125  1  0  0  0  0
 58126  1  0  0  0  0
 59 60  1  0  0  0  0
 59 61  1  0  0  0  0
 59 62  1  0  0  0  0
 60127  1  0  0  0  0
 60128  1  0  0  0  0
 60129  1  0  0  0  0
 61130  1  0  0  0  0
 61131  1  0  0  0  0
 61132  1  0  0  0  0
 62133  1  0  0  0  0
 62134  1  0  0  0  0
 62135  1  0  0  0  0
 63 65  1  0  0  0  0
 63136  1  0  0  0  0
 63137  1  0  0  0  0
 63138  1  0  0  0  0
 64139  1  0  0  0  0
 65140  1  0  0  0  0
 68 75  1  0  0  0  0
 71 74  1  0  0  0  0
 71 77  2  0  0  0  0
 71 81  1  0  0  0  0
 72 77  1  0  0  0  0
 72 78  2  0  0  0  0
 72 79  1  0  0  0  0
 73141  1  0  0  0  0
 73142  1  0  0  0  0
 73143  1  0  0  0  0
 74 80  1  0  0  0  0
 74144  1  0  0  0  0
 74145  1  0  0  0  0
 75 76  1  0  0  0  0
 75146  1  0  0  0  0
 75147  1  0  0  0  0
 76 73  1  0  0  0  0
 76 79  1  0  0  0  0
 76148  1  6  0  0  0
 78 81  1  0  0  0  0
 79149  1  0  0  0  0
 80150  1  0  0  0  0
M  ISO  4   1 100  68 101  75 101  80 100
M  END
$$$$
18
 OpenBabel04052305473D

156164  0  0  0  0  0  0  0  0999 V2000
  -30.7652  -14.3608   20.6636 C   0  0  0  0  0  0  0  0  0  0  0  0
  -30.4392  -12.2669   19.3775 C   0  0  0  0  0  0  0  0  0  0  0  0
  -29.4791  -12.5281   18.1977 C   0  0  0  0  0  0  0  0  0  0  0  0
  -27.9985  -12.3963   18.6038 C   0  0  0  0  0  0  0  0  0  0  0  0
  -27.6639  -13.2170   19.8820 C   0  0  2  0  0  0  0  0  0  0  0  0
  -28.6795  -12.9602   21.0279 C   0  0  0  0  0  0  0  0  0  0  0  0
  -25.2633  -13.8245   20.5754 C   0  0  0  0  0  0  0  0  0  0  0  0
  -24.1645  -13.0409   20.9408 C   0  0  0  0  0  0  0  0  0  0  0  0
  -24.6400  -11.7009   20.8697 C   0  0  0  0  0  0  0  0  0  0  0  0
  -23.9005  -10.4085   21.0420 C   0  0  0  0  0  0  0  0  0  0  0  0
  -24.3588   -9.4123   21.9123 C   0  0  0  0  0  0  0  0  0  0  0  0
  -23.6296   -8.2350   22.0803 C   0  0  0  0  0  0  0  0  0  0  0  0
  -22.4385   -8.0419   21.3657 C   0  0  0  0  0  0  0  0  0  0  0  0
  -22.0103   -9.0167   20.4678 C   0  0  0  0  0  0  0  0  0  0  0  0
  -22.7317  -10.1925   20.3102 C   0  0  0  0  0  0  0  0  0  0  0  0
  -21.6857   -6.0709   22.5391 C   0  0  0  0  0  0  0  0  0  0  0  0
  -21.4064   -6.5490   23.8264 C   0  0  0  0  0  0  0  0  0  0  0  0
  -21.3635   -5.6677   24.9085 C   0  0  0  0  0  0  0  0  0  0  0  0
  -21.5973   -4.3067   24.7088 C   0  0  0  0  0  0  0  0  0  0  0  0
  -21.8700   -3.8284   23.4282 C   0  0  0  0  0  0  0  0  0  0  0  0
  -21.9144   -4.7056   22.3460 C   0  0  0  0  0  0  0  0  0  0  0  0
  -22.8194  -13.5263   21.1763 C   0  0  0  0  0  0  0  0  0  0  0  0
  -22.1559   -4.2206   21.1063 F   0  0  0  0  0  0  0  0  0  0  0  0
  -21.5628   -3.4510   25.7555 F   0  0  0  0  0  0  0  0  0  0  0  0
  -30.0261  -13.1803   20.4553 N   0  0  0  0  0  0  0  0  0  0  0  0
  -26.2911  -12.9356   20.3443 N   0  0  0  0  0  0  0  0  0  0  0  0
  -25.9236  -11.6675   20.5847 N   0  0  0  0  0  0  0  0  0  0  0  0
  -22.0708  -12.7905   22.0005 N   0  0  0  0  0  0  0  0  0  0  0  0
  -25.4117  -15.1773   20.4097 N   0  0  0  0  0  0  0  0  0  0  0  0
  -31.7916  -14.6724   20.0536 O   0  0  0  0  0  0  0  0  0  0  0  0
  -21.6670   -6.9022   21.4423 O   0  0  0  0  0  0  0  0  0  0  0  0
  -22.3946  -14.5564   20.6568 O   0  0  0  0  0  0  0  0  0  0  0  0
  -24.6048  -31.8614   23.2223 C   0  0  0  0  0  0  0  0  0  0  0  0
  -25.8822  -32.4841   23.8616 C   0  0  1  0  0  0  0  0  0  0  0  0
  -27.2536  -27.5042   20.1156 C   0  0  0  0  0  0  0  0  0  0  0  0
  -25.5726  -33.8762   24.2210 N   0  0  0  0  0  0  0  0  0  0  0  0
  -23.4066  -30.4859   21.5461 C   0  0  2  0  0  0  0  0  0  0  0  0
  -24.8467  -28.9636   20.1247 C   0  0  0  0  0  0  0  0  0  0  0  0
  -22.7412  -29.4652   22.5052 C   0  0  0  0  0  0  0  0  0  0  0  0
  -18.0167  -28.1302   22.8626 C   0  0  0  0  0  0  0  0  0  0  0  0
  -24.1342  -36.7390   23.2568 C   0  0  0  0  0  0  0  0  0  0  0  0
  -25.9141  -30.8882   21.3456 C   0  0  0  0  0  0  0  0  0  0  0  0
  -25.9930  -29.5029   20.7208 C   0  0  0  0  0  0  0  0  0  0  0  0
  -27.1758  -28.7612   20.7331 C   0  0  0  0  0  0  0  0  0  0  0  0
  -26.1032  -26.9836   19.5230 C   0  0  0  0  0  0  0  0  0  0  0  0
  -24.9097  -27.7011   19.5331 C   0  0  0  0  0  0  0  0  0  0  0  0
  -23.5715  -29.7899   20.1582 C   0  0  0  0  0  0  0  0  0  0  0  0
  -25.3990  -36.3212   24.0232 C   0  0  1  0  0  0  0  0  0  0  0  0
  -20.5793  -28.3813   23.1004 C   0  0  2  0  0  0  0  0  0  0  0  0
  -20.6548  -26.9392   22.5411 C   0  0  0  0  0  0  0  0  0  0  0  0
  -19.5615  -26.6407   21.5143 C   0  0  0  0  0  0  0  0  0  0  0  0
  -18.1797  -26.7818   22.1673 C   0  0  0  0  0  0  0  0  0  0  0  0
  -19.1385  -28.8769   23.2988 C   0  0  0  0  0  0  0  0  0  0  0  0
  -18.9183  -30.1286   23.8878 C   0  0  0  0  0  0  0  0  0  0  0  0
  -17.6396  -30.6493   24.0352 C   0  0  0  0  0  0  0  0  0  0  0  0
  -25.9153  -34.9582   23.4993 C   0  0  0  0  0  0  0  0  0  0  0  0
  -16.5415  -29.9068   23.6254 C   0  0  0  0  0  0  0  0  0  0  0  0
  -16.7331  -28.6521   23.0586 C   0  0  0  0  0  0  0  0  0  0  0  0
  -26.4583  -31.6439   25.0683 C   0  0  0  0  0  0  0  0  0  0  0  0
  -25.3807  -31.3179   26.1374 C   0  0  0  0  0  0  0  0  0  0  0  0
  -27.0530  -30.3024   24.5680 C   0  0  0  0  0  0  0  0  0  0  0  0
  -27.6014  -32.4281   25.7651 C   0  0  0  0  0  0  0  0  0  0  0  0
  -27.5629  -37.2220   24.8621 C   0  0  0  0  0  0  0  0  0  0  0  0
  -21.4133  -29.3375   22.3735 N   0  0  0  0  0  0  0  0  0  0  0  0
  -26.4706  -37.3372   23.9061 N   0  0  0  0  0  0  0  0  0  0  0  0
  -24.6674  -31.0544   22.1178 N   0  0  0  0  0  0  0  0  0  0  0  0
  -23.4259  -28.8150   23.2971 O   0  0  0  0  0  0  0  0  0  0  0  0
  -28.3948  -26.7345   20.0089 O   0  0  0  0  0  0  0  0  0  0  0  0
  -26.5870  -34.9065   22.4671 O   0  0  0  0  0  0  0  0  0  0  0  0
  -23.5365  -32.1254   23.7833 O   0  0  0  0  0  0  0  0  0  0  0  0
  -31.4024  -21.9921   17.5049 C   0  0  0  0  0  0  0  0  0  0  0  0
  -30.2549  -22.3327   18.1901 C   0  0  0  0  0  0  0  0  0  0  0  0
  -31.0667  -24.3470   17.8848 C   0  0  0  0  0  0  0  0  0  0  0  0
  -29.8656  -26.5703   17.9697 C   0  0  0  0  0  0  0  0  0  0  0  0
  -32.5343  -27.7082   18.9425 C   0  0  0  0  0  0  0  0  0  0  0  0
  -32.6743  -28.0064   21.4780 C   0  0  0  0  0  0  0  0  0  0  0  0
  -31.2113  -25.8509   17.9233 C   0  0  1  0  0  0  0  0  0  0  0  0
  -33.4007  -28.0905   20.1394 C   0  0  1  0  0  0  0  0  0  0  0  0
  -30.0609  -23.6826   18.4092 N   0  0  0  0  0  0  0  0  0  0  0  0
  -29.3089  -21.3855   18.6545 N   0  0  0  0  0  0  0  0  0  0  0  0
  -32.0263  -26.3201   19.0766 N   0  3  0  0  0  0  0  0  0  0  0  0
  -34.5453  -27.2375   20.1920 O   0  0  0  0  0  0  0  0  0  0  0  0
  -32.2808  -23.4119   17.1125 S   0  0  0  0  0  0  0  0  0  0  0  0
  -31.4485  -12.4701   19.0860 H   0  0  0  0  0  0  0  0  0  0  0  0
  -30.3970  -11.2460   19.6950 H   0  0  0  0  0  0  0  0  0  0  0  0
  -29.6870  -11.8204   17.4226 H   0  0  0  0  0  0  0  0  0  0  0  0
  -29.6375  -13.5326   17.8649 H   0  0  0  0  0  0  0  0  0  0  0  0
  -27.7830  -11.3650   18.7904 H   0  0  0  0  0  0  0  0  0  0  0  0
  -27.4028  -12.7801   17.8021 H   0  0  0  0  0  0  0  0  0  0  0  0
  -27.7353  -14.2503   19.6136 H   0  0  0  0  0  0  0  0  0  0  0  0
  -28.5890  -11.9550   21.3832 H   0  0  0  0  0  0  0  0  0  0  0  0
  -28.5005  -13.6134   21.8562 H   0  0  0  0  0  0  0  0  0  0  0  0
  -25.2399   -9.5495   22.4318 H   0  0  0  0  0  0  0  0  0  0  0  0
  -23.9663   -7.5070   22.7297 H   0  0  0  0  0  0  0  0  0  0  0  0
  -21.1515   -8.8641   19.9162 H   0  0  0  0  0  0  0  0  0  0  0  0
  -22.4016  -10.9115   19.6476 H   0  0  0  0  0  0  0  0  0  0  0  0
  -21.2319   -7.5552   23.9750 H   0  0  0  0  0  0  0  0  0  0  0  0
  -21.1589   -6.0228   25.8556 H   0  0  0  0  0  0  0  0  0  0  0  0
  -22.0396   -2.8212   23.2809 H   0  0  0  0  0  0  0  0  0  0  0  0
  -22.4401  -11.9703   22.4008 H   0  0  0  0  0  0  0  0  0  0  0  0
  -21.1493  -13.0679   22.2082 H   0  0  0  0  0  0  0  0  0  0  0  0
  -24.6538  -15.7807   20.5848 H   0  0  0  0  0  0  0  0  0  0  0  0
  -26.2762  -15.5453   20.1156 H   0  0  0  0  0  0  0  0  0  0  0  0
  -26.6778  -32.4663   23.1464 H   0  0  0  0  0  0  0  0  0  0  0  0
  -25.0747  -34.0282   25.0566 H   0  0  0  0  0  0  0  0  0  0  0  0
  -22.7881  -31.3489   21.4131 H   0  0  0  0  0  0  0  0  0  0  0  0
  -23.3854  -35.9823   23.3648 H   0  0  0  0  0  0  0  0  0  0  0  0
  -24.3696  -36.8624   22.2204 H   0  0  0  0  0  0  0  0  0  0  0  0
  -23.7669  -37.6632   23.6516 H   0  0  0  0  0  0  0  0  0  0  0  0
  -25.9445  -31.6237   20.5691 H   0  0  0  0  0  0  0  0  0  0  0  0
  -26.7436  -31.0079   22.0108 H   0  0  0  0  0  0  0  0  0  0  0  0
  -28.0090  -29.1452   21.2057 H   0  0  0  0  0  0  0  0  0  0  0  0
  -26.1369  -26.0560   19.0719 H   0  0  0  0  0  0  0  0  0  0  0  0
  -24.0652  -27.2961   19.0997 H   0  0  0  0  0  0  0  0  0  0  0  0
  -23.6156  -30.5365   19.3930 H   0  0  0  0  0  0  0  0  0  0  0  0
  -22.7355  -29.1425   19.9945 H   0  0  0  0  0  0  0  0  0  0  0  0
  -25.1353  -36.2335   25.0565 H   0  0  0  0  0  0  0  0  0  0  0  0
  -21.0070  -28.3206   24.0793 H   0  0  0  0  0  0  0  0  0  0  0  0
  -20.5555  -26.2518   23.3550 H   0  0  0  0  0  0  0  0  0  0  0  0
  -21.5974  -26.8362   22.0454 H   0  0  0  0  0  0  0  0  0  0  0  0
  -19.6810  -25.6422   21.1488 H   0  0  0  0  0  0  0  0  0  0  0  0
  -19.6406  -27.3343   20.7034 H   0  0  0  0  0  0  0  0  0  0  0  0
  -17.4282  -26.6888   21.4113 H   0  0  0  0  0  0  0  0  0  0  0  0
  -18.0803  -26.0130   22.9049 H   0  0  0  0  0  0  0  0  0  0  0  0
  -19.7265  -30.6774   24.2204 H   0  0  0  0  0  0  0  0  0  0  0  0
  -17.5064  -31.5856   24.4483 H   0  0  0  0  0  0  0  0  0  0  0  0
  -15.5878  -30.2839   23.7407 H   0  0  0  0  0  0  0  0  0  0  0  0
  -15.9120  -28.0941   22.7766 H   0  0  0  0  0  0  0  0  0  0  0  0
  -24.5787  -30.7757   25.6817 H   0  0  0  0  0  0  0  0  0  0  0  0
  -25.0041  -32.2289   26.5536 H   0  0  0  0  0  0  0  0  0  0  0  0
  -25.8166  -30.7245   26.9138 H   0  0  0  0  0  0  0  0  0  0  0  0
  -26.2892  -29.7335   24.0803 H   0  0  0  0  0  0  0  0  0  0  0  0
  -27.4336  -29.7484   25.4006 H   0  0  0  0  0  0  0  0  0  0  0  0
  -27.8466  -30.4994   23.8779 H   0  0  0  0  0  0  0  0  0  0  0  0
  -27.2251  -33.3632   26.1242 H   0  0  0  0  0  0  0  0  0  0  0  0
  -28.3902  -32.6065   25.0645 H   0  0  0  0  0  0  0  0  0  0  0  0
  -27.9772  -31.8555   26.5872 H   0  0  0  0  0  0  0  0  0  0  0  0
  -28.2744  -38.0016   24.6863 H   0  0  0  0  0  0  0  0  0  0  0  0
  -28.0396  -36.2711   24.7461 H   0  0  0  0  0  0  0  0  0  0  0  0
  -27.1773  -37.3087   25.8564 H   0  0  0  0  0  0  0  0  0  0  0  0
  -20.9627  -29.9365   21.7352 H   0  0  0  0  0  0  0  0  0  0  0  0
  -26.0447  -38.2561   24.0273 H   0  0  0  0  0  0  0  0  0  0  0  0
  -31.6887  -21.0301   17.2650 H   0  0  0  0  0  0  0  0  0  0  0  0
  -29.2606  -26.2484   17.1480 H   0  0  0  0  0  0  0  0  0  0  0  0
  -30.0234  -27.6266   17.9042 H   0  0  0  0  0  0  0  0  0  0  0  0
  -29.3697  -26.3402   18.8895 H   0  0  0  0  0  0  0  0  0  0  0  0
  -33.1188  -27.7823   18.0493 H   0  0  0  0  0  0  0  0  0  0  0  0
  -31.6985  -28.3749   18.8994 H   0  0  0  0  0  0  0  0  0  0  0  0
  -32.6571  -28.9510   21.9803 H   0  0  0  0  0  0  0  0  0  0  0  0
  -33.1203  -27.3456   22.1917 H   0  0  0  0  0  0  0  0  0  0  0  0
  -31.7138  -26.0949   17.0107 H   0  0  0  0  0  0  0  0  0  0  0  0
  -33.6758  -29.1140   19.9918 H   0  0  0  0  0  0  0  0  0  0  0  0
  -28.3726  -21.6832   18.7175 H   0  0  0  0  0  0  0  0  0  0  0  0
  -31.4492  -26.2711   19.9162 H   0  0  0  0  0  0  0  0  0  0  0  0
  -32.8448  -25.7131   19.1214 H   0  0  0  0  0  0  0  0  0  0  0  0
  -34.2592  -26.3204   20.3263 H   0  0  0  0  0  0  0  0  0  0  0  0
  1 25  1  0  0  0  0
  1 30  2  0  0  0  0
  1 80  1  0  0  0  0
  2  3  1  0  0  0  0
  2 25  1  0  0  0  0
  2 84  1  0  0  0  0
  2 85  1  0  0  0  0
  3  4  1  0  0  0  0
  3 86  1  0  0  0  0
  3 87  1  0  0  0  0
  4  5  1  0  0  0  0
  4 88  1  0  0  0  0
  4 89  1  0  0  0  0
  5  6  1  0  0  0  0
  5 26  1  0  0  0  0
  5 90  1  6  0  0  0
  6 25  1  0  0  0  0
  6 91  1  0  0  0  0
  6 92  1  0  0  0  0
  7  8  2  0  0  0  0
  7 26  1  0  0  0  0
  7 29  1  0  0  0  0
  8  9  1  0  0  0  0
  8 22  1  0  0  0  0
  9 10  1  0  0  0  0
  9 27  2  0  0  0  0
 10 11  2  0  0  0  0
 10 15  1  0  0  0  0
 11 12  1  0  0  0  0
 11 93  1  0  0  0  0
 12 13  2  0  0  0  0
 12 94  1  0  0  0  0
 13 14  1  0  0  0  0
 13 31  1  0  0  0  0
 14 15  2  0  0  0  0
 14 95  1  0  0  0  0
 15 96  1  0  0  0  0
 16 17  2  0  0  0  0
 16 21  1  0  0  0  0
 16 31  1  0  0  0  0
 17 18  1  0  0  0  0
 17 97  1  0  0  0  0
 18 19  2  0  0  0  0
 18 98  1  0  0  0  0
 19 20  1  0  0  0  0
 19 24  1  0  0  0  0
 20 21  2  0  0  0  0
 20 99  1  0  0  0  0
 21 23  1  0  0  0  0
 22 28  1  0  0  0  0
 22 32  2  0  0  0  0
 26 27  1  0  0  0  0
 28100  1  0  0  0  0
 28101  1  0  0  0  0
 29102  1  0  0  0  0
 29103  1  0  0  0  0
 33 34  1  0  0  0  0
 33 66  1  0  0  0  0
 33 70  2  0  0  0  0
 34 36  1  0  0  0  0
 34 59  1  0  0  0  0
 34104  1  6  0  0  0
 35 44  2  0  0  0  0
 35 45  1  0  0  0  0
 35 68  1  0  0  0  0
 36 56  1  0  0  0  0
 36105  1  0  0  0  0
 37 39  1  0  0  0  0
 37 47  1  0  0  0  0
 37 66  1  0  0  0  0
 37106  1  6  0  0  0
 38 43  2  0  0  0  0
 38 46  1  0  0  0  0
 38 47  1  0  0  0  0
 39 64  1  0  0  0  0
 39 67  2  0  0  0  0
 40 52  1  0  0  0  0
 40 53  2  0  0  0  0
 40 58  1  0  0  0  0
 41107  1  0  0  0  0
 41108  1  0  0  0  0
 41109  1  0  0  0  0
 42 43  1  0  0  0  0
 42 66  1  0  0  0  0
 42110  1  0  0  0  0
 42111  1  0  0  0  0
 43 44  1  0  0  0  0
 44112  1  0  0  0  0
 45 46  2  0  0  0  0
 45113  1  0  0  0  0
 46114  1  0  0  0  0
 47115  1  0  0  0  0
 47116  1  0  0  0  0
 48 41  1  0  0  0  0
 48 56  1  0  0  0  0
 48 65  1  0  0  0  0
 48117  1  1  0  0  0
 49 50  1  0  0  0  0
 49 53  1  0  0  0  0
 49 64  1  0  0  0  0
 49118  1  1  0  0  0
 50 51  1  0  0  0  0
 50119  1  0  0  0  0
 50120  1  0  0  0  0
 51 52  1  0  0  0  0
 51121  1  0  0  0  0
 51122  1  0  0  0  0
 52123  1  0  0  0  0
 52124  1  0  0  0  0
 53 54  1  0  0  0  0
 54 55  2  0  0  0  0
 54125  1  0  0  0  0
 55 57  1  0  0  0  0
 55126  1  0  0  0  0
 56 69  2  0  0  0  0
 57 58  2  0  0  0  0
 57127  1  0  0  0  0
 58128  1  0  0  0  0
 59 60  1  0  0  0  0
 59 61  1  0  0  0  0
 59 62  1  0  0  0  0
 60129  1  0  0  0  0
 60130  1  0  0  0  0
 60131  1  0  0  0  0
 61132  1  0  0  0  0
 61133  1  0  0  0  0
 61134  1  0  0  0  0
 62135  1  0  0  0  0
 62136  1  0  0  0  0
 62137  1  0  0  0  0
 63 65  1  0  0  0  0
 63138  1  0  0  0  0
 63139  1  0  0  0  0
 63140  1  0  0  0  0
 64141  1  0  0  0  0
 65142  1  0  0  0  0
 68 76  1  0  0  0  0
 71 72  2  0  0  0  0
 71 83  1  0  0  0  0
 71143  1  0  0  0  0
 72 79  1  0  0  0  0
 72 80  1  0  0  0  0
 73 77  1  0  0  0  0
 73 79  2  0  0  0  0
 73 83  1  0  0  0  0
 74144  1  0  0  0  0
 74145  1  0  0  0  0
 74146  1  0  0  0  0
 75 78  1  0  0  0  0
 75 81  1  0  0  0  0
 75147  1  0  0  0  0
 75148  1  0  0  0  0
 76 78  1  0  0  0  0
 76149  1  0  0  0  0
 76150  1  0  0  0  0
 77 74  1  0  0  0  0
 77 81  1  0  0  0  0
 77151  1  6  0  0  0
 78 82  1  0  0  0  0
 78152  1  6  0  0  0
 80153  1  0  0  0  0
 81154  1  0  0  0  0
 81155  1  0  0  0  0
 82156  1  0  0  0  0
M  ISO  4   1 100  68 101  76 101  80 100
M  CHG  1  81   1
M  END
$$$$
19
 OpenBabel04052305473D

148156  0  0  0  0  0  0  0  0999 V2000
  -30.7652  -14.3608   20.6636 C   0  0  0  0  0  0  0  0  0  0  0  0
  -30.4392  -12.2669   19.3775 C   0  0  0  0  0  0  0  0  0  0  0  0
  -29.4791  -12.5281   18.1977 C   0  0  0  0  0  0  0  0  0  0  0  0
  -27.9985  -12.3963   18.6038 C   0  0  0  0  0  0  0  0  0  0  0  0
  -27.6639  -13.2170   19.8820 C   0  0  2  0  0  0  0  0  0  0  0  0
  -28.6795  -12.9602   21.0279 C   0  0  0  0  0  0  0  0  0  0  0  0
  -25.2633  -13.8245   20.5754 C   0  0  0  0  0  0  0  0  0  0  0  0
  -24.1645  -13.0409   20.9408 C   0  0  0  0  0  0  0  0  0  0  0  0
  -24.6400  -11.7009   20.8697 C   0  0  0  0  0  0  0  0  0  0  0  0
  -23.9005  -10.4085   21.0420 C   0  0  0  0  0  0  0  0  0  0  0  0
  -24.3588   -9.4123   21.9123 C   0  0  0  0  0  0  0  0  0  0  0  0
  -23.6296   -8.2350   22.0803 C   0  0  0  0  0  0  0  0  0  0  0  0
  -22.4385   -8.0419   21.3657 C   0  0  0  0  0  0  0  0  0  0  0  0
  -22.0103   -9.0167   20.4678 C   0  0  0  0  0  0  0  0  0  0  0  0
  -22.7317  -10.1925   20.3102 C   0  0  0  0  0  0  0  0  0  0  0  0
  -21.6857   -6.0709   22.5391 C   0  0  0  0  0  0  0  0  0  0  0  0
  -21.4064   -6.5490   23.8264 C   0  0  0  0  0  0  0  0  0  0  0  0
  -21.3635   -5.6677   24.9085 C   0  0  0  0  0  0  0  0  0  0  0  0
  -21.5973   -4.3067   24.7088 C   0  0  0  0  0  0  0  0  0  0  0  0
  -21.8700   -3.8284   23.4282 C   0  0  0  0  0  0  0  0  0  0  0  0
  -21.9144   -4.7056   22.3460 C   0  0  0  0  0  0  0  0  0  0  0  0
  -22.8194  -13.5263   21.1763 C   0  0  0  0  0  0  0  0  0  0  0  0
  -22.1559   -4.2206   21.1063 F   0  0  0  0  0  0  0  0  0  0  0  0
  -21.5628   -3.4510   25.7555 F   0  0  0  0  0  0  0  0  0  0  0  0
  -30.0261  -13.1803   20.4553 N   0  0  0  0  0  0  0  0  0  0  0  0
  -26.2911  -12.9356   20.3443 N   0  0  0  0  0  0  0  0  0  0  0  0
  -25.9236  -11.6675   20.5847 N   0  0  0  0  0  0  0  0  0  0  0  0
  -22.0708  -12.7905   22.0005 N   0  0  0  0  0  0  0  0  0  0  0  0
  -25.4117  -15.1773   20.4097 N   0  0  0  0  0  0  0  0  0  0  0  0
  -31.7916  -14.6724   20.0536 O   0  0  0  0  0  0  0  0  0  0  0  0
  -21.6670   -6.9022   21.4423 O   0  0  0  0  0  0  0  0  0  0  0  0
  -22.3946  -14.5564   20.6568 O   0  0  0  0  0  0  0  0  0  0  0  0
  -24.6048  -31.8614   23.2223 C   0  0  0  0  0  0  0  0  0  0  0  0
  -25.8822  -32.4841   23.8616 C   0  0  1  0  0  0  0  0  0  0  0  0
  -27.2536  -27.5042   20.1156 C   0  0  0  0  0  0  0  0  0  0  0  0
  -25.5726  -33.8762   24.2210 N   0  0  0  0  0  0  0  0  0  0  0  0
  -23.4066  -30.4859   21.5461 C   0  0  2  0  0  0  0  0  0  0  0  0
  -24.8467  -28.9636   20.1247 C   0  0  0  0  0  0  0  0  0  0  0  0
  -22.7412  -29.4652   22.5052 C   0  0  0  0  0  0  0  0  0  0  0  0
  -18.0167  -28.1302   22.8626 C   0  0  0  0  0  0  0  0  0  0  0  0
  -24.1342  -36.7390   23.2568 C   0  0  0  0  0  0  0  0  0  0  0  0
  -25.9141  -30.8882   21.3456 C   0  0  0  0  0  0  0  0  0  0  0  0
  -25.9930  -29.5029   20.7208 C   0  0  0  0  0  0  0  0  0  0  0  0
  -27.1758  -28.7612   20.7331 C   0  0  0  0  0  0  0  0  0  0  0  0
  -26.1032  -26.9836   19.5230 C   0  0  0  0  0  0  0  0  0  0  0  0
  -24.9097  -27.7011   19.5331 C   0  0  0  0  0  0  0  0  0  0  0  0
  -23.5715  -29.7899   20.1582 C   0  0  0  0  0  0  0  0  0  0  0  0
  -25.3990  -36.3212   24.0232 C   0  0  1  0  0  0  0  0  0  0  0  0
  -20.5793  -28.3813   23.1004 C   0  0  2  0  0  0  0  0  0  0  0  0
  -20.6548  -26.9392   22.5411 C   0  0  0  0  0  0  0  0  0  0  0  0
  -19.5615  -26.6407   21.5143 C   0  0  0  0  0  0  0  0  0  0  0  0
  -18.1797  -26.7818   22.1673 C   0  0  0  0  0  0  0  0  0  0  0  0
  -19.1385  -28.8769   23.2988 C   0  0  0  0  0  0  0  0  0  0  0  0
  -18.9183  -30.1286   23.8878 C   0  0  0  0  0  0  0  0  0  0  0  0
  -17.6396  -30.6493   24.0352 C   0  0  0  0  0  0  0  0  0  0  0  0
  -25.9153  -34.9582   23.4993 C   0  0  0  0  0  0  0  0  0  0  0  0
  -16.5415  -29.9068   23.6254 C   0  0  0  0  0  0  0  0  0  0  0  0
  -16.7331  -28.6521   23.0586 C   0  0  0  0  0  0  0  0  0  0  0  0
  -26.4583  -31.6439   25.0683 C   0  0  0  0  0  0  0  0  0  0  0  0
  -25.3807  -31.3179   26.1374 C   0  0  0  0  0  0  0  0  0  0  0  0
  -27.0530  -30.3024   24.5680 C   0  0  0  0  0  0  0  0  0  0  0  0
  -27.6014  -32.4281   25.7651 C   0  0  0  0  0  0  0  0  0  0  0  0
  -27.5629  -37.2220   24.8621 C   0  0  0  0  0  0  0  0  0  0  0  0
  -21.4133  -29.3375   22.3735 N   0  0  0  0  0  0  0  0  0  0  0  0
  -26.4706  -37.3372   23.9061 N   0  0  0  0  0  0  0  0  0  0  0  0
  -24.6674  -31.0544   22.1178 N   0  0  0  0  0  0  0  0  0  0  0  0
  -23.4259  -28.8150   23.2971 O   0  0  0  0  0  0  0  0  0  0  0  0
  -28.3948  -26.7345   20.0089 O   0  0  0  0  0  0  0  0  0  0  0  0
  -26.5870  -34.9065   22.4671 O   0  0  0  0  0  0  0  0  0  0  0  0
  -23.5365  -32.1254   23.7833 O   0  0  0  0  0  0  0  0  0  0  0  0
  -32.2130  -17.9450   21.9293 C   0  0  0  0  0  0  0  0  0  0  0  0
  -31.4577  -17.0458   22.6525 C   0  0  0  0  0  0  0  0  0  0  0  0
  -30.6613  -19.3192   22.6463 C   0  0  0  0  0  0  0  0  0  0  0  0
  -31.6556  -15.5984   22.8609 C   0  0  0  0  0  0  0  0  0  0  0  0
  -30.3045  -21.7642   22.2999 C   0  0  0  0  0  0  0  0  0  0  0  0
  -29.2929  -22.8232   22.7049 C   0  0  0  0  0  0  0  0  0  0  0  0
  -31.7576  -19.2490   21.9243 N   0  0  0  0  0  0  0  0  0  0  0  0
  -29.9376  -20.4815   22.8550 N   0  0  0  0  0  0  0  0  0  0  0  0
  -30.7481  -14.7877   22.0799 N   0  0  0  0  0  0  0  0  0  0  0  0
  -30.1218  -17.8551   23.3607 S   0  0  0  0  0  0  0  0  0  0  0  0
  -31.4485  -12.4701   19.0860 H   0  0  0  0  0  0  0  0  0  0  0  0
  -30.3970  -11.2460   19.6950 H   0  0  0  0  0  0  0  0  0  0  0  0
  -29.6870  -11.8204   17.4226 H   0  0  0  0  0  0  0  0  0  0  0  0
  -29.6375  -13.5326   17.8649 H   0  0  0  0  0  0  0  0  0  0  0  0
  -27.7830  -11.3650   18.7904 H   0  0  0  0  0  0  0  0  0  0  0  0
  -27.4028  -12.7801   17.8021 H   0  0  0  0  0  0  0  0  0  0  0  0
  -27.7353  -14.2503   19.6136 H   0  0  0  0  0  0  0  0  0  0  0  0
  -28.5890  -11.9550   21.3832 H   0  0  0  0  0  0  0  0  0  0  0  0
  -28.5005  -13.6134   21.8562 H   0  0  0  0  0  0  0  0  0  0  0  0
  -25.2399   -9.5495   22.4318 H   0  0  0  0  0  0  0  0  0  0  0  0
  -23.9663   -7.5070   22.7297 H   0  0  0  0  0  0  0  0  0  0  0  0
  -21.1515   -8.8641   19.9162 H   0  0  0  0  0  0  0  0  0  0  0  0
  -22.4016  -10.9115   19.6476 H   0  0  0  0  0  0  0  0  0  0  0  0
  -21.2319   -7.5552   23.9750 H   0  0  0  0  0  0  0  0  0  0  0  0
  -21.1589   -6.0228   25.8556 H   0  0  0  0  0  0  0  0  0  0  0  0
  -22.0396   -2.8212   23.2809 H   0  0  0  0  0  0  0  0  0  0  0  0
  -22.4401  -11.9703   22.4008 H   0  0  0  0  0  0  0  0  0  0  0  0
  -21.1493  -13.0679   22.2082 H   0  0  0  0  0  0  0  0  0  0  0  0
  -24.6538  -15.7807   20.5848 H   0  0  0  0  0  0  0  0  0  0  0  0
  -26.2762  -15.5453   20.1156 H   0  0  0  0  0  0  0  0  0  0  0  0
  -26.6778  -32.4663   23.1464 H   0  0  0  0  0  0  0  0  0  0  0  0
  -25.0747  -34.0282   25.0566 H   0  0  0  0  0  0  0  0  0  0  0  0
  -22.7881  -31.3489   21.4131 H   0  0  0  0  0  0  0  0  0  0  0  0
  -23.3854  -35.9823   23.3648 H   0  0  0  0  0  0  0  0  0  0  0  0
  -24.3696  -36.8624   22.2204 H   0  0  0  0  0  0  0  0  0  0  0  0
  -23.7669  -37.6632   23.6516 H   0  0  0  0  0  0  0  0  0  0  0  0
  -25.9445  -31.6237   20.5691 H   0  0  0  0  0  0  0  0  0  0  0  0
  -26.7436  -31.0079   22.0108 H   0  0  0  0  0  0  0  0  0  0  0  0
  -28.0090  -29.1452   21.2057 H   0  0  0  0  0  0  0  0  0  0  0  0
  -26.1369  -26.0560   19.0719 H   0  0  0  0  0  0  0  0  0  0  0  0
  -24.0652  -27.2961   19.0997 H   0  0  0  0  0  0  0  0  0  0  0  0
  -23.6156  -30.5365   19.3930 H   0  0  0  0  0  0  0  0  0  0  0  0
  -22.7355  -29.1425   19.9945 H   0  0  0  0  0  0  0  0  0  0  0  0
  -25.1353  -36.2335   25.0565 H   0  0  0  0  0  0  0  0  0  0  0  0
  -21.0070  -28.3206   24.0793 H   0  0  0  0  0  0  0  0  0  0  0  0
  -20.5555  -26.2518   23.3550 H   0  0  0  0  0  0  0  0  0  0  0  0
  -21.5974  -26.8362   22.0454 H   0  0  0  0  0  0  0  0  0  0  0  0
  -19.6810  -25.6422   21.1488 H   0  0  0  0  0  0  0  0  0  0  0  0
  -19.6406  -27.3343   20.7034 H   0  0  0  0  0  0  0  0  0  0  0  0
  -17.4282  -26.6888   21.4113 H   0  0  0  0  0  0  0  0  0  0  0  0
  -18.0803  -26.0130   22.9049 H   0  0  0  0  0  0  0  0  0  0  0  0
  -19.7265  -30.6774   24.2204 H   0  0  0  0  0  0  0  0  0  0  0  0
  -17.5064  -31.5856   24.4483 H   0  0  0  0  0  0  0  0  0  0  0  0
  -15.5878  -30.2839   23.7407 H   0  0  0  0  0  0  0  0  0  0  0  0
  -15.9120  -28.0941   22.7766 H   0  0  0  0  0  0  0  0  0  0  0  0
  -24.5787  -30.7757   25.6817 H   0  0  0  0  0  0  0  0  0  0  0  0
  -25.0041  -32.2289   26.5536 H   0  0  0  0  0  0  0  0  0  0  0  0
  -25.8166  -30.7245   26.9138 H   0  0  0  0  0  0  0  0  0  0  0  0
  -26.2892  -29.7335   24.0803 H   0  0  0  0  0  0  0  0  0  0  0  0
  -27.4336  -29.7484   25.4006 H   0  0  0  0  0  0  0  0  0  0  0  0
  -27.8466  -30.4994   23.8779 H   0  0  0  0  0  0  0  0  0  0  0  0
  -27.2251  -33.3632   26.1242 H   0  0  0  0  0  0  0  0  0  0  0  0
  -28.3902  -32.6065   25.0645 H   0  0  0  0  0  0  0  0  0  0  0  0
  -27.9772  -31.8555   26.5872 H   0  0  0  0  0  0  0  0  0  0  0  0
  -28.2744  -38.0016   24.6863 H   0  0  0  0  0  0  0  0  0  0  0  0
  -28.0396  -36.2711   24.7461 H   0  0  0  0  0  0  0  0  0  0  0  0
  -27.1773  -37.3087   25.8564 H   0  0  0  0  0  0  0  0  0  0  0  0
  -20.9627  -29.9365   21.7352 H   0  0  0  0  0  0  0  0  0  0  0  0
  -26.0447  -38.2561   24.0273 H   0  0  0  0  0  0  0  0  0  0  0  0
  -33.0662  -17.6610   21.4229 H   0  0  0  0  0  0  0  0  0  0  0  0
  -31.5038  -15.3789   23.8971 H   0  0  0  0  0  0  0  0  0  0  0  0
  -32.6501  -15.3618   22.5450 H   0  0  0  0  0  0  0  0  0  0  0  0
  -31.2716  -22.0425   22.6635 H   0  0  0  0  0  0  0  0  0  0  0  0
  -30.3216  -21.6894   21.2327 H   0  0  0  0  0  0  0  0  0  0  0  0
  -29.6109  -23.1875   23.6594 H   0  0  0  0  0  0  0  0  0  0  0  0
  -28.3709  -22.2863   22.6244 H   0  0  0  0  0  0  0  0  0  0  0  0
  -29.1279  -20.4310   23.4127 H   0  0  0  0  0  0  0  0  0  0  0  0
  -29.9716  -14.4571   22.5868 H   0  0  0  0  0  0  0  0  0  0  0  0
  1 25  1  0  0  0  0
  1 30  2  0  0  0  0
  1 79  1  0  0  0  0
  2  3  1  0  0  0  0
  2 25  1  0  0  0  0
  2 81  1  0  0  0  0
  2 82  1  0  0  0  0
  3  4  1  0  0  0  0
  3 83  1  0  0  0  0
  3 84  1  0  0  0  0
  4  5  1  0  0  0  0
  4 85  1  0  0  0  0
  4 86  1  0  0  0  0
  5  6  1  0  0  0  0
  5 26  1  0  0  0  0
  5 87  1  6  0  0  0
  6 25  1  0  0  0  0
  6 88  1  0  0  0  0
  6 89  1  0  0  0  0
  7  8  2  0  0  0  0
  7 26  1  0  0  0  0
  7 29  1  0  0  0  0
  8  9  1  0  0  0  0
  8 22  1  0  0  0  0
  9 10  1  0  0  0  0
  9 27  2  0  0  0  0
 10 11  2  0  0  0  0
 10 15  1  0  0  0  0
 11 12  1  0  0  0  0
 11 90  1  0  0  0  0
 12 13  2  0  0  0  0
 12 91  1  0  0  0  0
 13 14  1  0  0  0  0
 13 31  1  0  0  0  0
 14 15  2  0  0  0  0
 14 92  1  0  0  0  0
 15 93  1  0  0  0  0
 16 17  2  0  0  0  0
 16 21  1  0  0  0  0
 16 31  1  0  0  0  0
 17 18  1  0  0  0  0
 17 94  1  0  0  0  0
 18 19  2  0  0  0  0
 18 95  1  0  0  0  0
 19 20  1  0  0  0  0
 19 24  1  0  0  0  0
 20 21  2  0  0  0  0
 20 96  1  0  0  0  0
 21 23  1  0  0  0  0
 22 28  1  0  0  0  0
 22 32  2  0  0  0  0
 26 27  1  0  0  0  0
 28 97  1  0  0  0  0
 28 98  1  0  0  0  0
 29 99  1  0  0  0  0
 29100  1  0  0  0  0
 33 34  1  0  0  0  0
 33 66  1  0  0  0  0
 33 70  2  0  0  0  0
 34 36  1  0  0  0  0
 34 59  1  0  0  0  0
 34101  1  6  0  0  0
 35 44  2  0  0  0  0
 35 45  1  0  0  0  0
 35 68  1  0  0  0  0
 36 56  1  0  0  0  0
 36102  1  0  0  0  0
 37 39  1  0  0  0  0
 37 47  1  0  0  0  0
 37 66  1  0  0  0  0
 37103  1  6  0  0  0
 38 43  2  0  0  0  0
 38 46  1  0  0  0  0
 38 47  1  0  0  0  0
 39 64  1  0  0  0  0
 39 67  2  0  0  0  0
 40 52  1  0  0  0  0
 40 53  2  0  0  0  0
 40 58  1  0  0  0  0
 41104  1  0  0  0  0
 41105  1  0  0  0  0
 41106  1  0  0  0  0
 42 43  1  0  0  0  0
 42 66  1  0  0  0  0
 42107  1  0  0  0  0
 42108  1  0  0  0  0
 43 44  1  0  0  0  0
 44109  1  0  0  0  0
 45 46  2  0  0  0  0
 45110  1  0  0  0  0
 46111  1  0  0  0  0
 47112  1  0  0  0  0
 47113  1  0  0  0  0
 48 41  1  0  0  0  0
 48 56  1  0  0  0  0
 48 65  1  0  0  0  0
 48114  1  1  0  0  0
 49 50  1  0  0  0  0
 49 53  1  0  0  0  0
 49 64  1  0  0  0  0
 49115  1  1  0  0  0
 50 51  1  0  0  0  0
 50116  1  0  0  0  0
 50117  1  0  0  0  0
 51 52  1  0  0  0  0
 51118  1  0  0  0  0
 51119  1  0  0  0  0
 52120  1  0  0  0  0
 52121  1  0  0  0  0
 53 54  1  0  0  0  0
 54 55  2  0  0  0  0
 54122  1  0  0  0  0
 55 57  1  0  0  0  0
 55123  1  0  0  0  0
 56 69  2  0  0  0  0
 57 58  2  0  0  0  0
 57124  1  0  0  0  0
 58125  1  0  0  0  0
 59 60  1  0  0  0  0
 59 61  1  0  0  0  0
 59 62  1  0  0  0  0
 60126  1  0  0  0  0
 60127  1  0  0  0  0
 60128  1  0  0  0  0
 61129  1  0  0  0  0
 61130  1  0  0  0  0
 61131  1  0  0  0  0
 62132  1  0  0  0  0
 62133  1  0  0  0  0
 62134  1  0  0  0  0
 63 65  1  0  0  0  0
 63135  1  0  0  0  0
 63136  1  0  0  0  0
 63137  1  0  0  0  0
 64138  1  0  0  0  0
 65139  1  0  0  0  0
 68 76  1  0  0  0  0
 71 72  2  0  0  0  0
 71 77  1  0  0  0  0
 71140  1  0  0  0  0
 72 74  1  0  0  0  0
 72 80  1  0  0  0  0
 73 77  2  0  0  0  0
 73 78  1  0  0  0  0
 73 80  1  0  0  0  0
 74 79  1  0  0  0  0
 74141  1  0  0  0  0
 74142  1  0  0  0  0
 75 76  1  0  0  0  0
 75 78  1  0  0  0  0
 75143  1  0  0  0  0
 75144  1  0  0  0  0
 76145  1  0  0  0  0
 76146  1  0  0  0  0
 78147  1  0  0  0  0
 79148  1  0  0  0  0
M  ISO  4   1 100  68 101  76 101  79 100
M  END
$$$$
20
 OpenBabel04052305473D

157165  0  0  0  0  0  0  0  0999 V2000
  -30.7652  -14.3608   20.6636 C   0  0  0  0  0  0  0  0  0  0  0  0
  -30.4392  -12.2669   19.3775 C   0  0  0  0  0  0  0  0  0  0  0  0
  -29.4791  -12.5281   18.1977 C   0  0  0  0  0  0  0  0  0  0  0  0
  -27.9985  -12.3963   18.6038 C   0  0  0  0  0  0  0  0  0  0  0  0
  -27.6639  -13.2170   19.8820 C   0  0  2  0  0  0  0  0  0  0  0  0
  -28.6795  -12.9602   21.0279 C   0  0  0  0  0  0  0  0  0  0  0  0
  -25.2633  -13.8245   20.5754 C   0  0  0  0  0  0  0  0  0  0  0  0
  -24.1645  -13.0409   20.9408 C   0  0  0  0  0  0  0  0  0  0  0  0
  -24.6400  -11.7009   20.8697 C   0  0  0  0  0  0  0  0  0  0  0  0
  -23.9005  -10.4085   21.0420 C   0  0  0  0  0  0  0  0  0  0  0  0
  -24.3588   -9.4123   21.9123 C   0  0  0  0  0  0  0  0  0  0  0  0
  -23.6296   -8.2350   22.0803 C   0  0  0  0  0  0  0  0  0  0  0  0
  -22.4385   -8.0419   21.3657 C   0  0  0  0  0  0  0  0  0  0  0  0
  -22.0103   -9.0167   20.4678 C   0  0  0  0  0  0  0  0  0  0  0  0
  -22.7317  -10.1925   20.3102 C   0  0  0  0  0  0  0  0  0  0  0  0
  -21.6857   -6.0709   22.5391 C   0  0  0  0  0  0  0  0  0  0  0  0
  -21.4064   -6.5490   23.8264 C   0  0  0  0  0  0  0  0  0  0  0  0
  -21.3635   -5.6677   24.9085 C   0  0  0  0  0  0  0  0  0  0  0  0
  -21.5973   -4.3067   24.7088 C   0  0  0  0  0  0  0  0  0  0  0  0
  -21.8700   -3.8284   23.4282 C   0  0  0  0  0  0  0  0  0  0  0  0
  -21.9144   -4.7056   22.3460 C   0  0  0  0  0  0  0  0  0  0  0  0
  -22.8194  -13.5263   21.1763 C   0  0  0  0  0  0  0  0  0  0  0  0
  -22.1559   -4.2206   21.1063 F   0  0  0  0  0  0  0  0  0  0  0  0
  -21.5628   -3.4510   25.7555 F   0  0  0  0  0  0  0  0  0  0  0  0
  -30.0261  -13.1803   20.4553 N   0  0  0  0  0  0  0  0  0  0  0  0
  -26.2911  -12.9356   20.3443 N   0  0  0  0  0  0  0  0  0  0  0  0
  -25.9236  -11.6675   20.5847 N   0  0  0  0  0  0  0  0  0  0  0  0
  -22.0708  -12.7905   22.0005 N   0  0  0  0  0  0  0  0  0  0  0  0
  -25.4117  -15.1773   20.4097 N   0  0  0  0  0  0  0  0  0  0  0  0
  -31.7916  -14.6724   20.0536 O   0  0  0  0  0  0  0  0  0  0  0  0
  -21.6670   -6.9022   21.4423 O   0  0  0  0  0  0  0  0  0  0  0  0
  -22.3946  -14.5564   20.6568 O   0  0  0  0  0  0  0  0  0  0  0  0
  -24.6048  -31.8614   23.2223 C   0  0  0  0  0  0  0  0  0  0  0  0
  -25.8822  -32.4841   23.8616 C   0  0  1  0  0  0  0  0  0  0  0  0
  -27.2536  -27.5042   20.1156 C   0  0  0  0  0  0  0  0  0  0  0  0
  -25.5726  -33.8762   24.2210 N   0  0  0  0  0  0  0  0  0  0  0  0
  -23.4066  -30.4859   21.5461 C   0  0  2  0  0  0  0  0  0  0  0  0
  -24.8467  -28.9636   20.1247 C   0  0  0  0  0  0  0  0  0  0  0  0
  -22.7412  -29.4652   22.5052 C   0  0  0  0  0  0  0  0  0  0  0  0
  -18.0167  -28.1302   22.8626 C   0  0  0  0  0  0  0  0  0  0  0  0
  -24.1342  -36.7390   23.2568 C   0  0  0  0  0  0  0  0  0  0  0  0
  -25.9141  -30.8882   21.3456 C   0  0  0  0  0  0  0  0  0  0  0  0
  -25.9930  -29.5029   20.7208 C   0  0  0  0  0  0  0  0  0  0  0  0
  -27.1758  -28.7612   20.7331 C   0  0  0  0  0  0  0  0  0  0  0  0
  -26.1032  -26.9836   19.5230 C   0  0  0  0  0  0  0  0  0  0  0  0
  -24.9097  -27.7011   19.5331 C   0  0  0  0  0  0  0  0  0  0  0  0
  -23.5715  -29.7899   20.1582 C   0  0  0  0  0  0  0  0  0  0  0  0
  -25.3990  -36.3212   24.0232 C   0  0  1  0  0  0  0  0  0  0  0  0
  -20.5793  -28.3813   23.1004 C   0  0  2  0  0  0  0  0  0  0  0  0
  -20.6548  -26.9392   22.5411 C   0  0  0  0  0  0  0  0  0  0  0  0
  -19.5615  -26.6407   21.5143 C   0  0  0  0  0  0  0  0  0  0  0  0
  -18.1797  -26.7818   22.1673 C   0  0  0  0  0  0  0  0  0  0  0  0
  -19.1385  -28.8769   23.2988 C   0  0  0  0  0  0  0  0  0  0  0  0
  -18.9183  -30.1286   23.8878 C   0  0  0  0  0  0  0  0  0  0  0  0
  -17.6396  -30.6493   24.0352 C   0  0  0  0  0  0  0  0  0  0  0  0
  -25.9153  -34.9582   23.4993 C   0  0  0  0  0  0  0  0  0  0  0  0
  -16.5415  -29.9068   23.6254 C   0  0  0  0  0  0  0  0  0  0  0  0
  -16.7331  -28.6521   23.0586 C   0  0  0  0  0  0  0  0  0  0  0  0
  -26.4583  -31.6439   25.0683 C   0  0  0  0  0  0  0  0  0  0  0  0
  -25.3807  -31.3179   26.1374 C   0  0  0  0  0  0  0  0  0  0  0  0
  -27.0530  -30.3024   24.5680 C   0  0  0  0  0  0  0  0  0  0  0  0
  -27.6014  -32.4281   25.7651 C   0  0  0  0  0  0  0  0  0  0  0  0
  -27.5629  -37.2220   24.8621 C   0  0  0  0  0  0  0  0  0  0  0  0
  -21.4133  -29.3375   22.3735 N   0  0  0  0  0  0  0  0  0  0  0  0
  -26.4706  -37.3372   23.9061 N   0  0  0  0  0  0  0  0  0  0  0  0
  -24.6674  -31.0544   22.1178 N   0  0  0  0  0  0  0  0  0  0  0  0
  -23.4259  -28.8150   23.2971 O   0  0  0  0  0  0  0  0  0  0  0  0
  -28.3948  -26.7345   20.0089 O   0  0  0  0  0  0  0  0  0  0  0  0
  -26.5870  -34.9065   22.4671 O   0  0  0  0  0  0  0  0  0  0  0  0
  -23.5365  -32.1254   23.7833 O   0  0  0  0  0  0  0  0  0  0  0  0
  -31.2466  -19.3220   19.2837 C   0  0  0  0  0  0  0  0  0  0  0  0
  -30.5647  -18.0102   20.9037 C   0  0  0  0  0  0  0  0  0  0  0  0
  -29.4136  -18.7517   20.7389 C   0  0  0  0  0  0  0  0  0  0  0  0
  -26.3637  -18.9756   19.9182 C   0  0  0  0  0  0  0  0  0  0  0  0
  -25.7335  -20.0028   24.8137 C   0  0  0  0  0  0  0  0  0  0  0  0
  -30.7675  -16.9164   21.8772 C   0  0  0  0  0  0  0  0  0  0  0  0
  -26.1169  -19.4436   22.3846 C   0  0  0  0  0  0  0  0  0  0  0  0
  -27.0669  -19.4779   21.1763 C   0  0  1  0  0  0  0  0  0  0  0  0
  -26.7425  -19.9969   23.6724 C   0  0  1  0  0  0  0  0  0  0  0  0
  -31.6167  -18.3355   20.0699 N   0  0  0  0  0  0  0  0  0  0  0  0
  -28.2208  -18.6410   21.4308 N   0  0  0  0  0  0  0  0  0  0  0  0
  -30.1085  -15.6896   21.4879 N   0  0  0  0  0  0  0  0  0  0  0  0
  -29.6471  -19.9074   19.4934 S   0  0  0  0  0  0  0  0  0  0  0  0
  -31.4485  -12.4701   19.0860 H   0  0  0  0  0  0  0  0  0  0  0  0
  -30.3970  -11.2460   19.6950 H   0  0  0  0  0  0  0  0  0  0  0  0
  -29.6870  -11.8204   17.4226 H   0  0  0  0  0  0  0  0  0  0  0  0
  -29.6375  -13.5326   17.8649 H   0  0  0  0  0  0  0  0  0  0  0  0
  -27.7830  -11.3650   18.7904 H   0  0  0  0  0  0  0  0  0  0  0  0
  -27.4028  -12.7801   17.8021 H   0  0  0  0  0  0  0  0  0  0  0  0
  -27.7353  -14.2503   19.6136 H   0  0  0  0  0  0  0  0  0  0  0  0
  -28.5890  -11.9550   21.3832 H   0  0  0  0  0  0  0  0  0  0  0  0
  -28.5005  -13.6134   21.8562 H   0  0  0  0  0  0  0  0  0  0  0  0
  -25.2399   -9.5495   22.4318 H   0  0  0  0  0  0  0  0  0  0  0  0
  -23.9663   -7.5070   22.7297 H   0  0  0  0  0  0  0  0  0  0  0  0
  -21.1515   -8.8641   19.9162 H   0  0  0  0  0  0  0  0  0  0  0  0
  -22.4016  -10.9115   19.6476 H   0  0  0  0  0  0  0  0  0  0  0  0
  -21.2319   -7.5552   23.9750 H   0  0  0  0  0  0  0  0  0  0  0  0
  -21.1589   -6.0228   25.8556 H   0  0  0  0  0  0  0  0  0  0  0  0
  -22.0396   -2.8212   23.2809 H   0  0  0  0  0  0  0  0  0  0  0  0
  -22.4401  -11.9703   22.4008 H   0  0  0  0  0  0  0  0  0  0  0  0
  -21.1493  -13.0679   22.2082 H   0  0  0  0  0  0  0  0  0  0  0  0
  -24.6538  -15.7807   20.5848 H   0  0  0  0  0  0  0  0  0  0  0  0
  -26.2762  -15.5453   20.1156 H   0  0  0  0  0  0  0  0  0  0  0  0
  -26.6778  -32.4663   23.1464 H   0  0  0  0  0  0  0  0  0  0  0  0
  -25.0747  -34.0282   25.0566 H   0  0  0  0  0  0  0  0  0  0  0  0
  -22.7881  -31.3489   21.4131 H   0  0  0  0  0  0  0  0  0  0  0  0
  -23.3854  -35.9823   23.3648 H   0  0  0  0  0  0  0  0  0  0  0  0
  -24.3696  -36.8624   22.2204 H   0  0  0  0  0  0  0  0  0  0  0  0
  -23.7669  -37.6632   23.6516 H   0  0  0  0  0  0  0  0  0  0  0  0
  -25.9445  -31.6237   20.5691 H   0  0  0  0  0  0  0  0  0  0  0  0
  -26.7436  -31.0079   22.0108 H   0  0  0  0  0  0  0  0  0  0  0  0
  -28.0090  -29.1452   21.2057 H   0  0  0  0  0  0  0  0  0  0  0  0
  -26.1369  -26.0560   19.0719 H   0  0  0  0  0  0  0  0  0  0  0  0
  -24.0652  -27.2961   19.0997 H   0  0  0  0  0  0  0  0  0  0  0  0
  -23.6156  -30.5365   19.3930 H   0  0  0  0  0  0  0  0  0  0  0  0
  -22.7355  -29.1425   19.9945 H   0  0  0  0  0  0  0  0  0  0  0  0
  -25.1353  -36.2335   25.0565 H   0  0  0  0  0  0  0  0  0  0  0  0
  -21.0070  -28.3206   24.0793 H   0  0  0  0  0  0  0  0  0  0  0  0
  -20.5555  -26.2518   23.3550 H   0  0  0  0  0  0  0  0  0  0  0  0
  -21.5974  -26.8362   22.0454 H   0  0  0  0  0  0  0  0  0  0  0  0
  -19.6810  -25.6422   21.1488 H   0  0  0  0  0  0  0  0  0  0  0  0
  -19.6406  -27.3343   20.7034 H   0  0  0  0  0  0  0  0  0  0  0  0
  -17.4282  -26.6888   21.4113 H   0  0  0  0  0  0  0  0  0  0  0  0
  -18.0803  -26.0130   22.9049 H   0  0  0  0  0  0  0  0  0  0  0  0
  -19.7265  -30.6774   24.2204 H   0  0  0  0  0  0  0  0  0  0  0  0
  -17.5064  -31.5856   24.4483 H   0  0  0  0  0  0  0  0  0  0  0  0
  -15.5878  -30.2839   23.7407 H   0  0  0  0  0  0  0  0  0  0  0  0
  -15.9120  -28.0941   22.7766 H   0  0  0  0  0  0  0  0  0  0  0  0
  -24.5787  -30.7757   25.6817 H   0  0  0  0  0  0  0  0  0  0  0  0
  -25.0041  -32.2289   26.5536 H   0  0  0  0  0  0  0  0  0  0  0  0
  -25.8166  -30.7245   26.9138 H   0  0  0  0  0  0  0  0  0  0  0  0
  -26.2892  -29.7335   24.0803 H   0  0  0  0  0  0  0  0  0  0  0  0
  -27.4336  -29.7484   25.4006 H   0  0  0  0  0  0  0  0  0  0  0  0
  -27.8466  -30.4994   23.8779 H   0  0  0  0  0  0  0  0  0  0  0  0
  -27.2251  -33.3632   26.1242 H   0  0  0  0  0  0  0  0  0  0  0  0
  -28.3902  -32.6065   25.0645 H   0  0  0  0  0  0  0  0  0  0  0  0
  -27.9772  -31.8555   26.5872 H   0  0  0  0  0  0  0  0  0  0  0  0
  -28.2744  -38.0016   24.6863 H   0  0  0  0  0  0  0  0  0  0  0  0
  -28.0396  -36.2711   24.7461 H   0  0  0  0  0  0  0  0  0  0  0  0
  -27.1773  -37.3087   25.8564 H   0  0  0  0  0  0  0  0  0  0  0  0
  -20.9627  -29.9365   21.7352 H   0  0  0  0  0  0  0  0  0  0  0  0
  -26.0447  -38.2561   24.0273 H   0  0  0  0  0  0  0  0  0  0  0  0
  -31.8840  -19.7230   18.5780 H   0  0  0  0  0  0  0  0  0  0  0  0
  -25.5083  -19.5869   19.7196 H   0  0  0  0  0  0  0  0  0  0  0  0
  -26.0520  -17.9625   20.0642 H   0  0  0  0  0  0  0  0  0  0  0  0
  -27.0379  -19.0253   19.0888 H   0  0  0  0  0  0  0  0  0  0  0  0
  -25.6257  -19.0107   25.1996 H   0  0  0  0  0  0  0  0  0  0  0  0
  -24.7880  -20.3495   24.4521 H   0  0  0  0  0  0  0  0  0  0  0  0
  -26.0780  -20.6524   25.5910 H   0  0  0  0  0  0  0  0  0  0  0  0
  -30.3801  -17.2265   22.8252 H   0  0  0  0  0  0  0  0  0  0  0  0
  -31.8178  -16.7170   21.9232 H   0  0  0  0  0  0  0  0  0  0  0  0
  -25.8267  -18.4285   22.5583 H   0  0  0  0  0  0  0  0  0  0  0  0
  -25.2825  -20.0697   22.1463 H   0  0  0  0  0  0  0  0  0  0  0  0
  -27.3743  -20.4918   21.0264 H   0  0  0  0  0  0  0  0  0  0  0  0
  -27.5487  -19.5257   24.1948 H   0  0  0  0  0  0  0  0  0  0  0  0
  -28.1528  -17.9559   22.1345 H   0  0  0  0  0  0  0  0  0  0  0  0
  -29.1577  -15.6164   21.7324 H   0  0  0  0  0  0  0  0  0  0  0  0
  1 25  1  0  0  0  0
  1 30  2  0  0  0  0
  1 82  1  0  0  0  0
  2  3  1  0  0  0  0
  2 25  1  0  0  0  0
  2 84  1  0  0  0  0
  2 85  1  0  0  0  0
  3  4  1  0  0  0  0
  3 86  1  0  0  0  0
  3 87  1  0  0  0  0
  4  5  1  0  0  0  0
  4 88  1  0  0  0  0
  4 89  1  0  0  0  0
  5  6  1  0  0  0  0
  5 26  1  0  0  0  0
  5 90  1  6  0  0  0
  6 25  1  0  0  0  0
  6 91  1  0  0  0  0
  6 92  1  0  0  0  0
  7  8  2  0  0  0  0
  7 26  1  0  0  0  0
  7 29  1  0  0  0  0
  8  9  1  0  0  0  0
  8 22  1  0  0  0  0
  9 10  1  0  0  0  0
  9 27  2  0  0  0  0
 10 11  2  0  0  0  0
 10 15  1  0  0  0  0
 11 12  1  0  0  0  0
 11 93  1  0  0  0  0
 12 13  2  0  0  0  0
 12 94  1  0  0  0  0
 13 14  1  0  0  0  0
 13 31  1  0  0  0  0
 14 15  2  0  0  0  0
 14 95  1  0  0  0  0
 15 96  1  0  0  0  0
 16 17  2  0  0  0  0
 16 21  1  0  0  0  0
 16 31  1  0  0  0  0
 17 18  1  0  0  0  0
 17 97  1  0  0  0  0
 18 19  2  0  0  0  0
 18 98  1  0  0  0  0
 19 20  1  0  0  0  0
 19 24  1  0  0  0  0
 20 21  2  0  0  0  0
 20 99  1  0  0  0  0
 21 23  1  0  0  0  0
 22 28  1  0  0  0  0
 22 32  2  0  0  0  0
 26 27  1  0  0  0  0
 28100  1  0  0  0  0
 28101  1  0  0  0  0
 29102  1  0  0  0  0
 29103  1  0  0  0  0
 33 34  1  0  0  0  0
 33 66  1  0  0  0  0
 33 70  2  0  0  0  0
 34 36  1  0  0  0  0
 34 59  1  0  0  0  0
 34104  1  6  0  0  0
 35 44  2  0  0  0  0
 35 45  1  0  0  0  0
 35 68  1  0  0  0  0
 36 56  1  0  0  0  0
 36105  1  0  0  0  0
 37 39  1  0  0  0  0
 37 47  1  0  0  0  0
 37 66  1  0  0  0  0
 37106  1  6  0  0  0
 38 43  2  0  0  0  0
 38 46  1  0  0  0  0
 38 47  1  0  0  0  0
 39 64  1  0  0  0  0
 39 67  2  0  0  0  0
 40 52  1  0  0  0  0
 40 53  2  0  0  0  0
 40 58  1  0  0  0  0
 41107  1  0  0  0  0
 41108  1  0  0  0  0
 41109  1  0  0  0  0
 42 43  1  0  0  0  0
 42 66  1  0  0  0  0
 42110  1  0  0  0  0
 42111  1  0  0  0  0
 43 44  1  0  0  0  0
 44112  1  0  0  0  0
 45 46  2  0  0  0  0
 45113  1  0  0  0  0
 46114  1  0  0  0  0
 47115  1  0  0  0  0
 47116  1  0  0  0  0
 48 41  1  0  0  0  0
 48 56  1  0  0  0  0
 48 65  1  0  0  0  0
 48117  1  1  0  0  0
 49 50  1  0  0  0  0
 49 53  1  0  0  0  0
 49 64  1  0  0  0  0
 49118  1  1  0  0  0
 50 51  1  0  0  0  0
 50119  1  0  0  0  0
 50120  1  0  0  0  0
 51 52  1  0  0  0  0
 51121  1  0  0  0  0
 51122  1  0  0  0  0
 52123  1  0  0  0  0
 52124  1  0  0  0  0
 53 54  1  0  0  0  0
 54 55  2  0  0  0  0
 54125  1  0  0  0  0
 55 57  1  0  0  0  0
 55126  1  0  0  0  0
 56 69  2  0  0  0  0
 57 58  2  0  0  0  0
 57127  1  0  0  0  0
 58128  1  0  0  0  0
 59 60  1  0  0  0  0
 59 61  1  0  0  0  0
 59 62  1  0  0  0  0
 60129  1  0  0  0  0
 60130  1  0  0  0  0
 60131  1  0  0  0  0
 61132  1  0  0  0  0
 61133  1  0  0  0  0
 61134  1  0  0  0  0
 62135  1  0  0  0  0
 62136  1  0  0  0  0
 62137  1  0  0  0  0
 63 65  1  0  0  0  0
 63138  1  0  0  0  0
 63139  1  0  0  0  0
 63140  1  0  0  0  0
 64141  1  0  0  0  0
 65142  1  0  0  0  0
 68 79  1  0  0  0  0
 71 80  2  0  0  0  0
 71 83  1  0  0  0  0
 71143  1  0  0  0  0
 72 73  2  0  0  0  0
 72 76  1  0  0  0  0
 72 80  1  0  0  0  0
 73 81  1  0  0  0  0
 73 83  1  0  0  0  0
 74144  1  0  0  0  0
 74145  1  0  0  0  0
 74146  1  0  0  0  0
 75147  1  0  0  0  0
 75148  1  0  0  0  0
 75149  1  0  0  0  0
 76 82  1  0  0  0  0
 76150  1  0  0  0  0
 76151  1  0  0  0  0
 77 78  1  0  0  0  0
 77 79  1  0  0  0  0
 77152  1  0  0  0  0
 77153  1  0  0  0  0
 78 74  1  0  0  0  0
 78 81  1  0  0  0  0
 78154  1  6  0  0  0
 79 75  1  0  0  0  0
 79155  1  1  0  0  0
 81156  1  0  0  0  0
 82157  1  0  0  0  0
M  ISO  4   1 100  68 101  79 101  82 100
M  END
$$$$
21
 OpenBabel04052305473D

149157  0  0  0  0  0  0  0  0999 V2000
  -30.7652  -14.3608   20.6636 C   0  0  0  0  0  0  0  0  0  0  0  0
  -30.4392  -12.2669   19.3775 C   0  0  0  0  0  0  0  0  0  0  0  0
  -29.4791  -12.5281   18.1977 C   0  0  0  0  0  0  0  0  0  0  0  0
  -27.9985  -12.3963   18.6038 C   0  0  0  0  0  0  0  0  0  0  0  0
  -27.6639  -13.2170   19.8820 C   0  0  2  0  0  0  0  0  0  0  0  0
  -28.6795  -12.9602   21.0279 C   0  0  0  0  0  0  0  0  0  0  0  0
  -25.2633  -13.8245   20.5754 C   0  0  0  0  0  0  0  0  0  0  0  0
  -24.1645  -13.0409   20.9408 C   0  0  0  0  0  0  0  0  0  0  0  0
  -24.6400  -11.7009   20.8697 C   0  0  0  0  0  0  0  0  0  0  0  0
  -23.9005  -10.4085   21.0420 C   0  0  0  0  0  0  0  0  0  0  0  0
  -24.3588   -9.4123   21.9123 C   0  0  0  0  0  0  0  0  0  0  0  0
  -23.6296   -8.2350   22.0803 C   0  0  0  0  0  0  0  0  0  0  0  0
  -22.4385   -8.0419   21.3657 C   0  0  0  0  0  0  0  0  0  0  0  0
  -22.0103   -9.0167   20.4678 C   0  0  0  0  0  0  0  0  0  0  0  0
  -22.7317  -10.1925   20.3102 C   0  0  0  0  0  0  0  0  0  0  0  0
  -21.6857   -6.0709   22.5391 C   0  0  0  0  0  0  0  0  0  0  0  0
  -21.4064   -6.5490   23.8264 C   0  0  0  0  0  0  0  0  0  0  0  0
  -21.3635   -5.6677   24.9085 C   0  0  0  0  0  0  0  0  0  0  0  0
  -21.5973   -4.3067   24.7088 C   0  0  0  0  0  0  0  0  0  0  0  0
  -21.8700   -3.8284   23.4282 C   0  0  0  0  0  0  0  0  0  0  0  0
  -21.9144   -4.7056   22.3460 C   0  0  0  0  0  0  0  0  0  0  0  0
  -22.8194  -13.5263   21.1763 C   0  0  0  0  0  0  0  0  0  0  0  0
  -22.1559   -4.2206   21.1063 F   0  0  0  0  0  0  0  0  0  0  0  0
  -21.5628   -3.4510   25.7555 F   0  0  0  0  0  0  0  0  0  0  0  0
  -30.0261  -13.1803   20.4553 N   0  0  0  0  0  0  0  0  0  0  0  0
  -26.2911  -12.9356   20.3443 N   0  0  0  0  0  0  0  0  0  0  0  0
  -25.9236  -11.6675   20.5847 N   0  0  0  0  0  0  0  0  0  0  0  0
  -22.0708  -12.7905   22.0005 N   0  0  0  0  0  0  0  0  0  0  0  0
  -25.4117  -15.1773   20.4097 N   0  0  0  0  0  0  0  0  0  0  0  0
  -31.7916  -14.6724   20.0536 O   0  0  0  0  0  0  0  0  0  0  0  0
  -21.6670   -6.9022   21.4423 O   0  0  0  0  0  0  0  0  0  0  0  0
  -22.3946  -14.5564   20.6568 O   0  0  0  0  0  0  0  0  0  0  0  0
  -24.6048  -31.8614   23.2223 C   0  0  0  0  0  0  0  0  0  0  0  0
  -25.8822  -32.4841   23.8616 C   0  0  1  0  0  0  0  0  0  0  0  0
  -27.2536  -27.5042   20.1156 C   0  0  0  0  0  0  0  0  0  0  0  0
  -25.5726  -33.8762   24.2210 N   0  0  0  0  0  0  0  0  0  0  0  0
  -23.4066  -30.4859   21.5461 C   0  0  2  0  0  0  0  0  0  0  0  0
  -24.8467  -28.9636   20.1247 C   0  0  0  0  0  0  0  0  0  0  0  0
  -22.7412  -29.4652   22.5052 C   0  0  0  0  0  0  0  0  0  0  0  0
  -18.0167  -28.1302   22.8626 C   0  0  0  0  0  0  0  0  0  0  0  0
  -24.1342  -36.7390   23.2568 C   0  0  0  0  0  0  0  0  0  0  0  0
  -25.9141  -30.8882   21.3456 C   0  0  0  0  0  0  0  0  0  0  0  0
  -25.9930  -29.5029   20.7208 C   0  0  0  0  0  0  0  0  0  0  0  0
  -27.1758  -28.7612   20.7331 C   0  0  0  0  0  0  0  0  0  0  0  0
  -26.1032  -26.9836   19.5230 C   0  0  0  0  0  0  0  0  0  0  0  0
  -24.9097  -27.7011   19.5331 C   0  0  0  0  0  0  0  0  0  0  0  0
  -23.5715  -29.7899   20.1582 C   0  0  0  0  0  0  0  0  0  0  0  0
  -25.3990  -36.3212   24.0232 C   0  0  1  0  0  0  0  0  0  0  0  0
  -20.5793  -28.3813   23.1004 C   0  0  2  0  0  0  0  0  0  0  0  0
  -20.6548  -26.9392   22.5411 C   0  0  0  0  0  0  0  0  0  0  0  0
  -19.5615  -26.6407   21.5143 C   0  0  0  0  0  0  0  0  0  0  0  0
  -18.1797  -26.7818   22.1673 C   0  0  0  0  0  0  0  0  0  0  0  0
  -19.1385  -28.8769   23.2988 C   0  0  0  0  0  0  0  0  0  0  0  0
  -18.9183  -30.1286   23.8878 C   0  0  0  0  0  0  0  0  0  0  0  0
  -17.6396  -30.6493   24.0352 C   0  0  0  0  0  0  0  0  0  0  0  0
  -25.9153  -34.9582   23.4993 C   0  0  0  0  0  0  0  0  0  0  0  0
  -16.5415  -29.9068   23.6254 C   0  0  0  0  0  0  0  0  0  0  0  0
  -16.7331  -28.6521   23.0586 C   0  0  0  0  0  0  0  0  0  0  0  0
  -26.4583  -31.6439   25.0683 C   0  0  0  0  0  0  0  0  0  0  0  0
  -25.3807  -31.3179   26.1374 C   0  0  0  0  0  0  0  0  0  0  0  0
  -27.0530  -30.3024   24.5680 C   0  0  0  0  0  0  0  0  0  0  0  0
  -27.6014  -32.4281   25.7651 C   0  0  0  0  0  0  0  0  0  0  0  0
  -27.5629  -37.2220   24.8621 C   0  0  0  0  0  0  0  0  0  0  0  0
  -21.4133  -29.3375   22.3735 N   0  0  0  0  0  0  0  0  0  0  0  0
  -26.4706  -37.3372   23.9061 N   0  0  0  0  0  0  0  0  0  0  0  0
  -24.6674  -31.0544   22.1178 N   0  0  0  0  0  0  0  0  0  0  0  0
  -23.4259  -28.8150   23.2971 O   0  0  0  0  0  0  0  0  0  0  0  0
  -28.3948  -26.7345   20.0089 O   0  0  0  0  0  0  0  0  0  0  0  0
  -26.5870  -34.9065   22.4671 O   0  0  0  0  0  0  0  0  0  0  0  0
  -23.5365  -32.1254   23.7833 O   0  0  0  0  0  0  0  0  0  0  0  0
  -29.7310  -23.5504   23.2001 C   0  0  0  0  0  0  0  0  0  0  0  0
  -30.7064  -24.1458   22.4280 C   0  0  0  0  0  0  0  0  0  0  0  0
  -30.8809  -21.7566   22.6806 C   0  0  0  0  0  0  0  0  0  0  0  0
  -30.5932  -19.5547   23.2225 C   0  0  0  0  0  0  0  0  0  0  0  0
  -30.8941  -25.5654   22.0716 C   0  0  0  0  0  0  0  0  0  0  0  0
  -30.9481  -18.0923   23.1853 C   0  0  0  0  0  0  0  0  0  0  0  0
  -29.7982  -17.2932   22.5956 C   0  0  0  0  0  0  0  0  0  0  0  0
  -29.8292  -22.1804   23.3457 N   0  0  0  0  0  0  0  0  0  0  0  0
  -31.3118  -20.4226   22.5883 N   0  0  0  0  0  0  0  0  0  0  0  0
  -29.7657  -26.1210   21.3583 N   0  0  0  0  0  0  0  0  0  0  0  0
  -31.7971  -22.9516   21.8575 S   0  0  0  0  0  0  0  0  0  0  0  0
  -31.4485  -12.4701   19.0860 H   0  0  0  0  0  0  0  0  0  0  0  0
  -30.3970  -11.2460   19.6950 H   0  0  0  0  0  0  0  0  0  0  0  0
  -29.6870  -11.8204   17.4226 H   0  0  0  0  0  0  0  0  0  0  0  0
  -29.6375  -13.5326   17.8649 H   0  0  0  0  0  0  0  0  0  0  0  0
  -27.7830  -11.3650   18.7904 H   0  0  0  0  0  0  0  0  0  0  0  0
  -27.4028  -12.7801   17.8021 H   0  0  0  0  0  0  0  0  0  0  0  0
  -27.7353  -14.2503   19.6136 H   0  0  0  0  0  0  0  0  0  0  0  0
  -28.5890  -11.9550   21.3832 H   0  0  0  0  0  0  0  0  0  0  0  0
  -28.5005  -13.6134   21.8562 H   0  0  0  0  0  0  0  0  0  0  0  0
  -25.2399   -9.5495   22.4318 H   0  0  0  0  0  0  0  0  0  0  0  0
  -23.9663   -7.5070   22.7297 H   0  0  0  0  0  0  0  0  0  0  0  0
  -21.1515   -8.8641   19.9162 H   0  0  0  0  0  0  0  0  0  0  0  0
  -22.4016  -10.9115   19.6476 H   0  0  0  0  0  0  0  0  0  0  0  0
  -21.2319   -7.5552   23.9750 H   0  0  0  0  0  0  0  0  0  0  0  0
  -21.1589   -6.0228   25.8556 H   0  0  0  0  0  0  0  0  0  0  0  0
  -22.0396   -2.8212   23.2809 H   0  0  0  0  0  0  0  0  0  0  0  0
  -22.4401  -11.9703   22.4008 H   0  0  0  0  0  0  0  0  0  0  0  0
  -21.1493  -13.0679   22.2082 H   0  0  0  0  0  0  0  0  0  0  0  0
  -24.6538  -15.7807   20.5848 H   0  0  0  0  0  0  0  0  0  0  0  0
  -26.2762  -15.5453   20.1156 H   0  0  0  0  0  0  0  0  0  0  0  0
  -26.6778  -32.4663   23.1464 H   0  0  0  0  0  0  0  0  0  0  0  0
  -25.0747  -34.0282   25.0566 H   0  0  0  0  0  0  0  0  0  0  0  0
  -22.7881  -31.3489   21.4131 H   0  0  0  0  0  0  0  0  0  0  0  0
  -23.3854  -35.9823   23.3648 H   0  0  0  0  0  0  0  0  0  0  0  0
  -24.3696  -36.8624   22.2204 H   0  0  0  0  0  0  0  0  0  0  0  0
  -23.7669  -37.6632   23.6516 H   0  0  0  0  0  0  0  0  0  0  0  0
  -25.9445  -31.6237   20.5691 H   0  0  0  0  0  0  0  0  0  0  0  0
  -26.7436  -31.0079   22.0108 H   0  0  0  0  0  0  0  0  0  0  0  0
  -28.0090  -29.1452   21.2057 H   0  0  0  0  0  0  0  0  0  0  0  0
  -26.1369  -26.0560   19.0719 H   0  0  0  0  0  0  0  0  0  0  0  0
  -24.0652  -27.2961   19.0997 H   0  0  0  0  0  0  0  0  0  0  0  0
  -23.6156  -30.5365   19.3930 H   0  0  0  0  0  0  0  0  0  0  0  0
  -22.7355  -29.1425   19.9945 H   0  0  0  0  0  0  0  0  0  0  0  0
  -25.1353  -36.2335   25.0565 H   0  0  0  0  0  0  0  0  0  0  0  0
  -21.0070  -28.3206   24.0793 H   0  0  0  0  0  0  0  0  0  0  0  0
  -20.5555  -26.2518   23.3550 H   0  0  0  0  0  0  0  0  0  0  0  0
  -21.5974  -26.8362   22.0454 H   0  0  0  0  0  0  0  0  0  0  0  0
  -19.6810  -25.6422   21.1488 H   0  0  0  0  0  0  0  0  0  0  0  0
  -19.6406  -27.3343   20.7034 H   0  0  0  0  0  0  0  0  0  0  0  0
  -17.4282  -26.6888   21.4113 H   0  0  0  0  0  0  0  0  0  0  0  0
  -18.0803  -26.0130   22.9049 H   0  0  0  0  0  0  0  0  0  0  0  0
  -19.7265  -30.6774   24.2204 H   0  0  0  0  0  0  0  0  0  0  0  0
  -17.5064  -31.5856   24.4483 H   0  0  0  0  0  0  0  0  0  0  0  0
  -15.5878  -30.2839   23.7407 H   0  0  0  0  0  0  0  0  0  0  0  0
  -15.9120  -28.0941   22.7766 H   0  0  0  0  0  0  0  0  0  0  0  0
  -24.5787  -30.7757   25.6817 H   0  0  0  0  0  0  0  0  0  0  0  0
  -25.0041  -32.2289   26.5536 H   0  0  0  0  0  0  0  0  0  0  0  0
  -25.8166  -30.7245   26.9138 H   0  0  0  0  0  0  0  0  0  0  0  0
  -26.2892  -29.7335   24.0803 H   0  0  0  0  0  0  0  0  0  0  0  0
  -27.4336  -29.7484   25.4006 H   0  0  0  0  0  0  0  0  0  0  0  0
  -27.8466  -30.4994   23.8779 H   0  0  0  0  0  0  0  0  0  0  0  0
  -27.2251  -33.3632   26.1242 H   0  0  0  0  0  0  0  0  0  0  0  0
  -28.3902  -32.6065   25.0645 H   0  0  0  0  0  0  0  0  0  0  0  0
  -27.9772  -31.8555   26.5872 H   0  0  0  0  0  0  0  0  0  0  0  0
  -28.2744  -38.0016   24.6863 H   0  0  0  0  0  0  0  0  0  0  0  0
  -28.0396  -36.2711   24.7461 H   0  0  0  0  0  0  0  0  0  0  0  0
  -27.1773  -37.3087   25.8564 H   0  0  0  0  0  0  0  0  0  0  0  0
  -20.9627  -29.9365   21.7352 H   0  0  0  0  0  0  0  0  0  0  0  0
  -26.0447  -38.2561   24.0273 H   0  0  0  0  0  0  0  0  0  0  0  0
  -28.9741  -24.0952   23.6420 H   0  0  0  0  0  0  0  0  0  0  0  0
  -29.7689  -19.8674   23.7590 H   0  0  0  0  0  0  0  0  0  0  0  0
  -31.7637  -25.6501   21.4539 H   0  0  0  0  0  0  0  0  0  0  0  0
  -30.9986  -26.1142   22.9842 H   0  0  0  0  0  0  0  0  0  0  0  0
  -31.1442  -17.7499   24.1799 H   0  0  0  0  0  0  0  0  0  0  0  0
  -31.8179  -17.9574   22.5769 H   0  0  0  0  0  0  0  0  0  0  0  0
  -29.0977  -16.8550   23.2754 H   0  0  0  0  0  0  0  0  0  0  0  0
  -29.8306  -16.4217   21.9757 H   0  0  0  0  0  0  0  0  0  0  0  0
  -29.2603  -26.9268   21.1044 H   0  0  0  0  0  0  0  0  0  0  0  0
  1 25  1  0  0  0  0
  1 30  2  0  0  0  0
  1 80  1  0  0  0  0
  2  3  1  0  0  0  0
  2 25  1  0  0  0  0
  2 82  1  0  0  0  0
  2 83  1  0  0  0  0
  3  4  1  0  0  0  0
  3 84  1  0  0  0  0
  3 85  1  0  0  0  0
  4  5  1  0  0  0  0
  4 86  1  0  0  0  0
  4 87  1  0  0  0  0
  5  6  1  0  0  0  0
  5 26  1  0  0  0  0
  5 88  1  6  0  0  0
  6 25  1  0  0  0  0
  6 89  1  0  0  0  0
  6 90  1  0  0  0  0
  7  8  2  0  0  0  0
  7 26  1  0  0  0  0
  7 29  1  0  0  0  0
  8  9  1  0  0  0  0
  8 22  1  0  0  0  0
  9 10  1  0  0  0  0
  9 27  2  0  0  0  0
 10 11  2  0  0  0  0
 10 15  1  0  0  0  0
 11 12  1  0  0  0  0
 11 91  1  0  0  0  0
 12 13  2  0  0  0  0
 12 92  1  0  0  0  0
 13 14  1  0  0  0  0
 13 31  1  0  0  0  0
 14 15  2  0  0  0  0
 14 93  1  0  0  0  0
 15 94  1  0  0  0  0
 16 17  2  0  0  0  0
 16 21  1  0  0  0  0
 16 31  1  0  0  0  0
 17 18  1  0  0  0  0
 17 95  1  0  0  0  0
 18 19  2  0  0  0  0
 18 96  1  0  0  0  0
 19 20  1  0  0  0  0
 19 24  1  0  0  0  0
 20 21  2  0  0  0  0
 20 97  1  0  0  0  0
 21 23  1  0  0  0  0
 22 28  1  0  0  0  0
 22 32  2  0  0  0  0
 26 27  1  0  0  0  0
 28 98  1  0  0  0  0
 28 99  1  0  0  0  0
 29100  1  0  0  0  0
 29101  1  0  0  0  0
 33 34  1  0  0  0  0
 33 66  1  0  0  0  0
 33 70  2  0  0  0  0
 34 36  1  0  0  0  0
 34 59  1  0  0  0  0
 34102  1  6  0  0  0
 35 44  2  0  0  0  0
 35 45  1  0  0  0  0
 35 68  1  0  0  0  0
 36 56  1  0  0  0  0
 36103  1  0  0  0  0
 37 39  1  0  0  0  0
 37 47  1  0  0  0  0
 37 66  1  0  0  0  0
 37104  1  6  0  0  0
 38 43  2  0  0  0  0
 38 46  1  0  0  0  0
 38 47  1  0  0  0  0
 39 64  1  0  0  0  0
 39 67  2  0  0  0  0
 40 52  1  0  0  0  0
 40 53  2  0  0  0  0
 40 58  1  0  0  0  0
 41105  1  0  0  0  0
 41106  1  0  0  0  0
 41107  1  0  0  0  0
 42 43  1  0  0  0  0
 42 66  1  0  0  0  0
 42108  1  0  0  0  0
 42109  1  0  0  0  0
 43 44  1  0  0  0  0
 44110  1  0  0  0  0
 45 46  2  0  0  0  0
 45111  1  0  0  0  0
 46112  1  0  0  0  0
 47113  1  0  0  0  0
 47114  1  0  0  0  0
 48 41  1  0  0  0  0
 48 56  1  0  0  0  0
 48 65  1  0  0  0  0
 48115  1  1  0  0  0
 49 50  1  0  0  0  0
 49 53  1  0  0  0  0
 49 64  1  0  0  0  0
 49116  1  1  0  0  0
 50 51  1  0  0  0  0
 50117  1  0  0  0  0
 50118  1  0  0  0  0
 51 52  1  0  0  0  0
 51119  1  0  0  0  0
 51120  1  0  0  0  0
 52121  1  0  0  0  0
 52122  1  0  0  0  0
 53 54  1  0  0  0  0
 54 55  2  0  0  0  0
 54123  1  0  0  0  0
 55 57  1  0  0  0  0
 55124  1  0  0  0  0
 56 69  2  0  0  0  0
 57 58  2  0  0  0  0
 57125  1  0  0  0  0
 58126  1  0  0  0  0
 59 60  1  0  0  0  0
 59 61  1  0  0  0  0
 59 62  1  0  0  0  0
 60127  1  0  0  0  0
 60128  1  0  0  0  0
 60129  1  0  0  0  0
 61130  1  0  0  0  0
 61131  1  0  0  0  0
 61132  1  0  0  0  0
 62133  1  0  0  0  0
 62134  1  0  0  0  0
 62135  1  0  0  0  0
 63 65  1  0  0  0  0
 63136  1  0  0  0  0
 63137  1  0  0  0  0
 63138  1  0  0  0  0
 64139  1  0  0  0  0
 65140  1  0  0  0  0
 68 77  1  0  0  0  0
 71 72  2  0  0  0  0
 71 78  1  0  0  0  0
 71141  1  0  0  0  0
 72 75  1  0  0  0  0
 72 81  1  0  0  0  0
 73 78  2  0  0  0  0
 73 79  1  0  0  0  0
 73 81  1  0  0  0  0
 74 76  1  0  0  0  0
 74 79  2  0  0  0  0
 74142  1  0  0  0  0
 75 80  1  0  0  0  0
 75143  1  0  0  0  0
 75144  1  0  0  0  0
 76 77  1  0  0  0  0
 76145  1  0  0  0  0
 76146  1  0  0  0  0
 77147  1  0  0  0  0
 77148  1  0  0  0  0
 80149  1  0  0  0  0
M  ISO  4   1 100  68 101  77 101  80 100
M  END
$$$$
22
 OpenBabel04052305473D

146154  0  0  0  0  0  0  0  0999 V2000
  -30.7652  -14.3608   20.6636 C   0  0  0  0  0  0  0  0  0  0  0  0
  -30.4392  -12.2669   19.3775 C   0  0  0  0  0  0  0  0  0  0  0  0
  -29.4791  -12.5281   18.1977 C   0  0  0  0  0  0  0  0  0  0  0  0
  -27.9985  -12.3963   18.6038 C   0  0  0  0  0  0  0  0  0  0  0  0
  -27.6639  -13.2170   19.8820 C   0  0  2  0  0  0  0  0  0  0  0  0
  -28.6795  -12.9602   21.0279 C   0  0  0  0  0  0  0  0  0  0  0  0
  -25.2633  -13.8245   20.5754 C   0  0  0  0  0  0  0  0  0  0  0  0
  -24.1645  -13.0409   20.9408 C   0  0  0  0  0  0  0  0  0  0  0  0
  -24.6400  -11.7009   20.8697 C   0  0  0  0  0  0  0  0  0  0  0  0
  -23.9005  -10.4085   21.0420 C   0  0  0  0  0  0  0  0  0  0  0  0
  -24.3588   -9.4123   21.9123 C   0  0  0  0  0  0  0  0  0  0  0  0
  -23.6296   -8.2350   22.0803 C   0  0  0  0  0  0  0  0  0  0  0  0
  -22.4385   -8.0419   21.3657 C   0  0  0  0  0  0  0  0  0  0  0  0
  -22.0103   -9.0167   20.4678 C   0  0  0  0  0  0  0  0  0  0  0  0
  -22.7317  -10.1925   20.3102 C   0  0  0  0  0  0  0  0  0  0  0  0
  -21.6857   -6.0709   22.5391 C   0  0  0  0  0  0  0  0  0  0  0  0
  -21.4064   -6.5490   23.8264 C   0  0  0  0  0  0  0  0  0  0  0  0
  -21.3635   -5.6677   24.9085 C   0  0  0  0  0  0  0  0  0  0  0  0
  -21.5973   -4.3067   24.7088 C   0  0  0  0  0  0  0  0  0  0  0  0
  -21.8700   -3.8284   23.4282 C   0  0  0  0  0  0  0  0  0  0  0  0
  -21.9144   -4.7056   22.3460 C   0  0  0  0  0  0  0  0  0  0  0  0
  -22.8194  -13.5263   21.1763 C   0  0  0  0  0  0  0  0  0  0  0  0
  -22.1559   -4.2206   21.1063 F   0  0  0  0  0  0  0  0  0  0  0  0
  -21.5628   -3.4510   25.7555 F   0  0  0  0  0  0  0  0  0  0  0  0
  -30.0261  -13.1803   20.4553 N   0  0  0  0  0  0  0  0  0  0  0  0
  -26.2911  -12.9356   20.3443 N   0  0  0  0  0  0  0  0  0  0  0  0
  -25.9236  -11.6675   20.5847 N   0  0  0  0  0  0  0  0  0  0  0  0
  -22.0708  -12.7905   22.0005 N   0  0  0  0  0  0  0  0  0  0  0  0
  -25.4117  -15.1773   20.4097 N   0  0  0  0  0  0  0  0  0  0  0  0
  -31.7916  -14.6724   20.0536 O   0  0  0  0  0  0  0  0  0  0  0  0
  -21.6670   -6.9022   21.4423 O   0  0  0  0  0  0  0  0  0  0  0  0
  -22.3946  -14.5564   20.6568 O   0  0  0  0  0  0  0  0  0  0  0  0
  -24.6048  -31.8614   23.2223 C   0  0  0  0  0  0  0  0  0  0  0  0
  -25.8822  -32.4841   23.8616 C   0  0  1  0  0  0  0  0  0  0  0  0
  -27.2536  -27.5042   20.1156 C   0  0  0  0  0  0  0  0  0  0  0  0
  -25.5726  -33.8762   24.2210 N   0  0  0  0  0  0  0  0  0  0  0  0
  -23.4066  -30.4859   21.5461 C   0  0  2  0  0  0  0  0  0  0  0  0
  -24.8467  -28.9636   20.1247 C   0  0  0  0  0  0  0  0  0  0  0  0
  -22.7412  -29.4652   22.5052 C   0  0  0  0  0  0  0  0  0  0  0  0
  -18.0167  -28.1302   22.8626 C   0  0  0  0  0  0  0  0  0  0  0  0
  -24.1342  -36.7390   23.2568 C   0  0  0  0  0  0  0  0  0  0  0  0
  -25.9141  -30.8882   21.3456 C   0  0  0  0  0  0  0  0  0  0  0  0
  -25.9930  -29.5029   20.7208 C   0  0  0  0  0  0  0  0  0  0  0  0
  -27.1758  -28.7612   20.7331 C   0  0  0  0  0  0  0  0  0  0  0  0
  -26.1032  -26.9836   19.5230 C   0  0  0  0  0  0  0  0  0  0  0  0
  -24.9097  -27.7011   19.5331 C   0  0  0  0  0  0  0  0  0  0  0  0
  -23.5715  -29.7899   20.1582 C   0  0  0  0  0  0  0  0  0  0  0  0
  -25.3990  -36.3212   24.0232 C   0  0  1  0  0  0  0  0  0  0  0  0
  -20.5793  -28.3813   23.1004 C   0  0  2  0  0  0  0  0  0  0  0  0
  -20.6548  -26.9392   22.5411 C   0  0  0  0  0  0  0  0  0  0  0  0
  -19.5615  -26.6407   21.5143 C   0  0  0  0  0  0  0  0  0  0  0  0
  -18.1797  -26.7818   22.1673 C   0  0  0  0  0  0  0  0  0  0  0  0
  -19.1385  -28.8769   23.2988 C   0  0  0  0  0  0  0  0  0  0  0  0
  -18.9183  -30.1286   23.8878 C   0  0  0  0  0  0  0  0  0  0  0  0
  -17.6396  -30.6493   24.0352 C   0  0  0  0  0  0  0  0  0  0  0  0
  -25.9153  -34.9582   23.4993 C   0  0  0  0  0  0  0  0  0  0  0  0
  -16.5415  -29.9068   23.6254 C   0  0  0  0  0  0  0  0  0  0  0  0
  -16.7331  -28.6521   23.0586 C   0  0  0  0  0  0  0  0  0  0  0  0
  -26.4583  -31.6439   25.0683 C   0  0  0  0  0  0  0  0  0  0  0  0
  -25.3807  -31.3179   26.1374 C   0  0  0  0  0  0  0  0  0  0  0  0
  -27.0530  -30.3024   24.5680 C   0  0  0  0  0  0  0  0  0  0  0  0
  -27.6014  -32.4281   25.7651 C   0  0  0  0  0  0  0  0  0  0  0  0
  -27.5629  -37.2220   24.8621 C   0  0  0  0  0  0  0  0  0  0  0  0
  -21.4133  -29.3375   22.3735 N   0  0  0  0  0  0  0  0  0  0  0  0
  -26.4706  -37.3372   23.9061 N   0  0  0  0  0  0  0  0  0  0  0  0
  -24.6674  -31.0544   22.1178 N   0  0  0  0  0  0  0  0  0  0  0  0
  -23.4259  -28.8150   23.2971 O   0  0  0  0  0  0  0  0  0  0  0  0
  -28.3948  -26.7345   20.0089 O   0  0  0  0  0  0  0  0  0  0  0  0
  -26.5870  -34.9065   22.4671 O   0  0  0  0  0  0  0  0  0  0  0  0
  -23.5365  -32.1254   23.7833 O   0  0  0  0  0  0  0  0  0  0  0  0
  -31.0255  -18.7392   21.8099 C   0  0  0  0  0  0  0  0  0  0  0  0
  -30.6065  -18.7436   20.4721 C   0  0  0  0  0  0  0  0  0  0  0  0
  -31.7028  -14.5633   21.6637 C   0  0  0  0  0  0  0  0  0  0  0  0
  -32.2233  -15.6227   20.6898 C   0  0  0  0  0  0  0  0  0  0  0  0
  -30.2164  -14.2691   21.4985 C   0  0  0  0  0  0  0  0  0  0  0  0
  -31.6715  -17.6010   22.0786 N   0  0  0  0  0  0  0  0  0  0  0  0
  -30.9829  -17.6090   19.8758 N   0  0  0  0  0  0  0  0  0  0  0  0
  -31.6063  -16.9842   20.8876 N   0  0  0  0  0  0  0  0  0  0  0  0
  -29.8925  -19.7858   19.8304 N   0  0  0  0  0  0  0  0  0  0  0  0
  -31.4485  -12.4701   19.0860 H   0  0  0  0  0  0  0  0  0  0  0  0
  -30.3970  -11.2460   19.6950 H   0  0  0  0  0  0  0  0  0  0  0  0
  -29.6870  -11.8204   17.4226 H   0  0  0  0  0  0  0  0  0  0  0  0
  -29.6375  -13.5326   17.8649 H   0  0  0  0  0  0  0  0  0  0  0  0
  -27.7830  -11.3650   18.7904 H   0  0  0  0  0  0  0  0  0  0  0  0
  -27.4028  -12.7801   17.8021 H   0  0  0  0  0  0  0  0  0  0  0  0
  -27.7353  -14.2503   19.6136 H   0  0  0  0  0  0  0  0  0  0  0  0
  -28.5890  -11.9550   21.3832 H   0  0  0  0  0  0  0  0  0  0  0  0
  -28.5005  -13.6134   21.8562 H   0  0  0  0  0  0  0  0  0  0  0  0
  -25.2399   -9.5495   22.4318 H   0  0  0  0  0  0  0  0  0  0  0  0
  -23.9663   -7.5070   22.7297 H   0  0  0  0  0  0  0  0  0  0  0  0
  -21.1515   -8.8641   19.9162 H   0  0  0  0  0  0  0  0  0  0  0  0
  -22.4016  -10.9115   19.6476 H   0  0  0  0  0  0  0  0  0  0  0  0
  -21.2319   -7.5552   23.9750 H   0  0  0  0  0  0  0  0  0  0  0  0
  -21.1589   -6.0228   25.8556 H   0  0  0  0  0  0  0  0  0  0  0  0
  -22.0396   -2.8212   23.2809 H   0  0  0  0  0  0  0  0  0  0  0  0
  -22.4401  -11.9703   22.4008 H   0  0  0  0  0  0  0  0  0  0  0  0
  -21.1493  -13.0679   22.2082 H   0  0  0  0  0  0  0  0  0  0  0  0
  -24.6538  -15.7807   20.5848 H   0  0  0  0  0  0  0  0  0  0  0  0
  -26.2762  -15.5453   20.1156 H   0  0  0  0  0  0  0  0  0  0  0  0
  -26.6778  -32.4663   23.1464 H   0  0  0  0  0  0  0  0  0  0  0  0
  -25.0747  -34.0282   25.0566 H   0  0  0  0  0  0  0  0  0  0  0  0
  -22.7881  -31.3489   21.4131 H   0  0  0  0  0  0  0  0  0  0  0  0
  -23.3854  -35.9823   23.3648 H   0  0  0  0  0  0  0  0  0  0  0  0
  -24.3696  -36.8624   22.2204 H   0  0  0  0  0  0  0  0  0  0  0  0
  -23.7669  -37.6632   23.6516 H   0  0  0  0  0  0  0  0  0  0  0  0
  -25.9445  -31.6237   20.5691 H   0  0  0  0  0  0  0  0  0  0  0  0
  -26.7436  -31.0079   22.0108 H   0  0  0  0  0  0  0  0  0  0  0  0
  -28.0090  -29.1452   21.2057 H   0  0  0  0  0  0  0  0  0  0  0  0
  -26.1369  -26.0560   19.0719 H   0  0  0  0  0  0  0  0  0  0  0  0
  -24.0652  -27.2961   19.0997 H   0  0  0  0  0  0  0  0  0  0  0  0
  -23.6156  -30.5365   19.3930 H   0  0  0  0  0  0  0  0  0  0  0  0
  -22.7355  -29.1425   19.9945 H   0  0  0  0  0  0  0  0  0  0  0  0
  -25.1353  -36.2335   25.0565 H   0  0  0  0  0  0  0  0  0  0  0  0
  -21.0070  -28.3206   24.0793 H   0  0  0  0  0  0  0  0  0  0  0  0
  -20.5555  -26.2518   23.3550 H   0  0  0  0  0  0  0  0  0  0  0  0
  -21.5974  -26.8362   22.0454 H   0  0  0  0  0  0  0  0  0  0  0  0
  -19.6810  -25.6422   21.1488 H   0  0  0  0  0  0  0  0  0  0  0  0
  -19.6406  -27.3343   20.7034 H   0  0  0  0  0  0  0  0  0  0  0  0
  -17.4282  -26.6888   21.4113 H   0  0  0  0  0  0  0  0  0  0  0  0
  -18.0803  -26.0130   22.9049 H   0  0  0  0  0  0  0  0  0  0  0  0
  -19.7265  -30.6774   24.2204 H   0  0  0  0  0  0  0  0  0  0  0  0
  -17.5064  -31.5856   24.4483 H   0  0  0  0  0  0  0  0  0  0  0  0
  -15.5878  -30.2839   23.7407 H   0  0  0  0  0  0  0  0  0  0  0  0
  -15.9120  -28.0941   22.7766 H   0  0  0  0  0  0  0  0  0  0  0  0
  -24.5787  -30.7757   25.6817 H   0  0  0  0  0  0  0  0  0  0  0  0
  -25.0041  -32.2289   26.5536 H   0  0  0  0  0  0  0  0  0  0  0  0
  -25.8166  -30.7245   26.9138 H   0  0  0  0  0  0  0  0  0  0  0  0
  -26.2892  -29.7335   24.0803 H   0  0  0  0  0  0  0  0  0  0  0  0
  -27.4336  -29.7484   25.4006 H   0  0  0  0  0  0  0  0  0  0  0  0
  -27.8466  -30.4994   23.8779 H   0  0  0  0  0  0  0  0  0  0  0  0
  -27.2251  -33.3632   26.1242 H   0  0  0  0  0  0  0  0  0  0  0  0
  -28.3902  -32.6065   25.0645 H   0  0  0  0  0  0  0  0  0  0  0  0
  -27.9772  -31.8555   26.5872 H   0  0  0  0  0  0  0  0  0  0  0  0
  -28.2744  -38.0016   24.6863 H   0  0  0  0  0  0  0  0  0  0  0  0
  -28.0396  -36.2711   24.7461 H   0  0  0  0  0  0  0  0  0  0  0  0
  -27.1773  -37.3087   25.8564 H   0  0  0  0  0  0  0  0  0  0  0  0
  -20.9627  -29.9365   21.7352 H   0  0  0  0  0  0  0  0  0  0  0  0
  -26.0447  -38.2561   24.0273 H   0  0  0  0  0  0  0  0  0  0  0  0
  -30.8598  -19.5011   22.4860 H   0  0  0  0  0  0  0  0  0  0  0  0
  -31.8716  -14.9083   22.6624 H   0  0  0  0  0  0  0  0  0  0  0  0
  -32.2300  -13.6558   21.4554 H   0  0  0  0  0  0  0  0  0  0  0  0
  -32.0116  -15.2977   19.6926 H   0  0  0  0  0  0  0  0  0  0  0  0
  -33.2726  -15.7258   20.8719 H   0  0  0  0  0  0  0  0  0  0  0  0
  -29.7467  -13.8513   22.3644 H   0  0  0  0  0  0  0  0  0  0  0  0
  -29.8627  -13.5618   20.7777 H   0  0  0  0  0  0  0  0  0  0  0  0
  -29.5556  -20.6583   19.5231 H   0  0  0  0  0  0  0  0  0  0  0  0
  1 25  1  0  0  0  0
  1 30  2  0  0  0  0
  1 79  1  0  0  0  0
  2  3  1  0  0  0  0
  2 25  1  0  0  0  0
  2 80  1  0  0  0  0
  2 81  1  0  0  0  0
  3  4  1  0  0  0  0
  3 82  1  0  0  0  0
  3 83  1  0  0  0  0
  4  5  1  0  0  0  0
  4 84  1  0  0  0  0
  4 85  1  0  0  0  0
  5  6  1  0  0  0  0
  5 26  1  0  0  0  0
  5 86  1  6  0  0  0
  6 25  1  0  0  0  0
  6 87  1  0  0  0  0
  6 88  1  0  0  0  0
  7  8  2  0  0  0  0
  7 26  1  0  0  0  0
  7 29  1  0  0  0  0
  8  9  1  0  0  0  0
  8 22  1  0  0  0  0
  9 10  1  0  0  0  0
  9 27  2  0  0  0  0
 10 11  2  0  0  0  0
 10 15  1  0  0  0  0
 11 12  1  0  0  0  0
 11 89  1  0  0  0  0
 12 13  2  0  0  0  0
 12 90  1  0  0  0  0
 13 14  1  0  0  0  0
 13 31  1  0  0  0  0
 14 15  2  0  0  0  0
 14 91  1  0  0  0  0
 15 92  1  0  0  0  0
 16 17  2  0  0  0  0
 16 21  1  0  0  0  0
 16 31  1  0  0  0  0
 17 18  1  0  0  0  0
 17 93  1  0  0  0  0
 18 19  2  0  0  0  0
 18 94  1  0  0  0  0
 19 20  1  0  0  0  0
 19 24  1  0  0  0  0
 20 21  2  0  0  0  0
 20 95  1  0  0  0  0
 21 23  1  0  0  0  0
 22 28  1  0  0  0  0
 22 32  2  0  0  0  0
 26 27  1  0  0  0  0
 28 96  1  0  0  0  0
 28 97  1  0  0  0  0
 29 98  1  0  0  0  0
 29 99  1  0  0  0  0
 33 34  1  0  0  0  0
 33 66  1  0  0  0  0
 33 70  2  0  0  0  0
 34 36  1  0  0  0  0
 34 59  1  0  0  0  0
 34100  1  6  0  0  0
 35 44  2  0  0  0  0
 35 45  1  0  0  0  0
 35 68  1  0  0  0  0
 36 56  1  0  0  0  0
 36101  1  0  0  0  0
 37 39  1  0  0  0  0
 37 47  1  0  0  0  0
 37 66  1  0  0  0  0
 37102  1  6  0  0  0
 38 43  2  0  0  0  0
 38 46  1  0  0  0  0
 38 47  1  0  0  0  0
 39 64  1  0  0  0  0
 39 67  2  0  0  0  0
 40 52  1  0  0  0  0
 40 53  2  0  0  0  0
 40 58  1  0  0  0  0
 41103  1  0  0  0  0
 41104  1  0  0  0  0
 41105  1  0  0  0  0
 42 43  1  0  0  0  0
 42 66  1  0  0  0  0
 42106  1  0  0  0  0
 42107  1  0  0  0  0
 43 44  1  0  0  0  0
 44108  1  0  0  0  0
 45 46  2  0  0  0  0
 45109  1  0  0  0  0
 46110  1  0  0  0  0
 47111  1  0  0  0  0
 47112  1  0  0  0  0
 48 41  1  0  0  0  0
 48 56  1  0  0  0  0
 48 65  1  0  0  0  0
 48113  1  1  0  0  0
 49 50  1  0  0  0  0
 49 53  1  0  0  0  0
 49 64  1  0  0  0  0
 49114  1  1  0  0  0
 50 51  1  0  0  0  0
 50115  1  0  0  0  0
 50116  1  0  0  0  0
 51 52  1  0  0  0  0
 51117  1  0  0  0  0
 51118  1  0  0  0  0
 52119  1  0  0  0  0
 52120  1  0  0  0  0
 53 54  1  0  0  0  0
 54 55  2  0  0  0  0
 54121  1  0  0  0  0
 55 57  1  0  0  0  0
 55122  1  0  0  0  0
 56 69  2  0  0  0  0
 57 58  2  0  0  0  0
 57123  1  0  0  0  0
 58124  1  0  0  0  0
 59 60  1  0  0  0  0
 59 61  1  0  0  0  0
 59 62  1  0  0  0  0
 60125  1  0  0  0  0
 60126  1  0  0  0  0
 60127  1  0  0  0  0
 61128  1  0  0  0  0
 61129  1  0  0  0  0
 61130  1  0  0  0  0
 62131  1  0  0  0  0
 62132  1  0  0  0  0
 62133  1  0  0  0  0
 63 65  1  0  0  0  0
 63134  1  0  0  0  0
 63135  1  0  0  0  0
 63136  1  0  0  0  0
 64137  1  0  0  0  0
 65138  1  0  0  0  0
 68 75  1  0  0  0  0
 71 72  1  0  0  0  0
 71 76  2  0  0  0  0
 71139  1  0  0  0  0
 72 77  2  0  0  0  0
 72 79  1  0  0  0  0
 73 74  1  0  0  0  0
 73 75  1  0  0  0  0
 73140  1  0  0  0  0
 73141  1  0  0  0  0
 74 78  1  0  0  0  0
 74142  1  0  0  0  0
 74143  1  0  0  0  0
 75144  1  0  0  0  0
 75145  1  0  0  0  0
 76 78  1  0  0  0  0
 77 78  1  0  0  0  0
 79146  1  0  0  0  0
M  ISO  4   1 100  68 101  75 101  79 100
M  END
$$$$
23
 OpenBabel04052305473D

154162  0  0  0  0  0  0  0  0999 V2000
  -30.7652  -14.3608   20.6636 C   0  0  0  0  0  0  0  0  0  0  0  0
  -30.4392  -12.2669   19.3775 C   0  0  0  0  0  0  0  0  0  0  0  0
  -29.4791  -12.5281   18.1977 C   0  0  0  0  0  0  0  0  0  0  0  0
  -27.9985  -12.3963   18.6038 C   0  0  0  0  0  0  0  0  0  0  0  0
  -27.6639  -13.2170   19.8820 C   0  0  2  0  0  0  0  0  0  0  0  0
  -28.6795  -12.9602   21.0279 C   0  0  0  0  0  0  0  0  0  0  0  0
  -25.2633  -13.8245   20.5754 C   0  0  0  0  0  0  0  0  0  0  0  0
  -24.1645  -13.0409   20.9408 C   0  0  0  0  0  0  0  0  0  0  0  0
  -24.6400  -11.7009   20.8697 C   0  0  0  0  0  0  0  0  0  0  0  0
  -23.9005  -10.4085   21.0420 C   0  0  0  0  0  0  0  0  0  0  0  0
  -24.3588   -9.4123   21.9123 C   0  0  0  0  0  0  0  0  0  0  0  0
  -23.6296   -8.2350   22.0803 C   0  0  0  0  0  0  0  0  0  0  0  0
  -22.4385   -8.0419   21.3657 C   0  0  0  0  0  0  0  0  0  0  0  0
  -22.0103   -9.0167   20.4678 C   0  0  0  0  0  0  0  0  0  0  0  0
  -22.7317  -10.1925   20.3102 C   0  0  0  0  0  0  0  0  0  0  0  0
  -21.6857   -6.0709   22.5391 C   0  0  0  0  0  0  0  0  0  0  0  0
  -21.4064   -6.5490   23.8264 C   0  0  0  0  0  0  0  0  0  0  0  0
  -21.3635   -5.6677   24.9085 C   0  0  0  0  0  0  0  0  0  0  0  0
  -21.5973   -4.3067   24.7088 C   0  0  0  0  0  0  0  0  0  0  0  0
  -21.8700   -3.8284   23.4282 C   0  0  0  0  0  0  0  0  0  0  0  0
  -21.9144   -4.7056   22.3460 C   0  0  0  0  0  0  0  0  0  0  0  0
  -22.8194  -13.5263   21.1763 C   0  0  0  0  0  0  0  0  0  0  0  0
  -22.1559   -4.2206   21.1063 F   0  0  0  0  0  0  0  0  0  0  0  0
  -21.5628   -3.4510   25.7555 F   0  0  0  0  0  0  0  0  0  0  0  0
  -30.0261  -13.1803   20.4553 N   0  0  0  0  0  0  0  0  0  0  0  0
  -26.2911  -12.9356   20.3443 N   0  0  0  0  0  0  0  0  0  0  0  0
  -25.9236  -11.6675   20.5847 N   0  0  0  0  0  0  0  0  0  0  0  0
  -22.0708  -12.7905   22.0005 N   0  0  0  0  0  0  0  0  0  0  0  0
  -25.4117  -15.1773   20.4097 N   0  0  0  0  0  0  0  0  0  0  0  0
  -31.7916  -14.6724   20.0536 O   0  0  0  0  0  0  0  0  0  0  0  0
  -21.6670   -6.9022   21.4423 O   0  0  0  0  0  0  0  0  0  0  0  0
  -22.3946  -14.5564   20.6568 O   0  0  0  0  0  0  0  0  0  0  0  0
  -24.6048  -31.8614   23.2223 C   0  0  0  0  0  0  0  0  0  0  0  0
  -25.8822  -32.4841   23.8616 C   0  0  1  0  0  0  0  0  0  0  0  0
  -27.2536  -27.5042   20.1156 C   0  0  0  0  0  0  0  0  0  0  0  0
  -25.5726  -33.8762   24.2210 N   0  0  0  0  0  0  0  0  0  0  0  0
  -23.4066  -30.4859   21.5461 C   0  0  2  0  0  0  0  0  0  0  0  0
  -24.8467  -28.9636   20.1247 C   0  0  0  0  0  0  0  0  0  0  0  0
  -22.7412  -29.4652   22.5052 C   0  0  0  0  0  0  0  0  0  0  0  0
  -18.0167  -28.1302   22.8626 C   0  0  0  0  0  0  0  0  0  0  0  0
  -24.1342  -36.7390   23.2568 C   0  0  0  0  0  0  0  0  0  0  0  0
  -25.9141  -30.8882   21.3456 C   0  0  0  0  0  0  0  0  0  0  0  0
  -25.9930  -29.5029   20.7208 C   0  0  0  0  0  0  0  0  0  0  0  0
  -27.1758  -28.7612   20.7331 C   0  0  0  0  0  0  0  0  0  0  0  0
  -26.1032  -26.9836   19.5230 C   0  0  0  0  0  0  0  0  0  0  0  0
  -24.9097  -27.7011   19.5331 C   0  0  0  0  0  0  0  0  0  0  0  0
  -23.5715  -29.7899   20.1582 C   0  0  0  0  0  0  0  0  0  0  0  0
  -25.3990  -36.3212   24.0232 C   0  0  1  0  0  0  0  0  0  0  0  0
  -20.5793  -28.3813   23.1004 C   0  0  2  0  0  0  0  0  0  0  0  0
  -20.6548  -26.9392   22.5411 C   0  0  0  0  0  0  0  0  0  0  0  0
  -19.5615  -26.6407   21.5143 C   0  0  0  0  0  0  0  0  0  0  0  0
  -18.1797  -26.7818   22.1673 C   0  0  0  0  0  0  0  0  0  0  0  0
  -19.1385  -28.8769   23.2988 C   0  0  0  0  0  0  0  0  0  0  0  0
  -18.9183  -30.1286   23.8878 C   0  0  0  0  0  0  0  0  0  0  0  0
  -17.6396  -30.6493   24.0352 C   0  0  0  0  0  0  0  0  0  0  0  0
  -25.9153  -34.9582   23.4993 C   0  0  0  0  0  0  0  0  0  0  0  0
  -16.5415  -29.9068   23.6254 C   0  0  0  0  0  0  0  0  0  0  0  0
  -16.7331  -28.6521   23.0586 C   0  0  0  0  0  0  0  0  0  0  0  0
  -26.4583  -31.6439   25.0683 C   0  0  0  0  0  0  0  0  0  0  0  0
  -25.3807  -31.3179   26.1374 C   0  0  0  0  0  0  0  0  0  0  0  0
  -27.0530  -30.3024   24.5680 C   0  0  0  0  0  0  0  0  0  0  0  0
  -27.6014  -32.4281   25.7651 C   0  0  0  0  0  0  0  0  0  0  0  0
  -27.5629  -37.2220   24.8621 C   0  0  0  0  0  0  0  0  0  0  0  0
  -21.4133  -29.3375   22.3735 N   0  0  0  0  0  0  0  0  0  0  0  0
  -26.4706  -37.3372   23.9061 N   0  0  0  0  0  0  0  0  0  0  0  0
  -24.6674  -31.0544   22.1178 N   0  0  0  0  0  0  0  0  0  0  0  0
  -23.4259  -28.8150   23.2971 O   0  0  0  0  0  0  0  0  0  0  0  0
  -28.3948  -26.7345   20.0089 O   0  0  0  0  0  0  0  0  0  0  0  0
  -26.5870  -34.9065   22.4671 O   0  0  0  0  0  0  0  0  0  0  0  0
  -23.5365  -32.1254   23.7833 O   0  0  0  0  0  0  0  0  0  0  0  0
  -29.1600  -21.4734   17.6621 C   0  0  0  0  0  0  0  0  0  0  0  0
  -29.7446  -23.5848   17.0066 C   0  0  0  0  0  0  0  0  0  0  0  0
  -29.6748  -21.7199   18.9157 C   0  0  0  0  0  0  0  0  0  0  0  0
  -30.2588  -23.8318   18.2605 C   0  0  0  0  0  0  0  0  0  0  0  0
  -30.8564  -27.9660   19.4445 C   0  0  0  0  0  0  0  0  0  0  0  0
  -31.3875  -25.4567   19.7807 C   0  0  0  0  0  0  0  0  0  0  0  0
  -29.5530  -27.7791   20.2068 C   0  0  0  0  0  0  0  0  0  0  0  0
  -31.9091  -26.8942   19.7466 C   0  0  1  0  0  0  0  0  0  0  0  0
  -29.1857  -22.4014   16.6850 N   0  0  0  0  0  0  0  0  0  0  0  0
  -30.2334  -22.9036   19.2375 N   0  0  0  0  0  0  0  0  0  0  0  0
  -29.6102  -20.6909   19.8877 N   0  0  0  0  0  0  0  0  0  0  0  0
  -30.8162  -25.0750   18.5096 N   0  0  0  0  0  0  0  0  0  0  0  0
  -32.9452  -26.9708   18.7657 O   0  0  0  0  0  0  0  0  0  0  0  0
  -31.4485  -12.4701   19.0860 H   0  0  0  0  0  0  0  0  0  0  0  0
  -30.3970  -11.2460   19.6950 H   0  0  0  0  0  0  0  0  0  0  0  0
  -29.6870  -11.8204   17.4226 H   0  0  0  0  0  0  0  0  0  0  0  0
  -29.6375  -13.5326   17.8649 H   0  0  0  0  0  0  0  0  0  0  0  0
  -27.7830  -11.3650   18.7904 H   0  0  0  0  0  0  0  0  0  0  0  0
  -27.4028  -12.7801   17.8021 H   0  0  0  0  0  0  0  0  0  0  0  0
  -27.7353  -14.2503   19.6136 H   0  0  0  0  0  0  0  0  0  0  0  0
  -28.5890  -11.9550   21.3832 H   0  0  0  0  0  0  0  0  0  0  0  0
  -28.5005  -13.6134   21.8562 H   0  0  0  0  0  0  0  0  0  0  0  0
  -25.2399   -9.5495   22.4318 H   0  0  0  0  0  0  0  0  0  0  0  0
  -23.9663   -7.5070   22.7297 H   0  0  0  0  0  0  0  0  0  0  0  0
  -21.1515   -8.8641   19.9162 H   0  0  0  0  0  0  0  0  0  0  0  0
  -22.4016  -10.9115   19.6476 H   0  0  0  0  0  0  0  0  0  0  0  0
  -21.2319   -7.5552   23.9750 H   0  0  0  0  0  0  0  0  0  0  0  0
  -21.1589   -6.0228   25.8556 H   0  0  0  0  0  0  0  0  0  0  0  0
  -22.0396   -2.8212   23.2809 H   0  0  0  0  0  0  0  0  0  0  0  0
  -22.4401  -11.9703   22.4008 H   0  0  0  0  0  0  0  0  0  0  0  0
  -21.1493  -13.0679   22.2082 H   0  0  0  0  0  0  0  0  0  0  0  0
  -24.6538  -15.7807   20.5848 H   0  0  0  0  0  0  0  0  0  0  0  0
  -26.2762  -15.5453   20.1156 H   0  0  0  0  0  0  0  0  0  0  0  0
  -26.6778  -32.4663   23.1464 H   0  0  0  0  0  0  0  0  0  0  0  0
  -25.0747  -34.0282   25.0566 H   0  0  0  0  0  0  0  0  0  0  0  0
  -22.7881  -31.3489   21.4131 H   0  0  0  0  0  0  0  0  0  0  0  0
  -23.3854  -35.9823   23.3648 H   0  0  0  0  0  0  0  0  0  0  0  0
  -24.3696  -36.8624   22.2204 H   0  0  0  0  0  0  0  0  0  0  0  0
  -23.7669  -37.6632   23.6516 H   0  0  0  0  0  0  0  0  0  0  0  0
  -25.9445  -31.6237   20.5691 H   0  0  0  0  0  0  0  0  0  0  0  0
  -26.7436  -31.0079   22.0108 H   0  0  0  0  0  0  0  0  0  0  0  0
  -28.0090  -29.1452   21.2057 H   0  0  0  0  0  0  0  0  0  0  0  0
  -26.1369  -26.0560   19.0719 H   0  0  0  0  0  0  0  0  0  0  0  0
  -24.0652  -27.2961   19.0997 H   0  0  0  0  0  0  0  0  0  0  0  0
  -23.6156  -30.5365   19.3930 H   0  0  0  0  0  0  0  0  0  0  0  0
  -22.7355  -29.1425   19.9945 H   0  0  0  0  0  0  0  0  0  0  0  0
  -25.1353  -36.2335   25.0565 H   0  0  0  0  0  0  0  0  0  0  0  0
  -21.0070  -28.3206   24.0793 H   0  0  0  0  0  0  0  0  0  0  0  0
  -20.5555  -26.2518   23.3550 H   0  0  0  0  0  0  0  0  0  0  0  0
  -21.5974  -26.8362   22.0454 H   0  0  0  0  0  0  0  0  0  0  0  0
  -19.6810  -25.6422   21.1488 H   0  0  0  0  0  0  0  0  0  0  0  0
  -19.6406  -27.3343   20.7034 H   0  0  0  0  0  0  0  0  0  0  0  0
  -17.4282  -26.6888   21.4113 H   0  0  0  0  0  0  0  0  0  0  0  0
  -18.0803  -26.0130   22.9049 H   0  0  0  0  0  0  0  0  0  0  0  0
  -19.7265  -30.6774   24.2204 H   0  0  0  0  0  0  0  0  0  0  0  0
  -17.5064  -31.5856   24.4483 H   0  0  0  0  0  0  0  0  0  0  0  0
  -15.5878  -30.2839   23.7407 H   0  0  0  0  0  0  0  0  0  0  0  0
  -15.9120  -28.0941   22.7766 H   0  0  0  0  0  0  0  0  0  0  0  0
  -24.5787  -30.7757   25.6817 H   0  0  0  0  0  0  0  0  0  0  0  0
  -25.0041  -32.2289   26.5536 H   0  0  0  0  0  0  0  0  0  0  0  0
  -25.8166  -30.7245   26.9138 H   0  0  0  0  0  0  0  0  0  0  0  0
  -26.2892  -29.7335   24.0803 H   0  0  0  0  0  0  0  0  0  0  0  0
  -27.4336  -29.7484   25.4006 H   0  0  0  0  0  0  0  0  0  0  0  0
  -27.8466  -30.4994   23.8779 H   0  0  0  0  0  0  0  0  0  0  0  0
  -27.2251  -33.3632   26.1242 H   0  0  0  0  0  0  0  0  0  0  0  0
  -28.3902  -32.6065   25.0645 H   0  0  0  0  0  0  0  0  0  0  0  0
  -27.9772  -31.8555   26.5872 H   0  0  0  0  0  0  0  0  0  0  0  0
  -28.2744  -38.0016   24.6863 H   0  0  0  0  0  0  0  0  0  0  0  0
  -28.0396  -36.2711   24.7461 H   0  0  0  0  0  0  0  0  0  0  0  0
  -27.1773  -37.3087   25.8564 H   0  0  0  0  0  0  0  0  0  0  0  0
  -20.9627  -29.9365   21.7352 H   0  0  0  0  0  0  0  0  0  0  0  0
  -26.0447  -38.2561   24.0273 H   0  0  0  0  0  0  0  0  0  0  0  0
  -28.7421  -20.5506   17.4651 H   0  0  0  0  0  0  0  0  0  0  0  0
  -29.7887  -24.3282   16.2921 H   0  0  0  0  0  0  0  0  0  0  0  0
  -31.2639  -28.9212   19.7023 H   0  0  0  0  0  0  0  0  0  0  0  0
  -30.6223  -27.8879   18.4033 H   0  0  0  0  0  0  0  0  0  0  0  0
  -30.6364  -25.3764   20.5386 H   0  0  0  0  0  0  0  0  0  0  0  0
  -32.2091  -24.8043   19.9911 H   0  0  0  0  0  0  0  0  0  0  0  0
  -29.0641  -28.7269   20.1193 H   0  0  0  0  0  0  0  0  0  0  0  0
  -29.9737  -27.3493   21.0918 H   0  0  0  0  0  0  0  0  0  0  0  0
  -32.2568  -27.1086   20.7356 H   0  0  0  0  0  0  0  0  0  0  0  0
  -29.2756  -21.0655   20.7344 H   0  0  0  0  0  0  0  0  0  0  0  0
  -30.8236  -25.7356   17.7797 H   0  0  0  0  0  0  0  0  0  0  0  0
  -32.5779  -26.7686   17.8910 H   0  0  0  0  0  0  0  0  0  0  0  0
  1 25  1  0  0  0  0
  1 30  2  0  0  0  0
  1 81  1  0  0  0  0
  2  3  1  0  0  0  0
  2 25  1  0  0  0  0
  2 84  1  0  0  0  0
  2 85  1  0  0  0  0
  3  4  1  0  0  0  0
  3 86  1  0  0  0  0
  3 87  1  0  0  0  0
  4  5  1  0  0  0  0
  4 88  1  0  0  0  0
  4 89  1  0  0  0  0
  5  6  1  0  0  0  0
  5 26  1  0  0  0  0
  5 90  1  6  0  0  0
  6 25  1  0  0  0  0
  6 91  1  0  0  0  0
  6 92  1  0  0  0  0
  7  8  2  0  0  0  0
  7 26  1  0  0  0  0
  7 29  1  0  0  0  0
  8  9  1  0  0  0  0
  8 22  1  0  0  0  0
  9 10  1  0  0  0  0
  9 27  2  0  0  0  0
 10 11  2  0  0  0  0
 10 15  1  0  0  0  0
 11 12  1  0  0  0  0
 11 93  1  0  0  0  0
 12 13  2  0  0  0  0
 12 94  1  0  0  0  0
 13 14  1  0  0  0  0
 13 31  1  0  0  0  0
 14 15  2  0  0  0  0
 14 95  1  0  0  0  0
 15 96  1  0  0  0  0
 16 17  2  0  0  0  0
 16 21  1  0  0  0  0
 16 31  1  0  0  0  0
 17 18  1  0  0  0  0
 17 97  1  0  0  0  0
 18 19  2  0  0  0  0
 18 98  1  0  0  0  0
 19 20  1  0  0  0  0
 19 24  1  0  0  0  0
 20 21  2  0  0  0  0
 20 99  1  0  0  0  0
 21 23  1  0  0  0  0
 22 28  1  0  0  0  0
 22 32  2  0  0  0  0
 26 27  1  0  0  0  0
 28100  1  0  0  0  0
 28101  1  0  0  0  0
 29102  1  0  0  0  0
 29103  1  0  0  0  0
 33 34  1  0  0  0  0
 33 66  1  0  0  0  0
 33 70  2  0  0  0  0
 34 36  1  0  0  0  0
 34 59  1  0  0  0  0
 34104  1  6  0  0  0
 35 44  2  0  0  0  0
 35 45  1  0  0  0  0
 35 68  1  0  0  0  0
 36 56  1  0  0  0  0
 36105  1  0  0  0  0
 37 39  1  0  0  0  0
 37 47  1  0  0  0  0
 37 66  1  0  0  0  0
 37106  1  6  0  0  0
 38 43  2  0  0  0  0
 38 46  1  0  0  0  0
 38 47  1  0  0  0  0
 39 64  1  0  0  0  0
 39 67  2  0  0  0  0
 40 52  1  0  0  0  0
 40 53  2  0  0  0  0
 40 58  1  0  0  0  0
 41107  1  0  0  0  0
 41108  1  0  0  0  0
 41109  1  0  0  0  0
 42 43  1  0  0  0  0
 42 66  1  0  0  0  0
 42110  1  0  0  0  0
 42111  1  0  0  0  0
 43 44  1  0  0  0  0
 44112  1  0  0  0  0
 45 46  2  0  0  0  0
 45113  1  0  0  0  0
 46114  1  0  0  0  0
 47115  1  0  0  0  0
 47116  1  0  0  0  0
 48 41  1  0  0  0  0
 48 56  1  0  0  0  0
 48 65  1  0  0  0  0
 48117  1  1  0  0  0
 49 50  1  0  0  0  0
 49 53  1  0  0  0  0
 49 64  1  0  0  0  0
 49118  1  1  0  0  0
 50 51  1  0  0  0  0
 50119  1  0  0  0  0
 50120  1  0  0  0  0
 51 52  1  0  0  0  0
 51121  1  0  0  0  0
 51122  1  0  0  0  0
 52123  1  0  0  0  0
 52124  1  0  0  0  0
 53 54  1  0  0  0  0
 54 55  2  0  0  0  0
 54125  1  0  0  0  0
 55 57  1  0  0  0  0
 55126  1  0  0  0  0
 56 69  2  0  0  0  0
 57 58  2  0  0  0  0
 57127  1  0  0  0  0
 58128  1  0  0  0  0
 59 60  1  0  0  0  0
 59 61  1  0  0  0  0
 59 62  1  0  0  0  0
 60129  1  0  0  0  0
 60130  1  0  0  0  0
 60131  1  0  0  0  0
 61132  1  0  0  0  0
 61133  1  0  0  0  0
 61134  1  0  0  0  0
 62135  1  0  0  0  0
 62136  1  0  0  0  0
 62137  1  0  0  0  0
 63 65  1  0  0  0  0
 63138  1  0  0  0  0
 63139  1  0  0  0  0
 63140  1  0  0  0  0
 64141  1  0  0  0  0
 65142  1  0  0  0  0
 68 77  1  0  0  0  0
 71 73  2  0  0  0  0
 71 79  1  0  0  0  0
 71143  1  0  0  0  0
 72 74  1  0  0  0  0
 72 79  2  0  0  0  0
 72144  1  0  0  0  0
 73 80  1  0  0  0  0
 73 81  1  0  0  0  0
 74 80  2  0  0  0  0
 74 82  1  0  0  0  0
 75 77  1  0  0  0  0
 75 78  1  0  0  0  0
 75145  1  0  0  0  0
 75146  1  0  0  0  0
 76 78  1  0  0  0  0
 76 82  1  0  0  0  0
 76147  1  0  0  0  0
 76148  1  0  0  0  0
 77149  1  0  0  0  0
 77150  1  0  0  0  0
 78 83  1  0  0  0  0
 78151  1  1  0  0  0
 81152  1  0  0  0  0
 82153  1  0  0  0  0
 83154  1  0  0  0  0
M  ISO  4   1 100  68 101  77 101  81 100
M  END
$$$$
24
 OpenBabel04052305473D

148156  0  0  0  0  0  0  0  0999 V2000
  -30.7652  -14.3608   20.6636 C   0  0  0  0  0  0  0  0  0  0  0  0
  -30.4392  -12.2669   19.3775 C   0  0  0  0  0  0  0  0  0  0  0  0
  -29.4791  -12.5281   18.1977 C   0  0  0  0  0  0  0  0  0  0  0  0
  -27.9985  -12.3963   18.6038 C   0  0  0  0  0  0  0  0  0  0  0  0
  -27.6639  -13.2170   19.8820 C   0  0  2  0  0  0  0  0  0  0  0  0
  -28.6795  -12.9602   21.0279 C   0  0  0  0  0  0  0  0  0  0  0  0
  -25.2633  -13.8245   20.5754 C   0  0  0  0  0  0  0  0  0  0  0  0
  -24.1645  -13.0409   20.9408 C   0  0  0  0  0  0  0  0  0  0  0  0
  -24.6400  -11.7009   20.8697 C   0  0  0  0  0  0  0  0  0  0  0  0
  -23.9005  -10.4085   21.0420 C   0  0  0  0  0  0  0  0  0  0  0  0
  -24.3588   -9.4123   21.9123 C   0  0  0  0  0  0  0  0  0  0  0  0
  -23.6296   -8.2350   22.0803 C   0  0  0  0  0  0  0  0  0  0  0  0
  -22.4385   -8.0419   21.3657 C   0  0  0  0  0  0  0  0  0  0  0  0
  -22.0103   -9.0167   20.4678 C   0  0  0  0  0  0  0  0  0  0  0  0
  -22.7317  -10.1925   20.3102 C   0  0  0  0  0  0  0  0  0  0  0  0
  -21.6857   -6.0709   22.5391 C   0  0  0  0  0  0  0  0  0  0  0  0
  -21.4064   -6.5490   23.8264 C   0  0  0  0  0  0  0  0  0  0  0  0
  -21.3635   -5.6677   24.9085 C   0  0  0  0  0  0  0  0  0  0  0  0
  -21.5973   -4.3067   24.7088 C   0  0  0  0  0  0  0  0  0  0  0  0
  -21.8700   -3.8284   23.4282 C   0  0  0  0  0  0  0  0  0  0  0  0
  -21.9144   -4.7056   22.3460 C   0  0  0  0  0  0  0  0  0  0  0  0
  -22.8194  -13.5263   21.1763 C   0  0  0  0  0  0  0  0  0  0  0  0
  -22.1559   -4.2206   21.1063 F   0  0  0  0  0  0  0  0  0  0  0  0
  -21.5628   -3.4510   25.7555 F   0  0  0  0  0  0  0  0  0  0  0  0
  -30.0261  -13.1803   20.4553 N   0  0  0  0  0  0  0  0  0  0  0  0
  -26.2911  -12.9356   20.3443 N   0  0  0  0  0  0  0  0  0  0  0  0
  -25.9236  -11.6675   20.5847 N   0  0  0  0  0  0  0  0  0  0  0  0
  -22.0708  -12.7905   22.0005 N   0  0  0  0  0  0  0  0  0  0  0  0
  -25.4117  -15.1773   20.4097 N   0  0  0  0  0  0  0  0  0  0  0  0
  -31.7916  -14.6724   20.0536 O   0  0  0  0  0  0  0  0  0  0  0  0
  -21.6670   -6.9022   21.4423 O   0  0  0  0  0  0  0  0  0  0  0  0
  -22.3946  -14.5564   20.6568 O   0  0  0  0  0  0  0  0  0  0  0  0
  -24.6048  -31.8614   23.2223 C   0  0  0  0  0  0  0  0  0  0  0  0
  -25.8822  -32.4841   23.8616 C   0  0  1  0  0  0  0  0  0  0  0  0
  -27.2536  -27.5042   20.1156 C   0  0  0  0  0  0  0  0  0  0  0  0
  -25.5726  -33.8762   24.2210 N   0  0  0  0  0  0  0  0  0  0  0  0
  -23.4066  -30.4859   21.5461 C   0  0  2  0  0  0  0  0  0  0  0  0
  -24.8467  -28.9636   20.1247 C   0  0  0  0  0  0  0  0  0  0  0  0
  -22.7412  -29.4652   22.5052 C   0  0  0  0  0  0  0  0  0  0  0  0
  -18.0167  -28.1302   22.8626 C   0  0  0  0  0  0  0  0  0  0  0  0
  -24.1342  -36.7390   23.2568 C   0  0  0  0  0  0  0  0  0  0  0  0
  -25.9141  -30.8882   21.3456 C   0  0  0  0  0  0  0  0  0  0  0  0
  -25.9930  -29.5029   20.7208 C   0  0  0  0  0  0  0  0  0  0  0  0
  -27.1758  -28.7612   20.7331 C   0  0  0  0  0  0  0  0  0  0  0  0
  -26.1032  -26.9836   19.5230 C   0  0  0  0  0  0  0  0  0  0  0  0
  -24.9097  -27.7011   19.5331 C   0  0  0  0  0  0  0  0  0  0  0  0
  -23.5715  -29.7899   20.1582 C   0  0  0  0  0  0  0  0  0  0  0  0
  -25.3990  -36.3212   24.0232 C   0  0  1  0  0  0  0  0  0  0  0  0
  -20.5793  -28.3813   23.1004 C   0  0  2  0  0  0  0  0  0  0  0  0
  -20.6548  -26.9392   22.5411 C   0  0  0  0  0  0  0  0  0  0  0  0
  -19.5615  -26.6407   21.5143 C   0  0  0  0  0  0  0  0  0  0  0  0
  -18.1797  -26.7818   22.1673 C   0  0  0  0  0  0  0  0  0  0  0  0
  -19.1385  -28.8769   23.2988 C   0  0  0  0  0  0  0  0  0  0  0  0
  -18.9183  -30.1286   23.8878 C   0  0  0  0  0  0  0  0  0  0  0  0
  -17.6396  -30.6493   24.0352 C   0  0  0  0  0  0  0  0  0  0  0  0
  -25.9153  -34.9582   23.4993 C   0  0  0  0  0  0  0  0  0  0  0  0
  -16.5415  -29.9068   23.6254 C   0  0  0  0  0  0  0  0  0  0  0  0
  -16.7331  -28.6521   23.0586 C   0  0  0  0  0  0  0  0  0  0  0  0
  -26.4583  -31.6439   25.0683 C   0  0  0  0  0  0  0  0  0  0  0  0
  -25.3807  -31.3179   26.1374 C   0  0  0  0  0  0  0  0  0  0  0  0
  -27.0530  -30.3024   24.5680 C   0  0  0  0  0  0  0  0  0  0  0  0
  -27.6014  -32.4281   25.7651 C   0  0  0  0  0  0  0  0  0  0  0  0
  -27.5629  -37.2220   24.8621 C   0  0  0  0  0  0  0  0  0  0  0  0
  -21.4133  -29.3375   22.3735 N   0  0  0  0  0  0  0  0  0  0  0  0
  -26.4706  -37.3372   23.9061 N   0  0  0  0  0  0  0  0  0  0  0  0
  -24.6674  -31.0544   22.1178 N   0  0  0  0  0  0  0  0  0  0  0  0
  -23.4259  -28.8150   23.2971 O   0  0  0  0  0  0  0  0  0  0  0  0
  -28.3948  -26.7345   20.0089 O   0  0  0  0  0  0  0  0  0  0  0  0
  -26.5870  -34.9065   22.4671 O   0  0  0  0  0  0  0  0  0  0  0  0
  -23.5365  -32.1254   23.7833 O   0  0  0  0  0  0  0  0  0  0  0  0
  -32.2130  -17.9450   21.9293 C   0  0  0  0  0  0  0  0  0  0  0  0
  -31.4577  -17.0458   22.6525 C   0  0  0  0  0  0  0  0  0  0  0  0
  -30.6613  -19.3192   22.6463 C   0  0  0  0  0  0  0  0  0  0  0  0
  -31.6556  -15.5984   22.8609 C   0  0  0  0  0  0  0  0  0  0  0  0
  -30.3045  -21.7642   22.2999 C   0  0  0  0  0  0  0  0  0  0  0  0
  -29.2929  -22.8232   22.7049 C   0  0  0  0  0  0  0  0  0  0  0  0
  -31.7576  -19.2490   21.9243 N   0  0  0  0  0  0  0  0  0  0  0  0
  -29.9376  -20.4815   22.8550 N   0  0  0  0  0  0  0  0  0  0  0  0
  -30.7481  -14.7877   22.0799 N   0  0  0  0  0  0  0  0  0  0  0  0
  -30.1218  -17.8551   23.3607 S   0  0  0  0  0  0  0  0  0  0  0  0
  -31.4485  -12.4701   19.0860 H   0  0  0  0  0  0  0  0  0  0  0  0
  -30.3970  -11.2460   19.6950 H   0  0  0  0  0  0  0  0  0  0  0  0
  -29.6870  -11.8204   17.4226 H   0  0  0  0  0  0  0  0  0  0  0  0
  -29.6375  -13.5326   17.8649 H   0  0  0  0  0  0  0  0  0  0  0  0
  -27.7830  -11.3650   18.7904 H   0  0  0  0  0  0  0  0  0  0  0  0
  -27.4028  -12.7801   17.8021 H   0  0  0  0  0  0  0  0  0  0  0  0
  -27.7353  -14.2503   19.6136 H   0  0  0  0  0  0  0  0  0  0  0  0
  -28.5890  -11.9550   21.3832 H   0  0  0  0  0  0  0  0  0  0  0  0
  -28.5005  -13.6134   21.8562 H   0  0  0  0  0  0  0  0  0  0  0  0
  -25.2399   -9.5495   22.4318 H   0  0  0  0  0  0  0  0  0  0  0  0
  -23.9663   -7.5070   22.7297 H   0  0  0  0  0  0  0  0  0  0  0  0
  -21.1515   -8.8641   19.9162 H   0  0  0  0  0  0  0  0  0  0  0  0
  -22.4016  -10.9115   19.6476 H   0  0  0  0  0  0  0  0  0  0  0  0
  -21.2319   -7.5552   23.9750 H   0  0  0  0  0  0  0  0  0  0  0  0
  -21.1589   -6.0228   25.8556 H   0  0  0  0  0  0  0  0  0  0  0  0
  -22.0396   -2.8212   23.2809 H   0  0  0  0  0  0  0  0  0  0  0  0
  -22.4401  -11.9703   22.4008 H   0  0  0  0  0  0  0  0  0  0  0  0
  -21.1493  -13.0679   22.2082 H   0  0  0  0  0  0  0  0  0  0  0  0
  -24.6538  -15.7807   20.5848 H   0  0  0  0  0  0  0  0  0  0  0  0
  -26.2762  -15.5453   20.1156 H   0  0  0  0  0  0  0  0  0  0  0  0
  -26.6778  -32.4663   23.1464 H   0  0  0  0  0  0  0  0  0  0  0  0
  -25.0747  -34.0282   25.0566 H   0  0  0  0  0  0  0  0  0  0  0  0
  -22.7881  -31.3489   21.4131 H   0  0  0  0  0  0  0  0  0  0  0  0
  -23.3854  -35.9823   23.3648 H   0  0  0  0  0  0  0  0  0  0  0  0
  -24.3696  -36.8624   22.2204 H   0  0  0  0  0  0  0  0  0  0  0  0
  -23.7669  -37.6632   23.6516 H   0  0  0  0  0  0  0  0  0  0  0  0
  -25.9445  -31.6237   20.5691 H   0  0  0  0  0  0  0  0  0  0  0  0
  -26.7436  -31.0079   22.0108 H   0  0  0  0  0  0  0  0  0  0  0  0
  -28.0090  -29.1452   21.2057 H   0  0  0  0  0  0  0  0  0  0  0  0
  -26.1369  -26.0560   19.0719 H   0  0  0  0  0  0  0  0  0  0  0  0
  -24.0652  -27.2961   19.0997 H   0  0  0  0  0  0  0  0  0  0  0  0
  -23.6156  -30.5365   19.3930 H   0  0  0  0  0  0  0  0  0  0  0  0
  -22.7355  -29.1425   19.9945 H   0  0  0  0  0  0  0  0  0  0  0  0
  -25.1353  -36.2335   25.0565 H   0  0  0  0  0  0  0  0  0  0  0  0
  -21.0070  -28.3206   24.0793 H   0  0  0  0  0  0  0  0  0  0  0  0
  -20.5555  -26.2518   23.3550 H   0  0  0  0  0  0  0  0  0  0  0  0
  -21.5974  -26.8362   22.0454 H   0  0  0  0  0  0  0  0  0  0  0  0
  -19.6810  -25.6422   21.1488 H   0  0  0  0  0  0  0  0  0  0  0  0
  -19.6406  -27.3343   20.7034 H   0  0  0  0  0  0  0  0  0  0  0  0
  -17.4282  -26.6888   21.4113 H   0  0  0  0  0  0  0  0  0  0  0  0
  -18.0803  -26.0130   22.9049 H   0  0  0  0  0  0  0  0  0  0  0  0
  -19.7265  -30.6774   24.2204 H   0  0  0  0  0  0  0  0  0  0  0  0
  -17.5064  -31.5856   24.4483 H   0  0  0  0  0  0  0  0  0  0  0  0
  -15.5878  -30.2839   23.7407 H   0  0  0  0  0  0  0  0  0  0  0  0
  -15.9120  -28.0941   22.7766 H   0  0  0  0  0  0  0  0  0  0  0  0
  -24.5787  -30.7757   25.6817 H   0  0  0  0  0  0  0  0  0  0  0  0
  -25.0041  -32.2289   26.5536 H   0  0  0  0  0  0  0  0  0  0  0  0
  -25.8166  -30.7245   26.9138 H   0  0  0  0  0  0  0  0  0  0  0  0
  -26.2892  -29.7335   24.0803 H   0  0  0  0  0  0  0  0  0  0  0  0
  -27.4336  -29.7484   25.4006 H   0  0  0  0  0  0  0  0  0  0  0  0
  -27.8466  -30.4994   23.8779 H   0  0  0  0  0  0  0  0  0  0  0  0
  -27.2251  -33.3632   26.1242 H   0  0  0  0  0  0  0  0  0  0  0  0
  -28.3902  -32.6065   25.0645 H   0  0  0  0  0  0  0  0  0  0  0  0
  -27.9772  -31.8555   26.5872 H   0  0  0  0  0  0  0  0  0  0  0  0
  -28.2744  -38.0016   24.6863 H   0  0  0  0  0  0  0  0  0  0  0  0
  -28.0396  -36.2711   24.7461 H   0  0  0  0  0  0  0  0  0  0  0  0
  -27.1773  -37.3087   25.8564 H   0  0  0  0  0  0  0  0  0  0  0  0
  -20.9627  -29.9365   21.7352 H   0  0  0  0  0  0  0  0  0  0  0  0
  -26.0447  -38.2561   24.0273 H   0  0  0  0  0  0  0  0  0  0  0  0
  -33.0662  -17.6610   21.4229 H   0  0  0  0  0  0  0  0  0  0  0  0
  -31.5038  -15.3789   23.8971 H   0  0  0  0  0  0  0  0  0  0  0  0
  -32.6501  -15.3618   22.5450 H   0  0  0  0  0  0  0  0  0  0  0  0
  -31.2716  -22.0425   22.6635 H   0  0  0  0  0  0  0  0  0  0  0  0
  -30.3216  -21.6894   21.2327 H   0  0  0  0  0  0  0  0  0  0  0  0
  -29.6109  -23.1875   23.6594 H   0  0  0  0  0  0  0  0  0  0  0  0
  -28.3709  -22.2863   22.6244 H   0  0  0  0  0  0  0  0  0  0  0  0
  -29.1279  -20.4310   23.4127 H   0  0  0  0  0  0  0  0  0  0  0  0
  -29.9716  -14.4571   22.5868 H   0  0  0  0  0  0  0  0  0  0  0  0
  1 25  1  0  0  0  0
  1 30  2  0  0  0  0
  1 79  1  0  0  0  0
  2  3  1  0  0  0  0
  2 25  1  0  0  0  0
  2 81  1  0  0  0  0
  2 82  1  0  0  0  0
  3  4  1  0  0  0  0
  3 83  1  0  0  0  0
  3 84  1  0  0  0  0
  4  5  1  0  0  0  0
  4 85  1  0  0  0  0
  4 86  1  0  0  0  0
  5  6  1  0  0  0  0
  5 26  1  0  0  0  0
  5 87  1  6  0  0  0
  6 25  1  0  0  0  0
  6 88  1  0  0  0  0
  6 89  1  0  0  0  0
  7  8  2  0  0  0  0
  7 26  1  0  0  0  0
  7 29  1  0  0  0  0
  8  9  1  0  0  0  0
  8 22  1  0  0  0  0
  9 10  1  0  0  0  0
  9 27  2  0  0  0  0
 10 11  2  0  0  0  0
 10 15  1  0  0  0  0
 11 12  1  0  0  0  0
 11 90  1  0  0  0  0
 12 13  2  0  0  0  0
 12 91  1  0  0  0  0
 13 14  1  0  0  0  0
 13 31  1  0  0  0  0
 14 15  2  0  0  0  0
 14 92  1  0  0  0  0
 15 93  1  0  0  0  0
 16 17  2  0  0  0  0
 16 21  1  0  0  0  0
 16 31  1  0  0  0  0
 17 18  1  0  0  0  0
 17 94  1  0  0  0  0
 18 19  2  0  0  0  0
 18 95  1  0  0  0  0
 19 20  1  0  0  0  0
 19 24  1  0  0  0  0
 20 21  2  0  0  0  0
 20 96  1  0  0  0  0
 21 23  1  0  0  0  0
 22 28  1  0  0  0  0
 22 32  2  0  0  0  0
 26 27  1  0  0  0  0
 28 97  1  0  0  0  0
 28 98  1  0  0  0  0
 29 99  1  0  0  0  0
 29100  1  0  0  0  0
 33 34  1  0  0  0  0
 33 66  1  0  0  0  0
 33 70  2  0  0  0  0
 34 36  1  0  0  0  0
 34 59  1  0  0  0  0
 34101  1  6  0  0  0
 35 44  2  0  0  0  0
 35 45  1  0  0  0  0
 35 68  1  0  0  0  0
 36 56  1  0  0  0  0
 36102  1  0  0  0  0
 37 39  1  0  0  0  0
 37 47  1  0  0  0  0
 37 66  1  0  0  0  0
 37103  1  6  0  0  0
 38 43  2  0  0  0  0
 38 46  1  0  0  0  0
 38 47  1  0  0  0  0
 39 64  1  0  0  0  0
 39 67  2  0  0  0  0
 40 52  1  0  0  0  0
 40 53  2  0  0  0  0
 40 58  1  0  0  0  0
 41104  1  0  0  0  0
 41105  1  0  0  0  0
 41106  1  0  0  0  0
 42 43  1  0  0  0  0
 42 66  1  0  0  0  0
 42107  1  0  0  0  0
 42108  1  0  0  0  0
 43 44  1  0  0  0  0
 44109  1  0  0  0  0
 45 46  2  0  0  0  0
 45110  1  0  0  0  0
 46111  1  0  0  0  0
 47112  1  0  0  0  0
 47113  1  0  0  0  0
 48 41  1  0  0  0  0
 48 56  1  0  0  0  0
 48 65  1  0  0  0  0
 48114  1  1  0  0  0
 49 50  1  0  0  0  0
 49 53  1  0  0  0  0
 49 64  1  0  0  0  0
 49115  1  1  0  0  0
 50 51  1  0  0  0  0
 50116  1  0  0  0  0
 50117  1  0  0  0  0
 51 52  1  0  0  0  0
 51118  1  0  0  0  0
 51119  1  0  0  0  0
 52120  1  0  0  0  0
 52121  1  0  0  0  0
 53 54  1  0  0  0  0
 54 55  2  0  0  0  0
 54122  1  0  0  0  0
 55 57  1  0  0  0  0
 55123  1  0  0  0  0
 56 69  2  0  0  0  0
 57 58  2  0  0  0  0
 57124  1  0  0  0  0
 58125  1  0  0  0  0
 59 60  1  0  0  0  0
 59 61  1  0  0  0  0
 59 62  1  0  0  0  0
 60126  1  0  0  0  0
 60127  1  0  0  0  0
 60128  1  0  0  0  0
 61129  1  0  0  0  0
 61130  1  0  0  0  0
 61131  1  0  0  0  0
 62132  1  0  0  0  0
 62133  1  0  0  0  0
 62134  1  0  0  0  0
 63 65  1  0  0  0  0
 63135  1  0  0  0  0
 63136  1  0  0  0  0
 63137  1  0  0  0  0
 64138  1  0  0  0  0
 65139  1  0  0  0  0
 68 76  1  0  0  0  0
 71 72  2  0  0  0  0
 71 77  1  0  0  0  0
 71140  1  0  0  0  0
 72 74  1  0  0  0  0
 72 80  1  0  0  0  0
 73 77  2  0  0  0  0
 73 78  1  0  0  0  0
 73 80  1  0  0  0  0
 74 79  1  0  0  0  0
 74141  1  0  0  0  0
 74142  1  0  0  0  0
 75 76  1  0  0  0  0
 75 78  1  0  0  0  0
 75143  1  0  0  0  0
 75144  1  0  0  0  0
 76145  1  0  0  0  0
 76146  1  0  0  0  0
 78147  1  0  0  0  0
 79148  1  0  0  0  0
M  ISO  4   1 100  68 101  76 101  79 100
M  END
$$$$
25
 OpenBabel04052305473D

167175  0  0  0  0  0  0  0  0999 V2000
  -30.7652  -14.3608   20.6636 C   0  0  0  0  0  0  0  0  0  0  0  0
  -30.4392  -12.2669   19.3775 C   0  0  0  0  0  0  0  0  0  0  0  0
  -29.4791  -12.5281   18.1977 C   0  0  0  0  0  0  0  0  0  0  0  0
  -27.9985  -12.3963   18.6038 C   0  0  0  0  0  0  0  0  0  0  0  0
  -27.6639  -13.2170   19.8820 C   0  0  2  0  0  0  0  0  0  0  0  0
  -28.6795  -12.9602   21.0279 C   0  0  0  0  0  0  0  0  0  0  0  0
  -25.2633  -13.8245   20.5754 C   0  0  0  0  0  0  0  0  0  0  0  0
  -24.1645  -13.0409   20.9408 C   0  0  0  0  0  0  0  0  0  0  0  0
  -24.6400  -11.7009   20.8697 C   0  0  0  0  0  0  0  0  0  0  0  0
  -23.9005  -10.4085   21.0420 C   0  0  0  0  0  0  0  0  0  0  0  0
  -24.3588   -9.4123   21.9123 C   0  0  0  0  0  0  0  0  0  0  0  0
  -23.6296   -8.2350   22.0803 C   0  0  0  0  0  0  0  0  0  0  0  0
  -22.4385   -8.0419   21.3657 C   0  0  0  0  0  0  0  0  0  0  0  0
  -22.0103   -9.0167   20.4678 C   0  0  0  0  0  0  0  0  0  0  0  0
  -22.7317  -10.1925   20.3102 C   0  0  0  0  0  0  0  0  0  0  0  0
  -21.6857   -6.0709   22.5391 C   0  0  0  0  0  0  0  0  0  0  0  0
  -21.4064   -6.5490   23.8264 C   0  0  0  0  0  0  0  0  0  0  0  0
  -21.3635   -5.6677   24.9085 C   0  0  0  0  0  0  0  0  0  0  0  0
  -21.5973   -4.3067   24.7088 C   0  0  0  0  0  0  0  0  0  0  0  0
  -21.8700   -3.8284   23.4282 C   0  0  0  0  0  0  0  0  0  0  0  0
  -21.9144   -4.7056   22.3460 C   0  0  0  0  0  0  0  0  0  0  0  0
  -22.8194  -13.5263   21.1763 C   0  0  0  0  0  0  0  0  0  0  0  0
  -22.1559   -4.2206   21.1063 F   0  0  0  0  0  0  0  0  0  0  0  0
  -21.5628   -3.4510   25.7555 F   0  0  0  0  0  0  0  0  0  0  0  0
  -30.0261  -13.1803   20.4553 N   0  0  0  0  0  0  0  0  0  0  0  0
  -26.2911  -12.9356   20.3443 N   0  0  0  0  0  0  0  0  0  0  0  0
  -25.9236  -11.6675   20.5847 N   0  0  0  0  0  0  0  0  0  0  0  0
  -22.0708  -12.7905   22.0005 N   0  0  0  0  0  0  0  0  0  0  0  0
  -25.4117  -15.1773   20.4097 N   0  0  0  0  0  0  0  0  0  0  0  0
  -31.7916  -14.6724   20.0536 O   0  0  0  0  0  0  0  0  0  0  0  0
  -21.6670   -6.9022   21.4423 O   0  0  0  0  0  0  0  0  0  0  0  0
  -22.3946  -14.5564   20.6568 O   0  0  0  0  0  0  0  0  0  0  0  0
  -24.6048  -31.8614   23.2223 C   0  0  0  0  0  0  0  0  0  0  0  0
  -25.8822  -32.4841   23.8616 C   0  0  1  0  0  0  0  0  0  0  0  0
  -27.2536  -27.5042   20.1156 C   0  0  0  0  0  0  0  0  0  0  0  0
  -25.5726  -33.8762   24.2210 N   0  0  0  0  0  0  0  0  0  0  0  0
  -23.4066  -30.4859   21.5461 C   0  0  2  0  0  0  0  0  0  0  0  0
  -24.8467  -28.9636   20.1247 C   0  0  0  0  0  0  0  0  0  0  0  0
  -22.7412  -29.4652   22.5052 C   0  0  0  0  0  0  0  0  0  0  0  0
  -18.0167  -28.1302   22.8626 C   0  0  0  0  0  0  0  0  0  0  0  0
  -24.1342  -36.7390   23.2568 C   0  0  0  0  0  0  0  0  0  0  0  0
  -25.9141  -30.8882   21.3456 C   0  0  0  0  0  0  0  0  0  0  0  0
  -25.9930  -29.5029   20.7208 C   0  0  0  0  0  0  0  0  0  0  0  0
  -27.1758  -28.7612   20.7331 C   0  0  0  0  0  0  0  0  0  0  0  0
  -26.1032  -26.9836   19.5230 C   0  0  0  0  0  0  0  0  0  0  0  0
  -24.9097  -27.7011   19.5331 C   0  0  0  0  0  0  0  0  0  0  0  0
  -23.5715  -29.7899   20.1582 C   0  0  0  0  0  0  0  0  0  0  0  0
  -25.3990  -36.3212   24.0232 C   0  0  1  0  0  0  0  0  0  0  0  0
  -20.5793  -28.3813   23.1004 C   0  0  2  0  0  0  0  0  0  0  0  0
  -20.6548  -26.9392   22.5411 C   0  0  0  0  0  0  0  0  0  0  0  0
  -19.5615  -26.6407   21.5143 C   0  0  0  0  0  0  0  0  0  0  0  0
  -18.1797  -26.7818   22.1673 C   0  0  0  0  0  0  0  0  0  0  0  0
  -19.1385  -28.8769   23.2988 C   0  0  0  0  0  0  0  0  0  0  0  0
  -18.9183  -30.1286   23.8878 C   0  0  0  0  0  0  0  0  0  0  0  0
  -17.6396  -30.6493   24.0352 C   0  0  0  0  0  0  0  0  0  0  0  0
  -25.9153  -34.9582   23.4993 C   0  0  0  0  0  0  0  0  0  0  0  0
  -16.5415  -29.9068   23.6254 C   0  0  0  0  0  0  0  0  0  0  0  0
  -16.7331  -28.6521   23.0586 C   0  0  0  0  0  0  0  0  0  0  0  0
  -26.4583  -31.6439   25.0683 C   0  0  0  0  0  0  0  0  0  0  0  0
  -25.3807  -31.3179   26.1374 C   0  0  0  0  0  0  0  0  0  0  0  0
  -27.0530  -30.3024   24.5680 C   0  0  0  0  0  0  0  0  0  0  0  0
  -27.6014  -32.4281   25.7651 C   0  0  0  0  0  0  0  0  0  0  0  0
  -27.5629  -37.2220   24.8621 C   0  0  0  0  0  0  0  0  0  0  0  0
  -21.4133  -29.3375   22.3735 N   0  0  0  0  0  0  0  0  0  0  0  0
  -26.4706  -37.3372   23.9061 N   0  0  0  0  0  0  0  0  0  0  0  0
  -24.6674  -31.0544   22.1178 N   0  0  0  0  0  0  0  0  0  0  0  0
  -23.4259  -28.8150   23.2971 O   0  0  0  0  0  0  0  0  0  0  0  0
  -28.3948  -26.7345   20.0089 O   0  0  0  0  0  0  0  0  0  0  0  0
  -26.5870  -34.9065   22.4671 O   0  0  0  0  0  0  0  0  0  0  0  0
  -23.5365  -32.1254   23.7833 O   0  0  0  0  0  0  0  0  0  0  0  0
  -31.1389  -22.0518   21.1520 C   0  0  0  0  0  0  0  0  0  0  0  0
  -32.2953  -23.7634   21.4527 C   0  0  0  0  0  0  0  0  0  0  0  0
  -35.0663  -25.6650   18.5572 C   0  0  0  0  0  0  0  0  0  0  0  0
  -34.1424  -27.7446   21.7159 C   0  0  0  0  0  0  0  0  0  0  0  0
  -33.5559  -22.9014   23.4664 C   0  0  0  0  0  0  0  0  0  0  0  0
  -35.1756  -26.3296   19.9223 C   0  0  0  0  0  0  0  0  0  0  0  0
  -31.3155  -26.6883   20.8570 C   0  0  0  0  0  0  0  0  0  0  0  0
  -29.5065  -28.3633   20.3272 C   0  0  0  0  0  0  0  0  0  0  0  0
  -33.8690  -27.0085   20.3964 C   0  0  1  0  0  0  0  0  0  0  0  0
  -32.6641  -26.0339   20.4861 C   0  0  1  0  0  0  0  0  0  0  0  0
  -30.8426  -27.7734   19.8834 C   0  0  2  0  0  0  0  0  0  0  0  0
  -31.3668  -23.3004   20.6483 N   0  0  0  0  0  0  0  0  0  0  0  0
  -31.8679  -21.7131   22.2175 N   0  0  0  0  0  0  0  0  0  0  0  0
  -32.5990  -22.8250   22.3892 N   0  0  0  0  0  0  0  0  0  0  0  0
  -30.1785  -21.2015   20.5500 N   0  0  0  0  0  0  0  0  0  0  0  0
  -32.9374  -24.9858   21.4541 N   0  0  0  0  0  0  0  0  0  0  0  0
  -30.6817  -27.1946   18.5892 O   0  0  0  0  0  0  0  0  0  0  0  0
  -31.4485  -12.4701   19.0860 H   0  0  0  0  0  0  0  0  0  0  0  0
  -30.3970  -11.2460   19.6950 H   0  0  0  0  0  0  0  0  0  0  0  0
  -29.6870  -11.8204   17.4226 H   0  0  0  0  0  0  0  0  0  0  0  0
  -29.6375  -13.5326   17.8649 H   0  0  0  0  0  0  0  0  0  0  0  0
  -27.7830  -11.3650   18.7904 H   0  0  0  0  0  0  0  0  0  0  0  0
  -27.4028  -12.7801   17.8021 H   0  0  0  0  0  0  0  0  0  0  0  0
  -27.7353  -14.2503   19.6136 H   0  0  0  0  0  0  0  0  0  0  0  0
  -28.5890  -11.9550   21.3832 H   0  0  0  0  0  0  0  0  0  0  0  0
  -28.5005  -13.6134   21.8562 H   0  0  0  0  0  0  0  0  0  0  0  0
  -25.2399   -9.5495   22.4318 H   0  0  0  0  0  0  0  0  0  0  0  0
  -23.9663   -7.5070   22.7297 H   0  0  0  0  0  0  0  0  0  0  0  0
  -21.1515   -8.8641   19.9162 H   0  0  0  0  0  0  0  0  0  0  0  0
  -22.4016  -10.9115   19.6476 H   0  0  0  0  0  0  0  0  0  0  0  0
  -21.2319   -7.5552   23.9750 H   0  0  0  0  0  0  0  0  0  0  0  0
  -21.1589   -6.0228   25.8556 H   0  0  0  0  0  0  0  0  0  0  0  0
  -22.0396   -2.8212   23.2809 H   0  0  0  0  0  0  0  0  0  0  0  0
  -22.4401  -11.9703   22.4008 H   0  0  0  0  0  0  0  0  0  0  0  0
  -21.1493  -13.0679   22.2082 H   0  0  0  0  0  0  0  0  0  0  0  0
  -24.6538  -15.7807   20.5848 H   0  0  0  0  0  0  0  0  0  0  0  0
  -26.2762  -15.5453   20.1156 H   0  0  0  0  0  0  0  0  0  0  0  0
  -26.6778  -32.4663   23.1464 H   0  0  0  0  0  0  0  0  0  0  0  0
  -25.0747  -34.0282   25.0566 H   0  0  0  0  0  0  0  0  0  0  0  0
  -22.7881  -31.3489   21.4131 H   0  0  0  0  0  0  0  0  0  0  0  0
  -23.3854  -35.9823   23.3648 H   0  0  0  0  0  0  0  0  0  0  0  0
  -24.3696  -36.8624   22.2204 H   0  0  0  0  0  0  0  0  0  0  0  0
  -23.7669  -37.6632   23.6516 H   0  0  0  0  0  0  0  0  0  0  0  0
  -25.9445  -31.6237   20.5691 H   0  0  0  0  0  0  0  0  0  0  0  0
  -26.7436  -31.0079   22.0108 H   0  0  0  0  0  0  0  0  0  0  0  0
  -28.0090  -29.1452   21.2057 H   0  0  0  0  0  0  0  0  0  0  0  0
  -26.1369  -26.0560   19.0719 H   0  0  0  0  0  0  0  0  0  0  0  0
  -24.0652  -27.2961   19.0997 H   0  0  0  0  0  0  0  0  0  0  0  0
  -23.6156  -30.5365   19.3930 H   0  0  0  0  0  0  0  0  0  0  0  0
  -22.7355  -29.1425   19.9945 H   0  0  0  0  0  0  0  0  0  0  0  0
  -25.1353  -36.2335   25.0565 H   0  0  0  0  0  0  0  0  0  0  0  0
  -21.0070  -28.3206   24.0793 H   0  0  0  0  0  0  0  0  0  0  0  0
  -20.5555  -26.2518   23.3550 H   0  0  0  0  0  0  0  0  0  0  0  0
  -21.5974  -26.8362   22.0454 H   0  0  0  0  0  0  0  0  0  0  0  0
  -19.6810  -25.6422   21.1488 H   0  0  0  0  0  0  0  0  0  0  0  0
  -19.6406  -27.3343   20.7034 H   0  0  0  0  0  0  0  0  0  0  0  0
  -17.4282  -26.6888   21.4113 H   0  0  0  0  0  0  0  0  0  0  0  0
  -18.0803  -26.0130   22.9049 H   0  0  0  0  0  0  0  0  0  0  0  0
  -19.7265  -30.6774   24.2204 H   0  0  0  0  0  0  0  0  0  0  0  0
  -17.5064  -31.5856   24.4483 H   0  0  0  0  0  0  0  0  0  0  0  0
  -15.5878  -30.2839   23.7407 H   0  0  0  0  0  0  0  0  0  0  0  0
  -15.9120  -28.0941   22.7766 H   0  0  0  0  0  0  0  0  0  0  0  0
  -24.5787  -30.7757   25.6817 H   0  0  0  0  0  0  0  0  0  0  0  0
  -25.0041  -32.2289   26.5536 H   0  0  0  0  0  0  0  0  0  0  0  0
  -25.8166  -30.7245   26.9138 H   0  0  0  0  0  0  0  0  0  0  0  0
  -26.2892  -29.7335   24.0803 H   0  0  0  0  0  0  0  0  0  0  0  0
  -27.4336  -29.7484   25.4006 H   0  0  0  0  0  0  0  0  0  0  0  0
  -27.8466  -30.4994   23.8779 H   0  0  0  0  0  0  0  0  0  0  0  0
  -27.2251  -33.3632   26.1242 H   0  0  0  0  0  0  0  0  0  0  0  0
  -28.3902  -32.6065   25.0645 H   0  0  0  0  0  0  0  0  0  0  0  0
  -27.9772  -31.8555   26.5872 H   0  0  0  0  0  0  0  0  0  0  0  0
  -28.2744  -38.0016   24.6863 H   0  0  0  0  0  0  0  0  0  0  0  0
  -28.0396  -36.2711   24.7461 H   0  0  0  0  0  0  0  0  0  0  0  0
  -27.1773  -37.3087   25.8564 H   0  0  0  0  0  0  0  0  0  0  0  0
  -20.9627  -29.9365   21.7352 H   0  0  0  0  0  0  0  0  0  0  0  0
  -26.0447  -38.2561   24.0273 H   0  0  0  0  0  0  0  0  0  0  0  0
  -36.0052  -25.2204   18.3008 H   0  0  0  0  0  0  0  0  0  0  0  0
  -34.8068  -26.3988   17.8230 H   0  0  0  0  0  0  0  0  0  0  0  0
  -34.3101  -24.9086   18.5883 H   0  0  0  0  0  0  0  0  0  0  0  0
  -34.9801  -28.3987   21.5925 H   0  0  0  0  0  0  0  0  0  0  0  0
  -34.3569  -27.0315   22.4843 H   0  0  0  0  0  0  0  0  0  0  0  0
  -33.2807  -28.3165   21.9904 H   0  0  0  0  0  0  0  0  0  0  0  0
  -34.0404  -23.8552   23.4461 H   0  0  0  0  0  0  0  0  0  0  0  0
  -34.2861  -22.1279   23.3504 H   0  0  0  0  0  0  0  0  0  0  0  0
  -33.0508  -22.7778   24.4016 H   0  0  0  0  0  0  0  0  0  0  0  0
  -35.9433  -27.0734   19.8742 H   0  0  0  0  0  0  0  0  0  0  0  0
  -35.3965  -25.5556   20.6273 H   0  0  0  0  0  0  0  0  0  0  0  0
  -31.4146  -27.1302   21.8264 H   0  0  0  0  0  0  0  0  0  0  0  0
  -30.5818  -25.9102   20.8229 H   0  0  0  0  0  0  0  0  0  0  0  0
  -29.2030  -29.1901   19.7195 H   0  0  0  0  0  0  0  0  0  0  0  0
  -29.4725  -28.7787   21.3127 H   0  0  0  0  0  0  0  0  0  0  0  0
  -33.5701  -27.7207   19.6559 H   0  0  0  0  0  0  0  0  0  0  0  0
  -32.5577  -25.6480   19.4938 H   0  0  0  0  0  0  0  0  0  0  0  0
  -31.5730  -28.5551   19.8630 H   0  0  0  0  0  0  0  0  0  0  0  0
  -29.4011  -21.6050   20.1004 H   0  0  0  0  0  0  0  0  0  0  0  0
  -33.6157  -25.1559   22.1471 H   0  0  0  0  0  0  0  0  0  0  0  0
  -30.0165  -26.4899   18.6306 H   0  0  0  0  0  0  0  0  0  0  0  0
  1 25  1  0  0  0  0
  1 30  2  0  0  0  0
  1 85  1  0  0  0  0
  2  3  1  0  0  0  0
  2 25  1  0  0  0  0
  2 88  1  0  0  0  0
  2 89  1  0  0  0  0
  3  4  1  0  0  0  0
  3 90  1  0  0  0  0
  3 91  1  0  0  0  0
  4  5  1  0  0  0  0
  4 92  1  0  0  0  0
  4 93  1  0  0  0  0
  5  6  1  0  0  0  0
  5 26  1  0  0  0  0
  5 94  1  6  0  0  0
  6 25  1  0  0  0  0
  6 95  1  0  0  0  0
  6 96  1  0  0  0  0
  7  8  2  0  0  0  0
  7 26  1  0  0  0  0
  7 29  1  0  0  0  0
  8  9  1  0  0  0  0
  8 22  1  0  0  0  0
  9 10  1  0  0  0  0
  9 27  2  0  0  0  0
 10 11  2  0  0  0  0
 10 15  1  0  0  0  0
 11 12  1  0  0  0  0
 11 97  1  0  0  0  0
 12 13  2  0  0  0  0
 12 98  1  0  0  0  0
 13 14  1  0  0  0  0
 13 31  1  0  0  0  0
 14 15  2  0  0  0  0
 14 99  1  0  0  0  0
 15100  1  0  0  0  0
 16 17  2  0  0  0  0
 16 21  1  0  0  0  0
 16 31  1  0  0  0  0
 17 18  1  0  0  0  0
 17101  1  0  0  0  0
 18 19  2  0  0  0  0
 18102  1  0  0  0  0
 19 20  1  0  0  0  0
 19 24  1  0  0  0  0
 20 21  2  0  0  0  0
 20103  1  0  0  0  0
 21 23  1  0  0  0  0
 22 28  1  0  0  0  0
 22 32  2  0  0  0  0
 26 27  1  0  0  0  0
 28104  1  0  0  0  0
 28105  1  0  0  0  0
 29106  1  0  0  0  0
 29107  1  0  0  0  0
 33 34  1  0  0  0  0
 33 66  1  0  0  0  0
 33 70  2  0  0  0  0
 34 36  1  0  0  0  0
 34 59  1  0  0  0  0
 34108  1  6  0  0  0
 35 44  2  0  0  0  0
 35 45  1  0  0  0  0
 35 68  1  0  0  0  0
 36 56  1  0  0  0  0
 36109  1  0  0  0  0
 37 39  1  0  0  0  0
 37 47  1  0  0  0  0
 37 66  1  0  0  0  0
 37110  1  6  0  0  0
 38 43  2  0  0  0  0
 38 46  1  0  0  0  0
 38 47  1  0  0  0  0
 39 64  1  0  0  0  0
 39 67  2  0  0  0  0
 40 52  1  0  0  0  0
 40 53  2  0  0  0  0
 40 58  1  0  0  0  0
 41111  1  0  0  0  0
 41112  1  0  0  0  0
 41113  1  0  0  0  0
 42 43  1  0  0  0  0
 42 66  1  0  0  0  0
 42114  1  0  0  0  0
 42115  1  0  0  0  0
 43 44  1  0  0  0  0
 44116  1  0  0  0  0
 45 46  2  0  0  0  0
 45117  1  0  0  0  0
 46118  1  0  0  0  0
 47119  1  0  0  0  0
 47120  1  0  0  0  0
 48 41  1  0  0  0  0
 48 56  1  0  0  0  0
 48 65  1  0  0  0  0
 48121  1  1  0  0  0
 49 50  1  0  0  0  0
 49 53  1  0  0  0  0
 49 64  1  0  0  0  0
 49122  1  1  0  0  0
 50 51  1  0  0  0  0
 50123  1  0  0  0  0
 50124  1  0  0  0  0
 51 52  1  0  0  0  0
 51125  1  0  0  0  0
 51126  1  0  0  0  0
 52127  1  0  0  0  0
 52128  1  0  0  0  0
 53 54  1  0  0  0  0
 54 55  2  0  0  0  0
 54129  1  0  0  0  0
 55 57  1  0  0  0  0
 55130  1  0  0  0  0
 56 69  2  0  0  0  0
 57 58  2  0  0  0  0
 57131  1  0  0  0  0
 58132  1  0  0  0  0
 59 60  1  0  0  0  0
 59 61  1  0  0  0  0
 59 62  1  0  0  0  0
 60133  1  0  0  0  0
 60134  1  0  0  0  0
 60135  1  0  0  0  0
 61136  1  0  0  0  0
 61137  1  0  0  0  0
 61138  1  0  0  0  0
 62139  1  0  0  0  0
 62140  1  0  0  0  0
 62141  1  0  0  0  0
 63 65  1  0  0  0  0
 63142  1  0  0  0  0
 63143  1  0  0  0  0
 63144  1  0  0  0  0
 64145  1  0  0  0  0
 65146  1  0  0  0  0
 68 78  1  0  0  0  0
 71 82  1  0  0  0  0
 71 83  2  0  0  0  0
 71 85  1  0  0  0  0
 72 82  2  0  0  0  0
 72 84  1  0  0  0  0
 72 86  1  0  0  0  0
 73 76  1  0  0  0  0
 73147  1  0  0  0  0
 73148  1  0  0  0  0
 73149  1  0  0  0  0
 74150  1  0  0  0  0
 74151  1  0  0  0  0
 74152  1  0  0  0  0
 75 84  1  0  0  0  0
 75153  1  0  0  0  0
 75154  1  0  0  0  0
 75155  1  0  0  0  0
 76 79  1  0  0  0  0
 76156  1  0  0  0  0
 76157  1  0  0  0  0
 77 81  1  0  0  0  0
 77158  1  0  0  0  0
 77159  1  0  0  0  0
 78 81  1  0  0  0  0
 78160  1  0  0  0  0
 78161  1  0  0  0  0
 79 74  1  0  0  0  0
 79 80  1  0  0  0  0
 79162  1  6  0  0  0
 80 77  1  0  0  0  0
 80 86  1  0  0  0  0
 80163  1  6  0  0  0
 81 87  1  0  0  0  0
 81164  1  6  0  0  0
 83 84  1  0  0  0  0
 85165  1  0  0  0  0
 86166  1  0  0  0  0
 87167  1  0  0  0  0
M  ISO  4   1 100  68 101  78 101  85 100
M  END
$$$$
26
 OpenBabel04052305473D

155163  0  0  0  0  0  0  0  0999 V2000
  -30.7652  -14.3608   20.6636 C   0  0  0  0  0  0  0  0  0  0  0  0
  -30.4392  -12.2669   19.3775 C   0  0  0  0  0  0  0  0  0  0  0  0
  -29.4791  -12.5281   18.1977 C   0  0  0  0  0  0  0  0  0  0  0  0
  -27.9985  -12.3963   18.6038 C   0  0  0  0  0  0  0  0  0  0  0  0
  -27.6639  -13.2170   19.8820 C   0  0  2  0  0  0  0  0  0  0  0  0
  -28.6795  -12.9602   21.0279 C   0  0  0  0  0  0  0  0  0  0  0  0
  -25.2633  -13.8245   20.5754 C   0  0  0  0  0  0  0  0  0  0  0  0
  -24.1645  -13.0409   20.9408 C   0  0  0  0  0  0  0  0  0  0  0  0
  -24.6400  -11.7009   20.8697 C   0  0  0  0  0  0  0  0  0  0  0  0
  -23.9005  -10.4085   21.0420 C   0  0  0  0  0  0  0  0  0  0  0  0
  -24.3588   -9.4123   21.9123 C   0  0  0  0  0  0  0  0  0  0  0  0
  -23.6296   -8.2350   22.0803 C   0  0  0  0  0  0  0  0  0  0  0  0
  -22.4385   -8.0419   21.3657 C   0  0  0  0  0  0  0  0  0  0  0  0
  -22.0103   -9.0167   20.4678 C   0  0  0  0  0  0  0  0  0  0  0  0
  -22.7317  -10.1925   20.3102 C   0  0  0  0  0  0  0  0  0  0  0  0
  -21.6857   -6.0709   22.5391 C   0  0  0  0  0  0  0  0  0  0  0  0
  -21.4064   -6.5490   23.8264 C   0  0  0  0  0  0  0  0  0  0  0  0
  -21.3635   -5.6677   24.9085 C   0  0  0  0  0  0  0  0  0  0  0  0
  -21.5973   -4.3067   24.7088 C   0  0  0  0  0  0  0  0  0  0  0  0
  -21.8700   -3.8284   23.4282 C   0  0  0  0  0  0  0  0  0  0  0  0
  -21.9144   -4.7056   22.3460 C   0  0  0  0  0  0  0  0  0  0  0  0
  -22.8194  -13.5263   21.1763 C   0  0  0  0  0  0  0  0  0  0  0  0
  -22.1559   -4.2206   21.1063 F   0  0  0  0  0  0  0  0  0  0  0  0
  -21.5628   -3.4510   25.7555 F   0  0  0  0  0  0  0  0  0  0  0  0
  -30.0261  -13.1803   20.4553 N   0  0  0  0  0  0  0  0  0  0  0  0
  -26.2911  -12.9356   20.3443 N   0  0  0  0  0  0  0  0  0  0  0  0
  -25.9236  -11.6675   20.5847 N   0  0  0  0  0  0  0  0  0  0  0  0
  -22.0708  -12.7905   22.0005 N   0  0  0  0  0  0  0  0  0  0  0  0
  -25.4117  -15.1773   20.4097 N   0  0  0  0  0  0  0  0  0  0  0  0
  -31.7916  -14.6724   20.0536 O   0  0  0  0  0  0  0  0  0  0  0  0
  -21.6670   -6.9022   21.4423 O   0  0  0  0  0  0  0  0  0  0  0  0
  -22.3946  -14.5564   20.6568 O   0  0  0  0  0  0  0  0  0  0  0  0
  -24.6048  -31.8614   23.2223 C   0  0  0  0  0  0  0  0  0  0  0  0
  -25.8822  -32.4841   23.8616 C   0  0  1  0  0  0  0  0  0  0  0  0
  -27.2536  -27.5042   20.1156 C   0  0  0  0  0  0  0  0  0  0  0  0
  -25.5726  -33.8762   24.2210 N   0  0  0  0  0  0  0  0  0  0  0  0
  -23.4066  -30.4859   21.5461 C   0  0  2  0  0  0  0  0  0  0  0  0
  -24.8467  -28.9636   20.1247 C   0  0  0  0  0  0  0  0  0  0  0  0
  -22.7412  -29.4652   22.5052 C   0  0  0  0  0  0  0  0  0  0  0  0
  -18.0167  -28.1302   22.8626 C   0  0  0  0  0  0  0  0  0  0  0  0
  -24.1342  -36.7390   23.2568 C   0  0  0  0  0  0  0  0  0  0  0  0
  -25.9141  -30.8882   21.3456 C   0  0  0  0  0  0  0  0  0  0  0  0
  -25.9930  -29.5029   20.7208 C   0  0  0  0  0  0  0  0  0  0  0  0
  -27.1758  -28.7612   20.7331 C   0  0  0  0  0  0  0  0  0  0  0  0
  -26.1032  -26.9836   19.5230 C   0  0  0  0  0  0  0  0  0  0  0  0
  -24.9097  -27.7011   19.5331 C   0  0  0  0  0  0  0  0  0  0  0  0
  -23.5715  -29.7899   20.1582 C   0  0  0  0  0  0  0  0  0  0  0  0
  -25.3990  -36.3212   24.0232 C   0  0  1  0  0  0  0  0  0  0  0  0
  -20.5793  -28.3813   23.1004 C   0  0  2  0  0  0  0  0  0  0  0  0
  -20.6548  -26.9392   22.5411 C   0  0  0  0  0  0  0  0  0  0  0  0
  -19.5615  -26.6407   21.5143 C   0  0  0  0  0  0  0  0  0  0  0  0
  -18.1797  -26.7818   22.1673 C   0  0  0  0  0  0  0  0  0  0  0  0
  -19.1385  -28.8769   23.2988 C   0  0  0  0  0  0  0  0  0  0  0  0
  -18.9183  -30.1286   23.8878 C   0  0  0  0  0  0  0  0  0  0  0  0
  -17.6396  -30.6493   24.0352 C   0  0  0  0  0  0  0  0  0  0  0  0
  -25.9153  -34.9582   23.4993 C   0  0  0  0  0  0  0  0  0  0  0  0
  -16.5415  -29.9068   23.6254 C   0  0  0  0  0  0  0  0  0  0  0  0
  -16.7331  -28.6521   23.0586 C   0  0  0  0  0  0  0  0  0  0  0  0
  -26.4583  -31.6439   25.0683 C   0  0  0  0  0  0  0  0  0  0  0  0
  -25.3807  -31.3179   26.1374 C   0  0  0  0  0  0  0  0  0  0  0  0
  -27.0530  -30.3024   24.5680 C   0  0  0  0  0  0  0  0  0  0  0  0
  -27.6014  -32.4281   25.7651 C   0  0  0  0  0  0  0  0  0  0  0  0
  -27.5629  -37.2220   24.8621 C   0  0  0  0  0  0  0  0  0  0  0  0
  -21.4133  -29.3375   22.3735 N   0  0  0  0  0  0  0  0  0  0  0  0
  -26.4706  -37.3372   23.9061 N   0  0  0  0  0  0  0  0  0  0  0  0
  -24.6674  -31.0544   22.1178 N   0  0  0  0  0  0  0  0  0  0  0  0
  -23.4259  -28.8150   23.2971 O   0  0  0  0  0  0  0  0  0  0  0  0
  -28.3948  -26.7345   20.0089 O   0  0  0  0  0  0  0  0  0  0  0  0
  -26.5870  -34.9065   22.4671 O   0  0  0  0  0  0  0  0  0  0  0  0
  -23.5365  -32.1254   23.7833 O   0  0  0  0  0  0  0  0  0  0  0  0
  -31.5705  -18.9273   18.7988 C   0  0  0  0  0  0  0  0  0  0  0  0
  -30.4182  -19.6585   18.9983 C   0  0  0  0  0  0  0  0  0  0  0  0
  -30.3606  -17.3775   19.7704 C   0  0  0  0  0  0  0  0  0  0  0  0
  -30.5547  -23.1957   17.6867 C   0  0  0  0  0  0  0  0  0  0  0  0
  -29.5276  -25.3482   18.5088 C   0  0  0  0  0  0  0  0  0  0  0  0
  -31.1540  -21.8253   18.0036 C   0  0  0  0  0  0  0  0  0  0  0  0
  -29.0590  -26.1713   19.7043 C   0  0  0  0  0  0  0  0  0  0  0  0
  -30.1189  -23.9969   18.9233 C   0  0  2  0  0  0  0  0  0  0  0  0
  -31.5395  -17.6193   19.2413 N   0  0  0  0  0  0  0  0  0  0  0  0
  -30.1817  -20.9801   18.6534 N   0  0  0  0  0  0  0  0  0  0  0  0
  -29.9001  -16.1669   20.3450 N   0  0  0  0  0  0  0  0  0  0  0  0
  -31.2423  -24.2360   19.7668 O   0  0  0  0  0  0  0  0  0  0  0  0
  -29.2408  -18.6778   19.7687 S   0  0  0  0  0  0  0  0  0  0  0  0
  -31.4485  -12.4701   19.0860 H   0  0  0  0  0  0  0  0  0  0  0  0
  -30.3970  -11.2460   19.6950 H   0  0  0  0  0  0  0  0  0  0  0  0
  -29.6870  -11.8204   17.4226 H   0  0  0  0  0  0  0  0  0  0  0  0
  -29.6375  -13.5326   17.8649 H   0  0  0  0  0  0  0  0  0  0  0  0
  -27.7830  -11.3650   18.7904 H   0  0  0  0  0  0  0  0  0  0  0  0
  -27.4028  -12.7801   17.8021 H   0  0  0  0  0  0  0  0  0  0  0  0
  -27.7353  -14.2503   19.6136 H   0  0  0  0  0  0  0  0  0  0  0  0
  -28.5890  -11.9550   21.3832 H   0  0  0  0  0  0  0  0  0  0  0  0
  -28.5005  -13.6134   21.8562 H   0  0  0  0  0  0  0  0  0  0  0  0
  -25.2399   -9.5495   22.4318 H   0  0  0  0  0  0  0  0  0  0  0  0
  -23.9663   -7.5070   22.7297 H   0  0  0  0  0  0  0  0  0  0  0  0
  -21.1515   -8.8641   19.9162 H   0  0  0  0  0  0  0  0  0  0  0  0
  -22.4016  -10.9115   19.6476 H   0  0  0  0  0  0  0  0  0  0  0  0
  -21.2319   -7.5552   23.9750 H   0  0  0  0  0  0  0  0  0  0  0  0
  -21.1589   -6.0228   25.8556 H   0  0  0  0  0  0  0  0  0  0  0  0
  -22.0396   -2.8212   23.2809 H   0  0  0  0  0  0  0  0  0  0  0  0
  -22.4401  -11.9703   22.4008 H   0  0  0  0  0  0  0  0  0  0  0  0
  -21.1493  -13.0679   22.2082 H   0  0  0  0  0  0  0  0  0  0  0  0
  -24.6538  -15.7807   20.5848 H   0  0  0  0  0  0  0  0  0  0  0  0
  -26.2762  -15.5453   20.1156 H   0  0  0  0  0  0  0  0  0  0  0  0
  -26.6778  -32.4663   23.1464 H   0  0  0  0  0  0  0  0  0  0  0  0
  -25.0747  -34.0282   25.0566 H   0  0  0  0  0  0  0  0  0  0  0  0
  -22.7881  -31.3489   21.4131 H   0  0  0  0  0  0  0  0  0  0  0  0
  -23.3854  -35.9823   23.3648 H   0  0  0  0  0  0  0  0  0  0  0  0
  -24.3696  -36.8624   22.2204 H   0  0  0  0  0  0  0  0  0  0  0  0
  -23.7669  -37.6632   23.6516 H   0  0  0  0  0  0  0  0  0  0  0  0
  -25.9445  -31.6237   20.5691 H   0  0  0  0  0  0  0  0  0  0  0  0
  -26.7436  -31.0079   22.0108 H   0  0  0  0  0  0  0  0  0  0  0  0
  -28.0090  -29.1452   21.2057 H   0  0  0  0  0  0  0  0  0  0  0  0
  -26.1369  -26.0560   19.0719 H   0  0  0  0  0  0  0  0  0  0  0  0
  -24.0652  -27.2961   19.0997 H   0  0  0  0  0  0  0  0  0  0  0  0
  -23.6156  -30.5365   19.3930 H   0  0  0  0  0  0  0  0  0  0  0  0
  -22.7355  -29.1425   19.9945 H   0  0  0  0  0  0  0  0  0  0  0  0
  -25.1353  -36.2335   25.0565 H   0  0  0  0  0  0  0  0  0  0  0  0
  -21.0070  -28.3206   24.0793 H   0  0  0  0  0  0  0  0  0  0  0  0
  -20.5555  -26.2518   23.3550 H   0  0  0  0  0  0  0  0  0  0  0  0
  -21.5974  -26.8362   22.0454 H   0  0  0  0  0  0  0  0  0  0  0  0
  -19.6810  -25.6422   21.1488 H   0  0  0  0  0  0  0  0  0  0  0  0
  -19.6406  -27.3343   20.7034 H   0  0  0  0  0  0  0  0  0  0  0  0
  -17.4282  -26.6888   21.4113 H   0  0  0  0  0  0  0  0  0  0  0  0
  -18.0803  -26.0130   22.9049 H   0  0  0  0  0  0  0  0  0  0  0  0
  -19.7265  -30.6774   24.2204 H   0  0  0  0  0  0  0  0  0  0  0  0
  -17.5064  -31.5856   24.4483 H   0  0  0  0  0  0  0  0  0  0  0  0
  -15.5878  -30.2839   23.7407 H   0  0  0  0  0  0  0  0  0  0  0  0
  -15.9120  -28.0941   22.7766 H   0  0  0  0  0  0  0  0  0  0  0  0
  -24.5787  -30.7757   25.6817 H   0  0  0  0  0  0  0  0  0  0  0  0
  -25.0041  -32.2289   26.5536 H   0  0  0  0  0  0  0  0  0  0  0  0
  -25.8166  -30.7245   26.9138 H   0  0  0  0  0  0  0  0  0  0  0  0
  -26.2892  -29.7335   24.0803 H   0  0  0  0  0  0  0  0  0  0  0  0
  -27.4336  -29.7484   25.4006 H   0  0  0  0  0  0  0  0  0  0  0  0
  -27.8466  -30.4994   23.8779 H   0  0  0  0  0  0  0  0  0  0  0  0
  -27.2251  -33.3632   26.1242 H   0  0  0  0  0  0  0  0  0  0  0  0
  -28.3902  -32.6065   25.0645 H   0  0  0  0  0  0  0  0  0  0  0  0
  -27.9772  -31.8555   26.5872 H   0  0  0  0  0  0  0  0  0  0  0  0
  -28.2744  -38.0016   24.6863 H   0  0  0  0  0  0  0  0  0  0  0  0
  -28.0396  -36.2711   24.7461 H   0  0  0  0  0  0  0  0  0  0  0  0
  -27.1773  -37.3087   25.8564 H   0  0  0  0  0  0  0  0  0  0  0  0
  -20.9627  -29.9365   21.7352 H   0  0  0  0  0  0  0  0  0  0  0  0
  -26.0447  -38.2561   24.0273 H   0  0  0  0  0  0  0  0  0  0  0  0
  -32.4048  -19.3327   18.3465 H   0  0  0  0  0  0  0  0  0  0  0  0
  -29.6978  -23.0504   17.0625 H   0  0  0  0  0  0  0  0  0  0  0  0
  -31.3255  -23.7641   17.2095 H   0  0  0  0  0  0  0  0  0  0  0  0
  -30.2756  -25.9031   17.9820 H   0  0  0  0  0  0  0  0  0  0  0  0
  -28.6746  -25.1548   17.8924 H   0  0  0  0  0  0  0  0  0  0  0  0
  -31.9971  -21.9519   18.6502 H   0  0  0  0  0  0  0  0  0  0  0  0
  -31.4545  -21.3616   17.0873 H   0  0  0  0  0  0  0  0  0  0  0  0
  -29.9188  -26.7891   19.8593 H   0  0  0  0  0  0  0  0  0  0  0  0
  -28.5474  -25.3229   20.1085 H   0  0  0  0  0  0  0  0  0  0  0  0
  -29.3787  -23.4268   19.4449 H   0  0  0  0  0  0  0  0  0  0  0  0
  -29.2999  -21.3640   18.8638 H   0  0  0  0  0  0  0  0  0  0  0  0
  -28.9663  -16.2120   20.6536 H   0  0  0  0  0  0  0  0  0  0  0  0
  -31.9055  -24.7530   19.2832 H   0  0  0  0  0  0  0  0  0  0  0  0
  1 25  1  0  0  0  0
  1 30  2  0  0  0  0
  1 81  1  0  0  0  0
  2  3  1  0  0  0  0
  2 25  1  0  0  0  0
  2 84  1  0  0  0  0
  2 85  1  0  0  0  0
  3  4  1  0  0  0  0
  3 86  1  0  0  0  0
  3 87  1  0  0  0  0
  4  5  1  0  0  0  0
  4 88  1  0  0  0  0
  4 89  1  0  0  0  0
  5  6  1  0  0  0  0
  5 26  1  0  0  0  0
  5 90  1  6  0  0  0
  6 25  1  0  0  0  0
  6 91  1  0  0  0  0
  6 92  1  0  0  0  0
  7  8  2  0  0  0  0
  7 26  1  0  0  0  0
  7 29  1  0  0  0  0
  8  9  1  0  0  0  0
  8 22  1  0  0  0  0
  9 10  1  0  0  0  0
  9 27  2  0  0  0  0
 10 11  2  0  0  0  0
 10 15  1  0  0  0  0
 11 12  1  0  0  0  0
 11 93  1  0  0  0  0
 12 13  2  0  0  0  0
 12 94  1  0  0  0  0
 13 14  1  0  0  0  0
 13 31  1  0  0  0  0
 14 15  2  0  0  0  0
 14 95  1  0  0  0  0
 15 96  1  0  0  0  0
 16 17  2  0  0  0  0
 16 21  1  0  0  0  0
 16 31  1  0  0  0  0
 17 18  1  0  0  0  0
 17 97  1  0  0  0  0
 18 19  2  0  0  0  0
 18 98  1  0  0  0  0
 19 20  1  0  0  0  0
 19 24  1  0  0  0  0
 20 21  2  0  0  0  0
 20 99  1  0  0  0  0
 21 23  1  0  0  0  0
 22 28  1  0  0  0  0
 22 32  2  0  0  0  0
 26 27  1  0  0  0  0
 28100  1  0  0  0  0
 28101  1  0  0  0  0
 29102  1  0  0  0  0
 29103  1  0  0  0  0
 33 34  1  0  0  0  0
 33 66  1  0  0  0  0
 33 70  2  0  0  0  0
 34 36  1  0  0  0  0
 34 59  1  0  0  0  0
 34104  1  6  0  0  0
 35 44  2  0  0  0  0
 35 45  1  0  0  0  0
 35 68  1  0  0  0  0
 36 56  1  0  0  0  0
 36105  1  0  0  0  0
 37 39  1  0  0  0  0
 37 47  1  0  0  0  0
 37 66  1  0  0  0  0
 37106  1  6  0  0  0
 38 43  2  0  0  0  0
 38 46  1  0  0  0  0
 38 47  1  0  0  0  0
 39 64  1  0  0  0  0
 39 67  2  0  0  0  0
 40 52  1  0  0  0  0
 40 53  2  0  0  0  0
 40 58  1  0  0  0  0
 41107  1  0  0  0  0
 41108  1  0  0  0  0
 41109  1  0  0  0  0
 42 43  1  0  0  0  0
 42 66  1  0  0  0  0
 42110  1  0  0  0  0
 42111  1  0  0  0  0
 43 44  1  0  0  0  0
 44112  1  0  0  0  0
 45 46  2  0  0  0  0
 45113  1  0  0  0  0
 46114  1  0  0  0  0
 47115  1  0  0  0  0
 47116  1  0  0  0  0
 48 41  1  0  0  0  0
 48 56  1  0  0  0  0
 48 65  1  0  0  0  0
 48117  1  1  0  0  0
 49 50  1  0  0  0  0
 49 53  1  0  0  0  0
 49 64  1  0  0  0  0
 49118  1  1  0  0  0
 50 51  1  0  0  0  0
 50119  1  0  0  0  0
 50120  1  0  0  0  0
 51 52  1  0  0  0  0
 51121  1  0  0  0  0
 51122  1  0  0  0  0
 52123  1  0  0  0  0
 52124  1  0  0  0  0
 53 54  1  0  0  0  0
 54 55  2  0  0  0  0
 54125  1  0  0  0  0
 55 57  1  0  0  0  0
 55126  1  0  0  0  0
 56 69  2  0  0  0  0
 57 58  2  0  0  0  0
 57127  1  0  0  0  0
 58128  1  0  0  0  0
 59 60  1  0  0  0  0
 59 61  1  0  0  0  0
 59 62  1  0  0  0  0
 60129  1  0  0  0  0
 60130  1  0  0  0  0
 60131  1  0  0  0  0
 61132  1  0  0  0  0
 61133  1  0  0  0  0
 61134  1  0  0  0  0
 62135  1  0  0  0  0
 62136  1  0  0  0  0
 62137  1  0  0  0  0
 63 65  1  0  0  0  0
 63138  1  0  0  0  0
 63139  1  0  0  0  0
 63140  1  0  0  0  0
 64141  1  0  0  0  0
 65142  1  0  0  0  0
 68 77  1  0  0  0  0
 71 72  2  0  0  0  0
 71 79  1  0  0  0  0
 71143  1  0  0  0  0
 72 80  1  0  0  0  0
 72 83  1  0  0  0  0
 73 79  2  0  0  0  0
 73 81  1  0  0  0  0
 73 83  1  0  0  0  0
 74 76  1  0  0  0  0
 74 78  1  0  0  0  0
 74144  1  0  0  0  0
 74145  1  0  0  0  0
 75 77  1  0  0  0  0
 75 78  1  0  0  0  0
 75146  1  0  0  0  0
 75147  1  0  0  0  0
 76 80  1  0  0  0  0
 76148  1  0  0  0  0
 76149  1  0  0  0  0
 77150  1  0  0  0  0
 77151  1  0  0  0  0
 78 82  1  0  0  0  0
 78152  1  1  0  0  0
 80153  1  0  0  0  0
 81154  1  0  0  0  0
 82155  1  0  0  0  0
M  ISO  4   1 100  68 101  77 101  81 100
M  END
$$$$
27
 OpenBabel04052305473D

150158  0  0  0  0  0  0  0  0999 V2000
  -30.7652  -14.3608   20.6636 C   0  0  0  0  0  0  0  0  0  0  0  0
  -30.4392  -12.2669   19.3775 C   0  0  0  0  0  0  0  0  0  0  0  0
  -29.4791  -12.5281   18.1977 C   0  0  0  0  0  0  0  0  0  0  0  0
  -27.9985  -12.3963   18.6038 C   0  0  0  0  0  0  0  0  0  0  0  0
  -27.6639  -13.2170   19.8820 C   0  0  2  0  0  0  0  0  0  0  0  0
  -28.6795  -12.9602   21.0279 C   0  0  0  0  0  0  0  0  0  0  0  0
  -25.2633  -13.8245   20.5754 C   0  0  0  0  0  0  0  0  0  0  0  0
  -24.1645  -13.0409   20.9408 C   0  0  0  0  0  0  0  0  0  0  0  0
  -24.6400  -11.7009   20.8697 C   0  0  0  0  0  0  0  0  0  0  0  0
  -23.9005  -10.4085   21.0420 C   0  0  0  0  0  0  0  0  0  0  0  0
  -24.3588   -9.4123   21.9123 C   0  0  0  0  0  0  0  0  0  0  0  0
  -23.6296   -8.2350   22.0803 C   0  0  0  0  0  0  0  0  0  0  0  0
  -22.4385   -8.0419   21.3657 C   0  0  0  0  0  0  0  0  0  0  0  0
  -22.0103   -9.0167   20.4678 C   0  0  0  0  0  0  0  0  0  0  0  0
  -22.7317  -10.1925   20.3102 C   0  0  0  0  0  0  0  0  0  0  0  0
  -21.6857   -6.0709   22.5391 C   0  0  0  0  0  0  0  0  0  0  0  0
  -21.4064   -6.5490   23.8264 C   0  0  0  0  0  0  0  0  0  0  0  0
  -21.3635   -5.6677   24.9085 C   0  0  0  0  0  0  0  0  0  0  0  0
  -21.5973   -4.3067   24.7088 C   0  0  0  0  0  0  0  0  0  0  0  0
  -21.8700   -3.8284   23.4282 C   0  0  0  0  0  0  0  0  0  0  0  0
  -21.9144   -4.7056   22.3460 C   0  0  0  0  0  0  0  0  0  0  0  0
  -22.8194  -13.5263   21.1763 C   0  0  0  0  0  0  0  0  0  0  0  0
  -22.1559   -4.2206   21.1063 F   0  0  0  0  0  0  0  0  0  0  0  0
  -21.5628   -3.4510   25.7555 F   0  0  0  0  0  0  0  0  0  0  0  0
  -30.0261  -13.1803   20.4553 N   0  0  0  0  0  0  0  0  0  0  0  0
  -26.2911  -12.9356   20.3443 N   0  0  0  0  0  0  0  0  0  0  0  0
  -25.9236  -11.6675   20.5847 N   0  0  0  0  0  0  0  0  0  0  0  0
  -22.0708  -12.7905   22.0005 N   0  0  0  0  0  0  0  0  0  0  0  0
  -25.4117  -15.1773   20.4097 N   0  0  0  0  0  0  0  0  0  0  0  0
  -31.7916  -14.6724   20.0536 O   0  0  0  0  0  0  0  0  0  0  0  0
  -21.6670   -6.9022   21.4423 O   0  0  0  0  0  0  0  0  0  0  0  0
  -22.3946  -14.5564   20.6568 O   0  0  0  0  0  0  0  0  0  0  0  0
  -24.6048  -31.8614   23.2223 C   0  0  0  0  0  0  0  0  0  0  0  0
  -25.8822  -32.4841   23.8616 C   0  0  1  0  0  0  0  0  0  0  0  0
  -27.2536  -27.5042   20.1156 C   0  0  0  0  0  0  0  0  0  0  0  0
  -25.5726  -33.8762   24.2210 N   0  0  0  0  0  0  0  0  0  0  0  0
  -23.4066  -30.4859   21.5461 C   0  0  2  0  0  0  0  0  0  0  0  0
  -24.8467  -28.9636   20.1247 C   0  0  0  0  0  0  0  0  0  0  0  0
  -22.7412  -29.4652   22.5052 C   0  0  0  0  0  0  0  0  0  0  0  0
  -18.0167  -28.1302   22.8626 C   0  0  0  0  0  0  0  0  0  0  0  0
  -24.1342  -36.7390   23.2568 C   0  0  0  0  0  0  0  0  0  0  0  0
  -25.9141  -30.8882   21.3456 C   0  0  0  0  0  0  0  0  0  0  0  0
  -25.9930  -29.5029   20.7208 C   0  0  0  0  0  0  0  0  0  0  0  0
  -27.1758  -28.7612   20.7331 C   0  0  0  0  0  0  0  0  0  0  0  0
  -26.1032  -26.9836   19.5230 C   0  0  0  0  0  0  0  0  0  0  0  0
  -24.9097  -27.7011   19.5331 C   0  0  0  0  0  0  0  0  0  0  0  0
  -23.5715  -29.7899   20.1582 C   0  0  0  0  0  0  0  0  0  0  0  0
  -25.3990  -36.3212   24.0232 C   0  0  1  0  0  0  0  0  0  0  0  0
  -20.5793  -28.3813   23.1004 C   0  0  2  0  0  0  0  0  0  0  0  0
  -20.6548  -26.9392   22.5411 C   0  0  0  0  0  0  0  0  0  0  0  0
  -19.5615  -26.6407   21.5143 C   0  0  0  0  0  0  0  0  0  0  0  0
  -18.1797  -26.7818   22.1673 C   0  0  0  0  0  0  0  0  0  0  0  0
  -19.1385  -28.8769   23.2988 C   0  0  0  0  0  0  0  0  0  0  0  0
  -18.9183  -30.1286   23.8878 C   0  0  0  0  0  0  0  0  0  0  0  0
  -17.6396  -30.6493   24.0352 C   0  0  0  0  0  0  0  0  0  0  0  0
  -25.9153  -34.9582   23.4993 C   0  0  0  0  0  0  0  0  0  0  0  0
  -16.5415  -29.9068   23.6254 C   0  0  0  0  0  0  0  0  0  0  0  0
  -16.7331  -28.6521   23.0586 C   0  0  0  0  0  0  0  0  0  0  0  0
  -26.4583  -31.6439   25.0683 C   0  0  0  0  0  0  0  0  0  0  0  0
  -25.3807  -31.3179   26.1374 C   0  0  0  0  0  0  0  0  0  0  0  0
  -27.0530  -30.3024   24.5680 C   0  0  0  0  0  0  0  0  0  0  0  0
  -27.6014  -32.4281   25.7651 C   0  0  0  0  0  0  0  0  0  0  0  0
  -27.5629  -37.2220   24.8621 C   0  0  0  0  0  0  0  0  0  0  0  0
  -21.4133  -29.3375   22.3735 N   0  0  0  0  0  0  0  0  0  0  0  0
  -26.4706  -37.3372   23.9061 N   0  0  0  0  0  0  0  0  0  0  0  0
  -24.6674  -31.0544   22.1178 N   0  0  0  0  0  0  0  0  0  0  0  0
  -23.4259  -28.8150   23.2971 O   0  0  0  0  0  0  0  0  0  0  0  0
  -28.3948  -26.7345   20.0089 O   0  0  0  0  0  0  0  0  0  0  0  0
  -26.5870  -34.9065   22.4671 O   0  0  0  0  0  0  0  0  0  0  0  0
  -23.5365  -32.1254   23.7833 O   0  0  0  0  0  0  0  0  0  0  0  0
  -27.8972  -18.9160   19.8780 C   0  0  0  0  0  0  0  0  0  0  0  0
  -25.7463  -19.7917   19.7818 C   0  0  0  0  0  0  0  0  0  0  0  0
  -27.0914  -20.0882   19.7946 C   0  0  0  0  0  0  0  0  0  0  0  0
  -27.1370  -17.7681   19.9260 C   0  0  0  0  0  0  0  0  0  0  0  0
  -26.7718  -22.5585   19.6490 C   0  0  0  0  0  0  0  0  0  0  0  0
  -26.8010  -25.0707   19.4808 C   0  0  0  0  0  0  0  0  0  0  0  0
  -27.6489  -23.8064   19.5694 C   0  0  1  0  0  0  0  0  0  0  0  0
  -27.5983  -21.3753   19.7335 N   0  0  0  0  0  0  0  0  0  0  0  0
  -27.5181  -16.4060   20.0107 N   0  0  0  0  0  0  0  0  0  0  0  0
  -28.4417  -23.8968   20.7550 O   0  0  0  0  0  0  0  0  0  0  0  0
  -25.4592  -18.1058   19.8702 S   0  0  0  0  0  0  0  0  0  0  0  0
  -31.4485  -12.4701   19.0860 H   0  0  0  0  0  0  0  0  0  0  0  0
  -30.3970  -11.2460   19.6950 H   0  0  0  0  0  0  0  0  0  0  0  0
  -29.6870  -11.8204   17.4226 H   0  0  0  0  0  0  0  0  0  0  0  0
  -29.6375  -13.5326   17.8649 H   0  0  0  0  0  0  0  0  0  0  0  0
  -27.7830  -11.3650   18.7904 H   0  0  0  0  0  0  0  0  0  0  0  0
  -27.4028  -12.7801   17.8021 H   0  0  0  0  0  0  0  0  0  0  0  0
  -27.7353  -14.2503   19.6136 H   0  0  0  0  0  0  0  0  0  0  0  0
  -28.5890  -11.9550   21.3832 H   0  0  0  0  0  0  0  0  0  0  0  0
  -28.5005  -13.6134   21.8562 H   0  0  0  0  0  0  0  0  0  0  0  0
  -25.2399   -9.5495   22.4318 H   0  0  0  0  0  0  0  0  0  0  0  0
  -23.9663   -7.5070   22.7297 H   0  0  0  0  0  0  0  0  0  0  0  0
  -21.1515   -8.8641   19.9162 H   0  0  0  0  0  0  0  0  0  0  0  0
  -22.4016  -10.9115   19.6476 H   0  0  0  0  0  0  0  0  0  0  0  0
  -21.2319   -7.5552   23.9750 H   0  0  0  0  0  0  0  0  0  0  0  0
  -21.1589   -6.0228   25.8556 H   0  0  0  0  0  0  0  0  0  0  0  0
  -22.0396   -2.8212   23.2809 H   0  0  0  0  0  0  0  0  0  0  0  0
  -22.4401  -11.9703   22.4008 H   0  0  0  0  0  0  0  0  0  0  0  0
  -21.1493  -13.0679   22.2082 H   0  0  0  0  0  0  0  0  0  0  0  0
  -24.6538  -15.7807   20.5848 H   0  0  0  0  0  0  0  0  0  0  0  0
  -26.2762  -15.5453   20.1156 H   0  0  0  0  0  0  0  0  0  0  0  0
  -26.6778  -32.4663   23.1464 H   0  0  0  0  0  0  0  0  0  0  0  0
  -25.0747  -34.0282   25.0566 H   0  0  0  0  0  0  0  0  0  0  0  0
  -22.7881  -31.3489   21.4131 H   0  0  0  0  0  0  0  0  0  0  0  0
  -23.3854  -35.9823   23.3648 H   0  0  0  0  0  0  0  0  0  0  0  0
  -24.3696  -36.8624   22.2204 H   0  0  0  0  0  0  0  0  0  0  0  0
  -23.7669  -37.6632   23.6516 H   0  0  0  0  0  0  0  0  0  0  0  0
  -25.9445  -31.6237   20.5691 H   0  0  0  0  0  0  0  0  0  0  0  0
  -26.7436  -31.0079   22.0108 H   0  0  0  0  0  0  0  0  0  0  0  0
  -28.0090  -29.1452   21.2057 H   0  0  0  0  0  0  0  0  0  0  0  0
  -26.1369  -26.0560   19.0719 H   0  0  0  0  0  0  0  0  0  0  0  0
  -24.0652  -27.2961   19.0997 H   0  0  0  0  0  0  0  0  0  0  0  0
  -23.6156  -30.5365   19.3930 H   0  0  0  0  0  0  0  0  0  0  0  0
  -22.7355  -29.1425   19.9945 H   0  0  0  0  0  0  0  0  0  0  0  0
  -25.1353  -36.2335   25.0565 H   0  0  0  0  0  0  0  0  0  0  0  0
  -21.0070  -28.3206   24.0793 H   0  0  0  0  0  0  0  0  0  0  0  0
  -20.5555  -26.2518   23.3550 H   0  0  0  0  0  0  0  0  0  0  0  0
  -21.5974  -26.8362   22.0454 H   0  0  0  0  0  0  0  0  0  0  0  0
  -19.6810  -25.6422   21.1488 H   0  0  0  0  0  0  0  0  0  0  0  0
  -19.6406  -27.3343   20.7034 H   0  0  0  0  0  0  0  0  0  0  0  0
  -17.4282  -26.6888   21.4113 H   0  0  0  0  0  0  0  0  0  0  0  0
  -18.0803  -26.0130   22.9049 H   0  0  0  0  0  0  0  0  0  0  0  0
  -19.7265  -30.6774   24.2204 H   0  0  0  0  0  0  0  0  0  0  0  0
  -17.5064  -31.5856   24.4483 H   0  0  0  0  0  0  0  0  0  0  0  0
  -15.5878  -30.2839   23.7407 H   0  0  0  0  0  0  0  0  0  0  0  0
  -15.9120  -28.0941   22.7766 H   0  0  0  0  0  0  0  0  0  0  0  0
  -24.5787  -30.7757   25.6817 H   0  0  0  0  0  0  0  0  0  0  0  0
  -25.0041  -32.2289   26.5536 H   0  0  0  0  0  0  0  0  0  0  0  0
  -25.8166  -30.7245   26.9138 H   0  0  0  0  0  0  0  0  0  0  0  0
  -26.2892  -29.7335   24.0803 H   0  0  0  0  0  0  0  0  0  0  0  0
  -27.4336  -29.7484   25.4006 H   0  0  0  0  0  0  0  0  0  0  0  0
  -27.8466  -30.4994   23.8779 H   0  0  0  0  0  0  0  0  0  0  0  0
  -27.2251  -33.3632   26.1242 H   0  0  0  0  0  0  0  0  0  0  0  0
  -28.3902  -32.6065   25.0645 H   0  0  0  0  0  0  0  0  0  0  0  0
  -27.9772  -31.8555   26.5872 H   0  0  0  0  0  0  0  0  0  0  0  0
  -28.2744  -38.0016   24.6863 H   0  0  0  0  0  0  0  0  0  0  0  0
  -28.0396  -36.2711   24.7461 H   0  0  0  0  0  0  0  0  0  0  0  0
  -27.1773  -37.3087   25.8564 H   0  0  0  0  0  0  0  0  0  0  0  0
  -20.9627  -29.9365   21.7352 H   0  0  0  0  0  0  0  0  0  0  0  0
  -26.0447  -38.2561   24.0273 H   0  0  0  0  0  0  0  0  0  0  0  0
  -28.9289  -18.9258   19.8999 H   0  0  0  0  0  0  0  0  0  0  0  0
  -24.9996  -20.5018   19.7256 H   0  0  0  0  0  0  0  0  0  0  0  0
  -26.1588  -22.5003   18.7739 H   0  0  0  0  0  0  0  0  0  0  0  0
  -26.1556  -22.6185   20.5217 H   0  0  0  0  0  0  0  0  0  0  0  0
  -26.0003  -25.0559   20.1904 H   0  0  0  0  0  0  0  0  0  0  0  0
  -26.3189  -25.2098   18.5358 H   0  0  0  0  0  0  0  0  0  0  0  0
  -28.2601  -23.7264   18.6948 H   0  0  0  0  0  0  0  0  0  0  0  0
  -28.5758  -21.4912   19.7484 H   0  0  0  0  0  0  0  0  0  0  0  0
  -26.7473  -15.8115   19.8635 H   0  0  0  0  0  0  0  0  0  0  0  0
  -27.8602  -23.9680   21.5281 H   0  0  0  0  0  0  0  0  0  0  0  0
  1 25  1  0  0  0  0
  1 30  2  0  0  0  0
  1 79  1  0  0  0  0
  2  3  1  0  0  0  0
  2 25  1  0  0  0  0
  2 82  1  0  0  0  0
  2 83  1  0  0  0  0
  3  4  1  0  0  0  0
  3 84  1  0  0  0  0
  3 85  1  0  0  0  0
  4  5  1  0  0  0  0
  4 86  1  0  0  0  0
  4 87  1  0  0  0  0
  5  6  1  0  0  0  0
  5 26  1  0  0  0  0
  5 88  1  6  0  0  0
  6 25  1  0  0  0  0
  6 89  1  0  0  0  0
  6 90  1  0  0  0  0
  7  8  2  0  0  0  0
  7 26  1  0  0  0  0
  7 29  1  0  0  0  0
  8  9  1  0  0  0  0
  8 22  1  0  0  0  0
  9 10  1  0  0  0  0
  9 27  2  0  0  0  0
 10 11  2  0  0  0  0
 10 15  1  0  0  0  0
 11 12  1  0  0  0  0
 11 91  1  0  0  0  0
 12 13  2  0  0  0  0
 12 92  1  0  0  0  0
 13 14  1  0  0  0  0
 13 31  1  0  0  0  0
 14 15  2  0  0  0  0
 14 93  1  0  0  0  0
 15 94  1  0  0  0  0
 16 17  2  0  0  0  0
 16 21  1  0  0  0  0
 16 31  1  0  0  0  0
 17 18  1  0  0  0  0
 17 95  1  0  0  0  0
 18 19  2  0  0  0  0
 18 96  1  0  0  0  0
 19 20  1  0  0  0  0
 19 24  1  0  0  0  0
 20 21  2  0  0  0  0
 20 97  1  0  0  0  0
 21 23  1  0  0  0  0
 22 28  1  0  0  0  0
 22 32  2  0  0  0  0
 26 27  1  0  0  0  0
 28 98  1  0  0  0  0
 28 99  1  0  0  0  0
 29100  1  0  0  0  0
 29101  1  0  0  0  0
 33 34  1  0  0  0  0
 33 66  1  0  0  0  0
 33 70  2  0  0  0  0
 34 36  1  0  0  0  0
 34 59  1  0  0  0  0
 34102  1  6  0  0  0
 35 44  2  0  0  0  0
 35 45  1  0  0  0  0
 35 68  1  0  0  0  0
 36 56  1  0  0  0  0
 36103  1  0  0  0  0
 37 39  1  0  0  0  0
 37 47  1  0  0  0  0
 37 66  1  0  0  0  0
 37104  1  6  0  0  0
 38 43  2  0  0  0  0
 38 46  1  0  0  0  0
 38 47  1  0  0  0  0
 39 64  1  0  0  0  0
 39 67  2  0  0  0  0
 40 52  1  0  0  0  0
 40 53  2  0  0  0  0
 40 58  1  0  0  0  0
 41105  1  0  0  0  0
 41106  1  0  0  0  0
 41107  1  0  0  0  0
 42 43  1  0  0  0  0
 42 66  1  0  0  0  0
 42108  1  0  0  0  0
 42109  1  0  0  0  0
 43 44  1  0  0  0  0
 44110  1  0  0  0  0
 45 46  2  0  0  0  0
 45111  1  0  0  0  0
 46112  1  0  0  0  0
 47113  1  0  0  0  0
 47114  1  0  0  0  0
 48 41  1  0  0  0  0
 48 56  1  0  0  0  0
 48 65  1  0  0  0  0
 48115  1  1  0  0  0
 49 50  1  0  0  0  0
 49 53  1  0  0  0  0
 49 64  1  0  0  0  0
 49116  1  1  0  0  0
 50 51  1  0  0  0  0
 50117  1  0  0  0  0
 50118  1  0  0  0  0
 51 52  1  0  0  0  0
 51119  1  0  0  0  0
 51120  1  0  0  0  0
 52121  1  0  0  0  0
 52122  1  0  0  0  0
 53 54  1  0  0  0  0
 54 55  2  0  0  0  0
 54123  1  0  0  0  0
 55 57  1  0  0  0  0
 55124  1  0  0  0  0
 56 69  2  0  0  0  0
 57 58  2  0  0  0  0
 57125  1  0  0  0  0
 58126  1  0  0  0  0
 59 60  1  0  0  0  0
 59 61  1  0  0  0  0
 59 62  1  0  0  0  0
 60127  1  0  0  0  0
 60128  1  0  0  0  0
 60129  1  0  0  0  0
 61130  1  0  0  0  0
 61131  1  0  0  0  0
 61132  1  0  0  0  0
 62133  1  0  0  0  0
 62134  1  0  0  0  0
 62135  1  0  0  0  0
 63 65  1  0  0  0  0
 63136  1  0  0  0  0
 63137  1  0  0  0  0
 63138  1  0  0  0  0
 64139  1  0  0  0  0
 65140  1  0  0  0  0
 68 76  1  0  0  0  0
 71 73  1  0  0  0  0
 71 74  2  0  0  0  0
 71141  1  0  0  0  0
 72 73  2  0  0  0  0
 72 81  1  0  0  0  0
 72142  1  0  0  0  0
 73 78  1  0  0  0  0
 74 79  1  0  0  0  0
 74 81  1  0  0  0  0
 75 77  1  0  0  0  0
 75 78  1  0  0  0  0
 75143  1  0  0  0  0
 75144  1  0  0  0  0
 76 77  1  0  0  0  0
 76145  1  0  0  0  0
 76146  1  0  0  0  0
 77 80  1  0  0  0  0
 77147  1  6  0  0  0
 78148  1  0  0  0  0
 79149  1  0  0  0  0
 80150  1  0  0  0  0
M  ISO  4   1 100  68 101  76 101  79 100
M  END
$$$$
28
 OpenBabel04052305473D

163171  0  0  0  0  0  0  0  0999 V2000
  -30.7652  -14.3608   20.6636 C   0  0  0  0  0  0  0  0  0  0  0  0
  -30.4392  -12.2669   19.3775 C   0  0  0  0  0  0  0  0  0  0  0  0
  -29.4791  -12.5281   18.1977 C   0  0  0  0  0  0  0  0  0  0  0  0
  -27.9985  -12.3963   18.6038 C   0  0  0  0  0  0  0  0  0  0  0  0
  -27.6639  -13.2170   19.8820 C   0  0  2  0  0  0  0  0  0  0  0  0
  -28.6795  -12.9602   21.0279 C   0  0  0  0  0  0  0  0  0  0  0  0
  -25.2633  -13.8245   20.5754 C   0  0  0  0  0  0  0  0  0  0  0  0
  -24.1645  -13.0409   20.9408 C   0  0  0  0  0  0  0  0  0  0  0  0
  -24.6400  -11.7009   20.8697 C   0  0  0  0  0  0  0  0  0  0  0  0
  -23.9005  -10.4085   21.0420 C   0  0  0  0  0  0  0  0  0  0  0  0
  -24.3588   -9.4123   21.9123 C   0  0  0  0  0  0  0  0  0  0  0  0
  -23.6296   -8.2350   22.0803 C   0  0  0  0  0  0  0  0  0  0  0  0
  -22.4385   -8.0419   21.3657 C   0  0  0  0  0  0  0  0  0  0  0  0
  -22.0103   -9.0167   20.4678 C   0  0  0  0  0  0  0  0  0  0  0  0
  -22.7317  -10.1925   20.3102 C   0  0  0  0  0  0  0  0  0  0  0  0
  -21.6857   -6.0709   22.5391 C   0  0  0  0  0  0  0  0  0  0  0  0
  -21.4064   -6.5490   23.8264 C   0  0  0  0  0  0  0  0  0  0  0  0
  -21.3635   -5.6677   24.9085 C   0  0  0  0  0  0  0  0  0  0  0  0
  -21.5973   -4.3067   24.7088 C   0  0  0  0  0  0  0  0  0  0  0  0
  -21.8700   -3.8284   23.4282 C   0  0  0  0  0  0  0  0  0  0  0  0
  -21.9144   -4.7056   22.3460 C   0  0  0  0  0  0  0  0  0  0  0  0
  -22.8194  -13.5263   21.1763 C   0  0  0  0  0  0  0  0  0  0  0  0
  -22.1559   -4.2206   21.1063 F   0  0  0  0  0  0  0  0  0  0  0  0
  -21.5628   -3.4510   25.7555 F   0  0  0  0  0  0  0  0  0  0  0  0
  -30.0261  -13.1803   20.4553 N   0  0  0  0  0  0  0  0  0  0  0  0
  -26.2911  -12.9356   20.3443 N   0  0  0  0  0  0  0  0  0  0  0  0
  -25.9236  -11.6675   20.5847 N   0  0  0  0  0  0  0  0  0  0  0  0
  -22.0708  -12.7905   22.0005 N   0  0  0  0  0  0  0  0  0  0  0  0
  -25.4117  -15.1773   20.4097 N   0  0  0  0  0  0  0  0  0  0  0  0
  -31.7916  -14.6724   20.0536 O   0  0  0  0  0  0  0  0  0  0  0  0
  -21.6670   -6.9022   21.4423 O   0  0  0  0  0  0  0  0  0  0  0  0
  -22.3946  -14.5564   20.6568 O   0  0  0  0  0  0  0  0  0  0  0  0
  -24.6048  -31.8614   23.2223 C   0  0  0  0  0  0  0  0  0  0  0  0
  -25.8822  -32.4841   23.8616 C   0  0  1  0  0  0  0  0  0  0  0  0
  -27.2536  -27.5042   20.1156 C   0  0  0  0  0  0  0  0  0  0  0  0
  -25.5726  -33.8762   24.2210 N   0  0  0  0  0  0  0  0  0  0  0  0
  -23.4066  -30.4859   21.5461 C   0  0  2  0  0  0  0  0  0  0  0  0
  -24.8467  -28.9636   20.1247 C   0  0  0  0  0  0  0  0  0  0  0  0
  -22.7412  -29.4652   22.5052 C   0  0  0  0  0  0  0  0  0  0  0  0
  -18.0167  -28.1302   22.8626 C   0  0  0  0  0  0  0  0  0  0  0  0
  -24.1342  -36.7390   23.2568 C   0  0  0  0  0  0  0  0  0  0  0  0
  -25.9141  -30.8882   21.3456 C   0  0  0  0  0  0  0  0  0  0  0  0
  -25.9930  -29.5029   20.7208 C   0  0  0  0  0  0  0  0  0  0  0  0
  -27.1758  -28.7612   20.7331 C   0  0  0  0  0  0  0  0  0  0  0  0
  -26.1032  -26.9836   19.5230 C   0  0  0  0  0  0  0  0  0  0  0  0
  -24.9097  -27.7011   19.5331 C   0  0  0  0  0  0  0  0  0  0  0  0
  -23.5715  -29.7899   20.1582 C   0  0  0  0  0  0  0  0  0  0  0  0
  -25.3990  -36.3212   24.0232 C   0  0  1  0  0  0  0  0  0  0  0  0
  -20.5793  -28.3813   23.1004 C   0  0  2  0  0  0  0  0  0  0  0  0
  -20.6548  -26.9392   22.5411 C   0  0  0  0  0  0  0  0  0  0  0  0
  -19.5615  -26.6407   21.5143 C   0  0  0  0  0  0  0  0  0  0  0  0
  -18.1797  -26.7818   22.1673 C   0  0  0  0  0  0  0  0  0  0  0  0
  -19.1385  -28.8769   23.2988 C   0  0  0  0  0  0  0  0  0  0  0  0
  -18.9183  -30.1286   23.8878 C   0  0  0  0  0  0  0  0  0  0  0  0
  -17.6396  -30.6493   24.0352 C   0  0  0  0  0  0  0  0  0  0  0  0
  -25.9153  -34.9582   23.4993 C   0  0  0  0  0  0  0  0  0  0  0  0
  -16.5415  -29.9068   23.6254 C   0  0  0  0  0  0  0  0  0  0  0  0
  -16.7331  -28.6521   23.0586 C   0  0  0  0  0  0  0  0  0  0  0  0
  -26.4583  -31.6439   25.0683 C   0  0  0  0  0  0  0  0  0  0  0  0
  -25.3807  -31.3179   26.1374 C   0  0  0  0  0  0  0  0  0  0  0  0
  -27.0530  -30.3024   24.5680 C   0  0  0  0  0  0  0  0  0  0  0  0
  -27.6014  -32.4281   25.7651 C   0  0  0  0  0  0  0  0  0  0  0  0
  -27.5629  -37.2220   24.8621 C   0  0  0  0  0  0  0  0  0  0  0  0
  -21.4133  -29.3375   22.3735 N   0  0  0  0  0  0  0  0  0  0  0  0
  -26.4706  -37.3372   23.9061 N   0  0  0  0  0  0  0  0  0  0  0  0
  -24.6674  -31.0544   22.1178 N   0  0  0  0  0  0  0  0  0  0  0  0
  -23.4259  -28.8150   23.2971 O   0  0  0  0  0  0  0  0  0  0  0  0
  -28.3948  -26.7345   20.0089 O   0  0  0  0  0  0  0  0  0  0  0  0
  -26.5870  -34.9065   22.4671 O   0  0  0  0  0  0  0  0  0  0  0  0
  -23.5365  -32.1254   23.7833 O   0  0  0  0  0  0  0  0  0  0  0  0
  -30.3070  -17.4961   21.0699 C   0  0  0  0  0  0  0  0  0  0  0  0
  -30.3922  -19.7962   21.5886 C   0  0  0  0  0  0  0  0  0  0  0  0
  -34.0237  -23.0121   21.5433 C   0  0  0  0  0  0  0  0  0  0  0  0
  -34.2742  -23.0552   24.0321 C   0  0  0  0  0  0  0  0  0  0  0  0
  -32.1628  -22.0930   22.9615 C   0  0  0  0  0  0  0  0  0  0  0  0
  -30.3480  -23.5203   21.9321 C   0  0  0  0  0  0  0  0  0  0  0  0
  -28.6478  -25.0856   20.9069 C   0  0  0  0  0  0  0  0  0  0  0  0
  -33.2800  -23.1549   22.8745 C   0  0  0  0  0  0  0  0  0  0  0  0
  -31.0962  -22.1753   21.8537 C   0  0  2  0  0  0  0  0  0  0  0  0
  -29.3055  -23.7099   20.8199 C   0  0  1  0  0  0  0  0  0  0  0  0
  -31.4454  -18.0390   20.6941 N   0  0  0  0  0  0  0  0  0  0  0  0
  -31.4958  -19.3879   20.9992 N   0  0  0  0  0  0  0  0  0  0  0  0
  -29.8808  -16.1519   20.9310 N   0  0  0  0  0  0  0  0  0  0  0  0
  -30.1485  -21.0905   22.0103 N   0  0  0  0  0  0  0  0  0  0  0  0
  -29.9334  -23.5826   19.5442 O   0  0  0  0  0  0  0  0  0  0  0  0
  -29.2076  -18.5779   21.8201 S   0  0  0  0  0  0  0  0  0  0  0  0
  -31.4485  -12.4701   19.0860 H   0  0  0  0  0  0  0  0  0  0  0  0
  -30.3970  -11.2460   19.6950 H   0  0  0  0  0  0  0  0  0  0  0  0
  -29.6870  -11.8204   17.4226 H   0  0  0  0  0  0  0  0  0  0  0  0
  -29.6375  -13.5326   17.8649 H   0  0  0  0  0  0  0  0  0  0  0  0
  -27.7830  -11.3650   18.7904 H   0  0  0  0  0  0  0  0  0  0  0  0
  -27.4028  -12.7801   17.8021 H   0  0  0  0  0  0  0  0  0  0  0  0
  -27.7353  -14.2503   19.6136 H   0  0  0  0  0  0  0  0  0  0  0  0
  -28.5890  -11.9550   21.3832 H   0  0  0  0  0  0  0  0  0  0  0  0
  -28.5005  -13.6134   21.8562 H   0  0  0  0  0  0  0  0  0  0  0  0
  -25.2399   -9.5495   22.4318 H   0  0  0  0  0  0  0  0  0  0  0  0
  -23.9663   -7.5070   22.7297 H   0  0  0  0  0  0  0  0  0  0  0  0
  -21.1515   -8.8641   19.9162 H   0  0  0  0  0  0  0  0  0  0  0  0
  -22.4016  -10.9115   19.6476 H   0  0  0  0  0  0  0  0  0  0  0  0
  -21.2319   -7.5552   23.9750 H   0  0  0  0  0  0  0  0  0  0  0  0
  -21.1589   -6.0228   25.8556 H   0  0  0  0  0  0  0  0  0  0  0  0
  -22.0396   -2.8212   23.2809 H   0  0  0  0  0  0  0  0  0  0  0  0
  -22.4401  -11.9703   22.4008 H   0  0  0  0  0  0  0  0  0  0  0  0
  -21.1493  -13.0679   22.2082 H   0  0  0  0  0  0  0  0  0  0  0  0
  -24.6538  -15.7807   20.5848 H   0  0  0  0  0  0  0  0  0  0  0  0
  -26.2762  -15.5453   20.1156 H   0  0  0  0  0  0  0  0  0  0  0  0
  -26.6778  -32.4663   23.1464 H   0  0  0  0  0  0  0  0  0  0  0  0
  -25.0747  -34.0282   25.0566 H   0  0  0  0  0  0  0  0  0  0  0  0
  -22.7881  -31.3489   21.4131 H   0  0  0  0  0  0  0  0  0  0  0  0
  -23.3854  -35.9823   23.3648 H   0  0  0  0  0  0  0  0  0  0  0  0
  -24.3696  -36.8624   22.2204 H   0  0  0  0  0  0  0  0  0  0  0  0
  -23.7669  -37.6632   23.6516 H   0  0  0  0  0  0  0  0  0  0  0  0
  -25.9445  -31.6237   20.5691 H   0  0  0  0  0  0  0  0  0  0  0  0
  -26.7436  -31.0079   22.0108 H   0  0  0  0  0  0  0  0  0  0  0  0
  -28.0090  -29.1452   21.2057 H   0  0  0  0  0  0  0  0  0  0  0  0
  -26.1369  -26.0560   19.0719 H   0  0  0  0  0  0  0  0  0  0  0  0
  -24.0652  -27.2961   19.0997 H   0  0  0  0  0  0  0  0  0  0  0  0
  -23.6156  -30.5365   19.3930 H   0  0  0  0  0  0  0  0  0  0  0  0
  -22.7355  -29.1425   19.9945 H   0  0  0  0  0  0  0  0  0  0  0  0
  -25.1353  -36.2335   25.0565 H   0  0  0  0  0  0  0  0  0  0  0  0
  -21.0070  -28.3206   24.0793 H   0  0  0  0  0  0  0  0  0  0  0  0
  -20.5555  -26.2518   23.3550 H   0  0  0  0  0  0  0  0  0  0  0  0
  -21.5974  -26.8362   22.0454 H   0  0  0  0  0  0  0  0  0  0  0  0
  -19.6810  -25.6422   21.1488 H   0  0  0  0  0  0  0  0  0  0  0  0
  -19.6406  -27.3343   20.7034 H   0  0  0  0  0  0  0  0  0  0  0  0
  -17.4282  -26.6888   21.4113 H   0  0  0  0  0  0  0  0  0  0  0  0
  -18.0803  -26.0130   22.9049 H   0  0  0  0  0  0  0  0  0  0  0  0
  -19.7265  -30.6774   24.2204 H   0  0  0  0  0  0  0  0  0  0  0  0
  -17.5064  -31.5856   24.4483 H   0  0  0  0  0  0  0  0  0  0  0  0
  -15.5878  -30.2839   23.7407 H   0  0  0  0  0  0  0  0  0  0  0  0
  -15.9120  -28.0941   22.7766 H   0  0  0  0  0  0  0  0  0  0  0  0
  -24.5787  -30.7757   25.6817 H   0  0  0  0  0  0  0  0  0  0  0  0
  -25.0041  -32.2289   26.5536 H   0  0  0  0  0  0  0  0  0  0  0  0
  -25.8166  -30.7245   26.9138 H   0  0  0  0  0  0  0  0  0  0  0  0
  -26.2892  -29.7335   24.0803 H   0  0  0  0  0  0  0  0  0  0  0  0
  -27.4336  -29.7484   25.4006 H   0  0  0  0  0  0  0  0  0  0  0  0
  -27.8466  -30.4994   23.8779 H   0  0  0  0  0  0  0  0  0  0  0  0
  -27.2251  -33.3632   26.1242 H   0  0  0  0  0  0  0  0  0  0  0  0
  -28.3902  -32.6065   25.0645 H   0  0  0  0  0  0  0  0  0  0  0  0
  -27.9772  -31.8555   26.5872 H   0  0  0  0  0  0  0  0  0  0  0  0
  -28.2744  -38.0016   24.6863 H   0  0  0  0  0  0  0  0  0  0  0  0
  -28.0396  -36.2711   24.7461 H   0  0  0  0  0  0  0  0  0  0  0  0
  -27.1773  -37.3087   25.8564 H   0  0  0  0  0  0  0  0  0  0  0  0
  -20.9627  -29.9365   21.7352 H   0  0  0  0  0  0  0  0  0  0  0  0
  -26.0447  -38.2561   24.0273 H   0  0  0  0  0  0  0  0  0  0  0  0
  -34.7972  -23.7492   21.4860 H   0  0  0  0  0  0  0  0  0  0  0  0
  -33.3373  -23.1518   20.7345 H   0  0  0  0  0  0  0  0  0  0  0  0
  -34.4563  -22.0355   21.4794 H   0  0  0  0  0  0  0  0  0  0  0  0
  -35.0245  -23.8104   23.9239 H   0  0  0  0  0  0  0  0  0  0  0  0
  -34.7359  -22.0900   24.0236 H   0  0  0  0  0  0  0  0  0  0  0  0
  -33.7579  -23.1955   24.9587 H   0  0  0  0  0  0  0  0  0  0  0  0
  -31.6705  -22.2062   23.9048 H   0  0  0  0  0  0  0  0  0  0  0  0
  -32.6433  -21.1443   22.8429 H   0  0  0  0  0  0  0  0  0  0  0  0
  -31.0654  -24.3111   21.8617 H   0  0  0  0  0  0  0  0  0  0  0  0
  -29.8198  -23.5317   22.8625 H   0  0  0  0  0  0  0  0  0  0  0  0
  -29.0640  -25.4352   21.8286 H   0  0  0  0  0  0  0  0  0  0  0  0
  -27.7494  -24.6975   20.4742 H   0  0  0  0  0  0  0  0  0  0  0  0
  -32.8124  -24.1152   22.9379 H   0  0  0  0  0  0  0  0  0  0  0  0
  -31.5803  -22.0988   20.9025 H   0  0  0  0  0  0  0  0  0  0  0  0
  -28.5541  -22.9582   20.9430 H   0  0  0  0  0  0  0  0  0  0  0  0
  -28.9006  -16.0725   20.9769 H   0  0  0  0  0  0  0  0  0  0  0  0
  -29.2845  -21.2854   22.4401 H   0  0  0  0  0  0  0  0  0  0  0  0
  -30.6112  -24.2698   19.4474 H   0  0  0  0  0  0  0  0  0  0  0  0
  1 25  1  0  0  0  0
  1 30  2  0  0  0  0
  1 83  1  0  0  0  0
  2  3  1  0  0  0  0
  2 25  1  0  0  0  0
  2 87  1  0  0  0  0
  2 88  1  0  0  0  0
  3  4  1  0  0  0  0
  3 89  1  0  0  0  0
  3 90  1  0  0  0  0
  4  5  1  0  0  0  0
  4 91  1  0  0  0  0
  4 92  1  0  0  0  0
  5  6  1  0  0  0  0
  5 26  1  0  0  0  0
  5 93  1  6  0  0  0
  6 25  1  0  0  0  0
  6 94  1  0  0  0  0
  6 95  1  0  0  0  0
  7  8  2  0  0  0  0
  7 26  1  0  0  0  0
  7 29  1  0  0  0  0
  8  9  1  0  0  0  0
  8 22  1  0  0  0  0
  9 10  1  0  0  0  0
  9 27  2  0  0  0  0
 10 11  2  0  0  0  0
 10 15  1  0  0  0  0
 11 12  1  0  0  0  0
 11 96  1  0  0  0  0
 12 13  2  0  0  0  0
 12 97  1  0  0  0  0
 13 14  1  0  0  0  0
 13 31  1  0  0  0  0
 14 15  2  0  0  0  0
 14 98  1  0  0  0  0
 15 99  1  0  0  0  0
 16 17  2  0  0  0  0
 16 21  1  0  0  0  0
 16 31  1  0  0  0  0
 17 18  1  0  0  0  0
 17100  1  0  0  0  0
 18 19  2  0  0  0  0
 18101  1  0  0  0  0
 19 20  1  0  0  0  0
 19 24  1  0  0  0  0
 20 21  2  0  0  0  0
 20102  1  0  0  0  0
 21 23  1  0  0  0  0
 22 28  1  0  0  0  0
 22 32  2  0  0  0  0
 26 27  1  0  0  0  0
 28103  1  0  0  0  0
 28104  1  0  0  0  0
 29105  1  0  0  0  0
 29106  1  0  0  0  0
 33 34  1  0  0  0  0
 33 66  1  0  0  0  0
 33 70  2  0  0  0  0
 34 36  1  0  0  0  0
 34 59  1  0  0  0  0
 34107  1  6  0  0  0
 35 44  2  0  0  0  0
 35 45  1  0  0  0  0
 35 68  1  0  0  0  0
 36 56  1  0  0  0  0
 36108  1  0  0  0  0
 37 39  1  0  0  0  0
 37 47  1  0  0  0  0
 37 66  1  0  0  0  0
 37109  1  6  0  0  0
 38 43  2  0  0  0  0
 38 46  1  0  0  0  0
 38 47  1  0  0  0  0
 39 64  1  0  0  0  0
 39 67  2  0  0  0  0
 40 52  1  0  0  0  0
 40 53  2  0  0  0  0
 40 58  1  0  0  0  0
 41110  1  0  0  0  0
 41111  1  0  0  0  0
 41112  1  0  0  0  0
 42 43  1  0  0  0  0
 42 66  1  0  0  0  0
 42113  1  0  0  0  0
 42114  1  0  0  0  0
 43 44  1  0  0  0  0
 44115  1  0  0  0  0
 45 46  2  0  0  0  0
 45116  1  0  0  0  0
 46117  1  0  0  0  0
 47118  1  0  0  0  0
 47119  1  0  0  0  0
 48 41  1  0  0  0  0
 48 56  1  0  0  0  0
 48 65  1  0  0  0  0
 48120  1  1  0  0  0
 49 50  1  0  0  0  0
 49 53  1  0  0  0  0
 49 64  1  0  0  0  0
 49121  1  1  0  0  0
 50 51  1  0  0  0  0
 50122  1  0  0  0  0
 50123  1  0  0  0  0
 51 52  1  0  0  0  0
 51124  1  0  0  0  0
 51125  1  0  0  0  0
 52126  1  0  0  0  0
 52127  1  0  0  0  0
 53 54  1  0  0  0  0
 54 55  2  0  0  0  0
 54128  1  0  0  0  0
 55 57  1  0  0  0  0
 55129  1  0  0  0  0
 56 69  2  0  0  0  0
 57 58  2  0  0  0  0
 57130  1  0  0  0  0
 58131  1  0  0  0  0
 59 60  1  0  0  0  0
 59 61  1  0  0  0  0
 59 62  1  0  0  0  0
 60132  1  0  0  0  0
 60133  1  0  0  0  0
 60134  1  0  0  0  0
 61135  1  0  0  0  0
 61136  1  0  0  0  0
 61137  1  0  0  0  0
 62138  1  0  0  0  0
 62139  1  0  0  0  0
 62140  1  0  0  0  0
 63 65  1  0  0  0  0
 63141  1  0  0  0  0
 63142  1  0  0  0  0
 63143  1  0  0  0  0
 64144  1  0  0  0  0
 65145  1  0  0  0  0
 68 77  1  0  0  0  0
 71 81  2  0  0  0  0
 71 83  1  0  0  0  0
 71 86  1  0  0  0  0
 72 82  2  0  0  0  0
 72 84  1  0  0  0  0
 72 86  1  0  0  0  0
 73146  1  0  0  0  0
 73147  1  0  0  0  0
 73148  1  0  0  0  0
 74 78  1  0  0  0  0
 74149  1  0  0  0  0
 74150  1  0  0  0  0
 74151  1  0  0  0  0
 75 78  1  0  0  0  0
 75152  1  0  0  0  0
 75153  1  0  0  0  0
 76 79  1  0  0  0  0
 76 80  1  0  0  0  0
 76154  1  0  0  0  0
 76155  1  0  0  0  0
 77 80  1  0  0  0  0
 77156  1  0  0  0  0
 77157  1  0  0  0  0
 78 73  1  0  0  0  0
 78158  1  0  0  0  0
 79 75  1  0  0  0  0
 79 84  1  0  0  0  0
 79159  1  6  0  0  0
 80 85  1  0  0  0  0
 80160  1  1  0  0  0
 81 82  1  0  0  0  0
 83161  1  0  0  0  0
 84162  1  0  0  0  0
 85163  1  0  0  0  0
M  ISO  4   1 100  68 101  77 101  83 100
M  END
$$$$
29
 OpenBabel04052305473D

154162  0  0  0  0  0  0  0  0999 V2000
  -30.7652  -14.3608   20.6636 C   0  0  0  0  0  0  0  0  0  0  0  0
  -30.4392  -12.2669   19.3775 C   0  0  0  0  0  0  0  0  0  0  0  0
  -29.4791  -12.5281   18.1977 C   0  0  0  0  0  0  0  0  0  0  0  0
  -27.9985  -12.3963   18.6038 C   0  0  0  0  0  0  0  0  0  0  0  0
  -27.6639  -13.2170   19.8820 C   0  0  2  0  0  0  0  0  0  0  0  0
  -28.6795  -12.9602   21.0279 C   0  0  0  0  0  0  0  0  0  0  0  0
  -25.2633  -13.8245   20.5754 C   0  0  0  0  0  0  0  0  0  0  0  0
  -24.1645  -13.0409   20.9408 C   0  0  0  0  0  0  0  0  0  0  0  0
  -24.6400  -11.7009   20.8697 C   0  0  0  0  0  0  0  0  0  0  0  0
  -23.9005  -10.4085   21.0420 C   0  0  0  0  0  0  0  0  0  0  0  0
  -24.3588   -9.4123   21.9123 C   0  0  0  0  0  0  0  0  0  0  0  0
  -23.6296   -8.2350   22.0803 C   0  0  0  0  0  0  0  0  0  0  0  0
  -22.4385   -8.0419   21.3657 C   0  0  0  0  0  0  0  0  0  0  0  0
  -22.0103   -9.0167   20.4678 C   0  0  0  0  0  0  0  0  0  0  0  0
  -22.7317  -10.1925   20.3102 C   0  0  0  0  0  0  0  0  0  0  0  0
  -21.6857   -6.0709   22.5391 C   0  0  0  0  0  0  0  0  0  0  0  0
  -21.4064   -6.5490   23.8264 C   0  0  0  0  0  0  0  0  0  0  0  0
  -21.3635   -5.6677   24.9085 C   0  0  0  0  0  0  0  0  0  0  0  0
  -21.5973   -4.3067   24.7088 C   0  0  0  0  0  0  0  0  0  0  0  0
  -21.8700   -3.8284   23.4282 C   0  0  0  0  0  0  0  0  0  0  0  0
  -21.9144   -4.7056   22.3460 C   0  0  0  0  0  0  0  0  0  0  0  0
  -22.8194  -13.5263   21.1763 C   0  0  0  0  0  0  0  0  0  0  0  0
  -22.1559   -4.2206   21.1063 F   0  0  0  0  0  0  0  0  0  0  0  0
  -21.5628   -3.4510   25.7555 F   0  0  0  0  0  0  0  0  0  0  0  0
  -30.0261  -13.1803   20.4553 N   0  0  0  0  0  0  0  0  0  0  0  0
  -26.2911  -12.9356   20.3443 N   0  0  0  0  0  0  0  0  0  0  0  0
  -25.9236  -11.6675   20.5847 N   0  0  0  0  0  0  0  0  0  0  0  0
  -22.0708  -12.7905   22.0005 N   0  0  0  0  0  0  0  0  0  0  0  0
  -25.4117  -15.1773   20.4097 N   0  0  0  0  0  0  0  0  0  0  0  0
  -31.7916  -14.6724   20.0536 O   0  0  0  0  0  0  0  0  0  0  0  0
  -21.6670   -6.9022   21.4423 O   0  0  0  0  0  0  0  0  0  0  0  0
  -22.3946  -14.5564   20.6568 O   0  0  0  0  0  0  0  0  0  0  0  0
  -24.6048  -31.8614   23.2223 C   0  0  0  0  0  0  0  0  0  0  0  0
  -25.8822  -32.4841   23.8616 C   0  0  1  0  0  0  0  0  0  0  0  0
  -27.2536  -27.5042   20.1156 C   0  0  0  0  0  0  0  0  0  0  0  0
  -25.5726  -33.8762   24.2210 N   0  0  0  0  0  0  0  0  0  0  0  0
  -23.4066  -30.4859   21.5461 C   0  0  2  0  0  0  0  0  0  0  0  0
  -24.8467  -28.9636   20.1247 C   0  0  0  0  0  0  0  0  0  0  0  0
  -22.7412  -29.4652   22.5052 C   0  0  0  0  0  0  0  0  0  0  0  0
  -18.0167  -28.1302   22.8626 C   0  0  0  0  0  0  0  0  0  0  0  0
  -24.1342  -36.7390   23.2568 C   0  0  0  0  0  0  0  0  0  0  0  0
  -25.9141  -30.8882   21.3456 C   0  0  0  0  0  0  0  0  0  0  0  0
  -25.9930  -29.5029   20.7208 C   0  0  0  0  0  0  0  0  0  0  0  0
  -27.1758  -28.7612   20.7331 C   0  0  0  0  0  0  0  0  0  0  0  0
  -26.1032  -26.9836   19.5230 C   0  0  0  0  0  0  0  0  0  0  0  0
  -24.9097  -27.7011   19.5331 C   0  0  0  0  0  0  0  0  0  0  0  0
  -23.5715  -29.7899   20.1582 C   0  0  0  0  0  0  0  0  0  0  0  0
  -25.3990  -36.3212   24.0232 C   0  0  1  0  0  0  0  0  0  0  0  0
  -20.5793  -28.3813   23.1004 C   0  0  2  0  0  0  0  0  0  0  0  0
  -20.6548  -26.9392   22.5411 C   0  0  0  0  0  0  0  0  0  0  0  0
  -19.5615  -26.6407   21.5143 C   0  0  0  0  0  0  0  0  0  0  0  0
  -18.1797  -26.7818   22.1673 C   0  0  0  0  0  0  0  0  0  0  0  0
  -19.1385  -28.8769   23.2988 C   0  0  0  0  0  0  0  0  0  0  0  0
  -18.9183  -30.1286   23.8878 C   0  0  0  0  0  0  0  0  0  0  0  0
  -17.6396  -30.6493   24.0352 C   0  0  0  0  0  0  0  0  0  0  0  0
  -25.9153  -34.9582   23.4993 C   0  0  0  0  0  0  0  0  0  0  0  0
  -16.5415  -29.9068   23.6254 C   0  0  0  0  0  0  0  0  0  0  0  0
  -16.7331  -28.6521   23.0586 C   0  0  0  0  0  0  0  0  0  0  0  0
  -26.4583  -31.6439   25.0683 C   0  0  0  0  0  0  0  0  0  0  0  0
  -25.3807  -31.3179   26.1374 C   0  0  0  0  0  0  0  0  0  0  0  0
  -27.0530  -30.3024   24.5680 C   0  0  0  0  0  0  0  0  0  0  0  0
  -27.6014  -32.4281   25.7651 C   0  0  0  0  0  0  0  0  0  0  0  0
  -27.5629  -37.2220   24.8621 C   0  0  0  0  0  0  0  0  0  0  0  0
  -21.4133  -29.3375   22.3735 N   0  0  0  0  0  0  0  0  0  0  0  0
  -26.4706  -37.3372   23.9061 N   0  0  0  0  0  0  0  0  0  0  0  0
  -24.6674  -31.0544   22.1178 N   0  0  0  0  0  0  0  0  0  0  0  0
  -23.4259  -28.8150   23.2971 O   0  0  0  0  0  0  0  0  0  0  0  0
  -28.3948  -26.7345   20.0089 O   0  0  0  0  0  0  0  0  0  0  0  0
  -26.5870  -34.9065   22.4671 O   0  0  0  0  0  0  0  0  0  0  0  0
  -23.5365  -32.1254   23.7833 O   0  0  0  0  0  0  0  0  0  0  0  0
  -20.1023  -27.0486   23.2138 C   0  0  0  0  0  0  0  0  0  0  0  0
  -18.1722  -28.3255   21.8521 C   0  0  0  0  0  0  0  0  0  0  0  0
  -20.0240  -28.4256   23.1666 C   0  0  0  0  0  0  0  0  0  0  0  0
  -19.1239  -26.3708   22.5156 C   0  0  0  0  0  0  0  0  0  0  0  0
  -21.0392  -29.2449   23.8905 C   0  0  0  0  0  0  0  0  0  0  0  0
  -20.1736  -24.2289   23.2480 C   0  0  0  0  0  0  0  0  0  0  0  0
  -20.9933  -21.9088   23.7822 C   0  0  0  0  0  0  0  0  0  0  0  0
  -19.9452  -22.7328   23.0422 C   0  0  1  0  0  0  0  0  0  0  0  0
  -19.0688  -29.0994   22.4930 N   0  0  0  0  0  0  0  0  0  0  0  0
  -18.1401  -26.9796   21.8215 N   0  0  0  0  0  0  0  0  0  0  0  0
  -19.1675  -24.9870   22.5385 N   0  0  0  0  0  0  0  0  0  0  0  0
  -22.3120  -29.2738   23.2049 N   0  0  0  0  0  0  0  0  0  0  0  0
  -18.6639  -22.3791   23.5671 O   0  0  0  0  0  0  0  0  0  0  0  0
  -31.4485  -12.4701   19.0860 H   0  0  0  0  0  0  0  0  0  0  0  0
  -30.3970  -11.2460   19.6950 H   0  0  0  0  0  0  0  0  0  0  0  0
  -29.6870  -11.8204   17.4226 H   0  0  0  0  0  0  0  0  0  0  0  0
  -29.6375  -13.5326   17.8649 H   0  0  0  0  0  0  0  0  0  0  0  0
  -27.7830  -11.3650   18.7904 H   0  0  0  0  0  0  0  0  0  0  0  0
  -27.4028  -12.7801   17.8021 H   0  0  0  0  0  0  0  0  0  0  0  0
  -27.7353  -14.2503   19.6136 H   0  0  0  0  0  0  0  0  0  0  0  0
  -28.5890  -11.9550   21.3832 H   0  0  0  0  0  0  0  0  0  0  0  0
  -28.5005  -13.6134   21.8562 H   0  0  0  0  0  0  0  0  0  0  0  0
  -25.2399   -9.5495   22.4318 H   0  0  0  0  0  0  0  0  0  0  0  0
  -23.9663   -7.5070   22.7297 H   0  0  0  0  0  0  0  0  0  0  0  0
  -21.1515   -8.8641   19.9162 H   0  0  0  0  0  0  0  0  0  0  0  0
  -22.4016  -10.9115   19.6476 H   0  0  0  0  0  0  0  0  0  0  0  0
  -21.2319   -7.5552   23.9750 H   0  0  0  0  0  0  0  0  0  0  0  0
  -21.1589   -6.0228   25.8556 H   0  0  0  0  0  0  0  0  0  0  0  0
  -22.0396   -2.8212   23.2809 H   0  0  0  0  0  0  0  0  0  0  0  0
  -22.4401  -11.9703   22.4008 H   0  0  0  0  0  0  0  0  0  0  0  0
  -21.1493  -13.0679   22.2082 H   0  0  0  0  0  0  0  0  0  0  0  0
  -24.6538  -15.7807   20.5848 H   0  0  0  0  0  0  0  0  0  0  0  0
  -26.2762  -15.5453   20.1156 H   0  0  0  0  0  0  0  0  0  0  0  0
  -26.6778  -32.4663   23.1464 H   0  0  0  0  0  0  0  0  0  0  0  0
  -25.0747  -34.0282   25.0566 H   0  0  0  0  0  0  0  0  0  0  0  0
  -22.7881  -31.3489   21.4131 H   0  0  0  0  0  0  0  0  0  0  0  0
  -23.3854  -35.9823   23.3648 H   0  0  0  0  0  0  0  0  0  0  0  0
  -24.3696  -36.8624   22.2204 H   0  0  0  0  0  0  0  0  0  0  0  0
  -23.7669  -37.6632   23.6516 H   0  0  0  0  0  0  0  0  0  0  0  0
  -25.9445  -31.6237   20.5691 H   0  0  0  0  0  0  0  0  0  0  0  0
  -26.7436  -31.0079   22.0108 H   0  0  0  0  0  0  0  0  0  0  0  0
  -28.0090  -29.1452   21.2057 H   0  0  0  0  0  0  0  0  0  0  0  0
  -26.1369  -26.0560   19.0719 H   0  0  0  0  0  0  0  0  0  0  0  0
  -24.0652  -27.2961   19.0997 H   0  0  0  0  0  0  0  0  0  0  0  0
  -23.6156  -30.5365   19.3930 H   0  0  0  0  0  0  0  0  0  0  0  0
  -22.7355  -29.1425   19.9945 H   0  0  0  0  0  0  0  0  0  0  0  0
  -25.1353  -36.2335   25.0565 H   0  0  0  0  0  0  0  0  0  0  0  0
  -21.0070  -28.3206   24.0793 H   0  0  0  0  0  0  0  0  0  0  0  0
  -20.5555  -26.2518   23.3550 H   0  0  0  0  0  0  0  0  0  0  0  0
  -21.5974  -26.8362   22.0454 H   0  0  0  0  0  0  0  0  0  0  0  0
  -19.6810  -25.6422   21.1488 H   0  0  0  0  0  0  0  0  0  0  0  0
  -19.6406  -27.3343   20.7034 H   0  0  0  0  0  0  0  0  0  0  0  0
  -17.4282  -26.6888   21.4113 H   0  0  0  0  0  0  0  0  0  0  0  0
  -18.0803  -26.0130   22.9049 H   0  0  0  0  0  0  0  0  0  0  0  0
  -19.7265  -30.6774   24.2204 H   0  0  0  0  0  0  0  0  0  0  0  0
  -17.5064  -31.5856   24.4483 H   0  0  0  0  0  0  0  0  0  0  0  0
  -15.5878  -30.2839   23.7407 H   0  0  0  0  0  0  0  0  0  0  0  0
  -15.9120  -28.0941   22.7766 H   0  0  0  0  0  0  0  0  0  0  0  0
  -24.5787  -30.7757   25.6817 H   0  0  0  0  0  0  0  0  0  0  0  0
  -25.0041  -32.2289   26.5536 H   0  0  0  0  0  0  0  0  0  0  0  0
  -25.8166  -30.7245   26.9138 H   0  0  0  0  0  0  0  0  0  0  0  0
  -26.2892  -29.7335   24.0803 H   0  0  0  0  0  0  0  0  0  0  0  0
  -27.4336  -29.7484   25.4006 H   0  0  0  0  0  0  0  0  0  0  0  0
  -27.8466  -30.4994   23.8779 H   0  0  0  0  0  0  0  0  0  0  0  0
  -27.2251  -33.3632   26.1242 H   0  0  0  0  0  0  0  0  0  0  0  0
  -28.3902  -32.6065   25.0645 H   0  0  0  0  0  0  0  0  0  0  0  0
  -27.9772  -31.8555   26.5872 H   0  0  0  0  0  0  0  0  0  0  0  0
  -28.2744  -38.0016   24.6863 H   0  0  0  0  0  0  0  0  0  0  0  0
  -28.0396  -36.2711   24.7461 H   0  0  0  0  0  0  0  0  0  0  0  0
  -27.1773  -37.3087   25.8564 H   0  0  0  0  0  0  0  0  0  0  0  0
  -20.9627  -29.9365   21.7352 H   0  0  0  0  0  0  0  0  0  0  0  0
  -26.0447  -38.2561   24.0273 H   0  0  0  0  0  0  0  0  0  0  0  0
  -20.8441  -26.5578   23.7371 H   0  0  0  0  0  0  0  0  0  0  0  0
  -17.4305  -28.8163   21.3285 H   0  0  0  0  0  0  0  0  0  0  0  0
  -21.1834  -28.8304   24.8663 H   0  0  0  0  0  0  0  0  0  0  0  0
  -20.6727  -30.2488   23.9424 H   0  0  0  0  0  0  0  0  0  0  0  0
  -21.1422  -24.4932   22.8782 H   0  0  0  0  0  0  0  0  0  0  0  0
  -20.1092  -24.4527   24.2923 H   0  0  0  0  0  0  0  0  0  0  0  0
  -20.9834  -20.8734   23.5125 H   0  0  0  0  0  0  0  0  0  0  0  0
  -20.9238  -21.8381   24.8476 H   0  0  0  0  0  0  0  0  0  0  0  0
  -20.0086  -22.5293   21.9936 H   0  0  0  0  0  0  0  0  0  0  0  0
  -18.4749  -24.4918   22.0442 H   0  0  0  0  0  0  0  0  0  0  0  0
  -22.6915  -30.1252   22.8882 H   0  0  0  0  0  0  0  0  0  0  0  0
  -18.6382  -22.5750   24.5168 H   0  0  0  0  0  0  0  0  0  0  0  0
  1 25  1  0  0  0  0
  1 30  2  0  0  0  0
  1 82  1  0  0  0  0
  2  3  1  0  0  0  0
  2 25  1  0  0  0  0
  2 84  1  0  0  0  0
  2 85  1  0  0  0  0
  3  4  1  0  0  0  0
  3 86  1  0  0  0  0
  3 87  1  0  0  0  0
  4  5  1  0  0  0  0
  4 88  1  0  0  0  0
  4 89  1  0  0  0  0
  5  6  1  0  0  0  0
  5 26  1  0  0  0  0
  5 90  1  6  0  0  0
  6 25  1  0  0  0  0
  6 91  1  0  0  0  0
  6 92  1  0  0  0  0
  7  8  2  0  0  0  0
  7 26  1  0  0  0  0
  7 29  1  0  0  0  0
  8  9  1  0  0  0  0
  8 22  1  0  0  0  0
  9 10  1  0  0  0  0
  9 27  2  0  0  0  0
 10 11  2  0  0  0  0
 10 15  1  0  0  0  0
 11 12  1  0  0  0  0
 11 93  1  0  0  0  0
 12 13  2  0  0  0  0
 12 94  1  0  0  0  0
 13 14  1  0  0  0  0
 13 31  1  0  0  0  0
 14 15  2  0  0  0  0
 14 95  1  0  0  0  0
 15 96  1  0  0  0  0
 16 17  2  0  0  0  0
 16 21  1  0  0  0  0
 16 31  1  0  0  0  0
 17 18  1  0  0  0  0
 17 97  1  0  0  0  0
 18 19  2  0  0  0  0
 18 98  1  0  0  0  0
 19 20  1  0  0  0  0
 19 24  1  0  0  0  0
 20 21  2  0  0  0  0
 20 99  1  0  0  0  0
 21 23  1  0  0  0  0
 22 28  1  0  0  0  0
 22 32  2  0  0  0  0
 26 27  1  0  0  0  0
 28100  1  0  0  0  0
 28101  1  0  0  0  0
 29102  1  0  0  0  0
 29103  1  0  0  0  0
 33 34  1  0  0  0  0
 33 66  1  0  0  0  0
 33 70  2  0  0  0  0
 34 36  1  0  0  0  0
 34 59  1  0  0  0  0
 34104  1  6  0  0  0
 35 44  2  0  0  0  0
 35 45  1  0  0  0  0
 35 68  1  0  0  0  0
 36 56  1  0  0  0  0
 36105  1  0  0  0  0
 37 39  1  0  0  0  0
 37 47  1  0  0  0  0
 37 66  1  0  0  0  0
 37106  1  6  0  0  0
 38 43  2  0  0  0  0
 38 46  1  0  0  0  0
 38 47  1  0  0  0  0
 39 64  1  0  0  0  0
 39 67  2  0  0  0  0
 40 52  1  0  0  0  0
 40 53  2  0  0  0  0
 40 58  1  0  0  0  0
 41107  1  0  0  0  0
 41108  1  0  0  0  0
 41109  1  0  0  0  0
 42 43  1  0  0  0  0
 42 66  1  0  0  0  0
 42110  1  0  0  0  0
 42111  1  0  0  0  0
 43 44  1  0  0  0  0
 44112  1  0  0  0  0
 45 46  2  0  0  0  0
 45113  1  0  0  0  0
 46114  1  0  0  0  0
 47115  1  0  0  0  0
 47116  1  0  0  0  0
 48 41  1  0  0  0  0
 48 56  1  0  0  0  0
 48 65  1  0  0  0  0
 48117  1  1  0  0  0
 49 50  1  0  0  0  0
 49 53  1  0  0  0  0
 49 64  1  0  0  0  0
 49118  1  1  0  0  0
 50 51  1  0  0  0  0
 50119  1  0  0  0  0
 50120  1  0  0  0  0
 51 52  1  0  0  0  0
 51121  1  0  0  0  0
 51122  1  0  0  0  0
 52123  1  0  0  0  0
 52124  1  0  0  0  0
 53 54  1  0  0  0  0
 54 55  2  0  0  0  0
 54125  1  0  0  0  0
 55 57  1  0  0  0  0
 55126  1  0  0  0  0
 56 69  2  0  0  0  0
 57 58  2  0  0  0  0
 57127  1  0  0  0  0
 58128  1  0  0  0  0
 59 60  1  0  0  0  0
 59 61  1  0  0  0  0
 59 62  1  0  0  0  0
 60129  1  0  0  0  0
 60130  1  0  0  0  0
 60131  1  0  0  0  0
 61132  1  0  0  0  0
 61133  1  0  0  0  0
 61134  1  0  0  0  0
 62135  1  0  0  0  0
 62136  1  0  0  0  0
 62137  1  0  0  0  0
 63 65  1  0  0  0  0
 63138  1  0  0  0  0
 63139  1  0  0  0  0
 63140  1  0  0  0  0
 64141  1  0  0  0  0
 65142  1  0  0  0  0
 68 77  1  0  0  0  0
 71 73  2  0  0  0  0
 71 74  1  0  0  0  0
 71143  1  0  0  0  0
 72 79  2  0  0  0  0
 72 80  1  0  0  0  0
 72144  1  0  0  0  0
 73 75  1  0  0  0  0
 73 79  1  0  0  0  0
 74 80  2  0  0  0  0
 74 81  1  0  0  0  0
 75 82  1  0  0  0  0
 75145  1  0  0  0  0
 75146  1  0  0  0  0
 76 78  1  0  0  0  0
 76 81  1  0  0  0  0
 76147  1  0  0  0  0
 76148  1  0  0  0  0
 77 78  1  0  0  0  0
 77149  1  0  0  0  0
 77150  1  0  0  0  0
 78 83  1  0  0  0  0
 78151  1  6  0  0  0
 81152  1  0  0  0  0
 82153  1  0  0  0  0
 83154  1  0  0  0  0
M  ISO  4   1 100  68 101  77 101  82 100
M  END
$$$$
30
 OpenBabel04052305473D

150158  0  0  0  0  0  0  0  0999 V2000
  -30.7652  -14.3608   20.6636 C   0  0  0  0  0  0  0  0  0  0  0  0
  -30.4392  -12.2669   19.3775 C   0  0  0  0  0  0  0  0  0  0  0  0
  -29.4791  -12.5281   18.1977 C   0  0  0  0  0  0  0  0  0  0  0  0
  -27.9985  -12.3963   18.6038 C   0  0  0  0  0  0  0  0  0  0  0  0
  -27.6639  -13.2170   19.8820 C   0  0  2  0  0  0  0  0  0  0  0  0
  -28.6795  -12.9602   21.0279 C   0  0  0  0  0  0  0  0  0  0  0  0
  -25.2633  -13.8245   20.5754 C   0  0  0  0  0  0  0  0  0  0  0  0
  -24.1645  -13.0409   20.9408 C   0  0  0  0  0  0  0  0  0  0  0  0
  -24.6400  -11.7009   20.8697 C   0  0  0  0  0  0  0  0  0  0  0  0
  -23.9005  -10.4085   21.0420 C   0  0  0  0  0  0  0  0  0  0  0  0
  -24.3588   -9.4123   21.9123 C   0  0  0  0  0  0  0  0  0  0  0  0
  -23.6296   -8.2350   22.0803 C   0  0  0  0  0  0  0  0  0  0  0  0
  -22.4385   -8.0419   21.3657 C   0  0  0  0  0  0  0  0  0  0  0  0
  -22.0103   -9.0167   20.4678 C   0  0  0  0  0  0  0  0  0  0  0  0
  -22.7317  -10.1925   20.3102 C   0  0  0  0  0  0  0  0  0  0  0  0
  -21.6857   -6.0709   22.5391 C   0  0  0  0  0  0  0  0  0  0  0  0
  -21.4064   -6.5490   23.8264 C   0  0  0  0  0  0  0  0  0  0  0  0
  -21.3635   -5.6677   24.9085 C   0  0  0  0  0  0  0  0  0  0  0  0
  -21.5973   -4.3067   24.7088 C   0  0  0  0  0  0  0  0  0  0  0  0
  -21.8700   -3.8284   23.4282 C   0  0  0  0  0  0  0  0  0  0  0  0
  -21.9144   -4.7056   22.3460 C   0  0  0  0  0  0  0  0  0  0  0  0
  -22.8194  -13.5263   21.1763 C   0  0  0  0  0  0  0  0  0  0  0  0
  -22.1559   -4.2206   21.1063 F   0  0  0  0  0  0  0  0  0  0  0  0
  -21.5628   -3.4510   25.7555 F   0  0  0  0  0  0  0  0  0  0  0  0
  -30.0261  -13.1803   20.4553 N   0  0  0  0  0  0  0  0  0  0  0  0
  -26.2911  -12.9356   20.3443 N   0  0  0  0  0  0  0  0  0  0  0  0
  -25.9236  -11.6675   20.5847 N   0  0  0  0  0  0  0  0  0  0  0  0
  -22.0708  -12.7905   22.0005 N   0  0  0  0  0  0  0  0  0  0  0  0
  -25.4117  -15.1773   20.4097 N   0  0  0  0  0  0  0  0  0  0  0  0
  -31.7916  -14.6724   20.0536 O   0  0  0  0  0  0  0  0  0  0  0  0
  -21.6670   -6.9022   21.4423 O   0  0  0  0  0  0  0  0  0  0  0  0
  -22.3946  -14.5564   20.6568 O   0  0  0  0  0  0  0  0  0  0  0  0
  -24.6048  -31.8614   23.2223 C   0  0  0  0  0  0  0  0  0  0  0  0
  -25.8822  -32.4841   23.8616 C   0  0  1  0  0  0  0  0  0  0  0  0
  -27.2536  -27.5042   20.1156 C   0  0  0  0  0  0  0  0  0  0  0  0
  -25.5726  -33.8762   24.2210 N   0  0  0  0  0  0  0  0  0  0  0  0
  -23.4066  -30.4859   21.5461 C   0  0  2  0  0  0  0  0  0  0  0  0
  -24.8467  -28.9636   20.1247 C   0  0  0  0  0  0  0  0  0  0  0  0
  -22.7412  -29.4652   22.5052 C   0  0  0  0  0  0  0  0  0  0  0  0
  -18.0167  -28.1302   22.8626 C   0  0  0  0  0  0  0  0  0  0  0  0
  -24.1342  -36.7390   23.2568 C   0  0  0  0  0  0  0  0  0  0  0  0
  -25.9141  -30.8882   21.3456 C   0  0  0  0  0  0  0  0  0  0  0  0
  -25.9930  -29.5029   20.7208 C   0  0  0  0  0  0  0  0  0  0  0  0
  -27.1758  -28.7612   20.7331 C   0  0  0  0  0  0  0  0  0  0  0  0
  -26.1032  -26.9836   19.5230 C   0  0  0  0  0  0  0  0  0  0  0  0
  -24.9097  -27.7011   19.5331 C   0  0  0  0  0  0  0  0  0  0  0  0
  -23.5715  -29.7899   20.1582 C   0  0  0  0  0  0  0  0  0  0  0  0
  -25.3990  -36.3212   24.0232 C   0  0  1  0  0  0  0  0  0  0  0  0
  -20.5793  -28.3813   23.1004 C   0  0  2  0  0  0  0  0  0  0  0  0
  -20.6548  -26.9392   22.5411 C   0  0  0  0  0  0  0  0  0  0  0  0
  -19.5615  -26.6407   21.5143 C   0  0  0  0  0  0  0  0  0  0  0  0
  -18.1797  -26.7818   22.1673 C   0  0  0  0  0  0  0  0  0  0  0  0
  -19.1385  -28.8769   23.2988 C   0  0  0  0  0  0  0  0  0  0  0  0
  -18.9183  -30.1286   23.8878 C   0  0  0  0  0  0  0  0  0  0  0  0
  -17.6396  -30.6493   24.0352 C   0  0  0  0  0  0  0  0  0  0  0  0
  -25.9153  -34.9582   23.4993 C   0  0  0  0  0  0  0  0  0  0  0  0
  -16.5415  -29.9068   23.6254 C   0  0  0  0  0  0  0  0  0  0  0  0
  -16.7331  -28.6521   23.0586 C   0  0  0  0  0  0  0  0  0  0  0  0
  -26.4583  -31.6439   25.0683 C   0  0  0  0  0  0  0  0  0  0  0  0
  -25.3807  -31.3179   26.1374 C   0  0  0  0  0  0  0  0  0  0  0  0
  -27.0530  -30.3024   24.5680 C   0  0  0  0  0  0  0  0  0  0  0  0
  -27.6014  -32.4281   25.7651 C   0  0  0  0  0  0  0  0  0  0  0  0
  -27.5629  -37.2220   24.8621 C   0  0  0  0  0  0  0  0  0  0  0  0
  -21.4133  -29.3375   22.3735 N   0  0  0  0  0  0  0  0  0  0  0  0
  -26.4706  -37.3372   23.9061 N   0  0  0  0  0  0  0  0  0  0  0  0
  -24.6674  -31.0544   22.1178 N   0  0  0  0  0  0  0  0  0  0  0  0
  -23.4259  -28.8150   23.2971 O   0  0  0  0  0  0  0  0  0  0  0  0
  -28.3948  -26.7345   20.0089 O   0  0  0  0  0  0  0  0  0  0  0  0
  -26.5870  -34.9065   22.4671 O   0  0  0  0  0  0  0  0  0  0  0  0
  -23.5365  -32.1254   23.7833 O   0  0  0  0  0  0  0  0  0  0  0  0
  -27.8972  -18.9160   19.8780 C   0  0  0  0  0  0  0  0  0  0  0  0
  -25.7463  -19.7917   19.7818 C   0  0  0  0  0  0  0  0  0  0  0  0
  -27.0914  -20.0882   19.7946 C   0  0  0  0  0  0  0  0  0  0  0  0
  -27.1370  -17.7681   19.9260 C   0  0  0  0  0  0  0  0  0  0  0  0
  -26.7718  -22.5585   19.6490 C   0  0  0  0  0  0  0  0  0  0  0  0
  -26.8010  -25.0707   19.4808 C   0  0  0  0  0  0  0  0  0  0  0  0
  -27.6489  -23.8064   19.5694 C   0  0  1  0  0  0  0  0  0  0  0  0
  -27.5983  -21.3753   19.7335 N   0  0  0  0  0  0  0  0  0  0  0  0
  -27.5181  -16.4060   20.0107 N   0  0  0  0  0  0  0  0  0  0  0  0
  -28.4417  -23.8968   20.7550 O   0  0  0  0  0  0  0  0  0  0  0  0
  -25.4592  -18.1058   19.8702 S   0  0  0  0  0  0  0  0  0  0  0  0
  -31.4485  -12.4701   19.0860 H   0  0  0  0  0  0  0  0  0  0  0  0
  -30.3970  -11.2460   19.6950 H   0  0  0  0  0  0  0  0  0  0  0  0
  -29.6870  -11.8204   17.4226 H   0  0  0  0  0  0  0  0  0  0  0  0
  -29.6375  -13.5326   17.8649 H   0  0  0  0  0  0  0  0  0  0  0  0
  -27.7830  -11.3650   18.7904 H   0  0  0  0  0  0  0  0  0  0  0  0
  -27.4028  -12.7801   17.8021 H   0  0  0  0  0  0  0  0  0  0  0  0
  -27.7353  -14.2503   19.6136 H   0  0  0  0  0  0  0  0  0  0  0  0
  -28.5890  -11.9550   21.3832 H   0  0  0  0  0  0  0  0  0  0  0  0
  -28.5005  -13.6134   21.8562 H   0  0  0  0  0  0  0  0  0  0  0  0
  -25.2399   -9.5495   22.4318 H   0  0  0  0  0  0  0  0  0  0  0  0
  -23.9663   -7.5070   22.7297 H   0  0  0  0  0  0  0  0  0  0  0  0
  -21.1515   -8.8641   19.9162 H   0  0  0  0  0  0  0  0  0  0  0  0
  -22.4016  -10.9115   19.6476 H   0  0  0  0  0  0  0  0  0  0  0  0
  -21.2319   -7.5552   23.9750 H   0  0  0  0  0  0  0  0  0  0  0  0
  -21.1589   -6.0228   25.8556 H   0  0  0  0  0  0  0  0  0  0  0  0
  -22.0396   -2.8212   23.2809 H   0  0  0  0  0  0  0  0  0  0  0  0
  -22.4401  -11.9703   22.4008 H   0  0  0  0  0  0  0  0  0  0  0  0
  -21.1493  -13.0679   22.2082 H   0  0  0  0  0  0  0  0  0  0  0  0
  -24.6538  -15.7807   20.5848 H   0  0  0  0  0  0  0  0  0  0  0  0
  -26.2762  -15.5453   20.1156 H   0  0  0  0  0  0  0  0  0  0  0  0
  -26.6778  -32.4663   23.1464 H   0  0  0  0  0  0  0  0  0  0  0  0
  -25.0747  -34.0282   25.0566 H   0  0  0  0  0  0  0  0  0  0  0  0
  -22.7881  -31.3489   21.4131 H   0  0  0  0  0  0  0  0  0  0  0  0
  -23.3854  -35.9823   23.3648 H   0  0  0  0  0  0  0  0  0  0  0  0
  -24.3696  -36.8624   22.2204 H   0  0  0  0  0  0  0  0  0  0  0  0
  -23.7669  -37.6632   23.6516 H   0  0  0  0  0  0  0  0  0  0  0  0
  -25.9445  -31.6237   20.5691 H   0  0  0  0  0  0  0  0  0  0  0  0
  -26.7436  -31.0079   22.0108 H   0  0  0  0  0  0  0  0  0  0  0  0
  -28.0090  -29.1452   21.2057 H   0  0  0  0  0  0  0  0  0  0  0  0
  -26.1369  -26.0560   19.0719 H   0  0  0  0  0  0  0  0  0  0  0  0
  -24.0652  -27.2961   19.0997 H   0  0  0  0  0  0  0  0  0  0  0  0
  -23.6156  -30.5365   19.3930 H   0  0  0  0  0  0  0  0  0  0  0  0
  -22.7355  -29.1425   19.9945 H   0  0  0  0  0  0  0  0  0  0  0  0
  -25.1353  -36.2335   25.0565 H   0  0  0  0  0  0  0  0  0  0  0  0
  -21.0070  -28.3206   24.0793 H   0  0  0  0  0  0  0  0  0  0  0  0
  -20.5555  -26.2518   23.3550 H   0  0  0  0  0  0  0  0  0  0  0  0
  -21.5974  -26.8362   22.0454 H   0  0  0  0  0  0  0  0  0  0  0  0
  -19.6810  -25.6422   21.1488 H   0  0  0  0  0  0  0  0  0  0  0  0
  -19.6406  -27.3343   20.7034 H   0  0  0  0  0  0  0  0  0  0  0  0
  -17.4282  -26.6888   21.4113 H   0  0  0  0  0  0  0  0  0  0  0  0
  -18.0803  -26.0130   22.9049 H   0  0  0  0  0  0  0  0  0  0  0  0
  -19.7265  -30.6774   24.2204 H   0  0  0  0  0  0  0  0  0  0  0  0
  -17.5064  -31.5856   24.4483 H   0  0  0  0  0  0  0  0  0  0  0  0
  -15.5878  -30.2839   23.7407 H   0  0  0  0  0  0  0  0  0  0  0  0
  -15.9120  -28.0941   22.7766 H   0  0  0  0  0  0  0  0  0  0  0  0
  -24.5787  -30.7757   25.6817 H   0  0  0  0  0  0  0  0  0  0  0  0
  -25.0041  -32.2289   26.5536 H   0  0  0  0  0  0  0  0  0  0  0  0
  -25.8166  -30.7245   26.9138 H   0  0  0  0  0  0  0  0  0  0  0  0
  -26.2892  -29.7335   24.0803 H   0  0  0  0  0  0  0  0  0  0  0  0
  -27.4336  -29.7484   25.4006 H   0  0  0  0  0  0  0  0  0  0  0  0
  -27.8466  -30.4994   23.8779 H   0  0  0  0  0  0  0  0  0  0  0  0
  -27.2251  -33.3632   26.1242 H   0  0  0  0  0  0  0  0  0  0  0  0
  -28.3902  -32.6065   25.0645 H   0  0  0  0  0  0  0  0  0  0  0  0
  -27.9772  -31.8555   26.5872 H   0  0  0  0  0  0  0  0  0  0  0  0
  -28.2744  -38.0016   24.6863 H   0  0  0  0  0  0  0  0  0  0  0  0
  -28.0396  -36.2711   24.7461 H   0  0  0  0  0  0  0  0  0  0  0  0
  -27.1773  -37.3087   25.8564 H   0  0  0  0  0  0  0  0  0  0  0  0
  -20.9627  -29.9365   21.7352 H   0  0  0  0  0  0  0  0  0  0  0  0
  -26.0447  -38.2561   24.0273 H   0  0  0  0  0  0  0  0  0  0  0  0
  -28.9289  -18.9258   19.8999 H   0  0  0  0  0  0  0  0  0  0  0  0
  -24.9996  -20.5018   19.7256 H   0  0  0  0  0  0  0  0  0  0  0  0
  -26.1588  -22.5003   18.7739 H   0  0  0  0  0  0  0  0  0  0  0  0
  -26.1556  -22.6185   20.5217 H   0  0  0  0  0  0  0  0  0  0  0  0
  -26.0003  -25.0559   20.1904 H   0  0  0  0  0  0  0  0  0  0  0  0
  -26.3189  -25.2098   18.5358 H   0  0  0  0  0  0  0  0  0  0  0  0
  -28.2601  -23.7264   18.6948 H   0  0  0  0  0  0  0  0  0  0  0  0
  -28.5758  -21.4912   19.7484 H   0  0  0  0  0  0  0  0  0  0  0  0
  -26.7473  -15.8115   19.8635 H   0  0  0  0  0  0  0  0  0  0  0  0
  -27.8602  -23.9680   21.5281 H   0  0  0  0  0  0  0  0  0  0  0  0
  1 25  1  0  0  0  0
  1 30  2  0  0  0  0
  1 79  1  0  0  0  0
  2  3  1  0  0  0  0
  2 25  1  0  0  0  0
  2 82  1  0  0  0  0
  2 83  1  0  0  0  0
  3  4  1  0  0  0  0
  3 84  1  0  0  0  0
  3 85  1  0  0  0  0
  4  5  1  0  0  0  0
  4 86  1  0  0  0  0
  4 87  1  0  0  0  0
  5  6  1  0  0  0  0
  5 26  1  0  0  0  0
  5 88  1  6  0  0  0
  6 25  1  0  0  0  0
  6 89  1  0  0  0  0
  6 90  1  0  0  0  0
  7  8  2  0  0  0  0
  7 26  1  0  0  0  0
  7 29  1  0  0  0  0
  8  9  1  0  0  0  0
  8 22  1  0  0  0  0
  9 10  1  0  0  0  0
  9 27  2  0  0  0  0
 10 11  2  0  0  0  0
 10 15  1  0  0  0  0
 11 12  1  0  0  0  0
 11 91  1  0  0  0  0
 12 13  2  0  0  0  0
 12 92  1  0  0  0  0
 13 14  1  0  0  0  0
 13 31  1  0  0  0  0
 14 15  2  0  0  0  0
 14 93  1  0  0  0  0
 15 94  1  0  0  0  0
 16 17  2  0  0  0  0
 16 21  1  0  0  0  0
 16 31  1  0  0  0  0
 17 18  1  0  0  0  0
 17 95  1  0  0  0  0
 18 19  2  0  0  0  0
 18 96  1  0  0  0  0
 19 20  1  0  0  0  0
 19 24  1  0  0  0  0
 20 21  2  0  0  0  0
 20 97  1  0  0  0  0
 21 23  1  0  0  0  0
 22 28  1  0  0  0  0
 22 32  2  0  0  0  0
 26 27  1  0  0  0  0
 28 98  1  0  0  0  0
 28 99  1  0  0  0  0
 29100  1  0  0  0  0
 29101  1  0  0  0  0
 33 34  1  0  0  0  0
 33 66  1  0  0  0  0
 33 70  2  0  0  0  0
 34 36  1  0  0  0  0
 34 59  1  0  0  0  0
 34102  1  6  0  0  0
 35 44  2  0  0  0  0
 35 45  1  0  0  0  0
 35 68  1  0  0  0  0
 36 56  1  0  0  0  0
 36103  1  0  0  0  0
 37 39  1  0  0  0  0
 37 47  1  0  0  0  0
 37 66  1  0  0  0  0
 37104  1  6  0  0  0
 38 43  2  0  0  0  0
 38 46  1  0  0  0  0
 38 47  1  0  0  0  0
 39 64  1  0  0  0  0
 39 67  2  0  0  0  0
 40 52  1  0  0  0  0
 40 53  2  0  0  0  0
 40 58  1  0  0  0  0
 41105  1  0  0  0  0
 41106  1  0  0  0  0
 41107  1  0  0  0  0
 42 43  1  0  0  0  0
 42 66  1  0  0  0  0
 42108  1  0  0  0  0
 42109  1  0  0  0  0
 43 44  1  0  0  0  0
 44110  1  0  0  0  0
 45 46  2  0  0  0  0
 45111  1  0  0  0  0
 46112  1  0  0  0  0
 47113  1  0  0  0  0
 47114  1  0  0  0  0
 48 41  1  0  0  0  0
 48 56  1  0  0  0  0
 48 65  1  0  0  0  0
 48115  1  1  0  0  0
 49 50  1  0  0  0  0
 49 53  1  0  0  0  0
 49 64  1  0  0  0  0
 49116  1  1  0  0  0
 50 51  1  0  0  0  0
 50117  1  0  0  0  0
 50118  1  0  0  0  0
 51 52  1  0  0  0  0
 51119  1  0  0  0  0
 51120  1  0  0  0  0
 52121  1  0  0  0  0
 52122  1  0  0  0  0
 53 54  1  0  0  0  0
 54 55  2  0  0  0  0
 54123  1  0  0  0  0
 55 57  1  0  0  0  0
 55124  1  0  0  0  0
 56 69  2  0  0  0  0
 57 58  2  0  0  0  0
 57125  1  0  0  0  0
 58126  1  0  0  0  0
 59 60  1  0  0  0  0
 59 61  1  0  0  0  0
 59 62  1  0  0  0  0
 60127  1  0  0  0  0
 60128  1  0  0  0  0
 60129  1  0  0  0  0
 61130  1  0  0  0  0
 61131  1  0  0  0  0
 61132  1  0  0  0  0
 62133  1  0  0  0  0
 62134  1  0  0  0  0
 62135  1  0  0  0  0
 63 65  1  0  0  0  0
 63136  1  0  0  0  0
 63137  1  0  0  0  0
 63138  1  0  0  0  0
 64139  1  0  0  0  0
 65140  1  0  0  0  0
 68 76  1  0  0  0  0
 71 73  1  0  0  0  0
 71 74  2  0  0  0  0
 71141  1  0  0  0  0
 72 73  2  0  0  0  0
 72 81  1  0  0  0  0
 72142  1  0  0  0  0
 73 78  1  0  0  0  0
 74 79  1  0  0  0  0
 74 81  1  0  0  0  0
 75 77  1  0  0  0  0
 75 78  1  0  0  0  0
 75143  1  0  0  0  0
 75144  1  0  0  0  0
 76 77  1  0  0  0  0
 76145  1  0  0  0  0
 76146  1  0  0  0  0
 77 80  1  0  0  0  0
 77147  1  6  0  0  0
 78148  1  0  0  0  0
 79149  1  0  0  0  0
 80150  1  0  0  0  0
M  ISO  4   1 100  68 101  76 101  79 100
M  END
$$$$
31
 OpenBabel04052305473D

151159  0  0  0  0  0  0  0  0999 V2000
  -30.7652  -14.3608   20.6636 C   0  0  0  0  0  0  0  0  0  0  0  0
  -30.4392  -12.2669   19.3775 C   0  0  0  0  0  0  0  0  0  0  0  0
  -29.4791  -12.5281   18.1977 C   0  0  0  0  0  0  0  0  0  0  0  0
  -27.9985  -12.3963   18.6038 C   0  0  0  0  0  0  0  0  0  0  0  0
  -27.6639  -13.2170   19.8820 C   0  0  2  0  0  0  0  0  0  0  0  0
  -28.6795  -12.9602   21.0279 C   0  0  0  0  0  0  0  0  0  0  0  0
  -25.2633  -13.8245   20.5754 C   0  0  0  0  0  0  0  0  0  0  0  0
  -24.1645  -13.0409   20.9408 C   0  0  0  0  0  0  0  0  0  0  0  0
  -24.6400  -11.7009   20.8697 C   0  0  0  0  0  0  0  0  0  0  0  0
  -23.9005  -10.4085   21.0420 C   0  0  0  0  0  0  0  0  0  0  0  0
  -24.3588   -9.4123   21.9123 C   0  0  0  0  0  0  0  0  0  0  0  0
  -23.6296   -8.2350   22.0803 C   0  0  0  0  0  0  0  0  0  0  0  0
  -22.4385   -8.0419   21.3657 C   0  0  0  0  0  0  0  0  0  0  0  0
  -22.0103   -9.0167   20.4678 C   0  0  0  0  0  0  0  0  0  0  0  0
  -22.7317  -10.1925   20.3102 C   0  0  0  0  0  0  0  0  0  0  0  0
  -21.6857   -6.0709   22.5391 C   0  0  0  0  0  0  0  0  0  0  0  0
  -21.4064   -6.5490   23.8264 C   0  0  0  0  0  0  0  0  0  0  0  0
  -21.3635   -5.6677   24.9085 C   0  0  0  0  0  0  0  0  0  0  0  0
  -21.5973   -4.3067   24.7088 C   0  0  0  0  0  0  0  0  0  0  0  0
  -21.8700   -3.8284   23.4282 C   0  0  0  0  0  0  0  0  0  0  0  0
  -21.9144   -4.7056   22.3460 C   0  0  0  0  0  0  0  0  0  0  0  0
  -22.8194  -13.5263   21.1763 C   0  0  0  0  0  0  0  0  0  0  0  0
  -22.1559   -4.2206   21.1063 F   0  0  0  0  0  0  0  0  0  0  0  0
  -21.5628   -3.4510   25.7555 F   0  0  0  0  0  0  0  0  0  0  0  0
  -30.0261  -13.1803   20.4553 N   0  0  0  0  0  0  0  0  0  0  0  0
  -26.2911  -12.9356   20.3443 N   0  0  0  0  0  0  0  0  0  0  0  0
  -25.9236  -11.6675   20.5847 N   0  0  0  0  0  0  0  0  0  0  0  0
  -22.0708  -12.7905   22.0005 N   0  0  0  0  0  0  0  0  0  0  0  0
  -25.4117  -15.1773   20.4097 N   0  0  0  0  0  0  0  0  0  0  0  0
  -31.7916  -14.6724   20.0536 O   0  0  0  0  0  0  0  0  0  0  0  0
  -21.6670   -6.9022   21.4423 O   0  0  0  0  0  0  0  0  0  0  0  0
  -22.3946  -14.5564   20.6568 O   0  0  0  0  0  0  0  0  0  0  0  0
  -24.6048  -31.8614   23.2223 C   0  0  0  0  0  0  0  0  0  0  0  0
  -25.8822  -32.4841   23.8616 C   0  0  1  0  0  0  0  0  0  0  0  0
  -27.2536  -27.5042   20.1156 C   0  0  0  0  0  0  0  0  0  0  0  0
  -25.5726  -33.8762   24.2210 N   0  0  0  0  0  0  0  0  0  0  0  0
  -23.4066  -30.4859   21.5461 C   0  0  2  0  0  0  0  0  0  0  0  0
  -24.8467  -28.9636   20.1247 C   0  0  0  0  0  0  0  0  0  0  0  0
  -22.7412  -29.4652   22.5052 C   0  0  0  0  0  0  0  0  0  0  0  0
  -18.0167  -28.1302   22.8626 C   0  0  0  0  0  0  0  0  0  0  0  0
  -24.1342  -36.7390   23.2568 C   0  0  0  0  0  0  0  0  0  0  0  0
  -25.9141  -30.8882   21.3456 C   0  0  0  0  0  0  0  0  0  0  0  0
  -25.9930  -29.5029   20.7208 C   0  0  0  0  0  0  0  0  0  0  0  0
  -27.1758  -28.7612   20.7331 C   0  0  0  0  0  0  0  0  0  0  0  0
  -26.1032  -26.9836   19.5230 C   0  0  0  0  0  0  0  0  0  0  0  0
  -24.9097  -27.7011   19.5331 C   0  0  0  0  0  0  0  0  0  0  0  0
  -23.5715  -29.7899   20.1582 C   0  0  0  0  0  0  0  0  0  0  0  0
  -25.3990  -36.3212   24.0232 C   0  0  1  0  0  0  0  0  0  0  0  0
  -20.5793  -28.3813   23.1004 C   0  0  2  0  0  0  0  0  0  0  0  0
  -20.6548  -26.9392   22.5411 C   0  0  0  0  0  0  0  0  0  0  0  0
  -19.5615  -26.6407   21.5143 C   0  0  0  0  0  0  0  0  0  0  0  0
  -18.1797  -26.7818   22.1673 C   0  0  0  0  0  0  0  0  0  0  0  0
  -19.1385  -28.8769   23.2988 C   0  0  0  0  0  0  0  0  0  0  0  0
  -18.9183  -30.1286   23.8878 C   0  0  0  0  0  0  0  0  0  0  0  0
  -17.6396  -30.6493   24.0352 C   0  0  0  0  0  0  0  0  0  0  0  0
  -25.9153  -34.9582   23.4993 C   0  0  0  0  0  0  0  0  0  0  0  0
  -16.5415  -29.9068   23.6254 C   0  0  0  0  0  0  0  0  0  0  0  0
  -16.7331  -28.6521   23.0586 C   0  0  0  0  0  0  0  0  0  0  0  0
  -26.4583  -31.6439   25.0683 C   0  0  0  0  0  0  0  0  0  0  0  0
  -25.3807  -31.3179   26.1374 C   0  0  0  0  0  0  0  0  0  0  0  0
  -27.0530  -30.3024   24.5680 C   0  0  0  0  0  0  0  0  0  0  0  0
  -27.6014  -32.4281   25.7651 C   0  0  0  0  0  0  0  0  0  0  0  0
  -27.5629  -37.2220   24.8621 C   0  0  0  0  0  0  0  0  0  0  0  0
  -21.4133  -29.3375   22.3735 N   0  0  0  0  0  0  0  0  0  0  0  0
  -26.4706  -37.3372   23.9061 N   0  0  0  0  0  0  0  0  0  0  0  0
  -24.6674  -31.0544   22.1178 N   0  0  0  0  0  0  0  0  0  0  0  0
  -23.4259  -28.8150   23.2971 O   0  0  0  0  0  0  0  0  0  0  0  0
  -28.3948  -26.7345   20.0089 O   0  0  0  0  0  0  0  0  0  0  0  0
  -26.5870  -34.9065   22.4671 O   0  0  0  0  0  0  0  0  0  0  0  0
  -23.5365  -32.1254   23.7833 O   0  0  0  0  0  0  0  0  0  0  0  0
  -29.3560  -21.6720   19.7114 C   0  0  0  0  0  0  0  0  0  0  0  0
  -30.7035  -23.7516   20.7048 C   0  0  0  0  0  0  0  0  0  0  0  0
  -30.0869  -21.5560   20.8732 C   0  0  0  0  0  0  0  0  0  0  0  0
  -29.9732  -23.8676   19.5426 C   0  0  0  0  0  0  0  0  0  0  0  0
  -30.6590  -26.2608   19.3757 C   0  0  0  0  0  0  0  0  0  0  0  0
  -28.9163  -27.7796   18.3774 C   0  0  0  0  0  0  0  0  0  0  0  0
  -30.4024  -27.4454   18.4462 C   0  0  1  0  0  0  0  0  0  0  0  0
  -30.7735  -22.5937   21.3909 N   0  0  0  0  0  0  0  0  0  0  0  0
  -29.2863  -22.8299   19.0251 N   0  0  0  0  0  0  0  0  0  0  0  0
  -30.1109  -20.3030   21.5344 N   0  0  0  0  0  0  0  0  0  0  0  0
  -29.9540  -25.0926   18.8975 N   0  0  0  0  0  0  0  0  0  0  0  0
  -31.0834  -28.5943   18.9546 O   0  0  0  0  0  0  0  0  0  0  0  0
  -31.4485  -12.4701   19.0860 H   0  0  0  0  0  0  0  0  0  0  0  0
  -30.3970  -11.2460   19.6950 H   0  0  0  0  0  0  0  0  0  0  0  0
  -29.6870  -11.8204   17.4226 H   0  0  0  0  0  0  0  0  0  0  0  0
  -29.6375  -13.5326   17.8649 H   0  0  0  0  0  0  0  0  0  0  0  0
  -27.7830  -11.3650   18.7904 H   0  0  0  0  0  0  0  0  0  0  0  0
  -27.4028  -12.7801   17.8021 H   0  0  0  0  0  0  0  0  0  0  0  0
  -27.7353  -14.2503   19.6136 H   0  0  0  0  0  0  0  0  0  0  0  0
  -28.5890  -11.9550   21.3832 H   0  0  0  0  0  0  0  0  0  0  0  0
  -28.5005  -13.6134   21.8562 H   0  0  0  0  0  0  0  0  0  0  0  0
  -25.2399   -9.5495   22.4318 H   0  0  0  0  0  0  0  0  0  0  0  0
  -23.9663   -7.5070   22.7297 H   0  0  0  0  0  0  0  0  0  0  0  0
  -21.1515   -8.8641   19.9162 H   0  0  0  0  0  0  0  0  0  0  0  0
  -22.4016  -10.9115   19.6476 H   0  0  0  0  0  0  0  0  0  0  0  0
  -21.2319   -7.5552   23.9750 H   0  0  0  0  0  0  0  0  0  0  0  0
  -21.1589   -6.0228   25.8556 H   0  0  0  0  0  0  0  0  0  0  0  0
  -22.0396   -2.8212   23.2809 H   0  0  0  0  0  0  0  0  0  0  0  0
  -22.4401  -11.9703   22.4008 H   0  0  0  0  0  0  0  0  0  0  0  0
  -21.1493  -13.0679   22.2082 H   0  0  0  0  0  0  0  0  0  0  0  0
  -24.6538  -15.7807   20.5848 H   0  0  0  0  0  0  0  0  0  0  0  0
  -26.2762  -15.5453   20.1156 H   0  0  0  0  0  0  0  0  0  0  0  0
  -26.6778  -32.4663   23.1464 H   0  0  0  0  0  0  0  0  0  0  0  0
  -25.0747  -34.0282   25.0566 H   0  0  0  0  0  0  0  0  0  0  0  0
  -22.7881  -31.3489   21.4131 H   0  0  0  0  0  0  0  0  0  0  0  0
  -23.3854  -35.9823   23.3648 H   0  0  0  0  0  0  0  0  0  0  0  0
  -24.3696  -36.8624   22.2204 H   0  0  0  0  0  0  0  0  0  0  0  0
  -23.7669  -37.6632   23.6516 H   0  0  0  0  0  0  0  0  0  0  0  0
  -25.9445  -31.6237   20.5691 H   0  0  0  0  0  0  0  0  0  0  0  0
  -26.7436  -31.0079   22.0108 H   0  0  0  0  0  0  0  0  0  0  0  0
  -28.0090  -29.1452   21.2057 H   0  0  0  0  0  0  0  0  0  0  0  0
  -26.1369  -26.0560   19.0719 H   0  0  0  0  0  0  0  0  0  0  0  0
  -24.0652  -27.2961   19.0997 H   0  0  0  0  0  0  0  0  0  0  0  0
  -23.6156  -30.5365   19.3930 H   0  0  0  0  0  0  0  0  0  0  0  0
  -22.7355  -29.1425   19.9945 H   0  0  0  0  0  0  0  0  0  0  0  0
  -25.1353  -36.2335   25.0565 H   0  0  0  0  0  0  0  0  0  0  0  0
  -21.0070  -28.3206   24.0793 H   0  0  0  0  0  0  0  0  0  0  0  0
  -20.5555  -26.2518   23.3550 H   0  0  0  0  0  0  0  0  0  0  0  0
  -21.5974  -26.8362   22.0454 H   0  0  0  0  0  0  0  0  0  0  0  0
  -19.6810  -25.6422   21.1488 H   0  0  0  0  0  0  0  0  0  0  0  0
  -19.6406  -27.3343   20.7034 H   0  0  0  0  0  0  0  0  0  0  0  0
  -17.4282  -26.6888   21.4113 H   0  0  0  0  0  0  0  0  0  0  0  0
  -18.0803  -26.0130   22.9049 H   0  0  0  0  0  0  0  0  0  0  0  0
  -19.7265  -30.6774   24.2204 H   0  0  0  0  0  0  0  0  0  0  0  0
  -17.5064  -31.5856   24.4483 H   0  0  0  0  0  0  0  0  0  0  0  0
  -15.5878  -30.2839   23.7407 H   0  0  0  0  0  0  0  0  0  0  0  0
  -15.9120  -28.0941   22.7766 H   0  0  0  0  0  0  0  0  0  0  0  0
  -24.5787  -30.7757   25.6817 H   0  0  0  0  0  0  0  0  0  0  0  0
  -25.0041  -32.2289   26.5536 H   0  0  0  0  0  0  0  0  0  0  0  0
  -25.8166  -30.7245   26.9138 H   0  0  0  0  0  0  0  0  0  0  0  0
  -26.2892  -29.7335   24.0803 H   0  0  0  0  0  0  0  0  0  0  0  0
  -27.4336  -29.7484   25.4006 H   0  0  0  0  0  0  0  0  0  0  0  0
  -27.8466  -30.4994   23.8779 H   0  0  0  0  0  0  0  0  0  0  0  0
  -27.2251  -33.3632   26.1242 H   0  0  0  0  0  0  0  0  0  0  0  0
  -28.3902  -32.6065   25.0645 H   0  0  0  0  0  0  0  0  0  0  0  0
  -27.9772  -31.8555   26.5872 H   0  0  0  0  0  0  0  0  0  0  0  0
  -28.2744  -38.0016   24.6863 H   0  0  0  0  0  0  0  0  0  0  0  0
  -28.0396  -36.2711   24.7461 H   0  0  0  0  0  0  0  0  0  0  0  0
  -27.1773  -37.3087   25.8564 H   0  0  0  0  0  0  0  0  0  0  0  0
  -20.9627  -29.9365   21.7352 H   0  0  0  0  0  0  0  0  0  0  0  0
  -26.0447  -38.2561   24.0273 H   0  0  0  0  0  0  0  0  0  0  0  0
  -28.8467  -20.8478   19.3559 H   0  0  0  0  0  0  0  0  0  0  0  0
  -31.2122  -24.5759   21.0608 H   0  0  0  0  0  0  0  0  0  0  0  0
  -30.3164  -26.5026   20.3601 H   0  0  0  0  0  0  0  0  0  0  0  0
  -31.7084  -26.0526   19.3964 H   0  0  0  0  0  0  0  0  0  0  0  0
  -28.4509  -27.4145   17.4858 H   0  0  0  0  0  0  0  0  0  0  0  0
  -28.6484  -28.8152   18.3535 H   0  0  0  0  0  0  0  0  0  0  0  0
  -30.7530  -27.1825   17.4701 H   0  0  0  0  0  0  0  0  0  0  0  0
  -29.9671  -20.4593   22.4957 H   0  0  0  0  0  0  0  0  0  0  0  0
  -29.4313  -25.1726   18.0671 H   0  0  0  0  0  0  0  0  0  0  0  0
  -30.7441  -28.8066   19.8382 H   0  0  0  0  0  0  0  0  0  0  0  0
  1 25  1  0  0  0  0
  1 30  2  0  0  0  0
  1 80  1  0  0  0  0
  2  3  1  0  0  0  0
  2 25  1  0  0  0  0
  2 83  1  0  0  0  0
  2 84  1  0  0  0  0
  3  4  1  0  0  0  0
  3 85  1  0  0  0  0
  3 86  1  0  0  0  0
  4  5  1  0  0  0  0
  4 87  1  0  0  0  0
  4 88  1  0  0  0  0
  5  6  1  0  0  0  0
  5 26  1  0  0  0  0
  5 89  1  6  0  0  0
  6 25  1  0  0  0  0
  6 90  1  0  0  0  0
  6 91  1  0  0  0  0
  7  8  2  0  0  0  0
  7 26  1  0  0  0  0
  7 29  1  0  0  0  0
  8  9  1  0  0  0  0
  8 22  1  0  0  0  0
  9 10  1  0  0  0  0
  9 27  2  0  0  0  0
 10 11  2  0  0  0  0
 10 15  1  0  0  0  0
 11 12  1  0  0  0  0
 11 92  1  0  0  0  0
 12 13  2  0  0  0  0
 12 93  1  0  0  0  0
 13 14  1  0  0  0  0
 13 31  1  0  0  0  0
 14 15  2  0  0  0  0
 14 94  1  0  0  0  0
 15 95  1  0  0  0  0
 16 17  2  0  0  0  0
 16 21  1  0  0  0  0
 16 31  1  0  0  0  0
 17 18  1  0  0  0  0
 17 96  1  0  0  0  0
 18 19  2  0  0  0  0
 18 97  1  0  0  0  0
 19 20  1  0  0  0  0
 19 24  1  0  0  0  0
 20 21  2  0  0  0  0
 20 98  1  0  0  0  0
 21 23  1  0  0  0  0
 22 28  1  0  0  0  0
 22 32  2  0  0  0  0
 26 27  1  0  0  0  0
 28 99  1  0  0  0  0
 28100  1  0  0  0  0
 29101  1  0  0  0  0
 29102  1  0  0  0  0
 33 34  1  0  0  0  0
 33 66  1  0  0  0  0
 33 70  2  0  0  0  0
 34 36  1  0  0  0  0
 34 59  1  0  0  0  0
 34103  1  6  0  0  0
 35 44  2  0  0  0  0
 35 45  1  0  0  0  0
 35 68  1  0  0  0  0
 36 56  1  0  0  0  0
 36104  1  0  0  0  0
 37 39  1  0  0  0  0
 37 47  1  0  0  0  0
 37 66  1  0  0  0  0
 37105  1  6  0  0  0
 38 43  2  0  0  0  0
 38 46  1  0  0  0  0
 38 47  1  0  0  0  0
 39 64  1  0  0  0  0
 39 67  2  0  0  0  0
 40 52  1  0  0  0  0
 40 53  2  0  0  0  0
 40 58  1  0  0  0  0
 41106  1  0  0  0  0
 41107  1  0  0  0  0
 41108  1  0  0  0  0
 42 43  1  0  0  0  0
 42 66  1  0  0  0  0
 42109  1  0  0  0  0
 42110  1  0  0  0  0
 43 44  1  0  0  0  0
 44111  1  0  0  0  0
 45 46  2  0  0  0  0
 45112  1  0  0  0  0
 46113  1  0  0  0  0
 47114  1  0  0  0  0
 47115  1  0  0  0  0
 48 41  1  0  0  0  0
 48 56  1  0  0  0  0
 48 65  1  0  0  0  0
 48116  1  1  0  0  0
 49 50  1  0  0  0  0
 49 53  1  0  0  0  0
 49 64  1  0  0  0  0
 49117  1  1  0  0  0
 50 51  1  0  0  0  0
 50118  1  0  0  0  0
 50119  1  0  0  0  0
 51 52  1  0  0  0  0
 51120  1  0  0  0  0
 51121  1  0  0  0  0
 52122  1  0  0  0  0
 52123  1  0  0  0  0
 53 54  1  0  0  0  0
 54 55  2  0  0  0  0
 54124  1  0  0  0  0
 55 57  1  0  0  0  0
 55125  1  0  0  0  0
 56 69  2  0  0  0  0
 57 58  2  0  0  0  0
 57126  1  0  0  0  0
 58127  1  0  0  0  0
 59 60  1  0  0  0  0
 59 61  1  0  0  0  0
 59 62  1  0  0  0  0
 60128  1  0  0  0  0
 60129  1  0  0  0  0
 60130  1  0  0  0  0
 61131  1  0  0  0  0
 61132  1  0  0  0  0
 61133  1  0  0  0  0
 62134  1  0  0  0  0
 62135  1  0  0  0  0
 62136  1  0  0  0  0
 63 65  1  0  0  0  0
 63137  1  0  0  0  0
 63138  1  0  0  0  0
 63139  1  0  0  0  0
 64140  1  0  0  0  0
 65141  1  0  0  0  0
 68 76  1  0  0  0  0
 71 73  2  0  0  0  0
 71 79  1  0  0  0  0
 71142  1  0  0  0  0
 72 74  1  0  0  0  0
 72 78  2  0  0  0  0
 72143  1  0  0  0  0
 73 78  1  0  0  0  0
 73 80  1  0  0  0  0
 74 79  2  0  0  0  0
 74 81  1  0  0  0  0
 75 77  1  0  0  0  0
 75 81  1  0  0  0  0
 75144  1  0  0  0  0
 75145  1  0  0  0  0
 76 77  1  0  0  0  0
 76146  1  0  0  0  0
 76147  1  0  0  0  0
 77 82  1  0  0  0  0
 77148  1  6  0  0  0
 80149  1  0  0  0  0
 81150  1  0  0  0  0
 82151  1  0  0  0  0
M  ISO  4   1 100  68 101  76 101  80 100
M  END
$$$$
32
 OpenBabel04052305473D

154162  0  0  0  0  0  0  0  0999 V2000
  -30.7652  -14.3608   20.6636 C   0  0  0  0  0  0  0  0  0  0  0  0
  -30.4392  -12.2669   19.3775 C   0  0  0  0  0  0  0  0  0  0  0  0
  -29.4791  -12.5281   18.1977 C   0  0  0  0  0  0  0  0  0  0  0  0
  -27.9985  -12.3963   18.6038 C   0  0  0  0  0  0  0  0  0  0  0  0
  -27.6639  -13.2170   19.8820 C   0  0  2  0  0  0  0  0  0  0  0  0
  -28.6795  -12.9602   21.0279 C   0  0  0  0  0  0  0  0  0  0  0  0
  -25.2633  -13.8245   20.5754 C   0  0  0  0  0  0  0  0  0  0  0  0
  -24.1645  -13.0409   20.9408 C   0  0  0  0  0  0  0  0  0  0  0  0
  -24.6400  -11.7009   20.8697 C   0  0  0  0  0  0  0  0  0  0  0  0
  -23.9005  -10.4085   21.0420 C   0  0  0  0  0  0  0  0  0  0  0  0
  -24.3588   -9.4123   21.9123 C   0  0  0  0  0  0  0  0  0  0  0  0
  -23.6296   -8.2350   22.0803 C   0  0  0  0  0  0  0  0  0  0  0  0
  -22.4385   -8.0419   21.3657 C   0  0  0  0  0  0  0  0  0  0  0  0
  -22.0103   -9.0167   20.4678 C   0  0  0  0  0  0  0  0  0  0  0  0
  -22.7317  -10.1925   20.3102 C   0  0  0  0  0  0  0  0  0  0  0  0
  -21.6857   -6.0709   22.5391 C   0  0  0  0  0  0  0  0  0  0  0  0
  -21.4064   -6.5490   23.8264 C   0  0  0  0  0  0  0  0  0  0  0  0
  -21.3635   -5.6677   24.9085 C   0  0  0  0  0  0  0  0  0  0  0  0
  -21.5973   -4.3067   24.7088 C   0  0  0  0  0  0  0  0  0  0  0  0
  -21.8700   -3.8284   23.4282 C   0  0  0  0  0  0  0  0  0  0  0  0
  -21.9144   -4.7056   22.3460 C   0  0  0  0  0  0  0  0  0  0  0  0
  -22.8194  -13.5263   21.1763 C   0  0  0  0  0  0  0  0  0  0  0  0
  -22.1559   -4.2206   21.1063 F   0  0  0  0  0  0  0  0  0  0  0  0
  -21.5628   -3.4510   25.7555 F   0  0  0  0  0  0  0  0  0  0  0  0
  -30.0261  -13.1803   20.4553 N   0  0  0  0  0  0  0  0  0  0  0  0
  -26.2911  -12.9356   20.3443 N   0  0  0  0  0  0  0  0  0  0  0  0
  -25.9236  -11.6675   20.5847 N   0  0  0  0  0  0  0  0  0  0  0  0
  -22.0708  -12.7905   22.0005 N   0  0  0  0  0  0  0  0  0  0  0  0
  -25.4117  -15.1773   20.4097 N   0  0  0  0  0  0  0  0  0  0  0  0
  -31.7916  -14.6724   20.0536 O   0  0  0  0  0  0  0  0  0  0  0  0
  -21.6670   -6.9022   21.4423 O   0  0  0  0  0  0  0  0  0  0  0  0
  -22.3946  -14.5564   20.6568 O   0  0  0  0  0  0  0  0  0  0  0  0
  -24.6048  -31.8614   23.2223 C   0  0  0  0  0  0  0  0  0  0  0  0
  -25.8822  -32.4841   23.8616 C   0  0  1  0  0  0  0  0  0  0  0  0
  -27.2536  -27.5042   20.1156 C   0  0  0  0  0  0  0  0  0  0  0  0
  -25.5726  -33.8762   24.2210 N   0  0  0  0  0  0  0  0  0  0  0  0
  -23.4066  -30.4859   21.5461 C   0  0  2  0  0  0  0  0  0  0  0  0
  -24.8467  -28.9636   20.1247 C   0  0  0  0  0  0  0  0  0  0  0  0
  -22.7412  -29.4652   22.5052 C   0  0  0  0  0  0  0  0  0  0  0  0
  -18.0167  -28.1302   22.8626 C   0  0  0  0  0  0  0  0  0  0  0  0
  -24.1342  -36.7390   23.2568 C   0  0  0  0  0  0  0  0  0  0  0  0
  -25.9141  -30.8882   21.3456 C   0  0  0  0  0  0  0  0  0  0  0  0
  -25.9930  -29.5029   20.7208 C   0  0  0  0  0  0  0  0  0  0  0  0
  -27.1758  -28.7612   20.7331 C   0  0  0  0  0  0  0  0  0  0  0  0
  -26.1032  -26.9836   19.5230 C   0  0  0  0  0  0  0  0  0  0  0  0
  -24.9097  -27.7011   19.5331 C   0  0  0  0  0  0  0  0  0  0  0  0
  -23.5715  -29.7899   20.1582 C   0  0  0  0  0  0  0  0  0  0  0  0
  -25.3990  -36.3212   24.0232 C   0  0  1  0  0  0  0  0  0  0  0  0
  -20.5793  -28.3813   23.1004 C   0  0  2  0  0  0  0  0  0  0  0  0
  -20.6548  -26.9392   22.5411 C   0  0  0  0  0  0  0  0  0  0  0  0
  -19.5615  -26.6407   21.5143 C   0  0  0  0  0  0  0  0  0  0  0  0
  -18.1797  -26.7818   22.1673 C   0  0  0  0  0  0  0  0  0  0  0  0
  -19.1385  -28.8769   23.2988 C   0  0  0  0  0  0  0  0  0  0  0  0
  -18.9183  -30.1286   23.8878 C   0  0  0  0  0  0  0  0  0  0  0  0
  -17.6396  -30.6493   24.0352 C   0  0  0  0  0  0  0  0  0  0  0  0
  -25.9153  -34.9582   23.4993 C   0  0  0  0  0  0  0  0  0  0  0  0
  -16.5415  -29.9068   23.6254 C   0  0  0  0  0  0  0  0  0  0  0  0
  -16.7331  -28.6521   23.0586 C   0  0  0  0  0  0  0  0  0  0  0  0
  -26.4583  -31.6439   25.0683 C   0  0  0  0  0  0  0  0  0  0  0  0
  -25.3807  -31.3179   26.1374 C   0  0  0  0  0  0  0  0  0  0  0  0
  -27.0530  -30.3024   24.5680 C   0  0  0  0  0  0  0  0  0  0  0  0
  -27.6014  -32.4281   25.7651 C   0  0  0  0  0  0  0  0  0  0  0  0
  -27.5629  -37.2220   24.8621 C   0  0  0  0  0  0  0  0  0  0  0  0
  -21.4133  -29.3375   22.3735 N   0  0  0  0  0  0  0  0  0  0  0  0
  -26.4706  -37.3372   23.9061 N   0  0  0  0  0  0  0  0  0  0  0  0
  -24.6674  -31.0544   22.1178 N   0  0  0  0  0  0  0  0  0  0  0  0
  -23.4259  -28.8150   23.2971 O   0  0  0  0  0  0  0  0  0  0  0  0
  -28.3948  -26.7345   20.0089 O   0  0  0  0  0  0  0  0  0  0  0  0
  -26.5870  -34.9065   22.4671 O   0  0  0  0  0  0  0  0  0  0  0  0
  -23.5365  -32.1254   23.7833 O   0  0  0  0  0  0  0  0  0  0  0  0
  -31.3406  -29.9232   17.4995 C   0  0  0  0  0  0  0  0  0  0  0  0
  -31.2664  -30.2753   18.8318 C   0  0  0  0  0  0  0  0  0  0  0  0
  -31.0071  -29.2421   19.7089 C   0  0  0  0  0  0  0  0  0  0  0  0
  -30.9285  -27.7446   18.0005 C   0  0  0  0  0  0  0  0  0  0  0  0
  -30.4862  -25.2888   18.3436 C   0  0  0  0  0  0  0  0  0  0  0  0
  -30.9031  -29.5015   21.1762 C   0  0  0  0  0  0  0  0  0  0  0  0
  -30.3676  -24.0458   17.4692 C   0  0  0  0  0  0  0  0  0  0  0  0
  -30.0783  -22.7814   18.2639 C   0  0  0  0  0  0  0  0  0  0  0  0
  -31.1762  -28.6628   17.0471 N   0  0  0  0  0  0  0  0  0  0  0  0
  -30.8319  -27.9601   19.3263 N   0  0  0  0  0  0  0  0  0  0  0  0
  -31.4455  -31.6005   19.2458 N   0  0  0  0  0  0  0  0  0  0  0  0
  -30.7505  -26.4107   17.5625 N   0  0  0  0  0  0  0  0  0  0  0  0
  -29.6520  -30.1324   21.5336 N   0  0  0  0  0  0  0  0  0  0  0  0
  -30.3573  -25.2442   19.5625 O   0  0  0  0  0  0  0  0  0  0  0  0
  -31.4485  -12.4701   19.0860 H   0  0  0  0  0  0  0  0  0  0  0  0
  -30.3970  -11.2460   19.6950 H   0  0  0  0  0  0  0  0  0  0  0  0
  -29.6870  -11.8204   17.4226 H   0  0  0  0  0  0  0  0  0  0  0  0
  -29.6375  -13.5326   17.8649 H   0  0  0  0  0  0  0  0  0  0  0  0
  -27.7830  -11.3650   18.7904 H   0  0  0  0  0  0  0  0  0  0  0  0
  -27.4028  -12.7801   17.8021 H   0  0  0  0  0  0  0  0  0  0  0  0
  -27.7353  -14.2503   19.6136 H   0  0  0  0  0  0  0  0  0  0  0  0
  -28.5890  -11.9550   21.3832 H   0  0  0  0  0  0  0  0  0  0  0  0
  -28.5005  -13.6134   21.8562 H   0  0  0  0  0  0  0  0  0  0  0  0
  -25.2399   -9.5495   22.4318 H   0  0  0  0  0  0  0  0  0  0  0  0
  -23.9663   -7.5070   22.7297 H   0  0  0  0  0  0  0  0  0  0  0  0
  -21.1515   -8.8641   19.9162 H   0  0  0  0  0  0  0  0  0  0  0  0
  -22.4016  -10.9115   19.6476 H   0  0  0  0  0  0  0  0  0  0  0  0
  -21.2319   -7.5552   23.9750 H   0  0  0  0  0  0  0  0  0  0  0  0
  -21.1589   -6.0228   25.8556 H   0  0  0  0  0  0  0  0  0  0  0  0
  -22.0396   -2.8212   23.2809 H   0  0  0  0  0  0  0  0  0  0  0  0
  -22.4401  -11.9703   22.4008 H   0  0  0  0  0  0  0  0  0  0  0  0
  -21.1493  -13.0679   22.2082 H   0  0  0  0  0  0  0  0  0  0  0  0
  -24.6538  -15.7807   20.5848 H   0  0  0  0  0  0  0  0  0  0  0  0
  -26.2762  -15.5453   20.1156 H   0  0  0  0  0  0  0  0  0  0  0  0
  -26.6778  -32.4663   23.1464 H   0  0  0  0  0  0  0  0  0  0  0  0
  -25.0747  -34.0282   25.0566 H   0  0  0  0  0  0  0  0  0  0  0  0
  -22.7881  -31.3489   21.4131 H   0  0  0  0  0  0  0  0  0  0  0  0
  -23.3854  -35.9823   23.3648 H   0  0  0  0  0  0  0  0  0  0  0  0
  -24.3696  -36.8624   22.2204 H   0  0  0  0  0  0  0  0  0  0  0  0
  -23.7669  -37.6632   23.6516 H   0  0  0  0  0  0  0  0  0  0  0  0
  -25.9445  -31.6237   20.5691 H   0  0  0  0  0  0  0  0  0  0  0  0
  -26.7436  -31.0079   22.0108 H   0  0  0  0  0  0  0  0  0  0  0  0
  -28.0090  -29.1452   21.2057 H   0  0  0  0  0  0  0  0  0  0  0  0
  -26.1369  -26.0560   19.0719 H   0  0  0  0  0  0  0  0  0  0  0  0
  -24.0652  -27.2961   19.0997 H   0  0  0  0  0  0  0  0  0  0  0  0
  -23.6156  -30.5365   19.3930 H   0  0  0  0  0  0  0  0  0  0  0  0
  -22.7355  -29.1425   19.9945 H   0  0  0  0  0  0  0  0  0  0  0  0
  -25.1353  -36.2335   25.0565 H   0  0  0  0  0  0  0  0  0  0  0  0
  -21.0070  -28.3206   24.0793 H   0  0  0  0  0  0  0  0  0  0  0  0
  -20.5555  -26.2518   23.3550 H   0  0  0  0  0  0  0  0  0  0  0  0
  -21.5974  -26.8362   22.0454 H   0  0  0  0  0  0  0  0  0  0  0  0
  -19.6810  -25.6422   21.1488 H   0  0  0  0  0  0  0  0  0  0  0  0
  -19.6406  -27.3343   20.7034 H   0  0  0  0  0  0  0  0  0  0  0  0
  -17.4282  -26.6888   21.4113 H   0  0  0  0  0  0  0  0  0  0  0  0
  -18.0803  -26.0130   22.9049 H   0  0  0  0  0  0  0  0  0  0  0  0
  -19.7265  -30.6774   24.2204 H   0  0  0  0  0  0  0  0  0  0  0  0
  -17.5064  -31.5856   24.4483 H   0  0  0  0  0  0  0  0  0  0  0  0
  -15.5878  -30.2839   23.7407 H   0  0  0  0  0  0  0  0  0  0  0  0
  -15.9120  -28.0941   22.7766 H   0  0  0  0  0  0  0  0  0  0  0  0
  -24.5787  -30.7757   25.6817 H   0  0  0  0  0  0  0  0  0  0  0  0
  -25.0041  -32.2289   26.5536 H   0  0  0  0  0  0  0  0  0  0  0  0
  -25.8166  -30.7245   26.9138 H   0  0  0  0  0  0  0  0  0  0  0  0
  -26.2892  -29.7335   24.0803 H   0  0  0  0  0  0  0  0  0  0  0  0
  -27.4336  -29.7484   25.4006 H   0  0  0  0  0  0  0  0  0  0  0  0
  -27.8466  -30.4994   23.8779 H   0  0  0  0  0  0  0  0  0  0  0  0
  -27.2251  -33.3632   26.1242 H   0  0  0  0  0  0  0  0  0  0  0  0
  -28.3902  -32.6065   25.0645 H   0  0  0  0  0  0  0  0  0  0  0  0
  -27.9772  -31.8555   26.5872 H   0  0  0  0  0  0  0  0  0  0  0  0
  -28.2744  -38.0016   24.6863 H   0  0  0  0  0  0  0  0  0  0  0  0
  -28.0396  -36.2711   24.7461 H   0  0  0  0  0  0  0  0  0  0  0  0
  -27.1773  -37.3087   25.8564 H   0  0  0  0  0  0  0  0  0  0  0  0
  -20.9627  -29.9365   21.7352 H   0  0  0  0  0  0  0  0  0  0  0  0
  -26.0447  -38.2561   24.0273 H   0  0  0  0  0  0  0  0  0  0  0  0
  -31.5328  -30.6665   16.8098 H   0  0  0  0  0  0  0  0  0  0  0  0
  -31.7081  -30.1420   21.4705 H   0  0  0  0  0  0  0  0  0  0  0  0
  -30.9504  -28.5587   21.6799 H   0  0  0  0  0  0  0  0  0  0  0  0
  -31.2883  -23.9124   16.9406 H   0  0  0  0  0  0  0  0  0  0  0  0
  -29.5428  -24.2007   16.8054 H   0  0  0  0  0  0  0  0  0  0  0  0
  -30.8799  -22.2842   18.7691 H   0  0  0  0  0  0  0  0  0  0  0  0
  -29.6338  -21.8411   18.0125 H   0  0  0  0  0  0  0  0  0  0  0  0
  -31.6287  -32.3034   18.5812 H   0  0  0  0  0  0  0  0  0  0  0  0
  -31.3883  -31.8296   20.2016 H   0  0  0  0  0  0  0  0  0  0  0  0
  -30.8219  -26.2583   16.5925 H   0  0  0  0  0  0  0  0  0  0  0  0
  -29.1218  -30.9441   21.7048 H   0  0  0  0  0  0  0  0  0  0  0  0
  1 25  1  0  0  0  0
  1 30  2  0  0  0  0
  1 83  1  0  0  0  0
  2  3  1  0  0  0  0
  2 25  1  0  0  0  0
  2 85  1  0  0  0  0
  2 86  1  0  0  0  0
  3  4  1  0  0  0  0
  3 87  1  0  0  0  0
  3 88  1  0  0  0  0
  4  5  1  0  0  0  0
  4 89  1  0  0  0  0
  4 90  1  0  0  0  0
  5  6  1  0  0  0  0
  5 26  1  0  0  0  0
  5 91  1  6  0  0  0
  6 25  1  0  0  0  0
  6 92  1  0  0  0  0
  6 93  1  0  0  0  0
  7  8  2  0  0  0  0
  7 26  1  0  0  0  0
  7 29  1  0  0  0  0
  8  9  1  0  0  0  0
  8 22  1  0  0  0  0
  9 10  1  0  0  0  0
  9 27  2  0  0  0  0
 10 11  2  0  0  0  0
 10 15  1  0  0  0  0
 11 12  1  0  0  0  0
 11 94  1  0  0  0  0
 12 13  2  0  0  0  0
 12 95  1  0  0  0  0
 13 14  1  0  0  0  0
 13 31  1  0  0  0  0
 14 15  2  0  0  0  0
 14 96  1  0  0  0  0
 15 97  1  0  0  0  0
 16 17  2  0  0  0  0
 16 21  1  0  0  0  0
 16 31  1  0  0  0  0
 17 18  1  0  0  0  0
 17 98  1  0  0  0  0
 18 19  2  0  0  0  0
 18 99  1  0  0  0  0
 19 20  1  0  0  0  0
 19 24  1  0  0  0  0
 20 21  2  0  0  0  0
 20100  1  0  0  0  0
 21 23  1  0  0  0  0
 22 28  1  0  0  0  0
 22 32  2  0  0  0  0
 26 27  1  0  0  0  0
 28101  1  0  0  0  0
 28102  1  0  0  0  0
 29103  1  0  0  0  0
 29104  1  0  0  0  0
 33 34  1  0  0  0  0
 33 66  1  0  0  0  0
 33 70  2  0  0  0  0
 34 36  1  0  0  0  0
 34 59  1  0  0  0  0
 34105  1  6  0  0  0
 35 44  2  0  0  0  0
 35 45  1  0  0  0  0
 35 68  1  0  0  0  0
 36 56  1  0  0  0  0
 36106  1  0  0  0  0
 37 39  1  0  0  0  0
 37 47  1  0  0  0  0
 37 66  1  0  0  0  0
 37107  1  6  0  0  0
 38 43  2  0  0  0  0
 38 46  1  0  0  0  0
 38 47  1  0  0  0  0
 39 64  1  0  0  0  0
 39 67  2  0  0  0  0
 40 52  1  0  0  0  0
 40 53  2  0  0  0  0
 40 58  1  0  0  0  0
 41108  1  0  0  0  0
 41109  1  0  0  0  0
 41110  1  0  0  0  0
 42 43  1  0  0  0  0
 42 66  1  0  0  0  0
 42111  1  0  0  0  0
 42112  1  0  0  0  0
 43 44  1  0  0  0  0
 44113  1  0  0  0  0
 45 46  2  0  0  0  0
 45114  1  0  0  0  0
 46115  1  0  0  0  0
 47116  1  0  0  0  0
 47117  1  0  0  0  0
 48 41  1  0  0  0  0
 48 56  1  0  0  0  0
 48 65  1  0  0  0  0
 48118  1  1  0  0  0
 49 50  1  0  0  0  0
 49 53  1  0  0  0  0
 49 64  1  0  0  0  0
 49119  1  1  0  0  0
 50 51  1  0  0  0  0
 50120  1  0  0  0  0
 50121  1  0  0  0  0
 51 52  1  0  0  0  0
 51122  1  0  0  0  0
 51123  1  0  0  0  0
 52124  1  0  0  0  0
 52125  1  0  0  0  0
 53 54  1  0  0  0  0
 54 55  2  0  0  0  0
 54126  1  0  0  0  0
 55 57  1  0  0  0  0
 55127  1  0  0  0  0
 56 69  2  0  0  0  0
 57 58  2  0  0  0  0
 57128  1  0  0  0  0
 58129  1  0  0  0  0
 59 60  1  0  0  0  0
 59 61  1  0  0  0  0
 59 62  1  0  0  0  0
 60130  1  0  0  0  0
 60131  1  0  0  0  0
 60132  1  0  0  0  0
 61133  1  0  0  0  0
 61134  1  0  0  0  0
 61135  1  0  0  0  0
 62136  1  0  0  0  0
 62137  1  0  0  0  0
 62138  1  0  0  0  0
 63 65  1  0  0  0  0
 63139  1  0  0  0  0
 63140  1  0  0  0  0
 63141  1  0  0  0  0
 64142  1  0  0  0  0
 65143  1  0  0  0  0
 68 78  1  0  0  0  0
 71 72  2  0  0  0  0
 71 79  1  0  0  0  0
 71144  1  0  0  0  0
 72 73  1  0  0  0  0
 72 81  1  0  0  0  0
 73 76  1  0  0  0  0
 73 80  2  0  0  0  0
 74 79  2  0  0  0  0
 74 80  1  0  0  0  0
 74 82  1  0  0  0  0
 75 77  1  0  0  0  0
 75 82  1  0  0  0  0
 75 84  2  0  0  0  0
 76 83  1  0  0  0  0
 76145  1  0  0  0  0
 76146  1  0  0  0  0
 77 78  1  0  0  0  0
 77147  1  0  0  0  0
 77148  1  0  0  0  0
 78149  1  0  0  0  0
 78150  1  0  0  0  0
 81151  1  0  0  0  0
 81152  1  0  0  0  0
 82153  1  0  0  0  0
 83154  1  0  0  0  0
M  ISO  4   1 100  68 101  78 101  83 100
M  END
$$$$
33
 OpenBabel04052305473D

166174  0  0  0  0  0  0  0  0999 V2000
  -30.7652  -14.3608   20.6636 C   0  0  0  0  0  0  0  0  0  0  0  0
  -30.4392  -12.2669   19.3775 C   0  0  0  0  0  0  0  0  0  0  0  0
  -29.4791  -12.5281   18.1977 C   0  0  0  0  0  0  0  0  0  0  0  0
  -27.9985  -12.3963   18.6038 C   0  0  0  0  0  0  0  0  0  0  0  0
  -27.6639  -13.2170   19.8820 C   0  0  2  0  0  0  0  0  0  0  0  0
  -28.6795  -12.9602   21.0279 C   0  0  0  0  0  0  0  0  0  0  0  0
  -25.2633  -13.8245   20.5754 C   0  0  0  0  0  0  0  0  0  0  0  0
  -24.1645  -13.0409   20.9408 C   0  0  0  0  0  0  0  0  0  0  0  0
  -24.6400  -11.7009   20.8697 C   0  0  0  0  0  0  0  0  0  0  0  0
  -23.9005  -10.4085   21.0420 C   0  0  0  0  0  0  0  0  0  0  0  0
  -24.3588   -9.4123   21.9123 C   0  0  0  0  0  0  0  0  0  0  0  0
  -23.6296   -8.2350   22.0803 C   0  0  0  0  0  0  0  0  0  0  0  0
  -22.4385   -8.0419   21.3657 C   0  0  0  0  0  0  0  0  0  0  0  0
  -22.0103   -9.0167   20.4678 C   0  0  0  0  0  0  0  0  0  0  0  0
  -22.7317  -10.1925   20.3102 C   0  0  0  0  0  0  0  0  0  0  0  0
  -21.6857   -6.0709   22.5391 C   0  0  0  0  0  0  0  0  0  0  0  0
  -21.4064   -6.5490   23.8264 C   0  0  0  0  0  0  0  0  0  0  0  0
  -21.3635   -5.6677   24.9085 C   0  0  0  0  0  0  0  0  0  0  0  0
  -21.5973   -4.3067   24.7088 C   0  0  0  0  0  0  0  0  0  0  0  0
  -21.8700   -3.8284   23.4282 C   0  0  0  0  0  0  0  0  0  0  0  0
  -21.9144   -4.7056   22.3460 C   0  0  0  0  0  0  0  0  0  0  0  0
  -22.8194  -13.5263   21.1763 C   0  0  0  0  0  0  0  0  0  0  0  0
  -22.1559   -4.2206   21.1063 F   0  0  0  0  0  0  0  0  0  0  0  0
  -21.5628   -3.4510   25.7555 F   0  0  0  0  0  0  0  0  0  0  0  0
  -30.0261  -13.1803   20.4553 N   0  0  0  0  0  0  0  0  0  0  0  0
  -26.2911  -12.9356   20.3443 N   0  0  0  0  0  0  0  0  0  0  0  0
  -25.9236  -11.6675   20.5847 N   0  0  0  0  0  0  0  0  0  0  0  0
  -22.0708  -12.7905   22.0005 N   0  0  0  0  0  0  0  0  0  0  0  0
  -25.4117  -15.1773   20.4097 N   0  0  0  0  0  0  0  0  0  0  0  0
  -31.7916  -14.6724   20.0536 O   0  0  0  0  0  0  0  0  0  0  0  0
  -21.6670   -6.9022   21.4423 O   0  0  0  0  0  0  0  0  0  0  0  0
  -22.3946  -14.5564   20.6568 O   0  0  0  0  0  0  0  0  0  0  0  0
  -24.6048  -31.8614   23.2223 C   0  0  0  0  0  0  0  0  0  0  0  0
  -25.8822  -32.4841   23.8616 C   0  0  1  0  0  0  0  0  0  0  0  0
  -27.2536  -27.5042   20.1156 C   0  0  0  0  0  0  0  0  0  0  0  0
  -25.5726  -33.8762   24.2210 N   0  0  0  0  0  0  0  0  0  0  0  0
  -23.4066  -30.4859   21.5461 C   0  0  2  0  0  0  0  0  0  0  0  0
  -24.8467  -28.9636   20.1247 C   0  0  0  0  0  0  0  0  0  0  0  0
  -22.7412  -29.4652   22.5052 C   0  0  0  0  0  0  0  0  0  0  0  0
  -18.0167  -28.1302   22.8626 C   0  0  0  0  0  0  0  0  0  0  0  0
  -24.1342  -36.7390   23.2568 C   0  0  0  0  0  0  0  0  0  0  0  0
  -25.9141  -30.8882   21.3456 C   0  0  0  0  0  0  0  0  0  0  0  0
  -25.9930  -29.5029   20.7208 C   0  0  0  0  0  0  0  0  0  0  0  0
  -27.1758  -28.7612   20.7331 C   0  0  0  0  0  0  0  0  0  0  0  0
  -26.1032  -26.9836   19.5230 C   0  0  0  0  0  0  0  0  0  0  0  0
  -24.9097  -27.7011   19.5331 C   0  0  0  0  0  0  0  0  0  0  0  0
  -23.5715  -29.7899   20.1582 C   0  0  0  0  0  0  0  0  0  0  0  0
  -25.3990  -36.3212   24.0232 C   0  0  1  0  0  0  0  0  0  0  0  0
  -20.5793  -28.3813   23.1004 C   0  0  2  0  0  0  0  0  0  0  0  0
  -20.6548  -26.9392   22.5411 C   0  0  0  0  0  0  0  0  0  0  0  0
  -19.5615  -26.6407   21.5143 C   0  0  0  0  0  0  0  0  0  0  0  0
  -18.1797  -26.7818   22.1673 C   0  0  0  0  0  0  0  0  0  0  0  0
  -19.1385  -28.8769   23.2988 C   0  0  0  0  0  0  0  0  0  0  0  0
  -18.9183  -30.1286   23.8878 C   0  0  0  0  0  0  0  0  0  0  0  0
  -17.6396  -30.6493   24.0352 C   0  0  0  0  0  0  0  0  0  0  0  0
  -25.9153  -34.9582   23.4993 C   0  0  0  0  0  0  0  0  0  0  0  0
  -16.5415  -29.9068   23.6254 C   0  0  0  0  0  0  0  0  0  0  0  0
  -16.7331  -28.6521   23.0586 C   0  0  0  0  0  0  0  0  0  0  0  0
  -26.4583  -31.6439   25.0683 C   0  0  0  0  0  0  0  0  0  0  0  0
  -25.3807  -31.3179   26.1374 C   0  0  0  0  0  0  0  0  0  0  0  0
  -27.0530  -30.3024   24.5680 C   0  0  0  0  0  0  0  0  0  0  0  0
  -27.6014  -32.4281   25.7651 C   0  0  0  0  0  0  0  0  0  0  0  0
  -27.5629  -37.2220   24.8621 C   0  0  0  0  0  0  0  0  0  0  0  0
  -21.4133  -29.3375   22.3735 N   0  0  0  0  0  0  0  0  0  0  0  0
  -26.4706  -37.3372   23.9061 N   0  0  0  0  0  0  0  0  0  0  0  0
  -24.6674  -31.0544   22.1178 N   0  0  0  0  0  0  0  0  0  0  0  0
  -23.4259  -28.8150   23.2971 O   0  0  0  0  0  0  0  0  0  0  0  0
  -28.3948  -26.7345   20.0089 O   0  0  0  0  0  0  0  0  0  0  0  0
  -26.5870  -34.9065   22.4671 O   0  0  0  0  0  0  0  0  0  0  0  0
  -23.5365  -32.1254   23.7833 O   0  0  0  0  0  0  0  0  0  0  0  0
  -31.6499  -31.6982   27.9468 C   0  0  0  0  0  0  0  0  0  0  0  0
  -30.6996  -31.3478   28.9480 C   0  0  0  0  0  0  0  0  0  0  0  0
  -32.2657  -30.5651   27.4613 C   0  0  0  0  0  0  0  0  0  0  0  0
  -29.8479  -32.3019   29.6930 C   0  0  0  0  0  0  0  0  0  0  0  0
  -31.2542  -36.2699   28.8700 C   0  0  0  0  0  0  0  0  0  0  0  0
  -32.8892  -37.2397   27.2438 C   0  0  0  0  0  0  0  0  0  0  0  0
  -29.3000  -32.1176   25.9935 C   0  0  0  0  0  0  0  0  0  0  0  0
  -30.3494  -33.1896   25.6658 C   0  0  0  0  0  0  0  0  0  0  0  0
  -31.5727  -35.2079   26.5681 C   0  0  0  0  0  0  0  0  0  0  0  0
  -28.6916  -31.5064   24.7364 C   0  0  0  0  0  0  0  0  0  0  0  0
  -32.2409  -35.9469   27.7473 C   0  0  0  0  0  0  0  0  0  0  0  0
  -30.9266  -33.8572   26.9262 C   0  0  2  0  0  0  0  0  0  0  0  0
  -30.5668  -30.0553   29.2361 N   0  0  0  0  0  0  0  0  0  0  0  0
  -31.9200  -32.9857   27.5201 N   0  0  0  0  0  0  0  0  0  0  0  0
  -33.2641  -30.3485   26.4795 N   0  0  0  0  0  0  0  0  0  0  0  0
  -31.6208  -29.2027   28.2747 S   0  0  0  0  0  0  0  0  0  0  0  0
  -31.4485  -12.4701   19.0860 H   0  0  0  0  0  0  0  0  0  0  0  0
  -30.3970  -11.2460   19.6950 H   0  0  0  0  0  0  0  0  0  0  0  0
  -29.6870  -11.8204   17.4226 H   0  0  0  0  0  0  0  0  0  0  0  0
  -29.6375  -13.5326   17.8649 H   0  0  0  0  0  0  0  0  0  0  0  0
  -27.7830  -11.3650   18.7904 H   0  0  0  0  0  0  0  0  0  0  0  0
  -27.4028  -12.7801   17.8021 H   0  0  0  0  0  0  0  0  0  0  0  0
  -27.7353  -14.2503   19.6136 H   0  0  0  0  0  0  0  0  0  0  0  0
  -28.5890  -11.9550   21.3832 H   0  0  0  0  0  0  0  0  0  0  0  0
  -28.5005  -13.6134   21.8562 H   0  0  0  0  0  0  0  0  0  0  0  0
  -25.2399   -9.5495   22.4318 H   0  0  0  0  0  0  0  0  0  0  0  0
  -23.9663   -7.5070   22.7297 H   0  0  0  0  0  0  0  0  0  0  0  0
  -21.1515   -8.8641   19.9162 H   0  0  0  0  0  0  0  0  0  0  0  0
  -22.4016  -10.9115   19.6476 H   0  0  0  0  0  0  0  0  0  0  0  0
  -21.2319   -7.5552   23.9750 H   0  0  0  0  0  0  0  0  0  0  0  0
  -21.1589   -6.0228   25.8556 H   0  0  0  0  0  0  0  0  0  0  0  0
  -22.0396   -2.8212   23.2809 H   0  0  0  0  0  0  0  0  0  0  0  0
  -22.4401  -11.9703   22.4008 H   0  0  0  0  0  0  0  0  0  0  0  0
  -21.1493  -13.0679   22.2082 H   0  0  0  0  0  0  0  0  0  0  0  0
  -24.6538  -15.7807   20.5848 H   0  0  0  0  0  0  0  0  0  0  0  0
  -26.2762  -15.5453   20.1156 H   0  0  0  0  0  0  0  0  0  0  0  0
  -26.6778  -32.4663   23.1464 H   0  0  0  0  0  0  0  0  0  0  0  0
  -25.0747  -34.0282   25.0566 H   0  0  0  0  0  0  0  0  0  0  0  0
  -22.7881  -31.3489   21.4131 H   0  0  0  0  0  0  0  0  0  0  0  0
  -23.3854  -35.9823   23.3648 H   0  0  0  0  0  0  0  0  0  0  0  0
  -24.3696  -36.8624   22.2204 H   0  0  0  0  0  0  0  0  0  0  0  0
  -23.7669  -37.6632   23.6516 H   0  0  0  0  0  0  0  0  0  0  0  0
  -25.9445  -31.6237   20.5691 H   0  0  0  0  0  0  0  0  0  0  0  0
  -26.7436  -31.0079   22.0108 H   0  0  0  0  0  0  0  0  0  0  0  0
  -28.0090  -29.1452   21.2057 H   0  0  0  0  0  0  0  0  0  0  0  0
  -26.1369  -26.0560   19.0719 H   0  0  0  0  0  0  0  0  0  0  0  0
  -24.0652  -27.2961   19.0997 H   0  0  0  0  0  0  0  0  0  0  0  0
  -23.6156  -30.5365   19.3930 H   0  0  0  0  0  0  0  0  0  0  0  0
  -22.7355  -29.1425   19.9945 H   0  0  0  0  0  0  0  0  0  0  0  0
  -25.1353  -36.2335   25.0565 H   0  0  0  0  0  0  0  0  0  0  0  0
  -21.0070  -28.3206   24.0793 H   0  0  0  0  0  0  0  0  0  0  0  0
  -20.5555  -26.2518   23.3550 H   0  0  0  0  0  0  0  0  0  0  0  0
  -21.5974  -26.8362   22.0454 H   0  0  0  0  0  0  0  0  0  0  0  0
  -19.6810  -25.6422   21.1488 H   0  0  0  0  0  0  0  0  0  0  0  0
  -19.6406  -27.3343   20.7034 H   0  0  0  0  0  0  0  0  0  0  0  0
  -17.4282  -26.6888   21.4113 H   0  0  0  0  0  0  0  0  0  0  0  0
  -18.0803  -26.0130   22.9049 H   0  0  0  0  0  0  0  0  0  0  0  0
  -19.7265  -30.6774   24.2204 H   0  0  0  0  0  0  0  0  0  0  0  0
  -17.5064  -31.5856   24.4483 H   0  0  0  0  0  0  0  0  0  0  0  0
  -15.5878  -30.2839   23.7407 H   0  0  0  0  0  0  0  0  0  0  0  0
  -15.9120  -28.0941   22.7766 H   0  0  0  0  0  0  0  0  0  0  0  0
  -24.5787  -30.7757   25.6817 H   0  0  0  0  0  0  0  0  0  0  0  0
  -25.0041  -32.2289   26.5536 H   0  0  0  0  0  0  0  0  0  0  0  0
  -25.8166  -30.7245   26.9138 H   0  0  0  0  0  0  0  0  0  0  0  0
  -26.2892  -29.7335   24.0803 H   0  0  0  0  0  0  0  0  0  0  0  0
  -27.4336  -29.7484   25.4006 H   0  0  0  0  0  0  0  0  0  0  0  0
  -27.8466  -30.4994   23.8779 H   0  0  0  0  0  0  0  0  0  0  0  0
  -27.2251  -33.3632   26.1242 H   0  0  0  0  0  0  0  0  0  0  0  0
  -28.3902  -32.6065   25.0645 H   0  0  0  0  0  0  0  0  0  0  0  0
  -27.9772  -31.8555   26.5872 H   0  0  0  0  0  0  0  0  0  0  0  0
  -28.2744  -38.0016   24.6863 H   0  0  0  0  0  0  0  0  0  0  0  0
  -28.0396  -36.2711   24.7461 H   0  0  0  0  0  0  0  0  0  0  0  0
  -27.1773  -37.3087   25.8564 H   0  0  0  0  0  0  0  0  0  0  0  0
  -20.9627  -29.9365   21.7352 H   0  0  0  0  0  0  0  0  0  0  0  0
  -26.0447  -38.2561   24.0273 H   0  0  0  0  0  0  0  0  0  0  0  0
  -30.0565  -33.2984   29.3638 H   0  0  0  0  0  0  0  0  0  0  0  0
  -30.0539  -32.2216   30.7399 H   0  0  0  0  0  0  0  0  0  0  0  0
  -28.8176  -32.0754   29.5139 H   0  0  0  0  0  0  0  0  0  0  0  0
  -31.7663  -36.7797   29.6592 H   0  0  0  0  0  0  0  0  0  0  0  0
  -30.8327  -35.3614   29.2467 H   0  0  0  0  0  0  0  0  0  0  0  0
  -30.4732  -36.8946   28.4897 H   0  0  0  0  0  0  0  0  0  0  0  0
  -33.3514  -37.7495   28.0632 H   0  0  0  0  0  0  0  0  0  0  0  0
  -32.1404  -37.8684   26.8092 H   0  0  0  0  0  0  0  0  0  0  0  0
  -33.6288  -37.0044   26.5072 H   0  0  0  0  0  0  0  0  0  0  0  0
  -28.5190  -32.5650   26.5722 H   0  0  0  0  0  0  0  0  0  0  0  0
  -29.7872  -31.3354   26.5372 H   0  0  0  0  0  0  0  0  0  0  0  0
  -29.8922  -33.9423   25.0581 H   0  0  0  0  0  0  0  0  0  0  0  0
  -31.1570  -32.7074   25.1557 H   0  0  0  0  0  0  0  0  0  0  0  0
  -32.3190  -35.0310   25.8220 H   0  0  0  0  0  0  0  0  0  0  0  0
  -30.7767  -35.8396   26.2330 H   0  0  0  0  0  0  0  0  0  0  0  0
  -28.8026  -32.3516   24.0897 H   0  0  0  0  0  0  0  0  0  0  0  0
  -28.0943  -30.8798   25.3652 H   0  0  0  0  0  0  0  0  0  0  0  0
  -32.9836  -35.2927   28.1539 H   0  0  0  0  0  0  0  0  0  0  0  0
  -30.1333  -34.0289   27.6235 H   0  0  0  0  0  0  0  0  0  0  0  0
  -32.8368  -33.3285   27.6256 H   0  0  0  0  0  0  0  0  0  0  0  0
  -33.9586  -30.9833   26.1897 H   0  0  0  0  0  0  0  0  0  0  0  0
  1 25  1  0  0  0  0
  1 30  2  0  0  0  0
  1 85  1  0  0  0  0
  2  3  1  0  0  0  0
  2 25  1  0  0  0  0
  2 87  1  0  0  0  0
  2 88  1  0  0  0  0
  3  4  1  0  0  0  0
  3 89  1  0  0  0  0
  3 90  1  0  0  0  0
  4  5  1  0  0  0  0
  4 91  1  0  0  0  0
  4 92  1  0  0  0  0
  5  6  1  0  0  0  0
  5 26  1  0  0  0  0
  5 93  1  6  0  0  0
  6 25  1  0  0  0  0
  6 94  1  0  0  0  0
  6 95  1  0  0  0  0
  7  8  2  0  0  0  0
  7 26  1  0  0  0  0
  7 29  1  0  0  0  0
  8  9  1  0  0  0  0
  8 22  1  0  0  0  0
  9 10  1  0  0  0  0
  9 27  2  0  0  0  0
 10 11  2  0  0  0  0
 10 15  1  0  0  0  0
 11 12  1  0  0  0  0
 11 96  1  0  0  0  0
 12 13  2  0  0  0  0
 12 97  1  0  0  0  0
 13 14  1  0  0  0  0
 13 31  1  0  0  0  0
 14 15  2  0  0  0  0
 14 98  1  0  0  0  0
 15 99  1  0  0  0  0
 16 17  2  0  0  0  0
 16 21  1  0  0  0  0
 16 31  1  0  0  0  0
 17 18  1  0  0  0  0
 17100  1  0  0  0  0
 18 19  2  0  0  0  0
 18101  1  0  0  0  0
 19 20  1  0  0  0  0
 19 24  1  0  0  0  0
 20 21  2  0  0  0  0
 20102  1  0  0  0  0
 21 23  1  0  0  0  0
 22 28  1  0  0  0  0
 22 32  2  0  0  0  0
 26 27  1  0  0  0  0
 28103  1  0  0  0  0
 28104  1  0  0  0  0
 29105  1  0  0  0  0
 29106  1  0  0  0  0
 33 34  1  0  0  0  0
 33 66  1  0  0  0  0
 33 70  2  0  0  0  0
 34 36  1  0  0  0  0
 34 59  1  0  0  0  0
 34107  1  6  0  0  0
 35 44  2  0  0  0  0
 35 45  1  0  0  0  0
 35 68  1  0  0  0  0
 36 56  1  0  0  0  0
 36108  1  0  0  0  0
 37 39  1  0  0  0  0
 37 47  1  0  0  0  0
 37 66  1  0  0  0  0
 37109  1  6  0  0  0
 38 43  2  0  0  0  0
 38 46  1  0  0  0  0
 38 47  1  0  0  0  0
 39 64  1  0  0  0  0
 39 67  2  0  0  0  0
 40 52  1  0  0  0  0
 40 53  2  0  0  0  0
 40 58  1  0  0  0  0
 41110  1  0  0  0  0
 41111  1  0  0  0  0
 41112  1  0  0  0  0
 42 43  1  0  0  0  0
 42 66  1  0  0  0  0
 42113  1  0  0  0  0
 42114  1  0  0  0  0
 43 44  1  0  0  0  0
 44115  1  0  0  0  0
 45 46  2  0  0  0  0
 45116  1  0  0  0  0
 46117  1  0  0  0  0
 47118  1  0  0  0  0
 47119  1  0  0  0  0
 48 41  1  0  0  0  0
 48 56  1  0  0  0  0
 48 65  1  0  0  0  0
 48120  1  1  0  0  0
 49 50  1  0  0  0  0
 49 53  1  0  0  0  0
 49 64  1  0  0  0  0
 49121  1  1  0  0  0
 50 51  1  0  0  0  0
 50122  1  0  0  0  0
 50123  1  0  0  0  0
 51 52  1  0  0  0  0
 51124  1  0  0  0  0
 51125  1  0  0  0  0
 52126  1  0  0  0  0
 52127  1  0  0  0  0
 53 54  1  0  0  0  0
 54 55  2  0  0  0  0
 54128  1  0  0  0  0
 55 57  1  0  0  0  0
 55129  1  0  0  0  0
 56 69  2  0  0  0  0
 57 58  2  0  0  0  0
 57130  1  0  0  0  0
 58131  1  0  0  0  0
 59 60  1  0  0  0  0
 59 61  1  0  0  0  0
 59 62  1  0  0  0  0
 60132  1  0  0  0  0
 60133  1  0  0  0  0
 60134  1  0  0  0  0
 61135  1  0  0  0  0
 61136  1  0  0  0  0
 61137  1  0  0  0  0
 62138  1  0  0  0  0
 62139  1  0  0  0  0
 62140  1  0  0  0  0
 63 65  1  0  0  0  0
 63141  1  0  0  0  0
 63142  1  0  0  0  0
 63143  1  0  0  0  0
 64144  1  0  0  0  0
 65145  1  0  0  0  0
 68 80  1  0  0  0  0
 71 72  1  0  0  0  0
 71 73  2  0  0  0  0
 71 84  1  0  0  0  0
 72 74  1  0  0  0  0
 72 83  2  0  0  0  0
 73 85  1  0  0  0  0
 73 86  1  0  0  0  0
 74146  1  0  0  0  0
 74147  1  0  0  0  0
 74148  1  0  0  0  0
 75149  1  0  0  0  0
 75150  1  0  0  0  0
 75151  1  0  0  0  0
 76 81  1  0  0  0  0
 76152  1  0  0  0  0
 76153  1  0  0  0  0
 76154  1  0  0  0  0
 77 78  1  0  0  0  0
 77 80  1  0  0  0  0
 77155  1  0  0  0  0
 77156  1  0  0  0  0
 78157  1  0  0  0  0
 78158  1  0  0  0  0
 79 81  1  0  0  0  0
 79 82  1  0  0  0  0
 79159  1  0  0  0  0
 79160  1  0  0  0  0
 80161  1  0  0  0  0
 80162  1  0  0  0  0
 81 75  1  0  0  0  0
 81163  1  0  0  0  0
 82 78  1  0  0  0  0
 82 84  1  0  0  0  0
 82164  1  1  0  0  0
 83 86  1  0  0  0  0
 84165  1  0  0  0  0
 85166  1  0  0  0  0
M  ISO  4   1 100  68 101  80 101  85 100
M  END
$$$$
34
 OpenBabel04052305473D

152160  0  0  0  0  0  0  0  0999 V2000
  -30.7652  -14.3608   20.6636 C   0  0  0  0  0  0  0  0  0  0  0  0
  -30.4392  -12.2669   19.3775 C   0  0  0  0  0  0  0  0  0  0  0  0
  -29.4791  -12.5281   18.1977 C   0  0  0  0  0  0  0  0  0  0  0  0
  -27.9985  -12.3963   18.6038 C   0  0  0  0  0  0  0  0  0  0  0  0
  -27.6639  -13.2170   19.8820 C   0  0  2  0  0  0  0  0  0  0  0  0
  -28.6795  -12.9602   21.0279 C   0  0  0  0  0  0  0  0  0  0  0  0
  -25.2633  -13.8245   20.5754 C   0  0  0  0  0  0  0  0  0  0  0  0
  -24.1645  -13.0409   20.9408 C   0  0  0  0  0  0  0  0  0  0  0  0
  -24.6400  -11.7009   20.8697 C   0  0  0  0  0  0  0  0  0  0  0  0
  -23.9005  -10.4085   21.0420 C   0  0  0  0  0  0  0  0  0  0  0  0
  -24.3588   -9.4123   21.9123 C   0  0  0  0  0  0  0  0  0  0  0  0
  -23.6296   -8.2350   22.0803 C   0  0  0  0  0  0  0  0  0  0  0  0
  -22.4385   -8.0419   21.3657 C   0  0  0  0  0  0  0  0  0  0  0  0
  -22.0103   -9.0167   20.4678 C   0  0  0  0  0  0  0  0  0  0  0  0
  -22.7317  -10.1925   20.3102 C   0  0  0  0  0  0  0  0  0  0  0  0
  -21.6857   -6.0709   22.5391 C   0  0  0  0  0  0  0  0  0  0  0  0
  -21.4064   -6.5490   23.8264 C   0  0  0  0  0  0  0  0  0  0  0  0
  -21.3635   -5.6677   24.9085 C   0  0  0  0  0  0  0  0  0  0  0  0
  -21.5973   -4.3067   24.7088 C   0  0  0  0  0  0  0  0  0  0  0  0
  -21.8700   -3.8284   23.4282 C   0  0  0  0  0  0  0  0  0  0  0  0
  -21.9144   -4.7056   22.3460 C   0  0  0  0  0  0  0  0  0  0  0  0
  -22.8194  -13.5263   21.1763 C   0  0  0  0  0  0  0  0  0  0  0  0
  -22.1559   -4.2206   21.1063 F   0  0  0  0  0  0  0  0  0  0  0  0
  -21.5628   -3.4510   25.7555 F   0  0  0  0  0  0  0  0  0  0  0  0
  -30.0261  -13.1803   20.4553 N   0  0  0  0  0  0  0  0  0  0  0  0
  -26.2911  -12.9356   20.3443 N   0  0  0  0  0  0  0  0  0  0  0  0
  -25.9236  -11.6675   20.5847 N   0  0  0  0  0  0  0  0  0  0  0  0
  -22.0708  -12.7905   22.0005 N   0  0  0  0  0  0  0  0  0  0  0  0
  -25.4117  -15.1773   20.4097 N   0  0  0  0  0  0  0  0  0  0  0  0
  -31.7916  -14.6724   20.0536 O   0  0  0  0  0  0  0  0  0  0  0  0
  -21.6670   -6.9022   21.4423 O   0  0  0  0  0  0  0  0  0  0  0  0
  -22.3946  -14.5564   20.6568 O   0  0  0  0  0  0  0  0  0  0  0  0
  -24.6048  -31.8614   23.2223 C   0  0  0  0  0  0  0  0  0  0  0  0
  -25.8822  -32.4841   23.8616 C   0  0  1  0  0  0  0  0  0  0  0  0
  -27.2536  -27.5042   20.1156 C   0  0  0  0  0  0  0  0  0  0  0  0
  -25.5726  -33.8762   24.2210 N   0  0  0  0  0  0  0  0  0  0  0  0
  -23.4066  -30.4859   21.5461 C   0  0  2  0  0  0  0  0  0  0  0  0
  -24.8467  -28.9636   20.1247 C   0  0  0  0  0  0  0  0  0  0  0  0
  -22.7412  -29.4652   22.5052 C   0  0  0  0  0  0  0  0  0  0  0  0
  -18.0167  -28.1302   22.8626 C   0  0  0  0  0  0  0  0  0  0  0  0
  -24.1342  -36.7390   23.2568 C   0  0  0  0  0  0  0  0  0  0  0  0
  -25.9141  -30.8882   21.3456 C   0  0  0  0  0  0  0  0  0  0  0  0
  -25.9930  -29.5029   20.7208 C   0  0  0  0  0  0  0  0  0  0  0  0
  -27.1758  -28.7612   20.7331 C   0  0  0  0  0  0  0  0  0  0  0  0
  -26.1032  -26.9836   19.5230 C   0  0  0  0  0  0  0  0  0  0  0  0
  -24.9097  -27.7011   19.5331 C   0  0  0  0  0  0  0  0  0  0  0  0
  -23.5715  -29.7899   20.1582 C   0  0  0  0  0  0  0  0  0  0  0  0
  -25.3990  -36.3212   24.0232 C   0  0  1  0  0  0  0  0  0  0  0  0
  -20.5793  -28.3813   23.1004 C   0  0  2  0  0  0  0  0  0  0  0  0
  -20.6548  -26.9392   22.5411 C   0  0  0  0  0  0  0  0  0  0  0  0
  -19.5615  -26.6407   21.5143 C   0  0  0  0  0  0  0  0  0  0  0  0
  -18.1797  -26.7818   22.1673 C   0  0  0  0  0  0  0  0  0  0  0  0
  -19.1385  -28.8769   23.2988 C   0  0  0  0  0  0  0  0  0  0  0  0
  -18.9183  -30.1286   23.8878 C   0  0  0  0  0  0  0  0  0  0  0  0
  -17.6396  -30.6493   24.0352 C   0  0  0  0  0  0  0  0  0  0  0  0
  -25.9153  -34.9582   23.4993 C   0  0  0  0  0  0  0  0  0  0  0  0
  -16.5415  -29.9068   23.6254 C   0  0  0  0  0  0  0  0  0  0  0  0
  -16.7331  -28.6521   23.0586 C   0  0  0  0  0  0  0  0  0  0  0  0
  -26.4583  -31.6439   25.0683 C   0  0  0  0  0  0  0  0  0  0  0  0
  -25.3807  -31.3179   26.1374 C   0  0  0  0  0  0  0  0  0  0  0  0
  -27.0530  -30.3024   24.5680 C   0  0  0  0  0  0  0  0  0  0  0  0
  -27.6014  -32.4281   25.7651 C   0  0  0  0  0  0  0  0  0  0  0  0
  -27.5629  -37.2220   24.8621 C   0  0  0  0  0  0  0  0  0  0  0  0
  -21.4133  -29.3375   22.3735 N   0  0  0  0  0  0  0  0  0  0  0  0
  -26.4706  -37.3372   23.9061 N   0  0  0  0  0  0  0  0  0  0  0  0
  -24.6674  -31.0544   22.1178 N   0  0  0  0  0  0  0  0  0  0  0  0
  -23.4259  -28.8150   23.2971 O   0  0  0  0  0  0  0  0  0  0  0  0
  -28.3948  -26.7345   20.0089 O   0  0  0  0  0  0  0  0  0  0  0  0
  -26.5870  -34.9065   22.4671 O   0  0  0  0  0  0  0  0  0  0  0  0
  -23.5365  -32.1254   23.7833 O   0  0  0  0  0  0  0  0  0  0  0  0
  -28.8315  -20.5474   19.7801 C   0  0  0  0  0  0  0  0  0  0  0  0
  -28.6345  -19.1916   20.0173 C   0  0  0  0  0  0  0  0  0  0  0  0
  -30.9042  -20.0118   18.7440 C   0  0  0  0  0  0  0  0  0  0  0  0
  -29.9853  -20.9736   19.1318 C   0  0  0  0  0  0  0  0  0  0  0  0
  -29.6138  -18.3095   19.5896 C   0  0  0  0  0  0  0  0  0  0  0  0
  -29.2877  -23.3658   19.2605 C   0  0  0  0  0  0  0  0  0  0  0  0
  -28.7105  -25.7613   18.7420 C   0  0  0  0  0  0  0  0  0  0  0  0
  -29.8251  -24.7230   18.8109 C   0  0  1  0  0  0  0  0  0  0  0  0
  -30.7476  -18.6860   18.9569 N   0  0  0  0  0  0  0  0  0  0  0  0
  -30.2079  -22.3171   18.8814 N   0  0  0  0  0  0  0  0  0  0  0  0
  -29.4044  -16.9302   19.8373 N   0  0  0  0  0  0  0  0  0  0  0  0
  -30.7888  -25.1820   19.7611 O   0  0  0  0  0  0  0  0  0  0  0  0
  -31.4485  -12.4701   19.0860 H   0  0  0  0  0  0  0  0  0  0  0  0
  -30.3970  -11.2460   19.6950 H   0  0  0  0  0  0  0  0  0  0  0  0
  -29.6870  -11.8204   17.4226 H   0  0  0  0  0  0  0  0  0  0  0  0
  -29.6375  -13.5326   17.8649 H   0  0  0  0  0  0  0  0  0  0  0  0
  -27.7830  -11.3650   18.7904 H   0  0  0  0  0  0  0  0  0  0  0  0
  -27.4028  -12.7801   17.8021 H   0  0  0  0  0  0  0  0  0  0  0  0
  -27.7353  -14.2503   19.6136 H   0  0  0  0  0  0  0  0  0  0  0  0
  -28.5890  -11.9550   21.3832 H   0  0  0  0  0  0  0  0  0  0  0  0
  -28.5005  -13.6134   21.8562 H   0  0  0  0  0  0  0  0  0  0  0  0
  -25.2399   -9.5495   22.4318 H   0  0  0  0  0  0  0  0  0  0  0  0
  -23.9663   -7.5070   22.7297 H   0  0  0  0  0  0  0  0  0  0  0  0
  -21.1515   -8.8641   19.9162 H   0  0  0  0  0  0  0  0  0  0  0  0
  -22.4016  -10.9115   19.6476 H   0  0  0  0  0  0  0  0  0  0  0  0
  -21.2319   -7.5552   23.9750 H   0  0  0  0  0  0  0  0  0  0  0  0
  -21.1589   -6.0228   25.8556 H   0  0  0  0  0  0  0  0  0  0  0  0
  -22.0396   -2.8212   23.2809 H   0  0  0  0  0  0  0  0  0  0  0  0
  -22.4401  -11.9703   22.4008 H   0  0  0  0  0  0  0  0  0  0  0  0
  -21.1493  -13.0679   22.2082 H   0  0  0  0  0  0  0  0  0  0  0  0
  -24.6538  -15.7807   20.5848 H   0  0  0  0  0  0  0  0  0  0  0  0
  -26.2762  -15.5453   20.1156 H   0  0  0  0  0  0  0  0  0  0  0  0
  -26.6778  -32.4663   23.1464 H   0  0  0  0  0  0  0  0  0  0  0  0
  -25.0747  -34.0282   25.0566 H   0  0  0  0  0  0  0  0  0  0  0  0
  -22.7881  -31.3489   21.4131 H   0  0  0  0  0  0  0  0  0  0  0  0
  -23.3854  -35.9823   23.3648 H   0  0  0  0  0  0  0  0  0  0  0  0
  -24.3696  -36.8624   22.2204 H   0  0  0  0  0  0  0  0  0  0  0  0
  -23.7669  -37.6632   23.6516 H   0  0  0  0  0  0  0  0  0  0  0  0
  -25.9445  -31.6237   20.5691 H   0  0  0  0  0  0  0  0  0  0  0  0
  -26.7436  -31.0079   22.0108 H   0  0  0  0  0  0  0  0  0  0  0  0
  -28.0090  -29.1452   21.2057 H   0  0  0  0  0  0  0  0  0  0  0  0
  -26.1369  -26.0560   19.0719 H   0  0  0  0  0  0  0  0  0  0  0  0
  -24.0652  -27.2961   19.0997 H   0  0  0  0  0  0  0  0  0  0  0  0
  -23.6156  -30.5365   19.3930 H   0  0  0  0  0  0  0  0  0  0  0  0
  -22.7355  -29.1425   19.9945 H   0  0  0  0  0  0  0  0  0  0  0  0
  -25.1353  -36.2335   25.0565 H   0  0  0  0  0  0  0  0  0  0  0  0
  -21.0070  -28.3206   24.0793 H   0  0  0  0  0  0  0  0  0  0  0  0
  -20.5555  -26.2518   23.3550 H   0  0  0  0  0  0  0  0  0  0  0  0
  -21.5974  -26.8362   22.0454 H   0  0  0  0  0  0  0  0  0  0  0  0
  -19.6810  -25.6422   21.1488 H   0  0  0  0  0  0  0  0  0  0  0  0
  -19.6406  -27.3343   20.7034 H   0  0  0  0  0  0  0  0  0  0  0  0
  -17.4282  -26.6888   21.4113 H   0  0  0  0  0  0  0  0  0  0  0  0
  -18.0803  -26.0130   22.9049 H   0  0  0  0  0  0  0  0  0  0  0  0
  -19.7265  -30.6774   24.2204 H   0  0  0  0  0  0  0  0  0  0  0  0
  -17.5064  -31.5856   24.4483 H   0  0  0  0  0  0  0  0  0  0  0  0
  -15.5878  -30.2839   23.7407 H   0  0  0  0  0  0  0  0  0  0  0  0
  -15.9120  -28.0941   22.7766 H   0  0  0  0  0  0  0  0  0  0  0  0
  -24.5787  -30.7757   25.6817 H   0  0  0  0  0  0  0  0  0  0  0  0
  -25.0041  -32.2289   26.5536 H   0  0  0  0  0  0  0  0  0  0  0  0
  -25.8166  -30.7245   26.9138 H   0  0  0  0  0  0  0  0  0  0  0  0
  -26.2892  -29.7335   24.0803 H   0  0  0  0  0  0  0  0  0  0  0  0
  -27.4336  -29.7484   25.4006 H   0  0  0  0  0  0  0  0  0  0  0  0
  -27.8466  -30.4994   23.8779 H   0  0  0  0  0  0  0  0  0  0  0  0
  -27.2251  -33.3632   26.1242 H   0  0  0  0  0  0  0  0  0  0  0  0
  -28.3902  -32.6065   25.0645 H   0  0  0  0  0  0  0  0  0  0  0  0
  -27.9772  -31.8555   26.5872 H   0  0  0  0  0  0  0  0  0  0  0  0
  -28.2744  -38.0016   24.6863 H   0  0  0  0  0  0  0  0  0  0  0  0
  -28.0396  -36.2711   24.7461 H   0  0  0  0  0  0  0  0  0  0  0  0
  -27.1773  -37.3087   25.8564 H   0  0  0  0  0  0  0  0  0  0  0  0
  -20.9627  -29.9365   21.7352 H   0  0  0  0  0  0  0  0  0  0  0  0
  -26.0447  -38.2561   24.0273 H   0  0  0  0  0  0  0  0  0  0  0  0
  -28.1241  -21.2346   20.0840 H   0  0  0  0  0  0  0  0  0  0  0  0
  -27.7857  -18.8529   20.4968 H   0  0  0  0  0  0  0  0  0  0  0  0
  -31.7611  -20.3270   18.2629 H   0  0  0  0  0  0  0  0  0  0  0  0
  -28.3396  -23.1894   18.7970 H   0  0  0  0  0  0  0  0  0  0  0  0
  -29.1778  -23.3676   20.3248 H   0  0  0  0  0  0  0  0  0  0  0  0
  -27.8073  -25.2256   18.5368 H   0  0  0  0  0  0  0  0  0  0  0  0
  -29.0702  -26.4455   18.0022 H   0  0  0  0  0  0  0  0  0  0  0  0
  -30.2588  -24.6024   17.8402 H   0  0  0  0  0  0  0  0  0  0  0  0
  -31.0390  -22.5724   18.4195 H   0  0  0  0  0  0  0  0  0  0  0  0
  -28.4525  -16.7338   19.6804 H   0  0  0  0  0  0  0  0  0  0  0  0
  -30.3659  -25.2811   20.6284 H   0  0  0  0  0  0  0  0  0  0  0  0
  1 25  1  0  0  0  0
  1 30  2  0  0  0  0
  1 81  1  0  0  0  0
  2  3  1  0  0  0  0
  2 25  1  0  0  0  0
  2 83  1  0  0  0  0
  2 84  1  0  0  0  0
  3  4  1  0  0  0  0
  3 85  1  0  0  0  0
  3 86  1  0  0  0  0
  4  5  1  0  0  0  0
  4 87  1  0  0  0  0
  4 88  1  0  0  0  0
  5  6  1  0  0  0  0
  5 26  1  0  0  0  0
  5 89  1  6  0  0  0
  6 25  1  0  0  0  0
  6 90  1  0  0  0  0
  6 91  1  0  0  0  0
  7  8  2  0  0  0  0
  7 26  1  0  0  0  0
  7 29  1  0  0  0  0
  8  9  1  0  0  0  0
  8 22  1  0  0  0  0
  9 10  1  0  0  0  0
  9 27  2  0  0  0  0
 10 11  2  0  0  0  0
 10 15  1  0  0  0  0
 11 12  1  0  0  0  0
 11 92  1  0  0  0  0
 12 13  2  0  0  0  0
 12 93  1  0  0  0  0
 13 14  1  0  0  0  0
 13 31  1  0  0  0  0
 14 15  2  0  0  0  0
 14 94  1  0  0  0  0
 15 95  1  0  0  0  0
 16 17  2  0  0  0  0
 16 21  1  0  0  0  0
 16 31  1  0  0  0  0
 17 18  1  0  0  0  0
 17 96  1  0  0  0  0
 18 19  2  0  0  0  0
 18 97  1  0  0  0  0
 19 20  1  0  0  0  0
 19 24  1  0  0  0  0
 20 21  2  0  0  0  0
 20 98  1  0  0  0  0
 21 23  1  0  0  0  0
 22 28  1  0  0  0  0
 22 32  2  0  0  0  0
 26 27  1  0  0  0  0
 28 99  1  0  0  0  0
 28100  1  0  0  0  0
 29101  1  0  0  0  0
 29102  1  0  0  0  0
 33 34  1  0  0  0  0
 33 66  1  0  0  0  0
 33 70  2  0  0  0  0
 34 36  1  0  0  0  0
 34 59  1  0  0  0  0
 34103  1  6  0  0  0
 35 44  2  0  0  0  0
 35 45  1  0  0  0  0
 35 68  1  0  0  0  0
 36 56  1  0  0  0  0
 36104  1  0  0  0  0
 37 39  1  0  0  0  0
 37 47  1  0  0  0  0
 37 66  1  0  0  0  0
 37105  1  6  0  0  0
 38 43  2  0  0  0  0
 38 46  1  0  0  0  0
 38 47  1  0  0  0  0
 39 64  1  0  0  0  0
 39 67  2  0  0  0  0
 40 52  1  0  0  0  0
 40 53  2  0  0  0  0
 40 58  1  0  0  0  0
 41106  1  0  0  0  0
 41107  1  0  0  0  0
 41108  1  0  0  0  0
 42 43  1  0  0  0  0
 42 66  1  0  0  0  0
 42109  1  0  0  0  0
 42110  1  0  0  0  0
 43 44  1  0  0  0  0
 44111  1  0  0  0  0
 45 46  2  0  0  0  0
 45112  1  0  0  0  0
 46113  1  0  0  0  0
 47114  1  0  0  0  0
 47115  1  0  0  0  0
 48 41  1  0  0  0  0
 48 56  1  0  0  0  0
 48 65  1  0  0  0  0
 48116  1  1  0  0  0
 49 50  1  0  0  0  0
 49 53  1  0  0  0  0
 49 64  1  0  0  0  0
 49117  1  1  0  0  0
 50 51  1  0  0  0  0
 50118  1  0  0  0  0
 50119  1  0  0  0  0
 51 52  1  0  0  0  0
 51120  1  0  0  0  0
 51121  1  0  0  0  0
 52122  1  0  0  0  0
 52123  1  0  0  0  0
 53 54  1  0  0  0  0
 54 55  2  0  0  0  0
 54124  1  0  0  0  0
 55 57  1  0  0  0  0
 55125  1  0  0  0  0
 56 69  2  0  0  0  0
 57 58  2  0  0  0  0
 57126  1  0  0  0  0
 58127  1  0  0  0  0
 59 60  1  0  0  0  0
 59 61  1  0  0  0  0
 59 62  1  0  0  0  0
 60128  1  0  0  0  0
 60129  1  0  0  0  0
 60130  1  0  0  0  0
 61131  1  0  0  0  0
 61132  1  0  0  0  0
 61133  1  0  0  0  0
 62134  1  0  0  0  0
 62135  1  0  0  0  0
 62136  1  0  0  0  0
 63 65  1  0  0  0  0
 63137  1  0  0  0  0
 63138  1  0  0  0  0
 63139  1  0  0  0  0
 64140  1  0  0  0  0
 65141  1  0  0  0  0
 68 77  1  0  0  0  0
 71 72  2  0  0  0  0
 71 74  1  0  0  0  0
 71142  1  0  0  0  0
 72 75  1  0  0  0  0
 72143  1  0  0  0  0
 73 74  2  0  0  0  0
 73 79  1  0  0  0  0
 73144  1  0  0  0  0
 74 80  1  0  0  0  0
 75 79  2  0  0  0  0
 75 81  1  0  0  0  0
 76 78  1  0  0  0  0
 76 80  1  0  0  0  0
 76145  1  0  0  0  0
 76146  1  0  0  0  0
 77 78  1  0  0  0  0
 77147  1  0  0  0  0
 77148  1  0  0  0  0
 78 82  1  0  0  0  0
 78149  1  6  0  0  0
 80150  1  0  0  0  0
 81151  1  0  0  0  0
 82152  1  0  0  0  0
M  ISO  4   1 100  68 101  77 101  81 100
M  END
$$$$
35
 OpenBabel04052305473D

157165  0  0  0  0  0  0  0  0999 V2000
  -30.7652  -14.3608   20.6636 C   0  0  0  0  0  0  0  0  0  0  0  0
  -30.4392  -12.2669   19.3775 C   0  0  0  0  0  0  0  0  0  0  0  0
  -29.4791  -12.5281   18.1977 C   0  0  0  0  0  0  0  0  0  0  0  0
  -27.9985  -12.3963   18.6038 C   0  0  0  0  0  0  0  0  0  0  0  0
  -27.6639  -13.2170   19.8820 C   0  0  2  0  0  0  0  0  0  0  0  0
  -28.6795  -12.9602   21.0279 C   0  0  0  0  0  0  0  0  0  0  0  0
  -25.2633  -13.8245   20.5754 C   0  0  0  0  0  0  0  0  0  0  0  0
  -24.1645  -13.0409   20.9408 C   0  0  0  0  0  0  0  0  0  0  0  0
  -24.6400  -11.7009   20.8697 C   0  0  0  0  0  0  0  0  0  0  0  0
  -23.9005  -10.4085   21.0420 C   0  0  0  0  0  0  0  0  0  0  0  0
  -24.3588   -9.4123   21.9123 C   0  0  0  0  0  0  0  0  0  0  0  0
  -23.6296   -8.2350   22.0803 C   0  0  0  0  0  0  0  0  0  0  0  0
  -22.4385   -8.0419   21.3657 C   0  0  0  0  0  0  0  0  0  0  0  0
  -22.0103   -9.0167   20.4678 C   0  0  0  0  0  0  0  0  0  0  0  0
  -22.7317  -10.1925   20.3102 C   0  0  0  0  0  0  0  0  0  0  0  0
  -21.6857   -6.0709   22.5391 C   0  0  0  0  0  0  0  0  0  0  0  0
  -21.4064   -6.5490   23.8264 C   0  0  0  0  0  0  0  0  0  0  0  0
  -21.3635   -5.6677   24.9085 C   0  0  0  0  0  0  0  0  0  0  0  0
  -21.5973   -4.3067   24.7088 C   0  0  0  0  0  0  0  0  0  0  0  0
  -21.8700   -3.8284   23.4282 C   0  0  0  0  0  0  0  0  0  0  0  0
  -21.9144   -4.7056   22.3460 C   0  0  0  0  0  0  0  0  0  0  0  0
  -22.8194  -13.5263   21.1763 C   0  0  0  0  0  0  0  0  0  0  0  0
  -22.1559   -4.2206   21.1063 F   0  0  0  0  0  0  0  0  0  0  0  0
  -21.5628   -3.4510   25.7555 F   0  0  0  0  0  0  0  0  0  0  0  0
  -30.0261  -13.1803   20.4553 N   0  0  0  0  0  0  0  0  0  0  0  0
  -26.2911  -12.9356   20.3443 N   0  0  0  0  0  0  0  0  0  0  0  0
  -25.9236  -11.6675   20.5847 N   0  0  0  0  0  0  0  0  0  0  0  0
  -22.0708  -12.7905   22.0005 N   0  0  0  0  0  0  0  0  0  0  0  0
  -25.4117  -15.1773   20.4097 N   0  0  0  0  0  0  0  0  0  0  0  0
  -31.7916  -14.6724   20.0536 O   0  0  0  0  0  0  0  0  0  0  0  0
  -21.6670   -6.9022   21.4423 O   0  0  0  0  0  0  0  0  0  0  0  0
  -22.3946  -14.5564   20.6568 O   0  0  0  0  0  0  0  0  0  0  0  0
  -24.6048  -31.8614   23.2223 C   0  0  0  0  0  0  0  0  0  0  0  0
  -25.8822  -32.4841   23.8616 C   0  0  1  0  0  0  0  0  0  0  0  0
  -27.2536  -27.5042   20.1156 C   0  0  0  0  0  0  0  0  0  0  0  0
  -25.5726  -33.8762   24.2210 N   0  0  0  0  0  0  0  0  0  0  0  0
  -23.4066  -30.4859   21.5461 C   0  0  2  0  0  0  0  0  0  0  0  0
  -24.8467  -28.9636   20.1247 C   0  0  0  0  0  0  0  0  0  0  0  0
  -22.7412  -29.4652   22.5052 C   0  0  0  0  0  0  0  0  0  0  0  0
  -18.0167  -28.1302   22.8626 C   0  0  0  0  0  0  0  0  0  0  0  0
  -24.1342  -36.7390   23.2568 C   0  0  0  0  0  0  0  0  0  0  0  0
  -25.9141  -30.8882   21.3456 C   0  0  0  0  0  0  0  0  0  0  0  0
  -25.9930  -29.5029   20.7208 C   0  0  0  0  0  0  0  0  0  0  0  0
  -27.1758  -28.7612   20.7331 C   0  0  0  0  0  0  0  0  0  0  0  0
  -26.1032  -26.9836   19.5230 C   0  0  0  0  0  0  0  0  0  0  0  0
  -24.9097  -27.7011   19.5331 C   0  0  0  0  0  0  0  0  0  0  0  0
  -23.5715  -29.7899   20.1582 C   0  0  0  0  0  0  0  0  0  0  0  0
  -25.3990  -36.3212   24.0232 C   0  0  1  0  0  0  0  0  0  0  0  0
  -20.5793  -28.3813   23.1004 C   0  0  2  0  0  0  0  0  0  0  0  0
  -20.6548  -26.9392   22.5411 C   0  0  0  0  0  0  0  0  0  0  0  0
  -19.5615  -26.6407   21.5143 C   0  0  0  0  0  0  0  0  0  0  0  0
  -18.1797  -26.7818   22.1673 C   0  0  0  0  0  0  0  0  0  0  0  0
  -19.1385  -28.8769   23.2988 C   0  0  0  0  0  0  0  0  0  0  0  0
  -18.9183  -30.1286   23.8878 C   0  0  0  0  0  0  0  0  0  0  0  0
  -17.6396  -30.6493   24.0352 C   0  0  0  0  0  0  0  0  0  0  0  0
  -25.9153  -34.9582   23.4993 C   0  0  0  0  0  0  0  0  0  0  0  0
  -16.5415  -29.9068   23.6254 C   0  0  0  0  0  0  0  0  0  0  0  0
  -16.7331  -28.6521   23.0586 C   0  0  0  0  0  0  0  0  0  0  0  0
  -26.4583  -31.6439   25.0683 C   0  0  0  0  0  0  0  0  0  0  0  0
  -25.3807  -31.3179   26.1374 C   0  0  0  0  0  0  0  0  0  0  0  0
  -27.0530  -30.3024   24.5680 C   0  0  0  0  0  0  0  0  0  0  0  0
  -27.6014  -32.4281   25.7651 C   0  0  0  0  0  0  0  0  0  0  0  0
  -27.5629  -37.2220   24.8621 C   0  0  0  0  0  0  0  0  0  0  0  0
  -21.4133  -29.3375   22.3735 N   0  0  0  0  0  0  0  0  0  0  0  0
  -26.4706  -37.3372   23.9061 N   0  0  0  0  0  0  0  0  0  0  0  0
  -24.6674  -31.0544   22.1178 N   0  0  0  0  0  0  0  0  0  0  0  0
  -23.4259  -28.8150   23.2971 O   0  0  0  0  0  0  0  0  0  0  0  0
  -28.3948  -26.7345   20.0089 O   0  0  0  0  0  0  0  0  0  0  0  0
  -26.5870  -34.9065   22.4671 O   0  0  0  0  0  0  0  0  0  0  0  0
  -23.5365  -32.1254   23.7833 O   0  0  0  0  0  0  0  0  0  0  0  0
  -32.2451  -23.6410   19.4912 C   0  0  0  0  0  0  0  0  0  0  0  0
  -33.2416  -24.5777   19.3067 C   0  0  0  0  0  0  0  0  0  0  0  0
  -30.9629  -24.1432   19.5811 C   0  0  0  0  0  0  0  0  0  0  0  0
  -31.7231  -26.2692   19.3180 C   0  0  0  0  0  0  0  0  0  0  0  0
  -31.7532  -30.3344   17.4410 C   0  0  0  0  0  0  0  0  0  0  0  0
  -31.4317  -27.7377   19.2197 C   0  0  0  0  0  0  0  0  0  0  0  0
  -29.3862  -29.7658   16.7670 C   0  0  0  0  0  0  0  0  0  0  0  0
  -28.0710  -29.0846   17.1289 C   0  0  0  0  0  0  0  0  0  0  0  0
  -30.4881  -29.5715   17.8106 C   0  0  1  0  0  0  0  0  0  0  0  0
  -33.0154  -25.9047   19.2153 N   0  0  0  0  0  0  0  0  0  0  0  0
  -30.6646  -25.4564   19.4986 N   0  0  0  0  0  0  0  0  0  0  0  0
  -29.9069  -23.2172   19.7685 N   0  0  0  0  0  0  0  0  0  0  0  0
  -30.8370  -28.1272   17.9149 N   0  3  0  0  0  0  0  0  0  0  0  0
  -31.4485  -12.4701   19.0860 H   0  0  0  0  0  0  0  0  0  0  0  0
  -30.3970  -11.2460   19.6950 H   0  0  0  0  0  0  0  0  0  0  0  0
  -29.6870  -11.8204   17.4226 H   0  0  0  0  0  0  0  0  0  0  0  0
  -29.6375  -13.5326   17.8649 H   0  0  0  0  0  0  0  0  0  0  0  0
  -27.7830  -11.3650   18.7904 H   0  0  0  0  0  0  0  0  0  0  0  0
  -27.4028  -12.7801   17.8021 H   0  0  0  0  0  0  0  0  0  0  0  0
  -27.7353  -14.2503   19.6136 H   0  0  0  0  0  0  0  0  0  0  0  0
  -28.5890  -11.9550   21.3832 H   0  0  0  0  0  0  0  0  0  0  0  0
  -28.5005  -13.6134   21.8562 H   0  0  0  0  0  0  0  0  0  0  0  0
  -25.2399   -9.5495   22.4318 H   0  0  0  0  0  0  0  0  0  0  0  0
  -23.9663   -7.5070   22.7297 H   0  0  0  0  0  0  0  0  0  0  0  0
  -21.1515   -8.8641   19.9162 H   0  0  0  0  0  0  0  0  0  0  0  0
  -22.4016  -10.9115   19.6476 H   0  0  0  0  0  0  0  0  0  0  0  0
  -21.2319   -7.5552   23.9750 H   0  0  0  0  0  0  0  0  0  0  0  0
  -21.1589   -6.0228   25.8556 H   0  0  0  0  0  0  0  0  0  0  0  0
  -22.0396   -2.8212   23.2809 H   0  0  0  0  0  0  0  0  0  0  0  0
  -22.4401  -11.9703   22.4008 H   0  0  0  0  0  0  0  0  0  0  0  0
  -21.1493  -13.0679   22.2082 H   0  0  0  0  0  0  0  0  0  0  0  0
  -24.6538  -15.7807   20.5848 H   0  0  0  0  0  0  0  0  0  0  0  0
  -26.2762  -15.5453   20.1156 H   0  0  0  0  0  0  0  0  0  0  0  0
  -26.6778  -32.4663   23.1464 H   0  0  0  0  0  0  0  0  0  0  0  0
  -25.0747  -34.0282   25.0566 H   0  0  0  0  0  0  0  0  0  0  0  0
  -22.7881  -31.3489   21.4131 H   0  0  0  0  0  0  0  0  0  0  0  0
  -23.3854  -35.9823   23.3648 H   0  0  0  0  0  0  0  0  0  0  0  0
  -24.3696  -36.8624   22.2204 H   0  0  0  0  0  0  0  0  0  0  0  0
  -23.7669  -37.6632   23.6516 H   0  0  0  0  0  0  0  0  0  0  0  0
  -25.9445  -31.6237   20.5691 H   0  0  0  0  0  0  0  0  0  0  0  0
  -26.7436  -31.0079   22.0108 H   0  0  0  0  0  0  0  0  0  0  0  0
  -28.0090  -29.1452   21.2057 H   0  0  0  0  0  0  0  0  0  0  0  0
  -26.1369  -26.0560   19.0719 H   0  0  0  0  0  0  0  0  0  0  0  0
  -24.0652  -27.2961   19.0997 H   0  0  0  0  0  0  0  0  0  0  0  0
  -23.6156  -30.5365   19.3930 H   0  0  0  0  0  0  0  0  0  0  0  0
  -22.7355  -29.1425   19.9945 H   0  0  0  0  0  0  0  0  0  0  0  0
  -25.1353  -36.2335   25.0565 H   0  0  0  0  0  0  0  0  0  0  0  0
  -21.0070  -28.3206   24.0793 H   0  0  0  0  0  0  0  0  0  0  0  0
  -20.5555  -26.2518   23.3550 H   0  0  0  0  0  0  0  0  0  0  0  0
  -21.5974  -26.8362   22.0454 H   0  0  0  0  0  0  0  0  0  0  0  0
  -19.6810  -25.6422   21.1488 H   0  0  0  0  0  0  0  0  0  0  0  0
  -19.6406  -27.3343   20.7034 H   0  0  0  0  0  0  0  0  0  0  0  0
  -17.4282  -26.6888   21.4113 H   0  0  0  0  0  0  0  0  0  0  0  0
  -18.0803  -26.0130   22.9049 H   0  0  0  0  0  0  0  0  0  0  0  0
  -19.7265  -30.6774   24.2204 H   0  0  0  0  0  0  0  0  0  0  0  0
  -17.5064  -31.5856   24.4483 H   0  0  0  0  0  0  0  0  0  0  0  0
  -15.5878  -30.2839   23.7407 H   0  0  0  0  0  0  0  0  0  0  0  0
  -15.9120  -28.0941   22.7766 H   0  0  0  0  0  0  0  0  0  0  0  0
  -24.5787  -30.7757   25.6817 H   0  0  0  0  0  0  0  0  0  0  0  0
  -25.0041  -32.2289   26.5536 H   0  0  0  0  0  0  0  0  0  0  0  0
  -25.8166  -30.7245   26.9138 H   0  0  0  0  0  0  0  0  0  0  0  0
  -26.2892  -29.7335   24.0803 H   0  0  0  0  0  0  0  0  0  0  0  0
  -27.4336  -29.7484   25.4006 H   0  0  0  0  0  0  0  0  0  0  0  0
  -27.8466  -30.4994   23.8779 H   0  0  0  0  0  0  0  0  0  0  0  0
  -27.2251  -33.3632   26.1242 H   0  0  0  0  0  0  0  0  0  0  0  0
  -28.3902  -32.6065   25.0645 H   0  0  0  0  0  0  0  0  0  0  0  0
  -27.9772  -31.8555   26.5872 H   0  0  0  0  0  0  0  0  0  0  0  0
  -28.2744  -38.0016   24.6863 H   0  0  0  0  0  0  0  0  0  0  0  0
  -28.0396  -36.2711   24.7461 H   0  0  0  0  0  0  0  0  0  0  0  0
  -27.1773  -37.3087   25.8564 H   0  0  0  0  0  0  0  0  0  0  0  0
  -20.9627  -29.9365   21.7352 H   0  0  0  0  0  0  0  0  0  0  0  0
  -26.0447  -38.2561   24.0273 H   0  0  0  0  0  0  0  0  0  0  0  0
  -32.4457  -22.6309   19.5576 H   0  0  0  0  0  0  0  0  0  0  0  0
  -34.2155  -24.2441   19.2345 H   0  0  0  0  0  0  0  0  0  0  0  0
  -31.5296  -31.3776   17.3595 H   0  0  0  0  0  0  0  0  0  0  0  0
  -32.1255  -29.9752   16.5044 H   0  0  0  0  0  0  0  0  0  0  0  0
  -32.4933  -30.1864   18.1994 H   0  0  0  0  0  0  0  0  0  0  0  0
  -32.3469  -28.2762   19.3512 H   0  0  0  0  0  0  0  0  0  0  0  0
  -30.7161  -27.9729   19.9797 H   0  0  0  0  0  0  0  0  0  0  0  0
  -29.2046  -30.8147   16.6590 H   0  0  0  0  0  0  0  0  0  0  0  0
  -29.7320  -29.3154   15.8601 H   0  0  0  0  0  0  0  0  0  0  0  0
  -27.7255  -28.5358   16.2778 H   0  0  0  0  0  0  0  0  0  0  0  0
  -27.3814  -29.8507   17.4161 H   0  0  0  0  0  0  0  0  0  0  0  0
  -30.1128  -29.9434   18.7410 H   0  0  0  0  0  0  0  0  0  0  0  0
  -28.9935  -23.5829   19.8034 H   0  0  0  0  0  0  0  0  0  0  0  0
  -29.9866  -27.5816   17.7752 H   0  0  0  0  0  0  0  0  0  0  0  0
  -31.5447  -27.9442   17.2036 H   0  0  0  0  0  0  0  0  0  0  0  0
  1 25  1  0  0  0  0
  1 30  2  0  0  0  0
  1 82  1  0  0  0  0
  2  3  1  0  0  0  0
  2 25  1  0  0  0  0
  2 84  1  0  0  0  0
  2 85  1  0  0  0  0
  3  4  1  0  0  0  0
  3 86  1  0  0  0  0
  3 87  1  0  0  0  0
  4  5  1  0  0  0  0
  4 88  1  0  0  0  0
  4 89  1  0  0  0  0
  5  6  1  0  0  0  0
  5 26  1  0  0  0  0
  5 90  1  6  0  0  0
  6 25  1  0  0  0  0
  6 91  1  0  0  0  0
  6 92  1  0  0  0  0
  7  8  2  0  0  0  0
  7 26  1  0  0  0  0
  7 29  1  0  0  0  0
  8  9  1  0  0  0  0
  8 22  1  0  0  0  0
  9 10  1  0  0  0  0
  9 27  2  0  0  0  0
 10 11  2  0  0  0  0
 10 15  1  0  0  0  0
 11 12  1  0  0  0  0
 11 93  1  0  0  0  0
 12 13  2  0  0  0  0
 12 94  1  0  0  0  0
 13 14  1  0  0  0  0
 13 31  1  0  0  0  0
 14 15  2  0  0  0  0
 14 95  1  0  0  0  0
 15 96  1  0  0  0  0
 16 17  2  0  0  0  0
 16 21  1  0  0  0  0
 16 31  1  0  0  0  0
 17 18  1  0  0  0  0
 17 97  1  0  0  0  0
 18 19  2  0  0  0  0
 18 98  1  0  0  0  0
 19 20  1  0  0  0  0
 19 24  1  0  0  0  0
 20 21  2  0  0  0  0
 20 99  1  0  0  0  0
 21 23  1  0  0  0  0
 22 28  1  0  0  0  0
 22 32  2  0  0  0  0
 26 27  1  0  0  0  0
 28100  1  0  0  0  0
 28101  1  0  0  0  0
 29102  1  0  0  0  0
 29103  1  0  0  0  0
 33 34  1  0  0  0  0
 33 66  1  0  0  0  0
 33 70  2  0  0  0  0
 34 36  1  0  0  0  0
 34 59  1  0  0  0  0
 34104  1  6  0  0  0
 35 44  2  0  0  0  0
 35 45  1  0  0  0  0
 35 68  1  0  0  0  0
 36 56  1  0  0  0  0
 36105  1  0  0  0  0
 37 39  1  0  0  0  0
 37 47  1  0  0  0  0
 37 66  1  0  0  0  0
 37106  1  6  0  0  0
 38 43  2  0  0  0  0
 38 46  1  0  0  0  0
 38 47  1  0  0  0  0
 39 64  1  0  0  0  0
 39 67  2  0  0  0  0
 40 52  1  0  0  0  0
 40 53  2  0  0  0  0
 40 58  1  0  0  0  0
 41107  1  0  0  0  0
 41108  1  0  0  0  0
 41109  1  0  0  0  0
 42 43  1  0  0  0  0
 42 66  1  0  0  0  0
 42110  1  0  0  0  0
 42111  1  0  0  0  0
 43 44  1  0  0  0  0
 44112  1  0  0  0  0
 45 46  2  0  0  0  0
 45113  1  0  0  0  0
 46114  1  0  0  0  0
 47115  1  0  0  0  0
 47116  1  0  0  0  0
 48 41  1  0  0  0  0
 48 56  1  0  0  0  0
 48 65  1  0  0  0  0
 48117  1  1  0  0  0
 49 50  1  0  0  0  0
 49 53  1  0  0  0  0
 49 64  1  0  0  0  0
 49118  1  1  0  0  0
 50 51  1  0  0  0  0
 50119  1  0  0  0  0
 50120  1  0  0  0  0
 51 52  1  0  0  0  0
 51121  1  0  0  0  0
 51122  1  0  0  0  0
 52123  1  0  0  0  0
 52124  1  0  0  0  0
 53 54  1  0  0  0  0
 54 55  2  0  0  0  0
 54125  1  0  0  0  0
 55 57  1  0  0  0  0
 55126  1  0  0  0  0
 56 69  2  0  0  0  0
 57 58  2  0  0  0  0
 57127  1  0  0  0  0
 58128  1  0  0  0  0
 59 60  1  0  0  0  0
 59 61  1  0  0  0  0
 59 62  1  0  0  0  0
 60129  1  0  0  0  0
 60130  1  0  0  0  0
 60131  1  0  0  0  0
 61132  1  0  0  0  0
 61133  1  0  0  0  0
 61134  1  0  0  0  0
 62135  1  0  0  0  0
 62136  1  0  0  0  0
 62137  1  0  0  0  0
 63 65  1  0  0  0  0
 63138  1  0  0  0  0
 63139  1  0  0  0  0
 63140  1  0  0  0  0
 64141  1  0  0  0  0
 65142  1  0  0  0  0
 68 78  1  0  0  0  0
 71 72  2  0  0  0  0
 71 73  1  0  0  0  0
 71143  1  0  0  0  0
 72 80  1  0  0  0  0
 72144  1  0  0  0  0
 73 81  2  0  0  0  0
 73 82  1  0  0  0  0
 74 76  1  0  0  0  0
 74 80  2  0  0  0  0
 74 81  1  0  0  0  0
 75145  1  0  0  0  0
 75146  1  0  0  0  0
 75147  1  0  0  0  0
 76 83  1  0  0  0  0
 76148  1  0  0  0  0
 76149  1  0  0  0  0
 77 78  1  0  0  0  0
 77 79  1  0  0  0  0
 77150  1  0  0  0  0
 77151  1  0  0  0  0
 78152  1  0  0  0  0
 78153  1  0  0  0  0
 79 75  1  0  0  0  0
 79 83  1  0  0  0  0
 79154  1  1  0  0  0
 82155  1  0  0  0  0
 83156  1  0  0  0  0
 83157  1  0  0  0  0
M  ISO  4   1 100  68 101  78 101  82 100
M  CHG  1  83   1
M  END
$$$$
36
 OpenBabel04052305473D

153161  0  0  0  0  0  0  0  0999 V2000
  -30.7652  -14.3608   20.6636 C   0  0  0  0  0  0  0  0  0  0  0  0
  -30.4392  -12.2669   19.3775 C   0  0  0  0  0  0  0  0  0  0  0  0
  -29.4791  -12.5281   18.1977 C   0  0  0  0  0  0  0  0  0  0  0  0
  -27.9985  -12.3963   18.6038 C   0  0  0  0  0  0  0  0  0  0  0  0
  -27.6639  -13.2170   19.8820 C   0  0  2  0  0  0  0  0  0  0  0  0
  -28.6795  -12.9602   21.0279 C   0  0  0  0  0  0  0  0  0  0  0  0
  -25.2633  -13.8245   20.5754 C   0  0  0  0  0  0  0  0  0  0  0  0
  -24.1645  -13.0409   20.9408 C   0  0  0  0  0  0  0  0  0  0  0  0
  -24.6400  -11.7009   20.8697 C   0  0  0  0  0  0  0  0  0  0  0  0
  -23.9005  -10.4085   21.0420 C   0  0  0  0  0  0  0  0  0  0  0  0
  -24.3588   -9.4123   21.9123 C   0  0  0  0  0  0  0  0  0  0  0  0
  -23.6296   -8.2350   22.0803 C   0  0  0  0  0  0  0  0  0  0  0  0
  -22.4385   -8.0419   21.3657 C   0  0  0  0  0  0  0  0  0  0  0  0
  -22.0103   -9.0167   20.4678 C   0  0  0  0  0  0  0  0  0  0  0  0
  -22.7317  -10.1925   20.3102 C   0  0  0  0  0  0  0  0  0  0  0  0
  -21.6857   -6.0709   22.5391 C   0  0  0  0  0  0  0  0  0  0  0  0
  -21.4064   -6.5490   23.8264 C   0  0  0  0  0  0  0  0  0  0  0  0
  -21.3635   -5.6677   24.9085 C   0  0  0  0  0  0  0  0  0  0  0  0
  -21.5973   -4.3067   24.7088 C   0  0  0  0  0  0  0  0  0  0  0  0
  -21.8700   -3.8284   23.4282 C   0  0  0  0  0  0  0  0  0  0  0  0
  -21.9144   -4.7056   22.3460 C   0  0  0  0  0  0  0  0  0  0  0  0
  -22.8194  -13.5263   21.1763 C   0  0  0  0  0  0  0  0  0  0  0  0
  -22.1559   -4.2206   21.1063 F   0  0  0  0  0  0  0  0  0  0  0  0
  -21.5628   -3.4510   25.7555 F   0  0  0  0  0  0  0  0  0  0  0  0
  -30.0261  -13.1803   20.4553 N   0  0  0  0  0  0  0  0  0  0  0  0
  -26.2911  -12.9356   20.3443 N   0  0  0  0  0  0  0  0  0  0  0  0
  -25.9236  -11.6675   20.5847 N   0  0  0  0  0  0  0  0  0  0  0  0
  -22.0708  -12.7905   22.0005 N   0  0  0  0  0  0  0  0  0  0  0  0
  -25.4117  -15.1773   20.4097 N   0  0  0  0  0  0  0  0  0  0  0  0
  -31.7916  -14.6724   20.0536 O   0  0  0  0  0  0  0  0  0  0  0  0
  -21.6670   -6.9022   21.4423 O   0  0  0  0  0  0  0  0  0  0  0  0
  -22.3946  -14.5564   20.6568 O   0  0  0  0  0  0  0  0  0  0  0  0
  -24.6048  -31.8614   23.2223 C   0  0  0  0  0  0  0  0  0  0  0  0
  -25.8822  -32.4841   23.8616 C   0  0  1  0  0  0  0  0  0  0  0  0
  -27.2536  -27.5042   20.1156 C   0  0  0  0  0  0  0  0  0  0  0  0
  -25.5726  -33.8762   24.2210 N   0  0  0  0  0  0  0  0  0  0  0  0
  -23.4066  -30.4859   21.5461 C   0  0  2  0  0  0  0  0  0  0  0  0
  -24.8467  -28.9636   20.1247 C   0  0  0  0  0  0  0  0  0  0  0  0
  -22.7412  -29.4652   22.5052 C   0  0  0  0  0  0  0  0  0  0  0  0
  -18.0167  -28.1302   22.8626 C   0  0  0  0  0  0  0  0  0  0  0  0
  -24.1342  -36.7390   23.2568 C   0  0  0  0  0  0  0  0  0  0  0  0
  -25.9141  -30.8882   21.3456 C   0  0  0  0  0  0  0  0  0  0  0  0
  -25.9930  -29.5029   20.7208 C   0  0  0  0  0  0  0  0  0  0  0  0
  -27.1758  -28.7612   20.7331 C   0  0  0  0  0  0  0  0  0  0  0  0
  -26.1032  -26.9836   19.5230 C   0  0  0  0  0  0  0  0  0  0  0  0
  -24.9097  -27.7011   19.5331 C   0  0  0  0  0  0  0  0  0  0  0  0
  -23.5715  -29.7899   20.1582 C   0  0  0  0  0  0  0  0  0  0  0  0
  -25.3990  -36.3212   24.0232 C   0  0  1  0  0  0  0  0  0  0  0  0
  -20.5793  -28.3813   23.1004 C   0  0  2  0  0  0  0  0  0  0  0  0
  -20.6548  -26.9392   22.5411 C   0  0  0  0  0  0  0  0  0  0  0  0
  -19.5615  -26.6407   21.5143 C   0  0  0  0  0  0  0  0  0  0  0  0
  -18.1797  -26.7818   22.1673 C   0  0  0  0  0  0  0  0  0  0  0  0
  -19.1385  -28.8769   23.2988 C   0  0  0  0  0  0  0  0  0  0  0  0
  -18.9183  -30.1286   23.8878 C   0  0  0  0  0  0  0  0  0  0  0  0
  -17.6396  -30.6493   24.0352 C   0  0  0  0  0  0  0  0  0  0  0  0
  -25.9153  -34.9582   23.4993 C   0  0  0  0  0  0  0  0  0  0  0  0
  -16.5415  -29.9068   23.6254 C   0  0  0  0  0  0  0  0  0  0  0  0
  -16.7331  -28.6521   23.0586 C   0  0  0  0  0  0  0  0  0  0  0  0
  -26.4583  -31.6439   25.0683 C   0  0  0  0  0  0  0  0  0  0  0  0
  -25.3807  -31.3179   26.1374 C   0  0  0  0  0  0  0  0  0  0  0  0
  -27.0530  -30.3024   24.5680 C   0  0  0  0  0  0  0  0  0  0  0  0
  -27.6014  -32.4281   25.7651 C   0  0  0  0  0  0  0  0  0  0  0  0
  -27.5629  -37.2220   24.8621 C   0  0  0  0  0  0  0  0  0  0  0  0
  -21.4133  -29.3375   22.3735 N   0  0  0  0  0  0  0  0  0  0  0  0
  -26.4706  -37.3372   23.9061 N   0  0  0  0  0  0  0  0  0  0  0  0
  -24.6674  -31.0544   22.1178 N   0  0  0  0  0  0  0  0  0  0  0  0
  -23.4259  -28.8150   23.2971 O   0  0  0  0  0  0  0  0  0  0  0  0
  -28.3948  -26.7345   20.0089 O   0  0  0  0  0  0  0  0  0  0  0  0
  -26.5870  -34.9065   22.4671 O   0  0  0  0  0  0  0  0  0  0  0  0
  -23.5365  -32.1254   23.7833 O   0  0  0  0  0  0  0  0  0  0  0  0
  -20.4340  -21.7996   23.4637 C   0  0  0  0  0  0  0  0  0  0  0  0
  -19.6206  -22.6713   24.1457 C   0  0  0  0  0  0  0  0  0  0  0  0
  -21.6401  -22.5051   23.2918 C   0  0  0  0  0  0  0  0  0  0  0  0
  -18.6765  -25.7177   24.4027 C   0  0  0  0  0  0  0  0  0  0  0  0
  -19.9109  -25.0586   25.0352 C   0  0  0  0  0  0  0  0  0  0  0  0
  -19.9010  -27.2530   22.8081 C   0  0  0  0  0  0  0  0  0  0  0  0
  -18.8412  -26.1619   22.9431 C   0  0  2  0  0  0  0  0  0  0  0  0
  -21.6007  -23.7305   23.8216 N   0  0  0  0  0  0  0  0  0  0  0  0
  -20.3600  -23.8019   24.3331 N   0  0  0  0  0  0  0  0  0  0  0  0
  -22.7815  -21.9867   22.6313 N   0  0  0  0  0  0  0  0  0  0  0  0
  -17.5482  -26.7122   22.4395 N   0  3  0  0  0  0  0  0  0  0  0  0
  -31.4485  -12.4701   19.0860 H   0  0  0  0  0  0  0  0  0  0  0  0
  -30.3970  -11.2460   19.6950 H   0  0  0  0  0  0  0  0  0  0  0  0
  -29.6870  -11.8204   17.4226 H   0  0  0  0  0  0  0  0  0  0  0  0
  -29.6375  -13.5326   17.8649 H   0  0  0  0  0  0  0  0  0  0  0  0
  -27.7830  -11.3650   18.7904 H   0  0  0  0  0  0  0  0  0  0  0  0
  -27.4028  -12.7801   17.8021 H   0  0  0  0  0  0  0  0  0  0  0  0
  -27.7353  -14.2503   19.6136 H   0  0  0  0  0  0  0  0  0  0  0  0
  -28.5890  -11.9550   21.3832 H   0  0  0  0  0  0  0  0  0  0  0  0
  -28.5005  -13.6134   21.8562 H   0  0  0  0  0  0  0  0  0  0  0  0
  -25.2399   -9.5495   22.4318 H   0  0  0  0  0  0  0  0  0  0  0  0
  -23.9663   -7.5070   22.7297 H   0  0  0  0  0  0  0  0  0  0  0  0
  -21.1515   -8.8641   19.9162 H   0  0  0  0  0  0  0  0  0  0  0  0
  -22.4016  -10.9115   19.6476 H   0  0  0  0  0  0  0  0  0  0  0  0
  -21.2319   -7.5552   23.9750 H   0  0  0  0  0  0  0  0  0  0  0  0
  -21.1589   -6.0228   25.8556 H   0  0  0  0  0  0  0  0  0  0  0  0
  -22.0396   -2.8212   23.2809 H   0  0  0  0  0  0  0  0  0  0  0  0
  -22.4401  -11.9703   22.4008 H   0  0  0  0  0  0  0  0  0  0  0  0
  -21.1493  -13.0679   22.2082 H   0  0  0  0  0  0  0  0  0  0  0  0
  -24.6538  -15.7807   20.5848 H   0  0  0  0  0  0  0  0  0  0  0  0
  -26.2762  -15.5453   20.1156 H   0  0  0  0  0  0  0  0  0  0  0  0
  -26.6778  -32.4663   23.1464 H   0  0  0  0  0  0  0  0  0  0  0  0
  -25.0747  -34.0282   25.0566 H   0  0  0  0  0  0  0  0  0  0  0  0
  -22.7881  -31.3489   21.4131 H   0  0  0  0  0  0  0  0  0  0  0  0
  -23.3854  -35.9823   23.3648 H   0  0  0  0  0  0  0  0  0  0  0  0
  -24.3696  -36.8624   22.2204 H   0  0  0  0  0  0  0  0  0  0  0  0
  -23.7669  -37.6632   23.6516 H   0  0  0  0  0  0  0  0  0  0  0  0
  -25.9445  -31.6237   20.5691 H   0  0  0  0  0  0  0  0  0  0  0  0
  -26.7436  -31.0079   22.0108 H   0  0  0  0  0  0  0  0  0  0  0  0
  -28.0090  -29.1452   21.2057 H   0  0  0  0  0  0  0  0  0  0  0  0
  -26.1369  -26.0560   19.0719 H   0  0  0  0  0  0  0  0  0  0  0  0
  -24.0652  -27.2961   19.0997 H   0  0  0  0  0  0  0  0  0  0  0  0
  -23.6156  -30.5365   19.3930 H   0  0  0  0  0  0  0  0  0  0  0  0
  -22.7355  -29.1425   19.9945 H   0  0  0  0  0  0  0  0  0  0  0  0
  -25.1353  -36.2335   25.0565 H   0  0  0  0  0  0  0  0  0  0  0  0
  -21.0070  -28.3206   24.0793 H   0  0  0  0  0  0  0  0  0  0  0  0
  -20.5555  -26.2518   23.3550 H   0  0  0  0  0  0  0  0  0  0  0  0
  -21.5974  -26.8362   22.0454 H   0  0  0  0  0  0  0  0  0  0  0  0
  -19.6810  -25.6422   21.1488 H   0  0  0  0  0  0  0  0  0  0  0  0
  -19.6406  -27.3343   20.7034 H   0  0  0  0  0  0  0  0  0  0  0  0
  -17.4282  -26.6888   21.4113 H   0  0  0  0  0  0  0  0  0  0  0  0
  -18.0803  -26.0130   22.9049 H   0  0  0  0  0  0  0  0  0  0  0  0
  -19.7265  -30.6774   24.2204 H   0  0  0  0  0  0  0  0  0  0  0  0
  -17.5064  -31.5856   24.4483 H   0  0  0  0  0  0  0  0  0  0  0  0
  -15.5878  -30.2839   23.7407 H   0  0  0  0  0  0  0  0  0  0  0  0
  -15.9120  -28.0941   22.7766 H   0  0  0  0  0  0  0  0  0  0  0  0
  -24.5787  -30.7757   25.6817 H   0  0  0  0  0  0  0  0  0  0  0  0
  -25.0041  -32.2289   26.5536 H   0  0  0  0  0  0  0  0  0  0  0  0
  -25.8166  -30.7245   26.9138 H   0  0  0  0  0  0  0  0  0  0  0  0
  -26.2892  -29.7335   24.0803 H   0  0  0  0  0  0  0  0  0  0  0  0
  -27.4336  -29.7484   25.4006 H   0  0  0  0  0  0  0  0  0  0  0  0
  -27.8466  -30.4994   23.8779 H   0  0  0  0  0  0  0  0  0  0  0  0
  -27.2251  -33.3632   26.1242 H   0  0  0  0  0  0  0  0  0  0  0  0
  -28.3902  -32.6065   25.0645 H   0  0  0  0  0  0  0  0  0  0  0  0
  -27.9772  -31.8555   26.5872 H   0  0  0  0  0  0  0  0  0  0  0  0
  -28.2744  -38.0016   24.6863 H   0  0  0  0  0  0  0  0  0  0  0  0
  -28.0396  -36.2711   24.7461 H   0  0  0  0  0  0  0  0  0  0  0  0
  -27.1773  -37.3087   25.8564 H   0  0  0  0  0  0  0  0  0  0  0  0
  -20.9627  -29.9365   21.7352 H   0  0  0  0  0  0  0  0  0  0  0  0
  -26.0447  -38.2561   24.0273 H   0  0  0  0  0  0  0  0  0  0  0  0
  -20.2111  -20.8426   23.1482 H   0  0  0  0  0  0  0  0  0  0  0  0
  -18.6496  -22.5049   24.4531 H   0  0  0  0  0  0  0  0  0  0  0  0
  -18.4291  -26.5810   24.9843 H   0  0  0  0  0  0  0  0  0  0  0  0
  -17.9128  -24.9683   24.3979 H   0  0  0  0  0  0  0  0  0  0  0  0
  -19.6785  -24.8127   26.0503 H   0  0  0  0  0  0  0  0  0  0  0  0
  -20.7133  -25.7621   24.9562 H   0  0  0  0  0  0  0  0  0  0  0  0
  -19.9758  -27.6667   23.7920 H   0  0  0  0  0  0  0  0  0  0  0  0
  -19.4973  -27.7336   21.9415 H   0  0  0  0  0  0  0  0  0  0  0  0
  -19.1427  -25.3058   22.3764 H   0  0  0  0  0  0  0  0  0  0  0  0
  -22.9919  -22.6926   21.9781 H   0  0  0  0  0  0  0  0  0  0  0  0
  -17.2850  -27.5254   22.9961 H   0  0  0  0  0  0  0  0  0  0  0  0
  -16.8228  -25.9992   22.5151 H   0  0  0  0  0  0  0  0  0  0  0  0
  -17.6533  -26.9880   21.4631 H   0  0  0  0  0  0  0  0  0  0  0  0
  1 25  1  0  0  0  0
  1 30  2  0  0  0  0
  1 80  1  0  0  0  0
  2  3  1  0  0  0  0
  2 25  1  0  0  0  0
  2 82  1  0  0  0  0
  2 83  1  0  0  0  0
  3  4  1  0  0  0  0
  3 84  1  0  0  0  0
  3 85  1  0  0  0  0
  4  5  1  0  0  0  0
  4 86  1  0  0  0  0
  4 87  1  0  0  0  0
  5  6  1  0  0  0  0
  5 26  1  0  0  0  0
  5 88  1  6  0  0  0
  6 25  1  0  0  0  0
  6 89  1  0  0  0  0
  6 90  1  0  0  0  0
  7  8  2  0  0  0  0
  7 26  1  0  0  0  0
  7 29  1  0  0  0  0
  8  9  1  0  0  0  0
  8 22  1  0  0  0  0
  9 10  1  0  0  0  0
  9 27  2  0  0  0  0
 10 11  2  0  0  0  0
 10 15  1  0  0  0  0
 11 12  1  0  0  0  0
 11 91  1  0  0  0  0
 12 13  2  0  0  0  0
 12 92  1  0  0  0  0
 13 14  1  0  0  0  0
 13 31  1  0  0  0  0
 14 15  2  0  0  0  0
 14 93  1  0  0  0  0
 15 94  1  0  0  0  0
 16 17  2  0  0  0  0
 16 21  1  0  0  0  0
 16 31  1  0  0  0  0
 17 18  1  0  0  0  0
 17 95  1  0  0  0  0
 18 19  2  0  0  0  0
 18 96  1  0  0  0  0
 19 20  1  0  0  0  0
 19 24  1  0  0  0  0
 20 21  2  0  0  0  0
 20 97  1  0  0  0  0
 21 23  1  0  0  0  0
 22 28  1  0  0  0  0
 22 32  2  0  0  0  0
 26 27  1  0  0  0  0
 28 98  1  0  0  0  0
 28 99  1  0  0  0  0
 29100  1  0  0  0  0
 29101  1  0  0  0  0
 33 34  1  0  0  0  0
 33 66  1  0  0  0  0
 33 70  2  0  0  0  0
 34 36  1  0  0  0  0
 34 59  1  0  0  0  0
 34102  1  6  0  0  0
 35 44  2  0  0  0  0
 35 45  1  0  0  0  0
 35 68  1  0  0  0  0
 36 56  1  0  0  0  0
 36103  1  0  0  0  0
 37 39  1  0  0  0  0
 37 47  1  0  0  0  0
 37 66  1  0  0  0  0
 37104  1  6  0  0  0
 38 43  2  0  0  0  0
 38 46  1  0  0  0  0
 38 47  1  0  0  0  0
 39 64  1  0  0  0  0
 39 67  2  0  0  0  0
 40 52  1  0  0  0  0
 40 53  2  0  0  0  0
 40 58  1  0  0  0  0
 41105  1  0  0  0  0
 41106  1  0  0  0  0
 41107  1  0  0  0  0
 42 43  1  0  0  0  0
 42 66  1  0  0  0  0
 42108  1  0  0  0  0
 42109  1  0  0  0  0
 43 44  1  0  0  0  0
 44110  1  0  0  0  0
 45 46  2  0  0  0  0
 45111  1  0  0  0  0
 46112  1  0  0  0  0
 47113  1  0  0  0  0
 47114  1  0  0  0  0
 48 41  1  0  0  0  0
 48 56  1  0  0  0  0
 48 65  1  0  0  0  0
 48115  1  1  0  0  0
 49 50  1  0  0  0  0
 49 53  1  0  0  0  0
 49 64  1  0  0  0  0
 49116  1  1  0  0  0
 50 51  1  0  0  0  0
 50117  1  0  0  0  0
 50118  1  0  0  0  0
 51 52  1  0  0  0  0
 51119  1  0  0  0  0
 51120  1  0  0  0  0
 52121  1  0  0  0  0
 52122  1  0  0  0  0
 53 54  1  0  0  0  0
 54 55  2  0  0  0  0
 54123  1  0  0  0  0
 55 57  1  0  0  0  0
 55124  1  0  0  0  0
 56 69  2  0  0  0  0
 57 58  2  0  0  0  0
 57125  1  0  0  0  0
 58126  1  0  0  0  0
 59 60  1  0  0  0  0
 59 61  1  0  0  0  0
 59 62  1  0  0  0  0
 60127  1  0  0  0  0
 60128  1  0  0  0  0
 60129  1  0  0  0  0
 61130  1  0  0  0  0
 61131  1  0  0  0  0
 61132  1  0  0  0  0
 62133  1  0  0  0  0
 62134  1  0  0  0  0
 62135  1  0  0  0  0
 63 65  1  0  0  0  0
 63136  1  0  0  0  0
 63137  1  0  0  0  0
 63138  1  0  0  0  0
 64139  1  0  0  0  0
 65140  1  0  0  0  0
 68 76  1  0  0  0  0
 71 72  2  0  0  0  0
 71 73  1  0  0  0  0
 71141  1  0  0  0  0
 72 79  1  0  0  0  0
 72142  1  0  0  0  0
 73 78  2  0  0  0  0
 73 80  1  0  0  0  0
 74 75  1  0  0  0  0
 74 77  1  0  0  0  0
 74143  1  0  0  0  0
 74144  1  0  0  0  0
 75 79  1  0  0  0  0
 75145  1  0  0  0  0
 75146  1  0  0  0  0
 76 77  1  0  0  0  0
 76147  1  0  0  0  0
 76148  1  0  0  0  0
 77 81  1  0  0  0  0
 77149  1  6  0  0  0
 78 79  1  0  0  0  0
 80150  1  0  0  0  0
 81151  1  0  0  0  0
 81152  1  0  0  0  0
 81153  1  0  0  0  0
M  ISO  4   1 100  68 101  76 101  80 100
M  CHG  1  81   1
M  END
$$$$
37
 OpenBabel04052305473D

151159  0  0  0  0  0  0  0  0999 V2000
  -30.7652  -14.3608   20.6636 C   0  0  0  0  0  0  0  0  0  0  0  0
  -30.4392  -12.2669   19.3775 C   0  0  0  0  0  0  0  0  0  0  0  0
  -29.4791  -12.5281   18.1977 C   0  0  0  0  0  0  0  0  0  0  0  0
  -27.9985  -12.3963   18.6038 C   0  0  0  0  0  0  0  0  0  0  0  0
  -27.6639  -13.2170   19.8820 C   0  0  2  0  0  0  0  0  0  0  0  0
  -28.6795  -12.9602   21.0279 C   0  0  0  0  0  0  0  0  0  0  0  0
  -25.2633  -13.8245   20.5754 C   0  0  0  0  0  0  0  0  0  0  0  0
  -24.1645  -13.0409   20.9408 C   0  0  0  0  0  0  0  0  0  0  0  0
  -24.6400  -11.7009   20.8697 C   0  0  0  0  0  0  0  0  0  0  0  0
  -23.9005  -10.4085   21.0420 C   0  0  0  0  0  0  0  0  0  0  0  0
  -24.3588   -9.4123   21.9123 C   0  0  0  0  0  0  0  0  0  0  0  0
  -23.6296   -8.2350   22.0803 C   0  0  0  0  0  0  0  0  0  0  0  0
  -22.4385   -8.0419   21.3657 C   0  0  0  0  0  0  0  0  0  0  0  0
  -22.0103   -9.0167   20.4678 C   0  0  0  0  0  0  0  0  0  0  0  0
  -22.7317  -10.1925   20.3102 C   0  0  0  0  0  0  0  0  0  0  0  0
  -21.6857   -6.0709   22.5391 C   0  0  0  0  0  0  0  0  0  0  0  0
  -21.4064   -6.5490   23.8264 C   0  0  0  0  0  0  0  0  0  0  0  0
  -21.3635   -5.6677   24.9085 C   0  0  0  0  0  0  0  0  0  0  0  0
  -21.5973   -4.3067   24.7088 C   0  0  0  0  0  0  0  0  0  0  0  0
  -21.8700   -3.8284   23.4282 C   0  0  0  0  0  0  0  0  0  0  0  0
  -21.9144   -4.7056   22.3460 C   0  0  0  0  0  0  0  0  0  0  0  0
  -22.8194  -13.5263   21.1763 C   0  0  0  0  0  0  0  0  0  0  0  0
  -22.1559   -4.2206   21.1063 F   0  0  0  0  0  0  0  0  0  0  0  0
  -21.5628   -3.4510   25.7555 F   0  0  0  0  0  0  0  0  0  0  0  0
  -30.0261  -13.1803   20.4553 N   0  0  0  0  0  0  0  0  0  0  0  0
  -26.2911  -12.9356   20.3443 N   0  0  0  0  0  0  0  0  0  0  0  0
  -25.9236  -11.6675   20.5847 N   0  0  0  0  0  0  0  0  0  0  0  0
  -22.0708  -12.7905   22.0005 N   0  0  0  0  0  0  0  0  0  0  0  0
  -25.4117  -15.1773   20.4097 N   0  0  0  0  0  0  0  0  0  0  0  0
  -31.7916  -14.6724   20.0536 O   0  0  0  0  0  0  0  0  0  0  0  0
  -21.6670   -6.9022   21.4423 O   0  0  0  0  0  0  0  0  0  0  0  0
  -22.3946  -14.5564   20.6568 O   0  0  0  0  0  0  0  0  0  0  0  0
  -24.6048  -31.8614   23.2223 C   0  0  0  0  0  0  0  0  0  0  0  0
  -25.8822  -32.4841   23.8616 C   0  0  1  0  0  0  0  0  0  0  0  0
  -27.2536  -27.5042   20.1156 C   0  0  0  0  0  0  0  0  0  0  0  0
  -25.5726  -33.8762   24.2210 N   0  0  0  0  0  0  0  0  0  0  0  0
  -23.4066  -30.4859   21.5461 C   0  0  2  0  0  0  0  0  0  0  0  0
  -24.8467  -28.9636   20.1247 C   0  0  0  0  0  0  0  0  0  0  0  0
  -22.7412  -29.4652   22.5052 C   0  0  0  0  0  0  0  0  0  0  0  0
  -18.0167  -28.1302   22.8626 C   0  0  0  0  0  0  0  0  0  0  0  0
  -24.1342  -36.7390   23.2568 C   0  0  0  0  0  0  0  0  0  0  0  0
  -25.9141  -30.8882   21.3456 C   0  0  0  0  0  0  0  0  0  0  0  0
  -25.9930  -29.5029   20.7208 C   0  0  0  0  0  0  0  0  0  0  0  0
  -27.1758  -28.7612   20.7331 C   0  0  0  0  0  0  0  0  0  0  0  0
  -26.1032  -26.9836   19.5230 C   0  0  0  0  0  0  0  0  0  0  0  0
  -24.9097  -27.7011   19.5331 C   0  0  0  0  0  0  0  0  0  0  0  0
  -23.5715  -29.7899   20.1582 C   0  0  0  0  0  0  0  0  0  0  0  0
  -25.3990  -36.3212   24.0232 C   0  0  1  0  0  0  0  0  0  0  0  0
  -20.5793  -28.3813   23.1004 C   0  0  2  0  0  0  0  0  0  0  0  0
  -20.6548  -26.9392   22.5411 C   0  0  0  0  0  0  0  0  0  0  0  0
  -19.5615  -26.6407   21.5143 C   0  0  0  0  0  0  0  0  0  0  0  0
  -18.1797  -26.7818   22.1673 C   0  0  0  0  0  0  0  0  0  0  0  0
  -19.1385  -28.8769   23.2988 C   0  0  0  0  0  0  0  0  0  0  0  0
  -18.9183  -30.1286   23.8878 C   0  0  0  0  0  0  0  0  0  0  0  0
  -17.6396  -30.6493   24.0352 C   0  0  0  0  0  0  0  0  0  0  0  0
  -25.9153  -34.9582   23.4993 C   0  0  0  0  0  0  0  0  0  0  0  0
  -16.5415  -29.9068   23.6254 C   0  0  0  0  0  0  0  0  0  0  0  0
  -16.7331  -28.6521   23.0586 C   0  0  0  0  0  0  0  0  0  0  0  0
  -26.4583  -31.6439   25.0683 C   0  0  0  0  0  0  0  0  0  0  0  0
  -25.3807  -31.3179   26.1374 C   0  0  0  0  0  0  0  0  0  0  0  0
  -27.0530  -30.3024   24.5680 C   0  0  0  0  0  0  0  0  0  0  0  0
  -27.6014  -32.4281   25.7651 C   0  0  0  0  0  0  0  0  0  0  0  0
  -27.5629  -37.2220   24.8621 C   0  0  0  0  0  0  0  0  0  0  0  0
  -21.4133  -29.3375   22.3735 N   0  0  0  0  0  0  0  0  0  0  0  0
  -26.4706  -37.3372   23.9061 N   0  0  0  0  0  0  0  0  0  0  0  0
  -24.6674  -31.0544   22.1178 N   0  0  0  0  0  0  0  0  0  0  0  0
  -23.4259  -28.8150   23.2971 O   0  0  0  0  0  0  0  0  0  0  0  0
  -28.3948  -26.7345   20.0089 O   0  0  0  0  0  0  0  0  0  0  0  0
  -26.5870  -34.9065   22.4671 O   0  0  0  0  0  0  0  0  0  0  0  0
  -23.5365  -32.1254   23.7833 O   0  0  0  0  0  0  0  0  0  0  0  0
  -27.4567  -20.2079   22.0509 C   0  0  0  0  0  0  0  0  0  0  0  0
  -28.4342  -19.6485   21.2549 C   0  0  0  0  0  0  0  0  0  0  0  0
  -29.1132  -21.7330   21.1950 C   0  0  0  0  0  0  0  0  0  0  0  0
  -29.9383  -22.9216   20.8502 C   0  0  0  0  0  0  0  0  0  0  0  0
  -31.5345  -25.3658   21.9915 C   0  0  0  0  0  0  0  0  0  0  0  0
  -29.5388  -26.4729   20.9286 C   0  0  0  0  0  0  0  0  0  0  0  0
  -30.4273  -25.2345   20.9564 C   0  0  2  0  0  0  0  0  0  0  0  0
  -29.3847  -20.5216   20.7629 N   0  0  0  0  0  0  0  0  0  0  0  0
  -29.6045  -24.0712   21.3139 N   0  0  0  0  0  0  0  0  0  0  0  0
  -31.0195  -22.6857   20.0254 N   0  0  0  0  0  0  0  0  0  0  0  0
  -28.4923  -18.2686   20.9384 N   0  0  0  0  0  0  0  0  0  0  0  0
  -27.7298  -21.8947   22.1976 S   0  0  0  0  0  0  0  0  0  0  0  0
  -31.4485  -12.4701   19.0860 H   0  0  0  0  0  0  0  0  0  0  0  0
  -30.3970  -11.2460   19.6950 H   0  0  0  0  0  0  0  0  0  0  0  0
  -29.6870  -11.8204   17.4226 H   0  0  0  0  0  0  0  0  0  0  0  0
  -29.6375  -13.5326   17.8649 H   0  0  0  0  0  0  0  0  0  0  0  0
  -27.7830  -11.3650   18.7904 H   0  0  0  0  0  0  0  0  0  0  0  0
  -27.4028  -12.7801   17.8021 H   0  0  0  0  0  0  0  0  0  0  0  0
  -27.7353  -14.2503   19.6136 H   0  0  0  0  0  0  0  0  0  0  0  0
  -28.5890  -11.9550   21.3832 H   0  0  0  0  0  0  0  0  0  0  0  0
  -28.5005  -13.6134   21.8562 H   0  0  0  0  0  0  0  0  0  0  0  0
  -25.2399   -9.5495   22.4318 H   0  0  0  0  0  0  0  0  0  0  0  0
  -23.9663   -7.5070   22.7297 H   0  0  0  0  0  0  0  0  0  0  0  0
  -21.1515   -8.8641   19.9162 H   0  0  0  0  0  0  0  0  0  0  0  0
  -22.4016  -10.9115   19.6476 H   0  0  0  0  0  0  0  0  0  0  0  0
  -21.2319   -7.5552   23.9750 H   0  0  0  0  0  0  0  0  0  0  0  0
  -21.1589   -6.0228   25.8556 H   0  0  0  0  0  0  0  0  0  0  0  0
  -22.0396   -2.8212   23.2809 H   0  0  0  0  0  0  0  0  0  0  0  0
  -22.4401  -11.9703   22.4008 H   0  0  0  0  0  0  0  0  0  0  0  0
  -21.1493  -13.0679   22.2082 H   0  0  0  0  0  0  0  0  0  0  0  0
  -24.6538  -15.7807   20.5848 H   0  0  0  0  0  0  0  0  0  0  0  0
  -26.2762  -15.5453   20.1156 H   0  0  0  0  0  0  0  0  0  0  0  0
  -26.6778  -32.4663   23.1464 H   0  0  0  0  0  0  0  0  0  0  0  0
  -25.0747  -34.0282   25.0566 H   0  0  0  0  0  0  0  0  0  0  0  0
  -22.7881  -31.3489   21.4131 H   0  0  0  0  0  0  0  0  0  0  0  0
  -23.3854  -35.9823   23.3648 H   0  0  0  0  0  0  0  0  0  0  0  0
  -24.3696  -36.8624   22.2204 H   0  0  0  0  0  0  0  0  0  0  0  0
  -23.7669  -37.6632   23.6516 H   0  0  0  0  0  0  0  0  0  0  0  0
  -25.9445  -31.6237   20.5691 H   0  0  0  0  0  0  0  0  0  0  0  0
  -26.7436  -31.0079   22.0108 H   0  0  0  0  0  0  0  0  0  0  0  0
  -28.0090  -29.1452   21.2057 H   0  0  0  0  0  0  0  0  0  0  0  0
  -26.1369  -26.0560   19.0719 H   0  0  0  0  0  0  0  0  0  0  0  0
  -24.0652  -27.2961   19.0997 H   0  0  0  0  0  0  0  0  0  0  0  0
  -23.6156  -30.5365   19.3930 H   0  0  0  0  0  0  0  0  0  0  0  0
  -22.7355  -29.1425   19.9945 H   0  0  0  0  0  0  0  0  0  0  0  0
  -25.1353  -36.2335   25.0565 H   0  0  0  0  0  0  0  0  0  0  0  0
  -21.0070  -28.3206   24.0793 H   0  0  0  0  0  0  0  0  0  0  0  0
  -20.5555  -26.2518   23.3550 H   0  0  0  0  0  0  0  0  0  0  0  0
  -21.5974  -26.8362   22.0454 H   0  0  0  0  0  0  0  0  0  0  0  0
  -19.6810  -25.6422   21.1488 H   0  0  0  0  0  0  0  0  0  0  0  0
  -19.6406  -27.3343   20.7034 H   0  0  0  0  0  0  0  0  0  0  0  0
  -17.4282  -26.6888   21.4113 H   0  0  0  0  0  0  0  0  0  0  0  0
  -18.0803  -26.0130   22.9049 H   0  0  0  0  0  0  0  0  0  0  0  0
  -19.7265  -30.6774   24.2204 H   0  0  0  0  0  0  0  0  0  0  0  0
  -17.5064  -31.5856   24.4483 H   0  0  0  0  0  0  0  0  0  0  0  0
  -15.5878  -30.2839   23.7407 H   0  0  0  0  0  0  0  0  0  0  0  0
  -15.9120  -28.0941   22.7766 H   0  0  0  0  0  0  0  0  0  0  0  0
  -24.5787  -30.7757   25.6817 H   0  0  0  0  0  0  0  0  0  0  0  0
  -25.0041  -32.2289   26.5536 H   0  0  0  0  0  0  0  0  0  0  0  0
  -25.8166  -30.7245   26.9138 H   0  0  0  0  0  0  0  0  0  0  0  0
  -26.2892  -29.7335   24.0803 H   0  0  0  0  0  0  0  0  0  0  0  0
  -27.4336  -29.7484   25.4006 H   0  0  0  0  0  0  0  0  0  0  0  0
  -27.8466  -30.4994   23.8779 H   0  0  0  0  0  0  0  0  0  0  0  0
  -27.2251  -33.3632   26.1242 H   0  0  0  0  0  0  0  0  0  0  0  0
  -28.3902  -32.6065   25.0645 H   0  0  0  0  0  0  0  0  0  0  0  0
  -27.9772  -31.8555   26.5872 H   0  0  0  0  0  0  0  0  0  0  0  0
  -28.2744  -38.0016   24.6863 H   0  0  0  0  0  0  0  0  0  0  0  0
  -28.0396  -36.2711   24.7461 H   0  0  0  0  0  0  0  0  0  0  0  0
  -27.1773  -37.3087   25.8564 H   0  0  0  0  0  0  0  0  0  0  0  0
  -20.9627  -29.9365   21.7352 H   0  0  0  0  0  0  0  0  0  0  0  0
  -26.0447  -38.2561   24.0273 H   0  0  0  0  0  0  0  0  0  0  0  0
  -26.6797  -19.6906   22.4910 H   0  0  0  0  0  0  0  0  0  0  0  0
  -32.1487  -26.2085   21.7518 H   0  0  0  0  0  0  0  0  0  0  0  0
  -32.1312  -24.4776   21.9901 H   0  0  0  0  0  0  0  0  0  0  0  0
  -31.1023  -25.5036   22.9606 H   0  0  0  0  0  0  0  0  0  0  0  0
  -30.2106  -27.2911   20.7730 H   0  0  0  0  0  0  0  0  0  0  0  0
  -28.9969  -26.3168   21.8379 H   0  0  0  0  0  0  0  0  0  0  0  0
  -30.8707  -25.1204   19.9893 H   0  0  0  0  0  0  0  0  0  0  0  0
  -31.2090  -21.7721   19.7115 H   0  0  0  0  0  0  0  0  0  0  0  0
  -31.6012  -23.4311   19.7510 H   0  0  0  0  0  0  0  0  0  0  0  0
  -27.5870  -18.0505   20.6188 H   0  0  0  0  0  0  0  0  0  0  0  0
  1 25  1  0  0  0  0
  1 30  2  0  0  0  0
  1 81  1  0  0  0  0
  2  3  1  0  0  0  0
  2 25  1  0  0  0  0
  2 83  1  0  0  0  0
  2 84  1  0  0  0  0
  3  4  1  0  0  0  0
  3 85  1  0  0  0  0
  3 86  1  0  0  0  0
  4  5  1  0  0  0  0
  4 87  1  0  0  0  0
  4 88  1  0  0  0  0
  5  6  1  0  0  0  0
  5 26  1  0  0  0  0
  5 89  1  6  0  0  0
  6 25  1  0  0  0  0
  6 90  1  0  0  0  0
  6 91  1  0  0  0  0
  7  8  2  0  0  0  0
  7 26  1  0  0  0  0
  7 29  1  0  0  0  0
  8  9  1  0  0  0  0
  8 22  1  0  0  0  0
  9 10  1  0  0  0  0
  9 27  2  0  0  0  0
 10 11  2  0  0  0  0
 10 15  1  0  0  0  0
 11 12  1  0  0  0  0
 11 92  1  0  0  0  0
 12 13  2  0  0  0  0
 12 93  1  0  0  0  0
 13 14  1  0  0  0  0
 13 31  1  0  0  0  0
 14 15  2  0  0  0  0
 14 94  1  0  0  0  0
 15 95  1  0  0  0  0
 16 17  2  0  0  0  0
 16 21  1  0  0  0  0
 16 31  1  0  0  0  0
 17 18  1  0  0  0  0
 17 96  1  0  0  0  0
 18 19  2  0  0  0  0
 18 97  1  0  0  0  0
 19 20  1  0  0  0  0
 19 24  1  0  0  0  0
 20 21  2  0  0  0  0
 20 98  1  0  0  0  0
 21 23  1  0  0  0  0
 22 28  1  0  0  0  0
 22 32  2  0  0  0  0
 26 27  1  0  0  0  0
 28 99  1  0  0  0  0
 28100  1  0  0  0  0
 29101  1  0  0  0  0
 29102  1  0  0  0  0
 33 34  1  0  0  0  0
 33 66  1  0  0  0  0
 33 70  2  0  0  0  0
 34 36  1  0  0  0  0
 34 59  1  0  0  0  0
 34103  1  6  0  0  0
 35 44  2  0  0  0  0
 35 45  1  0  0  0  0
 35 68  1  0  0  0  0
 36 56  1  0  0  0  0
 36104  1  0  0  0  0
 37 39  1  0  0  0  0
 37 47  1  0  0  0  0
 37 66  1  0  0  0  0
 37105  1  6  0  0  0
 38 43  2  0  0  0  0
 38 46  1  0  0  0  0
 38 47  1  0  0  0  0
 39 64  1  0  0  0  0
 39 67  2  0  0  0  0
 40 52  1  0  0  0  0
 40 53  2  0  0  0  0
 40 58  1  0  0  0  0
 41106  1  0  0  0  0
 41107  1  0  0  0  0
 41108  1  0  0  0  0
 42 43  1  0  0  0  0
 42 66  1  0  0  0  0
 42109  1  0  0  0  0
 42110  1  0  0  0  0
 43 44  1  0  0  0  0
 44111  1  0  0  0  0
 45 46  2  0  0  0  0
 45112  1  0  0  0  0
 46113  1  0  0  0  0
 47114  1  0  0  0  0
 47115  1  0  0  0  0
 48 41  1  0  0  0  0
 48 56  1  0  0  0  0
 48 65  1  0  0  0  0
 48116  1  1  0  0  0
 49 50  1  0  0  0  0
 49 53  1  0  0  0  0
 49 64  1  0  0  0  0
 49117  1  1  0  0  0
 50 51  1  0  0  0  0
 50118  1  0  0  0  0
 50119  1  0  0  0  0
 51 52  1  0  0  0  0
 51120  1  0  0  0  0
 51121  1  0  0  0  0
 52122  1  0  0  0  0
 52123  1  0  0  0  0
 53 54  1  0  0  0  0
 54 55  2  0  0  0  0
 54124  1  0  0  0  0
 55 57  1  0  0  0  0
 55125  1  0  0  0  0
 56 69  2  0  0  0  0
 57 58  2  0  0  0  0
 57126  1  0  0  0  0
 58127  1  0  0  0  0
 59 60  1  0  0  0  0
 59 61  1  0  0  0  0
 59 62  1  0  0  0  0
 60128  1  0  0  0  0
 60129  1  0  0  0  0
 60130  1  0  0  0  0
 61131  1  0  0  0  0
 61132  1  0  0  0  0
 61133  1  0  0  0  0
 62134  1  0  0  0  0
 62135  1  0  0  0  0
 62136  1  0  0  0  0
 63 65  1  0  0  0  0
 63137  1  0  0  0  0
 63138  1  0  0  0  0
 63139  1  0  0  0  0
 64140  1  0  0  0  0
 65141  1  0  0  0  0
 68 76  1  0  0  0  0
 71 72  2  0  0  0  0
 71 82  1  0  0  0  0
 71142  1  0  0  0  0
 72 78  1  0  0  0  0
 72 81  1  0  0  0  0
 73 74  1  0  0  0  0
 73 78  2  0  0  0  0
 73 82  1  0  0  0  0
 74 79  2  0  0  0  0
 74 80  1  0  0  0  0
 75143  1  0  0  0  0
 75144  1  0  0  0  0
 75145  1  0  0  0  0
 76 77  1  0  0  0  0
 76146  1  0  0  0  0
 76147  1  0  0  0  0
 77 75  1  0  0  0  0
 77 79  1  0  0  0  0
 77148  1  6  0  0  0
 80149  1  0  0  0  0
 80150  1  0  0  0  0
 81151  1  0  0  0  0
M  ISO  4   1 100  68 101  76 101  81 100
M  END
$$$$
38
 OpenBabel04052305473D

151159  0  0  0  0  0  0  0  0999 V2000
  -30.7652  -14.3608   20.6636 C   0  0  0  0  0  0  0  0  0  0  0  0
  -30.4392  -12.2669   19.3775 C   0  0  0  0  0  0  0  0  0  0  0  0
  -29.4791  -12.5281   18.1977 C   0  0  0  0  0  0  0  0  0  0  0  0
  -27.9985  -12.3963   18.6038 C   0  0  0  0  0  0  0  0  0  0  0  0
  -27.6639  -13.2170   19.8820 C   0  0  2  0  0  0  0  0  0  0  0  0
  -28.6795  -12.9602   21.0279 C   0  0  0  0  0  0  0  0  0  0  0  0
  -25.2633  -13.8245   20.5754 C   0  0  0  0  0  0  0  0  0  0  0  0
  -24.1645  -13.0409   20.9408 C   0  0  0  0  0  0  0  0  0  0  0  0
  -24.6400  -11.7009   20.8697 C   0  0  0  0  0  0  0  0  0  0  0  0
  -23.9005  -10.4085   21.0420 C   0  0  0  0  0  0  0  0  0  0  0  0
  -24.3588   -9.4123   21.9123 C   0  0  0  0  0  0  0  0  0  0  0  0
  -23.6296   -8.2350   22.0803 C   0  0  0  0  0  0  0  0  0  0  0  0
  -22.4385   -8.0419   21.3657 C   0  0  0  0  0  0  0  0  0  0  0  0
  -22.0103   -9.0167   20.4678 C   0  0  0  0  0  0  0  0  0  0  0  0
  -22.7317  -10.1925   20.3102 C   0  0  0  0  0  0  0  0  0  0  0  0
  -21.6857   -6.0709   22.5391 C   0  0  0  0  0  0  0  0  0  0  0  0
  -21.4064   -6.5490   23.8264 C   0  0  0  0  0  0  0  0  0  0  0  0
  -21.3635   -5.6677   24.9085 C   0  0  0  0  0  0  0  0  0  0  0  0
  -21.5973   -4.3067   24.7088 C   0  0  0  0  0  0  0  0  0  0  0  0
  -21.8700   -3.8284   23.4282 C   0  0  0  0  0  0  0  0  0  0  0  0
  -21.9144   -4.7056   22.3460 C   0  0  0  0  0  0  0  0  0  0  0  0
  -22.8194  -13.5263   21.1763 C   0  0  0  0  0  0  0  0  0  0  0  0
  -22.1559   -4.2206   21.1063 F   0  0  0  0  0  0  0  0  0  0  0  0
  -21.5628   -3.4510   25.7555 F   0  0  0  0  0  0  0  0  0  0  0  0
  -30.0261  -13.1803   20.4553 N   0  0  0  0  0  0  0  0  0  0  0  0
  -26.2911  -12.9356   20.3443 N   0  0  0  0  0  0  0  0  0  0  0  0
  -25.9236  -11.6675   20.5847 N   0  0  0  0  0  0  0  0  0  0  0  0
  -22.0708  -12.7905   22.0005 N   0  0  0  0  0  0  0  0  0  0  0  0
  -25.4117  -15.1773   20.4097 N   0  0  0  0  0  0  0  0  0  0  0  0
  -31.7916  -14.6724   20.0536 O   0  0  0  0  0  0  0  0  0  0  0  0
  -21.6670   -6.9022   21.4423 O   0  0  0  0  0  0  0  0  0  0  0  0
  -22.3946  -14.5564   20.6568 O   0  0  0  0  0  0  0  0  0  0  0  0
  -24.6048  -31.8614   23.2223 C   0  0  0  0  0  0  0  0  0  0  0  0
  -25.8822  -32.4841   23.8616 C   0  0  1  0  0  0  0  0  0  0  0  0
  -27.2536  -27.5042   20.1156 C   0  0  0  0  0  0  0  0  0  0  0  0
  -25.5726  -33.8762   24.2210 N   0  0  0  0  0  0  0  0  0  0  0  0
  -23.4066  -30.4859   21.5461 C   0  0  2  0  0  0  0  0  0  0  0  0
  -24.8467  -28.9636   20.1247 C   0  0  0  0  0  0  0  0  0  0  0  0
  -22.7412  -29.4652   22.5052 C   0  0  0  0  0  0  0  0  0  0  0  0
  -18.0167  -28.1302   22.8626 C   0  0  0  0  0  0  0  0  0  0  0  0
  -24.1342  -36.7390   23.2568 C   0  0  0  0  0  0  0  0  0  0  0  0
  -25.9141  -30.8882   21.3456 C   0  0  0  0  0  0  0  0  0  0  0  0
  -25.9930  -29.5029   20.7208 C   0  0  0  0  0  0  0  0  0  0  0  0
  -27.1758  -28.7612   20.7331 C   0  0  0  0  0  0  0  0  0  0  0  0
  -26.1032  -26.9836   19.5230 C   0  0  0  0  0  0  0  0  0  0  0  0
  -24.9097  -27.7011   19.5331 C   0  0  0  0  0  0  0  0  0  0  0  0
  -23.5715  -29.7899   20.1582 C   0  0  0  0  0  0  0  0  0  0  0  0
  -25.3990  -36.3212   24.0232 C   0  0  1  0  0  0  0  0  0  0  0  0
  -20.5793  -28.3813   23.1004 C   0  0  2  0  0  0  0  0  0  0  0  0
  -20.6548  -26.9392   22.5411 C   0  0  0  0  0  0  0  0  0  0  0  0
  -19.5615  -26.6407   21.5143 C   0  0  0  0  0  0  0  0  0  0  0  0
  -18.1797  -26.7818   22.1673 C   0  0  0  0  0  0  0  0  0  0  0  0
  -19.1385  -28.8769   23.2988 C   0  0  0  0  0  0  0  0  0  0  0  0
  -18.9183  -30.1286   23.8878 C   0  0  0  0  0  0  0  0  0  0  0  0
  -17.6396  -30.6493   24.0352 C   0  0  0  0  0  0  0  0  0  0  0  0
  -25.9153  -34.9582   23.4993 C   0  0  0  0  0  0  0  0  0  0  0  0
  -16.5415  -29.9068   23.6254 C   0  0  0  0  0  0  0  0  0  0  0  0
  -16.7331  -28.6521   23.0586 C   0  0  0  0  0  0  0  0  0  0  0  0
  -26.4583  -31.6439   25.0683 C   0  0  0  0  0  0  0  0  0  0  0  0
  -25.3807  -31.3179   26.1374 C   0  0  0  0  0  0  0  0  0  0  0  0
  -27.0530  -30.3024   24.5680 C   0  0  0  0  0  0  0  0  0  0  0  0
  -27.6014  -32.4281   25.7651 C   0  0  0  0  0  0  0  0  0  0  0  0
  -27.5629  -37.2220   24.8621 C   0  0  0  0  0  0  0  0  0  0  0  0
  -21.4133  -29.3375   22.3735 N   0  0  0  0  0  0  0  0  0  0  0  0
  -26.4706  -37.3372   23.9061 N   0  0  0  0  0  0  0  0  0  0  0  0
  -24.6674  -31.0544   22.1178 N   0  0  0  0  0  0  0  0  0  0  0  0
  -23.4259  -28.8150   23.2971 O   0  0  0  0  0  0  0  0  0  0  0  0
  -28.3948  -26.7345   20.0089 O   0  0  0  0  0  0  0  0  0  0  0  0
  -26.5870  -34.9065   22.4671 O   0  0  0  0  0  0  0  0  0  0  0  0
  -23.5365  -32.1254   23.7833 O   0  0  0  0  0  0  0  0  0  0  0  0
  -27.2957  -21.2727   21.3741 C   0  0  0  0  0  0  0  0  0  0  0  0
  -28.6386  -21.2548   21.0605 C   0  0  0  0  0  0  0  0  0  0  0  0
  -28.2503  -19.0981   20.9709 C   0  0  0  0  0  0  0  0  0  0  0  0
  -29.5777  -23.0584   19.5572 C   0  0  0  0  0  0  0  0  0  0  0  0
  -29.5329  -22.4617   20.9534 C   0  0  0  0  0  0  0  0  0  0  0  0
  -30.5049  -24.2524   19.3877 C   0  0  0  0  0  0  0  0  0  0  0  0
  -29.7740  -25.4991   18.9020 C   0  0  0  0  0  0  0  0  0  0  0  0
  -28.6542  -25.8995   19.8512 C   0  0  0  0  0  0  0  0  0  0  0  0
  -29.1878  -20.0087   20.8294 N   0  0  0  0  0  0  0  0  0  0  0  0
  -28.3761  -17.6943   20.8249 N   0  0  0  0  0  0  0  0  0  0  0  0
  -28.9121  -22.6096   18.6250 O   0  0  0  0  0  0  0  0  0  0  0  0
  -26.6851  -19.6700   21.3809 S   0  0  0  0  0  0  0  0  0  0  0  0
  -31.4485  -12.4701   19.0860 H   0  0  0  0  0  0  0  0  0  0  0  0
  -30.3970  -11.2460   19.6950 H   0  0  0  0  0  0  0  0  0  0  0  0
  -29.6870  -11.8204   17.4226 H   0  0  0  0  0  0  0  0  0  0  0  0
  -29.6375  -13.5326   17.8649 H   0  0  0  0  0  0  0  0  0  0  0  0
  -27.7830  -11.3650   18.7904 H   0  0  0  0  0  0  0  0  0  0  0  0
  -27.4028  -12.7801   17.8021 H   0  0  0  0  0  0  0  0  0  0  0  0
  -27.7353  -14.2503   19.6136 H   0  0  0  0  0  0  0  0  0  0  0  0
  -28.5890  -11.9550   21.3832 H   0  0  0  0  0  0  0  0  0  0  0  0
  -28.5005  -13.6134   21.8562 H   0  0  0  0  0  0  0  0  0  0  0  0
  -25.2399   -9.5495   22.4318 H   0  0  0  0  0  0  0  0  0  0  0  0
  -23.9663   -7.5070   22.7297 H   0  0  0  0  0  0  0  0  0  0  0  0
  -21.1515   -8.8641   19.9162 H   0  0  0  0  0  0  0  0  0  0  0  0
  -22.4016  -10.9115   19.6476 H   0  0  0  0  0  0  0  0  0  0  0  0
  -21.2319   -7.5552   23.9750 H   0  0  0  0  0  0  0  0  0  0  0  0
  -21.1589   -6.0228   25.8556 H   0  0  0  0  0  0  0  0  0  0  0  0
  -22.0396   -2.8212   23.2809 H   0  0  0  0  0  0  0  0  0  0  0  0
  -22.4401  -11.9703   22.4008 H   0  0  0  0  0  0  0  0  0  0  0  0
  -21.1493  -13.0679   22.2082 H   0  0  0  0  0  0  0  0  0  0  0  0
  -24.6538  -15.7807   20.5848 H   0  0  0  0  0  0  0  0  0  0  0  0
  -26.2762  -15.5453   20.1156 H   0  0  0  0  0  0  0  0  0  0  0  0
  -26.6778  -32.4663   23.1464 H   0  0  0  0  0  0  0  0  0  0  0  0
  -25.0747  -34.0282   25.0566 H   0  0  0  0  0  0  0  0  0  0  0  0
  -22.7881  -31.3489   21.4131 H   0  0  0  0  0  0  0  0  0  0  0  0
  -23.3854  -35.9823   23.3648 H   0  0  0  0  0  0  0  0  0  0  0  0
  -24.3696  -36.8624   22.2204 H   0  0  0  0  0  0  0  0  0  0  0  0
  -23.7669  -37.6632   23.6516 H   0  0  0  0  0  0  0  0  0  0  0  0
  -25.9445  -31.6237   20.5691 H   0  0  0  0  0  0  0  0  0  0  0  0
  -26.7436  -31.0079   22.0108 H   0  0  0  0  0  0  0  0  0  0  0  0
  -28.0090  -29.1452   21.2057 H   0  0  0  0  0  0  0  0  0  0  0  0
  -26.1369  -26.0560   19.0719 H   0  0  0  0  0  0  0  0  0  0  0  0
  -24.0652  -27.2961   19.0997 H   0  0  0  0  0  0  0  0  0  0  0  0
  -23.6156  -30.5365   19.3930 H   0  0  0  0  0  0  0  0  0  0  0  0
  -22.7355  -29.1425   19.9945 H   0  0  0  0  0  0  0  0  0  0  0  0
  -25.1353  -36.2335   25.0565 H   0  0  0  0  0  0  0  0  0  0  0  0
  -21.0070  -28.3206   24.0793 H   0  0  0  0  0  0  0  0  0  0  0  0
  -20.5555  -26.2518   23.3550 H   0  0  0  0  0  0  0  0  0  0  0  0
  -21.5974  -26.8362   22.0454 H   0  0  0  0  0  0  0  0  0  0  0  0
  -19.6810  -25.6422   21.1488 H   0  0  0  0  0  0  0  0  0  0  0  0
  -19.6406  -27.3343   20.7034 H   0  0  0  0  0  0  0  0  0  0  0  0
  -17.4282  -26.6888   21.4113 H   0  0  0  0  0  0  0  0  0  0  0  0
  -18.0803  -26.0130   22.9049 H   0  0  0  0  0  0  0  0  0  0  0  0
  -19.7265  -30.6774   24.2204 H   0  0  0  0  0  0  0  0  0  0  0  0
  -17.5064  -31.5856   24.4483 H   0  0  0  0  0  0  0  0  0  0  0  0
  -15.5878  -30.2839   23.7407 H   0  0  0  0  0  0  0  0  0  0  0  0
  -15.9120  -28.0941   22.7766 H   0  0  0  0  0  0  0  0  0  0  0  0
  -24.5787  -30.7757   25.6817 H   0  0  0  0  0  0  0  0  0  0  0  0
  -25.0041  -32.2289   26.5536 H   0  0  0  0  0  0  0  0  0  0  0  0
  -25.8166  -30.7245   26.9138 H   0  0  0  0  0  0  0  0  0  0  0  0
  -26.2892  -29.7335   24.0803 H   0  0  0  0  0  0  0  0  0  0  0  0
  -27.4336  -29.7484   25.4006 H   0  0  0  0  0  0  0  0  0  0  0  0
  -27.8466  -30.4994   23.8779 H   0  0  0  0  0  0  0  0  0  0  0  0
  -27.2251  -33.3632   26.1242 H   0  0  0  0  0  0  0  0  0  0  0  0
  -28.3902  -32.6065   25.0645 H   0  0  0  0  0  0  0  0  0  0  0  0
  -27.9772  -31.8555   26.5872 H   0  0  0  0  0  0  0  0  0  0  0  0
  -28.2744  -38.0016   24.6863 H   0  0  0  0  0  0  0  0  0  0  0  0
  -28.0396  -36.2711   24.7461 H   0  0  0  0  0  0  0  0  0  0  0  0
  -27.1773  -37.3087   25.8564 H   0  0  0  0  0  0  0  0  0  0  0  0
  -20.9627  -29.9365   21.7352 H   0  0  0  0  0  0  0  0  0  0  0  0
  -26.0447  -38.2561   24.0273 H   0  0  0  0  0  0  0  0  0  0  0  0
  -26.7428  -22.1208   21.5741 H   0  0  0  0  0  0  0  0  0  0  0  0
  -30.5254  -22.1740   21.2311 H   0  0  0  0  0  0  0  0  0  0  0  0
  -29.1315  -23.2105   21.6038 H   0  0  0  0  0  0  0  0  0  0  0  0
  -31.2620  -23.9997   18.6750 H   0  0  0  0  0  0  0  0  0  0  0  0
  -30.9237  -24.4757   20.3467 H   0  0  0  0  0  0  0  0  0  0  0  0
  -29.3567  -25.3026   17.9365 H   0  0  0  0  0  0  0  0  0  0  0  0
  -30.4783  -26.3034   18.8583 H   0  0  0  0  0  0  0  0  0  0  0  0
  -28.9326  -25.5021   20.8049 H   0  0  0  0  0  0  0  0  0  0  0  0
  -27.8049  -25.5313   19.3145 H   0  0  0  0  0  0  0  0  0  0  0  0
  -27.4571  -17.3617   20.7062 H   0  0  0  0  0  0  0  0  0  0  0  0
  1 25  1  0  0  0  0
  1 30  2  0  0  0  0
  1 80  1  0  0  0  0
  2  3  1  0  0  0  0
  2 25  1  0  0  0  0
  2 83  1  0  0  0  0
  2 84  1  0  0  0  0
  3  4  1  0  0  0  0
  3 85  1  0  0  0  0
  3 86  1  0  0  0  0
  4  5  1  0  0  0  0
  4 87  1  0  0  0  0
  4 88  1  0  0  0  0
  5  6  1  0  0  0  0
  5 26  1  0  0  0  0
  5 89  1  6  0  0  0
  6 25  1  0  0  0  0
  6 90  1  0  0  0  0
  6 91  1  0  0  0  0
  7  8  2  0  0  0  0
  7 26  1  0  0  0  0
  7 29  1  0  0  0  0
  8  9  1  0  0  0  0
  8 22  1  0  0  0  0
  9 10  1  0  0  0  0
  9 27  2  0  0  0  0
 10 11  2  0  0  0  0
 10 15  1  0  0  0  0
 11 12  1  0  0  0  0
 11 92  1  0  0  0  0
 12 13  2  0  0  0  0
 12 93  1  0  0  0  0
 13 14  1  0  0  0  0
 13 31  1  0  0  0  0
 14 15  2  0  0  0  0
 14 94  1  0  0  0  0
 15 95  1  0  0  0  0
 16 17  2  0  0  0  0
 16 21  1  0  0  0  0
 16 31  1  0  0  0  0
 17 18  1  0  0  0  0
 17 96  1  0  0  0  0
 18 19  2  0  0  0  0
 18 97  1  0  0  0  0
 19 20  1  0  0  0  0
 19 24  1  0  0  0  0
 20 21  2  0  0  0  0
 20 98  1  0  0  0  0
 21 23  1  0  0  0  0
 22 28  1  0  0  0  0
 22 32  2  0  0  0  0
 26 27  1  0  0  0  0
 28 99  1  0  0  0  0
 28100  1  0  0  0  0
 29101  1  0  0  0  0
 29102  1  0  0  0  0
 33 34  1  0  0  0  0
 33 66  1  0  0  0  0
 33 70  2  0  0  0  0
 34 36  1  0  0  0  0
 34 59  1  0  0  0  0
 34103  1  6  0  0  0
 35 44  2  0  0  0  0
 35 45  1  0  0  0  0
 35 68  1  0  0  0  0
 36 56  1  0  0  0  0
 36104  1  0  0  0  0
 37 39  1  0  0  0  0
 37 47  1  0  0  0  0
 37 66  1  0  0  0  0
 37105  1  6  0  0  0
 38 43  2  0  0  0  0
 38 46  1  0  0  0  0
 38 47  1  0  0  0  0
 39 64  1  0  0  0  0
 39 67  2  0  0  0  0
 40 52  1  0  0  0  0
 40 53  2  0  0  0  0
 40 58  1  0  0  0  0
 41106  1  0  0  0  0
 41107  1  0  0  0  0
 41108  1  0  0  0  0
 42 43  1  0  0  0  0
 42 66  1  0  0  0  0
 42109  1  0  0  0  0
 42110  1  0  0  0  0
 43 44  1  0  0  0  0
 44111  1  0  0  0  0
 45 46  2  0  0  0  0
 45112  1  0  0  0  0
 46113  1  0  0  0  0
 47114  1  0  0  0  0
 47115  1  0  0  0  0
 48 41  1  0  0  0  0
 48 56  1  0  0  0  0
 48 65  1  0  0  0  0
 48116  1  1  0  0  0
 49 50  1  0  0  0  0
 49 53  1  0  0  0  0
 49 64  1  0  0  0  0
 49117  1  1  0  0  0
 50 51  1  0  0  0  0
 50118  1  0  0  0  0
 50119  1  0  0  0  0
 51 52  1  0  0  0  0
 51120  1  0  0  0  0
 51121  1  0  0  0  0
 52122  1  0  0  0  0
 52123  1  0  0  0  0
 53 54  1  0  0  0  0
 54 55  2  0  0  0  0
 54124  1  0  0  0  0
 55 57  1  0  0  0  0
 55125  1  0  0  0  0
 56 69  2  0  0  0  0
 57 58  2  0  0  0  0
 57126  1  0  0  0  0
 58127  1  0  0  0  0
 59 60  1  0  0  0  0
 59 61  1  0  0  0  0
 59 62  1  0  0  0  0
 60128  1  0  0  0  0
 60129  1  0  0  0  0
 60130  1  0  0  0  0
 61131  1  0  0  0  0
 61132  1  0  0  0  0
 61133  1  0  0  0  0
 62134  1  0  0  0  0
 62135  1  0  0  0  0
 62136  1  0  0  0  0
 63 65  1  0  0  0  0
 63137  1  0  0  0  0
 63138  1  0  0  0  0
 63139  1  0  0  0  0
 64140  1  0  0  0  0
 65141  1  0  0  0  0
 68 78  1  0  0  0  0
 71 72  2  0  0  0  0
 71 82  1  0  0  0  0
 71142  1  0  0  0  0
 72 75  1  0  0  0  0
 72 79  1  0  0  0  0
 73 79  2  0  0  0  0
 73 80  1  0  0  0  0
 73 82  1  0  0  0  0
 74 75  1  0  0  0  0
 74 76  1  0  0  0  0
 74 81  2  0  0  0  0
 75143  1  0  0  0  0
 75144  1  0  0  0  0
 76 77  1  0  0  0  0
 76145  1  0  0  0  0
 76146  1  0  0  0  0
 77 78  1  0  0  0  0
 77147  1  0  0  0  0
 77148  1  0  0  0  0
 78149  1  0  0  0  0
 78150  1  0  0  0  0
 80151  1  0  0  0  0
M  ISO  4   1 100  68 101  78 101  80 100
M  END
$$$$
39
 OpenBabel04052305473D

164172  0  0  0  0  0  0  0  0999 V2000
  -30.7652  -14.3608   20.6636 C   0  0  0  0  0  0  0  0  0  0  0  0
  -30.4392  -12.2669   19.3775 C   0  0  0  0  0  0  0  0  0  0  0  0
  -29.4791  -12.5281   18.1977 C   0  0  0  0  0  0  0  0  0  0  0  0
  -27.9985  -12.3963   18.6038 C   0  0  0  0  0  0  0  0  0  0  0  0
  -27.6639  -13.2170   19.8820 C   0  0  2  0  0  0  0  0  0  0  0  0
  -28.6795  -12.9602   21.0279 C   0  0  0  0  0  0  0  0  0  0  0  0
  -25.2633  -13.8245   20.5754 C   0  0  0  0  0  0  0  0  0  0  0  0
  -24.1645  -13.0409   20.9408 C   0  0  0  0  0  0  0  0  0  0  0  0
  -24.6400  -11.7009   20.8697 C   0  0  0  0  0  0  0  0  0  0  0  0
  -23.9005  -10.4085   21.0420 C   0  0  0  0  0  0  0  0  0  0  0  0
  -24.3588   -9.4123   21.9123 C   0  0  0  0  0  0  0  0  0  0  0  0
  -23.6296   -8.2350   22.0803 C   0  0  0  0  0  0  0  0  0  0  0  0
  -22.4385   -8.0419   21.3657 C   0  0  0  0  0  0  0  0  0  0  0  0
  -22.0103   -9.0167   20.4678 C   0  0  0  0  0  0  0  0  0  0  0  0
  -22.7317  -10.1925   20.3102 C   0  0  0  0  0  0  0  0  0  0  0  0
  -21.6857   -6.0709   22.5391 C   0  0  0  0  0  0  0  0  0  0  0  0
  -21.4064   -6.5490   23.8264 C   0  0  0  0  0  0  0  0  0  0  0  0
  -21.3635   -5.6677   24.9085 C   0  0  0  0  0  0  0  0  0  0  0  0
  -21.5973   -4.3067   24.7088 C   0  0  0  0  0  0  0  0  0  0  0  0
  -21.8700   -3.8284   23.4282 C   0  0  0  0  0  0  0  0  0  0  0  0
  -21.9144   -4.7056   22.3460 C   0  0  0  0  0  0  0  0  0  0  0  0
  -22.8194  -13.5263   21.1763 C   0  0  0  0  0  0  0  0  0  0  0  0
  -22.1559   -4.2206   21.1063 F   0  0  0  0  0  0  0  0  0  0  0  0
  -21.5628   -3.4510   25.7555 F   0  0  0  0  0  0  0  0  0  0  0  0
  -30.0261  -13.1803   20.4553 N   0  0  0  0  0  0  0  0  0  0  0  0
  -26.2911  -12.9356   20.3443 N   0  0  0  0  0  0  0  0  0  0  0  0
  -25.9236  -11.6675   20.5847 N   0  0  0  0  0  0  0  0  0  0  0  0
  -22.0708  -12.7905   22.0005 N   0  0  0  0  0  0  0  0  0  0  0  0
  -25.4117  -15.1773   20.4097 N   0  0  0  0  0  0  0  0  0  0  0  0
  -31.7916  -14.6724   20.0536 O   0  0  0  0  0  0  0  0  0  0  0  0
  -21.6670   -6.9022   21.4423 O   0  0  0  0  0  0  0  0  0  0  0  0
  -22.3946  -14.5564   20.6568 O   0  0  0  0  0  0  0  0  0  0  0  0
  -24.6048  -31.8614   23.2223 C   0  0  0  0  0  0  0  0  0  0  0  0
  -25.8822  -32.4841   23.8616 C   0  0  1  0  0  0  0  0  0  0  0  0
  -27.2536  -27.5042   20.1156 C   0  0  0  0  0  0  0  0  0  0  0  0
  -25.5726  -33.8762   24.2210 N   0  0  0  0  0  0  0  0  0  0  0  0
  -23.4066  -30.4859   21.5461 C   0  0  2  0  0  0  0  0  0  0  0  0
  -24.8467  -28.9636   20.1247 C   0  0  0  0  0  0  0  0  0  0  0  0
  -22.7412  -29.4652   22.5052 C   0  0  0  0  0  0  0  0  0  0  0  0
  -18.0167  -28.1302   22.8626 C   0  0  0  0  0  0  0  0  0  0  0  0
  -24.1342  -36.7390   23.2568 C   0  0  0  0  0  0  0  0  0  0  0  0
  -25.9141  -30.8882   21.3456 C   0  0  0  0  0  0  0  0  0  0  0  0
  -25.9930  -29.5029   20.7208 C   0  0  0  0  0  0  0  0  0  0  0  0
  -27.1758  -28.7612   20.7331 C   0  0  0  0  0  0  0  0  0  0  0  0
  -26.1032  -26.9836   19.5230 C   0  0  0  0  0  0  0  0  0  0  0  0
  -24.9097  -27.7011   19.5331 C   0  0  0  0  0  0  0  0  0  0  0  0
  -23.5715  -29.7899   20.1582 C   0  0  0  0  0  0  0  0  0  0  0  0
  -25.3990  -36.3212   24.0232 C   0  0  1  0  0  0  0  0  0  0  0  0
  -20.5793  -28.3813   23.1004 C   0  0  2  0  0  0  0  0  0  0  0  0
  -20.6548  -26.9392   22.5411 C   0  0  0  0  0  0  0  0  0  0  0  0
  -19.5615  -26.6407   21.5143 C   0  0  0  0  0  0  0  0  0  0  0  0
  -18.1797  -26.7818   22.1673 C   0  0  0  0  0  0  0  0  0  0  0  0
  -19.1385  -28.8769   23.2988 C   0  0  0  0  0  0  0  0  0  0  0  0
  -18.9183  -30.1286   23.8878 C   0  0  0  0  0  0  0  0  0  0  0  0
  -17.6396  -30.6493   24.0352 C   0  0  0  0  0  0  0  0  0  0  0  0
  -25.9153  -34.9582   23.4993 C   0  0  0  0  0  0  0  0  0  0  0  0
  -16.5415  -29.9068   23.6254 C   0  0  0  0  0  0  0  0  0  0  0  0
  -16.7331  -28.6521   23.0586 C   0  0  0  0  0  0  0  0  0  0  0  0
  -26.4583  -31.6439   25.0683 C   0  0  0  0  0  0  0  0  0  0  0  0
  -25.3807  -31.3179   26.1374 C   0  0  0  0  0  0  0  0  0  0  0  0
  -27.0530  -30.3024   24.5680 C   0  0  0  0  0  0  0  0  0  0  0  0
  -27.6014  -32.4281   25.7651 C   0  0  0  0  0  0  0  0  0  0  0  0
  -27.5629  -37.2220   24.8621 C   0  0  0  0  0  0  0  0  0  0  0  0
  -21.4133  -29.3375   22.3735 N   0  0  0  0  0  0  0  0  0  0  0  0
  -26.4706  -37.3372   23.9061 N   0  0  0  0  0  0  0  0  0  0  0  0
  -24.6674  -31.0544   22.1178 N   0  0  0  0  0  0  0  0  0  0  0  0
  -23.4259  -28.8150   23.2971 O   0  0  0  0  0  0  0  0  0  0  0  0
  -28.3948  -26.7345   20.0089 O   0  0  0  0  0  0  0  0  0  0  0  0
  -26.5870  -34.9065   22.4671 O   0  0  0  0  0  0  0  0  0  0  0  0
  -23.5365  -32.1254   23.7833 O   0  0  0  0  0  0  0  0  0  0  0  0
  -29.5265  -21.1901   17.1252 C   0  0  0  0  0  0  0  0  0  0  0  0
  -28.7565  -19.4065   15.8493 C   0  0  0  0  0  0  0  0  0  0  0  0
  -29.0985  -19.8312   17.1143 C   0  0  0  0  0  0  0  0  0  0  0  0
  -29.4956  -21.7524   15.8679 C   0  0  0  0  0  0  0  0  0  0  0  0
  -31.0859  -25.0814   15.7301 C   0  0  0  0  0  0  0  0  0  0  0  0
  -34.7296  -26.4090   15.4595 C   0  0  0  0  0  0  0  0  0  0  0  0
  -32.5575  -25.2461   16.0574 C   0  0  0  0  0  0  0  0  0  0  0  0
  -33.2401  -26.2838   15.1734 C   0  0  0  0  0  0  0  0  0  0  0  0
  -29.1127  -24.6316   17.2408 C   0  0  0  0  0  0  0  0  0  0  0  0
  -28.2925  -26.1718   19.0634 C   0  0  0  0  0  0  0  0  0  0  0  0
  -30.3118  -24.0234   16.5018 C   0  0  1  0  0  0  0  0  0  0  0  0
  -29.5143  -25.6577   18.3076 C   0  0  1  0  0  0  0  0  0  0  0  0
  -29.0253  -18.9951   18.2560 N   0  0  0  0  0  0  0  0  0  0  0  0
  -29.8484  -23.0491   15.5374 N   0  0  0  0  0  0  0  0  0  0  0  0
  -30.5513  -25.7749   14.8632 O   0  0  0  0  0  0  0  0  0  0  0  0
  -30.3989  -25.0333   19.2377 O   0  0  0  0  0  0  0  0  0  0  0  0
  -28.9520  -20.6436   14.6815 S   0  0  0  0  0  0  0  0  0  0  0  0
  -31.4485  -12.4701   19.0860 H   0  0  0  0  0  0  0  0  0  0  0  0
  -30.3970  -11.2460   19.6950 H   0  0  0  0  0  0  0  0  0  0  0  0
  -29.6870  -11.8204   17.4226 H   0  0  0  0  0  0  0  0  0  0  0  0
  -29.6375  -13.5326   17.8649 H   0  0  0  0  0  0  0  0  0  0  0  0
  -27.7830  -11.3650   18.7904 H   0  0  0  0  0  0  0  0  0  0  0  0
  -27.4028  -12.7801   17.8021 H   0  0  0  0  0  0  0  0  0  0  0  0
  -27.7353  -14.2503   19.6136 H   0  0  0  0  0  0  0  0  0  0  0  0
  -28.5890  -11.9550   21.3832 H   0  0  0  0  0  0  0  0  0  0  0  0
  -28.5005  -13.6134   21.8562 H   0  0  0  0  0  0  0  0  0  0  0  0
  -25.2399   -9.5495   22.4318 H   0  0  0  0  0  0  0  0  0  0  0  0
  -23.9663   -7.5070   22.7297 H   0  0  0  0  0  0  0  0  0  0  0  0
  -21.1515   -8.8641   19.9162 H   0  0  0  0  0  0  0  0  0  0  0  0
  -22.4016  -10.9115   19.6476 H   0  0  0  0  0  0  0  0  0  0  0  0
  -21.2319   -7.5552   23.9750 H   0  0  0  0  0  0  0  0  0  0  0  0
  -21.1589   -6.0228   25.8556 H   0  0  0  0  0  0  0  0  0  0  0  0
  -22.0396   -2.8212   23.2809 H   0  0  0  0  0  0  0  0  0  0  0  0
  -22.4401  -11.9703   22.4008 H   0  0  0  0  0  0  0  0  0  0  0  0
  -21.1493  -13.0679   22.2082 H   0  0  0  0  0  0  0  0  0  0  0  0
  -24.6538  -15.7807   20.5848 H   0  0  0  0  0  0  0  0  0  0  0  0
  -26.2762  -15.5453   20.1156 H   0  0  0  0  0  0  0  0  0  0  0  0
  -26.6778  -32.4663   23.1464 H   0  0  0  0  0  0  0  0  0  0  0  0
  -25.0747  -34.0282   25.0566 H   0  0  0  0  0  0  0  0  0  0  0  0
  -22.7881  -31.3489   21.4131 H   0  0  0  0  0  0  0  0  0  0  0  0
  -23.3854  -35.9823   23.3648 H   0  0  0  0  0  0  0  0  0  0  0  0
  -24.3696  -36.8624   22.2204 H   0  0  0  0  0  0  0  0  0  0  0  0
  -23.7669  -37.6632   23.6516 H   0  0  0  0  0  0  0  0  0  0  0  0
  -25.9445  -31.6237   20.5691 H   0  0  0  0  0  0  0  0  0  0  0  0
  -26.7436  -31.0079   22.0108 H   0  0  0  0  0  0  0  0  0  0  0  0
  -28.0090  -29.1452   21.2057 H   0  0  0  0  0  0  0  0  0  0  0  0
  -26.1369  -26.0560   19.0719 H   0  0  0  0  0  0  0  0  0  0  0  0
  -24.0652  -27.2961   19.0997 H   0  0  0  0  0  0  0  0  0  0  0  0
  -23.6156  -30.5365   19.3930 H   0  0  0  0  0  0  0  0  0  0  0  0
  -22.7355  -29.1425   19.9945 H   0  0  0  0  0  0  0  0  0  0  0  0
  -25.1353  -36.2335   25.0565 H   0  0  0  0  0  0  0  0  0  0  0  0
  -21.0070  -28.3206   24.0793 H   0  0  0  0  0  0  0  0  0  0  0  0
  -20.5555  -26.2518   23.3550 H   0  0  0  0  0  0  0  0  0  0  0  0
  -21.5974  -26.8362   22.0454 H   0  0  0  0  0  0  0  0  0  0  0  0
  -19.6810  -25.6422   21.1488 H   0  0  0  0  0  0  0  0  0  0  0  0
  -19.6406  -27.3343   20.7034 H   0  0  0  0  0  0  0  0  0  0  0  0
  -17.4282  -26.6888   21.4113 H   0  0  0  0  0  0  0  0  0  0  0  0
  -18.0803  -26.0130   22.9049 H   0  0  0  0  0  0  0  0  0  0  0  0
  -19.7265  -30.6774   24.2204 H   0  0  0  0  0  0  0  0  0  0  0  0
  -17.5064  -31.5856   24.4483 H   0  0  0  0  0  0  0  0  0  0  0  0
  -15.5878  -30.2839   23.7407 H   0  0  0  0  0  0  0  0  0  0  0  0
  -15.9120  -28.0941   22.7766 H   0  0  0  0  0  0  0  0  0  0  0  0
  -24.5787  -30.7757   25.6817 H   0  0  0  0  0  0  0  0  0  0  0  0
  -25.0041  -32.2289   26.5536 H   0  0  0  0  0  0  0  0  0  0  0  0
  -25.8166  -30.7245   26.9138 H   0  0  0  0  0  0  0  0  0  0  0  0
  -26.2892  -29.7335   24.0803 H   0  0  0  0  0  0  0  0  0  0  0  0
  -27.4336  -29.7484   25.4006 H   0  0  0  0  0  0  0  0  0  0  0  0
  -27.8466  -30.4994   23.8779 H   0  0  0  0  0  0  0  0  0  0  0  0
  -27.2251  -33.3632   26.1242 H   0  0  0  0  0  0  0  0  0  0  0  0
  -28.3902  -32.6065   25.0645 H   0  0  0  0  0  0  0  0  0  0  0  0
  -27.9772  -31.8555   26.5872 H   0  0  0  0  0  0  0  0  0  0  0  0
  -28.2744  -38.0016   24.6863 H   0  0  0  0  0  0  0  0  0  0  0  0
  -28.0396  -36.2711   24.7461 H   0  0  0  0  0  0  0  0  0  0  0  0
  -27.1773  -37.3087   25.8564 H   0  0  0  0  0  0  0  0  0  0  0  0
  -20.9627  -29.9365   21.7352 H   0  0  0  0  0  0  0  0  0  0  0  0
  -26.0447  -38.2561   24.0273 H   0  0  0  0  0  0  0  0  0  0  0  0
  -29.8246  -21.6940   17.9751 H   0  0  0  0  0  0  0  0  0  0  0  0
  -28.4219  -18.4549   15.6311 H   0  0  0  0  0  0  0  0  0  0  0  0
  -35.1560  -27.1478   14.8135 H   0  0  0  0  0  0  0  0  0  0  0  0
  -35.2063  -25.4667   15.2873 H   0  0  0  0  0  0  0  0  0  0  0  0
  -34.8737  -26.7006   16.4789 H   0  0  0  0  0  0  0  0  0  0  0  0
  -33.0467  -24.3043   15.9212 H   0  0  0  0  0  0  0  0  0  0  0  0
  -32.6293  -25.5842   17.0700 H   0  0  0  0  0  0  0  0  0  0  0  0
  -33.1106  -26.0002   14.1498 H   0  0  0  0  0  0  0  0  0  0  0  0
  -32.7899  -27.2321   15.3807 H   0  0  0  0  0  0  0  0  0  0  0  0
  -28.5707  -23.8413   17.7168 H   0  0  0  0  0  0  0  0  0  0  0  0
  -28.5200  -25.1461   16.5135 H   0  0  0  0  0  0  0  0  0  0  0  0
  -27.6916  -25.3147   19.2853 H   0  0  0  0  0  0  0  0  0  0  0  0
  -27.9023  -26.9113   18.3957 H   0  0  0  0  0  0  0  0  0  0  0  0
  -30.9444  -23.5767   17.2402 H   0  0  0  0  0  0  0  0  0  0  0  0
  -29.9900  -26.4844   17.8227 H   0  0  0  0  0  0  0  0  0  0  0  0
  -28.3992  -19.4239   18.8831 H   0  0  0  0  0  0  0  0  0  0  0  0
  -29.7804  -23.3238   14.5944 H   0  0  0  0  0  0  0  0  0  0  0  0
  -29.9467  -24.2884   19.6639 H   0  0  0  0  0  0  0  0  0  0  0  0
  1 25  1  0  0  0  0
  1 30  2  0  0  0  0
  1 83  1  0  0  0  0
  2  3  1  0  0  0  0
  2 25  1  0  0  0  0
  2 88  1  0  0  0  0
  2 89  1  0  0  0  0
  3  4  1  0  0  0  0
  3 90  1  0  0  0  0
  3 91  1  0  0  0  0
  4  5  1  0  0  0  0
  4 92  1  0  0  0  0
  4 93  1  0  0  0  0
  5  6  1  0  0  0  0
  5 26  1  0  0  0  0
  5 94  1  6  0  0  0
  6 25  1  0  0  0  0
  6 95  1  0  0  0  0
  6 96  1  0  0  0  0
  7  8  2  0  0  0  0
  7 26  1  0  0  0  0
  7 29  1  0  0  0  0
  8  9  1  0  0  0  0
  8 22  1  0  0  0  0
  9 10  1  0  0  0  0
  9 27  2  0  0  0  0
 10 11  2  0  0  0  0
 10 15  1  0  0  0  0
 11 12  1  0  0  0  0
 11 97  1  0  0  0  0
 12 13  2  0  0  0  0
 12 98  1  0  0  0  0
 13 14  1  0  0  0  0
 13 31  1  0  0  0  0
 14 15  2  0  0  0  0
 14 99  1  0  0  0  0
 15100  1  0  0  0  0
 16 17  2  0  0  0  0
 16 21  1  0  0  0  0
 16 31  1  0  0  0  0
 17 18  1  0  0  0  0
 17101  1  0  0  0  0
 18 19  2  0  0  0  0
 18102  1  0  0  0  0
 19 20  1  0  0  0  0
 19 24  1  0  0  0  0
 20 21  2  0  0  0  0
 20103  1  0  0  0  0
 21 23  1  0  0  0  0
 22 28  1  0  0  0  0
 22 32  2  0  0  0  0
 26 27  1  0  0  0  0
 28104  1  0  0  0  0
 28105  1  0  0  0  0
 29106  1  0  0  0  0
 29107  1  0  0  0  0
 33 34  1  0  0  0  0
 33 66  1  0  0  0  0
 33 70  2  0  0  0  0
 34 36  1  0  0  0  0
 34 59  1  0  0  0  0
 34108  1  6  0  0  0
 35 44  2  0  0  0  0
 35 45  1  0  0  0  0
 35 68  1  0  0  0  0
 36 56  1  0  0  0  0
 36109  1  0  0  0  0
 37 39  1  0  0  0  0
 37 47  1  0  0  0  0
 37 66  1  0  0  0  0
 37110  1  6  0  0  0
 38 43  2  0  0  0  0
 38 46  1  0  0  0  0
 38 47  1  0  0  0  0
 39 64  1  0  0  0  0
 39 67  2  0  0  0  0
 40 52  1  0  0  0  0
 40 53  2  0  0  0  0
 40 58  1  0  0  0  0
 41111  1  0  0  0  0
 41112  1  0  0  0  0
 41113  1  0  0  0  0
 42 43  1  0  0  0  0
 42 66  1  0  0  0  0
 42114  1  0  0  0  0
 42115  1  0  0  0  0
 43 44  1  0  0  0  0
 44116  1  0  0  0  0
 45 46  2  0  0  0  0
 45117  1  0  0  0  0
 46118  1  0  0  0  0
 47119  1  0  0  0  0
 47120  1  0  0  0  0
 48 41  1  0  0  0  0
 48 56  1  0  0  0  0
 48 65  1  0  0  0  0
 48121  1  1  0  0  0
 49 50  1  0  0  0  0
 49 53  1  0  0  0  0
 49 64  1  0  0  0  0
 49122  1  1  0  0  0
 50 51  1  0  0  0  0
 50123  1  0  0  0  0
 50124  1  0  0  0  0
 51 52  1  0  0  0  0
 51125  1  0  0  0  0
 51126  1  0  0  0  0
 52127  1  0  0  0  0
 52128  1  0  0  0  0
 53 54  1  0  0  0  0
 54 55  2  0  0  0  0
 54129  1  0  0  0  0
 55 57  1  0  0  0  0
 55130  1  0  0  0  0
 56 69  2  0  0  0  0
 57 58  2  0  0  0  0
 57131  1  0  0  0  0
 58132  1  0  0  0  0
 59 60  1  0  0  0  0
 59 61  1  0  0  0  0
 59 62  1  0  0  0  0
 60133  1  0  0  0  0
 60134  1  0  0  0  0
 60135  1  0  0  0  0
 61136  1  0  0  0  0
 61137  1  0  0  0  0
 61138  1  0  0  0  0
 62139  1  0  0  0  0
 62140  1  0  0  0  0
 62141  1  0  0  0  0
 63 65  1  0  0  0  0
 63142  1  0  0  0  0
 63143  1  0  0  0  0
 63144  1  0  0  0  0
 64145  1  0  0  0  0
 65146  1  0  0  0  0
 68 80  1  0  0  0  0
 71 73  1  0  0  0  0
 71 74  2  0  0  0  0
 71147  1  0  0  0  0
 72 73  2  0  0  0  0
 72 87  1  0  0  0  0
 72148  1  0  0  0  0
 73 83  1  0  0  0  0
 74 84  1  0  0  0  0
 74 87  1  0  0  0  0
 75 77  1  0  0  0  0
 75 81  1  0  0  0  0
 75 85  2  0  0  0  0
 76 78  1  0  0  0  0
 76149  1  0  0  0  0
 76150  1  0  0  0  0
 76151  1  0  0  0  0
 77 78  1  0  0  0  0
 77152  1  0  0  0  0
 77153  1  0  0  0  0
 78154  1  0  0  0  0
 78155  1  0  0  0  0
 79 82  1  0  0  0  0
 79156  1  0  0  0  0
 79157  1  0  0  0  0
 80 82  1  0  0  0  0
 80158  1  0  0  0  0
 80159  1  0  0  0  0
 81 79  1  0  0  0  0
 81 84  1  0  0  0  0
 81160  1  1  0  0  0
 82 86  1  0  0  0  0
 82161  1  6  0  0  0
 83162  1  0  0  0  0
 84163  1  0  0  0  0
 86164  1  0  0  0  0
M  ISO  4   1 100  68 101  80 101  83 100
M  END
$$$$
40
 OpenBabel04052305473D

153161  0  0  0  0  0  0  0  0999 V2000
  -30.7652  -14.3608   20.6636 C   0  0  0  0  0  0  0  0  0  0  0  0
  -30.4392  -12.2669   19.3775 C   0  0  0  0  0  0  0  0  0  0  0  0
  -29.4791  -12.5281   18.1977 C   0  0  0  0  0  0  0  0  0  0  0  0
  -27.9985  -12.3963   18.6038 C   0  0  0  0  0  0  0  0  0  0  0  0
  -27.6639  -13.2170   19.8820 C   0  0  2  0  0  0  0  0  0  0  0  0
  -28.6795  -12.9602   21.0279 C   0  0  0  0  0  0  0  0  0  0  0  0
  -25.2633  -13.8245   20.5754 C   0  0  0  0  0  0  0  0  0  0  0  0
  -24.1645  -13.0409   20.9408 C   0  0  0  0  0  0  0  0  0  0  0  0
  -24.6400  -11.7009   20.8697 C   0  0  0  0  0  0  0  0  0  0  0  0
  -23.9005  -10.4085   21.0420 C   0  0  0  0  0  0  0  0  0  0  0  0
  -24.3588   -9.4123   21.9123 C   0  0  0  0  0  0  0  0  0  0  0  0
  -23.6296   -8.2350   22.0803 C   0  0  0  0  0  0  0  0  0  0  0  0
  -22.4385   -8.0419   21.3657 C   0  0  0  0  0  0  0  0  0  0  0  0
  -22.0103   -9.0167   20.4678 C   0  0  0  0  0  0  0  0  0  0  0  0
  -22.7317  -10.1925   20.3102 C   0  0  0  0  0  0  0  0  0  0  0  0
  -21.6857   -6.0709   22.5391 C   0  0  0  0  0  0  0  0  0  0  0  0
  -21.4064   -6.5490   23.8264 C   0  0  0  0  0  0  0  0  0  0  0  0
  -21.3635   -5.6677   24.9085 C   0  0  0  0  0  0  0  0  0  0  0  0
  -21.5973   -4.3067   24.7088 C   0  0  0  0  0  0  0  0  0  0  0  0
  -21.8700   -3.8284   23.4282 C   0  0  0  0  0  0  0  0  0  0  0  0
  -21.9144   -4.7056   22.3460 C   0  0  0  0  0  0  0  0  0  0  0  0
  -22.8194  -13.5263   21.1763 C   0  0  0  0  0  0  0  0  0  0  0  0
  -22.1559   -4.2206   21.1063 F   0  0  0  0  0  0  0  0  0  0  0  0
  -21.5628   -3.4510   25.7555 F   0  0  0  0  0  0  0  0  0  0  0  0
  -30.0261  -13.1803   20.4553 N   0  0  0  0  0  0  0  0  0  0  0  0
  -26.2911  -12.9356   20.3443 N   0  0  0  0  0  0  0  0  0  0  0  0
  -25.9236  -11.6675   20.5847 N   0  0  0  0  0  0  0  0  0  0  0  0
  -22.0708  -12.7905   22.0005 N   0  0  0  0  0  0  0  0  0  0  0  0
  -25.4117  -15.1773   20.4097 N   0  0  0  0  0  0  0  0  0  0  0  0
  -31.7916  -14.6724   20.0536 O   0  0  0  0  0  0  0  0  0  0  0  0
  -21.6670   -6.9022   21.4423 O   0  0  0  0  0  0  0  0  0  0  0  0
  -22.3946  -14.5564   20.6568 O   0  0  0  0  0  0  0  0  0  0  0  0
  -24.6048  -31.8614   23.2223 C   0  0  0  0  0  0  0  0  0  0  0  0
  -25.8822  -32.4841   23.8616 C   0  0  1  0  0  0  0  0  0  0  0  0
  -27.2536  -27.5042   20.1156 C   0  0  0  0  0  0  0  0  0  0  0  0
  -25.5726  -33.8762   24.2210 N   0  0  0  0  0  0  0  0  0  0  0  0
  -23.4066  -30.4859   21.5461 C   0  0  2  0  0  0  0  0  0  0  0  0
  -24.8467  -28.9636   20.1247 C   0  0  0  0  0  0  0  0  0  0  0  0
  -22.7412  -29.4652   22.5052 C   0  0  0  0  0  0  0  0  0  0  0  0
  -18.0167  -28.1302   22.8626 C   0  0  0  0  0  0  0  0  0  0  0  0
  -24.1342  -36.7390   23.2568 C   0  0  0  0  0  0  0  0  0  0  0  0
  -25.9141  -30.8882   21.3456 C   0  0  0  0  0  0  0  0  0  0  0  0
  -25.9930  -29.5029   20.7208 C   0  0  0  0  0  0  0  0  0  0  0  0
  -27.1758  -28.7612   20.7331 C   0  0  0  0  0  0  0  0  0  0  0  0
  -26.1032  -26.9836   19.5230 C   0  0  0  0  0  0  0  0  0  0  0  0
  -24.9097  -27.7011   19.5331 C   0  0  0  0  0  0  0  0  0  0  0  0
  -23.5715  -29.7899   20.1582 C   0  0  0  0  0  0  0  0  0  0  0  0
  -25.3990  -36.3212   24.0232 C   0  0  1  0  0  0  0  0  0  0  0  0
  -20.5793  -28.3813   23.1004 C   0  0  2  0  0  0  0  0  0  0  0  0
  -20.6548  -26.9392   22.5411 C   0  0  0  0  0  0  0  0  0  0  0  0
  -19.5615  -26.6407   21.5143 C   0  0  0  0  0  0  0  0  0  0  0  0
  -18.1797  -26.7818   22.1673 C   0  0  0  0  0  0  0  0  0  0  0  0
  -19.1385  -28.8769   23.2988 C   0  0  0  0  0  0  0  0  0  0  0  0
  -18.9183  -30.1286   23.8878 C   0  0  0  0  0  0  0  0  0  0  0  0
  -17.6396  -30.6493   24.0352 C   0  0  0  0  0  0  0  0  0  0  0  0
  -25.9153  -34.9582   23.4993 C   0  0  0  0  0  0  0  0  0  0  0  0
  -16.5415  -29.9068   23.6254 C   0  0  0  0  0  0  0  0  0  0  0  0
  -16.7331  -28.6521   23.0586 C   0  0  0  0  0  0  0  0  0  0  0  0
  -26.4583  -31.6439   25.0683 C   0  0  0  0  0  0  0  0  0  0  0  0
  -25.3807  -31.3179   26.1374 C   0  0  0  0  0  0  0  0  0  0  0  0
  -27.0530  -30.3024   24.5680 C   0  0  0  0  0  0  0  0  0  0  0  0
  -27.6014  -32.4281   25.7651 C   0  0  0  0  0  0  0  0  0  0  0  0
  -27.5629  -37.2220   24.8621 C   0  0  0  0  0  0  0  0  0  0  0  0
  -21.4133  -29.3375   22.3735 N   0  0  0  0  0  0  0  0  0  0  0  0
  -26.4706  -37.3372   23.9061 N   0  0  0  0  0  0  0  0  0  0  0  0
  -24.6674  -31.0544   22.1178 N   0  0  0  0  0  0  0  0  0  0  0  0
  -23.4259  -28.8150   23.2971 O   0  0  0  0  0  0  0  0  0  0  0  0
  -28.3948  -26.7345   20.0089 O   0  0  0  0  0  0  0  0  0  0  0  0
  -26.5870  -34.9065   22.4671 O   0  0  0  0  0  0  0  0  0  0  0  0
  -23.5365  -32.1254   23.7833 O   0  0  0  0  0  0  0  0  0  0  0  0
  -29.4240  -17.0205   20.8514 C   0  0  0  0  0  0  0  0  0  0  0  0
  -29.9800  -17.2217   22.0956 C   0  0  0  0  0  0  0  0  0  0  0  0
  -29.4452  -19.2764   20.4772 C   0  0  0  0  0  0  0  0  0  0  0  0
  -30.0005  -19.4777   21.7216 C   0  0  0  0  0  0  0  0  0  0  0  0
  -31.5415  -20.6941   24.2105 C   0  0  0  0  0  0  0  0  0  0  0  0
  -30.1359  -22.6999   23.6222 C   0  0  0  0  0  0  0  0  0  0  0  0
  -28.8414  -23.2244   23.0088 C   0  0  0  0  0  0  0  0  0  0  0  0
  -30.2640  -21.1761   23.5304 C   0  0  1  0  0  0  0  0  0  0  0  0
  -29.1467  -18.0443   20.0198 N   0  0  0  0  0  0  0  0  0  0  0  0
  -30.2781  -18.4539   22.5530 N   0  0  0  0  0  0  0  0  0  0  0  0
  -29.1737  -20.3848   19.6372 N   0  0  0  0  0  0  0  0  0  0  0  0
  -30.2885  -20.7636   22.1426 N   0  0  0  0  0  0  0  0  0  0  0  0
  -31.4485  -12.4701   19.0860 H   0  0  0  0  0  0  0  0  0  0  0  0
  -30.3970  -11.2460   19.6950 H   0  0  0  0  0  0  0  0  0  0  0  0
  -29.6870  -11.8204   17.4226 H   0  0  0  0  0  0  0  0  0  0  0  0
  -29.6375  -13.5326   17.8649 H   0  0  0  0  0  0  0  0  0  0  0  0
  -27.7830  -11.3650   18.7904 H   0  0  0  0  0  0  0  0  0  0  0  0
  -27.4028  -12.7801   17.8021 H   0  0  0  0  0  0  0  0  0  0  0  0
  -27.7353  -14.2503   19.6136 H   0  0  0  0  0  0  0  0  0  0  0  0
  -28.5890  -11.9550   21.3832 H   0  0  0  0  0  0  0  0  0  0  0  0
  -28.5005  -13.6134   21.8562 H   0  0  0  0  0  0  0  0  0  0  0  0
  -25.2399   -9.5495   22.4318 H   0  0  0  0  0  0  0  0  0  0  0  0
  -23.9663   -7.5070   22.7297 H   0  0  0  0  0  0  0  0  0  0  0  0
  -21.1515   -8.8641   19.9162 H   0  0  0  0  0  0  0  0  0  0  0  0
  -22.4016  -10.9115   19.6476 H   0  0  0  0  0  0  0  0  0  0  0  0
  -21.2319   -7.5552   23.9750 H   0  0  0  0  0  0  0  0  0  0  0  0
  -21.1589   -6.0228   25.8556 H   0  0  0  0  0  0  0  0  0  0  0  0
  -22.0396   -2.8212   23.2809 H   0  0  0  0  0  0  0  0  0  0  0  0
  -22.4401  -11.9703   22.4008 H   0  0  0  0  0  0  0  0  0  0  0  0
  -21.1493  -13.0679   22.2082 H   0  0  0  0  0  0  0  0  0  0  0  0
  -24.6538  -15.7807   20.5848 H   0  0  0  0  0  0  0  0  0  0  0  0
  -26.2762  -15.5453   20.1156 H   0  0  0  0  0  0  0  0  0  0  0  0
  -26.6778  -32.4663   23.1464 H   0  0  0  0  0  0  0  0  0  0  0  0
  -25.0747  -34.0282   25.0566 H   0  0  0  0  0  0  0  0  0  0  0  0
  -22.7881  -31.3489   21.4131 H   0  0  0  0  0  0  0  0  0  0  0  0
  -23.3854  -35.9823   23.3648 H   0  0  0  0  0  0  0  0  0  0  0  0
  -24.3696  -36.8624   22.2204 H   0  0  0  0  0  0  0  0  0  0  0  0
  -23.7669  -37.6632   23.6516 H   0  0  0  0  0  0  0  0  0  0  0  0
  -25.9445  -31.6237   20.5691 H   0  0  0  0  0  0  0  0  0  0  0  0
  -26.7436  -31.0079   22.0108 H   0  0  0  0  0  0  0  0  0  0  0  0
  -28.0090  -29.1452   21.2057 H   0  0  0  0  0  0  0  0  0  0  0  0
  -26.1369  -26.0560   19.0719 H   0  0  0  0  0  0  0  0  0  0  0  0
  -24.0652  -27.2961   19.0997 H   0  0  0  0  0  0  0  0  0  0  0  0
  -23.6156  -30.5365   19.3930 H   0  0  0  0  0  0  0  0  0  0  0  0
  -22.7355  -29.1425   19.9945 H   0  0  0  0  0  0  0  0  0  0  0  0
  -25.1353  -36.2335   25.0565 H   0  0  0  0  0  0  0  0  0  0  0  0
  -21.0070  -28.3206   24.0793 H   0  0  0  0  0  0  0  0  0  0  0  0
  -20.5555  -26.2518   23.3550 H   0  0  0  0  0  0  0  0  0  0  0  0
  -21.5974  -26.8362   22.0454 H   0  0  0  0  0  0  0  0  0  0  0  0
  -19.6810  -25.6422   21.1488 H   0  0  0  0  0  0  0  0  0  0  0  0
  -19.6406  -27.3343   20.7034 H   0  0  0  0  0  0  0  0  0  0  0  0
  -17.4282  -26.6888   21.4113 H   0  0  0  0  0  0  0  0  0  0  0  0
  -18.0803  -26.0130   22.9049 H   0  0  0  0  0  0  0  0  0  0  0  0
  -19.7265  -30.6774   24.2204 H   0  0  0  0  0  0  0  0  0  0  0  0
  -17.5064  -31.5856   24.4483 H   0  0  0  0  0  0  0  0  0  0  0  0
  -15.5878  -30.2839   23.7407 H   0  0  0  0  0  0  0  0  0  0  0  0
  -15.9120  -28.0941   22.7766 H   0  0  0  0  0  0  0  0  0  0  0  0
  -24.5787  -30.7757   25.6817 H   0  0  0  0  0  0  0  0  0  0  0  0
  -25.0041  -32.2289   26.5536 H   0  0  0  0  0  0  0  0  0  0  0  0
  -25.8166  -30.7245   26.9138 H   0  0  0  0  0  0  0  0  0  0  0  0
  -26.2892  -29.7335   24.0803 H   0  0  0  0  0  0  0  0  0  0  0  0
  -27.4336  -29.7484   25.4006 H   0  0  0  0  0  0  0  0  0  0  0  0
  -27.8466  -30.4994   23.8779 H   0  0  0  0  0  0  0  0  0  0  0  0
  -27.2251  -33.3632   26.1242 H   0  0  0  0  0  0  0  0  0  0  0  0
  -28.3902  -32.6065   25.0645 H   0  0  0  0  0  0  0  0  0  0  0  0
  -27.9772  -31.8555   26.5872 H   0  0  0  0  0  0  0  0  0  0  0  0
  -28.2744  -38.0016   24.6863 H   0  0  0  0  0  0  0  0  0  0  0  0
  -28.0396  -36.2711   24.7461 H   0  0  0  0  0  0  0  0  0  0  0  0
  -27.1773  -37.3087   25.8564 H   0  0  0  0  0  0  0  0  0  0  0  0
  -20.9627  -29.9365   21.7352 H   0  0  0  0  0  0  0  0  0  0  0  0
  -26.0447  -38.2561   24.0273 H   0  0  0  0  0  0  0  0  0  0  0  0
  -29.2135  -16.0572   20.5470 H   0  0  0  0  0  0  0  0  0  0  0  0
  -30.1740  -16.4046   22.6953 H   0  0  0  0  0  0  0  0  0  0  0  0
  -31.5337  -20.9939   25.2376 H   0  0  0  0  0  0  0  0  0  0  0  0
  -32.3903  -21.1231   23.7202 H   0  0  0  0  0  0  0  0  0  0  0  0
  -31.5966  -19.6272   24.1508 H   0  0  0  0  0  0  0  0  0  0  0  0
  -30.1645  -22.9835   24.6535 H   0  0  0  0  0  0  0  0  0  0  0  0
  -30.9482  -23.1244   23.0700 H   0  0  0  0  0  0  0  0  0  0  0  0
  -28.2310  -23.4966   23.8444 H   0  0  0  0  0  0  0  0  0  0  0  0
  -28.6191  -22.4086   22.3531 H   0  0  0  0  0  0  0  0  0  0  0  0
  -29.4197  -20.7447   24.0262 H   0  0  0  0  0  0  0  0  0  0  0  0
  -28.9491  -21.2638   19.2548 H   0  0  0  0  0  0  0  0  0  0  0  0
  -30.5229  -21.4348   21.4616 H   0  0  0  0  0  0  0  0  0  0  0  0
  1 25  1  0  0  0  0
  1 30  2  0  0  0  0
  1 81  1  0  0  0  0
  2  3  1  0  0  0  0
  2 25  1  0  0  0  0
  2 83  1  0  0  0  0
  2 84  1  0  0  0  0
  3  4  1  0  0  0  0
  3 85  1  0  0  0  0
  3 86  1  0  0  0  0
  4  5  1  0  0  0  0
  4 87  1  0  0  0  0
  4 88  1  0  0  0  0
  5  6  1  0  0  0  0
  5 26  1  0  0  0  0
  5 89  1  6  0  0  0
  6 25  1  0  0  0  0
  6 90  1  0  0  0  0
  6 91  1  0  0  0  0
  7  8  2  0  0  0  0
  7 26  1  0  0  0  0
  7 29  1  0  0  0  0
  8  9  1  0  0  0  0
  8 22  1  0  0  0  0
  9 10  1  0  0  0  0
  9 27  2  0  0  0  0
 10 11  2  0  0  0  0
 10 15  1  0  0  0  0
 11 12  1  0  0  0  0
 11 92  1  0  0  0  0
 12 13  2  0  0  0  0
 12 93  1  0  0  0  0
 13 14  1  0  0  0  0
 13 31  1  0  0  0  0
 14 15  2  0  0  0  0
 14 94  1  0  0  0  0
 15 95  1  0  0  0  0
 16 17  2  0  0  0  0
 16 21  1  0  0  0  0
 16 31  1  0  0  0  0
 17 18  1  0  0  0  0
 17 96  1  0  0  0  0
 18 19  2  0  0  0  0
 18 97  1  0  0  0  0
 19 20  1  0  0  0  0
 19 24  1  0  0  0  0
 20 21  2  0  0  0  0
 20 98  1  0  0  0  0
 21 23  1  0  0  0  0
 22 28  1  0  0  0  0
 22 32  2  0  0  0  0
 26 27  1  0  0  0  0
 28 99  1  0  0  0  0
 28100  1  0  0  0  0
 29101  1  0  0  0  0
 29102  1  0  0  0  0
 33 34  1  0  0  0  0
 33 66  1  0  0  0  0
 33 70  2  0  0  0  0
 34 36  1  0  0  0  0
 34 59  1  0  0  0  0
 34103  1  6  0  0  0
 35 44  2  0  0  0  0
 35 45  1  0  0  0  0
 35 68  1  0  0  0  0
 36 56  1  0  0  0  0
 36104  1  0  0  0  0
 37 39  1  0  0  0  0
 37 47  1  0  0  0  0
 37 66  1  0  0  0  0
 37105  1  6  0  0  0
 38 43  2  0  0  0  0
 38 46  1  0  0  0  0
 38 47  1  0  0  0  0
 39 64  1  0  0  0  0
 39 67  2  0  0  0  0
 40 52  1  0  0  0  0
 40 53  2  0  0  0  0
 40 58  1  0  0  0  0
 41106  1  0  0  0  0
 41107  1  0  0  0  0
 41108  1  0  0  0  0
 42 43  1  0  0  0  0
 42 66  1  0  0  0  0
 42109  1  0  0  0  0
 42110  1  0  0  0  0
 43 44  1  0  0  0  0
 44111  1  0  0  0  0
 45 46  2  0  0  0  0
 45112  1  0  0  0  0
 46113  1  0  0  0  0
 47114  1  0  0  0  0
 47115  1  0  0  0  0
 48 41  1  0  0  0  0
 48 56  1  0  0  0  0
 48 65  1  0  0  0  0
 48116  1  1  0  0  0
 49 50  1  0  0  0  0
 49 53  1  0  0  0  0
 49 64  1  0  0  0  0
 49117  1  1  0  0  0
 50 51  1  0  0  0  0
 50118  1  0  0  0  0
 50119  1  0  0  0  0
 51 52  1  0  0  0  0
 51120  1  0  0  0  0
 51121  1  0  0  0  0
 52122  1  0  0  0  0
 52123  1  0  0  0  0
 53 54  1  0  0  0  0
 54 55  2  0  0  0  0
 54124  1  0  0  0  0
 55 57  1  0  0  0  0
 55125  1  0  0  0  0
 56 69  2  0  0  0  0
 57 58  2  0  0  0  0
 57126  1  0  0  0  0
 58127  1  0  0  0  0
 59 60  1  0  0  0  0
 59 61  1  0  0  0  0
 59 62  1  0  0  0  0
 60128  1  0  0  0  0
 60129  1  0  0  0  0
 60130  1  0  0  0  0
 61131  1  0  0  0  0
 61132  1  0  0  0  0
 61133  1  0  0  0  0
 62134  1  0  0  0  0
 62135  1  0  0  0  0
 62136  1  0  0  0  0
 63 65  1  0  0  0  0
 63137  1  0  0  0  0
 63138  1  0  0  0  0
 63139  1  0  0  0  0
 64140  1  0  0  0  0
 65141  1  0  0  0  0
 68 77  1  0  0  0  0
 71 72  2  0  0  0  0
 71 79  1  0  0  0  0
 71142  1  0  0  0  0
 72 80  1  0  0  0  0
 72143  1  0  0  0  0
 73 74  1  0  0  0  0
 73 79  2  0  0  0  0
 73 81  1  0  0  0  0
 74 80  2  0  0  0  0
 74 82  1  0  0  0  0
 75144  1  0  0  0  0
 75145  1  0  0  0  0
 75146  1  0  0  0  0
 76 77  1  0  0  0  0
 76 78  1  0  0  0  0
 76147  1  0  0  0  0
 76148  1  0  0  0  0
 77149  1  0  0  0  0
 77150  1  0  0  0  0
 78 75  1  0  0  0  0
 78 82  1  0  0  0  0
 78151  1  1  0  0  0
 81152  1  0  0  0  0
 82153  1  0  0  0  0
M  ISO  4   1 100  68 101  77 101  81 100
M  END
$$$$
41
 OpenBabel04052305473D

156164  0  0  0  0  0  0  0  0999 V2000
  -30.7652  -14.3608   20.6636 C   0  0  0  0  0  0  0  0  0  0  0  0
  -30.4392  -12.2669   19.3775 C   0  0  0  0  0  0  0  0  0  0  0  0
  -29.4791  -12.5281   18.1977 C   0  0  0  0  0  0  0  0  0  0  0  0
  -27.9985  -12.3963   18.6038 C   0  0  0  0  0  0  0  0  0  0  0  0
  -27.6639  -13.2170   19.8820 C   0  0  2  0  0  0  0  0  0  0  0  0
  -28.6795  -12.9602   21.0279 C   0  0  0  0  0  0  0  0  0  0  0  0
  -25.2633  -13.8245   20.5754 C   0  0  0  0  0  0  0  0  0  0  0  0
  -24.1645  -13.0409   20.9408 C   0  0  0  0  0  0  0  0  0  0  0  0
  -24.6400  -11.7009   20.8697 C   0  0  0  0  0  0  0  0  0  0  0  0
  -23.9005  -10.4085   21.0420 C   0  0  0  0  0  0  0  0  0  0  0  0
  -24.3588   -9.4123   21.9123 C   0  0  0  0  0  0  0  0  0  0  0  0
  -23.6296   -8.2350   22.0803 C   0  0  0  0  0  0  0  0  0  0  0  0
  -22.4385   -8.0419   21.3657 C   0  0  0  0  0  0  0  0  0  0  0  0
  -22.0103   -9.0167   20.4678 C   0  0  0  0  0  0  0  0  0  0  0  0
  -22.7317  -10.1925   20.3102 C   0  0  0  0  0  0  0  0  0  0  0  0
  -21.6857   -6.0709   22.5391 C   0  0  0  0  0  0  0  0  0  0  0  0
  -21.4064   -6.5490   23.8264 C   0  0  0  0  0  0  0  0  0  0  0  0
  -21.3635   -5.6677   24.9085 C   0  0  0  0  0  0  0  0  0  0  0  0
  -21.5973   -4.3067   24.7088 C   0  0  0  0  0  0  0  0  0  0  0  0
  -21.8700   -3.8284   23.4282 C   0  0  0  0  0  0  0  0  0  0  0  0
  -21.9144   -4.7056   22.3460 C   0  0  0  0  0  0  0  0  0  0  0  0
  -22.8194  -13.5263   21.1763 C   0  0  0  0  0  0  0  0  0  0  0  0
  -22.1559   -4.2206   21.1063 F   0  0  0  0  0  0  0  0  0  0  0  0
  -21.5628   -3.4510   25.7555 F   0  0  0  0  0  0  0  0  0  0  0  0
  -30.0261  -13.1803   20.4553 N   0  0  0  0  0  0  0  0  0  0  0  0
  -26.2911  -12.9356   20.3443 N   0  0  0  0  0  0  0  0  0  0  0  0
  -25.9236  -11.6675   20.5847 N   0  0  0  0  0  0  0  0  0  0  0  0
  -22.0708  -12.7905   22.0005 N   0  0  0  0  0  0  0  0  0  0  0  0
  -25.4117  -15.1773   20.4097 N   0  0  0  0  0  0  0  0  0  0  0  0
  -31.7916  -14.6724   20.0536 O   0  0  0  0  0  0  0  0  0  0  0  0
  -21.6670   -6.9022   21.4423 O   0  0  0  0  0  0  0  0  0  0  0  0
  -22.3946  -14.5564   20.6568 O   0  0  0  0  0  0  0  0  0  0  0  0
  -24.6048  -31.8614   23.2223 C   0  0  0  0  0  0  0  0  0  0  0  0
  -25.8822  -32.4841   23.8616 C   0  0  1  0  0  0  0  0  0  0  0  0
  -27.2536  -27.5042   20.1156 C   0  0  0  0  0  0  0  0  0  0  0  0
  -25.5726  -33.8762   24.2210 N   0  0  0  0  0  0  0  0  0  0  0  0
  -23.4066  -30.4859   21.5461 C   0  0  2  0  0  0  0  0  0  0  0  0
  -24.8467  -28.9636   20.1247 C   0  0  0  0  0  0  0  0  0  0  0  0
  -22.7412  -29.4652   22.5052 C   0  0  0  0  0  0  0  0  0  0  0  0
  -18.0167  -28.1302   22.8626 C   0  0  0  0  0  0  0  0  0  0  0  0
  -24.1342  -36.7390   23.2568 C   0  0  0  0  0  0  0  0  0  0  0  0
  -25.9141  -30.8882   21.3456 C   0  0  0  0  0  0  0  0  0  0  0  0
  -25.9930  -29.5029   20.7208 C   0  0  0  0  0  0  0  0  0  0  0  0
  -27.1758  -28.7612   20.7331 C   0  0  0  0  0  0  0  0  0  0  0  0
  -26.1032  -26.9836   19.5230 C   0  0  0  0  0  0  0  0  0  0  0  0
  -24.9097  -27.7011   19.5331 C   0  0  0  0  0  0  0  0  0  0  0  0
  -23.5715  -29.7899   20.1582 C   0  0  0  0  0  0  0  0  0  0  0  0
  -25.3990  -36.3212   24.0232 C   0  0  1  0  0  0  0  0  0  0  0  0
  -20.5793  -28.3813   23.1004 C   0  0  2  0  0  0  0  0  0  0  0  0
  -20.6548  -26.9392   22.5411 C   0  0  0  0  0  0  0  0  0  0  0  0
  -19.5615  -26.6407   21.5143 C   0  0  0  0  0  0  0  0  0  0  0  0
  -18.1797  -26.7818   22.1673 C   0  0  0  0  0  0  0  0  0  0  0  0
  -19.1385  -28.8769   23.2988 C   0  0  0  0  0  0  0  0  0  0  0  0
  -18.9183  -30.1286   23.8878 C   0  0  0  0  0  0  0  0  0  0  0  0
  -17.6396  -30.6493   24.0352 C   0  0  0  0  0  0  0  0  0  0  0  0
  -25.9153  -34.9582   23.4993 C   0  0  0  0  0  0  0  0  0  0  0  0
  -16.5415  -29.9068   23.6254 C   0  0  0  0  0  0  0  0  0  0  0  0
  -16.7331  -28.6521   23.0586 C   0  0  0  0  0  0  0  0  0  0  0  0
  -26.4583  -31.6439   25.0683 C   0  0  0  0  0  0  0  0  0  0  0  0
  -25.3807  -31.3179   26.1374 C   0  0  0  0  0  0  0  0  0  0  0  0
  -27.0530  -30.3024   24.5680 C   0  0  0  0  0  0  0  0  0  0  0  0
  -27.6014  -32.4281   25.7651 C   0  0  0  0  0  0  0  0  0  0  0  0
  -27.5629  -37.2220   24.8621 C   0  0  0  0  0  0  0  0  0  0  0  0
  -21.4133  -29.3375   22.3735 N   0  0  0  0  0  0  0  0  0  0  0  0
  -26.4706  -37.3372   23.9061 N   0  0  0  0  0  0  0  0  0  0  0  0
  -24.6674  -31.0544   22.1178 N   0  0  0  0  0  0  0  0  0  0  0  0
  -23.4259  -28.8150   23.2971 O   0  0  0  0  0  0  0  0  0  0  0  0
  -28.3948  -26.7345   20.0089 O   0  0  0  0  0  0  0  0  0  0  0  0
  -26.5870  -34.9065   22.4671 O   0  0  0  0  0  0  0  0  0  0  0  0
  -23.5365  -32.1254   23.7833 O   0  0  0  0  0  0  0  0  0  0  0  0
  -29.7670  -17.7313   22.7107 C   0  0  0  0  0  0  0  0  0  0  0  0
  -32.1886  -18.5665   21.9586 C   0  0  0  0  0  0  0  0  0  0  0  0
  -30.5659  -16.9561   21.8994 C   0  0  0  0  0  0  0  0  0  0  0  0
  -31.3893  -19.3420   22.7693 C   0  0  0  0  0  0  0  0  0  0  0  0
  -33.5439  -19.0166   21.5286 C   0  0  0  0  0  0  0  0  0  0  0  0
  -31.1749  -20.9572   25.4885 C   0  0  0  0  0  0  0  0  0  0  0  0
  -31.6374  -22.8890   23.9395 C   0  0  0  0  0  0  0  0  0  0  0  0
  -31.5189  -23.4607   22.5303 C   0  0  0  0  0  0  0  0  0  0  0  0
  -31.0921  -21.4618   24.0513 C   0  0  1  0  0  0  0  0  0  0  0  0
  -30.1643  -18.9382   23.1602 N   0  0  0  0  0  0  0  0  0  0  0  0
  -31.7911  -17.3598   21.5088 N   0  0  0  0  0  0  0  0  0  0  0  0
  -30.0745  -15.6990   21.4680 N   0  0  0  0  0  0  0  0  0  0  0  0
  -31.8530  -20.5725   23.1987 N   0  0  0  0  0  0  0  0  0  0  0  0
  -31.4485  -12.4701   19.0860 H   0  0  0  0  0  0  0  0  0  0  0  0
  -30.3970  -11.2460   19.6950 H   0  0  0  0  0  0  0  0  0  0  0  0
  -29.6870  -11.8204   17.4226 H   0  0  0  0  0  0  0  0  0  0  0  0
  -29.6375  -13.5326   17.8649 H   0  0  0  0  0  0  0  0  0  0  0  0
  -27.7830  -11.3650   18.7904 H   0  0  0  0  0  0  0  0  0  0  0  0
  -27.4028  -12.7801   17.8021 H   0  0  0  0  0  0  0  0  0  0  0  0
  -27.7353  -14.2503   19.6136 H   0  0  0  0  0  0  0  0  0  0  0  0
  -28.5890  -11.9550   21.3832 H   0  0  0  0  0  0  0  0  0  0  0  0
  -28.5005  -13.6134   21.8562 H   0  0  0  0  0  0  0  0  0  0  0  0
  -25.2399   -9.5495   22.4318 H   0  0  0  0  0  0  0  0  0  0  0  0
  -23.9663   -7.5070   22.7297 H   0  0  0  0  0  0  0  0  0  0  0  0
  -21.1515   -8.8641   19.9162 H   0  0  0  0  0  0  0  0  0  0  0  0
  -22.4016  -10.9115   19.6476 H   0  0  0  0  0  0  0  0  0  0  0  0
  -21.2319   -7.5552   23.9750 H   0  0  0  0  0  0  0  0  0  0  0  0
  -21.1589   -6.0228   25.8556 H   0  0  0  0  0  0  0  0  0  0  0  0
  -22.0396   -2.8212   23.2809 H   0  0  0  0  0  0  0  0  0  0  0  0
  -22.4401  -11.9703   22.4008 H   0  0  0  0  0  0  0  0  0  0  0  0
  -21.1493  -13.0679   22.2082 H   0  0  0  0  0  0  0  0  0  0  0  0
  -24.6538  -15.7807   20.5848 H   0  0  0  0  0  0  0  0  0  0  0  0
  -26.2762  -15.5453   20.1156 H   0  0  0  0  0  0  0  0  0  0  0  0
  -26.6778  -32.4663   23.1464 H   0  0  0  0  0  0  0  0  0  0  0  0
  -25.0747  -34.0282   25.0566 H   0  0  0  0  0  0  0  0  0  0  0  0
  -22.7881  -31.3489   21.4131 H   0  0  0  0  0  0  0  0  0  0  0  0
  -23.3854  -35.9823   23.3648 H   0  0  0  0  0  0  0  0  0  0  0  0
  -24.3696  -36.8624   22.2204 H   0  0  0  0  0  0  0  0  0  0  0  0
  -23.7669  -37.6632   23.6516 H   0  0  0  0  0  0  0  0  0  0  0  0
  -25.9445  -31.6237   20.5691 H   0  0  0  0  0  0  0  0  0  0  0  0
  -26.7436  -31.0079   22.0108 H   0  0  0  0  0  0  0  0  0  0  0  0
  -28.0090  -29.1452   21.2057 H   0  0  0  0  0  0  0  0  0  0  0  0
  -26.1369  -26.0560   19.0719 H   0  0  0  0  0  0  0  0  0  0  0  0
  -24.0652  -27.2961   19.0997 H   0  0  0  0  0  0  0  0  0  0  0  0
  -23.6156  -30.5365   19.3930 H   0  0  0  0  0  0  0  0  0  0  0  0
  -22.7355  -29.1425   19.9945 H   0  0  0  0  0  0  0  0  0  0  0  0
  -25.1353  -36.2335   25.0565 H   0  0  0  0  0  0  0  0  0  0  0  0
  -21.0070  -28.3206   24.0793 H   0  0  0  0  0  0  0  0  0  0  0  0
  -20.5555  -26.2518   23.3550 H   0  0  0  0  0  0  0  0  0  0  0  0
  -21.5974  -26.8362   22.0454 H   0  0  0  0  0  0  0  0  0  0  0  0
  -19.6810  -25.6422   21.1488 H   0  0  0  0  0  0  0  0  0  0  0  0
  -19.6406  -27.3343   20.7034 H   0  0  0  0  0  0  0  0  0  0  0  0
  -17.4282  -26.6888   21.4113 H   0  0  0  0  0  0  0  0  0  0  0  0
  -18.0803  -26.0130   22.9049 H   0  0  0  0  0  0  0  0  0  0  0  0
  -19.7265  -30.6774   24.2204 H   0  0  0  0  0  0  0  0  0  0  0  0
  -17.5064  -31.5856   24.4483 H   0  0  0  0  0  0  0  0  0  0  0  0
  -15.5878  -30.2839   23.7407 H   0  0  0  0  0  0  0  0  0  0  0  0
  -15.9120  -28.0941   22.7766 H   0  0  0  0  0  0  0  0  0  0  0  0
  -24.5787  -30.7757   25.6817 H   0  0  0  0  0  0  0  0  0  0  0  0
  -25.0041  -32.2289   26.5536 H   0  0  0  0  0  0  0  0  0  0  0  0
  -25.8166  -30.7245   26.9138 H   0  0  0  0  0  0  0  0  0  0  0  0
  -26.2892  -29.7335   24.0803 H   0  0  0  0  0  0  0  0  0  0  0  0
  -27.4336  -29.7484   25.4006 H   0  0  0  0  0  0  0  0  0  0  0  0
  -27.8466  -30.4994   23.8779 H   0  0  0  0  0  0  0  0  0  0  0  0
  -27.2251  -33.3632   26.1242 H   0  0  0  0  0  0  0  0  0  0  0  0
  -28.3902  -32.6065   25.0645 H   0  0  0  0  0  0  0  0  0  0  0  0
  -27.9772  -31.8555   26.5872 H   0  0  0  0  0  0  0  0  0  0  0  0
  -28.2744  -38.0016   24.6863 H   0  0  0  0  0  0  0  0  0  0  0  0
  -28.0396  -36.2711   24.7461 H   0  0  0  0  0  0  0  0  0  0  0  0
  -27.1773  -37.3087   25.8564 H   0  0  0  0  0  0  0  0  0  0  0  0
  -20.9627  -29.9365   21.7352 H   0  0  0  0  0  0  0  0  0  0  0  0
  -26.0447  -38.2561   24.0273 H   0  0  0  0  0  0  0  0  0  0  0  0
  -28.8365  -17.3774   22.9825 H   0  0  0  0  0  0  0  0  0  0  0  0
  -33.7480  -19.9811   21.9444 H   0  0  0  0  0  0  0  0  0  0  0  0
  -33.5785  -19.0740   20.4607 H   0  0  0  0  0  0  0  0  0  0  0  0
  -34.2775  -18.3176   21.8722 H   0  0  0  0  0  0  0  0  0  0  0  0
  -30.6154  -21.6078   26.1277 H   0  0  0  0  0  0  0  0  0  0  0  0
  -32.1976  -20.9415   25.8026 H   0  0  0  0  0  0  0  0  0  0  0  0
  -30.7697  -19.9684   25.5432 H   0  0  0  0  0  0  0  0  0  0  0  0
  -31.0894  -23.5174   24.6101 H   0  0  0  0  0  0  0  0  0  0  0  0
  -32.6781  -22.8555   24.1861 H   0  0  0  0  0  0  0  0  0  0  0  0
  -31.4475  -22.5757   21.9331 H   0  0  0  0  0  0  0  0  0  0  0  0
  -32.2816  -24.1948   22.6861 H   0  0  0  0  0  0  0  0  0  0  0  0
  -30.0672  -21.4764   23.7442 H   0  0  0  0  0  0  0  0  0  0  0  0
  -29.1219  -15.5680   21.6794 H   0  0  0  0  0  0  0  0  0  0  0  0
  -32.7491  -20.8592   22.9089 H   0  0  0  0  0  0  0  0  0  0  0  0
  1 25  1  0  0  0  0
  1 30  2  0  0  0  0
  1 82  1  0  0  0  0
  2  3  1  0  0  0  0
  2 25  1  0  0  0  0
  2 84  1  0  0  0  0
  2 85  1  0  0  0  0
  3  4  1  0  0  0  0
  3 86  1  0  0  0  0
  3 87  1  0  0  0  0
  4  5  1  0  0  0  0
  4 88  1  0  0  0  0
  4 89  1  0  0  0  0
  5  6  1  0  0  0  0
  5 26  1  0  0  0  0
  5 90  1  6  0  0  0
  6 25  1  0  0  0  0
  6 91  1  0  0  0  0
  6 92  1  0  0  0  0
  7  8  2  0  0  0  0
  7 26  1  0  0  0  0
  7 29  1  0  0  0  0
  8  9  1  0  0  0  0
  8 22  1  0  0  0  0
  9 10  1  0  0  0  0
  9 27  2  0  0  0  0
 10 11  2  0  0  0  0
 10 15  1  0  0  0  0
 11 12  1  0  0  0  0
 11 93  1  0  0  0  0
 12 13  2  0  0  0  0
 12 94  1  0  0  0  0
 13 14  1  0  0  0  0
 13 31  1  0  0  0  0
 14 15  2  0  0  0  0
 14 95  1  0  0  0  0
 15 96  1  0  0  0  0
 16 17  2  0  0  0  0
 16 21  1  0  0  0  0
 16 31  1  0  0  0  0
 17 18  1  0  0  0  0
 17 97  1  0  0  0  0
 18 19  2  0  0  0  0
 18 98  1  0  0  0  0
 19 20  1  0  0  0  0
 19 24  1  0  0  0  0
 20 21  2  0  0  0  0
 20 99  1  0  0  0  0
 21 23  1  0  0  0  0
 22 28  1  0  0  0  0
 22 32  2  0  0  0  0
 26 27  1  0  0  0  0
 28100  1  0  0  0  0
 28101  1  0  0  0  0
 29102  1  0  0  0  0
 29103  1  0  0  0  0
 33 34  1  0  0  0  0
 33 66  1  0  0  0  0
 33 70  2  0  0  0  0
 34 36  1  0  0  0  0
 34 59  1  0  0  0  0
 34104  1  6  0  0  0
 35 44  2  0  0  0  0
 35 45  1  0  0  0  0
 35 68  1  0  0  0  0
 36 56  1  0  0  0  0
 36105  1  0  0  0  0
 37 39  1  0  0  0  0
 37 47  1  0  0  0  0
 37 66  1  0  0  0  0
 37106  1  6  0  0  0
 38 43  2  0  0  0  0
 38 46  1  0  0  0  0
 38 47  1  0  0  0  0
 39 64  1  0  0  0  0
 39 67  2  0  0  0  0
 40 52  1  0  0  0  0
 40 53  2  0  0  0  0
 40 58  1  0  0  0  0
 41107  1  0  0  0  0
 41108  1  0  0  0  0
 41109  1  0  0  0  0
 42 43  1  0  0  0  0
 42 66  1  0  0  0  0
 42110  1  0  0  0  0
 42111  1  0  0  0  0
 43 44  1  0  0  0  0
 44112  1  0  0  0  0
 45 46  2  0  0  0  0
 45113  1  0  0  0  0
 46114  1  0  0  0  0
 47115  1  0  0  0  0
 47116  1  0  0  0  0
 48 41  1  0  0  0  0
 48 56  1  0  0  0  0
 48 65  1  0  0  0  0
 48117  1  1  0  0  0
 49 50  1  0  0  0  0
 49 53  1  0  0  0  0
 49 64  1  0  0  0  0
 49118  1  1  0  0  0
 50 51  1  0  0  0  0
 50119  1  0  0  0  0
 50120  1  0  0  0  0
 51 52  1  0  0  0  0
 51121  1  0  0  0  0
 51122  1  0  0  0  0
 52123  1  0  0  0  0
 52124  1  0  0  0  0
 53 54  1  0  0  0  0
 54 55  2  0  0  0  0
 54125  1  0  0  0  0
 55 57  1  0  0  0  0
 55126  1  0  0  0  0
 56 69  2  0  0  0  0
 57 58  2  0  0  0  0
 57127  1  0  0  0  0
 58128  1  0  0  0  0
 59 60  1  0  0  0  0
 59 61  1  0  0  0  0
 59 62  1  0  0  0  0
 60129  1  0  0  0  0
 60130  1  0  0  0  0
 60131  1  0  0  0  0
 61132  1  0  0  0  0
 61133  1  0  0  0  0
 61134  1  0  0  0  0
 62135  1  0  0  0  0
 62136  1  0  0  0  0
 62137  1  0  0  0  0
 63 65  1  0  0  0  0
 63138  1  0  0  0  0
 63139  1  0  0  0  0
 63140  1  0  0  0  0
 64141  1  0  0  0  0
 65142  1  0  0  0  0
 68 78  1  0  0  0  0
 71 73  2  0  0  0  0
 71 80  1  0  0  0  0
 71143  1  0  0  0  0
 72 74  1  0  0  0  0
 72 75  1  0  0  0  0
 72 81  2  0  0  0  0
 73 81  1  0  0  0  0
 73 82  1  0  0  0  0
 74 80  2  0  0  0  0
 74 83  1  0  0  0  0
 75144  1  0  0  0  0
 75145  1  0  0  0  0
 75146  1  0  0  0  0
 76147  1  0  0  0  0
 76148  1  0  0  0  0
 76149  1  0  0  0  0
 77 78  1  0  0  0  0
 77 79  1  0  0  0  0
 77150  1  0  0  0  0
 77151  1  0  0  0  0
 78152  1  0  0  0  0
 78153  1  0  0  0  0
 79 76  1  0  0  0  0
 79 83  1  0  0  0  0
 79154  1  6  0  0  0
 82155  1  0  0  0  0
 83156  1  0  0  0  0
M  ISO  4   1 100  68 101  78 101  82 100
M  END
$$$$
42
 OpenBabel04052305473D

154162  0  0  0  0  0  0  0  0999 V2000
  -30.7652  -14.3608   20.6636 C   0  0  0  0  0  0  0  0  0  0  0  0
  -30.4392  -12.2669   19.3775 C   0  0  0  0  0  0  0  0  0  0  0  0
  -29.4791  -12.5281   18.1977 C   0  0  0  0  0  0  0  0  0  0  0  0
  -27.9985  -12.3963   18.6038 C   0  0  0  0  0  0  0  0  0  0  0  0
  -27.6639  -13.2170   19.8820 C   0  0  2  0  0  0  0  0  0  0  0  0
  -28.6795  -12.9602   21.0279 C   0  0  0  0  0  0  0  0  0  0  0  0
  -25.2633  -13.8245   20.5754 C   0  0  0  0  0  0  0  0  0  0  0  0
  -24.1645  -13.0409   20.9408 C   0  0  0  0  0  0  0  0  0  0  0  0
  -24.6400  -11.7009   20.8697 C   0  0  0  0  0  0  0  0  0  0  0  0
  -23.9005  -10.4085   21.0420 C   0  0  0  0  0  0  0  0  0  0  0  0
  -24.3588   -9.4123   21.9123 C   0  0  0  0  0  0  0  0  0  0  0  0
  -23.6296   -8.2350   22.0803 C   0  0  0  0  0  0  0  0  0  0  0  0
  -22.4385   -8.0419   21.3657 C   0  0  0  0  0  0  0  0  0  0  0  0
  -22.0103   -9.0167   20.4678 C   0  0  0  0  0  0  0  0  0  0  0  0
  -22.7317  -10.1925   20.3102 C   0  0  0  0  0  0  0  0  0  0  0  0
  -21.6857   -6.0709   22.5391 C   0  0  0  0  0  0  0  0  0  0  0  0
  -21.4064   -6.5490   23.8264 C   0  0  0  0  0  0  0  0  0  0  0  0
  -21.3635   -5.6677   24.9085 C   0  0  0  0  0  0  0  0  0  0  0  0
  -21.5973   -4.3067   24.7088 C   0  0  0  0  0  0  0  0  0  0  0  0
  -21.8700   -3.8284   23.4282 C   0  0  0  0  0  0  0  0  0  0  0  0
  -21.9144   -4.7056   22.3460 C   0  0  0  0  0  0  0  0  0  0  0  0
  -22.8194  -13.5263   21.1763 C   0  0  0  0  0  0  0  0  0  0  0  0
  -22.1559   -4.2206   21.1063 F   0  0  0  0  0  0  0  0  0  0  0  0
  -21.5628   -3.4510   25.7555 F   0  0  0  0  0  0  0  0  0  0  0  0
  -30.0261  -13.1803   20.4553 N   0  0  0  0  0  0  0  0  0  0  0  0
  -26.2911  -12.9356   20.3443 N   0  0  0  0  0  0  0  0  0  0  0  0
  -25.9236  -11.6675   20.5847 N   0  0  0  0  0  0  0  0  0  0  0  0
  -22.0708  -12.7905   22.0005 N   0  0  0  0  0  0  0  0  0  0  0  0
  -25.4117  -15.1773   20.4097 N   0  0  0  0  0  0  0  0  0  0  0  0
  -31.7916  -14.6724   20.0536 O   0  0  0  0  0  0  0  0  0  0  0  0
  -21.6670   -6.9022   21.4423 O   0  0  0  0  0  0  0  0  0  0  0  0
  -22.3946  -14.5564   20.6568 O   0  0  0  0  0  0  0  0  0  0  0  0
  -24.6048  -31.8614   23.2223 C   0  0  0  0  0  0  0  0  0  0  0  0
  -25.8822  -32.4841   23.8616 C   0  0  1  0  0  0  0  0  0  0  0  0
  -27.2536  -27.5042   20.1156 C   0  0  0  0  0  0  0  0  0  0  0  0
  -25.5726  -33.8762   24.2210 N   0  0  0  0  0  0  0  0  0  0  0  0
  -23.4066  -30.4859   21.5461 C   0  0  2  0  0  0  0  0  0  0  0  0
  -24.8467  -28.9636   20.1247 C   0  0  0  0  0  0  0  0  0  0  0  0
  -22.7412  -29.4652   22.5052 C   0  0  0  0  0  0  0  0  0  0  0  0
  -18.0167  -28.1302   22.8626 C   0  0  0  0  0  0  0  0  0  0  0  0
  -24.1342  -36.7390   23.2568 C   0  0  0  0  0  0  0  0  0  0  0  0
  -25.9141  -30.8882   21.3456 C   0  0  0  0  0  0  0  0  0  0  0  0
  -25.9930  -29.5029   20.7208 C   0  0  0  0  0  0  0  0  0  0  0  0
  -27.1758  -28.7612   20.7331 C   0  0  0  0  0  0  0  0  0  0  0  0
  -26.1032  -26.9836   19.5230 C   0  0  0  0  0  0  0  0  0  0  0  0
  -24.9097  -27.7011   19.5331 C   0  0  0  0  0  0  0  0  0  0  0  0
  -23.5715  -29.7899   20.1582 C   0  0  0  0  0  0  0  0  0  0  0  0
  -25.3990  -36.3212   24.0232 C   0  0  1  0  0  0  0  0  0  0  0  0
  -20.5793  -28.3813   23.1004 C   0  0  2  0  0  0  0  0  0  0  0  0
  -20.6548  -26.9392   22.5411 C   0  0  0  0  0  0  0  0  0  0  0  0
  -19.5615  -26.6407   21.5143 C   0  0  0  0  0  0  0  0  0  0  0  0
  -18.1797  -26.7818   22.1673 C   0  0  0  0  0  0  0  0  0  0  0  0
  -19.1385  -28.8769   23.2988 C   0  0  0  0  0  0  0  0  0  0  0  0
  -18.9183  -30.1286   23.8878 C   0  0  0  0  0  0  0  0  0  0  0  0
  -17.6396  -30.6493   24.0352 C   0  0  0  0  0  0  0  0  0  0  0  0
  -25.9153  -34.9582   23.4993 C   0  0  0  0  0  0  0  0  0  0  0  0
  -16.5415  -29.9068   23.6254 C   0  0  0  0  0  0  0  0  0  0  0  0
  -16.7331  -28.6521   23.0586 C   0  0  0  0  0  0  0  0  0  0  0  0
  -26.4583  -31.6439   25.0683 C   0  0  0  0  0  0  0  0  0  0  0  0
  -25.3807  -31.3179   26.1374 C   0  0  0  0  0  0  0  0  0  0  0  0
  -27.0530  -30.3024   24.5680 C   0  0  0  0  0  0  0  0  0  0  0  0
  -27.6014  -32.4281   25.7651 C   0  0  0  0  0  0  0  0  0  0  0  0
  -27.5629  -37.2220   24.8621 C   0  0  0  0  0  0  0  0  0  0  0  0
  -21.4133  -29.3375   22.3735 N   0  0  0  0  0  0  0  0  0  0  0  0
  -26.4706  -37.3372   23.9061 N   0  0  0  0  0  0  0  0  0  0  0  0
  -24.6674  -31.0544   22.1178 N   0  0  0  0  0  0  0  0  0  0  0  0
  -23.4259  -28.8150   23.2971 O   0  0  0  0  0  0  0  0  0  0  0  0
  -28.3948  -26.7345   20.0089 O   0  0  0  0  0  0  0  0  0  0  0  0
  -26.5870  -34.9065   22.4671 O   0  0  0  0  0  0  0  0  0  0  0  0
  -23.5365  -32.1254   23.7833 O   0  0  0  0  0  0  0  0  0  0  0  0
  -29.0438  -21.6995   19.5070 C   0  0  0  0  0  0  0  0  0  0  0  0
  -30.2679  -23.8643   20.4777 C   0  0  0  0  0  0  0  0  0  0  0  0
  -29.7182  -21.6565   20.7074 C   0  0  0  0  0  0  0  0  0  0  0  0
  -29.5942  -23.9072   19.2770 C   0  0  0  0  0  0  0  0  0  0  0  0
  -31.7069  -26.2031   18.7857 C   0  0  0  0  0  0  0  0  0  0  0  0
  -28.0837  -27.6556   18.5896 C   0  0  0  0  0  0  0  0  0  0  0  0
  -30.2074  -26.3151   19.0498 C   0  0  1  0  0  0  0  0  0  0  0  0
  -29.5925  -27.5512   18.3731 C   0  0  1  0  0  0  0  0  0  0  0  0
  -30.3421  -22.7382   21.2144 N   0  0  0  0  0  0  0  0  0  0  0  0
  -28.9699  -22.8255   18.7701 N   0  0  0  0  0  0  0  0  0  0  0  0
  -29.7509  -20.4327   21.4209 N   0  0  0  0  0  0  0  0  0  0  0  0
  -29.5664  -25.1021   18.5820 N   0  0  0  0  0  0  0  0  0  0  0  0
  -29.8609  -27.5154   16.9703 O   0  0  0  0  0  0  0  0  0  0  0  0
  -31.4485  -12.4701   19.0860 H   0  0  0  0  0  0  0  0  0  0  0  0
  -30.3970  -11.2460   19.6950 H   0  0  0  0  0  0  0  0  0  0  0  0
  -29.6870  -11.8204   17.4226 H   0  0  0  0  0  0  0  0  0  0  0  0
  -29.6375  -13.5326   17.8649 H   0  0  0  0  0  0  0  0  0  0  0  0
  -27.7830  -11.3650   18.7904 H   0  0  0  0  0  0  0  0  0  0  0  0
  -27.4028  -12.7801   17.8021 H   0  0  0  0  0  0  0  0  0  0  0  0
  -27.7353  -14.2503   19.6136 H   0  0  0  0  0  0  0  0  0  0  0  0
  -28.5890  -11.9550   21.3832 H   0  0  0  0  0  0  0  0  0  0  0  0
  -28.5005  -13.6134   21.8562 H   0  0  0  0  0  0  0  0  0  0  0  0
  -25.2399   -9.5495   22.4318 H   0  0  0  0  0  0  0  0  0  0  0  0
  -23.9663   -7.5070   22.7297 H   0  0  0  0  0  0  0  0  0  0  0  0
  -21.1515   -8.8641   19.9162 H   0  0  0  0  0  0  0  0  0  0  0  0
  -22.4016  -10.9115   19.6476 H   0  0  0  0  0  0  0  0  0  0  0  0
  -21.2319   -7.5552   23.9750 H   0  0  0  0  0  0  0  0  0  0  0  0
  -21.1589   -6.0228   25.8556 H   0  0  0  0  0  0  0  0  0  0  0  0
  -22.0396   -2.8212   23.2809 H   0  0  0  0  0  0  0  0  0  0  0  0
  -22.4401  -11.9703   22.4008 H   0  0  0  0  0  0  0  0  0  0  0  0
  -21.1493  -13.0679   22.2082 H   0  0  0  0  0  0  0  0  0  0  0  0
  -24.6538  -15.7807   20.5848 H   0  0  0  0  0  0  0  0  0  0  0  0
  -26.2762  -15.5453   20.1156 H   0  0  0  0  0  0  0  0  0  0  0  0
  -26.6778  -32.4663   23.1464 H   0  0  0  0  0  0  0  0  0  0  0  0
  -25.0747  -34.0282   25.0566 H   0  0  0  0  0  0  0  0  0  0  0  0
  -22.7881  -31.3489   21.4131 H   0  0  0  0  0  0  0  0  0  0  0  0
  -23.3854  -35.9823   23.3648 H   0  0  0  0  0  0  0  0  0  0  0  0
  -24.3696  -36.8624   22.2204 H   0  0  0  0  0  0  0  0  0  0  0  0
  -23.7669  -37.6632   23.6516 H   0  0  0  0  0  0  0  0  0  0  0  0
  -25.9445  -31.6237   20.5691 H   0  0  0  0  0  0  0  0  0  0  0  0
  -26.7436  -31.0079   22.0108 H   0  0  0  0  0  0  0  0  0  0  0  0
  -28.0090  -29.1452   21.2057 H   0  0  0  0  0  0  0  0  0  0  0  0
  -26.1369  -26.0560   19.0719 H   0  0  0  0  0  0  0  0  0  0  0  0
  -24.0652  -27.2961   19.0997 H   0  0  0  0  0  0  0  0  0  0  0  0
  -23.6156  -30.5365   19.3930 H   0  0  0  0  0  0  0  0  0  0  0  0
  -22.7355  -29.1425   19.9945 H   0  0  0  0  0  0  0  0  0  0  0  0
  -25.1353  -36.2335   25.0565 H   0  0  0  0  0  0  0  0  0  0  0  0
  -21.0070  -28.3206   24.0793 H   0  0  0  0  0  0  0  0  0  0  0  0
  -20.5555  -26.2518   23.3550 H   0  0  0  0  0  0  0  0  0  0  0  0
  -21.5974  -26.8362   22.0454 H   0  0  0  0  0  0  0  0  0  0  0  0
  -19.6810  -25.6422   21.1488 H   0  0  0  0  0  0  0  0  0  0  0  0
  -19.6406  -27.3343   20.7034 H   0  0  0  0  0  0  0  0  0  0  0  0
  -17.4282  -26.6888   21.4113 H   0  0  0  0  0  0  0  0  0  0  0  0
  -18.0803  -26.0130   22.9049 H   0  0  0  0  0  0  0  0  0  0  0  0
  -19.7265  -30.6774   24.2204 H   0  0  0  0  0  0  0  0  0  0  0  0
  -17.5064  -31.5856   24.4483 H   0  0  0  0  0  0  0  0  0  0  0  0
  -15.5878  -30.2839   23.7407 H   0  0  0  0  0  0  0  0  0  0  0  0
  -15.9120  -28.0941   22.7766 H   0  0  0  0  0  0  0  0  0  0  0  0
  -24.5787  -30.7757   25.6817 H   0  0  0  0  0  0  0  0  0  0  0  0
  -25.0041  -32.2289   26.5536 H   0  0  0  0  0  0  0  0  0  0  0  0
  -25.8166  -30.7245   26.9138 H   0  0  0  0  0  0  0  0  0  0  0  0
  -26.2892  -29.7335   24.0803 H   0  0  0  0  0  0  0  0  0  0  0  0
  -27.4336  -29.7484   25.4006 H   0  0  0  0  0  0  0  0  0  0  0  0
  -27.8466  -30.4994   23.8779 H   0  0  0  0  0  0  0  0  0  0  0  0
  -27.2251  -33.3632   26.1242 H   0  0  0  0  0  0  0  0  0  0  0  0
  -28.3902  -32.6065   25.0645 H   0  0  0  0  0  0  0  0  0  0  0  0
  -27.9772  -31.8555   26.5872 H   0  0  0  0  0  0  0  0  0  0  0  0
  -28.2744  -38.0016   24.6863 H   0  0  0  0  0  0  0  0  0  0  0  0
  -28.0396  -36.2711   24.7461 H   0  0  0  0  0  0  0  0  0  0  0  0
  -27.1773  -37.3087   25.8564 H   0  0  0  0  0  0  0  0  0  0  0  0
  -20.9627  -29.9365   21.7352 H   0  0  0  0  0  0  0  0  0  0  0  0
  -26.0447  -38.2561   24.0273 H   0  0  0  0  0  0  0  0  0  0  0  0
  -28.5814  -20.8440   19.1617 H   0  0  0  0  0  0  0  0  0  0  0  0
  -30.7296  -24.7200   20.8235 H   0  0  0  0  0  0  0  0  0  0  0  0
  -32.1963  -27.0918   19.1256 H   0  0  0  0  0  0  0  0  0  0  0  0
  -31.8761  -26.0820   17.7361 H   0  0  0  0  0  0  0  0  0  0  0  0
  -32.0992  -25.3570   19.3102 H   0  0  0  0  0  0  0  0  0  0  0  0
  -27.4806  -27.1695   17.8514 H   0  0  0  0  0  0  0  0  0  0  0  0
  -27.5527  -28.5846   18.5954 H   0  0  0  0  0  0  0  0  0  0  0  0
  -30.0500  -26.4345   20.1014 H   0  0  0  0  0  0  0  0  0  0  0  0
  -30.0438  -28.4099   18.8247 H   0  0  0  0  0  0  0  0  0  0  0  0
  -29.5386  -20.6069   22.3663 H   0  0  0  0  0  0  0  0  0  0  0  0
  -29.0855  -25.1306   17.7234 H   0  0  0  0  0  0  0  0  0  0  0  0
  -29.4437  -26.7309   16.5812 H   0  0  0  0  0  0  0  0  0  0  0  0
  1 25  1  0  0  0  0
  1 30  2  0  0  0  0
  1 81  1  0  0  0  0
  2  3  1  0  0  0  0
  2 25  1  0  0  0  0
  2 84  1  0  0  0  0
  2 85  1  0  0  0  0
  3  4  1  0  0  0  0
  3 86  1  0  0  0  0
  3 87  1  0  0  0  0
  4  5  1  0  0  0  0
  4 88  1  0  0  0  0
  4 89  1  0  0  0  0
  5  6  1  0  0  0  0
  5 26  1  0  0  0  0
  5 90  1  6  0  0  0
  6 25  1  0  0  0  0
  6 91  1  0  0  0  0
  6 92  1  0  0  0  0
  7  8  2  0  0  0  0
  7 26  1  0  0  0  0
  7 29  1  0  0  0  0
  8  9  1  0  0  0  0
  8 22  1  0  0  0  0
  9 10  1  0  0  0  0
  9 27  2  0  0  0  0
 10 11  2  0  0  0  0
 10 15  1  0  0  0  0
 11 12  1  0  0  0  0
 11 93  1  0  0  0  0
 12 13  2  0  0  0  0
 12 94  1  0  0  0  0
 13 14  1  0  0  0  0
 13 31  1  0  0  0  0
 14 15  2  0  0  0  0
 14 95  1  0  0  0  0
 15 96  1  0  0  0  0
 16 17  2  0  0  0  0
 16 21  1  0  0  0  0
 16 31  1  0  0  0  0
 17 18  1  0  0  0  0
 17 97  1  0  0  0  0
 18 19  2  0  0  0  0
 18 98  1  0  0  0  0
 19 20  1  0  0  0  0
 19 24  1  0  0  0  0
 20 21  2  0  0  0  0
 20 99  1  0  0  0  0
 21 23  1  0  0  0  0
 22 28  1  0  0  0  0
 22 32  2  0  0  0  0
 26 27  1  0  0  0  0
 28100  1  0  0  0  0
 28101  1  0  0  0  0
 29102  1  0  0  0  0
 29103  1  0  0  0  0
 33 34  1  0  0  0  0
 33 66  1  0  0  0  0
 33 70  2  0  0  0  0
 34 36  1  0  0  0  0
 34 59  1  0  0  0  0
 34104  1  6  0  0  0
 35 44  2  0  0  0  0
 35 45  1  0  0  0  0
 35 68  1  0  0  0  0
 36 56  1  0  0  0  0
 36105  1  0  0  0  0
 37 39  1  0  0  0  0
 37 47  1  0  0  0  0
 37 66  1  0  0  0  0
 37106  1  6  0  0  0
 38 43  2  0  0  0  0
 38 46  1  0  0  0  0
 38 47  1  0  0  0  0
 39 64  1  0  0  0  0
 39 67  2  0  0  0  0
 40 52  1  0  0  0  0
 40 53  2  0  0  0  0
 40 58  1  0  0  0  0
 41107  1  0  0  0  0
 41108  1  0  0  0  0
 41109  1  0  0  0  0
 42 43  1  0  0  0  0
 42 66  1  0  0  0  0
 42110  1  0  0  0  0
 42111  1  0  0  0  0
 43 44  1  0  0  0  0
 44112  1  0  0  0  0
 45 46  2  0  0  0  0
 45113  1  0  0  0  0
 46114  1  0  0  0  0
 47115  1  0  0  0  0
 47116  1  0  0  0  0
 48 41  1  0  0  0  0
 48 56  1  0  0  0  0
 48 65  1  0  0  0  0
 48117  1  1  0  0  0
 49 50  1  0  0  0  0
 49 53  1  0  0  0  0
 49 64  1  0  0  0  0
 49118  1  1  0  0  0
 50 51  1  0  0  0  0
 50119  1  0  0  0  0
 50120  1  0  0  0  0
 51 52  1  0  0  0  0
 51121  1  0  0  0  0
 51122  1  0  0  0  0
 52123  1  0  0  0  0
 52124  1  0  0  0  0
 53 54  1  0  0  0  0
 54 55  2  0  0  0  0
 54125  1  0  0  0  0
 55 57  1  0  0  0  0
 55126  1  0  0  0  0
 56 69  2  0  0  0  0
 57 58  2  0  0  0  0
 57127  1  0  0  0  0
 58128  1  0  0  0  0
 59 60  1  0  0  0  0
 59 61  1  0  0  0  0
 59 62  1  0  0  0  0
 60129  1  0  0  0  0
 60130  1  0  0  0  0
 60131  1  0  0  0  0
 61132  1  0  0  0  0
 61133  1  0  0  0  0
 61134  1  0  0  0  0
 62135  1  0  0  0  0
 62136  1  0  0  0  0
 62137  1  0  0  0  0
 63 65  1  0  0  0  0
 63138  1  0  0  0  0
 63139  1  0  0  0  0
 63140  1  0  0  0  0
 64141  1  0  0  0  0
 65142  1  0  0  0  0
 68 76  1  0  0  0  0
 71 73  2  0  0  0  0
 71 80  1  0  0  0  0
 71143  1  0  0  0  0
 72 74  1  0  0  0  0
 72 79  2  0  0  0  0
 72144  1  0  0  0  0
 73 79  1  0  0  0  0
 73 81  1  0  0  0  0
 74 80  2  0  0  0  0
 74 82  1  0  0  0  0
 75145  1  0  0  0  0
 75146  1  0  0  0  0
 75147  1  0  0  0  0
 76 78  1  0  0  0  0
 76148  1  0  0  0  0
 76149  1  0  0  0  0
 77 75  1  0  0  0  0
 77 78  1  0  0  0  0
 77 82  1  0  0  0  0
 77150  1  1  0  0  0
 78 83  1  0  0  0  0
 78151  1  1  0  0  0
 81152  1  0  0  0  0
 82153  1  0  0  0  0
 83154  1  0  0  0  0
M  ISO  4   1 100  68 101  76 101  81 100
M  END
$$$$
43
 OpenBabel04052305473D

153161  0  0  0  0  0  0  0  0999 V2000
  -30.7652  -14.3608   20.6636 C   0  0  0  0  0  0  0  0  0  0  0  0
  -30.4392  -12.2669   19.3775 C   0  0  0  0  0  0  0  0  0  0  0  0
  -29.4791  -12.5281   18.1977 C   0  0  0  0  0  0  0  0  0  0  0  0
  -27.9985  -12.3963   18.6038 C   0  0  0  0  0  0  0  0  0  0  0  0
  -27.6639  -13.2170   19.8820 C   0  0  2  0  0  0  0  0  0  0  0  0
  -28.6795  -12.9602   21.0279 C   0  0  0  0  0  0  0  0  0  0  0  0
  -25.2633  -13.8245   20.5754 C   0  0  0  0  0  0  0  0  0  0  0  0
  -24.1645  -13.0409   20.9408 C   0  0  0  0  0  0  0  0  0  0  0  0
  -24.6400  -11.7009   20.8697 C   0  0  0  0  0  0  0  0  0  0  0  0
  -23.9005  -10.4085   21.0420 C   0  0  0  0  0  0  0  0  0  0  0  0
  -24.3588   -9.4123   21.9123 C   0  0  0  0  0  0  0  0  0  0  0  0
  -23.6296   -8.2350   22.0803 C   0  0  0  0  0  0  0  0  0  0  0  0
  -22.4385   -8.0419   21.3657 C   0  0  0  0  0  0  0  0  0  0  0  0
  -22.0103   -9.0167   20.4678 C   0  0  0  0  0  0  0  0  0  0  0  0
  -22.7317  -10.1925   20.3102 C   0  0  0  0  0  0  0  0  0  0  0  0
  -21.6857   -6.0709   22.5391 C   0  0  0  0  0  0  0  0  0  0  0  0
  -21.4064   -6.5490   23.8264 C   0  0  0  0  0  0  0  0  0  0  0  0
  -21.3635   -5.6677   24.9085 C   0  0  0  0  0  0  0  0  0  0  0  0
  -21.5973   -4.3067   24.7088 C   0  0  0  0  0  0  0  0  0  0  0  0
  -21.8700   -3.8284   23.4282 C   0  0  0  0  0  0  0  0  0  0  0  0
  -21.9144   -4.7056   22.3460 C   0  0  0  0  0  0  0  0  0  0  0  0
  -22.8194  -13.5263   21.1763 C   0  0  0  0  0  0  0  0  0  0  0  0
  -22.1559   -4.2206   21.1063 F   0  0  0  0  0  0  0  0  0  0  0  0
  -21.5628   -3.4510   25.7555 F   0  0  0  0  0  0  0  0  0  0  0  0
  -30.0261  -13.1803   20.4553 N   0  0  0  0  0  0  0  0  0  0  0  0
  -26.2911  -12.9356   20.3443 N   0  0  0  0  0  0  0  0  0  0  0  0
  -25.9236  -11.6675   20.5847 N   0  0  0  0  0  0  0  0  0  0  0  0
  -22.0708  -12.7905   22.0005 N   0  0  0  0  0  0  0  0  0  0  0  0
  -25.4117  -15.1773   20.4097 N   0  0  0  0  0  0  0  0  0  0  0  0
  -31.7916  -14.6724   20.0536 O   0  0  0  0  0  0  0  0  0  0  0  0
  -21.6670   -6.9022   21.4423 O   0  0  0  0  0  0  0  0  0  0  0  0
  -22.3946  -14.5564   20.6568 O   0  0  0  0  0  0  0  0  0  0  0  0
  -24.6048  -31.8614   23.2223 C   0  0  0  0  0  0  0  0  0  0  0  0
  -25.8822  -32.4841   23.8616 C   0  0  1  0  0  0  0  0  0  0  0  0
  -27.2536  -27.5042   20.1156 C   0  0  0  0  0  0  0  0  0  0  0  0
  -25.5726  -33.8762   24.2210 N   0  0  0  0  0  0  0  0  0  0  0  0
  -23.4066  -30.4859   21.5461 C   0  0  2  0  0  0  0  0  0  0  0  0
  -24.8467  -28.9636   20.1247 C   0  0  0  0  0  0  0  0  0  0  0  0
  -22.7412  -29.4652   22.5052 C   0  0  0  0  0  0  0  0  0  0  0  0
  -18.0167  -28.1302   22.8626 C   0  0  0  0  0  0  0  0  0  0  0  0
  -24.1342  -36.7390   23.2568 C   0  0  0  0  0  0  0  0  0  0  0  0
  -25.9141  -30.8882   21.3456 C   0  0  0  0  0  0  0  0  0  0  0  0
  -25.9930  -29.5029   20.7208 C   0  0  0  0  0  0  0  0  0  0  0  0
  -27.1758  -28.7612   20.7331 C   0  0  0  0  0  0  0  0  0  0  0  0
  -26.1032  -26.9836   19.5230 C   0  0  0  0  0  0  0  0  0  0  0  0
  -24.9097  -27.7011   19.5331 C   0  0  0  0  0  0  0  0  0  0  0  0
  -23.5715  -29.7899   20.1582 C   0  0  0  0  0  0  0  0  0  0  0  0
  -25.3990  -36.3212   24.0232 C   0  0  1  0  0  0  0  0  0  0  0  0
  -20.5793  -28.3813   23.1004 C   0  0  2  0  0  0  0  0  0  0  0  0
  -20.6548  -26.9392   22.5411 C   0  0  0  0  0  0  0  0  0  0  0  0
  -19.5615  -26.6407   21.5143 C   0  0  0  0  0  0  0  0  0  0  0  0
  -18.1797  -26.7818   22.1673 C   0  0  0  0  0  0  0  0  0  0  0  0
  -19.1385  -28.8769   23.2988 C   0  0  0  0  0  0  0  0  0  0  0  0
  -18.9183  -30.1286   23.8878 C   0  0  0  0  0  0  0  0  0  0  0  0
  -17.6396  -30.6493   24.0352 C   0  0  0  0  0  0  0  0  0  0  0  0
  -25.9153  -34.9582   23.4993 C   0  0  0  0  0  0  0  0  0  0  0  0
  -16.5415  -29.9068   23.6254 C   0  0  0  0  0  0  0  0  0  0  0  0
  -16.7331  -28.6521   23.0586 C   0  0  0  0  0  0  0  0  0  0  0  0
  -26.4583  -31.6439   25.0683 C   0  0  0  0  0  0  0  0  0  0  0  0
  -25.3807  -31.3179   26.1374 C   0  0  0  0  0  0  0  0  0  0  0  0
  -27.0530  -30.3024   24.5680 C   0  0  0  0  0  0  0  0  0  0  0  0
  -27.6014  -32.4281   25.7651 C   0  0  0  0  0  0  0  0  0  0  0  0
  -27.5629  -37.2220   24.8621 C   0  0  0  0  0  0  0  0  0  0  0  0
  -21.4133  -29.3375   22.3735 N   0  0  0  0  0  0  0  0  0  0  0  0
  -26.4706  -37.3372   23.9061 N   0  0  0  0  0  0  0  0  0  0  0  0
  -24.6674  -31.0544   22.1178 N   0  0  0  0  0  0  0  0  0  0  0  0
  -23.4259  -28.8150   23.2971 O   0  0  0  0  0  0  0  0  0  0  0  0
  -28.3948  -26.7345   20.0089 O   0  0  0  0  0  0  0  0  0  0  0  0
  -26.5870  -34.9065   22.4671 O   0  0  0  0  0  0  0  0  0  0  0  0
  -23.5365  -32.1254   23.7833 O   0  0  0  0  0  0  0  0  0  0  0  0
  -31.8235  -17.5500   21.6835 C   0  0  0  0  0  0  0  0  0  0  0  0
  -29.9233  -17.8484   22.7489 C   0  0  0  0  0  0  0  0  0  0  0  0
  -30.5745  -16.9521   21.9371 C   0  0  0  0  0  0  0  0  0  0  0  0
  -30.2285  -21.3775   22.9032 C   0  0  0  0  0  0  0  0  0  0  0  0
  -30.5390  -20.1301   23.7434 C   0  0  0  0  0  0  0  0  0  0  0  0
  -28.7172  -22.5893   21.2763 C   0  0  0  0  0  0  0  0  0  0  0  0
  -28.9937  -21.2723   21.9982 C   0  0  2  0  0  0  0  0  0  0  0  0
  -31.9598  -18.7347   22.2852 N   0  0  0  0  0  0  0  0  0  0  0  0
  -30.7880  -18.8884   22.9249 N   0  0  0  0  0  0  0  0  0  0  0  0
  -30.0720  -15.7099   21.4767 N   0  0  0  0  0  0  0  0  0  0  0  0
  -27.7955  -20.9408   22.8245 N   0  3  0  0  0  0  0  0  0  0  0  0
  -31.4485  -12.4701   19.0860 H   0  0  0  0  0  0  0  0  0  0  0  0
  -30.3970  -11.2460   19.6950 H   0  0  0  0  0  0  0  0  0  0  0  0
  -29.6870  -11.8204   17.4226 H   0  0  0  0  0  0  0  0  0  0  0  0
  -29.6375  -13.5326   17.8649 H   0  0  0  0  0  0  0  0  0  0  0  0
  -27.7830  -11.3650   18.7904 H   0  0  0  0  0  0  0  0  0  0  0  0
  -27.4028  -12.7801   17.8021 H   0  0  0  0  0  0  0  0  0  0  0  0
  -27.7353  -14.2503   19.6136 H   0  0  0  0  0  0  0  0  0  0  0  0
  -28.5890  -11.9550   21.3832 H   0  0  0  0  0  0  0  0  0  0  0  0
  -28.5005  -13.6134   21.8562 H   0  0  0  0  0  0  0  0  0  0  0  0
  -25.2399   -9.5495   22.4318 H   0  0  0  0  0  0  0  0  0  0  0  0
  -23.9663   -7.5070   22.7297 H   0  0  0  0  0  0  0  0  0  0  0  0
  -21.1515   -8.8641   19.9162 H   0  0  0  0  0  0  0  0  0  0  0  0
  -22.4016  -10.9115   19.6476 H   0  0  0  0  0  0  0  0  0  0  0  0
  -21.2319   -7.5552   23.9750 H   0  0  0  0  0  0  0  0  0  0  0  0
  -21.1589   -6.0228   25.8556 H   0  0  0  0  0  0  0  0  0  0  0  0
  -22.0396   -2.8212   23.2809 H   0  0  0  0  0  0  0  0  0  0  0  0
  -22.4401  -11.9703   22.4008 H   0  0  0  0  0  0  0  0  0  0  0  0
  -21.1493  -13.0679   22.2082 H   0  0  0  0  0  0  0  0  0  0  0  0
  -24.6538  -15.7807   20.5848 H   0  0  0  0  0  0  0  0  0  0  0  0
  -26.2762  -15.5453   20.1156 H   0  0  0  0  0  0  0  0  0  0  0  0
  -26.6778  -32.4663   23.1464 H   0  0  0  0  0  0  0  0  0  0  0  0
  -25.0747  -34.0282   25.0566 H   0  0  0  0  0  0  0  0  0  0  0  0
  -22.7881  -31.3489   21.4131 H   0  0  0  0  0  0  0  0  0  0  0  0
  -23.3854  -35.9823   23.3648 H   0  0  0  0  0  0  0  0  0  0  0  0
  -24.3696  -36.8624   22.2204 H   0  0  0  0  0  0  0  0  0  0  0  0
  -23.7669  -37.6632   23.6516 H   0  0  0  0  0  0  0  0  0  0  0  0
  -25.9445  -31.6237   20.5691 H   0  0  0  0  0  0  0  0  0  0  0  0
  -26.7436  -31.0079   22.0108 H   0  0  0  0  0  0  0  0  0  0  0  0
  -28.0090  -29.1452   21.2057 H   0  0  0  0  0  0  0  0  0  0  0  0
  -26.1369  -26.0560   19.0719 H   0  0  0  0  0  0  0  0  0  0  0  0
  -24.0652  -27.2961   19.0997 H   0  0  0  0  0  0  0  0  0  0  0  0
  -23.6156  -30.5365   19.3930 H   0  0  0  0  0  0  0  0  0  0  0  0
  -22.7355  -29.1425   19.9945 H   0  0  0  0  0  0  0  0  0  0  0  0
  -25.1353  -36.2335   25.0565 H   0  0  0  0  0  0  0  0  0  0  0  0
  -21.0070  -28.3206   24.0793 H   0  0  0  0  0  0  0  0  0  0  0  0
  -20.5555  -26.2518   23.3550 H   0  0  0  0  0  0  0  0  0  0  0  0
  -21.5974  -26.8362   22.0454 H   0  0  0  0  0  0  0  0  0  0  0  0
  -19.6810  -25.6422   21.1488 H   0  0  0  0  0  0  0  0  0  0  0  0
  -19.6406  -27.3343   20.7034 H   0  0  0  0  0  0  0  0  0  0  0  0
  -17.4282  -26.6888   21.4113 H   0  0  0  0  0  0  0  0  0  0  0  0
  -18.0803  -26.0130   22.9049 H   0  0  0  0  0  0  0  0  0  0  0  0
  -19.7265  -30.6774   24.2204 H   0  0  0  0  0  0  0  0  0  0  0  0
  -17.5064  -31.5856   24.4483 H   0  0  0  0  0  0  0  0  0  0  0  0
  -15.5878  -30.2839   23.7407 H   0  0  0  0  0  0  0  0  0  0  0  0
  -15.9120  -28.0941   22.7766 H   0  0  0  0  0  0  0  0  0  0  0  0
  -24.5787  -30.7757   25.6817 H   0  0  0  0  0  0  0  0  0  0  0  0
  -25.0041  -32.2289   26.5536 H   0  0  0  0  0  0  0  0  0  0  0  0
  -25.8166  -30.7245   26.9138 H   0  0  0  0  0  0  0  0  0  0  0  0
  -26.2892  -29.7335   24.0803 H   0  0  0  0  0  0  0  0  0  0  0  0
  -27.4336  -29.7484   25.4006 H   0  0  0  0  0  0  0  0  0  0  0  0
  -27.8466  -30.4994   23.8779 H   0  0  0  0  0  0  0  0  0  0  0  0
  -27.2251  -33.3632   26.1242 H   0  0  0  0  0  0  0  0  0  0  0  0
  -28.3902  -32.6065   25.0645 H   0  0  0  0  0  0  0  0  0  0  0  0
  -27.9772  -31.8555   26.5872 H   0  0  0  0  0  0  0  0  0  0  0  0
  -28.2744  -38.0016   24.6863 H   0  0  0  0  0  0  0  0  0  0  0  0
  -28.0396  -36.2711   24.7461 H   0  0  0  0  0  0  0  0  0  0  0  0
  -27.1773  -37.3087   25.8564 H   0  0  0  0  0  0  0  0  0  0  0  0
  -20.9627  -29.9365   21.7352 H   0  0  0  0  0  0  0  0  0  0  0  0
  -26.0447  -38.2561   24.0273 H   0  0  0  0  0  0  0  0  0  0  0  0
  -32.5548  -17.1195   21.0962 H   0  0  0  0  0  0  0  0  0  0  0  0
  -28.9747  -17.7543   23.1444 H   0  0  0  0  0  0  0  0  0  0  0  0
  -31.0768  -21.5764   22.2821 H   0  0  0  0  0  0  0  0  0  0  0  0
  -30.0148  -22.1581   23.6031 H   0  0  0  0  0  0  0  0  0  0  0  0
  -29.7081  -19.9452   24.3917 H   0  0  0  0  0  0  0  0  0  0  0  0
  -31.4417  -20.3342   24.2804 H   0  0  0  0  0  0  0  0  0  0  0  0
  -27.6645  -22.4114   21.2052 H   0  0  0  0  0  0  0  0  0  0  0  0
  -29.7744  -22.6797   21.1380 H   0  0  0  0  0  0  0  0  0  0  0  0
  -29.1868  -20.5077   21.2750 H   0  0  0  0  0  0  0  0  0  0  0  0
  -29.1126  -15.5924   21.6636 H   0  0  0  0  0  0  0  0  0  0  0  0
  -27.6347  -21.6844   23.5039 H   0  0  0  0  0  0  0  0  0  0  0  0
  -27.9537  -20.0606   23.3150 H   0  0  0  0  0  0  0  0  0  0  0  0
  -26.9794  -20.8509   22.2193 H   0  0  0  0  0  0  0  0  0  0  0  0
  1 25  1  0  0  0  0
  1 30  2  0  0  0  0
  1 80  1  0  0  0  0
  2  3  1  0  0  0  0
  2 25  1  0  0  0  0
  2 82  1  0  0  0  0
  2 83  1  0  0  0  0
  3  4  1  0  0  0  0
  3 84  1  0  0  0  0
  3 85  1  0  0  0  0
  4  5  1  0  0  0  0
  4 86  1  0  0  0  0
  4 87  1  0  0  0  0
  5  6  1  0  0  0  0
  5 26  1  0  0  0  0
  5 88  1  6  0  0  0
  6 25  1  0  0  0  0
  6 89  1  0  0  0  0
  6 90  1  0  0  0  0
  7  8  2  0  0  0  0
  7 26  1  0  0  0  0
  7 29  1  0  0  0  0
  8  9  1  0  0  0  0
  8 22  1  0  0  0  0
  9 10  1  0  0  0  0
  9 27  2  0  0  0  0
 10 11  2  0  0  0  0
 10 15  1  0  0  0  0
 11 12  1  0  0  0  0
 11 91  1  0  0  0  0
 12 13  2  0  0  0  0
 12 92  1  0  0  0  0
 13 14  1  0  0  0  0
 13 31  1  0  0  0  0
 14 15  2  0  0  0  0
 14 93  1  0  0  0  0
 15 94  1  0  0  0  0
 16 17  2  0  0  0  0
 16 21  1  0  0  0  0
 16 31  1  0  0  0  0
 17 18  1  0  0  0  0
 17 95  1  0  0  0  0
 18 19  2  0  0  0  0
 18 96  1  0  0  0  0
 19 20  1  0  0  0  0
 19 24  1  0  0  0  0
 20 21  2  0  0  0  0
 20 97  1  0  0  0  0
 21 23  1  0  0  0  0
 22 28  1  0  0  0  0
 22 32  2  0  0  0  0
 26 27  1  0  0  0  0
 28 98  1  0  0  0  0
 28 99  1  0  0  0  0
 29100  1  0  0  0  0
 29101  1  0  0  0  0
 33 34  1  0  0  0  0
 33 66  1  0  0  0  0
 33 70  2  0  0  0  0
 34 36  1  0  0  0  0
 34 59  1  0  0  0  0
 34102  1  6  0  0  0
 35 44  2  0  0  0  0
 35 45  1  0  0  0  0
 35 68  1  0  0  0  0
 36 56  1  0  0  0  0
 36103  1  0  0  0  0
 37 39  1  0  0  0  0
 37 47  1  0  0  0  0
 37 66  1  0  0  0  0
 37104  1  6  0  0  0
 38 43  2  0  0  0  0
 38 46  1  0  0  0  0
 38 47  1  0  0  0  0
 39 64  1  0  0  0  0
 39 67  2  0  0  0  0
 40 52  1  0  0  0  0
 40 53  2  0  0  0  0
 40 58  1  0  0  0  0
 41105  1  0  0  0  0
 41106  1  0  0  0  0
 41107  1  0  0  0  0
 42 43  1  0  0  0  0
 42 66  1  0  0  0  0
 42108  1  0  0  0  0
 42109  1  0  0  0  0
 43 44  1  0  0  0  0
 44110  1  0  0  0  0
 45 46  2  0  0  0  0
 45111  1  0  0  0  0
 46112  1  0  0  0  0
 47113  1  0  0  0  0
 47114  1  0  0  0  0
 48 41  1  0  0  0  0
 48 56  1  0  0  0  0
 48 65  1  0  0  0  0
 48115  1  1  0  0  0
 49 50  1  0  0  0  0
 49 53  1  0  0  0  0
 49 64  1  0  0  0  0
 49116  1  1  0  0  0
 50 51  1  0  0  0  0
 50117  1  0  0  0  0
 50118  1  0  0  0  0
 51 52  1  0  0  0  0
 51119  1  0  0  0  0
 51120  1  0  0  0  0
 52121  1  0  0  0  0
 52122  1  0  0  0  0
 53 54  1  0  0  0  0
 54 55  2  0  0  0  0
 54123  1  0  0  0  0
 55 57  1  0  0  0  0
 55124  1  0  0  0  0
 56 69  2  0  0  0  0
 57 58  2  0  0  0  0
 57125  1  0  0  0  0
 58126  1  0  0  0  0
 59 60  1  0  0  0  0
 59 61  1  0  0  0  0
 59 62  1  0  0  0  0
 60127  1  0  0  0  0
 60128  1  0  0  0  0
 60129  1  0  0  0  0
 61130  1  0  0  0  0
 61131  1  0  0  0  0
 61132  1  0  0  0  0
 62133  1  0  0  0  0
 62134  1  0  0  0  0
 62135  1  0  0  0  0
 63 65  1  0  0  0  0
 63136  1  0  0  0  0
 63137  1  0  0  0  0
 63138  1  0  0  0  0
 64139  1  0  0  0  0
 65140  1  0  0  0  0
 68 76  1  0  0  0  0
 71 73  1  0  0  0  0
 71 78  2  0  0  0  0
 71141  1  0  0  0  0
 72 73  2  0  0  0  0
 72 79  1  0  0  0  0
 72142  1  0  0  0  0
 73 80  1  0  0  0  0
 74 75  1  0  0  0  0
 74 77  1  0  0  0  0
 74143  1  0  0  0  0
 74144  1  0  0  0  0
 75 79  1  0  0  0  0
 75145  1  0  0  0  0
 75146  1  0  0  0  0
 76 77  1  0  0  0  0
 76147  1  0  0  0  0
 76148  1  0  0  0  0
 77 81  1  0  0  0  0
 77149  1  6  0  0  0
 78 79  1  0  0  0  0
 80150  1  0  0  0  0
 81151  1  0  0  0  0
 81152  1  0  0  0  0
 81153  1  0  0  0  0
M  ISO  4   1 100  68 101  76 101  80 100
M  CHG  1  81   1
M  END
$$$$
44
 OpenBabel04052305473D

152160  0  0  0  0  0  0  0  0999 V2000
  -30.7652  -14.3608   20.6636 C   0  0  0  0  0  0  0  0  0  0  0  0
  -30.4392  -12.2669   19.3775 C   0  0  0  0  0  0  0  0  0  0  0  0
  -29.4791  -12.5281   18.1977 C   0  0  0  0  0  0  0  0  0  0  0  0
  -27.9985  -12.3963   18.6038 C   0  0  0  0  0  0  0  0  0  0  0  0
  -27.6639  -13.2170   19.8820 C   0  0  2  0  0  0  0  0  0  0  0  0
  -28.6795  -12.9602   21.0279 C   0  0  0  0  0  0  0  0  0  0  0  0
  -25.2633  -13.8245   20.5754 C   0  0  0  0  0  0  0  0  0  0  0  0
  -24.1645  -13.0409   20.9408 C   0  0  0  0  0  0  0  0  0  0  0  0
  -24.6400  -11.7009   20.8697 C   0  0  0  0  0  0  0  0  0  0  0  0
  -23.9005  -10.4085   21.0420 C   0  0  0  0  0  0  0  0  0  0  0  0
  -24.3588   -9.4123   21.9123 C   0  0  0  0  0  0  0  0  0  0  0  0
  -23.6296   -8.2350   22.0803 C   0  0  0  0  0  0  0  0  0  0  0  0
  -22.4385   -8.0419   21.3657 C   0  0  0  0  0  0  0  0  0  0  0  0
  -22.0103   -9.0167   20.4678 C   0  0  0  0  0  0  0  0  0  0  0  0
  -22.7317  -10.1925   20.3102 C   0  0  0  0  0  0  0  0  0  0  0  0
  -21.6857   -6.0709   22.5391 C   0  0  0  0  0  0  0  0  0  0  0  0
  -21.4064   -6.5490   23.8264 C   0  0  0  0  0  0  0  0  0  0  0  0
  -21.3635   -5.6677   24.9085 C   0  0  0  0  0  0  0  0  0  0  0  0
  -21.5973   -4.3067   24.7088 C   0  0  0  0  0  0  0  0  0  0  0  0
  -21.8700   -3.8284   23.4282 C   0  0  0  0  0  0  0  0  0  0  0  0
  -21.9144   -4.7056   22.3460 C   0  0  0  0  0  0  0  0  0  0  0  0
  -22.8194  -13.5263   21.1763 C   0  0  0  0  0  0  0  0  0  0  0  0
  -22.1559   -4.2206   21.1063 F   0  0  0  0  0  0  0  0  0  0  0  0
  -21.5628   -3.4510   25.7555 F   0  0  0  0  0  0  0  0  0  0  0  0
  -30.0261  -13.1803   20.4553 N   0  0  0  0  0  0  0  0  0  0  0  0
  -26.2911  -12.9356   20.3443 N   0  0  0  0  0  0  0  0  0  0  0  0
  -25.9236  -11.6675   20.5847 N   0  0  0  0  0  0  0  0  0  0  0  0
  -22.0708  -12.7905   22.0005 N   0  0  0  0  0  0  0  0  0  0  0  0
  -25.4117  -15.1773   20.4097 N   0  0  0  0  0  0  0  0  0  0  0  0
  -31.7916  -14.6724   20.0536 O   0  0  0  0  0  0  0  0  0  0  0  0
  -21.6670   -6.9022   21.4423 O   0  0  0  0  0  0  0  0  0  0  0  0
  -22.3946  -14.5564   20.6568 O   0  0  0  0  0  0  0  0  0  0  0  0
  -24.6048  -31.8614   23.2223 C   0  0  0  0  0  0  0  0  0  0  0  0
  -25.8822  -32.4841   23.8616 C   0  0  1  0  0  0  0  0  0  0  0  0
  -27.2536  -27.5042   20.1156 C   0  0  0  0  0  0  0  0  0  0  0  0
  -25.5726  -33.8762   24.2210 N   0  0  0  0  0  0  0  0  0  0  0  0
  -23.4066  -30.4859   21.5461 C   0  0  2  0  0  0  0  0  0  0  0  0
  -24.8467  -28.9636   20.1247 C   0  0  0  0  0  0  0  0  0  0  0  0
  -22.7412  -29.4652   22.5052 C   0  0  0  0  0  0  0  0  0  0  0  0
  -18.0167  -28.1302   22.8626 C   0  0  0  0  0  0  0  0  0  0  0  0
  -24.1342  -36.7390   23.2568 C   0  0  0  0  0  0  0  0  0  0  0  0
  -25.9141  -30.8882   21.3456 C   0  0  0  0  0  0  0  0  0  0  0  0
  -25.9930  -29.5029   20.7208 C   0  0  0  0  0  0  0  0  0  0  0  0
  -27.1758  -28.7612   20.7331 C   0  0  0  0  0  0  0  0  0  0  0  0
  -26.1032  -26.9836   19.5230 C   0  0  0  0  0  0  0  0  0  0  0  0
  -24.9097  -27.7011   19.5331 C   0  0  0  0  0  0  0  0  0  0  0  0
  -23.5715  -29.7899   20.1582 C   0  0  0  0  0  0  0  0  0  0  0  0
  -25.3990  -36.3212   24.0232 C   0  0  1  0  0  0  0  0  0  0  0  0
  -20.5793  -28.3813   23.1004 C   0  0  2  0  0  0  0  0  0  0  0  0
  -20.6548  -26.9392   22.5411 C   0  0  0  0  0  0  0  0  0  0  0  0
  -19.5615  -26.6407   21.5143 C   0  0  0  0  0  0  0  0  0  0  0  0
  -18.1797  -26.7818   22.1673 C   0  0  0  0  0  0  0  0  0  0  0  0
  -19.1385  -28.8769   23.2988 C   0  0  0  0  0  0  0  0  0  0  0  0
  -18.9183  -30.1286   23.8878 C   0  0  0  0  0  0  0  0  0  0  0  0
  -17.6396  -30.6493   24.0352 C   0  0  0  0  0  0  0  0  0  0  0  0
  -25.9153  -34.9582   23.4993 C   0  0  0  0  0  0  0  0  0  0  0  0
  -16.5415  -29.9068   23.6254 C   0  0  0  0  0  0  0  0  0  0  0  0
  -16.7331  -28.6521   23.0586 C   0  0  0  0  0  0  0  0  0  0  0  0
  -26.4583  -31.6439   25.0683 C   0  0  0  0  0  0  0  0  0  0  0  0
  -25.3807  -31.3179   26.1374 C   0  0  0  0  0  0  0  0  0  0  0  0
  -27.0530  -30.3024   24.5680 C   0  0  0  0  0  0  0  0  0  0  0  0
  -27.6014  -32.4281   25.7651 C   0  0  0  0  0  0  0  0  0  0  0  0
  -27.5629  -37.2220   24.8621 C   0  0  0  0  0  0  0  0  0  0  0  0
  -21.4133  -29.3375   22.3735 N   0  0  0  0  0  0  0  0  0  0  0  0
  -26.4706  -37.3372   23.9061 N   0  0  0  0  0  0  0  0  0  0  0  0
  -24.6674  -31.0544   22.1178 N   0  0  0  0  0  0  0  0  0  0  0  0
  -23.4259  -28.8150   23.2971 O   0  0  0  0  0  0  0  0  0  0  0  0
  -28.3948  -26.7345   20.0089 O   0  0  0  0  0  0  0  0  0  0  0  0
  -26.5870  -34.9065   22.4671 O   0  0  0  0  0  0  0  0  0  0  0  0
  -23.5365  -32.1254   23.7833 O   0  0  0  0  0  0  0  0  0  0  0  0
  -19.6808  -24.2161   22.7003 C   0  0  0  0  0  0  0  0  0  0  0  0
  -19.9404  -26.8684   22.5411 C   0  0  0  0  0  0  0  0  0  0  0  0
  -20.8345  -24.7893   22.2124 C   0  0  0  0  0  0  0  0  0  0  0  0
  -18.7865  -26.2950   23.0282 C   0  0  0  0  0  0  0  0  0  0  0  0
  -20.1034  -28.3477   22.4449 C   0  0  0  0  0  0  0  0  0  0  0  0
  -23.1191  -24.4307   21.2757 C   0  0  0  0  0  0  0  0  0  0  0  0
  -24.0288  -23.2600   20.9427 C   0  0  0  0  0  0  0  0  0  0  0  0
  -18.6361  -24.9586   23.1169 N   0  0  0  0  0  0  0  0  0  0  0  0
  -20.9850  -26.1257   22.1241 N   0  0  0  0  0  0  0  0  0  0  0  0
  -17.7259  -27.1284   23.4494 N   0  0  0  0  0  0  0  0  0  0  0  0
  -21.8616  -23.9543   21.8045 N   0  0  0  0  0  0  0  0  0  0  0  0
  -21.4796  -28.7364   22.2311 N   0  0  0  0  0  0  0  0  0  0  0  0
  -31.4485  -12.4701   19.0860 H   0  0  0  0  0  0  0  0  0  0  0  0
  -30.3970  -11.2460   19.6950 H   0  0  0  0  0  0  0  0  0  0  0  0
  -29.6870  -11.8204   17.4226 H   0  0  0  0  0  0  0  0  0  0  0  0
  -29.6375  -13.5326   17.8649 H   0  0  0  0  0  0  0  0  0  0  0  0
  -27.7830  -11.3650   18.7904 H   0  0  0  0  0  0  0  0  0  0  0  0
  -27.4028  -12.7801   17.8021 H   0  0  0  0  0  0  0  0  0  0  0  0
  -27.7353  -14.2503   19.6136 H   0  0  0  0  0  0  0  0  0  0  0  0
  -28.5890  -11.9550   21.3832 H   0  0  0  0  0  0  0  0  0  0  0  0
  -28.5005  -13.6134   21.8562 H   0  0  0  0  0  0  0  0  0  0  0  0
  -25.2399   -9.5495   22.4318 H   0  0  0  0  0  0  0  0  0  0  0  0
  -23.9663   -7.5070   22.7297 H   0  0  0  0  0  0  0  0  0  0  0  0
  -21.1515   -8.8641   19.9162 H   0  0  0  0  0  0  0  0  0  0  0  0
  -22.4016  -10.9115   19.6476 H   0  0  0  0  0  0  0  0  0  0  0  0
  -21.2319   -7.5552   23.9750 H   0  0  0  0  0  0  0  0  0  0  0  0
  -21.1589   -6.0228   25.8556 H   0  0  0  0  0  0  0  0  0  0  0  0
  -22.0396   -2.8212   23.2809 H   0  0  0  0  0  0  0  0  0  0  0  0
  -22.4401  -11.9703   22.4008 H   0  0  0  0  0  0  0  0  0  0  0  0
  -21.1493  -13.0679   22.2082 H   0  0  0  0  0  0  0  0  0  0  0  0
  -24.6538  -15.7807   20.5848 H   0  0  0  0  0  0  0  0  0  0  0  0
  -26.2762  -15.5453   20.1156 H   0  0  0  0  0  0  0  0  0  0  0  0
  -26.6778  -32.4663   23.1464 H   0  0  0  0  0  0  0  0  0  0  0  0
  -25.0747  -34.0282   25.0566 H   0  0  0  0  0  0  0  0  0  0  0  0
  -22.7881  -31.3489   21.4131 H   0  0  0  0  0  0  0  0  0  0  0  0
  -23.3854  -35.9823   23.3648 H   0  0  0  0  0  0  0  0  0  0  0  0
  -24.3696  -36.8624   22.2204 H   0  0  0  0  0  0  0  0  0  0  0  0
  -23.7669  -37.6632   23.6516 H   0  0  0  0  0  0  0  0  0  0  0  0
  -25.9445  -31.6237   20.5691 H   0  0  0  0  0  0  0  0  0  0  0  0
  -26.7436  -31.0079   22.0108 H   0  0  0  0  0  0  0  0  0  0  0  0
  -28.0090  -29.1452   21.2057 H   0  0  0  0  0  0  0  0  0  0  0  0
  -26.1369  -26.0560   19.0719 H   0  0  0  0  0  0  0  0  0  0  0  0
  -24.0652  -27.2961   19.0997 H   0  0  0  0  0  0  0  0  0  0  0  0
  -23.6156  -30.5365   19.3930 H   0  0  0  0  0  0  0  0  0  0  0  0
  -22.7355  -29.1425   19.9945 H   0  0  0  0  0  0  0  0  0  0  0  0
  -25.1353  -36.2335   25.0565 H   0  0  0  0  0  0  0  0  0  0  0  0
  -21.0070  -28.3206   24.0793 H   0  0  0  0  0  0  0  0  0  0  0  0
  -20.5555  -26.2518   23.3550 H   0  0  0  0  0  0  0  0  0  0  0  0
  -21.5974  -26.8362   22.0454 H   0  0  0  0  0  0  0  0  0  0  0  0
  -19.6810  -25.6422   21.1488 H   0  0  0  0  0  0  0  0  0  0  0  0
  -19.6406  -27.3343   20.7034 H   0  0  0  0  0  0  0  0  0  0  0  0
  -17.4282  -26.6888   21.4113 H   0  0  0  0  0  0  0  0  0  0  0  0
  -18.0803  -26.0130   22.9049 H   0  0  0  0  0  0  0  0  0  0  0  0
  -19.7265  -30.6774   24.2204 H   0  0  0  0  0  0  0  0  0  0  0  0
  -17.5064  -31.5856   24.4483 H   0  0  0  0  0  0  0  0  0  0  0  0
  -15.5878  -30.2839   23.7407 H   0  0  0  0  0  0  0  0  0  0  0  0
  -15.9120  -28.0941   22.7766 H   0  0  0  0  0  0  0  0  0  0  0  0
  -24.5787  -30.7757   25.6817 H   0  0  0  0  0  0  0  0  0  0  0  0
  -25.0041  -32.2289   26.5536 H   0  0  0  0  0  0  0  0  0  0  0  0
  -25.8166  -30.7245   26.9138 H   0  0  0  0  0  0  0  0  0  0  0  0
  -26.2892  -29.7335   24.0803 H   0  0  0  0  0  0  0  0  0  0  0  0
  -27.4336  -29.7484   25.4006 H   0  0  0  0  0  0  0  0  0  0  0  0
  -27.8466  -30.4994   23.8779 H   0  0  0  0  0  0  0  0  0  0  0  0
  -27.2251  -33.3632   26.1242 H   0  0  0  0  0  0  0  0  0  0  0  0
  -28.3902  -32.6065   25.0645 H   0  0  0  0  0  0  0  0  0  0  0  0
  -27.9772  -31.8555   26.5872 H   0  0  0  0  0  0  0  0  0  0  0  0
  -28.2744  -38.0016   24.6863 H   0  0  0  0  0  0  0  0  0  0  0  0
  -28.0396  -36.2711   24.7461 H   0  0  0  0  0  0  0  0  0  0  0  0
  -27.1773  -37.3087   25.8564 H   0  0  0  0  0  0  0  0  0  0  0  0
  -20.9627  -29.9365   21.7352 H   0  0  0  0  0  0  0  0  0  0  0  0
  -26.0447  -38.2561   24.0273 H   0  0  0  0  0  0  0  0  0  0  0  0
  -19.6145  -23.1873   22.7482 H   0  0  0  0  0  0  0  0  0  0  0  0
  -19.7581  -28.7916   23.3552 H   0  0  0  0  0  0  0  0  0  0  0  0
  -19.5340  -28.6853   21.6043 H   0  0  0  0  0  0  0  0  0  0  0  0
  -22.9360  -24.9991   20.3878 H   0  0  0  0  0  0  0  0  0  0  0  0
  -23.5961  -25.0437   22.0116 H   0  0  0  0  0  0  0  0  0  0  0  0
  -23.7235  -22.7089   20.0778 H   0  0  0  0  0  0  0  0  0  0  0  0
  -24.1327  -22.4555   21.6405 H   0  0  0  0  0  0  0  0  0  0  0  0
  -17.8165  -28.1071   23.3925 H   0  0  0  0  0  0  0  0  0  0  0  0
  -16.8964  -26.7304   23.7997 H   0  0  0  0  0  0  0  0  0  0  0  0
  -21.7273  -22.9818   21.8790 H   0  0  0  0  0  0  0  0  0  0  0  0
  -21.8227  -29.6580   22.1839 H   0  0  0  0  0  0  0  0  0  0  0  0
  1 25  1  0  0  0  0
  1 30  2  0  0  0  0
  1 82  1  0  0  0  0
  2  3  1  0  0  0  0
  2 25  1  0  0  0  0
  2 83  1  0  0  0  0
  2 84  1  0  0  0  0
  3  4  1  0  0  0  0
  3 85  1  0  0  0  0
  3 86  1  0  0  0  0
  4  5  1  0  0  0  0
  4 87  1  0  0  0  0
  4 88  1  0  0  0  0
  5  6  1  0  0  0  0
  5 26  1  0  0  0  0
  5 89  1  6  0  0  0
  6 25  1  0  0  0  0
  6 90  1  0  0  0  0
  6 91  1  0  0  0  0
  7  8  2  0  0  0  0
  7 26  1  0  0  0  0
  7 29  1  0  0  0  0
  8  9  1  0  0  0  0
  8 22  1  0  0  0  0
  9 10  1  0  0  0  0
  9 27  2  0  0  0  0
 10 11  2  0  0  0  0
 10 15  1  0  0  0  0
 11 12  1  0  0  0  0
 11 92  1  0  0  0  0
 12 13  2  0  0  0  0
 12 93  1  0  0  0  0
 13 14  1  0  0  0  0
 13 31  1  0  0  0  0
 14 15  2  0  0  0  0
 14 94  1  0  0  0  0
 15 95  1  0  0  0  0
 16 17  2  0  0  0  0
 16 21  1  0  0  0  0
 16 31  1  0  0  0  0
 17 18  1  0  0  0  0
 17 96  1  0  0  0  0
 18 19  2  0  0  0  0
 18 97  1  0  0  0  0
 19 20  1  0  0  0  0
 19 24  1  0  0  0  0
 20 21  2  0  0  0  0
 20 98  1  0  0  0  0
 21 23  1  0  0  0  0
 22 28  1  0  0  0  0
 22 32  2  0  0  0  0
 26 27  1  0  0  0  0
 28 99  1  0  0  0  0
 28100  1  0  0  0  0
 29101  1  0  0  0  0
 29102  1  0  0  0  0
 33 34  1  0  0  0  0
 33 66  1  0  0  0  0
 33 70  2  0  0  0  0
 34 36  1  0  0  0  0
 34 59  1  0  0  0  0
 34103  1  6  0  0  0
 35 44  2  0  0  0  0
 35 45  1  0  0  0  0
 35 68  1  0  0  0  0
 36 56  1  0  0  0  0
 36104  1  0  0  0  0
 37 39  1  0  0  0  0
 37 47  1  0  0  0  0
 37 66  1  0  0  0  0
 37105  1  6  0  0  0
 38 43  2  0  0  0  0
 38 46  1  0  0  0  0
 38 47  1  0  0  0  0
 39 64  1  0  0  0  0
 39 67  2  0  0  0  0
 40 52  1  0  0  0  0
 40 53  2  0  0  0  0
 40 58  1  0  0  0  0
 41106  1  0  0  0  0
 41107  1  0  0  0  0
 41108  1  0  0  0  0
 42 43  1  0  0  0  0
 42 66  1  0  0  0  0
 42109  1  0  0  0  0
 42110  1  0  0  0  0
 43 44  1  0  0  0  0
 44111  1  0  0  0  0
 45 46  2  0  0  0  0
 45112  1  0  0  0  0
 46113  1  0  0  0  0
 47114  1  0  0  0  0
 47115  1  0  0  0  0
 48 41  1  0  0  0  0
 48 56  1  0  0  0  0
 48 65  1  0  0  0  0
 48116  1  1  0  0  0
 49 50  1  0  0  0  0
 49 53  1  0  0  0  0
 49 64  1  0  0  0  0
 49117  1  1  0  0  0
 50 51  1  0  0  0  0
 50118  1  0  0  0  0
 50119  1  0  0  0  0
 51 52  1  0  0  0  0
 51120  1  0  0  0  0
 51121  1  0  0  0  0
 52122  1  0  0  0  0
 52123  1  0  0  0  0
 53 54  1  0  0  0  0
 54 55  2  0  0  0  0
 54124  1  0  0  0  0
 55 57  1  0  0  0  0
 55125  1  0  0  0  0
 56 69  2  0  0  0  0
 57 58  2  0  0  0  0
 57126  1  0  0  0  0
 58127  1  0  0  0  0
 59 60  1  0  0  0  0
 59 61  1  0  0  0  0
 59 62  1  0  0  0  0
 60128  1  0  0  0  0
 60129  1  0  0  0  0
 60130  1  0  0  0  0
 61131  1  0  0  0  0
 61132  1  0  0  0  0
 61133  1  0  0  0  0
 62134  1  0  0  0  0
 62135  1  0  0  0  0
 62136  1  0  0  0  0
 63 65  1  0  0  0  0
 63137  1  0  0  0  0
 63138  1  0  0  0  0
 63139  1  0  0  0  0
 64140  1  0  0  0  0
 65141  1  0  0  0  0
 68 77  1  0  0  0  0
 71 73  2  0  0  0  0
 71 78  1  0  0  0  0
 71142  1  0  0  0  0
 72 74  1  0  0  0  0
 72 75  1  0  0  0  0
 72 79  2  0  0  0  0
 73 79  1  0  0  0  0
 73 81  1  0  0  0  0
 74 78  2  0  0  0  0
 74 80  1  0  0  0  0
 75 82  1  0  0  0  0
 75143  1  0  0  0  0
 75144  1  0  0  0  0
 76 77  1  0  0  0  0
 76 81  1  0  0  0  0
 76145  1  0  0  0  0
 76146  1  0  0  0  0
 77147  1  0  0  0  0
 77148  1  0  0  0  0
 80149  1  0  0  0  0
 80150  1  0  0  0  0
 81151  1  0  0  0  0
 82152  1  0  0  0  0
M  ISO  4   1 100  68 101  77 101  82 100
M  END
$$$$
45
 OpenBabel04052305473D

151159  0  0  0  0  0  0  0  0999 V2000
  -30.7652  -14.3608   20.6636 C   0  0  0  0  0  0  0  0  0  0  0  0
  -30.4392  -12.2669   19.3775 C   0  0  0  0  0  0  0  0  0  0  0  0
  -29.4791  -12.5281   18.1977 C   0  0  0  0  0  0  0  0  0  0  0  0
  -27.9985  -12.3963   18.6038 C   0  0  0  0  0  0  0  0  0  0  0  0
  -27.6639  -13.2170   19.8820 C   0  0  2  0  0  0  0  0  0  0  0  0
  -28.6795  -12.9602   21.0279 C   0  0  0  0  0  0  0  0  0  0  0  0
  -25.2633  -13.8245   20.5754 C   0  0  0  0  0  0  0  0  0  0  0  0
  -24.1645  -13.0409   20.9408 C   0  0  0  0  0  0  0  0  0  0  0  0
  -24.6400  -11.7009   20.8697 C   0  0  0  0  0  0  0  0  0  0  0  0
  -23.9005  -10.4085   21.0420 C   0  0  0  0  0  0  0  0  0  0  0  0
  -24.3588   -9.4123   21.9123 C   0  0  0  0  0  0  0  0  0  0  0  0
  -23.6296   -8.2350   22.0803 C   0  0  0  0  0  0  0  0  0  0  0  0
  -22.4385   -8.0419   21.3657 C   0  0  0  0  0  0  0  0  0  0  0  0
  -22.0103   -9.0167   20.4678 C   0  0  0  0  0  0  0  0  0  0  0  0
  -22.7317  -10.1925   20.3102 C   0  0  0  0  0  0  0  0  0  0  0  0
  -21.6857   -6.0709   22.5391 C   0  0  0  0  0  0  0  0  0  0  0  0
  -21.4064   -6.5490   23.8264 C   0  0  0  0  0  0  0  0  0  0  0  0
  -21.3635   -5.6677   24.9085 C   0  0  0  0  0  0  0  0  0  0  0  0
  -21.5973   -4.3067   24.7088 C   0  0  0  0  0  0  0  0  0  0  0  0
  -21.8700   -3.8284   23.4282 C   0  0  0  0  0  0  0  0  0  0  0  0
  -21.9144   -4.7056   22.3460 C   0  0  0  0  0  0  0  0  0  0  0  0
  -22.8194  -13.5263   21.1763 C   0  0  0  0  0  0  0  0  0  0  0  0
  -22.1559   -4.2206   21.1063 F   0  0  0  0  0  0  0  0  0  0  0  0
  -21.5628   -3.4510   25.7555 F   0  0  0  0  0  0  0  0  0  0  0  0
  -30.0261  -13.1803   20.4553 N   0  0  0  0  0  0  0  0  0  0  0  0
  -26.2911  -12.9356   20.3443 N   0  0  0  0  0  0  0  0  0  0  0  0
  -25.9236  -11.6675   20.5847 N   0  0  0  0  0  0  0  0  0  0  0  0
  -22.0708  -12.7905   22.0005 N   0  0  0  0  0  0  0  0  0  0  0  0
  -25.4117  -15.1773   20.4097 N   0  0  0  0  0  0  0  0  0  0  0  0
  -31.7916  -14.6724   20.0536 O   0  0  0  0  0  0  0  0  0  0  0  0
  -21.6670   -6.9022   21.4423 O   0  0  0  0  0  0  0  0  0  0  0  0
  -22.3946  -14.5564   20.6568 O   0  0  0  0  0  0  0  0  0  0  0  0
  -24.6048  -31.8614   23.2223 C   0  0  0  0  0  0  0  0  0  0  0  0
  -25.8822  -32.4841   23.8616 C   0  0  1  0  0  0  0  0  0  0  0  0
  -27.2536  -27.5042   20.1156 C   0  0  0  0  0  0  0  0  0  0  0  0
  -25.5726  -33.8762   24.2210 N   0  0  0  0  0  0  0  0  0  0  0  0
  -23.4066  -30.4859   21.5461 C   0  0  2  0  0  0  0  0  0  0  0  0
  -24.8467  -28.9636   20.1247 C   0  0  0  0  0  0  0  0  0  0  0  0
  -22.7412  -29.4652   22.5052 C   0  0  0  0  0  0  0  0  0  0  0  0
  -18.0167  -28.1302   22.8626 C   0  0  0  0  0  0  0  0  0  0  0  0
  -24.1342  -36.7390   23.2568 C   0  0  0  0  0  0  0  0  0  0  0  0
  -25.9141  -30.8882   21.3456 C   0  0  0  0  0  0  0  0  0  0  0  0
  -25.9930  -29.5029   20.7208 C   0  0  0  0  0  0  0  0  0  0  0  0
  -27.1758  -28.7612   20.7331 C   0  0  0  0  0  0  0  0  0  0  0  0
  -26.1032  -26.9836   19.5230 C   0  0  0  0  0  0  0  0  0  0  0  0
  -24.9097  -27.7011   19.5331 C   0  0  0  0  0  0  0  0  0  0  0  0
  -23.5715  -29.7899   20.1582 C   0  0  0  0  0  0  0  0  0  0  0  0
  -25.3990  -36.3212   24.0232 C   0  0  1  0  0  0  0  0  0  0  0  0
  -20.5793  -28.3813   23.1004 C   0  0  2  0  0  0  0  0  0  0  0  0
  -20.6548  -26.9392   22.5411 C   0  0  0  0  0  0  0  0  0  0  0  0
  -19.5615  -26.6407   21.5143 C   0  0  0  0  0  0  0  0  0  0  0  0
  -18.1797  -26.7818   22.1673 C   0  0  0  0  0  0  0  0  0  0  0  0
  -19.1385  -28.8769   23.2988 C   0  0  0  0  0  0  0  0  0  0  0  0
  -18.9183  -30.1286   23.8878 C   0  0  0  0  0  0  0  0  0  0  0  0
  -17.6396  -30.6493   24.0352 C   0  0  0  0  0  0  0  0  0  0  0  0
  -25.9153  -34.9582   23.4993 C   0  0  0  0  0  0  0  0  0  0  0  0
  -16.5415  -29.9068   23.6254 C   0  0  0  0  0  0  0  0  0  0  0  0
  -16.7331  -28.6521   23.0586 C   0  0  0  0  0  0  0  0  0  0  0  0
  -26.4583  -31.6439   25.0683 C   0  0  0  0  0  0  0  0  0  0  0  0
  -25.3807  -31.3179   26.1374 C   0  0  0  0  0  0  0  0  0  0  0  0
  -27.0530  -30.3024   24.5680 C   0  0  0  0  0  0  0  0  0  0  0  0
  -27.6014  -32.4281   25.7651 C   0  0  0  0  0  0  0  0  0  0  0  0
  -27.5629  -37.2220   24.8621 C   0  0  0  0  0  0  0  0  0  0  0  0
  -21.4133  -29.3375   22.3735 N   0  0  0  0  0  0  0  0  0  0  0  0
  -26.4706  -37.3372   23.9061 N   0  0  0  0  0  0  0  0  0  0  0  0
  -24.6674  -31.0544   22.1178 N   0  0  0  0  0  0  0  0  0  0  0  0
  -23.4259  -28.8150   23.2971 O   0  0  0  0  0  0  0  0  0  0  0  0
  -28.3948  -26.7345   20.0089 O   0  0  0  0  0  0  0  0  0  0  0  0
  -26.5870  -34.9065   22.4671 O   0  0  0  0  0  0  0  0  0  0  0  0
  -23.5365  -32.1254   23.7833 O   0  0  0  0  0  0  0  0  0  0  0  0
  -28.4095  -19.2256   20.2665 C   0  0  0  0  0  0  0  0  0  0  0  0
  -28.5732  -20.5847   20.0645 C   0  0  0  0  0  0  0  0  0  0  0  0
  -29.4157  -18.3830   19.8385 C   0  0  0  0  0  0  0  0  0  0  0  0
  -29.7323  -21.0114   19.4482 C   0  0  0  0  0  0  0  0  0  0  0  0
  -28.9219  -23.3630   19.6446 C   0  0  0  0  0  0  0  0  0  0  0  0
  -28.3927  -25.8247   19.6598 C   0  0  0  0  0  0  0  0  0  0  0  0
  -29.4021  -24.7581   19.2493 C   0  0  1  0  0  0  0  0  0  0  0  0
  -30.5397  -18.8284   19.2381 N   0  0  0  0  0  0  0  0  0  0  0  0
  -30.7007  -20.1642   19.0399 N   0  0  0  0  0  0  0  0  0  0  0  0
  -29.2521  -16.9905   20.0432 N   0  0  0  0  0  0  0  0  0  0  0  0
  -29.8957  -22.3714   19.2463 N   0  0  0  0  0  0  0  0  0  0  0  0
  -30.6298  -25.0385   19.9248 O   0  0  0  0  0  0  0  0  0  0  0  0
  -31.4485  -12.4701   19.0860 H   0  0  0  0  0  0  0  0  0  0  0  0
  -30.3970  -11.2460   19.6950 H   0  0  0  0  0  0  0  0  0  0  0  0
  -29.6870  -11.8204   17.4226 H   0  0  0  0  0  0  0  0  0  0  0  0
  -29.6375  -13.5326   17.8649 H   0  0  0  0  0  0  0  0  0  0  0  0
  -27.7830  -11.3650   18.7904 H   0  0  0  0  0  0  0  0  0  0  0  0
  -27.4028  -12.7801   17.8021 H   0  0  0  0  0  0  0  0  0  0  0  0
  -27.7353  -14.2503   19.6136 H   0  0  0  0  0  0  0  0  0  0  0  0
  -28.5890  -11.9550   21.3832 H   0  0  0  0  0  0  0  0  0  0  0  0
  -28.5005  -13.6134   21.8562 H   0  0  0  0  0  0  0  0  0  0  0  0
  -25.2399   -9.5495   22.4318 H   0  0  0  0  0  0  0  0  0  0  0  0
  -23.9663   -7.5070   22.7297 H   0  0  0  0  0  0  0  0  0  0  0  0
  -21.1515   -8.8641   19.9162 H   0  0  0  0  0  0  0  0  0  0  0  0
  -22.4016  -10.9115   19.6476 H   0  0  0  0  0  0  0  0  0  0  0  0
  -21.2319   -7.5552   23.9750 H   0  0  0  0  0  0  0  0  0  0  0  0
  -21.1589   -6.0228   25.8556 H   0  0  0  0  0  0  0  0  0  0  0  0
  -22.0396   -2.8212   23.2809 H   0  0  0  0  0  0  0  0  0  0  0  0
  -22.4401  -11.9703   22.4008 H   0  0  0  0  0  0  0  0  0  0  0  0
  -21.1493  -13.0679   22.2082 H   0  0  0  0  0  0  0  0  0  0  0  0
  -24.6538  -15.7807   20.5848 H   0  0  0  0  0  0  0  0  0  0  0  0
  -26.2762  -15.5453   20.1156 H   0  0  0  0  0  0  0  0  0  0  0  0
  -26.6778  -32.4663   23.1464 H   0  0  0  0  0  0  0  0  0  0  0  0
  -25.0747  -34.0282   25.0566 H   0  0  0  0  0  0  0  0  0  0  0  0
  -22.7881  -31.3489   21.4131 H   0  0  0  0  0  0  0  0  0  0  0  0
  -23.3854  -35.9823   23.3648 H   0  0  0  0  0  0  0  0  0  0  0  0
  -24.3696  -36.8624   22.2204 H   0  0  0  0  0  0  0  0  0  0  0  0
  -23.7669  -37.6632   23.6516 H   0  0  0  0  0  0  0  0  0  0  0  0
  -25.9445  -31.6237   20.5691 H   0  0  0  0  0  0  0  0  0  0  0  0
  -26.7436  -31.0079   22.0108 H   0  0  0  0  0  0  0  0  0  0  0  0
  -28.0090  -29.1452   21.2057 H   0  0  0  0  0  0  0  0  0  0  0  0
  -26.1369  -26.0560   19.0719 H   0  0  0  0  0  0  0  0  0  0  0  0
  -24.0652  -27.2961   19.0997 H   0  0  0  0  0  0  0  0  0  0  0  0
  -23.6156  -30.5365   19.3930 H   0  0  0  0  0  0  0  0  0  0  0  0
  -22.7355  -29.1425   19.9945 H   0  0  0  0  0  0  0  0  0  0  0  0
  -25.1353  -36.2335   25.0565 H   0  0  0  0  0  0  0  0  0  0  0  0
  -21.0070  -28.3206   24.0793 H   0  0  0  0  0  0  0  0  0  0  0  0
  -20.5555  -26.2518   23.3550 H   0  0  0  0  0  0  0  0  0  0  0  0
  -21.5974  -26.8362   22.0454 H   0  0  0  0  0  0  0  0  0  0  0  0
  -19.6810  -25.6422   21.1488 H   0  0  0  0  0  0  0  0  0  0  0  0
  -19.6406  -27.3343   20.7034 H   0  0  0  0  0  0  0  0  0  0  0  0
  -17.4282  -26.6888   21.4113 H   0  0  0  0  0  0  0  0  0  0  0  0
  -18.0803  -26.0130   22.9049 H   0  0  0  0  0  0  0  0  0  0  0  0
  -19.7265  -30.6774   24.2204 H   0  0  0  0  0  0  0  0  0  0  0  0
  -17.5064  -31.5856   24.4483 H   0  0  0  0  0  0  0  0  0  0  0  0
  -15.5878  -30.2839   23.7407 H   0  0  0  0  0  0  0  0  0  0  0  0
  -15.9120  -28.0941   22.7766 H   0  0  0  0  0  0  0  0  0  0  0  0
  -24.5787  -30.7757   25.6817 H   0  0  0  0  0  0  0  0  0  0  0  0
  -25.0041  -32.2289   26.5536 H   0  0  0  0  0  0  0  0  0  0  0  0
  -25.8166  -30.7245   26.9138 H   0  0  0  0  0  0  0  0  0  0  0  0
  -26.2892  -29.7335   24.0803 H   0  0  0  0  0  0  0  0  0  0  0  0
  -27.4336  -29.7484   25.4006 H   0  0  0  0  0  0  0  0  0  0  0  0
  -27.8466  -30.4994   23.8779 H   0  0  0  0  0  0  0  0  0  0  0  0
  -27.2251  -33.3632   26.1242 H   0  0  0  0  0  0  0  0  0  0  0  0
  -28.3902  -32.6065   25.0645 H   0  0  0  0  0  0  0  0  0  0  0  0
  -27.9772  -31.8555   26.5872 H   0  0  0  0  0  0  0  0  0  0  0  0
  -28.2744  -38.0016   24.6863 H   0  0  0  0  0  0  0  0  0  0  0  0
  -28.0396  -36.2711   24.7461 H   0  0  0  0  0  0  0  0  0  0  0  0
  -27.1773  -37.3087   25.8564 H   0  0  0  0  0  0  0  0  0  0  0  0
  -20.9627  -29.9365   21.7352 H   0  0  0  0  0  0  0  0  0  0  0  0
  -26.0447  -38.2561   24.0273 H   0  0  0  0  0  0  0  0  0  0  0  0
  -27.5619  -18.8536   20.7228 H   0  0  0  0  0  0  0  0  0  0  0  0
  -27.8514  -21.2582   20.3652 H   0  0  0  0  0  0  0  0  0  0  0  0
  -27.9901  -23.1588   19.1598 H   0  0  0  0  0  0  0  0  0  0  0  0
  -28.7959  -23.3236   20.7064 H   0  0  0  0  0  0  0  0  0  0  0  0
  -27.8157  -25.3080   20.3980 H   0  0  0  0  0  0  0  0  0  0  0  0
  -28.2312  -26.1466   18.6522 H   0  0  0  0  0  0  0  0  0  0  0  0
  -29.5266  -24.7768   18.1867 H   0  0  0  0  0  0  0  0  0  0  0  0
  -28.2947  -16.7788   19.9546 H   0  0  0  0  0  0  0  0  0  0  0  0
  -30.7209  -22.6804   18.8071 H   0  0  0  0  0  0  0  0  0  0  0  0
  -30.4842  -25.0142   20.8835 H   0  0  0  0  0  0  0  0  0  0  0  0
  1 25  1  0  0  0  0
  1 30  2  0  0  0  0
  1 80  1  0  0  0  0
  2  3  1  0  0  0  0
  2 25  1  0  0  0  0
  2 83  1  0  0  0  0
  2 84  1  0  0  0  0
  3  4  1  0  0  0  0
  3 85  1  0  0  0  0
  3 86  1  0  0  0  0
  4  5  1  0  0  0  0
  4 87  1  0  0  0  0
  4 88  1  0  0  0  0
  5  6  1  0  0  0  0
  5 26  1  0  0  0  0
  5 89  1  6  0  0  0
  6 25  1  0  0  0  0
  6 90  1  0  0  0  0
  6 91  1  0  0  0  0
  7  8  2  0  0  0  0
  7 26  1  0  0  0  0
  7 29  1  0  0  0  0
  8  9  1  0  0  0  0
  8 22  1  0  0  0  0
  9 10  1  0  0  0  0
  9 27  2  0  0  0  0
 10 11  2  0  0  0  0
 10 15  1  0  0  0  0
 11 12  1  0  0  0  0
 11 92  1  0  0  0  0
 12 13  2  0  0  0  0
 12 93  1  0  0  0  0
 13 14  1  0  0  0  0
 13 31  1  0  0  0  0
 14 15  2  0  0  0  0
 14 94  1  0  0  0  0
 15 95  1  0  0  0  0
 16 17  2  0  0  0  0
 16 21  1  0  0  0  0
 16 31  1  0  0  0  0
 17 18  1  0  0  0  0
 17 96  1  0  0  0  0
 18 19  2  0  0  0  0
 18 97  1  0  0  0  0
 19 20  1  0  0  0  0
 19 24  1  0  0  0  0
 20 21  2  0  0  0  0
 20 98  1  0  0  0  0
 21 23  1  0  0  0  0
 22 28  1  0  0  0  0
 22 32  2  0  0  0  0
 26 27  1  0  0  0  0
 28 99  1  0  0  0  0
 28100  1  0  0  0  0
 29101  1  0  0  0  0
 29102  1  0  0  0  0
 33 34  1  0  0  0  0
 33 66  1  0  0  0  0
 33 70  2  0  0  0  0
 34 36  1  0  0  0  0
 34 59  1  0  0  0  0
 34103  1  6  0  0  0
 35 44  2  0  0  0  0
 35 45  1  0  0  0  0
 35 68  1  0  0  0  0
 36 56  1  0  0  0  0
 36104  1  0  0  0  0
 37 39  1  0  0  0  0
 37 47  1  0  0  0  0
 37 66  1  0  0  0  0
 37105  1  6  0  0  0
 38 43  2  0  0  0  0
 38 46  1  0  0  0  0
 38 47  1  0  0  0  0
 39 64  1  0  0  0  0
 39 67  2  0  0  0  0
 40 52  1  0  0  0  0
 40 53  2  0  0  0  0
 40 58  1  0  0  0  0
 41106  1  0  0  0  0
 41107  1  0  0  0  0
 41108  1  0  0  0  0
 42 43  1  0  0  0  0
 42 66  1  0  0  0  0
 42109  1  0  0  0  0
 42110  1  0  0  0  0
 43 44  1  0  0  0  0
 44111  1  0  0  0  0
 45 46  2  0  0  0  0
 45112  1  0  0  0  0
 46113  1  0  0  0  0
 47114  1  0  0  0  0
 47115  1  0  0  0  0
 48 41  1  0  0  0  0
 48 56  1  0  0  0  0
 48 65  1  0  0  0  0
 48116  1  1  0  0  0
 49 50  1  0  0  0  0
 49 53  1  0  0  0  0
 49 64  1  0  0  0  0
 49117  1  1  0  0  0
 50 51  1  0  0  0  0
 50118  1  0  0  0  0
 50119  1  0  0  0  0
 51 52  1  0  0  0  0
 51120  1  0  0  0  0
 51121  1  0  0  0  0
 52122  1  0  0  0  0
 52123  1  0  0  0  0
 53 54  1  0  0  0  0
 54 55  2  0  0  0  0
 54124  1  0  0  0  0
 55 57  1  0  0  0  0
 55125  1  0  0  0  0
 56 69  2  0  0  0  0
 57 58  2  0  0  0  0
 57126  1  0  0  0  0
 58127  1  0  0  0  0
 59 60  1  0  0  0  0
 59 61  1  0  0  0  0
 59 62  1  0  0  0  0
 60128  1  0  0  0  0
 60129  1  0  0  0  0
 60130  1  0  0  0  0
 61131  1  0  0  0  0
 61132  1  0  0  0  0
 61133  1  0  0  0  0
 62134  1  0  0  0  0
 62135  1  0  0  0  0
 62136  1  0  0  0  0
 63 65  1  0  0  0  0
 63137  1  0  0  0  0
 63138  1  0  0  0  0
 63139  1  0  0  0  0
 64140  1  0  0  0  0
 65141  1  0  0  0  0
 68 76  1  0  0  0  0
 71 72  2  0  0  0  0
 71 73  1  0  0  0  0
 71142  1  0  0  0  0
 72 74  1  0  0  0  0
 72143  1  0  0  0  0
 73 78  2  0  0  0  0
 73 80  1  0  0  0  0
 74 79  2  0  0  0  0
 74 81  1  0  0  0  0
 75 77  1  0  0  0  0
 75 81  1  0  0  0  0
 75144  1  0  0  0  0
 75145  1  0  0  0  0
 76 77  1  0  0  0  0
 76146  1  0  0  0  0
 76147  1  0  0  0  0
 77 82  1  0  0  0  0
 77148  1  6  0  0  0
 78 79  1  0  0  0  0
 80149  1  0  0  0  0
 81150  1  0  0  0  0
 82151  1  0  0  0  0
M  ISO  4   1 100  68 101  76 101  80 100
M  END
$$$$
46
 OpenBabel04052305473D

151159  0  0  0  0  0  0  0  0999 V2000
  -30.7652  -14.3608   20.6636 C   0  0  0  0  0  0  0  0  0  0  0  0
  -30.4392  -12.2669   19.3775 C   0  0  0  0  0  0  0  0  0  0  0  0
  -29.4791  -12.5281   18.1977 C   0  0  0  0  0  0  0  0  0  0  0  0
  -27.9985  -12.3963   18.6038 C   0  0  0  0  0  0  0  0  0  0  0  0
  -27.6639  -13.2170   19.8820 C   0  0  2  0  0  0  0  0  0  0  0  0
  -28.6795  -12.9602   21.0279 C   0  0  0  0  0  0  0  0  0  0  0  0
  -25.2633  -13.8245   20.5754 C   0  0  0  0  0  0  0  0  0  0  0  0
  -24.1645  -13.0409   20.9408 C   0  0  0  0  0  0  0  0  0  0  0  0
  -24.6400  -11.7009   20.8697 C   0  0  0  0  0  0  0  0  0  0  0  0
  -23.9005  -10.4085   21.0420 C   0  0  0  0  0  0  0  0  0  0  0  0
  -24.3588   -9.4123   21.9123 C   0  0  0  0  0  0  0  0  0  0  0  0
  -23.6296   -8.2350   22.0803 C   0  0  0  0  0  0  0  0  0  0  0  0
  -22.4385   -8.0419   21.3657 C   0  0  0  0  0  0  0  0  0  0  0  0
  -22.0103   -9.0167   20.4678 C   0  0  0  0  0  0  0  0  0  0  0  0
  -22.7317  -10.1925   20.3102 C   0  0  0  0  0  0  0  0  0  0  0  0
  -21.6857   -6.0709   22.5391 C   0  0  0  0  0  0  0  0  0  0  0  0
  -21.4064   -6.5490   23.8264 C   0  0  0  0  0  0  0  0  0  0  0  0
  -21.3635   -5.6677   24.9085 C   0  0  0  0  0  0  0  0  0  0  0  0
  -21.5973   -4.3067   24.7088 C   0  0  0  0  0  0  0  0  0  0  0  0
  -21.8700   -3.8284   23.4282 C   0  0  0  0  0  0  0  0  0  0  0  0
  -21.9144   -4.7056   22.3460 C   0  0  0  0  0  0  0  0  0  0  0  0
  -22.8194  -13.5263   21.1763 C   0  0  0  0  0  0  0  0  0  0  0  0
  -22.1559   -4.2206   21.1063 F   0  0  0  0  0  0  0  0  0  0  0  0
  -21.5628   -3.4510   25.7555 F   0  0  0  0  0  0  0  0  0  0  0  0
  -30.0261  -13.1803   20.4553 N   0  0  0  0  0  0  0  0  0  0  0  0
  -26.2911  -12.9356   20.3443 N   0  0  0  0  0  0  0  0  0  0  0  0
  -25.9236  -11.6675   20.5847 N   0  0  0  0  0  0  0  0  0  0  0  0
  -22.0708  -12.7905   22.0005 N   0  0  0  0  0  0  0  0  0  0  0  0
  -25.4117  -15.1773   20.4097 N   0  0  0  0  0  0  0  0  0  0  0  0
  -31.7916  -14.6724   20.0536 O   0  0  0  0  0  0  0  0  0  0  0  0
  -21.6670   -6.9022   21.4423 O   0  0  0  0  0  0  0  0  0  0  0  0
  -22.3946  -14.5564   20.6568 O   0  0  0  0  0  0  0  0  0  0  0  0
  -24.6048  -31.8614   23.2223 C   0  0  0  0  0  0  0  0  0  0  0  0
  -25.8822  -32.4841   23.8616 C   0  0  1  0  0  0  0  0  0  0  0  0
  -27.2536  -27.5042   20.1156 C   0  0  0  0  0  0  0  0  0  0  0  0
  -25.5726  -33.8762   24.2210 N   0  0  0  0  0  0  0  0  0  0  0  0
  -23.4066  -30.4859   21.5461 C   0  0  2  0  0  0  0  0  0  0  0  0
  -24.8467  -28.9636   20.1247 C   0  0  0  0  0  0  0  0  0  0  0  0
  -22.7412  -29.4652   22.5052 C   0  0  0  0  0  0  0  0  0  0  0  0
  -18.0167  -28.1302   22.8626 C   0  0  0  0  0  0  0  0  0  0  0  0
  -24.1342  -36.7390   23.2568 C   0  0  0  0  0  0  0  0  0  0  0  0
  -25.9141  -30.8882   21.3456 C   0  0  0  0  0  0  0  0  0  0  0  0
  -25.9930  -29.5029   20.7208 C   0  0  0  0  0  0  0  0  0  0  0  0
  -27.1758  -28.7612   20.7331 C   0  0  0  0  0  0  0  0  0  0  0  0
  -26.1032  -26.9836   19.5230 C   0  0  0  0  0  0  0  0  0  0  0  0
  -24.9097  -27.7011   19.5331 C   0  0  0  0  0  0  0  0  0  0  0  0
  -23.5715  -29.7899   20.1582 C   0  0  0  0  0  0  0  0  0  0  0  0
  -25.3990  -36.3212   24.0232 C   0  0  1  0  0  0  0  0  0  0  0  0
  -20.5793  -28.3813   23.1004 C   0  0  2  0  0  0  0  0  0  0  0  0
  -20.6548  -26.9392   22.5411 C   0  0  0  0  0  0  0  0  0  0  0  0
  -19.5615  -26.6407   21.5143 C   0  0  0  0  0  0  0  0  0  0  0  0
  -18.1797  -26.7818   22.1673 C   0  0  0  0  0  0  0  0  0  0  0  0
  -19.1385  -28.8769   23.2988 C   0  0  0  0  0  0  0  0  0  0  0  0
  -18.9183  -30.1286   23.8878 C   0  0  0  0  0  0  0  0  0  0  0  0
  -17.6396  -30.6493   24.0352 C   0  0  0  0  0  0  0  0  0  0  0  0
  -25.9153  -34.9582   23.4993 C   0  0  0  0  0  0  0  0  0  0  0  0
  -16.5415  -29.9068   23.6254 C   0  0  0  0  0  0  0  0  0  0  0  0
  -16.7331  -28.6521   23.0586 C   0  0  0  0  0  0  0  0  0  0  0  0
  -26.4583  -31.6439   25.0683 C   0  0  0  0  0  0  0  0  0  0  0  0
  -25.3807  -31.3179   26.1374 C   0  0  0  0  0  0  0  0  0  0  0  0
  -27.0530  -30.3024   24.5680 C   0  0  0  0  0  0  0  0  0  0  0  0
  -27.6014  -32.4281   25.7651 C   0  0  0  0  0  0  0  0  0  0  0  0
  -27.5629  -37.2220   24.8621 C   0  0  0  0  0  0  0  0  0  0  0  0
  -21.4133  -29.3375   22.3735 N   0  0  0  0  0  0  0  0  0  0  0  0
  -26.4706  -37.3372   23.9061 N   0  0  0  0  0  0  0  0  0  0  0  0
  -24.6674  -31.0544   22.1178 N   0  0  0  0  0  0  0  0  0  0  0  0
  -23.4259  -28.8150   23.2971 O   0  0  0  0  0  0  0  0  0  0  0  0
  -28.3948  -26.7345   20.0089 O   0  0  0  0  0  0  0  0  0  0  0  0
  -26.5870  -34.9065   22.4671 O   0  0  0  0  0  0  0  0  0  0  0  0
  -23.5365  -32.1254   23.7833 O   0  0  0  0  0  0  0  0  0  0  0  0
  -30.0345  -17.9255   22.7274 C   0  0  0  0  0  0  0  0  0  0  0  0
  -31.0489  -18.8963   22.7935 C   0  0  0  0  0  0  0  0  0  0  0  0
  -30.5719  -16.9465   21.9344 C   0  0  0  0  0  0  0  0  0  0  0  0
  -31.9239  -21.0888   23.6017 C   0  0  0  0  0  0  0  0  0  0  0  0
  -32.5078  -23.3239   24.6034 C   0  0  0  0  0  0  0  0  0  0  0  0
  -31.4475  -22.2336   24.4936 C   0  0  1  0  0  0  0  0  0  0  0  0
  -32.1325  -18.5461   22.0949 N   0  0  0  0  0  0  0  0  0  0  0  0
  -28.8145  -17.9371   23.3017 N   0  0  0  0  0  0  0  0  0  0  0  0
  -30.9016  -20.0702   23.5128 N   0  0  0  0  0  0  0  0  0  0  0  0
  -30.0708  -15.7022   21.4778 N   0  0  0  0  0  0  0  0  0  0  0  0
  -31.8237  -17.3052   21.5506 O   0  0  0  0  0  0  0  0  0  0  0  0
  -30.2788  -22.8201   23.9168 O   0  0  0  0  0  0  0  0  0  0  0  0
  -31.4485  -12.4701   19.0860 H   0  0  0  0  0  0  0  0  0  0  0  0
  -30.3970  -11.2460   19.6950 H   0  0  0  0  0  0  0  0  0  0  0  0
  -29.6870  -11.8204   17.4226 H   0  0  0  0  0  0  0  0  0  0  0  0
  -29.6375  -13.5326   17.8649 H   0  0  0  0  0  0  0  0  0  0  0  0
  -27.7830  -11.3650   18.7904 H   0  0  0  0  0  0  0  0  0  0  0  0
  -27.4028  -12.7801   17.8021 H   0  0  0  0  0  0  0  0  0  0  0  0
  -27.7353  -14.2503   19.6136 H   0  0  0  0  0  0  0  0  0  0  0  0
  -28.5890  -11.9550   21.3832 H   0  0  0  0  0  0  0  0  0  0  0  0
  -28.5005  -13.6134   21.8562 H   0  0  0  0  0  0  0  0  0  0  0  0
  -25.2399   -9.5495   22.4318 H   0  0  0  0  0  0  0  0  0  0  0  0
  -23.9663   -7.5070   22.7297 H   0  0  0  0  0  0  0  0  0  0  0  0
  -21.1515   -8.8641   19.9162 H   0  0  0  0  0  0  0  0  0  0  0  0
  -22.4016  -10.9115   19.6476 H   0  0  0  0  0  0  0  0  0  0  0  0
  -21.2319   -7.5552   23.9750 H   0  0  0  0  0  0  0  0  0  0  0  0
  -21.1589   -6.0228   25.8556 H   0  0  0  0  0  0  0  0  0  0  0  0
  -22.0396   -2.8212   23.2809 H   0  0  0  0  0  0  0  0  0  0  0  0
  -22.4401  -11.9703   22.4008 H   0  0  0  0  0  0  0  0  0  0  0  0
  -21.1493  -13.0679   22.2082 H   0  0  0  0  0  0  0  0  0  0  0  0
  -24.6538  -15.7807   20.5848 H   0  0  0  0  0  0  0  0  0  0  0  0
  -26.2762  -15.5453   20.1156 H   0  0  0  0  0  0  0  0  0  0  0  0
  -26.6778  -32.4663   23.1464 H   0  0  0  0  0  0  0  0  0  0  0  0
  -25.0747  -34.0282   25.0566 H   0  0  0  0  0  0  0  0  0  0  0  0
  -22.7881  -31.3489   21.4131 H   0  0  0  0  0  0  0  0  0  0  0  0
  -23.3854  -35.9823   23.3648 H   0  0  0  0  0  0  0  0  0  0  0  0
  -24.3696  -36.8624   22.2204 H   0  0  0  0  0  0  0  0  0  0  0  0
  -23.7669  -37.6632   23.6516 H   0  0  0  0  0  0  0  0  0  0  0  0
  -25.9445  -31.6237   20.5691 H   0  0  0  0  0  0  0  0  0  0  0  0
  -26.7436  -31.0079   22.0108 H   0  0  0  0  0  0  0  0  0  0  0  0
  -28.0090  -29.1452   21.2057 H   0  0  0  0  0  0  0  0  0  0  0  0
  -26.1369  -26.0560   19.0719 H   0  0  0  0  0  0  0  0  0  0  0  0
  -24.0652  -27.2961   19.0997 H   0  0  0  0  0  0  0  0  0  0  0  0
  -23.6156  -30.5365   19.3930 H   0  0  0  0  0  0  0  0  0  0  0  0
  -22.7355  -29.1425   19.9945 H   0  0  0  0  0  0  0  0  0  0  0  0
  -25.1353  -36.2335   25.0565 H   0  0  0  0  0  0  0  0  0  0  0  0
  -21.0070  -28.3206   24.0793 H   0  0  0  0  0  0  0  0  0  0  0  0
  -20.5555  -26.2518   23.3550 H   0  0  0  0  0  0  0  0  0  0  0  0
  -21.5974  -26.8362   22.0454 H   0  0  0  0  0  0  0  0  0  0  0  0
  -19.6810  -25.6422   21.1488 H   0  0  0  0  0  0  0  0  0  0  0  0
  -19.6406  -27.3343   20.7034 H   0  0  0  0  0  0  0  0  0  0  0  0
  -17.4282  -26.6888   21.4113 H   0  0  0  0  0  0  0  0  0  0  0  0
  -18.0803  -26.0130   22.9049 H   0  0  0  0  0  0  0  0  0  0  0  0
  -19.7265  -30.6774   24.2204 H   0  0  0  0  0  0  0  0  0  0  0  0
  -17.5064  -31.5856   24.4483 H   0  0  0  0  0  0  0  0  0  0  0  0
  -15.5878  -30.2839   23.7407 H   0  0  0  0  0  0  0  0  0  0  0  0
  -15.9120  -28.0941   22.7766 H   0  0  0  0  0  0  0  0  0  0  0  0
  -24.5787  -30.7757   25.6817 H   0  0  0  0  0  0  0  0  0  0  0  0
  -25.0041  -32.2289   26.5536 H   0  0  0  0  0  0  0  0  0  0  0  0
  -25.8166  -30.7245   26.9138 H   0  0  0  0  0  0  0  0  0  0  0  0
  -26.2892  -29.7335   24.0803 H   0  0  0  0  0  0  0  0  0  0  0  0
  -27.4336  -29.7484   25.4006 H   0  0  0  0  0  0  0  0  0  0  0  0
  -27.8466  -30.4994   23.8779 H   0  0  0  0  0  0  0  0  0  0  0  0
  -27.2251  -33.3632   26.1242 H   0  0  0  0  0  0  0  0  0  0  0  0
  -28.3902  -32.6065   25.0645 H   0  0  0  0  0  0  0  0  0  0  0  0
  -27.9772  -31.8555   26.5872 H   0  0  0  0  0  0  0  0  0  0  0  0
  -28.2744  -38.0016   24.6863 H   0  0  0  0  0  0  0  0  0  0  0  0
  -28.0396  -36.2711   24.7461 H   0  0  0  0  0  0  0  0  0  0  0  0
  -27.1773  -37.3087   25.8564 H   0  0  0  0  0  0  0  0  0  0  0  0
  -20.9627  -29.9365   21.7352 H   0  0  0  0  0  0  0  0  0  0  0  0
  -26.0447  -38.2561   24.0273 H   0  0  0  0  0  0  0  0  0  0  0  0
  -32.8130  -20.6626   24.0174 H   0  0  0  0  0  0  0  0  0  0  0  0
  -32.1261  -21.4687   22.6221 H   0  0  0  0  0  0  0  0  0  0  0  0
  -33.4791  -23.0584   24.2416 H   0  0  0  0  0  0  0  0  0  0  0  0
  -32.8326  -23.7432   25.5327 H   0  0  0  0  0  0  0  0  0  0  0  0
  -31.2463  -21.8344   25.4657 H   0  0  0  0  0  0  0  0  0  0  0  0
  -28.5382  -18.7031   23.8550 H   0  0  0  0  0  0  0  0  0  0  0  0
  -28.2001  -17.1796   23.1676 H   0  0  0  0  0  0  0  0  0  0  0  0
  -30.0537  -20.2196   23.9902 H   0  0  0  0  0  0  0  0  0  0  0  0
  -29.1130  -15.5804   21.6701 H   0  0  0  0  0  0  0  0  0  0  0  0
  -30.4933  -23.1718   23.0386 H   0  0  0  0  0  0  0  0  0  0  0  0
  1 25  1  0  0  0  0
  1 30  2  0  0  0  0
  1 80  1  0  0  0  0
  2  3  1  0  0  0  0
  2 25  1  0  0  0  0
  2 83  1  0  0  0  0
  2 84  1  0  0  0  0
  3  4  1  0  0  0  0
  3 85  1  0  0  0  0
  3 86  1  0  0  0  0
  4  5  1  0  0  0  0
  4 87  1  0  0  0  0
  4 88  1  0  0  0  0
  5  6  1  0  0  0  0
  5 26  1  0  0  0  0
  5 89  1  6  0  0  0
  6 25  1  0  0  0  0
  6 90  1  0  0  0  0
  6 91  1  0  0  0  0
  7  8  2  0  0  0  0
  7 26  1  0  0  0  0
  7 29  1  0  0  0  0
  8  9  1  0  0  0  0
  8 22  1  0  0  0  0
  9 10  1  0  0  0  0
  9 27  2  0  0  0  0
 10 11  2  0  0  0  0
 10 15  1  0  0  0  0
 11 12  1  0  0  0  0
 11 92  1  0  0  0  0
 12 13  2  0  0  0  0
 12 93  1  0  0  0  0
 13 14  1  0  0  0  0
 13 31  1  0  0  0  0
 14 15  2  0  0  0  0
 14 94  1  0  0  0  0
 15 95  1  0  0  0  0
 16 17  2  0  0  0  0
 16 21  1  0  0  0  0
 16 31  1  0  0  0  0
 17 18  1  0  0  0  0
 17 96  1  0  0  0  0
 18 19  2  0  0  0  0
 18 97  1  0  0  0  0
 19 20  1  0  0  0  0
 19 24  1  0  0  0  0
 20 21  2  0  0  0  0
 20 98  1  0  0  0  0
 21 23  1  0  0  0  0
 22 28  1  0  0  0  0
 22 32  2  0  0  0  0
 26 27  1  0  0  0  0
 28 99  1  0  0  0  0
 28100  1  0  0  0  0
 29101  1  0  0  0  0
 29102  1  0  0  0  0
 33 34  1  0  0  0  0
 33 66  1  0  0  0  0
 33 70  2  0  0  0  0
 34 36  1  0  0  0  0
 34 59  1  0  0  0  0
 34103  1  6  0  0  0
 35 44  2  0  0  0  0
 35 45  1  0  0  0  0
 35 68  1  0  0  0  0
 36 56  1  0  0  0  0
 36104  1  0  0  0  0
 37 39  1  0  0  0  0
 37 47  1  0  0  0  0
 37 66  1  0  0  0  0
 37105  1  6  0  0  0
 38 43  2  0  0  0  0
 38 46  1  0  0  0  0
 38 47  1  0  0  0  0
 39 64  1  0  0  0  0
 39 67  2  0  0  0  0
 40 52  1  0  0  0  0
 40 53  2  0  0  0  0
 40 58  1  0  0  0  0
 41106  1  0  0  0  0
 41107  1  0  0  0  0
 41108  1  0  0  0  0
 42 43  1  0  0  0  0
 42 66  1  0  0  0  0
 42109  1  0  0  0  0
 42110  1  0  0  0  0
 43 44  1  0  0  0  0
 44111  1  0  0  0  0
 45 46  2  0  0  0  0
 45112  1  0  0  0  0
 46113  1  0  0  0  0
 47114  1  0  0  0  0
 47115  1  0  0  0  0
 48 41  1  0  0  0  0
 48 56  1  0  0  0  0
 48 65  1  0  0  0  0
 48116  1  1  0  0  0
 49 50  1  0  0  0  0
 49 53  1  0  0  0  0
 49 64  1  0  0  0  0
 49117  1  1  0  0  0
 50 51  1  0  0  0  0
 50118  1  0  0  0  0
 50119  1  0  0  0  0
 51 52  1  0  0  0  0
 51120  1  0  0  0  0
 51121  1  0  0  0  0
 52122  1  0  0  0  0
 52123  1  0  0  0  0
 53 54  1  0  0  0  0
 54 55  2  0  0  0  0
 54124  1  0  0  0  0
 55 57  1  0  0  0  0
 55125  1  0  0  0  0
 56 69  2  0  0  0  0
 57 58  2  0  0  0  0
 57126  1  0  0  0  0
 58127  1  0  0  0  0
 59 60  1  0  0  0  0
 59 61  1  0  0  0  0
 59 62  1  0  0  0  0
 60128  1  0  0  0  0
 60129  1  0  0  0  0
 60130  1  0  0  0  0
 61131  1  0  0  0  0
 61132  1  0  0  0  0
 61133  1  0  0  0  0
 62134  1  0  0  0  0
 62135  1  0  0  0  0
 62136  1  0  0  0  0
 63 65  1  0  0  0  0
 63137  1  0  0  0  0
 63138  1  0  0  0  0
 63139  1  0  0  0  0
 64140  1  0  0  0  0
 65141  1  0  0  0  0
 68 75  1  0  0  0  0
 71 72  1  0  0  0  0
 71 73  2  0  0  0  0
 71 78  1  0  0  0  0
 72 77  2  0  0  0  0
 72 79  1  0  0  0  0
 73 80  1  0  0  0  0
 73 81  1  0  0  0  0
 74 76  1  0  0  0  0
 74 79  1  0  0  0  0
 74142  1  0  0  0  0
 74143  1  0  0  0  0
 75 76  1  0  0  0  0
 75144  1  0  0  0  0
 75145  1  0  0  0  0
 76 82  1  0  0  0  0
 76146  1  1  0  0  0
 77 81  1  0  0  0  0
 78147  1  0  0  0  0
 78148  1  0  0  0  0
 79149  1  0  0  0  0
 80150  1  0  0  0  0
 82151  1  0  0  0  0
M  ISO  4   1 100  68 101  75 101  80 100
M  END
$$$$
47
 OpenBabel04052305473D

156164  0  0  0  0  0  0  0  0999 V2000
  -30.7652  -14.3608   20.6636 C   0  0  0  0  0  0  0  0  0  0  0  0
  -30.4392  -12.2669   19.3775 C   0  0  0  0  0  0  0  0  0  0  0  0
  -29.4791  -12.5281   18.1977 C   0  0  0  0  0  0  0  0  0  0  0  0
  -27.9985  -12.3963   18.6038 C   0  0  0  0  0  0  0  0  0  0  0  0
  -27.6639  -13.2170   19.8820 C   0  0  2  0  0  0  0  0  0  0  0  0
  -28.6795  -12.9602   21.0279 C   0  0  0  0  0  0  0  0  0  0  0  0
  -25.2633  -13.8245   20.5754 C   0  0  0  0  0  0  0  0  0  0  0  0
  -24.1645  -13.0409   20.9408 C   0  0  0  0  0  0  0  0  0  0  0  0
  -24.6400  -11.7009   20.8697 C   0  0  0  0  0  0  0  0  0  0  0  0
  -23.9005  -10.4085   21.0420 C   0  0  0  0  0  0  0  0  0  0  0  0
  -24.3588   -9.4123   21.9123 C   0  0  0  0  0  0  0  0  0  0  0  0
  -23.6296   -8.2350   22.0803 C   0  0  0  0  0  0  0  0  0  0  0  0
  -22.4385   -8.0419   21.3657 C   0  0  0  0  0  0  0  0  0  0  0  0
  -22.0103   -9.0167   20.4678 C   0  0  0  0  0  0  0  0  0  0  0  0
  -22.7317  -10.1925   20.3102 C   0  0  0  0  0  0  0  0  0  0  0  0
  -21.6857   -6.0709   22.5391 C   0  0  0  0  0  0  0  0  0  0  0  0
  -21.4064   -6.5490   23.8264 C   0  0  0  0  0  0  0  0  0  0  0  0
  -21.3635   -5.6677   24.9085 C   0  0  0  0  0  0  0  0  0  0  0  0
  -21.5973   -4.3067   24.7088 C   0  0  0  0  0  0  0  0  0  0  0  0
  -21.8700   -3.8284   23.4282 C   0  0  0  0  0  0  0  0  0  0  0  0
  -21.9144   -4.7056   22.3460 C   0  0  0  0  0  0  0  0  0  0  0  0
  -22.8194  -13.5263   21.1763 C   0  0  0  0  0  0  0  0  0  0  0  0
  -22.1559   -4.2206   21.1063 F   0  0  0  0  0  0  0  0  0  0  0  0
  -21.5628   -3.4510   25.7555 F   0  0  0  0  0  0  0  0  0  0  0  0
  -30.0261  -13.1803   20.4553 N   0  0  0  0  0  0  0  0  0  0  0  0
  -26.2911  -12.9356   20.3443 N   0  0  0  0  0  0  0  0  0  0  0  0
  -25.9236  -11.6675   20.5847 N   0  0  0  0  0  0  0  0  0  0  0  0
  -22.0708  -12.7905   22.0005 N   0  0  0  0  0  0  0  0  0  0  0  0
  -25.4117  -15.1773   20.4097 N   0  0  0  0  0  0  0  0  0  0  0  0
  -31.7916  -14.6724   20.0536 O   0  0  0  0  0  0  0  0  0  0  0  0
  -21.6670   -6.9022   21.4423 O   0  0  0  0  0  0  0  0  0  0  0  0
  -22.3946  -14.5564   20.6568 O   0  0  0  0  0  0  0  0  0  0  0  0
  -24.6048  -31.8614   23.2223 C   0  0  0  0  0  0  0  0  0  0  0  0
  -25.8822  -32.4841   23.8616 C   0  0  1  0  0  0  0  0  0  0  0  0
  -27.2536  -27.5042   20.1156 C   0  0  0  0  0  0  0  0  0  0  0  0
  -25.5726  -33.8762   24.2210 N   0  0  0  0  0  0  0  0  0  0  0  0
  -23.4066  -30.4859   21.5461 C   0  0  2  0  0  0  0  0  0  0  0  0
  -24.8467  -28.9636   20.1247 C   0  0  0  0  0  0  0  0  0  0  0  0
  -22.7412  -29.4652   22.5052 C   0  0  0  0  0  0  0  0  0  0  0  0
  -18.0167  -28.1302   22.8626 C   0  0  0  0  0  0  0  0  0  0  0  0
  -24.1342  -36.7390   23.2568 C   0  0  0  0  0  0  0  0  0  0  0  0
  -25.9141  -30.8882   21.3456 C   0  0  0  0  0  0  0  0  0  0  0  0
  -25.9930  -29.5029   20.7208 C   0  0  0  0  0  0  0  0  0  0  0  0
  -27.1758  -28.7612   20.7331 C   0  0  0  0  0  0  0  0  0  0  0  0
  -26.1032  -26.9836   19.5230 C   0  0  0  0  0  0  0  0  0  0  0  0
  -24.9097  -27.7011   19.5331 C   0  0  0  0  0  0  0  0  0  0  0  0
  -23.5715  -29.7899   20.1582 C   0  0  0  0  0  0  0  0  0  0  0  0
  -25.3990  -36.3212   24.0232 C   0  0  1  0  0  0  0  0  0  0  0  0
  -20.5793  -28.3813   23.1004 C   0  0  2  0  0  0  0  0  0  0  0  0
  -20.6548  -26.9392   22.5411 C   0  0  0  0  0  0  0  0  0  0  0  0
  -19.5615  -26.6407   21.5143 C   0  0  0  0  0  0  0  0  0  0  0  0
  -18.1797  -26.7818   22.1673 C   0  0  0  0  0  0  0  0  0  0  0  0
  -19.1385  -28.8769   23.2988 C   0  0  0  0  0  0  0  0  0  0  0  0
  -18.9183  -30.1286   23.8878 C   0  0  0  0  0  0  0  0  0  0  0  0
  -17.6396  -30.6493   24.0352 C   0  0  0  0  0  0  0  0  0  0  0  0
  -25.9153  -34.9582   23.4993 C   0  0  0  0  0  0  0  0  0  0  0  0
  -16.5415  -29.9068   23.6254 C   0  0  0  0  0  0  0  0  0  0  0  0
  -16.7331  -28.6521   23.0586 C   0  0  0  0  0  0  0  0  0  0  0  0
  -26.4583  -31.6439   25.0683 C   0  0  0  0  0  0  0  0  0  0  0  0
  -25.3807  -31.3179   26.1374 C   0  0  0  0  0  0  0  0  0  0  0  0
  -27.0530  -30.3024   24.5680 C   0  0  0  0  0  0  0  0  0  0  0  0
  -27.6014  -32.4281   25.7651 C   0  0  0  0  0  0  0  0  0  0  0  0
  -27.5629  -37.2220   24.8621 C   0  0  0  0  0  0  0  0  0  0  0  0
  -21.4133  -29.3375   22.3735 N   0  0  0  0  0  0  0  0  0  0  0  0
  -26.4706  -37.3372   23.9061 N   0  0  0  0  0  0  0  0  0  0  0  0
  -24.6674  -31.0544   22.1178 N   0  0  0  0  0  0  0  0  0  0  0  0
  -23.4259  -28.8150   23.2971 O   0  0  0  0  0  0  0  0  0  0  0  0
  -28.3948  -26.7345   20.0089 O   0  0  0  0  0  0  0  0  0  0  0  0
  -26.5870  -34.9065   22.4671 O   0  0  0  0  0  0  0  0  0  0  0  0
  -23.5365  -32.1254   23.7833 O   0  0  0  0  0  0  0  0  0  0  0  0
  -26.8153  -19.2223   19.8840 C   0  0  0  0  0  0  0  0  0  0  0  0
  -25.9413  -21.8312   19.7786 C   0  0  0  0  0  0  0  0  0  0  0  0
  -27.7264  -20.2452   19.6383 C   0  0  0  0  0  0  0  0  0  0  0  0
  -27.2892  -21.5651   19.5841 C   0  0  0  0  0  0  0  0  0  0  0  0
  -25.4794  -19.5477   20.0710 C   0  0  0  0  0  0  0  0  0  0  0  0
  -27.8794  -23.9916   19.2555 C   0  0  0  0  0  0  0  0  0  0  0  0
  -29.7111  -18.7950   20.0669 C   0  0  0  0  0  0  0  0  0  0  0  0
  -29.1385  -24.8030   18.9724 C   0  0  0  0  0  0  0  0  0  0  0  0
  -28.8761  -26.2980   18.8721 C   0  0  0  0  0  0  0  0  0  0  0  0
  -25.0855  -20.8272   20.0136 N   0  3  0  0  0  0  0  0  0  0  0  0
  -28.1819  -22.6349   19.3360 N   0  0  0  0  0  0  0  0  0  0  0  0
  -29.0885  -19.9224   19.4478 N   0  0  0  0  0  0  0  0  0  0  0  0
  -24.5479  -18.5105   20.3242 N   0  0  0  0  0  0  0  0  0  0  0  0
  -26.7790  -24.5177   19.3841 O   0  0  0  0  0  0  0  0  0  0  0  0
  -31.4485  -12.4701   19.0860 H   0  0  0  0  0  0  0  0  0  0  0  0
  -30.3970  -11.2460   19.6950 H   0  0  0  0  0  0  0  0  0  0  0  0
  -29.6870  -11.8204   17.4226 H   0  0  0  0  0  0  0  0  0  0  0  0
  -29.6375  -13.5326   17.8649 H   0  0  0  0  0  0  0  0  0  0  0  0
  -27.7830  -11.3650   18.7904 H   0  0  0  0  0  0  0  0  0  0  0  0
  -27.4028  -12.7801   17.8021 H   0  0  0  0  0  0  0  0  0  0  0  0
  -27.7353  -14.2503   19.6136 H   0  0  0  0  0  0  0  0  0  0  0  0
  -28.5890  -11.9550   21.3832 H   0  0  0  0  0  0  0  0  0  0  0  0
  -28.5005  -13.6134   21.8562 H   0  0  0  0  0  0  0  0  0  0  0  0
  -25.2399   -9.5495   22.4318 H   0  0  0  0  0  0  0  0  0  0  0  0
  -23.9663   -7.5070   22.7297 H   0  0  0  0  0  0  0  0  0  0  0  0
  -21.1515   -8.8641   19.9162 H   0  0  0  0  0  0  0  0  0  0  0  0
  -22.4016  -10.9115   19.6476 H   0  0  0  0  0  0  0  0  0  0  0  0
  -21.2319   -7.5552   23.9750 H   0  0  0  0  0  0  0  0  0  0  0  0
  -21.1589   -6.0228   25.8556 H   0  0  0  0  0  0  0  0  0  0  0  0
  -22.0396   -2.8212   23.2809 H   0  0  0  0  0  0  0  0  0  0  0  0
  -22.4401  -11.9703   22.4008 H   0  0  0  0  0  0  0  0  0  0  0  0
  -21.1493  -13.0679   22.2082 H   0  0  0  0  0  0  0  0  0  0  0  0
  -24.6538  -15.7807   20.5848 H   0  0  0  0  0  0  0  0  0  0  0  0
  -26.2762  -15.5453   20.1156 H   0  0  0  0  0  0  0  0  0  0  0  0
  -26.6778  -32.4663   23.1464 H   0  0  0  0  0  0  0  0  0  0  0  0
  -25.0747  -34.0282   25.0566 H   0  0  0  0  0  0  0  0  0  0  0  0
  -22.7881  -31.3489   21.4131 H   0  0  0  0  0  0  0  0  0  0  0  0
  -23.3854  -35.9823   23.3648 H   0  0  0  0  0  0  0  0  0  0  0  0
  -24.3696  -36.8624   22.2204 H   0  0  0  0  0  0  0  0  0  0  0  0
  -23.7669  -37.6632   23.6516 H   0  0  0  0  0  0  0  0  0  0  0  0
  -25.9445  -31.6237   20.5691 H   0  0  0  0  0  0  0  0  0  0  0  0
  -26.7436  -31.0079   22.0108 H   0  0  0  0  0  0  0  0  0  0  0  0
  -28.0090  -29.1452   21.2057 H   0  0  0  0  0  0  0  0  0  0  0  0
  -26.1369  -26.0560   19.0719 H   0  0  0  0  0  0  0  0  0  0  0  0
  -24.0652  -27.2961   19.0997 H   0  0  0  0  0  0  0  0  0  0  0  0
  -23.6156  -30.5365   19.3930 H   0  0  0  0  0  0  0  0  0  0  0  0
  -22.7355  -29.1425   19.9945 H   0  0  0  0  0  0  0  0  0  0  0  0
  -25.1353  -36.2335   25.0565 H   0  0  0  0  0  0  0  0  0  0  0  0
  -21.0070  -28.3206   24.0793 H   0  0  0  0  0  0  0  0  0  0  0  0
  -20.5555  -26.2518   23.3550 H   0  0  0  0  0  0  0  0  0  0  0  0
  -21.5974  -26.8362   22.0454 H   0  0  0  0  0  0  0  0  0  0  0  0
  -19.6810  -25.6422   21.1488 H   0  0  0  0  0  0  0  0  0  0  0  0
  -19.6406  -27.3343   20.7034 H   0  0  0  0  0  0  0  0  0  0  0  0
  -17.4282  -26.6888   21.4113 H   0  0  0  0  0  0  0  0  0  0  0  0
  -18.0803  -26.0130   22.9049 H   0  0  0  0  0  0  0  0  0  0  0  0
  -19.7265  -30.6774   24.2204 H   0  0  0  0  0  0  0  0  0  0  0  0
  -17.5064  -31.5856   24.4483 H   0  0  0  0  0  0  0  0  0  0  0  0
  -15.5878  -30.2839   23.7407 H   0  0  0  0  0  0  0  0  0  0  0  0
  -15.9120  -28.0941   22.7766 H   0  0  0  0  0  0  0  0  0  0  0  0
  -24.5787  -30.7757   25.6817 H   0  0  0  0  0  0  0  0  0  0  0  0
  -25.0041  -32.2289   26.5536 H   0  0  0  0  0  0  0  0  0  0  0  0
  -25.8166  -30.7245   26.9138 H   0  0  0  0  0  0  0  0  0  0  0  0
  -26.2892  -29.7335   24.0803 H   0  0  0  0  0  0  0  0  0  0  0  0
  -27.4336  -29.7484   25.4006 H   0  0  0  0  0  0  0  0  0  0  0  0
  -27.8466  -30.4994   23.8779 H   0  0  0  0  0  0  0  0  0  0  0  0
  -27.2251  -33.3632   26.1242 H   0  0  0  0  0  0  0  0  0  0  0  0
  -28.3902  -32.6065   25.0645 H   0  0  0  0  0  0  0  0  0  0  0  0
  -27.9772  -31.8555   26.5872 H   0  0  0  0  0  0  0  0  0  0  0  0
  -28.2744  -38.0016   24.6863 H   0  0  0  0  0  0  0  0  0  0  0  0
  -28.0396  -36.2711   24.7461 H   0  0  0  0  0  0  0  0  0  0  0  0
  -27.1773  -37.3087   25.8564 H   0  0  0  0  0  0  0  0  0  0  0  0
  -20.9627  -29.9365   21.7352 H   0  0  0  0  0  0  0  0  0  0  0  0
  -26.0447  -38.2561   24.0273 H   0  0  0  0  0  0  0  0  0  0  0  0
  -27.1276  -18.2396   19.9264 H   0  0  0  0  0  0  0  0  0  0  0  0
  -25.5975  -22.8036   19.7422 H   0  0  0  0  0  0  0  0  0  0  0  0
  -30.7404  -18.7526   19.7777 H   0  0  0  0  0  0  0  0  0  0  0  0
  -29.2160  -17.8988   19.7560 H   0  0  0  0  0  0  0  0  0  0  0  0
  -29.6430  -18.8894   21.1305 H   0  0  0  0  0  0  0  0  0  0  0  0
  -29.5582  -24.4682   18.0468 H   0  0  0  0  0  0  0  0  0  0  0  0
  -29.8069  -24.6512   19.7941 H   0  0  0  0  0  0  0  0  0  0  0  0
  -28.1693  -26.4843   18.0907 H   0  0  0  0  0  0  0  0  0  0  0  0
  -29.7918  -26.8067   18.6540 H   0  0  0  0  0  0  0  0  0  0  0  0
  -24.1332  -21.0371   20.1489 H   0  0  0  0  0  0  0  0  0  0  0  0
  -29.1268  -22.3914   19.2051 H   0  0  0  0  0  0  0  0  0  0  0  0
  -29.6321  -20.4989   18.8635 H   0  0  0  0  0  0  0  0  0  0  0  0
  -23.5742  -18.3944   20.4114 H   0  0  0  0  0  0  0  0  0  0  0  0
  1 25  1  0  0  0  0
  1 30  2  0  0  0  0
  1 83  1  0  0  0  0
  2  3  1  0  0  0  0
  2 25  1  0  0  0  0
  2 85  1  0  0  0  0
  2 86  1  0  0  0  0
  3  4  1  0  0  0  0
  3 87  1  0  0  0  0
  3 88  1  0  0  0  0
  4  5  1  0  0  0  0
  4 89  1  0  0  0  0
  4 90  1  0  0  0  0
  5  6  1  0  0  0  0
  5 26  1  0  0  0  0
  5 91  1  6  0  0  0
  6 25  1  0  0  0  0
  6 92  1  0  0  0  0
  6 93  1  0  0  0  0
  7  8  2  0  0  0  0
  7 26  1  0  0  0  0
  7 29  1  0  0  0  0
  8  9  1  0  0  0  0
  8 22  1  0  0  0  0
  9 10  1  0  0  0  0
  9 27  2  0  0  0  0
 10 11  2  0  0  0  0
 10 15  1  0  0  0  0
 11 12  1  0  0  0  0
 11 94  1  0  0  0  0
 12 13  2  0  0  0  0
 12 95  1  0  0  0  0
 13 14  1  0  0  0  0
 13 31  1  0  0  0  0
 14 15  2  0  0  0  0
 14 96  1  0  0  0  0
 15 97  1  0  0  0  0
 16 17  2  0  0  0  0
 16 21  1  0  0  0  0
 16 31  1  0  0  0  0
 17 18  1  0  0  0  0
 17 98  1  0  0  0  0
 18 19  2  0  0  0  0
 18 99  1  0  0  0  0
 19 20  1  0  0  0  0
 19 24  1  0  0  0  0
 20 21  2  0  0  0  0
 20100  1  0  0  0  0
 21 23  1  0  0  0  0
 22 28  1  0  0  0  0
 22 32  2  0  0  0  0
 26 27  1  0  0  0  0
 28101  1  0  0  0  0
 28102  1  0  0  0  0
 29103  1  0  0  0  0
 29104  1  0  0  0  0
 33 34  1  0  0  0  0
 33 66  1  0  0  0  0
 33 70  2  0  0  0  0
 34 36  1  0  0  0  0
 34 59  1  0  0  0  0
 34105  1  6  0  0  0
 35 44  2  0  0  0  0
 35 45  1  0  0  0  0
 35 68  1  0  0  0  0
 36 56  1  0  0  0  0
 36106  1  0  0  0  0
 37 39  1  0  0  0  0
 37 47  1  0  0  0  0
 37 66  1  0  0  0  0
 37107  1  6  0  0  0
 38 43  2  0  0  0  0
 38 46  1  0  0  0  0
 38 47  1  0  0  0  0
 39 64  1  0  0  0  0
 39 67  2  0  0  0  0
 40 52  1  0  0  0  0
 40 53  2  0  0  0  0
 40 58  1  0  0  0  0
 41108  1  0  0  0  0
 41109  1  0  0  0  0
 41110  1  0  0  0  0
 42 43  1  0  0  0  0
 42 66  1  0  0  0  0
 42111  1  0  0  0  0
 42112  1  0  0  0  0
 43 44  1  0  0  0  0
 44113  1  0  0  0  0
 45 46  2  0  0  0  0
 45114  1  0  0  0  0
 46115  1  0  0  0  0
 47116  1  0  0  0  0
 47117  1  0  0  0  0
 48 41  1  0  0  0  0
 48 56  1  0  0  0  0
 48 65  1  0  0  0  0
 48118  1  1  0  0  0
 49 50  1  0  0  0  0
 49 53  1  0  0  0  0
 49 64  1  0  0  0  0
 49119  1  1  0  0  0
 50 51  1  0  0  0  0
 50120  1  0  0  0  0
 50121  1  0  0  0  0
 51 52  1  0  0  0  0
 51122  1  0  0  0  0
 51123  1  0  0  0  0
 52124  1  0  0  0  0
 52125  1  0  0  0  0
 53 54  1  0  0  0  0
 54 55  2  0  0  0  0
 54126  1  0  0  0  0
 55 57  1  0  0  0  0
 55127  1  0  0  0  0
 56 69  2  0  0  0  0
 57 58  2  0  0  0  0
 57128  1  0  0  0  0
 58129  1  0  0  0  0
 59 60  1  0  0  0  0
 59 61  1  0  0  0  0
 59 62  1  0  0  0  0
 60130  1  0  0  0  0
 60131  1  0  0  0  0
 60132  1  0  0  0  0
 61133  1  0  0  0  0
 61134  1  0  0  0  0
 61135  1  0  0  0  0
 62136  1  0  0  0  0
 62137  1  0  0  0  0
 62138  1  0  0  0  0
 63 65  1  0  0  0  0
 63139  1  0  0  0  0
 63140  1  0  0  0  0
 63141  1  0  0  0  0
 64142  1  0  0  0  0
 65143  1  0  0  0  0
 68 79  1  0  0  0  0
 71 73  2  0  0  0  0
 71 75  1  0  0  0  0
 71144  1  0  0  0  0
 72 74  2  0  0  0  0
 72 80  1  0  0  0  0
 72145  1  0  0  0  0
 73 74  1  0  0  0  0
 73 82  1  0  0  0  0
 74 81  1  0  0  0  0
 75 80  2  0  0  0  0
 75 83  1  0  0  0  0
 76 78  1  0  0  0  0
 76 81  1  0  0  0  0
 76 84  2  0  0  0  0
 77 82  1  0  0  0  0
 77146  1  0  0  0  0
 77147  1  0  0  0  0
 77148  1  0  0  0  0
 78 79  1  0  0  0  0
 78149  1  0  0  0  0
 78150  1  0  0  0  0
 79151  1  0  0  0  0
 79152  1  0  0  0  0
 80153  1  0  0  0  0
 81154  1  0  0  0  0
 82155  1  0  0  0  0
 83156  1  0  0  0  0
M  ISO  4   1 100  68 101  79 101  83 100
M  CHG  1  80   1
M  END
$$$$
48
 OpenBabel04052305473D

157165  0  0  0  0  0  0  0  0999 V2000
  -30.7652  -14.3608   20.6636 C   0  0  0  0  0  0  0  0  0  0  0  0
  -30.4392  -12.2669   19.3775 C   0  0  0  0  0  0  0  0  0  0  0  0
  -29.4791  -12.5281   18.1977 C   0  0  0  0  0  0  0  0  0  0  0  0
  -27.9985  -12.3963   18.6038 C   0  0  0  0  0  0  0  0  0  0  0  0
  -27.6639  -13.2170   19.8820 C   0  0  2  0  0  0  0  0  0  0  0  0
  -28.6795  -12.9602   21.0279 C   0  0  0  0  0  0  0  0  0  0  0  0
  -25.2633  -13.8245   20.5754 C   0  0  0  0  0  0  0  0  0  0  0  0
  -24.1645  -13.0409   20.9408 C   0  0  0  0  0  0  0  0  0  0  0  0
  -24.6400  -11.7009   20.8697 C   0  0  0  0  0  0  0  0  0  0  0  0
  -23.9005  -10.4085   21.0420 C   0  0  0  0  0  0  0  0  0  0  0  0
  -24.3588   -9.4123   21.9123 C   0  0  0  0  0  0  0  0  0  0  0  0
  -23.6296   -8.2350   22.0803 C   0  0  0  0  0  0  0  0  0  0  0  0
  -22.4385   -8.0419   21.3657 C   0  0  0  0  0  0  0  0  0  0  0  0
  -22.0103   -9.0167   20.4678 C   0  0  0  0  0  0  0  0  0  0  0  0
  -22.7317  -10.1925   20.3102 C   0  0  0  0  0  0  0  0  0  0  0  0
  -21.6857   -6.0709   22.5391 C   0  0  0  0  0  0  0  0  0  0  0  0
  -21.4064   -6.5490   23.8264 C   0  0  0  0  0  0  0  0  0  0  0  0
  -21.3635   -5.6677   24.9085 C   0  0  0  0  0  0  0  0  0  0  0  0
  -21.5973   -4.3067   24.7088 C   0  0  0  0  0  0  0  0  0  0  0  0
  -21.8700   -3.8284   23.4282 C   0  0  0  0  0  0  0  0  0  0  0  0
  -21.9144   -4.7056   22.3460 C   0  0  0  0  0  0  0  0  0  0  0  0
  -22.8194  -13.5263   21.1763 C   0  0  0  0  0  0  0  0  0  0  0  0
  -22.1559   -4.2206   21.1063 F   0  0  0  0  0  0  0  0  0  0  0  0
  -21.5628   -3.4510   25.7555 F   0  0  0  0  0  0  0  0  0  0  0  0
  -30.0261  -13.1803   20.4553 N   0  0  0  0  0  0  0  0  0  0  0  0
  -26.2911  -12.9356   20.3443 N   0  0  0  0  0  0  0  0  0  0  0  0
  -25.9236  -11.6675   20.5847 N   0  0  0  0  0  0  0  0  0  0  0  0
  -22.0708  -12.7905   22.0005 N   0  0  0  0  0  0  0  0  0  0  0  0
  -25.4117  -15.1773   20.4097 N   0  0  0  0  0  0  0  0  0  0  0  0
  -31.7916  -14.6724   20.0536 O   0  0  0  0  0  0  0  0  0  0  0  0
  -21.6670   -6.9022   21.4423 O   0  0  0  0  0  0  0  0  0  0  0  0
  -22.3946  -14.5564   20.6568 O   0  0  0  0  0  0  0  0  0  0  0  0
  -24.6048  -31.8614   23.2223 C   0  0  0  0  0  0  0  0  0  0  0  0
  -25.8822  -32.4841   23.8616 C   0  0  1  0  0  0  0  0  0  0  0  0
  -27.2536  -27.5042   20.1156 C   0  0  0  0  0  0  0  0  0  0  0  0
  -25.5726  -33.8762   24.2210 N   0  0  0  0  0  0  0  0  0  0  0  0
  -23.4066  -30.4859   21.5461 C   0  0  2  0  0  0  0  0  0  0  0  0
  -24.8467  -28.9636   20.1247 C   0  0  0  0  0  0  0  0  0  0  0  0
  -22.7412  -29.4652   22.5052 C   0  0  0  0  0  0  0  0  0  0  0  0
  -18.0167  -28.1302   22.8626 C   0  0  0  0  0  0  0  0  0  0  0  0
  -24.1342  -36.7390   23.2568 C   0  0  0  0  0  0  0  0  0  0  0  0
  -25.9141  -30.8882   21.3456 C   0  0  0  0  0  0  0  0  0  0  0  0
  -25.9930  -29.5029   20.7208 C   0  0  0  0  0  0  0  0  0  0  0  0
  -27.1758  -28.7612   20.7331 C   0  0  0  0  0  0  0  0  0  0  0  0
  -26.1032  -26.9836   19.5230 C   0  0  0  0  0  0  0  0  0  0  0  0
  -24.9097  -27.7011   19.5331 C   0  0  0  0  0  0  0  0  0  0  0  0
  -23.5715  -29.7899   20.1582 C   0  0  0  0  0  0  0  0  0  0  0  0
  -25.3990  -36.3212   24.0232 C   0  0  1  0  0  0  0  0  0  0  0  0
  -20.5793  -28.3813   23.1004 C   0  0  2  0  0  0  0  0  0  0  0  0
  -20.6548  -26.9392   22.5411 C   0  0  0  0  0  0  0  0  0  0  0  0
  -19.5615  -26.6407   21.5143 C   0  0  0  0  0  0  0  0  0  0  0  0
  -18.1797  -26.7818   22.1673 C   0  0  0  0  0  0  0  0  0  0  0  0
  -19.1385  -28.8769   23.2988 C   0  0  0  0  0  0  0  0  0  0  0  0
  -18.9183  -30.1286   23.8878 C   0  0  0  0  0  0  0  0  0  0  0  0
  -17.6396  -30.6493   24.0352 C   0  0  0  0  0  0  0  0  0  0  0  0
  -25.9153  -34.9582   23.4993 C   0  0  0  0  0  0  0  0  0  0  0  0
  -16.5415  -29.9068   23.6254 C   0  0  0  0  0  0  0  0  0  0  0  0
  -16.7331  -28.6521   23.0586 C   0  0  0  0  0  0  0  0  0  0  0  0
  -26.4583  -31.6439   25.0683 C   0  0  0  0  0  0  0  0  0  0  0  0
  -25.3807  -31.3179   26.1374 C   0  0  0  0  0  0  0  0  0  0  0  0
  -27.0530  -30.3024   24.5680 C   0  0  0  0  0  0  0  0  0  0  0  0
  -27.6014  -32.4281   25.7651 C   0  0  0  0  0  0  0  0  0  0  0  0
  -27.5629  -37.2220   24.8621 C   0  0  0  0  0  0  0  0  0  0  0  0
  -21.4133  -29.3375   22.3735 N   0  0  0  0  0  0  0  0  0  0  0  0
  -26.4706  -37.3372   23.9061 N   0  0  0  0  0  0  0  0  0  0  0  0
  -24.6674  -31.0544   22.1178 N   0  0  0  0  0  0  0  0  0  0  0  0
  -23.4259  -28.8150   23.2971 O   0  0  0  0  0  0  0  0  0  0  0  0
  -28.3948  -26.7345   20.0089 O   0  0  0  0  0  0  0  0  0  0  0  0
  -26.5870  -34.9065   22.4671 O   0  0  0  0  0  0  0  0  0  0  0  0
  -23.5365  -32.1254   23.7833 O   0  0  0  0  0  0  0  0  0  0  0  0
  -29.2806  -21.6958   19.0743 C   0  0  0  0  0  0  0  0  0  0  0  0
  -30.4074  -23.9885   20.1015 C   0  0  0  0  0  0  0  0  0  0  0  0
  -29.3189  -22.8517   18.3003 C   0  0  0  0  0  0  0  0  0  0  0  0
  -29.8873  -24.0127   18.8153 C   0  0  0  0  0  0  0  0  0  0  0  0
  -29.8161  -21.7302   20.3540 C   0  0  0  0  0  0  0  0  0  0  0  0
  -32.0437  -26.3118   18.4790 C   0  0  0  0  0  0  0  0  0  0  0  0
  -30.0043  -27.6008   17.7549 C   0  0  0  0  0  0  0  0  0  0  0  0
  -28.4934  -27.7799   17.8649 C   0  0  0  0  0  0  0  0  0  0  0  0
  -30.5243  -26.4127   18.5701 C   0  0  1  0  0  0  0  0  0  0  0  0
  -30.3575  -22.8618   20.8252 N   0  3  0  0  0  0  0  0  0  0  0  0
  -28.7759  -22.8254   16.9966 N   0  0  0  0  0  0  0  0  0  0  0  0
  -29.9433  -25.1813   18.0771 N   0  0  0  0  0  0  0  0  0  0  0  0
  -29.7800  -20.5562   21.1465 N   0  0  0  0  0  0  0  0  0  0  0  0
  -31.4485  -12.4701   19.0860 H   0  0  0  0  0  0  0  0  0  0  0  0
  -30.3970  -11.2460   19.6950 H   0  0  0  0  0  0  0  0  0  0  0  0
  -29.6870  -11.8204   17.4226 H   0  0  0  0  0  0  0  0  0  0  0  0
  -29.6375  -13.5326   17.8649 H   0  0  0  0  0  0  0  0  0  0  0  0
  -27.7830  -11.3650   18.7904 H   0  0  0  0  0  0  0  0  0  0  0  0
  -27.4028  -12.7801   17.8021 H   0  0  0  0  0  0  0  0  0  0  0  0
  -27.7353  -14.2503   19.6136 H   0  0  0  0  0  0  0  0  0  0  0  0
  -28.5890  -11.9550   21.3832 H   0  0  0  0  0  0  0  0  0  0  0  0
  -28.5005  -13.6134   21.8562 H   0  0  0  0  0  0  0  0  0  0  0  0
  -25.2399   -9.5495   22.4318 H   0  0  0  0  0  0  0  0  0  0  0  0
  -23.9663   -7.5070   22.7297 H   0  0  0  0  0  0  0  0  0  0  0  0
  -21.1515   -8.8641   19.9162 H   0  0  0  0  0  0  0  0  0  0  0  0
  -22.4016  -10.9115   19.6476 H   0  0  0  0  0  0  0  0  0  0  0  0
  -21.2319   -7.5552   23.9750 H   0  0  0  0  0  0  0  0  0  0  0  0
  -21.1589   -6.0228   25.8556 H   0  0  0  0  0  0  0  0  0  0  0  0
  -22.0396   -2.8212   23.2809 H   0  0  0  0  0  0  0  0  0  0  0  0
  -22.4401  -11.9703   22.4008 H   0  0  0  0  0  0  0  0  0  0  0  0
  -21.1493  -13.0679   22.2082 H   0  0  0  0  0  0  0  0  0  0  0  0
  -24.6538  -15.7807   20.5848 H   0  0  0  0  0  0  0  0  0  0  0  0
  -26.2762  -15.5453   20.1156 H   0  0  0  0  0  0  0  0  0  0  0  0
  -26.6778  -32.4663   23.1464 H   0  0  0  0  0  0  0  0  0  0  0  0
  -25.0747  -34.0282   25.0566 H   0  0  0  0  0  0  0  0  0  0  0  0
  -22.7881  -31.3489   21.4131 H   0  0  0  0  0  0  0  0  0  0  0  0
  -23.3854  -35.9823   23.3648 H   0  0  0  0  0  0  0  0  0  0  0  0
  -24.3696  -36.8624   22.2204 H   0  0  0  0  0  0  0  0  0  0  0  0
  -23.7669  -37.6632   23.6516 H   0  0  0  0  0  0  0  0  0  0  0  0
  -25.9445  -31.6237   20.5691 H   0  0  0  0  0  0  0  0  0  0  0  0
  -26.7436  -31.0079   22.0108 H   0  0  0  0  0  0  0  0  0  0  0  0
  -28.0090  -29.1452   21.2057 H   0  0  0  0  0  0  0  0  0  0  0  0
  -26.1369  -26.0560   19.0719 H   0  0  0  0  0  0  0  0  0  0  0  0
  -24.0652  -27.2961   19.0997 H   0  0  0  0  0  0  0  0  0  0  0  0
  -23.6156  -30.5365   19.3930 H   0  0  0  0  0  0  0  0  0  0  0  0
  -22.7355  -29.1425   19.9945 H   0  0  0  0  0  0  0  0  0  0  0  0
  -25.1353  -36.2335   25.0565 H   0  0  0  0  0  0  0  0  0  0  0  0
  -21.0070  -28.3206   24.0793 H   0  0  0  0  0  0  0  0  0  0  0  0
  -20.5555  -26.2518   23.3550 H   0  0  0  0  0  0  0  0  0  0  0  0
  -21.5974  -26.8362   22.0454 H   0  0  0  0  0  0  0  0  0  0  0  0
  -19.6810  -25.6422   21.1488 H   0  0  0  0  0  0  0  0  0  0  0  0
  -19.6406  -27.3343   20.7034 H   0  0  0  0  0  0  0  0  0  0  0  0
  -17.4282  -26.6888   21.4113 H   0  0  0  0  0  0  0  0  0  0  0  0
  -18.0803  -26.0130   22.9049 H   0  0  0  0  0  0  0  0  0  0  0  0
  -19.7265  -30.6774   24.2204 H   0  0  0  0  0  0  0  0  0  0  0  0
  -17.5064  -31.5856   24.4483 H   0  0  0  0  0  0  0  0  0  0  0  0
  -15.5878  -30.2839   23.7407 H   0  0  0  0  0  0  0  0  0  0  0  0
  -15.9120  -28.0941   22.7766 H   0  0  0  0  0  0  0  0  0  0  0  0
  -24.5787  -30.7757   25.6817 H   0  0  0  0  0  0  0  0  0  0  0  0
  -25.0041  -32.2289   26.5536 H   0  0  0  0  0  0  0  0  0  0  0  0
  -25.8166  -30.7245   26.9138 H   0  0  0  0  0  0  0  0  0  0  0  0
  -26.2892  -29.7335   24.0803 H   0  0  0  0  0  0  0  0  0  0  0  0
  -27.4336  -29.7484   25.4006 H   0  0  0  0  0  0  0  0  0  0  0  0
  -27.8466  -30.4994   23.8779 H   0  0  0  0  0  0  0  0  0  0  0  0
  -27.2251  -33.3632   26.1242 H   0  0  0  0  0  0  0  0  0  0  0  0
  -28.3902  -32.6065   25.0645 H   0  0  0  0  0  0  0  0  0  0  0  0
  -27.9772  -31.8555   26.5872 H   0  0  0  0  0  0  0  0  0  0  0  0
  -28.2744  -38.0016   24.6863 H   0  0  0  0  0  0  0  0  0  0  0  0
  -28.0396  -36.2711   24.7461 H   0  0  0  0  0  0  0  0  0  0  0  0
  -27.1773  -37.3087   25.8564 H   0  0  0  0  0  0  0  0  0  0  0  0
  -20.9627  -29.9365   21.7352 H   0  0  0  0  0  0  0  0  0  0  0  0
  -26.0447  -38.2561   24.0273 H   0  0  0  0  0  0  0  0  0  0  0  0
  -28.8615  -20.8288   18.7033 H   0  0  0  0  0  0  0  0  0  0  0  0
  -30.8332  -24.8393   20.5013 H   0  0  0  0  0  0  0  0  0  0  0  0
  -32.4836  -27.2174   18.8412 H   0  0  0  0  0  0  0  0  0  0  0  0
  -32.3305  -26.1587   17.4596 H   0  0  0  0  0  0  0  0  0  0  0  0
  -32.3827  -25.4884   19.0723 H   0  0  0  0  0  0  0  0  0  0  0  0
  -30.4804  -28.4917   18.1079 H   0  0  0  0  0  0  0  0  0  0  0  0
  -30.2311  -27.4089   16.7270 H   0  0  0  0  0  0  0  0  0  0  0  0
  -27.9472  -27.2537   17.1102 H   0  0  0  0  0  0  0  0  0  0  0  0
  -28.0823  -28.7613   17.7519 H   0  0  0  0  0  0  0  0  0  0  0  0
  -30.2446  -26.5670   19.5913 H   0  0  0  0  0  0  0  0  0  0  0  0
  -30.7320  -22.8655   21.7357 H   0  0  0  0  0  0  0  0  0  0  0  0
  -28.3771  -21.9963   16.6461 H   0  0  0  0  0  0  0  0  0  0  0  0
  -28.7962  -23.6361   16.4384 H   0  0  0  0  0  0  0  0  0  0  0  0
  -29.5677  -25.1755   17.1671 H   0  0  0  0  0  0  0  0  0  0  0  0
  -29.5163  -20.7823   22.0677 H   0  0  0  0  0  0  0  0  0  0  0  0
  1 25  1  0  0  0  0
  1 30  2  0  0  0  0
  1 83  1  0  0  0  0
  2  3  1  0  0  0  0
  2 25  1  0  0  0  0
  2 84  1  0  0  0  0
  2 85  1  0  0  0  0
  3  4  1  0  0  0  0
  3 86  1  0  0  0  0
  3 87  1  0  0  0  0
  4  5  1  0  0  0  0
  4 88  1  0  0  0  0
  4 89  1  0  0  0  0
  5  6  1  0  0  0  0
  5 26  1  0  0  0  0
  5 90  1  6  0  0  0
  6 25  1  0  0  0  0
  6 91  1  0  0  0  0
  6 92  1  0  0  0  0
  7  8  2  0  0  0  0
  7 26  1  0  0  0  0
  7 29  1  0  0  0  0
  8  9  1  0  0  0  0
  8 22  1  0  0  0  0
  9 10  1  0  0  0  0
  9 27  2  0  0  0  0
 10 11  2  0  0  0  0
 10 15  1  0  0  0  0
 11 12  1  0  0  0  0
 11 93  1  0  0  0  0
 12 13  2  0  0  0  0
 12 94  1  0  0  0  0
 13 14  1  0  0  0  0
 13 31  1  0  0  0  0
 14 15  2  0  0  0  0
 14 95  1  0  0  0  0
 15 96  1  0  0  0  0
 16 17  2  0  0  0  0
 16 21  1  0  0  0  0
 16 31  1  0  0  0  0
 17 18  1  0  0  0  0
 17 97  1  0  0  0  0
 18 19  2  0  0  0  0
 18 98  1  0  0  0  0
 19 20  1  0  0  0  0
 19 24  1  0  0  0  0
 20 21  2  0  0  0  0
 20 99  1  0  0  0  0
 21 23  1  0  0  0  0
 22 28  1  0  0  0  0
 22 32  2  0  0  0  0
 26 27  1  0  0  0  0
 28100  1  0  0  0  0
 28101  1  0  0  0  0
 29102  1  0  0  0  0
 29103  1  0  0  0  0
 33 34  1  0  0  0  0
 33 66  1  0  0  0  0
 33 70  2  0  0  0  0
 34 36  1  0  0  0  0
 34 59  1  0  0  0  0
 34104  1  6  0  0  0
 35 44  2  0  0  0  0
 35 45  1  0  0  0  0
 35 68  1  0  0  0  0
 36 56  1  0  0  0  0
 36105  1  0  0  0  0
 37 39  1  0  0  0  0
 37 47  1  0  0  0  0
 37 66  1  0  0  0  0
 37106  1  6  0  0  0
 38 43  2  0  0  0  0
 38 46  1  0  0  0  0
 38 47  1  0  0  0  0
 39 64  1  0  0  0  0
 39 67  2  0  0  0  0
 40 52  1  0  0  0  0
 40 53  2  0  0  0  0
 40 58  1  0  0  0  0
 41107  1  0  0  0  0
 41108  1  0  0  0  0
 41109  1  0  0  0  0
 42 43  1  0  0  0  0
 42 66  1  0  0  0  0
 42110  1  0  0  0  0
 42111  1  0  0  0  0
 43 44  1  0  0  0  0
 44112  1  0  0  0  0
 45 46  2  0  0  0  0
 45113  1  0  0  0  0
 46114  1  0  0  0  0
 47115  1  0  0  0  0
 47116  1  0  0  0  0
 48 41  1  0  0  0  0
 48 56  1  0  0  0  0
 48 65  1  0  0  0  0
 48117  1  1  0  0  0
 49 50  1  0  0  0  0
 49 53  1  0  0  0  0
 49 64  1  0  0  0  0
 49118  1  1  0  0  0
 50 51  1  0  0  0  0
 50119  1  0  0  0  0
 50120  1  0  0  0  0
 51 52  1  0  0  0  0
 51121  1  0  0  0  0
 51122  1  0  0  0  0
 52123  1  0  0  0  0
 52124  1  0  0  0  0
 53 54  1  0  0  0  0
 54 55  2  0  0  0  0
 54125  1  0  0  0  0
 55 57  1  0  0  0  0
 55126  1  0  0  0  0
 56 69  2  0  0  0  0
 57 58  2  0  0  0  0
 57127  1  0  0  0  0
 58128  1  0  0  0  0
 59 60  1  0  0  0  0
 59 61  1  0  0  0  0
 59 62  1  0  0  0  0
 60129  1  0  0  0  0
 60130  1  0  0  0  0
 60131  1  0  0  0  0
 61132  1  0  0  0  0
 61133  1  0  0  0  0
 61134  1  0  0  0  0
 62135  1  0  0  0  0
 62136  1  0  0  0  0
 62137  1  0  0  0  0
 63 65  1  0  0  0  0
 63138  1  0  0  0  0
 63139  1  0  0  0  0
 63140  1  0  0  0  0
 64141  1  0  0  0  0
 65142  1  0  0  0  0
 68 78  1  0  0  0  0
 71 73  2  0  0  0  0
 71 75  1  0  0  0  0
 71143  1  0  0  0  0
 72 74  2  0  0  0  0
 72 80  1  0  0  0  0
 72144  1  0  0  0  0
 73 74  1  0  0  0  0
 73 81  1  0  0  0  0
 74 82  1  0  0  0  0
 75 80  2  0  0  0  0
 75 83  1  0  0  0  0
 76145  1  0  0  0  0
 76146  1  0  0  0  0
 76147  1  0  0  0  0
 77 78  1  0  0  0  0
 77 79  1  0  0  0  0
 77148  1  0  0  0  0
 77149  1  0  0  0  0
 78150  1  0  0  0  0
 78151  1  0  0  0  0
 79 76  1  0  0  0  0
 79 82  1  0  0  0  0
 79152  1  1  0  0  0
 80153  1  0  0  0  0
 81154  1  0  0  0  0
 81155  1  0  0  0  0
 82156  1  0  0  0  0
 83157  1  0  0  0  0
M  ISO  4   1 100  68 101  78 101  83 100
M  CHG  1  80   1
M  END
$$$$
49
 OpenBabel04052305473D

154162  0  0  0  0  0  0  0  0999 V2000
  -30.7652  -14.3608   20.6636 C   0  0  0  0  0  0  0  0  0  0  0  0
  -30.4392  -12.2669   19.3775 C   0  0  0  0  0  0  0  0  0  0  0  0
  -29.4791  -12.5281   18.1977 C   0  0  0  0  0  0  0  0  0  0  0  0
  -27.9985  -12.3963   18.6038 C   0  0  0  0  0  0  0  0  0  0  0  0
  -27.6639  -13.2170   19.8820 C   0  0  2  0  0  0  0  0  0  0  0  0
  -28.6795  -12.9602   21.0279 C   0  0  0  0  0  0  0  0  0  0  0  0
  -25.2633  -13.8245   20.5754 C   0  0  0  0  0  0  0  0  0  0  0  0
  -24.1645  -13.0409   20.9408 C   0  0  0  0  0  0  0  0  0  0  0  0
  -24.6400  -11.7009   20.8697 C   0  0  0  0  0  0  0  0  0  0  0  0
  -23.9005  -10.4085   21.0420 C   0  0  0  0  0  0  0  0  0  0  0  0
  -24.3588   -9.4123   21.9123 C   0  0  0  0  0  0  0  0  0  0  0  0
  -23.6296   -8.2350   22.0803 C   0  0  0  0  0  0  0  0  0  0  0  0
  -22.4385   -8.0419   21.3657 C   0  0  0  0  0  0  0  0  0  0  0  0
  -22.0103   -9.0167   20.4678 C   0  0  0  0  0  0  0  0  0  0  0  0
  -22.7317  -10.1925   20.3102 C   0  0  0  0  0  0  0  0  0  0  0  0
  -21.6857   -6.0709   22.5391 C   0  0  0  0  0  0  0  0  0  0  0  0
  -21.4064   -6.5490   23.8264 C   0  0  0  0  0  0  0  0  0  0  0  0
  -21.3635   -5.6677   24.9085 C   0  0  0  0  0  0  0  0  0  0  0  0
  -21.5973   -4.3067   24.7088 C   0  0  0  0  0  0  0  0  0  0  0  0
  -21.8700   -3.8284   23.4282 C   0  0  0  0  0  0  0  0  0  0  0  0
  -21.9144   -4.7056   22.3460 C   0  0  0  0  0  0  0  0  0  0  0  0
  -22.8194  -13.5263   21.1763 C   0  0  0  0  0  0  0  0  0  0  0  0
  -22.1559   -4.2206   21.1063 F   0  0  0  0  0  0  0  0  0  0  0  0
  -21.5628   -3.4510   25.7555 F   0  0  0  0  0  0  0  0  0  0  0  0
  -30.0261  -13.1803   20.4553 N   0  0  0  0  0  0  0  0  0  0  0  0
  -26.2911  -12.9356   20.3443 N   0  0  0  0  0  0  0  0  0  0  0  0
  -25.9236  -11.6675   20.5847 N   0  0  0  0  0  0  0  0  0  0  0  0
  -22.0708  -12.7905   22.0005 N   0  0  0  0  0  0  0  0  0  0  0  0
  -25.4117  -15.1773   20.4097 N   0  0  0  0  0  0  0  0  0  0  0  0
  -31.7916  -14.6724   20.0536 O   0  0  0  0  0  0  0  0  0  0  0  0
  -21.6670   -6.9022   21.4423 O   0  0  0  0  0  0  0  0  0  0  0  0
  -22.3946  -14.5564   20.6568 O   0  0  0  0  0  0  0  0  0  0  0  0
  -24.6048  -31.8614   23.2223 C   0  0  0  0  0  0  0  0  0  0  0  0
  -25.8822  -32.4841   23.8616 C   0  0  1  0  0  0  0  0  0  0  0  0
  -27.2536  -27.5042   20.1156 C   0  0  0  0  0  0  0  0  0  0  0  0
  -25.5726  -33.8762   24.2210 N   0  0  0  0  0  0  0  0  0  0  0  0
  -23.4066  -30.4859   21.5461 C   0  0  2  0  0  0  0  0  0  0  0  0
  -24.8467  -28.9636   20.1247 C   0  0  0  0  0  0  0  0  0  0  0  0
  -22.7412  -29.4652   22.5052 C   0  0  0  0  0  0  0  0  0  0  0  0
  -18.0167  -28.1302   22.8626 C   0  0  0  0  0  0  0  0  0  0  0  0
  -24.1342  -36.7390   23.2568 C   0  0  0  0  0  0  0  0  0  0  0  0
  -25.9141  -30.8882   21.3456 C   0  0  0  0  0  0  0  0  0  0  0  0
  -25.9930  -29.5029   20.7208 C   0  0  0  0  0  0  0  0  0  0  0  0
  -27.1758  -28.7612   20.7331 C   0  0  0  0  0  0  0  0  0  0  0  0
  -26.1032  -26.9836   19.5230 C   0  0  0  0  0  0  0  0  0  0  0  0
  -24.9097  -27.7011   19.5331 C   0  0  0  0  0  0  0  0  0  0  0  0
  -23.5715  -29.7899   20.1582 C   0  0  0  0  0  0  0  0  0  0  0  0
  -25.3990  -36.3212   24.0232 C   0  0  1  0  0  0  0  0  0  0  0  0
  -20.5793  -28.3813   23.1004 C   0  0  2  0  0  0  0  0  0  0  0  0
  -20.6548  -26.9392   22.5411 C   0  0  0  0  0  0  0  0  0  0  0  0
  -19.5615  -26.6407   21.5143 C   0  0  0  0  0  0  0  0  0  0  0  0
  -18.1797  -26.7818   22.1673 C   0  0  0  0  0  0  0  0  0  0  0  0
  -19.1385  -28.8769   23.2988 C   0  0  0  0  0  0  0  0  0  0  0  0
  -18.9183  -30.1286   23.8878 C   0  0  0  0  0  0  0  0  0  0  0  0
  -17.6396  -30.6493   24.0352 C   0  0  0  0  0  0  0  0  0  0  0  0
  -25.9153  -34.9582   23.4993 C   0  0  0  0  0  0  0  0  0  0  0  0
  -16.5415  -29.9068   23.6254 C   0  0  0  0  0  0  0  0  0  0  0  0
  -16.7331  -28.6521   23.0586 C   0  0  0  0  0  0  0  0  0  0  0  0
  -26.4583  -31.6439   25.0683 C   0  0  0  0  0  0  0  0  0  0  0  0
  -25.3807  -31.3179   26.1374 C   0  0  0  0  0  0  0  0  0  0  0  0
  -27.0530  -30.3024   24.5680 C   0  0  0  0  0  0  0  0  0  0  0  0
  -27.6014  -32.4281   25.7651 C   0  0  0  0  0  0  0  0  0  0  0  0
  -27.5629  -37.2220   24.8621 C   0  0  0  0  0  0  0  0  0  0  0  0
  -21.4133  -29.3375   22.3735 N   0  0  0  0  0  0  0  0  0  0  0  0
  -26.4706  -37.3372   23.9061 N   0  0  0  0  0  0  0  0  0  0  0  0
  -24.6674  -31.0544   22.1178 N   0  0  0  0  0  0  0  0  0  0  0  0
  -23.4259  -28.8150   23.2971 O   0  0  0  0  0  0  0  0  0  0  0  0
  -28.3948  -26.7345   20.0089 O   0  0  0  0  0  0  0  0  0  0  0  0
  -26.5870  -34.9065   22.4671 O   0  0  0  0  0  0  0  0  0  0  0  0
  -23.5365  -32.1254   23.7833 O   0  0  0  0  0  0  0  0  0  0  0  0
  -17.8513  -29.5793   21.5670 C   0  0  0  0  0  0  0  0  0  0  0  0
  -17.6239  -28.3081   21.0877 C   0  0  0  0  0  0  0  0  0  0  0  0
  -19.8536  -28.8943   22.4337 C   0  0  0  0  0  0  0  0  0  0  0  0
  -19.6258  -27.6229   21.9552 C   0  0  0  0  0  0  0  0  0  0  0  0
  -21.0935  -29.2400   23.1872 C   0  0  0  0  0  0  0  0  0  0  0  0
  -20.4306  -25.2729   21.7186 C   0  0  0  0  0  0  0  0  0  0  0  0
  -21.5138  -23.0001   21.6832 C   0  0  0  0  0  0  0  0  0  0  0  0
  -21.6368  -24.4445   22.1563 C   0  0  1  0  0  0  0  0  0  0  0  0
  -18.9703  -29.8953   22.2485 N   0  0  0  0  0  0  0  0  0  0  0  0
  -18.5070  -27.3070   21.2732 N   0  0  0  0  0  0  0  0  0  0  0  0
  -20.5720  -26.6366   22.1775 N   0  0  0  0  0  0  0  0  0  0  0  0
  -22.2454  -29.3654   22.3221 N   0  0  0  0  0  0  0  0  0  0  0  0
  -22.8188  -24.9945   21.5708 O   0  0  0  0  0  0  0  0  0  0  0  0
  -31.4485  -12.4701   19.0860 H   0  0  0  0  0  0  0  0  0  0  0  0
  -30.3970  -11.2460   19.6950 H   0  0  0  0  0  0  0  0  0  0  0  0
  -29.6870  -11.8204   17.4226 H   0  0  0  0  0  0  0  0  0  0  0  0
  -29.6375  -13.5326   17.8649 H   0  0  0  0  0  0  0  0  0  0  0  0
  -27.7830  -11.3650   18.7904 H   0  0  0  0  0  0  0  0  0  0  0  0
  -27.4028  -12.7801   17.8021 H   0  0  0  0  0  0  0  0  0  0  0  0
  -27.7353  -14.2503   19.6136 H   0  0  0  0  0  0  0  0  0  0  0  0
  -28.5890  -11.9550   21.3832 H   0  0  0  0  0  0  0  0  0  0  0  0
  -28.5005  -13.6134   21.8562 H   0  0  0  0  0  0  0  0  0  0  0  0
  -25.2399   -9.5495   22.4318 H   0  0  0  0  0  0  0  0  0  0  0  0
  -23.9663   -7.5070   22.7297 H   0  0  0  0  0  0  0  0  0  0  0  0
  -21.1515   -8.8641   19.9162 H   0  0  0  0  0  0  0  0  0  0  0  0
  -22.4016  -10.9115   19.6476 H   0  0  0  0  0  0  0  0  0  0  0  0
  -21.2319   -7.5552   23.9750 H   0  0  0  0  0  0  0  0  0  0  0  0
  -21.1589   -6.0228   25.8556 H   0  0  0  0  0  0  0  0  0  0  0  0
  -22.0396   -2.8212   23.2809 H   0  0  0  0  0  0  0  0  0  0  0  0
  -22.4401  -11.9703   22.4008 H   0  0  0  0  0  0  0  0  0  0  0  0
  -21.1493  -13.0679   22.2082 H   0  0  0  0  0  0  0  0  0  0  0  0
  -24.6538  -15.7807   20.5848 H   0  0  0  0  0  0  0  0  0  0  0  0
  -26.2762  -15.5453   20.1156 H   0  0  0  0  0  0  0  0  0  0  0  0
  -26.6778  -32.4663   23.1464 H   0  0  0  0  0  0  0  0  0  0  0  0
  -25.0747  -34.0282   25.0566 H   0  0  0  0  0  0  0  0  0  0  0  0
  -22.7881  -31.3489   21.4131 H   0  0  0  0  0  0  0  0  0  0  0  0
  -23.3854  -35.9823   23.3648 H   0  0  0  0  0  0  0  0  0  0  0  0
  -24.3696  -36.8624   22.2204 H   0  0  0  0  0  0  0  0  0  0  0  0
  -23.7669  -37.6632   23.6516 H   0  0  0  0  0  0  0  0  0  0  0  0
  -25.9445  -31.6237   20.5691 H   0  0  0  0  0  0  0  0  0  0  0  0
  -26.7436  -31.0079   22.0108 H   0  0  0  0  0  0  0  0  0  0  0  0
  -28.0090  -29.1452   21.2057 H   0  0  0  0  0  0  0  0  0  0  0  0
  -26.1369  -26.0560   19.0719 H   0  0  0  0  0  0  0  0  0  0  0  0
  -24.0652  -27.2961   19.0997 H   0  0  0  0  0  0  0  0  0  0  0  0
  -23.6156  -30.5365   19.3930 H   0  0  0  0  0  0  0  0  0  0  0  0
  -22.7355  -29.1425   19.9945 H   0  0  0  0  0  0  0  0  0  0  0  0
  -25.1353  -36.2335   25.0565 H   0  0  0  0  0  0  0  0  0  0  0  0
  -21.0070  -28.3206   24.0793 H   0  0  0  0  0  0  0  0  0  0  0  0
  -20.5555  -26.2518   23.3550 H   0  0  0  0  0  0  0  0  0  0  0  0
  -21.5974  -26.8362   22.0454 H   0  0  0  0  0  0  0  0  0  0  0  0
  -19.6810  -25.6422   21.1488 H   0  0  0  0  0  0  0  0  0  0  0  0
  -19.6406  -27.3343   20.7034 H   0  0  0  0  0  0  0  0  0  0  0  0
  -17.4282  -26.6888   21.4113 H   0  0  0  0  0  0  0  0  0  0  0  0
  -18.0803  -26.0130   22.9049 H   0  0  0  0  0  0  0  0  0  0  0  0
  -19.7265  -30.6774   24.2204 H   0  0  0  0  0  0  0  0  0  0  0  0
  -17.5064  -31.5856   24.4483 H   0  0  0  0  0  0  0  0  0  0  0  0
  -15.5878  -30.2839   23.7407 H   0  0  0  0  0  0  0  0  0  0  0  0
  -15.9120  -28.0941   22.7766 H   0  0  0  0  0  0  0  0  0  0  0  0
  -24.5787  -30.7757   25.6817 H   0  0  0  0  0  0  0  0  0  0  0  0
  -25.0041  -32.2289   26.5536 H   0  0  0  0  0  0  0  0  0  0  0  0
  -25.8166  -30.7245   26.9138 H   0  0  0  0  0  0  0  0  0  0  0  0
  -26.2892  -29.7335   24.0803 H   0  0  0  0  0  0  0  0  0  0  0  0
  -27.4336  -29.7484   25.4006 H   0  0  0  0  0  0  0  0  0  0  0  0
  -27.8466  -30.4994   23.8779 H   0  0  0  0  0  0  0  0  0  0  0  0
  -27.2251  -33.3632   26.1242 H   0  0  0  0  0  0  0  0  0  0  0  0
  -28.3902  -32.6065   25.0645 H   0  0  0  0  0  0  0  0  0  0  0  0
  -27.9772  -31.8555   26.5872 H   0  0  0  0  0  0  0  0  0  0  0  0
  -28.2744  -38.0016   24.6863 H   0  0  0  0  0  0  0  0  0  0  0  0
  -28.0396  -36.2711   24.7461 H   0  0  0  0  0  0  0  0  0  0  0  0
  -27.1773  -37.3087   25.8564 H   0  0  0  0  0  0  0  0  0  0  0  0
  -20.9627  -29.9365   21.7352 H   0  0  0  0  0  0  0  0  0  0  0  0
  -26.0447  -38.2561   24.0273 H   0  0  0  0  0  0  0  0  0  0  0  0
  -17.1437  -30.3116   21.3993 H   0  0  0  0  0  0  0  0  0  0  0  0
  -16.7513  -28.1165   20.5711 H   0  0  0  0  0  0  0  0  0  0  0  0
  -21.2851  -28.4706   23.9057 H   0  0  0  0  0  0  0  0  0  0  0  0
  -20.9354  -30.1866   23.6604 H   0  0  0  0  0  0  0  0  0  0  0  0
  -19.5406  -24.8497   22.1353 H   0  0  0  0  0  0  0  0  0  0  0  0
  -20.3707  -25.2672   20.6503 H   0  0  0  0  0  0  0  0  0  0  0  0
  -20.8376  -22.7634   20.8884 H   0  0  0  0  0  0  0  0  0  0  0  0
  -21.2763  -22.0814   22.1776 H   0  0  0  0  0  0  0  0  0  0  0  0
  -21.6828  -24.4657   23.2251 H   0  0  0  0  0  0  0  0  0  0  0  0
  -21.3863  -26.8774   22.6757 H   0  0  0  0  0  0  0  0  0  0  0  0
  -22.5138  -30.2031   21.8800 H   0  0  0  0  0  0  0  0  0  0  0  0
  -22.7465  -24.9610   20.6041 H   0  0  0  0  0  0  0  0  0  0  0  0
  1 25  1  0  0  0  0
  1 30  2  0  0  0  0
  1 82  1  0  0  0  0
  2  3  1  0  0  0  0
  2 25  1  0  0  0  0
  2 84  1  0  0  0  0
  2 85  1  0  0  0  0
  3  4  1  0  0  0  0
  3 86  1  0  0  0  0
  3 87  1  0  0  0  0
  4  5  1  0  0  0  0
  4 88  1  0  0  0  0
  4 89  1  0  0  0  0
  5  6  1  0  0  0  0
  5 26  1  0  0  0  0
  5 90  1  6  0  0  0
  6 25  1  0  0  0  0
  6 91  1  0  0  0  0
  6 92  1  0  0  0  0
  7  8  2  0  0  0  0
  7 26  1  0  0  0  0
  7 29  1  0  0  0  0
  8  9  1  0  0  0  0
  8 22  1  0  0  0  0
  9 10  1  0  0  0  0
  9 27  2  0  0  0  0
 10 11  2  0  0  0  0
 10 15  1  0  0  0  0
 11 12  1  0  0  0  0
 11 93  1  0  0  0  0
 12 13  2  0  0  0  0
 12 94  1  0  0  0  0
 13 14  1  0  0  0  0
 13 31  1  0  0  0  0
 14 15  2  0  0  0  0
 14 95  1  0  0  0  0
 15 96  1  0  0  0  0
 16 17  2  0  0  0  0
 16 21  1  0  0  0  0
 16 31  1  0  0  0  0
 17 18  1  0  0  0  0
 17 97  1  0  0  0  0
 18 19  2  0  0  0  0
 18 98  1  0  0  0  0
 19 20  1  0  0  0  0
 19 24  1  0  0  0  0
 20 21  2  0  0  0  0
 20 99  1  0  0  0  0
 21 23  1  0  0  0  0
 22 28  1  0  0  0  0
 22 32  2  0  0  0  0
 26 27  1  0  0  0  0
 28100  1  0  0  0  0
 28101  1  0  0  0  0
 29102  1  0  0  0  0
 29103  1  0  0  0  0
 33 34  1  0  0  0  0
 33 66  1  0  0  0  0
 33 70  2  0  0  0  0
 34 36  1  0  0  0  0
 34 59  1  0  0  0  0
 34104  1  6  0  0  0
 35 44  2  0  0  0  0
 35 45  1  0  0  0  0
 35 68  1  0  0  0  0
 36 56  1  0  0  0  0
 36105  1  0  0  0  0
 37 39  1  0  0  0  0
 37 47  1  0  0  0  0
 37 66  1  0  0  0  0
 37106  1  6  0  0  0
 38 43  2  0  0  0  0
 38 46  1  0  0  0  0
 38 47  1  0  0  0  0
 39 64  1  0  0  0  0
 39 67  2  0  0  0  0
 40 52  1  0  0  0  0
 40 53  2  0  0  0  0
 40 58  1  0  0  0  0
 41107  1  0  0  0  0
 41108  1  0  0  0  0
 41109  1  0  0  0  0
 42 43  1  0  0  0  0
 42 66  1  0  0  0  0
 42110  1  0  0  0  0
 42111  1  0  0  0  0
 43 44  1  0  0  0  0
 44112  1  0  0  0  0
 45 46  2  0  0  0  0
 45113  1  0  0  0  0
 46114  1  0  0  0  0
 47115  1  0  0  0  0
 47116  1  0  0  0  0
 48 41  1  0  0  0  0
 48 56  1  0  0  0  0
 48 65  1  0  0  0  0
 48117  1  1  0  0  0
 49 50  1  0  0  0  0
 49 53  1  0  0  0  0
 49 64  1  0  0  0  0
 49118  1  1  0  0  0
 50 51  1  0  0  0  0
 50119  1  0  0  0  0
 50120  1  0  0  0  0
 51 52  1  0  0  0  0
 51121  1  0  0  0  0
 51122  1  0  0  0  0
 52123  1  0  0  0  0
 52124  1  0  0  0  0
 53 54  1  0  0  0  0
 54 55  2  0  0  0  0
 54125  1  0  0  0  0
 55 57  1  0  0  0  0
 55126  1  0  0  0  0
 56 69  2  0  0  0  0
 57 58  2  0  0  0  0
 57127  1  0  0  0  0
 58128  1  0  0  0  0
 59 60  1  0  0  0  0
 59 61  1  0  0  0  0
 59 62  1  0  0  0  0
 60129  1  0  0  0  0
 60130  1  0  0  0  0
 60131  1  0  0  0  0
 61132  1  0  0  0  0
 61133  1  0  0  0  0
 61134  1  0  0  0  0
 62135  1  0  0  0  0
 62136  1  0  0  0  0
 62137  1  0  0  0  0
 63 65  1  0  0  0  0
 63138  1  0  0  0  0
 63139  1  0  0  0  0
 63140  1  0  0  0  0
 64141  1  0  0  0  0
 65142  1  0  0  0  0
 68 77  1  0  0  0  0
 71 72  2  0  0  0  0
 71 79  1  0  0  0  0
 71143  1  0  0  0  0
 72 80  1  0  0  0  0
 72144  1  0  0  0  0
 73 74  1  0  0  0  0
 73 75  1  0  0  0  0
 73 79  2  0  0  0  0
 74 80  2  0  0  0  0
 74 81  1  0  0  0  0
 75 82  1  0  0  0  0
 75145  1  0  0  0  0
 75146  1  0  0  0  0
 76 78  1  0  0  0  0
 76 81  1  0  0  0  0
 76147  1  0  0  0  0
 76148  1  0  0  0  0
 77 78  1  0  0  0  0
 77149  1  0  0  0  0
 77150  1  0  0  0  0
 78 83  1  0  0  0  0
 78151  1  1  0  0  0
 81152  1  0  0  0  0
 82153  1  0  0  0  0
 83154  1  0  0  0  0
M  ISO  4   1 100  68 101  77 101  82 100
M  END
$$$$
50
 OpenBabel04052305473D

148156  0  0  0  0  0  0  0  0999 V2000
  -30.7652  -14.3608   20.6636 C   0  0  0  0  0  0  0  0  0  0  0  0
  -30.4392  -12.2669   19.3775 C   0  0  0  0  0  0  0  0  0  0  0  0
  -29.4791  -12.5281   18.1977 C   0  0  0  0  0  0  0  0  0  0  0  0
  -27.9985  -12.3963   18.6038 C   0  0  0  0  0  0  0  0  0  0  0  0
  -27.6639  -13.2170   19.8820 C   0  0  2  0  0  0  0  0  0  0  0  0
  -28.6795  -12.9602   21.0279 C   0  0  0  0  0  0  0  0  0  0  0  0
  -25.2633  -13.8245   20.5754 C   0  0  0  0  0  0  0  0  0  0  0  0
  -24.1645  -13.0409   20.9408 C   0  0  0  0  0  0  0  0  0  0  0  0
  -24.6400  -11.7009   20.8697 C   0  0  0  0  0  0  0  0  0  0  0  0
  -23.9005  -10.4085   21.0420 C   0  0  0  0  0  0  0  0  0  0  0  0
  -24.3588   -9.4123   21.9123 C   0  0  0  0  0  0  0  0  0  0  0  0
  -23.6296   -8.2350   22.0803 C   0  0  0  0  0  0  0  0  0  0  0  0
  -22.4385   -8.0419   21.3657 C   0  0  0  0  0  0  0  0  0  0  0  0
  -22.0103   -9.0167   20.4678 C   0  0  0  0  0  0  0  0  0  0  0  0
  -22.7317  -10.1925   20.3102 C   0  0  0  0  0  0  0  0  0  0  0  0
  -21.6857   -6.0709   22.5391 C   0  0  0  0  0  0  0  0  0  0  0  0
  -21.4064   -6.5490   23.8264 C   0  0  0  0  0  0  0  0  0  0  0  0
  -21.3635   -5.6677   24.9085 C   0  0  0  0  0  0  0  0  0  0  0  0
  -21.5973   -4.3067   24.7088 C   0  0  0  0  0  0  0  0  0  0  0  0
  -21.8700   -3.8284   23.4282 C   0  0  0  0  0  0  0  0  0  0  0  0
  -21.9144   -4.7056   22.3460 C   0  0  0  0  0  0  0  0  0  0  0  0
  -22.8194  -13.5263   21.1763 C   0  0  0  0  0  0  0  0  0  0  0  0
  -22.1559   -4.2206   21.1063 F   0  0  0  0  0  0  0  0  0  0  0  0
  -21.5628   -3.4510   25.7555 F   0  0  0  0  0  0  0  0  0  0  0  0
  -30.0261  -13.1803   20.4553 N   0  0  0  0  0  0  0  0  0  0  0  0
  -26.2911  -12.9356   20.3443 N   0  0  0  0  0  0  0  0  0  0  0  0
  -25.9236  -11.6675   20.5847 N   0  0  0  0  0  0  0  0  0  0  0  0
  -22.0708  -12.7905   22.0005 N   0  0  0  0  0  0  0  0  0  0  0  0
  -25.4117  -15.1773   20.4097 N   0  0  0  0  0  0  0  0  0  0  0  0
  -31.7916  -14.6724   20.0536 O   0  0  0  0  0  0  0  0  0  0  0  0
  -21.6670   -6.9022   21.4423 O   0  0  0  0  0  0  0  0  0  0  0  0
  -22.3946  -14.5564   20.6568 O   0  0  0  0  0  0  0  0  0  0  0  0
  -24.6048  -31.8614   23.2223 C   0  0  0  0  0  0  0  0  0  0  0  0
  -25.8822  -32.4841   23.8616 C   0  0  1  0  0  0  0  0  0  0  0  0
  -27.2536  -27.5042   20.1156 C   0  0  0  0  0  0  0  0  0  0  0  0
  -25.5726  -33.8762   24.2210 N   0  0  0  0  0  0  0  0  0  0  0  0
  -23.4066  -30.4859   21.5461 C   0  0  2  0  0  0  0  0  0  0  0  0
  -24.8467  -28.9636   20.1247 C   0  0  0  0  0  0  0  0  0  0  0  0
  -22.7412  -29.4652   22.5052 C   0  0  0  0  0  0  0  0  0  0  0  0
  -18.0167  -28.1302   22.8626 C   0  0  0  0  0  0  0  0  0  0  0  0
  -24.1342  -36.7390   23.2568 C   0  0  0  0  0  0  0  0  0  0  0  0
  -25.9141  -30.8882   21.3456 C   0  0  0  0  0  0  0  0  0  0  0  0
  -25.9930  -29.5029   20.7208 C   0  0  0  0  0  0  0  0  0  0  0  0
  -27.1758  -28.7612   20.7331 C   0  0  0  0  0  0  0  0  0  0  0  0
  -26.1032  -26.9836   19.5230 C   0  0  0  0  0  0  0  0  0  0  0  0
  -24.9097  -27.7011   19.5331 C   0  0  0  0  0  0  0  0  0  0  0  0
  -23.5715  -29.7899   20.1582 C   0  0  0  0  0  0  0  0  0  0  0  0
  -25.3990  -36.3212   24.0232 C   0  0  1  0  0  0  0  0  0  0  0  0
  -20.5793  -28.3813   23.1004 C   0  0  2  0  0  0  0  0  0  0  0  0
  -20.6548  -26.9392   22.5411 C   0  0  0  0  0  0  0  0  0  0  0  0
  -19.5615  -26.6407   21.5143 C   0  0  0  0  0  0  0  0  0  0  0  0
  -18.1797  -26.7818   22.1673 C   0  0  0  0  0  0  0  0  0  0  0  0
  -19.1385  -28.8769   23.2988 C   0  0  0  0  0  0  0  0  0  0  0  0
  -18.9183  -30.1286   23.8878 C   0  0  0  0  0  0  0  0  0  0  0  0
  -17.6396  -30.6493   24.0352 C   0  0  0  0  0  0  0  0  0  0  0  0
  -25.9153  -34.9582   23.4993 C   0  0  0  0  0  0  0  0  0  0  0  0
  -16.5415  -29.9068   23.6254 C   0  0  0  0  0  0  0  0  0  0  0  0
  -16.7331  -28.6521   23.0586 C   0  0  0  0  0  0  0  0  0  0  0  0
  -26.4583  -31.6439   25.0683 C   0  0  0  0  0  0  0  0  0  0  0  0
  -25.3807  -31.3179   26.1374 C   0  0  0  0  0  0  0  0  0  0  0  0
  -27.0530  -30.3024   24.5680 C   0  0  0  0  0  0  0  0  0  0  0  0
  -27.6014  -32.4281   25.7651 C   0  0  0  0  0  0  0  0  0  0  0  0
  -27.5629  -37.2220   24.8621 C   0  0  0  0  0  0  0  0  0  0  0  0
  -21.4133  -29.3375   22.3735 N   0  0  0  0  0  0  0  0  0  0  0  0
  -26.4706  -37.3372   23.9061 N   0  0  0  0  0  0  0  0  0  0  0  0
  -24.6674  -31.0544   22.1178 N   0  0  0  0  0  0  0  0  0  0  0  0
  -23.4259  -28.8150   23.2971 O   0  0  0  0  0  0  0  0  0  0  0  0
  -28.3948  -26.7345   20.0089 O   0  0  0  0  0  0  0  0  0  0  0  0
  -26.5870  -34.9065   22.4671 O   0  0  0  0  0  0  0  0  0  0  0  0
  -23.5365  -32.1254   23.7833 O   0  0  0  0  0  0  0  0  0  0  0  0
  -31.3387  -18.7128   20.3525 C   0  0  0  0  0  0  0  0  0  0  0  0
  -30.7139  -19.8451   19.7544 C   0  0  0  0  0  0  0  0  0  0  0  0
  -30.5204  -18.0966   21.2734 C   0  0  0  0  0  0  0  0  0  0  0  0
  -29.4415  -20.0509   20.2408 C   0  0  0  0  0  0  0  0  0  0  0  0
  -28.6039  -22.0845   19.0173 C   0  0  0  0  0  0  0  0  0  0  0  0
  -30.8003  -16.9029   22.1007 C   0  0  0  0  0  0  0  0  0  0  0  0
  -27.3389  -22.9220   18.9868 C   0  0  0  0  0  0  0  0  0  0  0  0
  -28.4804  -21.0418   19.9292 N   0  0  0  0  0  0  0  0  0  0  0  0
  -30.1264  -15.7174   21.6199 N   0  0  0  0  0  0  0  0  0  0  0  0
  -29.5674  -22.3498   18.3060 O   0  0  0  0  0  0  0  0  0  0  0  0
  -29.0053  -18.8823   21.4139 S   0  0  0  0  0  0  0  0  0  0  0  0
  -31.4485  -12.4701   19.0860 H   0  0  0  0  0  0  0  0  0  0  0  0
  -30.3970  -11.2460   19.6950 H   0  0  0  0  0  0  0  0  0  0  0  0
  -29.6870  -11.8204   17.4226 H   0  0  0  0  0  0  0  0  0  0  0  0
  -29.6375  -13.5326   17.8649 H   0  0  0  0  0  0  0  0  0  0  0  0
  -27.7830  -11.3650   18.7904 H   0  0  0  0  0  0  0  0  0  0  0  0
  -27.4028  -12.7801   17.8021 H   0  0  0  0  0  0  0  0  0  0  0  0
  -27.7353  -14.2503   19.6136 H   0  0  0  0  0  0  0  0  0  0  0  0
  -28.5890  -11.9550   21.3832 H   0  0  0  0  0  0  0  0  0  0  0  0
  -28.5005  -13.6134   21.8562 H   0  0  0  0  0  0  0  0  0  0  0  0
  -25.2399   -9.5495   22.4318 H   0  0  0  0  0  0  0  0  0  0  0  0
  -23.9663   -7.5070   22.7297 H   0  0  0  0  0  0  0  0  0  0  0  0
  -21.1515   -8.8641   19.9162 H   0  0  0  0  0  0  0  0  0  0  0  0
  -22.4016  -10.9115   19.6476 H   0  0  0  0  0  0  0  0  0  0  0  0
  -21.2319   -7.5552   23.9750 H   0  0  0  0  0  0  0  0  0  0  0  0
  -21.1589   -6.0228   25.8556 H   0  0  0  0  0  0  0  0  0  0  0  0
  -22.0396   -2.8212   23.2809 H   0  0  0  0  0  0  0  0  0  0  0  0
  -22.4401  -11.9703   22.4008 H   0  0  0  0  0  0  0  0  0  0  0  0
  -21.1493  -13.0679   22.2082 H   0  0  0  0  0  0  0  0  0  0  0  0
  -24.6538  -15.7807   20.5848 H   0  0  0  0  0  0  0  0  0  0  0  0
  -26.2762  -15.5453   20.1156 H   0  0  0  0  0  0  0  0  0  0  0  0
  -26.6778  -32.4663   23.1464 H   0  0  0  0  0  0  0  0  0  0  0  0
  -25.0747  -34.0282   25.0566 H   0  0  0  0  0  0  0  0  0  0  0  0
  -22.7881  -31.3489   21.4131 H   0  0  0  0  0  0  0  0  0  0  0  0
  -23.3854  -35.9823   23.3648 H   0  0  0  0  0  0  0  0  0  0  0  0
  -24.3696  -36.8624   22.2204 H   0  0  0  0  0  0  0  0  0  0  0  0
  -23.7669  -37.6632   23.6516 H   0  0  0  0  0  0  0  0  0  0  0  0
  -25.9445  -31.6237   20.5691 H   0  0  0  0  0  0  0  0  0  0  0  0
  -26.7436  -31.0079   22.0108 H   0  0  0  0  0  0  0  0  0  0  0  0
  -28.0090  -29.1452   21.2057 H   0  0  0  0  0  0  0  0  0  0  0  0
  -26.1369  -26.0560   19.0719 H   0  0  0  0  0  0  0  0  0  0  0  0
  -24.0652  -27.2961   19.0997 H   0  0  0  0  0  0  0  0  0  0  0  0
  -23.6156  -30.5365   19.3930 H   0  0  0  0  0  0  0  0  0  0  0  0
  -22.7355  -29.1425   19.9945 H   0  0  0  0  0  0  0  0  0  0  0  0
  -25.1353  -36.2335   25.0565 H   0  0  0  0  0  0  0  0  0  0  0  0
  -21.0070  -28.3206   24.0793 H   0  0  0  0  0  0  0  0  0  0  0  0
  -20.5555  -26.2518   23.3550 H   0  0  0  0  0  0  0  0  0  0  0  0
  -21.5974  -26.8362   22.0454 H   0  0  0  0  0  0  0  0  0  0  0  0
  -19.6810  -25.6422   21.1488 H   0  0  0  0  0  0  0  0  0  0  0  0
  -19.6406  -27.3343   20.7034 H   0  0  0  0  0  0  0  0  0  0  0  0
  -17.4282  -26.6888   21.4113 H   0  0  0  0  0  0  0  0  0  0  0  0
  -18.0803  -26.0130   22.9049 H   0  0  0  0  0  0  0  0  0  0  0  0
  -19.7265  -30.6774   24.2204 H   0  0  0  0  0  0  0  0  0  0  0  0
  -17.5064  -31.5856   24.4483 H   0  0  0  0  0  0  0  0  0  0  0  0
  -15.5878  -30.2839   23.7407 H   0  0  0  0  0  0  0  0  0  0  0  0
  -15.9120  -28.0941   22.7766 H   0  0  0  0  0  0  0  0  0  0  0  0
  -24.5787  -30.7757   25.6817 H   0  0  0  0  0  0  0  0  0  0  0  0
  -25.0041  -32.2289   26.5536 H   0  0  0  0  0  0  0  0  0  0  0  0
  -25.8166  -30.7245   26.9138 H   0  0  0  0  0  0  0  0  0  0  0  0
  -26.2892  -29.7335   24.0803 H   0  0  0  0  0  0  0  0  0  0  0  0
  -27.4336  -29.7484   25.4006 H   0  0  0  0  0  0  0  0  0  0  0  0
  -27.8466  -30.4994   23.8779 H   0  0  0  0  0  0  0  0  0  0  0  0
  -27.2251  -33.3632   26.1242 H   0  0  0  0  0  0  0  0  0  0  0  0
  -28.3902  -32.6065   25.0645 H   0  0  0  0  0  0  0  0  0  0  0  0
  -27.9772  -31.8555   26.5872 H   0  0  0  0  0  0  0  0  0  0  0  0
  -28.2744  -38.0016   24.6863 H   0  0  0  0  0  0  0  0  0  0  0  0
  -28.0396  -36.2711   24.7461 H   0  0  0  0  0  0  0  0  0  0  0  0
  -27.1773  -37.3087   25.8564 H   0  0  0  0  0  0  0  0  0  0  0  0
  -20.9627  -29.9365   21.7352 H   0  0  0  0  0  0  0  0  0  0  0  0
  -26.0447  -38.2561   24.0273 H   0  0  0  0  0  0  0  0  0  0  0  0
  -32.2923  -18.3920   20.1227 H   0  0  0  0  0  0  0  0  0  0  0  0
  -31.1618  -20.4410   19.0408 H   0  0  0  0  0  0  0  0  0  0  0  0
  -30.4771  -17.0975   23.1020 H   0  0  0  0  0  0  0  0  0  0  0  0
  -31.8529  -16.7171   22.0524 H   0  0  0  0  0  0  0  0  0  0  0  0
  -26.6276  -22.5379   19.6878 H   0  0  0  0  0  0  0  0  0  0  0  0
  -26.8904  -22.8987   18.0156 H   0  0  0  0  0  0  0  0  0  0  0  0
  -27.6254  -20.9866   20.4141 H   0  0  0  0  0  0  0  0  0  0  0  0
  -29.1731  -15.6514   21.8569 H   0  0  0  0  0  0  0  0  0  0  0  0
  1 25  1  0  0  0  0
  1 30  2  0  0  0  0
  1 79  1  0  0  0  0
  2  3  1  0  0  0  0
  2 25  1  0  0  0  0
  2 82  1  0  0  0  0
  2 83  1  0  0  0  0
  3  4  1  0  0  0  0
  3 84  1  0  0  0  0
  3 85  1  0  0  0  0
  4  5  1  0  0  0  0
  4 86  1  0  0  0  0
  4 87  1  0  0  0  0
  5  6  1  0  0  0  0
  5 26  1  0  0  0  0
  5 88  1  6  0  0  0
  6 25  1  0  0  0  0
  6 89  1  0  0  0  0
  6 90  1  0  0  0  0
  7  8  2  0  0  0  0
  7 26  1  0  0  0  0
  7 29  1  0  0  0  0
  8  9  1  0  0  0  0
  8 22  1  0  0  0  0
  9 10  1  0  0  0  0
  9 27  2  0  0  0  0
 10 11  2  0  0  0  0
 10 15  1  0  0  0  0
 11 12  1  0  0  0  0
 11 91  1  0  0  0  0
 12 13  2  0  0  0  0
 12 92  1  0  0  0  0
 13 14  1  0  0  0  0
 13 31  1  0  0  0  0
 14 15  2  0  0  0  0
 14 93  1  0  0  0  0
 15 94  1  0  0  0  0
 16 17  2  0  0  0  0
 16 21  1  0  0  0  0
 16 31  1  0  0  0  0
 17 18  1  0  0  0  0
 17 95  1  0  0  0  0
 18 19  2  0  0  0  0
 18 96  1  0  0  0  0
 19 20  1  0  0  0  0
 19 24  1  0  0  0  0
 20 21  2  0  0  0  0
 20 97  1  0  0  0  0
 21 23  1  0  0  0  0
 22 28  1  0  0  0  0
 22 32  2  0  0  0  0
 26 27  1  0  0  0  0
 28 98  1  0  0  0  0
 28 99  1  0  0  0  0
 29100  1  0  0  0  0
 29101  1  0  0  0  0
 33 34  1  0  0  0  0
 33 66  1  0  0  0  0
 33 70  2  0  0  0  0
 34 36  1  0  0  0  0
 34 59  1  0  0  0  0
 34102  1  6  0  0  0
 35 44  2  0  0  0  0
 35 45  1  0  0  0  0
 35 68  1  0  0  0  0
 36 56  1  0  0  0  0
 36103  1  0  0  0  0
 37 39  1  0  0  0  0
 37 47  1  0  0  0  0
 37 66  1  0  0  0  0
 37104  1  6  0  0  0
 38 43  2  0  0  0  0
 38 46  1  0  0  0  0
 38 47  1  0  0  0  0
 39 64  1  0  0  0  0
 39 67  2  0  0  0  0
 40 52  1  0  0  0  0
 40 53  2  0  0  0  0
 40 58  1  0  0  0  0
 41105  1  0  0  0  0
 41106  1  0  0  0  0
 41107  1  0  0  0  0
 42 43  1  0  0  0  0
 42 66  1  0  0  0  0
 42108  1  0  0  0  0
 42109  1  0  0  0  0
 43 44  1  0  0  0  0
 44110  1  0  0  0  0
 45 46  2  0  0  0  0
 45111  1  0  0  0  0
 46112  1  0  0  0  0
 47113  1  0  0  0  0
 47114  1  0  0  0  0
 48 41  1  0  0  0  0
 48 56  1  0  0  0  0
 48 65  1  0  0  0  0
 48115  1  1  0  0  0
 49 50  1  0  0  0  0
 49 53  1  0  0  0  0
 49 64  1  0  0  0  0
 49116  1  1  0  0  0
 50 51  1  0  0  0  0
 50117  1  0  0  0  0
 50118  1  0  0  0  0
 51 52  1  0  0  0  0
 51119  1  0  0  0  0
 51120  1  0  0  0  0
 52121  1  0  0  0  0
 52122  1  0  0  0  0
 53 54  1  0  0  0  0
 54 55  2  0  0  0  0
 54123  1  0  0  0  0
 55 57  1  0  0  0  0
 55124  1  0  0  0  0
 56 69  2  0  0  0  0
 57 58  2  0  0  0  0
 57125  1  0  0  0  0
 58126  1  0  0  0  0
 59 60  1  0  0  0  0
 59 61  1  0  0  0  0
 59 62  1  0  0  0  0
 60127  1  0  0  0  0
 60128  1  0  0  0  0
 60129  1  0  0  0  0
 61130  1  0  0  0  0
 61131  1  0  0  0  0
 61132  1  0  0  0  0
 62133  1  0  0  0  0
 62134  1  0  0  0  0
 62135  1  0  0  0  0
 63 65  1  0  0  0  0
 63136  1  0  0  0  0
 63137  1  0  0  0  0
 63138  1  0  0  0  0
 64139  1  0  0  0  0
 65140  1  0  0  0  0
 68 77  1  0  0  0  0
 71 72  1  0  0  0  0
 71 73  2  0  0  0  0
 71141  1  0  0  0  0
 72 74  2  0  0  0  0
 72142  1  0  0  0  0
 73 76  1  0  0  0  0
 73 81  1  0  0  0  0
 74 78  1  0  0  0  0
 74 81  1  0  0  0  0
 75 77  1  0  0  0  0
 75 78  1  0  0  0  0
 75 80  2  0  0  0  0
 76 79  1  0  0  0  0
 76143  1  0  0  0  0
 76144  1  0  0  0  0
 77145  1  0  0  0  0
 77146  1  0  0  0  0
 78147  1  0  0  0  0
 79148  1  0  0  0  0
M  ISO  4   1 100  68 101  77 101  79 100
M  END
$$$$
51
 OpenBabel04052305473D

160168  0  0  0  0  0  0  0  0999 V2000
  -30.7652  -14.3608   20.6636 C   0  0  0  0  0  0  0  0  0  0  0  0
  -30.4392  -12.2669   19.3775 C   0  0  0  0  0  0  0  0  0  0  0  0
  -29.4791  -12.5281   18.1977 C   0  0  0  0  0  0  0  0  0  0  0  0
  -27.9985  -12.3963   18.6038 C   0  0  0  0  0  0  0  0  0  0  0  0
  -27.6639  -13.2170   19.8820 C   0  0  2  0  0  0  0  0  0  0  0  0
  -28.6795  -12.9602   21.0279 C   0  0  0  0  0  0  0  0  0  0  0  0
  -25.2633  -13.8245   20.5754 C   0  0  0  0  0  0  0  0  0  0  0  0
  -24.1645  -13.0409   20.9408 C   0  0  0  0  0  0  0  0  0  0  0  0
  -24.6400  -11.7009   20.8697 C   0  0  0  0  0  0  0  0  0  0  0  0
  -23.9005  -10.4085   21.0420 C   0  0  0  0  0  0  0  0  0  0  0  0
  -24.3588   -9.4123   21.9123 C   0  0  0  0  0  0  0  0  0  0  0  0
  -23.6296   -8.2350   22.0803 C   0  0  0  0  0  0  0  0  0  0  0  0
  -22.4385   -8.0419   21.3657 C   0  0  0  0  0  0  0  0  0  0  0  0
  -22.0103   -9.0167   20.4678 C   0  0  0  0  0  0  0  0  0  0  0  0
  -22.7317  -10.1925   20.3102 C   0  0  0  0  0  0  0  0  0  0  0  0
  -21.6857   -6.0709   22.5391 C   0  0  0  0  0  0  0  0  0  0  0  0
  -21.4064   -6.5490   23.8264 C   0  0  0  0  0  0  0  0  0  0  0  0
  -21.3635   -5.6677   24.9085 C   0  0  0  0  0  0  0  0  0  0  0  0
  -21.5973   -4.3067   24.7088 C   0  0  0  0  0  0  0  0  0  0  0  0
  -21.8700   -3.8284   23.4282 C   0  0  0  0  0  0  0  0  0  0  0  0
  -21.9144   -4.7056   22.3460 C   0  0  0  0  0  0  0  0  0  0  0  0
  -22.8194  -13.5263   21.1763 C   0  0  0  0  0  0  0  0  0  0  0  0
  -22.1559   -4.2206   21.1063 F   0  0  0  0  0  0  0  0  0  0  0  0
  -21.5628   -3.4510   25.7555 F   0  0  0  0  0  0  0  0  0  0  0  0
  -30.0261  -13.1803   20.4553 N   0  0  0  0  0  0  0  0  0  0  0  0
  -26.2911  -12.9356   20.3443 N   0  0  0  0  0  0  0  0  0  0  0  0
  -25.9236  -11.6675   20.5847 N   0  0  0  0  0  0  0  0  0  0  0  0
  -22.0708  -12.7905   22.0005 N   0  0  0  0  0  0  0  0  0  0  0  0
  -25.4117  -15.1773   20.4097 N   0  0  0  0  0  0  0  0  0  0  0  0
  -31.7916  -14.6724   20.0536 O   0  0  0  0  0  0  0  0  0  0  0  0
  -21.6670   -6.9022   21.4423 O   0  0  0  0  0  0  0  0  0  0  0  0
  -22.3946  -14.5564   20.6568 O   0  0  0  0  0  0  0  0  0  0  0  0
  -24.6048  -31.8614   23.2223 C   0  0  0  0  0  0  0  0  0  0  0  0
  -25.8822  -32.4841   23.8616 C   0  0  1  0  0  0  0  0  0  0  0  0
  -27.2536  -27.5042   20.1156 C   0  0  0  0  0  0  0  0  0  0  0  0
  -25.5726  -33.8762   24.2210 N   0  0  0  0  0  0  0  0  0  0  0  0
  -23.4066  -30.4859   21.5461 C   0  0  2  0  0  0  0  0  0  0  0  0
  -24.8467  -28.9636   20.1247 C   0  0  0  0  0  0  0  0  0  0  0  0
  -22.7412  -29.4652   22.5052 C   0  0  0  0  0  0  0  0  0  0  0  0
  -18.0167  -28.1302   22.8626 C   0  0  0  0  0  0  0  0  0  0  0  0
  -24.1342  -36.7390   23.2568 C   0  0  0  0  0  0  0  0  0  0  0  0
  -25.9141  -30.8882   21.3456 C   0  0  0  0  0  0  0  0  0  0  0  0
  -25.9930  -29.5029   20.7208 C   0  0  0  0  0  0  0  0  0  0  0  0
  -27.1758  -28.7612   20.7331 C   0  0  0  0  0  0  0  0  0  0  0  0
  -26.1032  -26.9836   19.5230 C   0  0  0  0  0  0  0  0  0  0  0  0
  -24.9097  -27.7011   19.5331 C   0  0  0  0  0  0  0  0  0  0  0  0
  -23.5715  -29.7899   20.1582 C   0  0  0  0  0  0  0  0  0  0  0  0
  -25.3990  -36.3212   24.0232 C   0  0  1  0  0  0  0  0  0  0  0  0
  -20.5793  -28.3813   23.1004 C   0  0  2  0  0  0  0  0  0  0  0  0
  -20.6548  -26.9392   22.5411 C   0  0  0  0  0  0  0  0  0  0  0  0
  -19.5615  -26.6407   21.5143 C   0  0  0  0  0  0  0  0  0  0  0  0
  -18.1797  -26.7818   22.1673 C   0  0  0  0  0  0  0  0  0  0  0  0
  -19.1385  -28.8769   23.2988 C   0  0  0  0  0  0  0  0  0  0  0  0
  -18.9183  -30.1286   23.8878 C   0  0  0  0  0  0  0  0  0  0  0  0
  -17.6396  -30.6493   24.0352 C   0  0  0  0  0  0  0  0  0  0  0  0
  -25.9153  -34.9582   23.4993 C   0  0  0  0  0  0  0  0  0  0  0  0
  -16.5415  -29.9068   23.6254 C   0  0  0  0  0  0  0  0  0  0  0  0
  -16.7331  -28.6521   23.0586 C   0  0  0  0  0  0  0  0  0  0  0  0
  -26.4583  -31.6439   25.0683 C   0  0  0  0  0  0  0  0  0  0  0  0
  -25.3807  -31.3179   26.1374 C   0  0  0  0  0  0  0  0  0  0  0  0
  -27.0530  -30.3024   24.5680 C   0  0  0  0  0  0  0  0  0  0  0  0
  -27.6014  -32.4281   25.7651 C   0  0  0  0  0  0  0  0  0  0  0  0
  -27.5629  -37.2220   24.8621 C   0  0  0  0  0  0  0  0  0  0  0  0
  -21.4133  -29.3375   22.3735 N   0  0  0  0  0  0  0  0  0  0  0  0
  -26.4706  -37.3372   23.9061 N   0  0  0  0  0  0  0  0  0  0  0  0
  -24.6674  -31.0544   22.1178 N   0  0  0  0  0  0  0  0  0  0  0  0
  -23.4259  -28.8150   23.2971 O   0  0  0  0  0  0  0  0  0  0  0  0
  -28.3948  -26.7345   20.0089 O   0  0  0  0  0  0  0  0  0  0  0  0
  -26.5870  -34.9065   22.4671 O   0  0  0  0  0  0  0  0  0  0  0  0
  -23.5365  -32.1254   23.7833 O   0  0  0  0  0  0  0  0  0  0  0  0
  -30.9027  -19.0589   24.0587 C   0  0  0  0  0  0  0  0  0  0  0  0
  -31.6275  -18.3624   25.0041 C   0  0  0  0  0  0  0  0  0  0  0  0
  -30.8330  -18.4749   22.8104 C   0  0  0  0  0  0  0  0  0  0  0  0
  -32.0992  -16.7197   23.5054 C   0  0  0  0  0  0  0  0  0  0  0  0
  -31.7570  -18.9133   26.3844 C   0  0  0  0  0  0  0  0  0  0  0  0
  -33.6368  -15.5791   20.9891 C   0  0  0  0  0  0  0  0  0  0  0  0
  -33.0059  -13.3842   22.0523 C   0  0  0  0  0  0  0  0  0  0  0  0
  -30.5821  -12.6205   22.5064 C   0  0  0  0  0  0  0  0  0  0  0  0
  -32.6589  -14.8729   21.9237 C   0  0  1  0  0  0  0  0  0  0  0  0
  -32.0460  -12.5728   22.9378 C   0  0  1  0  0  0  0  0  0  0  0  0
  -32.2411  -17.1856   24.7608 N   0  0  0  0  0  0  0  0  0  0  0  0
  -31.4215  -17.3018   22.4977 N   0  0  0  0  0  0  0  0  0  0  0  0
  -30.1013  -19.1564   21.8065 N   0  0  0  0  0  0  0  0  0  0  0  0
  -32.7141  -15.5133   23.2208 N   0  0  0  0  0  0  0  0  0  0  0  0
  -32.4599  -11.2039   22.9095 O   0  0  0  0  0  0  0  0  0  0  0  0
  -31.4485  -12.4701   19.0860 H   0  0  0  0  0  0  0  0  0  0  0  0
  -30.3970  -11.2460   19.6950 H   0  0  0  0  0  0  0  0  0  0  0  0
  -29.6870  -11.8204   17.4226 H   0  0  0  0  0  0  0  0  0  0  0  0
  -29.6375  -13.5326   17.8649 H   0  0  0  0  0  0  0  0  0  0  0  0
  -27.7830  -11.3650   18.7904 H   0  0  0  0  0  0  0  0  0  0  0  0
  -27.4028  -12.7801   17.8021 H   0  0  0  0  0  0  0  0  0  0  0  0
  -27.7353  -14.2503   19.6136 H   0  0  0  0  0  0  0  0  0  0  0  0
  -28.5890  -11.9550   21.3832 H   0  0  0  0  0  0  0  0  0  0  0  0
  -28.5005  -13.6134   21.8562 H   0  0  0  0  0  0  0  0  0  0  0  0
  -25.2399   -9.5495   22.4318 H   0  0  0  0  0  0  0  0  0  0  0  0
  -23.9663   -7.5070   22.7297 H   0  0  0  0  0  0  0  0  0  0  0  0
  -21.1515   -8.8641   19.9162 H   0  0  0  0  0  0  0  0  0  0  0  0
  -22.4016  -10.9115   19.6476 H   0  0  0  0  0  0  0  0  0  0  0  0
  -21.2319   -7.5552   23.9750 H   0  0  0  0  0  0  0  0  0  0  0  0
  -21.1589   -6.0228   25.8556 H   0  0  0  0  0  0  0  0  0  0  0  0
  -22.0396   -2.8212   23.2809 H   0  0  0  0  0  0  0  0  0  0  0  0
  -22.4401  -11.9703   22.4008 H   0  0  0  0  0  0  0  0  0  0  0  0
  -21.1493  -13.0679   22.2082 H   0  0  0  0  0  0  0  0  0  0  0  0
  -24.6538  -15.7807   20.5848 H   0  0  0  0  0  0  0  0  0  0  0  0
  -26.2762  -15.5453   20.1156 H   0  0  0  0  0  0  0  0  0  0  0  0
  -26.6778  -32.4663   23.1464 H   0  0  0  0  0  0  0  0  0  0  0  0
  -25.0747  -34.0282   25.0566 H   0  0  0  0  0  0  0  0  0  0  0  0
  -22.7881  -31.3489   21.4131 H   0  0  0  0  0  0  0  0  0  0  0  0
  -23.3854  -35.9823   23.3648 H   0  0  0  0  0  0  0  0  0  0  0  0
  -24.3696  -36.8624   22.2204 H   0  0  0  0  0  0  0  0  0  0  0  0
  -23.7669  -37.6632   23.6516 H   0  0  0  0  0  0  0  0  0  0  0  0
  -25.9445  -31.6237   20.5691 H   0  0  0  0  0  0  0  0  0  0  0  0
  -26.7436  -31.0079   22.0108 H   0  0  0  0  0  0  0  0  0  0  0  0
  -28.0090  -29.1452   21.2057 H   0  0  0  0  0  0  0  0  0  0  0  0
  -26.1369  -26.0560   19.0719 H   0  0  0  0  0  0  0  0  0  0  0  0
  -24.0652  -27.2961   19.0997 H   0  0  0  0  0  0  0  0  0  0  0  0
  -23.6156  -30.5365   19.3930 H   0  0  0  0  0  0  0  0  0  0  0  0
  -22.7355  -29.1425   19.9945 H   0  0  0  0  0  0  0  0  0  0  0  0
  -25.1353  -36.2335   25.0565 H   0  0  0  0  0  0  0  0  0  0  0  0
  -21.0070  -28.3206   24.0793 H   0  0  0  0  0  0  0  0  0  0  0  0
  -20.5555  -26.2518   23.3550 H   0  0  0  0  0  0  0  0  0  0  0  0
  -21.5974  -26.8362   22.0454 H   0  0  0  0  0  0  0  0  0  0  0  0
  -19.6810  -25.6422   21.1488 H   0  0  0  0  0  0  0  0  0  0  0  0
  -19.6406  -27.3343   20.7034 H   0  0  0  0  0  0  0  0  0  0  0  0
  -17.4282  -26.6888   21.4113 H   0  0  0  0  0  0  0  0  0  0  0  0
  -18.0803  -26.0130   22.9049 H   0  0  0  0  0  0  0  0  0  0  0  0
  -19.7265  -30.6774   24.2204 H   0  0  0  0  0  0  0  0  0  0  0  0
  -17.5064  -31.5856   24.4483 H   0  0  0  0  0  0  0  0  0  0  0  0
  -15.5878  -30.2839   23.7407 H   0  0  0  0  0  0  0  0  0  0  0  0
  -15.9120  -28.0941   22.7766 H   0  0  0  0  0  0  0  0  0  0  0  0
  -24.5787  -30.7757   25.6817 H   0  0  0  0  0  0  0  0  0  0  0  0
  -25.0041  -32.2289   26.5536 H   0  0  0  0  0  0  0  0  0  0  0  0
  -25.8166  -30.7245   26.9138 H   0  0  0  0  0  0  0  0  0  0  0  0
  -26.2892  -29.7335   24.0803 H   0  0  0  0  0  0  0  0  0  0  0  0
  -27.4336  -29.7484   25.4006 H   0  0  0  0  0  0  0  0  0  0  0  0
  -27.8466  -30.4994   23.8779 H   0  0  0  0  0  0  0  0  0  0  0  0
  -27.2251  -33.3632   26.1242 H   0  0  0  0  0  0  0  0  0  0  0  0
  -28.3902  -32.6065   25.0645 H   0  0  0  0  0  0  0  0  0  0  0  0
  -27.9772  -31.8555   26.5872 H   0  0  0  0  0  0  0  0  0  0  0  0
  -28.2744  -38.0016   24.6863 H   0  0  0  0  0  0  0  0  0  0  0  0
  -28.0396  -36.2711   24.7461 H   0  0  0  0  0  0  0  0  0  0  0  0
  -27.1773  -37.3087   25.8564 H   0  0  0  0  0  0  0  0  0  0  0  0
  -20.9627  -29.9365   21.7352 H   0  0  0  0  0  0  0  0  0  0  0  0
  -26.0447  -38.2561   24.0273 H   0  0  0  0  0  0  0  0  0  0  0  0
  -30.4428  -19.9579   24.2714 H   0  0  0  0  0  0  0  0  0  0  0  0
  -31.2303  -19.8425   26.4484 H   0  0  0  0  0  0  0  0  0  0  0  0
  -32.7909  -19.0731   26.6091 H   0  0  0  0  0  0  0  0  0  0  0  0
  -31.3427  -18.2194   27.0857 H   0  0  0  0  0  0  0  0  0  0  0  0
  -33.6067  -15.1157   20.0251 H   0  0  0  0  0  0  0  0  0  0  0  0
  -34.6269  -15.5074   21.3885 H   0  0  0  0  0  0  0  0  0  0  0  0
  -33.3626  -16.6094   20.8983 H   0  0  0  0  0  0  0  0  0  0  0  0
  -33.9887  -13.3062   22.4681 H   0  0  0  0  0  0  0  0  0  0  0  0
  -32.9300  -12.9710   21.0682 H   0  0  0  0  0  0  0  0  0  0  0  0
  -29.9399  -12.2632   23.2841 H   0  0  0  0  0  0  0  0  0  0  0  0
  -30.3716  -12.0038   21.6577 H   0  0  0  0  0  0  0  0  0  0  0  0
  -31.6697  -14.9443   21.5222 H   0  0  0  0  0  0  0  0  0  0  0  0
  -32.0959  -13.0140   23.9113 H   0  0  0  0  0  0  0  0  0  0  0  0
  -29.7148  -20.0159   21.5217 H   0  0  0  0  0  0  0  0  0  0  0  0
  -33.2166  -15.0660   23.9396 H   0  0  0  0  0  0  0  0  0  0  0  0
  -32.3917  -10.8642   22.0035 H   0  0  0  0  0  0  0  0  0  0  0  0
  1 25  1  0  0  0  0
  1 30  2  0  0  0  0
  1 83  1  0  0  0  0
  2  3  1  0  0  0  0
  2 25  1  0  0  0  0
  2 86  1  0  0  0  0
  2 87  1  0  0  0  0
  3  4  1  0  0  0  0
  3 88  1  0  0  0  0
  3 89  1  0  0  0  0
  4  5  1  0  0  0  0
  4 90  1  0  0  0  0
  4 91  1  0  0  0  0
  5  6  1  0  0  0  0
  5 26  1  0  0  0  0
  5 92  1  6  0  0  0
  6 25  1  0  0  0  0
  6 93  1  0  0  0  0
  6 94  1  0  0  0  0
  7  8  2  0  0  0  0
  7 26  1  0  0  0  0
  7 29  1  0  0  0  0
  8  9  1  0  0  0  0
  8 22  1  0  0  0  0
  9 10  1  0  0  0  0
  9 27  2  0  0  0  0
 10 11  2  0  0  0  0
 10 15  1  0  0  0  0
 11 12  1  0  0  0  0
 11 95  1  0  0  0  0
 12 13  2  0  0  0  0
 12 96  1  0  0  0  0
 13 14  1  0  0  0  0
 13 31  1  0  0  0  0
 14 15  2  0  0  0  0
 14 97  1  0  0  0  0
 15 98  1  0  0  0  0
 16 17  2  0  0  0  0
 16 21  1  0  0  0  0
 16 31  1  0  0  0  0
 17 18  1  0  0  0  0
 17 99  1  0  0  0  0
 18 19  2  0  0  0  0
 18100  1  0  0  0  0
 19 20  1  0  0  0  0
 19 24  1  0  0  0  0
 20 21  2  0  0  0  0
 20101  1  0  0  0  0
 21 23  1  0  0  0  0
 22 28  1  0  0  0  0
 22 32  2  0  0  0  0
 26 27  1  0  0  0  0
 28102  1  0  0  0  0
 28103  1  0  0  0  0
 29104  1  0  0  0  0
 29105  1  0  0  0  0
 33 34  1  0  0  0  0
 33 66  1  0  0  0  0
 33 70  2  0  0  0  0
 34 36  1  0  0  0  0
 34 59  1  0  0  0  0
 34106  1  6  0  0  0
 35 44  2  0  0  0  0
 35 45  1  0  0  0  0
 35 68  1  0  0  0  0
 36 56  1  0  0  0  0
 36107  1  0  0  0  0
 37 39  1  0  0  0  0
 37 47  1  0  0  0  0
 37 66  1  0  0  0  0
 37108  1  6  0  0  0
 38 43  2  0  0  0  0
 38 46  1  0  0  0  0
 38 47  1  0  0  0  0
 39 64  1  0  0  0  0
 39 67  2  0  0  0  0
 40 52  1  0  0  0  0
 40 53  2  0  0  0  0
 40 58  1  0  0  0  0
 41109  1  0  0  0  0
 41110  1  0  0  0  0
 41111  1  0  0  0  0
 42 43  1  0  0  0  0
 42 66  1  0  0  0  0
 42112  1  0  0  0  0
 42113  1  0  0  0  0
 43 44  1  0  0  0  0
 44114  1  0  0  0  0
 45 46  2  0  0  0  0
 45115  1  0  0  0  0
 46116  1  0  0  0  0
 47117  1  0  0  0  0
 47118  1  0  0  0  0
 48 41  1  0  0  0  0
 48 56  1  0  0  0  0
 48 65  1  0  0  0  0
 48119  1  1  0  0  0
 49 50  1  0  0  0  0
 49 53  1  0  0  0  0
 49 64  1  0  0  0  0
 49120  1  1  0  0  0
 50 51  1  0  0  0  0
 50121  1  0  0  0  0
 50122  1  0  0  0  0
 51 52  1  0  0  0  0
 51123  1  0  0  0  0
 51124  1  0  0  0  0
 52125  1  0  0  0  0
 52126  1  0  0  0  0
 53 54  1  0  0  0  0
 54 55  2  0  0  0  0
 54127  1  0  0  0  0
 55 57  1  0  0  0  0
 55128  1  0  0  0  0
 56 69  2  0  0  0  0
 57 58  2  0  0  0  0
 57129  1  0  0  0  0
 58130  1  0  0  0  0
 59 60  1  0  0  0  0
 59 61  1  0  0  0  0
 59 62  1  0  0  0  0
 60131  1  0  0  0  0
 60132  1  0  0  0  0
 60133  1  0  0  0  0
 61134  1  0  0  0  0
 61135  1  0  0  0  0
 61136  1  0  0  0  0
 62137  1  0  0  0  0
 62138  1  0  0  0  0
 62139  1  0  0  0  0
 63 65  1  0  0  0  0
 63140  1  0  0  0  0
 63141  1  0  0  0  0
 63142  1  0  0  0  0
 64143  1  0  0  0  0
 65144  1  0  0  0  0
 68 78  1  0  0  0  0
 71 72  2  0  0  0  0
 71 73  1  0  0  0  0
 71145  1  0  0  0  0
 72 75  1  0  0  0  0
 72 81  1  0  0  0  0
 73 82  2  0  0  0  0
 73 83  1  0  0  0  0
 74 81  2  0  0  0  0
 74 82  1  0  0  0  0
 74 84  1  0  0  0  0
 75146  1  0  0  0  0
 75147  1  0  0  0  0
 75148  1  0  0  0  0
 76149  1  0  0  0  0
 76150  1  0  0  0  0
 76151  1  0  0  0  0
 77 79  1  0  0  0  0
 77 80  1  0  0  0  0
 77152  1  0  0  0  0
 77153  1  0  0  0  0
 78 80  1  0  0  0  0
 78154  1  0  0  0  0
 78155  1  0  0  0  0
 79 76  1  0  0  0  0
 79 84  1  0  0  0  0
 79156  1  6  0  0  0
 80 85  1  0  0  0  0
 80157  1  1  0  0  0
 83158  1  0  0  0  0
 84159  1  0  0  0  0
 85160  1  0  0  0  0
M  ISO  4   1 100  68 101  78 101  83 100
M  END
$$$$
52
 OpenBabel04052305473D

155163  0  0  0  0  0  0  0  0999 V2000
  -30.7652  -14.3608   20.6636 C   0  0  0  0  0  0  0  0  0  0  0  0
  -30.4392  -12.2669   19.3775 C   0  0  0  0  0  0  0  0  0  0  0  0
  -29.4791  -12.5281   18.1977 C   0  0  0  0  0  0  0  0  0  0  0  0
  -27.9985  -12.3963   18.6038 C   0  0  0  0  0  0  0  0  0  0  0  0
  -27.6639  -13.2170   19.8820 C   0  0  2  0  0  0  0  0  0  0  0  0
  -28.6795  -12.9602   21.0279 C   0  0  0  0  0  0  0  0  0  0  0  0
  -25.2633  -13.8245   20.5754 C   0  0  0  0  0  0  0  0  0  0  0  0
  -24.1645  -13.0409   20.9408 C   0  0  0  0  0  0  0  0  0  0  0  0
  -24.6400  -11.7009   20.8697 C   0  0  0  0  0  0  0  0  0  0  0  0
  -23.9005  -10.4085   21.0420 C   0  0  0  0  0  0  0  0  0  0  0  0
  -24.3588   -9.4123   21.9123 C   0  0  0  0  0  0  0  0  0  0  0  0
  -23.6296   -8.2350   22.0803 C   0  0  0  0  0  0  0  0  0  0  0  0
  -22.4385   -8.0419   21.3657 C   0  0  0  0  0  0  0  0  0  0  0  0
  -22.0103   -9.0167   20.4678 C   0  0  0  0  0  0  0  0  0  0  0  0
  -22.7317  -10.1925   20.3102 C   0  0  0  0  0  0  0  0  0  0  0  0
  -21.6857   -6.0709   22.5391 C   0  0  0  0  0  0  0  0  0  0  0  0
  -21.4064   -6.5490   23.8264 C   0  0  0  0  0  0  0  0  0  0  0  0
  -21.3635   -5.6677   24.9085 C   0  0  0  0  0  0  0  0  0  0  0  0
  -21.5973   -4.3067   24.7088 C   0  0  0  0  0  0  0  0  0  0  0  0
  -21.8700   -3.8284   23.4282 C   0  0  0  0  0  0  0  0  0  0  0  0
  -21.9144   -4.7056   22.3460 C   0  0  0  0  0  0  0  0  0  0  0  0
  -22.8194  -13.5263   21.1763 C   0  0  0  0  0  0  0  0  0  0  0  0
  -22.1559   -4.2206   21.1063 F   0  0  0  0  0  0  0  0  0  0  0  0
  -21.5628   -3.4510   25.7555 F   0  0  0  0  0  0  0  0  0  0  0  0
  -30.0261  -13.1803   20.4553 N   0  0  0  0  0  0  0  0  0  0  0  0
  -26.2911  -12.9356   20.3443 N   0  0  0  0  0  0  0  0  0  0  0  0
  -25.9236  -11.6675   20.5847 N   0  0  0  0  0  0  0  0  0  0  0  0
  -22.0708  -12.7905   22.0005 N   0  0  0  0  0  0  0  0  0  0  0  0
  -25.4117  -15.1773   20.4097 N   0  0  0  0  0  0  0  0  0  0  0  0
  -31.7916  -14.6724   20.0536 O   0  0  0  0  0  0  0  0  0  0  0  0
  -21.6670   -6.9022   21.4423 O   0  0  0  0  0  0  0  0  0  0  0  0
  -22.3946  -14.5564   20.6568 O   0  0  0  0  0  0  0  0  0  0  0  0
  -24.6048  -31.8614   23.2223 C   0  0  0  0  0  0  0  0  0  0  0  0
  -25.8822  -32.4841   23.8616 C   0  0  1  0  0  0  0  0  0  0  0  0
  -27.2536  -27.5042   20.1156 C   0  0  0  0  0  0  0  0  0  0  0  0
  -25.5726  -33.8762   24.2210 N   0  0  0  0  0  0  0  0  0  0  0  0
  -23.4066  -30.4859   21.5461 C   0  0  2  0  0  0  0  0  0  0  0  0
  -24.8467  -28.9636   20.1247 C   0  0  0  0  0  0  0  0  0  0  0  0
  -22.7412  -29.4652   22.5052 C   0  0  0  0  0  0  0  0  0  0  0  0
  -18.0167  -28.1302   22.8626 C   0  0  0  0  0  0  0  0  0  0  0  0
  -24.1342  -36.7390   23.2568 C   0  0  0  0  0  0  0  0  0  0  0  0
  -25.9141  -30.8882   21.3456 C   0  0  0  0  0  0  0  0  0  0  0  0
  -25.9930  -29.5029   20.7208 C   0  0  0  0  0  0  0  0  0  0  0  0
  -27.1758  -28.7612   20.7331 C   0  0  0  0  0  0  0  0  0  0  0  0
  -26.1032  -26.9836   19.5230 C   0  0  0  0  0  0  0  0  0  0  0  0
  -24.9097  -27.7011   19.5331 C   0  0  0  0  0  0  0  0  0  0  0  0
  -23.5715  -29.7899   20.1582 C   0  0  0  0  0  0  0  0  0  0  0  0
  -25.3990  -36.3212   24.0232 C   0  0  1  0  0  0  0  0  0  0  0  0
  -20.5793  -28.3813   23.1004 C   0  0  2  0  0  0  0  0  0  0  0  0
  -20.6548  -26.9392   22.5411 C   0  0  0  0  0  0  0  0  0  0  0  0
  -19.5615  -26.6407   21.5143 C   0  0  0  0  0  0  0  0  0  0  0  0
  -18.1797  -26.7818   22.1673 C   0  0  0  0  0  0  0  0  0  0  0  0
  -19.1385  -28.8769   23.2988 C   0  0  0  0  0  0  0  0  0  0  0  0
  -18.9183  -30.1286   23.8878 C   0  0  0  0  0  0  0  0  0  0  0  0
  -17.6396  -30.6493   24.0352 C   0  0  0  0  0  0  0  0  0  0  0  0
  -25.9153  -34.9582   23.4993 C   0  0  0  0  0  0  0  0  0  0  0  0
  -16.5415  -29.9068   23.6254 C   0  0  0  0  0  0  0  0  0  0  0  0
  -16.7331  -28.6521   23.0586 C   0  0  0  0  0  0  0  0  0  0  0  0
  -26.4583  -31.6439   25.0683 C   0  0  0  0  0  0  0  0  0  0  0  0
  -25.3807  -31.3179   26.1374 C   0  0  0  0  0  0  0  0  0  0  0  0
  -27.0530  -30.3024   24.5680 C   0  0  0  0  0  0  0  0  0  0  0  0
  -27.6014  -32.4281   25.7651 C   0  0  0  0  0  0  0  0  0  0  0  0
  -27.5629  -37.2220   24.8621 C   0  0  0  0  0  0  0  0  0  0  0  0
  -21.4133  -29.3375   22.3735 N   0  0  0  0  0  0  0  0  0  0  0  0
  -26.4706  -37.3372   23.9061 N   0  0  0  0  0  0  0  0  0  0  0  0
  -24.6674  -31.0544   22.1178 N   0  0  0  0  0  0  0  0  0  0  0  0
  -23.4259  -28.8150   23.2971 O   0  0  0  0  0  0  0  0  0  0  0  0
  -28.3948  -26.7345   20.0089 O   0  0  0  0  0  0  0  0  0  0  0  0
  -26.5870  -34.9065   22.4671 O   0  0  0  0  0  0  0  0  0  0  0  0
  -23.5365  -32.1254   23.7833 O   0  0  0  0  0  0  0  0  0  0  0  0
  -21.5487  -18.2241   25.6210 C   0  0  0  0  0  0  0  0  0  0  0  0
  -20.7161  -17.1250   25.5663 C   0  0  0  0  0  0  0  0  0  0  0  0
  -20.0911  -16.9091   24.3551 C   0  0  0  0  0  0  0  0  0  0  0  0
  -21.0955  -18.7383   23.4537 C   0  0  0  0  0  0  0  0  0  0  0  0
  -19.1661  -15.7501   24.1751 C   0  0  0  0  0  0  0  0  0  0  0  0
  -19.8904  -14.4162   23.9646 C   0  0  0  0  0  0  0  0  0  0  0  0
  -20.6539  -19.3745   21.0818 C   0  0  0  0  0  0  0  0  0  0  0  0
  -21.0678  -20.4704   20.1140 C   0  0  0  0  0  0  0  0  0  0  0  0
  -21.7623  -19.0553   24.5799 N   0  0  0  0  0  0  0  0  0  0  0  0
  -20.2584  -17.6988   23.2740 N   0  0  0  0  0  0  0  0  0  0  0  0
  -20.5316  -16.2947   26.6782 N   0  0  0  0  0  0  0  0  0  0  0  0
  -21.2912  -19.5703   22.3638 N   0  0  0  0  0  0  0  0  0  0  0  0
  -20.7539  -14.4414   22.8051 N   0  0  0  0  0  0  0  0  0  0  0  0
  -31.4485  -12.4701   19.0860 H   0  0  0  0  0  0  0  0  0  0  0  0
  -30.3970  -11.2460   19.6950 H   0  0  0  0  0  0  0  0  0  0  0  0
  -29.6870  -11.8204   17.4226 H   0  0  0  0  0  0  0  0  0  0  0  0
  -29.6375  -13.5326   17.8649 H   0  0  0  0  0  0  0  0  0  0  0  0
  -27.7830  -11.3650   18.7904 H   0  0  0  0  0  0  0  0  0  0  0  0
  -27.4028  -12.7801   17.8021 H   0  0  0  0  0  0  0  0  0  0  0  0
  -27.7353  -14.2503   19.6136 H   0  0  0  0  0  0  0  0  0  0  0  0
  -28.5890  -11.9550   21.3832 H   0  0  0  0  0  0  0  0  0  0  0  0
  -28.5005  -13.6134   21.8562 H   0  0  0  0  0  0  0  0  0  0  0  0
  -25.2399   -9.5495   22.4318 H   0  0  0  0  0  0  0  0  0  0  0  0
  -23.9663   -7.5070   22.7297 H   0  0  0  0  0  0  0  0  0  0  0  0
  -21.1515   -8.8641   19.9162 H   0  0  0  0  0  0  0  0  0  0  0  0
  -22.4016  -10.9115   19.6476 H   0  0  0  0  0  0  0  0  0  0  0  0
  -21.2319   -7.5552   23.9750 H   0  0  0  0  0  0  0  0  0  0  0  0
  -21.1589   -6.0228   25.8556 H   0  0  0  0  0  0  0  0  0  0  0  0
  -22.0396   -2.8212   23.2809 H   0  0  0  0  0  0  0  0  0  0  0  0
  -22.4401  -11.9703   22.4008 H   0  0  0  0  0  0  0  0  0  0  0  0
  -21.1493  -13.0679   22.2082 H   0  0  0  0  0  0  0  0  0  0  0  0
  -24.6538  -15.7807   20.5848 H   0  0  0  0  0  0  0  0  0  0  0  0
  -26.2762  -15.5453   20.1156 H   0  0  0  0  0  0  0  0  0  0  0  0
  -26.6778  -32.4663   23.1464 H   0  0  0  0  0  0  0  0  0  0  0  0
  -25.0747  -34.0282   25.0566 H   0  0  0  0  0  0  0  0  0  0  0  0
  -22.7881  -31.3489   21.4131 H   0  0  0  0  0  0  0  0  0  0  0  0
  -23.3854  -35.9823   23.3648 H   0  0  0  0  0  0  0  0  0  0  0  0
  -24.3696  -36.8624   22.2204 H   0  0  0  0  0  0  0  0  0  0  0  0
  -23.7669  -37.6632   23.6516 H   0  0  0  0  0  0  0  0  0  0  0  0
  -25.9445  -31.6237   20.5691 H   0  0  0  0  0  0  0  0  0  0  0  0
  -26.7436  -31.0079   22.0108 H   0  0  0  0  0  0  0  0  0  0  0  0
  -28.0090  -29.1452   21.2057 H   0  0  0  0  0  0  0  0  0  0  0  0
  -26.1369  -26.0560   19.0719 H   0  0  0  0  0  0  0  0  0  0  0  0
  -24.0652  -27.2961   19.0997 H   0  0  0  0  0  0  0  0  0  0  0  0
  -23.6156  -30.5365   19.3930 H   0  0  0  0  0  0  0  0  0  0  0  0
  -22.7355  -29.1425   19.9945 H   0  0  0  0  0  0  0  0  0  0  0  0
  -25.1353  -36.2335   25.0565 H   0  0  0  0  0  0  0  0  0  0  0  0
  -21.0070  -28.3206   24.0793 H   0  0  0  0  0  0  0  0  0  0  0  0
  -20.5555  -26.2518   23.3550 H   0  0  0  0  0  0  0  0  0  0  0  0
  -21.5974  -26.8362   22.0454 H   0  0  0  0  0  0  0  0  0  0  0  0
  -19.6810  -25.6422   21.1488 H   0  0  0  0  0  0  0  0  0  0  0  0
  -19.6406  -27.3343   20.7034 H   0  0  0  0  0  0  0  0  0  0  0  0
  -17.4282  -26.6888   21.4113 H   0  0  0  0  0  0  0  0  0  0  0  0
  -18.0803  -26.0130   22.9049 H   0  0  0  0  0  0  0  0  0  0  0  0
  -19.7265  -30.6774   24.2204 H   0  0  0  0  0  0  0  0  0  0  0  0
  -17.5064  -31.5856   24.4483 H   0  0  0  0  0  0  0  0  0  0  0  0
  -15.5878  -30.2839   23.7407 H   0  0  0  0  0  0  0  0  0  0  0  0
  -15.9120  -28.0941   22.7766 H   0  0  0  0  0  0  0  0  0  0  0  0
  -24.5787  -30.7757   25.6817 H   0  0  0  0  0  0  0  0  0  0  0  0
  -25.0041  -32.2289   26.5536 H   0  0  0  0  0  0  0  0  0  0  0  0
  -25.8166  -30.7245   26.9138 H   0  0  0  0  0  0  0  0  0  0  0  0
  -26.2892  -29.7335   24.0803 H   0  0  0  0  0  0  0  0  0  0  0  0
  -27.4336  -29.7484   25.4006 H   0  0  0  0  0  0  0  0  0  0  0  0
  -27.8466  -30.4994   23.8779 H   0  0  0  0  0  0  0  0  0  0  0  0
  -27.2251  -33.3632   26.1242 H   0  0  0  0  0  0  0  0  0  0  0  0
  -28.3902  -32.6065   25.0645 H   0  0  0  0  0  0  0  0  0  0  0  0
  -27.9772  -31.8555   26.5872 H   0  0  0  0  0  0  0  0  0  0  0  0
  -28.2744  -38.0016   24.6863 H   0  0  0  0  0  0  0  0  0  0  0  0
  -28.0396  -36.2711   24.7461 H   0  0  0  0  0  0  0  0  0  0  0  0
  -27.1773  -37.3087   25.8564 H   0  0  0  0  0  0  0  0  0  0  0  0
  -20.9627  -29.9365   21.7352 H   0  0  0  0  0  0  0  0  0  0  0  0
  -26.0447  -38.2561   24.0273 H   0  0  0  0  0  0  0  0  0  0  0  0
  -22.0359  -18.4216   26.5091 H   0  0  0  0  0  0  0  0  0  0  0  0
  -18.5491  -15.9387   23.3215 H   0  0  0  0  0  0  0  0  0  0  0  0
  -18.5962  -15.6597   25.0762 H   0  0  0  0  0  0  0  0  0  0  0  0
  -19.1607  -13.6445   23.8343 H   0  0  0  0  0  0  0  0  0  0  0  0
  -20.5001  -14.2338   24.8247 H   0  0  0  0  0  0  0  0  0  0  0  0
  -20.9447  -18.4245   20.6845 H   0  0  0  0  0  0  0  0  0  0  0  0
  -19.5924  -19.4081   21.2122 H   0  0  0  0  0  0  0  0  0  0  0  0
  -20.2043  -21.1009   20.0723 H   0  0  0  0  0  0  0  0  0  0  0  0
  -21.4719  -19.8150   19.3710 H   0  0  0  0  0  0  0  0  0  0  0  0
  -21.0001  -16.4902   27.5217 H   0  0  0  0  0  0  0  0  0  0  0  0
  -19.9333  -15.5153   26.6167 H   0  0  0  0  0  0  0  0  0  0  0  0
  -21.8985  -20.3381   22.4684 H   0  0  0  0  0  0  0  0  0  0  0  0
  -20.2223  -14.4767   21.9772 H   0  0  0  0  0  0  0  0  0  0  0  0
  1 25  1  0  0  0  0
  1 30  2  0  0  0  0
  1 83  1  0  0  0  0
  2  3  1  0  0  0  0
  2 25  1  0  0  0  0
  2 84  1  0  0  0  0
  2 85  1  0  0  0  0
  3  4  1  0  0  0  0
  3 86  1  0  0  0  0
  3 87  1  0  0  0  0
  4  5  1  0  0  0  0
  4 88  1  0  0  0  0
  4 89  1  0  0  0  0
  5  6  1  0  0  0  0
  5 26  1  0  0  0  0
  5 90  1  6  0  0  0
  6 25  1  0  0  0  0
  6 91  1  0  0  0  0
  6 92  1  0  0  0  0
  7  8  2  0  0  0  0
  7 26  1  0  0  0  0
  7 29  1  0  0  0  0
  8  9  1  0  0  0  0
  8 22  1  0  0  0  0
  9 10  1  0  0  0  0
  9 27  2  0  0  0  0
 10 11  2  0  0  0  0
 10 15  1  0  0  0  0
 11 12  1  0  0  0  0
 11 93  1  0  0  0  0
 12 13  2  0  0  0  0
 12 94  1  0  0  0  0
 13 14  1  0  0  0  0
 13 31  1  0  0  0  0
 14 15  2  0  0  0  0
 14 95  1  0  0  0  0
 15 96  1  0  0  0  0
 16 17  2  0  0  0  0
 16 21  1  0  0  0  0
 16 31  1  0  0  0  0
 17 18  1  0  0  0  0
 17 97  1  0  0  0  0
 18 19  2  0  0  0  0
 18 98  1  0  0  0  0
 19 20  1  0  0  0  0
 19 24  1  0  0  0  0
 20 21  2  0  0  0  0
 20 99  1  0  0  0  0
 21 23  1  0  0  0  0
 22 28  1  0  0  0  0
 22 32  2  0  0  0  0
 26 27  1  0  0  0  0
 28100  1  0  0  0  0
 28101  1  0  0  0  0
 29102  1  0  0  0  0
 29103  1  0  0  0  0
 33 34  1  0  0  0  0
 33 66  1  0  0  0  0
 33 70  2  0  0  0  0
 34 36  1  0  0  0  0
 34 59  1  0  0  0  0
 34104  1  6  0  0  0
 35 44  2  0  0  0  0
 35 45  1  0  0  0  0
 35 68  1  0  0  0  0
 36 56  1  0  0  0  0
 36105  1  0  0  0  0
 37 39  1  0  0  0  0
 37 47  1  0  0  0  0
 37 66  1  0  0  0  0
 37106  1  6  0  0  0
 38 43  2  0  0  0  0
 38 46  1  0  0  0  0
 38 47  1  0  0  0  0
 39 64  1  0  0  0  0
 39 67  2  0  0  0  0
 40 52  1  0  0  0  0
 40 53  2  0  0  0  0
 40 58  1  0  0  0  0
 41107  1  0  0  0  0
 41108  1  0  0  0  0
 41109  1  0  0  0  0
 42 43  1  0  0  0  0
 42 66  1  0  0  0  0
 42110  1  0  0  0  0
 42111  1  0  0  0  0
 43 44  1  0  0  0  0
 44112  1  0  0  0  0
 45 46  2  0  0  0  0
 45113  1  0  0  0  0
 46114  1  0  0  0  0
 47115  1  0  0  0  0
 47116  1  0  0  0  0
 48 41  1  0  0  0  0
 48 56  1  0  0  0  0
 48 65  1  0  0  0  0
 48117  1  1  0  0  0
 49 50  1  0  0  0  0
 49 53  1  0  0  0  0
 49 64  1  0  0  0  0
 49118  1  1  0  0  0
 50 51  1  0  0  0  0
 50119  1  0  0  0  0
 50120  1  0  0  0  0
 51 52  1  0  0  0  0
 51121  1  0  0  0  0
 51122  1  0  0  0  0
 52123  1  0  0  0  0
 52124  1  0  0  0  0
 53 54  1  0  0  0  0
 54 55  2  0  0  0  0
 54125  1  0  0  0  0
 55 57  1  0  0  0  0
 55126  1  0  0  0  0
 56 69  2  0  0  0  0
 57 58  2  0  0  0  0
 57127  1  0  0  0  0
 58128  1  0  0  0  0
 59 60  1  0  0  0  0
 59 61  1  0  0  0  0
 59 62  1  0  0  0  0
 60129  1  0  0  0  0
 60130  1  0  0  0  0
 60131  1  0  0  0  0
 61132  1  0  0  0  0
 61133  1  0  0  0  0
 61134  1  0  0  0  0
 62135  1  0  0  0  0
 62136  1  0  0  0  0
 62137  1  0  0  0  0
 63 65  1  0  0  0  0
 63138  1  0  0  0  0
 63139  1  0  0  0  0
 63140  1  0  0  0  0
 64141  1  0  0  0  0
 65142  1  0  0  0  0
 68 78  1  0  0  0  0
 71 72  2  0  0  0  0
 71 79  1  0  0  0  0
 71143  1  0  0  0  0
 72 73  1  0  0  0  0
 72 81  1  0  0  0  0
 73 75  1  0  0  0  0
 73 80  2  0  0  0  0
 74 79  2  0  0  0  0
 74 80  1  0  0  0  0
 74 82  1  0  0  0  0
 75 76  1  0  0  0  0
 75144  1  0  0  0  0
 75145  1  0  0  0  0
 76 83  1  0  0  0  0
 76146  1  0  0  0  0
 76147  1  0  0  0  0
 77 78  1  0  0  0  0
 77 82  1  0  0  0  0
 77148  1  0  0  0  0
 77149  1  0  0  0  0
 78150  1  0  0  0  0
 78151  1  0  0  0  0
 81152  1  0  0  0  0
 81153  1  0  0  0  0
 82154  1  0  0  0  0
 83155  1  0  0  0  0
M  ISO  4   1 100  68 101  78 101  83 100
M  END
$$$$
53
 OpenBabel04052305473D

166174  0  0  0  0  0  0  0  0999 V2000
  -30.7652  -14.3608   20.6636 C   0  0  0  0  0  0  0  0  0  0  0  0
  -30.4392  -12.2669   19.3775 C   0  0  0  0  0  0  0  0  0  0  0  0
  -29.4791  -12.5281   18.1977 C   0  0  0  0  0  0  0  0  0  0  0  0
  -27.9985  -12.3963   18.6038 C   0  0  0  0  0  0  0  0  0  0  0  0
  -27.6639  -13.2170   19.8820 C   0  0  2  0  0  0  0  0  0  0  0  0
  -28.6795  -12.9602   21.0279 C   0  0  0  0  0  0  0  0  0  0  0  0
  -25.2633  -13.8245   20.5754 C   0  0  0  0  0  0  0  0  0  0  0  0
  -24.1645  -13.0409   20.9408 C   0  0  0  0  0  0  0  0  0  0  0  0
  -24.6400  -11.7009   20.8697 C   0  0  0  0  0  0  0  0  0  0  0  0
  -23.9005  -10.4085   21.0420 C   0  0  0  0  0  0  0  0  0  0  0  0
  -24.3588   -9.4123   21.9123 C   0  0  0  0  0  0  0  0  0  0  0  0
  -23.6296   -8.2350   22.0803 C   0  0  0  0  0  0  0  0  0  0  0  0
  -22.4385   -8.0419   21.3657 C   0  0  0  0  0  0  0  0  0  0  0  0
  -22.0103   -9.0167   20.4678 C   0  0  0  0  0  0  0  0  0  0  0  0
  -22.7317  -10.1925   20.3102 C   0  0  0  0  0  0  0  0  0  0  0  0
  -21.6857   -6.0709   22.5391 C   0  0  0  0  0  0  0  0  0  0  0  0
  -21.4064   -6.5490   23.8264 C   0  0  0  0  0  0  0  0  0  0  0  0
  -21.3635   -5.6677   24.9085 C   0  0  0  0  0  0  0  0  0  0  0  0
  -21.5973   -4.3067   24.7088 C   0  0  0  0  0  0  0  0  0  0  0  0
  -21.8700   -3.8284   23.4282 C   0  0  0  0  0  0  0  0  0  0  0  0
  -21.9144   -4.7056   22.3460 C   0  0  0  0  0  0  0  0  0  0  0  0
  -22.8194  -13.5263   21.1763 C   0  0  0  0  0  0  0  0  0  0  0  0
  -22.1559   -4.2206   21.1063 F   0  0  0  0  0  0  0  0  0  0  0  0
  -21.5628   -3.4510   25.7555 F   0  0  0  0  0  0  0  0  0  0  0  0
  -30.0261  -13.1803   20.4553 N   0  0  0  0  0  0  0  0  0  0  0  0
  -26.2911  -12.9356   20.3443 N   0  0  0  0  0  0  0  0  0  0  0  0
  -25.9236  -11.6675   20.5847 N   0  0  0  0  0  0  0  0  0  0  0  0
  -22.0708  -12.7905   22.0005 N   0  0  0  0  0  0  0  0  0  0  0  0
  -25.4117  -15.1773   20.4097 N   0  0  0  0  0  0  0  0  0  0  0  0
  -31.7916  -14.6724   20.0536 O   0  0  0  0  0  0  0  0  0  0  0  0
  -21.6670   -6.9022   21.4423 O   0  0  0  0  0  0  0  0  0  0  0  0
  -22.3946  -14.5564   20.6568 O   0  0  0  0  0  0  0  0  0  0  0  0
  -24.6048  -31.8614   23.2223 C   0  0  0  0  0  0  0  0  0  0  0  0
  -25.8822  -32.4841   23.8616 C   0  0  1  0  0  0  0  0  0  0  0  0
  -27.2536  -27.5042   20.1156 C   0  0  0  0  0  0  0  0  0  0  0  0
  -25.5726  -33.8762   24.2210 N   0  0  0  0  0  0  0  0  0  0  0  0
  -23.4066  -30.4859   21.5461 C   0  0  2  0  0  0  0  0  0  0  0  0
  -24.8467  -28.9636   20.1247 C   0  0  0  0  0  0  0  0  0  0  0  0
  -22.7412  -29.4652   22.5052 C   0  0  0  0  0  0  0  0  0  0  0  0
  -18.0167  -28.1302   22.8626 C   0  0  0  0  0  0  0  0  0  0  0  0
  -24.1342  -36.7390   23.2568 C   0  0  0  0  0  0  0  0  0  0  0  0
  -25.9141  -30.8882   21.3456 C   0  0  0  0  0  0  0  0  0  0  0  0
  -25.9930  -29.5029   20.7208 C   0  0  0  0  0  0  0  0  0  0  0  0
  -27.1758  -28.7612   20.7331 C   0  0  0  0  0  0  0  0  0  0  0  0
  -26.1032  -26.9836   19.5230 C   0  0  0  0  0  0  0  0  0  0  0  0
  -24.9097  -27.7011   19.5331 C   0  0  0  0  0  0  0  0  0  0  0  0
  -23.5715  -29.7899   20.1582 C   0  0  0  0  0  0  0  0  0  0  0  0
  -25.3990  -36.3212   24.0232 C   0  0  1  0  0  0  0  0  0  0  0  0
  -20.5793  -28.3813   23.1004 C   0  0  2  0  0  0  0  0  0  0  0  0
  -20.6548  -26.9392   22.5411 C   0  0  0  0  0  0  0  0  0  0  0  0
  -19.5615  -26.6407   21.5143 C   0  0  0  0  0  0  0  0  0  0  0  0
  -18.1797  -26.7818   22.1673 C   0  0  0  0  0  0  0  0  0  0  0  0
  -19.1385  -28.8769   23.2988 C   0  0  0  0  0  0  0  0  0  0  0  0
  -18.9183  -30.1286   23.8878 C   0  0  0  0  0  0  0  0  0  0  0  0
  -17.6396  -30.6493   24.0352 C   0  0  0  0  0  0  0  0  0  0  0  0
  -25.9153  -34.9582   23.4993 C   0  0  0  0  0  0  0  0  0  0  0  0
  -16.5415  -29.9068   23.6254 C   0  0  0  0  0  0  0  0  0  0  0  0
  -16.7331  -28.6521   23.0586 C   0  0  0  0  0  0  0  0  0  0  0  0
  -26.4583  -31.6439   25.0683 C   0  0  0  0  0  0  0  0  0  0  0  0
  -25.3807  -31.3179   26.1374 C   0  0  0  0  0  0  0  0  0  0  0  0
  -27.0530  -30.3024   24.5680 C   0  0  0  0  0  0  0  0  0  0  0  0
  -27.6014  -32.4281   25.7651 C   0  0  0  0  0  0  0  0  0  0  0  0
  -27.5629  -37.2220   24.8621 C   0  0  0  0  0  0  0  0  0  0  0  0
  -21.4133  -29.3375   22.3735 N   0  0  0  0  0  0  0  0  0  0  0  0
  -26.4706  -37.3372   23.9061 N   0  0  0  0  0  0  0  0  0  0  0  0
  -24.6674  -31.0544   22.1178 N   0  0  0  0  0  0  0  0  0  0  0  0
  -23.4259  -28.8150   23.2971 O   0  0  0  0  0  0  0  0  0  0  0  0
  -28.3948  -26.7345   20.0089 O   0  0  0  0  0  0  0  0  0  0  0  0
  -26.5870  -34.9065   22.4671 O   0  0  0  0  0  0  0  0  0  0  0  0
  -23.5365  -32.1254   23.7833 O   0  0  0  0  0  0  0  0  0  0  0  0
  -26.8344  -19.4034   22.1213 C   0  0  0  0  0  0  0  0  0  0  0  0
  -27.1380  -21.4640   22.2588 C   0  0  0  0  0  0  0  0  0  0  0  0
  -32.0284  -23.0632   24.5426 C   0  0  0  0  0  0  0  0  0  0  0  0
  -31.9333  -22.5768   22.0901 C   0  0  0  0  0  0  0  0  0  0  0  0
  -28.7394  -24.2232   19.1630 C   0  0  0  0  0  0  0  0  0  0  0  0
  -24.7416  -22.0670   22.7889 C   0  0  0  0  0  0  0  0  0  0  0  0
  -29.7789  -22.9231   23.3382 C   0  0  0  0  0  0  0  0  0  0  0  0
  -29.0050  -24.6519   21.6693 C   0  0  0  0  0  0  0  0  0  0  0  0
  -31.2653  -23.3298   23.2444 C   0  0  0  0  0  0  0  0  0  0  0  0
  -28.9519  -23.1659   22.0620 C   0  0  2  0  0  0  0  0  0  0  0  0
  -28.2607  -25.0108   20.3755 C   0  0  1  0  0  0  0  0  0  0  0  0
  -27.8051  -20.3585   22.0213 N   0  0  0  0  0  0  0  0  0  0  0  0
  -25.6086  -19.8483   22.4057 N   0  0  0  0  0  0  0  0  0  0  0  0
  -25.8303  -21.1690   22.4884 N   0  0  0  0  0  0  0  0  0  0  0  0
  -27.1527  -18.0364   21.9272 N   0  0  0  0  0  0  0  0  0  0  0  0
  -27.5770  -22.7751   22.2961 N   0  0  0  0  0  0  0  0  0  0  0  0
  -31.4485  -12.4701   19.0860 H   0  0  0  0  0  0  0  0  0  0  0  0
  -30.3970  -11.2460   19.6950 H   0  0  0  0  0  0  0  0  0  0  0  0
  -29.6870  -11.8204   17.4226 H   0  0  0  0  0  0  0  0  0  0  0  0
  -29.6375  -13.5326   17.8649 H   0  0  0  0  0  0  0  0  0  0  0  0
  -27.7830  -11.3650   18.7904 H   0  0  0  0  0  0  0  0  0  0  0  0
  -27.4028  -12.7801   17.8021 H   0  0  0  0  0  0  0  0  0  0  0  0
  -27.7353  -14.2503   19.6136 H   0  0  0  0  0  0  0  0  0  0  0  0
  -28.5890  -11.9550   21.3832 H   0  0  0  0  0  0  0  0  0  0  0  0
  -28.5005  -13.6134   21.8562 H   0  0  0  0  0  0  0  0  0  0  0  0
  -25.2399   -9.5495   22.4318 H   0  0  0  0  0  0  0  0  0  0  0  0
  -23.9663   -7.5070   22.7297 H   0  0  0  0  0  0  0  0  0  0  0  0
  -21.1515   -8.8641   19.9162 H   0  0  0  0  0  0  0  0  0  0  0  0
  -22.4016  -10.9115   19.6476 H   0  0  0  0  0  0  0  0  0  0  0  0
  -21.2319   -7.5552   23.9750 H   0  0  0  0  0  0  0  0  0  0  0  0
  -21.1589   -6.0228   25.8556 H   0  0  0  0  0  0  0  0  0  0  0  0
  -22.0396   -2.8212   23.2809 H   0  0  0  0  0  0  0  0  0  0  0  0
  -22.4401  -11.9703   22.4008 H   0  0  0  0  0  0  0  0  0  0  0  0
  -21.1493  -13.0679   22.2082 H   0  0  0  0  0  0  0  0  0  0  0  0
  -24.6538  -15.7807   20.5848 H   0  0  0  0  0  0  0  0  0  0  0  0
  -26.2762  -15.5453   20.1156 H   0  0  0  0  0  0  0  0  0  0  0  0
  -26.6778  -32.4663   23.1464 H   0  0  0  0  0  0  0  0  0  0  0  0
  -25.0747  -34.0282   25.0566 H   0  0  0  0  0  0  0  0  0  0  0  0
  -22.7881  -31.3489   21.4131 H   0  0  0  0  0  0  0  0  0  0  0  0
  -23.3854  -35.9823   23.3648 H   0  0  0  0  0  0  0  0  0  0  0  0
  -24.3696  -36.8624   22.2204 H   0  0  0  0  0  0  0  0  0  0  0  0
  -23.7669  -37.6632   23.6516 H   0  0  0  0  0  0  0  0  0  0  0  0
  -25.9445  -31.6237   20.5691 H   0  0  0  0  0  0  0  0  0  0  0  0
  -26.7436  -31.0079   22.0108 H   0  0  0  0  0  0  0  0  0  0  0  0
  -28.0090  -29.1452   21.2057 H   0  0  0  0  0  0  0  0  0  0  0  0
  -26.1369  -26.0560   19.0719 H   0  0  0  0  0  0  0  0  0  0  0  0
  -24.0652  -27.2961   19.0997 H   0  0  0  0  0  0  0  0  0  0  0  0
  -23.6156  -30.5365   19.3930 H   0  0  0  0  0  0  0  0  0  0  0  0
  -22.7355  -29.1425   19.9945 H   0  0  0  0  0  0  0  0  0  0  0  0
  -25.1353  -36.2335   25.0565 H   0  0  0  0  0  0  0  0  0  0  0  0
  -21.0070  -28.3206   24.0793 H   0  0  0  0  0  0  0  0  0  0  0  0
  -20.5555  -26.2518   23.3550 H   0  0  0  0  0  0  0  0  0  0  0  0
  -21.5974  -26.8362   22.0454 H   0  0  0  0  0  0  0  0  0  0  0  0
  -19.6810  -25.6422   21.1488 H   0  0  0  0  0  0  0  0  0  0  0  0
  -19.6406  -27.3343   20.7034 H   0  0  0  0  0  0  0  0  0  0  0  0
  -17.4282  -26.6888   21.4113 H   0  0  0  0  0  0  0  0  0  0  0  0
  -18.0803  -26.0130   22.9049 H   0  0  0  0  0  0  0  0  0  0  0  0
  -19.7265  -30.6774   24.2204 H   0  0  0  0  0  0  0  0  0  0  0  0
  -17.5064  -31.5856   24.4483 H   0  0  0  0  0  0  0  0  0  0  0  0
  -15.5878  -30.2839   23.7407 H   0  0  0  0  0  0  0  0  0  0  0  0
  -15.9120  -28.0941   22.7766 H   0  0  0  0  0  0  0  0  0  0  0  0
  -24.5787  -30.7757   25.6817 H   0  0  0  0  0  0  0  0  0  0  0  0
  -25.0041  -32.2289   26.5536 H   0  0  0  0  0  0  0  0  0  0  0  0
  -25.8166  -30.7245   26.9138 H   0  0  0  0  0  0  0  0  0  0  0  0
  -26.2892  -29.7335   24.0803 H   0  0  0  0  0  0  0  0  0  0  0  0
  -27.4336  -29.7484   25.4006 H   0  0  0  0  0  0  0  0  0  0  0  0
  -27.8466  -30.4994   23.8779 H   0  0  0  0  0  0  0  0  0  0  0  0
  -27.2251  -33.3632   26.1242 H   0  0  0  0  0  0  0  0  0  0  0  0
  -28.3902  -32.6065   25.0645 H   0  0  0  0  0  0  0  0  0  0  0  0
  -27.9772  -31.8555   26.5872 H   0  0  0  0  0  0  0  0  0  0  0  0
  -28.2744  -38.0016   24.6863 H   0  0  0  0  0  0  0  0  0  0  0  0
  -28.0396  -36.2711   24.7461 H   0  0  0  0  0  0  0  0  0  0  0  0
  -27.1773  -37.3087   25.8564 H   0  0  0  0  0  0  0  0  0  0  0  0
  -20.9627  -29.9365   21.7352 H   0  0  0  0  0  0  0  0  0  0  0  0
  -26.0447  -38.2561   24.0273 H   0  0  0  0  0  0  0  0  0  0  0  0
  -33.0491  -23.3616   24.4241 H   0  0  0  0  0  0  0  0  0  0  0  0
  -31.9865  -22.0191   24.7730 H   0  0  0  0  0  0  0  0  0  0  0  0
  -31.5835  -23.6223   25.3391 H   0  0  0  0  0  0  0  0  0  0  0  0
  -32.9631  -22.8607   22.0276 H   0  0  0  0  0  0  0  0  0  0  0  0
  -31.4399  -22.8204   21.1724 H   0  0  0  0  0  0  0  0  0  0  0  0
  -31.8636  -21.5233   22.2638 H   0  0  0  0  0  0  0  0  0  0  0  0
  -28.6655  -23.1753   19.3665 H   0  0  0  0  0  0  0  0  0  0  0  0
  -29.7581  -24.4749   18.9537 H   0  0  0  0  0  0  0  0  0  0  0  0
  -28.1309  -24.4661   18.3170 H   0  0  0  0  0  0  0  0  0  0  0  0
  -25.1054  -23.0729   22.8135 H   0  0  0  0  0  0  0  0  0  0  0  0
  -24.3242  -21.8153   23.7414 H   0  0  0  0  0  0  0  0  0  0  0  0
  -23.9878  -21.9787   22.0346 H   0  0  0  0  0  0  0  0  0  0  0  0
  -29.3321  -23.4821   24.1337 H   0  0  0  0  0  0  0  0  0  0  0  0
  -29.7697  -21.8657   23.5018 H   0  0  0  0  0  0  0  0  0  0  0  0
  -30.0321  -24.9261   21.5477 H   0  0  0  0  0  0  0  0  0  0  0  0
  -28.5115  -25.1854   22.4546 H   0  0  0  0  0  0  0  0  0  0  0  0
  -31.2966  -24.3846   23.0674 H   0  0  0  0  0  0  0  0  0  0  0  0
  -29.3616  -22.5815   21.2648 H   0  0  0  0  0  0  0  0  0  0  0  0
  -27.2403  -24.7491   20.5630 H   0  0  0  0  0  0  0  0  0  0  0  0
  -26.3221  -17.5410   22.1114 H   0  0  0  0  0  0  0  0  0  0  0  0
  -26.9193  -23.4809   22.4924 H   0  0  0  0  0  0  0  0  0  0  0  0
  1 25  1  0  0  0  0
  1 30  2  0  0  0  0
  1 85  1  0  0  0  0
  2  3  1  0  0  0  0
  2 25  1  0  0  0  0
  2 87  1  0  0  0  0
  2 88  1  0  0  0  0
  3  4  1  0  0  0  0
  3 89  1  0  0  0  0
  3 90  1  0  0  0  0
  4  5  1  0  0  0  0
  4 91  1  0  0  0  0
  4 92  1  0  0  0  0
  5  6  1  0  0  0  0
  5 26  1  0  0  0  0
  5 93  1  6  0  0  0
  6 25  1  0  0  0  0
  6 94  1  0  0  0  0
  6 95  1  0  0  0  0
  7  8  2  0  0  0  0
  7 26  1  0  0  0  0
  7 29  1  0  0  0  0
  8  9  1  0  0  0  0
  8 22  1  0  0  0  0
  9 10  1  0  0  0  0
  9 27  2  0  0  0  0
 10 11  2  0  0  0  0
 10 15  1  0  0  0  0
 11 12  1  0  0  0  0
 11 96  1  0  0  0  0
 12 13  2  0  0  0  0
 12 97  1  0  0  0  0
 13 14  1  0  0  0  0
 13 31  1  0  0  0  0
 14 15  2  0  0  0  0
 14 98  1  0  0  0  0
 15 99  1  0  0  0  0
 16 17  2  0  0  0  0
 16 21  1  0  0  0  0
 16 31  1  0  0  0  0
 17 18  1  0  0  0  0
 17100  1  0  0  0  0
 18 19  2  0  0  0  0
 18101  1  0  0  0  0
 19 20  1  0  0  0  0
 19 24  1  0  0  0  0
 20 21  2  0  0  0  0
 20102  1  0  0  0  0
 21 23  1  0  0  0  0
 22 28  1  0  0  0  0
 22 32  2  0  0  0  0
 26 27  1  0  0  0  0
 28103  1  0  0  0  0
 28104  1  0  0  0  0
 29105  1  0  0  0  0
 29106  1  0  0  0  0
 33 34  1  0  0  0  0
 33 66  1  0  0  0  0
 33 70  2  0  0  0  0
 34 36  1  0  0  0  0
 34 59  1  0  0  0  0
 34107  1  6  0  0  0
 35 44  2  0  0  0  0
 35 45  1  0  0  0  0
 35 68  1  0  0  0  0
 36 56  1  0  0  0  0
 36108  1  0  0  0  0
 37 39  1  0  0  0  0
 37 47  1  0  0  0  0
 37 66  1  0  0  0  0
 37109  1  6  0  0  0
 38 43  2  0  0  0  0
 38 46  1  0  0  0  0
 38 47  1  0  0  0  0
 39 64  1  0  0  0  0
 39 67  2  0  0  0  0
 40 52  1  0  0  0  0
 40 53  2  0  0  0  0
 40 58  1  0  0  0  0
 41110  1  0  0  0  0
 41111  1  0  0  0  0
 41112  1  0  0  0  0
 42 43  1  0  0  0  0
 42 66  1  0  0  0  0
 42113  1  0  0  0  0
 42114  1  0  0  0  0
 43 44  1  0  0  0  0
 44115  1  0  0  0  0
 45 46  2  0  0  0  0
 45116  1  0  0  0  0
 46117  1  0  0  0  0
 47118  1  0  0  0  0
 47119  1  0  0  0  0
 48 41  1  0  0  0  0
 48 56  1  0  0  0  0
 48 65  1  0  0  0  0
 48120  1  1  0  0  0
 49 50  1  0  0  0  0
 49 53  1  0  0  0  0
 49 64  1  0  0  0  0
 49121  1  1  0  0  0
 50 51  1  0  0  0  0
 50122  1  0  0  0  0
 50123  1  0  0  0  0
 51 52  1  0  0  0  0
 51124  1  0  0  0  0
 51125  1  0  0  0  0
 52126  1  0  0  0  0
 52127  1  0  0  0  0
 53 54  1  0  0  0  0
 54 55  2  0  0  0  0
 54128  1  0  0  0  0
 55 57  1  0  0  0  0
 55129  1  0  0  0  0
 56 69  2  0  0  0  0
 57 58  2  0  0  0  0
 57130  1  0  0  0  0
 58131  1  0  0  0  0
 59 60  1  0  0  0  0
 59 61  1  0  0  0  0
 59 62  1  0  0  0  0
 60132  1  0  0  0  0
 60133  1  0  0  0  0
 60134  1  0  0  0  0
 61135  1  0  0  0  0
 61136  1  0  0  0  0
 61137  1  0  0  0  0
 62138  1  0  0  0  0
 62139  1  0  0  0  0
 62140  1  0  0  0  0
 63 65  1  0  0  0  0
 63141  1  0  0  0  0
 63142  1  0  0  0  0
 63143  1  0  0  0  0
 64144  1  0  0  0  0
 65145  1  0  0  0  0
 68 81  1  0  0  0  0
 71 82  1  0  0  0  0
 71 83  2  0  0  0  0
 71 85  1  0  0  0  0
 72 82  2  0  0  0  0
 72 84  1  0  0  0  0
 72 86  1  0  0  0  0
 73146  1  0  0  0  0
 73147  1  0  0  0  0
 73148  1  0  0  0  0
 74 79  1  0  0  0  0
 74149  1  0  0  0  0
 74150  1  0  0  0  0
 74151  1  0  0  0  0
 75152  1  0  0  0  0
 75153  1  0  0  0  0
 75154  1  0  0  0  0
 76 84  1  0  0  0  0
 76155  1  0  0  0  0
 76156  1  0  0  0  0
 76157  1  0  0  0  0
 77 79  1  0  0  0  0
 77158  1  0  0  0  0
 77159  1  0  0  0  0
 78 80  1  0  0  0  0
 78 81  1  0  0  0  0
 78160  1  0  0  0  0
 78161  1  0  0  0  0
 79 73  1  0  0  0  0
 79162  1  0  0  0  0
 80 77  1  0  0  0  0
 80 86  1  0  0  0  0
 80163  1  6  0  0  0
 81 75  1  0  0  0  0
 81164  1  1  0  0  0
 83 84  1  0  0  0  0
 85165  1  0  0  0  0
 86166  1  0  0  0  0
M  ISO  4   1 100  68 101  81 101  85 100
M  END
$$$$
54
 OpenBabel04052305473D

153161  0  0  0  0  0  0  0  0999 V2000
  -30.7652  -14.3608   20.6636 C   0  0  0  0  0  0  0  0  0  0  0  0
  -30.4392  -12.2669   19.3775 C   0  0  0  0  0  0  0  0  0  0  0  0
  -29.4791  -12.5281   18.1977 C   0  0  0  0  0  0  0  0  0  0  0  0
  -27.9985  -12.3963   18.6038 C   0  0  0  0  0  0  0  0  0  0  0  0
  -27.6639  -13.2170   19.8820 C   0  0  2  0  0  0  0  0  0  0  0  0
  -28.6795  -12.9602   21.0279 C   0  0  0  0  0  0  0  0  0  0  0  0
  -25.2633  -13.8245   20.5754 C   0  0  0  0  0  0  0  0  0  0  0  0
  -24.1645  -13.0409   20.9408 C   0  0  0  0  0  0  0  0  0  0  0  0
  -24.6400  -11.7009   20.8697 C   0  0  0  0  0  0  0  0  0  0  0  0
  -23.9005  -10.4085   21.0420 C   0  0  0  0  0  0  0  0  0  0  0  0
  -24.3588   -9.4123   21.9123 C   0  0  0  0  0  0  0  0  0  0  0  0
  -23.6296   -8.2350   22.0803 C   0  0  0  0  0  0  0  0  0  0  0  0
  -22.4385   -8.0419   21.3657 C   0  0  0  0  0  0  0  0  0  0  0  0
  -22.0103   -9.0167   20.4678 C   0  0  0  0  0  0  0  0  0  0  0  0
  -22.7317  -10.1925   20.3102 C   0  0  0  0  0  0  0  0  0  0  0  0
  -21.6857   -6.0709   22.5391 C   0  0  0  0  0  0  0  0  0  0  0  0
  -21.4064   -6.5490   23.8264 C   0  0  0  0  0  0  0  0  0  0  0  0
  -21.3635   -5.6677   24.9085 C   0  0  0  0  0  0  0  0  0  0  0  0
  -21.5973   -4.3067   24.7088 C   0  0  0  0  0  0  0  0  0  0  0  0
  -21.8700   -3.8284   23.4282 C   0  0  0  0  0  0  0  0  0  0  0  0
  -21.9144   -4.7056   22.3460 C   0  0  0  0  0  0  0  0  0  0  0  0
  -22.8194  -13.5263   21.1763 C   0  0  0  0  0  0  0  0  0  0  0  0
  -22.1559   -4.2206   21.1063 F   0  0  0  0  0  0  0  0  0  0  0  0
  -21.5628   -3.4510   25.7555 F   0  0  0  0  0  0  0  0  0  0  0  0
  -30.0261  -13.1803   20.4553 N   0  0  0  0  0  0  0  0  0  0  0  0
  -26.2911  -12.9356   20.3443 N   0  0  0  0  0  0  0  0  0  0  0  0
  -25.9236  -11.6675   20.5847 N   0  0  0  0  0  0  0  0  0  0  0  0
  -22.0708  -12.7905   22.0005 N   0  0  0  0  0  0  0  0  0  0  0  0
  -25.4117  -15.1773   20.4097 N   0  0  0  0  0  0  0  0  0  0  0  0
  -31.7916  -14.6724   20.0536 O   0  0  0  0  0  0  0  0  0  0  0  0
  -21.6670   -6.9022   21.4423 O   0  0  0  0  0  0  0  0  0  0  0  0
  -22.3946  -14.5564   20.6568 O   0  0  0  0  0  0  0  0  0  0  0  0
  -24.6048  -31.8614   23.2223 C   0  0  0  0  0  0  0  0  0  0  0  0
  -25.8822  -32.4841   23.8616 C   0  0  1  0  0  0  0  0  0  0  0  0
  -27.2536  -27.5042   20.1156 C   0  0  0  0  0  0  0  0  0  0  0  0
  -25.5726  -33.8762   24.2210 N   0  0  0  0  0  0  0  0  0  0  0  0
  -23.4066  -30.4859   21.5461 C   0  0  2  0  0  0  0  0  0  0  0  0
  -24.8467  -28.9636   20.1247 C   0  0  0  0  0  0  0  0  0  0  0  0
  -22.7412  -29.4652   22.5052 C   0  0  0  0  0  0  0  0  0  0  0  0
  -18.0167  -28.1302   22.8626 C   0  0  0  0  0  0  0  0  0  0  0  0
  -24.1342  -36.7390   23.2568 C   0  0  0  0  0  0  0  0  0  0  0  0
  -25.9141  -30.8882   21.3456 C   0  0  0  0  0  0  0  0  0  0  0  0
  -25.9930  -29.5029   20.7208 C   0  0  0  0  0  0  0  0  0  0  0  0
  -27.1758  -28.7612   20.7331 C   0  0  0  0  0  0  0  0  0  0  0  0
  -26.1032  -26.9836   19.5230 C   0  0  0  0  0  0  0  0  0  0  0  0
  -24.9097  -27.7011   19.5331 C   0  0  0  0  0  0  0  0  0  0  0  0
  -23.5715  -29.7899   20.1582 C   0  0  0  0  0  0  0  0  0  0  0  0
  -25.3990  -36.3212   24.0232 C   0  0  1  0  0  0  0  0  0  0  0  0
  -20.5793  -28.3813   23.1004 C   0  0  2  0  0  0  0  0  0  0  0  0
  -20.6548  -26.9392   22.5411 C   0  0  0  0  0  0  0  0  0  0  0  0
  -19.5615  -26.6407   21.5143 C   0  0  0  0  0  0  0  0  0  0  0  0
  -18.1797  -26.7818   22.1673 C   0  0  0  0  0  0  0  0  0  0  0  0
  -19.1385  -28.8769   23.2988 C   0  0  0  0  0  0  0  0  0  0  0  0
  -18.9183  -30.1286   23.8878 C   0  0  0  0  0  0  0  0  0  0  0  0
  -17.6396  -30.6493   24.0352 C   0  0  0  0  0  0  0  0  0  0  0  0
  -25.9153  -34.9582   23.4993 C   0  0  0  0  0  0  0  0  0  0  0  0
  -16.5415  -29.9068   23.6254 C   0  0  0  0  0  0  0  0  0  0  0  0
  -16.7331  -28.6521   23.0586 C   0  0  0  0  0  0  0  0  0  0  0  0
  -26.4583  -31.6439   25.0683 C   0  0  0  0  0  0  0  0  0  0  0  0
  -25.3807  -31.3179   26.1374 C   0  0  0  0  0  0  0  0  0  0  0  0
  -27.0530  -30.3024   24.5680 C   0  0  0  0  0  0  0  0  0  0  0  0
  -27.6014  -32.4281   25.7651 C   0  0  0  0  0  0  0  0  0  0  0  0
  -27.5629  -37.2220   24.8621 C   0  0  0  0  0  0  0  0  0  0  0  0
  -21.4133  -29.3375   22.3735 N   0  0  0  0  0  0  0  0  0  0  0  0
  -26.4706  -37.3372   23.9061 N   0  0  0  0  0  0  0  0  0  0  0  0
  -24.6674  -31.0544   22.1178 N   0  0  0  0  0  0  0  0  0  0  0  0
  -23.4259  -28.8150   23.2971 O   0  0  0  0  0  0  0  0  0  0  0  0
  -28.3948  -26.7345   20.0089 O   0  0  0  0  0  0  0  0  0  0  0  0
  -26.5870  -34.9065   22.4671 O   0  0  0  0  0  0  0  0  0  0  0  0
  -23.5365  -32.1254   23.7833 O   0  0  0  0  0  0  0  0  0  0  0  0
  -30.2506  -24.0838   19.8675 C   0  0  0  0  0  0  0  0  0  0  0  0
  -29.0932  -22.9288   18.1994 C   0  0  0  0  0  0  0  0  0  0  0  0
  -29.6732  -24.1101   18.6144 C   0  0  0  0  0  0  0  0  0  0  0  0
  -29.6681  -21.9042   20.1453 C   0  0  0  0  0  0  0  0  0  0  0  0
  -31.7857  -26.4067   18.0561 C   0  0  0  0  0  0  0  0  0  0  0  0
  -29.6962  -27.6507   17.3993 C   0  0  0  0  0  0  0  0  0  0  0  0
  -28.1927  -27.8245   17.5900 C   0  0  0  0  0  0  0  0  0  0  0  0
  -30.2734  -26.5016   18.2318 C   0  0  1  0  0  0  0  0  0  0  0  0
  -30.2664  -22.9940   20.6628 N   0  0  0  0  0  0  0  0  0  0  0  0
  -29.0724  -21.8025   18.9419 N   0  0  0  0  0  0  0  0  0  0  0  0
  -29.6757  -25.2467   17.8258 N   0  0  0  0  0  0  0  0  0  0  0  0
  -29.6654  -20.7401   20.9532 N   0  0  0  0  0  0  0  0  0  0  0  0
  -31.4485  -12.4701   19.0860 H   0  0  0  0  0  0  0  0  0  0  0  0
  -30.3970  -11.2460   19.6950 H   0  0  0  0  0  0  0  0  0  0  0  0
  -29.6870  -11.8204   17.4226 H   0  0  0  0  0  0  0  0  0  0  0  0
  -29.6375  -13.5326   17.8649 H   0  0  0  0  0  0  0  0  0  0  0  0
  -27.7830  -11.3650   18.7904 H   0  0  0  0  0  0  0  0  0  0  0  0
  -27.4028  -12.7801   17.8021 H   0  0  0  0  0  0  0  0  0  0  0  0
  -27.7353  -14.2503   19.6136 H   0  0  0  0  0  0  0  0  0  0  0  0
  -28.5890  -11.9550   21.3832 H   0  0  0  0  0  0  0  0  0  0  0  0
  -28.5005  -13.6134   21.8562 H   0  0  0  0  0  0  0  0  0  0  0  0
  -25.2399   -9.5495   22.4318 H   0  0  0  0  0  0  0  0  0  0  0  0
  -23.9663   -7.5070   22.7297 H   0  0  0  0  0  0  0  0  0  0  0  0
  -21.1515   -8.8641   19.9162 H   0  0  0  0  0  0  0  0  0  0  0  0
  -22.4016  -10.9115   19.6476 H   0  0  0  0  0  0  0  0  0  0  0  0
  -21.2319   -7.5552   23.9750 H   0  0  0  0  0  0  0  0  0  0  0  0
  -21.1589   -6.0228   25.8556 H   0  0  0  0  0  0  0  0  0  0  0  0
  -22.0396   -2.8212   23.2809 H   0  0  0  0  0  0  0  0  0  0  0  0
  -22.4401  -11.9703   22.4008 H   0  0  0  0  0  0  0  0  0  0  0  0
  -21.1493  -13.0679   22.2082 H   0  0  0  0  0  0  0  0  0  0  0  0
  -24.6538  -15.7807   20.5848 H   0  0  0  0  0  0  0  0  0  0  0  0
  -26.2762  -15.5453   20.1156 H   0  0  0  0  0  0  0  0  0  0  0  0
  -26.6778  -32.4663   23.1464 H   0  0  0  0  0  0  0  0  0  0  0  0
  -25.0747  -34.0282   25.0566 H   0  0  0  0  0  0  0  0  0  0  0  0
  -22.7881  -31.3489   21.4131 H   0  0  0  0  0  0  0  0  0  0  0  0
  -23.3854  -35.9823   23.3648 H   0  0  0  0  0  0  0  0  0  0  0  0
  -24.3696  -36.8624   22.2204 H   0  0  0  0  0  0  0  0  0  0  0  0
  -23.7669  -37.6632   23.6516 H   0  0  0  0  0  0  0  0  0  0  0  0
  -25.9445  -31.6237   20.5691 H   0  0  0  0  0  0  0  0  0  0  0  0
  -26.7436  -31.0079   22.0108 H   0  0  0  0  0  0  0  0  0  0  0  0
  -28.0090  -29.1452   21.2057 H   0  0  0  0  0  0  0  0  0  0  0  0
  -26.1369  -26.0560   19.0719 H   0  0  0  0  0  0  0  0  0  0  0  0
  -24.0652  -27.2961   19.0997 H   0  0  0  0  0  0  0  0  0  0  0  0
  -23.6156  -30.5365   19.3930 H   0  0  0  0  0  0  0  0  0  0  0  0
  -22.7355  -29.1425   19.9945 H   0  0  0  0  0  0  0  0  0  0  0  0
  -25.1353  -36.2335   25.0565 H   0  0  0  0  0  0  0  0  0  0  0  0
  -21.0070  -28.3206   24.0793 H   0  0  0  0  0  0  0  0  0  0  0  0
  -20.5555  -26.2518   23.3550 H   0  0  0  0  0  0  0  0  0  0  0  0
  -21.5974  -26.8362   22.0454 H   0  0  0  0  0  0  0  0  0  0  0  0
  -19.6810  -25.6422   21.1488 H   0  0  0  0  0  0  0  0  0  0  0  0
  -19.6406  -27.3343   20.7034 H   0  0  0  0  0  0  0  0  0  0  0  0
  -17.4282  -26.6888   21.4113 H   0  0  0  0  0  0  0  0  0  0  0  0
  -18.0803  -26.0130   22.9049 H   0  0  0  0  0  0  0  0  0  0  0  0
  -19.7265  -30.6774   24.2204 H   0  0  0  0  0  0  0  0  0  0  0  0
  -17.5064  -31.5856   24.4483 H   0  0  0  0  0  0  0  0  0  0  0  0
  -15.5878  -30.2839   23.7407 H   0  0  0  0  0  0  0  0  0  0  0  0
  -15.9120  -28.0941   22.7766 H   0  0  0  0  0  0  0  0  0  0  0  0
  -24.5787  -30.7757   25.6817 H   0  0  0  0  0  0  0  0  0  0  0  0
  -25.0041  -32.2289   26.5536 H   0  0  0  0  0  0  0  0  0  0  0  0
  -25.8166  -30.7245   26.9138 H   0  0  0  0  0  0  0  0  0  0  0  0
  -26.2892  -29.7335   24.0803 H   0  0  0  0  0  0  0  0  0  0  0  0
  -27.4336  -29.7484   25.4006 H   0  0  0  0  0  0  0  0  0  0  0  0
  -27.8466  -30.4994   23.8779 H   0  0  0  0  0  0  0  0  0  0  0  0
  -27.2251  -33.3632   26.1242 H   0  0  0  0  0  0  0  0  0  0  0  0
  -28.3902  -32.6065   25.0645 H   0  0  0  0  0  0  0  0  0  0  0  0
  -27.9772  -31.8555   26.5872 H   0  0  0  0  0  0  0  0  0  0  0  0
  -28.2744  -38.0016   24.6863 H   0  0  0  0  0  0  0  0  0  0  0  0
  -28.0396  -36.2711   24.7461 H   0  0  0  0  0  0  0  0  0  0  0  0
  -27.1773  -37.3087   25.8564 H   0  0  0  0  0  0  0  0  0  0  0  0
  -20.9627  -29.9365   21.7352 H   0  0  0  0  0  0  0  0  0  0  0  0
  -26.0447  -38.2561   24.0273 H   0  0  0  0  0  0  0  0  0  0  0  0
  -30.6958  -24.9471   20.2162 H   0  0  0  0  0  0  0  0  0  0  0  0
  -28.6500  -22.9055   17.2677 H   0  0  0  0  0  0  0  0  0  0  0  0
  -32.2379  -27.3297   18.3535 H   0  0  0  0  0  0  0  0  0  0  0  0
  -32.0139  -26.2124   17.0289 H   0  0  0  0  0  0  0  0  0  0  0  0
  -32.1660  -25.6114   18.6626 H   0  0  0  0  0  0  0  0  0  0  0  0
  -30.1840  -28.5588   17.6862 H   0  0  0  0  0  0  0  0  0  0  0  0
  -29.8644  -27.4169   16.3688 H   0  0  0  0  0  0  0  0  0  0  0  0
  -27.5956  -27.2612   16.9037 H   0  0  0  0  0  0  0  0  0  0  0  0
  -27.7335  -28.7822   17.4599 H   0  0  0  0  0  0  0  0  0  0  0  0
  -30.0523  -26.6973   19.2603 H   0  0  0  0  0  0  0  0  0  0  0  0
  -29.2478  -25.1998   16.9404 H   0  0  0  0  0  0  0  0  0  0  0  0
  -29.4089  -20.9836   21.8720 H   0  0  0  0  0  0  0  0  0  0  0  0
  1 25  1  0  0  0  0
  1 30  2  0  0  0  0
  1 82  1  0  0  0  0
  2  3  1  0  0  0  0
  2 25  1  0  0  0  0
  2 83  1  0  0  0  0
  2 84  1  0  0  0  0
  3  4  1  0  0  0  0
  3 85  1  0  0  0  0
  3 86  1  0  0  0  0
  4  5  1  0  0  0  0
  4 87  1  0  0  0  0
  4 88  1  0  0  0  0
  5  6  1  0  0  0  0
  5 26  1  0  0  0  0
  5 89  1  6  0  0  0
  6 25  1  0  0  0  0
  6 90  1  0  0  0  0
  6 91  1  0  0  0  0
  7  8  2  0  0  0  0
  7 26  1  0  0  0  0
  7 29  1  0  0  0  0
  8  9  1  0  0  0  0
  8 22  1  0  0  0  0
  9 10  1  0  0  0  0
  9 27  2  0  0  0  0
 10 11  2  0  0  0  0
 10 15  1  0  0  0  0
 11 12  1  0  0  0  0
 11 92  1  0  0  0  0
 12 13  2  0  0  0  0
 12 93  1  0  0  0  0
 13 14  1  0  0  0  0
 13 31  1  0  0  0  0
 14 15  2  0  0  0  0
 14 94  1  0  0  0  0
 15 95  1  0  0  0  0
 16 17  2  0  0  0  0
 16 21  1  0  0  0  0
 16 31  1  0  0  0  0
 17 18  1  0  0  0  0
 17 96  1  0  0  0  0
 18 19  2  0  0  0  0
 18 97  1  0  0  0  0
 19 20  1  0  0  0  0
 19 24  1  0  0  0  0
 20 21  2  0  0  0  0
 20 98  1  0  0  0  0
 21 23  1  0  0  0  0
 22 28  1  0  0  0  0
 22 32  2  0  0  0  0
 26 27  1  0  0  0  0
 28 99  1  0  0  0  0
 28100  1  0  0  0  0
 29101  1  0  0  0  0
 29102  1  0  0  0  0
 33 34  1  0  0  0  0
 33 66  1  0  0  0  0
 33 70  2  0  0  0  0
 34 36  1  0  0  0  0
 34 59  1  0  0  0  0
 34103  1  6  0  0  0
 35 44  2  0  0  0  0
 35 45  1  0  0  0  0
 35 68  1  0  0  0  0
 36 56  1  0  0  0  0
 36104  1  0  0  0  0
 37 39  1  0  0  0  0
 37 47  1  0  0  0  0
 37 66  1  0  0  0  0
 37105  1  6  0  0  0
 38 43  2  0  0  0  0
 38 46  1  0  0  0  0
 38 47  1  0  0  0  0
 39 64  1  0  0  0  0
 39 67  2  0  0  0  0
 40 52  1  0  0  0  0
 40 53  2  0  0  0  0
 40 58  1  0  0  0  0
 41106  1  0  0  0  0
 41107  1  0  0  0  0
 41108  1  0  0  0  0
 42 43  1  0  0  0  0
 42 66  1  0  0  0  0
 42109  1  0  0  0  0
 42110  1  0  0  0  0
 43 44  1  0  0  0  0
 44111  1  0  0  0  0
 45 46  2  0  0  0  0
 45112  1  0  0  0  0
 46113  1  0  0  0  0
 47114  1  0  0  0  0
 47115  1  0  0  0  0
 48 41  1  0  0  0  0
 48 56  1  0  0  0  0
 48 65  1  0  0  0  0
 48116  1  1  0  0  0
 49 50  1  0  0  0  0
 49 53  1  0  0  0  0
 49 64  1  0  0  0  0
 49117  1  1  0  0  0
 50 51  1  0  0  0  0
 50118  1  0  0  0  0
 50119  1  0  0  0  0
 51 52  1  0  0  0  0
 51120  1  0  0  0  0
 51121  1  0  0  0  0
 52122  1  0  0  0  0
 52123  1  0  0  0  0
 53 54  1  0  0  0  0
 54 55  2  0  0  0  0
 54124  1  0  0  0  0
 55 57  1  0  0  0  0
 55125  1  0  0  0  0
 56 69  2  0  0  0  0
 57 58  2  0  0  0  0
 57126  1  0  0  0  0
 58127  1  0  0  0  0
 59 60  1  0  0  0  0
 59 61  1  0  0  0  0
 59 62  1  0  0  0  0
 60128  1  0  0  0  0
 60129  1  0  0  0  0
 60130  1  0  0  0  0
 61131  1  0  0  0  0
 61132  1  0  0  0  0
 61133  1  0  0  0  0
 62134  1  0  0  0  0
 62135  1  0  0  0  0
 62136  1  0  0  0  0
 63 65  1  0  0  0  0
 63137  1  0  0  0  0
 63138  1  0  0  0  0
 63139  1  0  0  0  0
 64140  1  0  0  0  0
 65141  1  0  0  0  0
 68 77  1  0  0  0  0
 71 73  2  0  0  0  0
 71 79  1  0  0  0  0
 71142  1  0  0  0  0
 72 73  1  0  0  0  0
 72 80  2  0  0  0  0
 72143  1  0  0  0  0
 73 81  1  0  0  0  0
 74 79  2  0  0  0  0
 74 80  1  0  0  0  0
 74 82  1  0  0  0  0
 75144  1  0  0  0  0
 75145  1  0  0  0  0
 75146  1  0  0  0  0
 76 77  1  0  0  0  0
 76 78  1  0  0  0  0
 76147  1  0  0  0  0
 76148  1  0  0  0  0
 77149  1  0  0  0  0
 77150  1  0  0  0  0
 78 75  1  0  0  0  0
 78 81  1  0  0  0  0
 78151  1  1  0  0  0
 81152  1  0  0  0  0
 82153  1  0  0  0  0
M  ISO  4   1 100  68 101  77 101  82 100
M  END
$$$$
55
 OpenBabel04052305473D

153161  0  0  0  0  0  0  0  0999 V2000
  -30.7652  -14.3608   20.6636 C   0  0  0  0  0  0  0  0  0  0  0  0
  -30.4392  -12.2669   19.3775 C   0  0  0  0  0  0  0  0  0  0  0  0
  -29.4791  -12.5281   18.1977 C   0  0  0  0  0  0  0  0  0  0  0  0
  -27.9985  -12.3963   18.6038 C   0  0  0  0  0  0  0  0  0  0  0  0
  -27.6639  -13.2170   19.8820 C   0  0  2  0  0  0  0  0  0  0  0  0
  -28.6795  -12.9602   21.0279 C   0  0  0  0  0  0  0  0  0  0  0  0
  -25.2633  -13.8245   20.5754 C   0  0  0  0  0  0  0  0  0  0  0  0
  -24.1645  -13.0409   20.9408 C   0  0  0  0  0  0  0  0  0  0  0  0
  -24.6400  -11.7009   20.8697 C   0  0  0  0  0  0  0  0  0  0  0  0
  -23.9005  -10.4085   21.0420 C   0  0  0  0  0  0  0  0  0  0  0  0
  -24.3588   -9.4123   21.9123 C   0  0  0  0  0  0  0  0  0  0  0  0
  -23.6296   -8.2350   22.0803 C   0  0  0  0  0  0  0  0  0  0  0  0
  -22.4385   -8.0419   21.3657 C   0  0  0  0  0  0  0  0  0  0  0  0
  -22.0103   -9.0167   20.4678 C   0  0  0  0  0  0  0  0  0  0  0  0
  -22.7317  -10.1925   20.3102 C   0  0  0  0  0  0  0  0  0  0  0  0
  -21.6857   -6.0709   22.5391 C   0  0  0  0  0  0  0  0  0  0  0  0
  -21.4064   -6.5490   23.8264 C   0  0  0  0  0  0  0  0  0  0  0  0
  -21.3635   -5.6677   24.9085 C   0  0  0  0  0  0  0  0  0  0  0  0
  -21.5973   -4.3067   24.7088 C   0  0  0  0  0  0  0  0  0  0  0  0
  -21.8700   -3.8284   23.4282 C   0  0  0  0  0  0  0  0  0  0  0  0
  -21.9144   -4.7056   22.3460 C   0  0  0  0  0  0  0  0  0  0  0  0
  -22.8194  -13.5263   21.1763 C   0  0  0  0  0  0  0  0  0  0  0  0
  -22.1559   -4.2206   21.1063 F   0  0  0  0  0  0  0  0  0  0  0  0
  -21.5628   -3.4510   25.7555 F   0  0  0  0  0  0  0  0  0  0  0  0
  -30.0261  -13.1803   20.4553 N   0  0  0  0  0  0  0  0  0  0  0  0
  -26.2911  -12.9356   20.3443 N   0  0  0  0  0  0  0  0  0  0  0  0
  -25.9236  -11.6675   20.5847 N   0  0  0  0  0  0  0  0  0  0  0  0
  -22.0708  -12.7905   22.0005 N   0  0  0  0  0  0  0  0  0  0  0  0
  -25.4117  -15.1773   20.4097 N   0  0  0  0  0  0  0  0  0  0  0  0
  -31.7916  -14.6724   20.0536 O   0  0  0  0  0  0  0  0  0  0  0  0
  -21.6670   -6.9022   21.4423 O   0  0  0  0  0  0  0  0  0  0  0  0
  -22.3946  -14.5564   20.6568 O   0  0  0  0  0  0  0  0  0  0  0  0
  -24.6048  -31.8614   23.2223 C   0  0  0  0  0  0  0  0  0  0  0  0
  -25.8822  -32.4841   23.8616 C   0  0  1  0  0  0  0  0  0  0  0  0
  -27.2536  -27.5042   20.1156 C   0  0  0  0  0  0  0  0  0  0  0  0
  -25.5726  -33.8762   24.2210 N   0  0  0  0  0  0  0  0  0  0  0  0
  -23.4066  -30.4859   21.5461 C   0  0  2  0  0  0  0  0  0  0  0  0
  -24.8467  -28.9636   20.1247 C   0  0  0  0  0  0  0  0  0  0  0  0
  -22.7412  -29.4652   22.5052 C   0  0  0  0  0  0  0  0  0  0  0  0
  -18.0167  -28.1302   22.8626 C   0  0  0  0  0  0  0  0  0  0  0  0
  -24.1342  -36.7390   23.2568 C   0  0  0  0  0  0  0  0  0  0  0  0
  -25.9141  -30.8882   21.3456 C   0  0  0  0  0  0  0  0  0  0  0  0
  -25.9930  -29.5029   20.7208 C   0  0  0  0  0  0  0  0  0  0  0  0
  -27.1758  -28.7612   20.7331 C   0  0  0  0  0  0  0  0  0  0  0  0
  -26.1032  -26.9836   19.5230 C   0  0  0  0  0  0  0  0  0  0  0  0
  -24.9097  -27.7011   19.5331 C   0  0  0  0  0  0  0  0  0  0  0  0
  -23.5715  -29.7899   20.1582 C   0  0  0  0  0  0  0  0  0  0  0  0
  -25.3990  -36.3212   24.0232 C   0  0  1  0  0  0  0  0  0  0  0  0
  -20.5793  -28.3813   23.1004 C   0  0  2  0  0  0  0  0  0  0  0  0
  -20.6548  -26.9392   22.5411 C   0  0  0  0  0  0  0  0  0  0  0  0
  -19.5615  -26.6407   21.5143 C   0  0  0  0  0  0  0  0  0  0  0  0
  -18.1797  -26.7818   22.1673 C   0  0  0  0  0  0  0  0  0  0  0  0
  -19.1385  -28.8769   23.2988 C   0  0  0  0  0  0  0  0  0  0  0  0
  -18.9183  -30.1286   23.8878 C   0  0  0  0  0  0  0  0  0  0  0  0
  -17.6396  -30.6493   24.0352 C   0  0  0  0  0  0  0  0  0  0  0  0
  -25.9153  -34.9582   23.4993 C   0  0  0  0  0  0  0  0  0  0  0  0
  -16.5415  -29.9068   23.6254 C   0  0  0  0  0  0  0  0  0  0  0  0
  -16.7331  -28.6521   23.0586 C   0  0  0  0  0  0  0  0  0  0  0  0
  -26.4583  -31.6439   25.0683 C   0  0  0  0  0  0  0  0  0  0  0  0
  -25.3807  -31.3179   26.1374 C   0  0  0  0  0  0  0  0  0  0  0  0
  -27.0530  -30.3024   24.5680 C   0  0  0  0  0  0  0  0  0  0  0  0
  -27.6014  -32.4281   25.7651 C   0  0  0  0  0  0  0  0  0  0  0  0
  -27.5629  -37.2220   24.8621 C   0  0  0  0  0  0  0  0  0  0  0  0
  -21.4133  -29.3375   22.3735 N   0  0  0  0  0  0  0  0  0  0  0  0
  -26.4706  -37.3372   23.9061 N   0  0  0  0  0  0  0  0  0  0  0  0
  -24.6674  -31.0544   22.1178 N   0  0  0  0  0  0  0  0  0  0  0  0
  -23.4259  -28.8150   23.2971 O   0  0  0  0  0  0  0  0  0  0  0  0
  -28.3948  -26.7345   20.0089 O   0  0  0  0  0  0  0  0  0  0  0  0
  -26.5870  -34.9065   22.4671 O   0  0  0  0  0  0  0  0  0  0  0  0
  -23.5365  -32.1254   23.7833 O   0  0  0  0  0  0  0  0  0  0  0  0
  -20.2918  -26.8176   22.1586 C   0  0  0  0  0  0  0  0  0  0  0  0
  -20.3469  -28.1578   22.4829 C   0  0  0  0  0  0  0  0  0  0  0  0
  -19.0531  -26.2230   22.2863 C   0  0  0  0  0  0  0  0  0  0  0  0
  -18.1298  -28.1794   22.9840 C   0  0  0  0  0  0  0  0  0  0  0  0
  -20.0735  -24.0775   21.5239 C   0  0  0  0  0  0  0  0  0  0  0  0
  -20.7757  -21.7814   20.7655 C   0  0  0  0  0  0  0  0  0  0  0  0
  -19.6146  -22.6486   21.2396 C   0  0  1  0  0  0  0  0  0  0  0  0
  -19.2814  -28.8724   22.9006 N   0  0  0  0  0  0  0  0  0  0  0  0
  -17.9467  -26.8763   22.6980 N   0  0  0  0  0  0  0  0  0  0  0  0
  -16.9935  -28.8962   23.4179 N   0  0  0  0  0  0  0  0  0  0  0  0
  -21.5986  -28.8116   22.3662 N   0  0  0  0  0  0  0  0  0  0  0  0
  -18.9562  -24.8779   21.9724 N   0  0  0  0  0  0  0  0  0  0  0  0
  -19.1055  -22.0729   22.4444 O   0  0  0  0  0  0  0  0  0  0  0  0
  -31.4485  -12.4701   19.0860 H   0  0  0  0  0  0  0  0  0  0  0  0
  -30.3970  -11.2460   19.6950 H   0  0  0  0  0  0  0  0  0  0  0  0
  -29.6870  -11.8204   17.4226 H   0  0  0  0  0  0  0  0  0  0  0  0
  -29.6375  -13.5326   17.8649 H   0  0  0  0  0  0  0  0  0  0  0  0
  -27.7830  -11.3650   18.7904 H   0  0  0  0  0  0  0  0  0  0  0  0
  -27.4028  -12.7801   17.8021 H   0  0  0  0  0  0  0  0  0  0  0  0
  -27.7353  -14.2503   19.6136 H   0  0  0  0  0  0  0  0  0  0  0  0
  -28.5890  -11.9550   21.3832 H   0  0  0  0  0  0  0  0  0  0  0  0
  -28.5005  -13.6134   21.8562 H   0  0  0  0  0  0  0  0  0  0  0  0
  -25.2399   -9.5495   22.4318 H   0  0  0  0  0  0  0  0  0  0  0  0
  -23.9663   -7.5070   22.7297 H   0  0  0  0  0  0  0  0  0  0  0  0
  -21.1515   -8.8641   19.9162 H   0  0  0  0  0  0  0  0  0  0  0  0
  -22.4016  -10.9115   19.6476 H   0  0  0  0  0  0  0  0  0  0  0  0
  -21.2319   -7.5552   23.9750 H   0  0  0  0  0  0  0  0  0  0  0  0
  -21.1589   -6.0228   25.8556 H   0  0  0  0  0  0  0  0  0  0  0  0
  -22.0396   -2.8212   23.2809 H   0  0  0  0  0  0  0  0  0  0  0  0
  -22.4401  -11.9703   22.4008 H   0  0  0  0  0  0  0  0  0  0  0  0
  -21.1493  -13.0679   22.2082 H   0  0  0  0  0  0  0  0  0  0  0  0
  -24.6538  -15.7807   20.5848 H   0  0  0  0  0  0  0  0  0  0  0  0
  -26.2762  -15.5453   20.1156 H   0  0  0  0  0  0  0  0  0  0  0  0
  -26.6778  -32.4663   23.1464 H   0  0  0  0  0  0  0  0  0  0  0  0
  -25.0747  -34.0282   25.0566 H   0  0  0  0  0  0  0  0  0  0  0  0
  -22.7881  -31.3489   21.4131 H   0  0  0  0  0  0  0  0  0  0  0  0
  -23.3854  -35.9823   23.3648 H   0  0  0  0  0  0  0  0  0  0  0  0
  -24.3696  -36.8624   22.2204 H   0  0  0  0  0  0  0  0  0  0  0  0
  -23.7669  -37.6632   23.6516 H   0  0  0  0  0  0  0  0  0  0  0  0
  -25.9445  -31.6237   20.5691 H   0  0  0  0  0  0  0  0  0  0  0  0
  -26.7436  -31.0079   22.0108 H   0  0  0  0  0  0  0  0  0  0  0  0
  -28.0090  -29.1452   21.2057 H   0  0  0  0  0  0  0  0  0  0  0  0
  -26.1369  -26.0560   19.0719 H   0  0  0  0  0  0  0  0  0  0  0  0
  -24.0652  -27.2961   19.0997 H   0  0  0  0  0  0  0  0  0  0  0  0
  -23.6156  -30.5365   19.3930 H   0  0  0  0  0  0  0  0  0  0  0  0
  -22.7355  -29.1425   19.9945 H   0  0  0  0  0  0  0  0  0  0  0  0
  -25.1353  -36.2335   25.0565 H   0  0  0  0  0  0  0  0  0  0  0  0
  -21.0070  -28.3206   24.0793 H   0  0  0  0  0  0  0  0  0  0  0  0
  -20.5555  -26.2518   23.3550 H   0  0  0  0  0  0  0  0  0  0  0  0
  -21.5974  -26.8362   22.0454 H   0  0  0  0  0  0  0  0  0  0  0  0
  -19.6810  -25.6422   21.1488 H   0  0  0  0  0  0  0  0  0  0  0  0
  -19.6406  -27.3343   20.7034 H   0  0  0  0  0  0  0  0  0  0  0  0
  -17.4282  -26.6888   21.4113 H   0  0  0  0  0  0  0  0  0  0  0  0
  -18.0803  -26.0130   22.9049 H   0  0  0  0  0  0  0  0  0  0  0  0
  -19.7265  -30.6774   24.2204 H   0  0  0  0  0  0  0  0  0  0  0  0
  -17.5064  -31.5856   24.4483 H   0  0  0  0  0  0  0  0  0  0  0  0
  -15.5878  -30.2839   23.7407 H   0  0  0  0  0  0  0  0  0  0  0  0
  -15.9120  -28.0941   22.7766 H   0  0  0  0  0  0  0  0  0  0  0  0
  -24.5787  -30.7757   25.6817 H   0  0  0  0  0  0  0  0  0  0  0  0
  -25.0041  -32.2289   26.5536 H   0  0  0  0  0  0  0  0  0  0  0  0
  -25.8166  -30.7245   26.9138 H   0  0  0  0  0  0  0  0  0  0  0  0
  -26.2892  -29.7335   24.0803 H   0  0  0  0  0  0  0  0  0  0  0  0
  -27.4336  -29.7484   25.4006 H   0  0  0  0  0  0  0  0  0  0  0  0
  -27.8466  -30.4994   23.8779 H   0  0  0  0  0  0  0  0  0  0  0  0
  -27.2251  -33.3632   26.1242 H   0  0  0  0  0  0  0  0  0  0  0  0
  -28.3902  -32.6065   25.0645 H   0  0  0  0  0  0  0  0  0  0  0  0
  -27.9772  -31.8555   26.5872 H   0  0  0  0  0  0  0  0  0  0  0  0
  -28.2744  -38.0016   24.6863 H   0  0  0  0  0  0  0  0  0  0  0  0
  -28.0396  -36.2711   24.7461 H   0  0  0  0  0  0  0  0  0  0  0  0
  -27.1773  -37.3087   25.8564 H   0  0  0  0  0  0  0  0  0  0  0  0
  -20.9627  -29.9365   21.7352 H   0  0  0  0  0  0  0  0  0  0  0  0
  -26.0447  -38.2561   24.0273 H   0  0  0  0  0  0  0  0  0  0  0  0
  -21.1227  -26.2942   21.8413 H   0  0  0  0  0  0  0  0  0  0  0  0
  -20.4780  -24.5039   20.6298 H   0  0  0  0  0  0  0  0  0  0  0  0
  -20.8212  -24.0596   22.2891 H   0  0  0  0  0  0  0  0  0  0  0  0
  -20.5337  -21.3611   19.8117 H   0  0  0  0  0  0  0  0  0  0  0  0
  -20.9401  -21.0043   21.4824 H   0  0  0  0  0  0  0  0  0  0  0  0
  -18.8652  -22.6870   20.4768 H   0  0  0  0  0  0  0  0  0  0  0  0
  -17.0700  -29.8521   23.6406 H   0  0  0  0  0  0  0  0  0  0  0  0
  -16.1247  -28.4401   23.4977 H   0  0  0  0  0  0  0  0  0  0  0  0
  -21.8544  -29.7622   22.3784 H   0  0  0  0  0  0  0  0  0  0  0  0
  -18.0776  -24.4423   22.0595 H   0  0  0  0  0  0  0  0  0  0  0  0
  -19.8067  -22.0523   23.1143 H   0  0  0  0  0  0  0  0  0  0  0  0
  1 25  1  0  0  0  0
  1 30  2  0  0  0  0
  1 81  1  0  0  0  0
  2  3  1  0  0  0  0
  2 25  1  0  0  0  0
  2 84  1  0  0  0  0
  2 85  1  0  0  0  0
  3  4  1  0  0  0  0
  3 86  1  0  0  0  0
  3 87  1  0  0  0  0
  4  5  1  0  0  0  0
  4 88  1  0  0  0  0
  4 89  1  0  0  0  0
  5  6  1  0  0  0  0
  5 26  1  0  0  0  0
  5 90  1  6  0  0  0
  6 25  1  0  0  0  0
  6 91  1  0  0  0  0
  6 92  1  0  0  0  0
  7  8  2  0  0  0  0
  7 26  1  0  0  0  0
  7 29  1  0  0  0  0
  8  9  1  0  0  0  0
  8 22  1  0  0  0  0
  9 10  1  0  0  0  0
  9 27  2  0  0  0  0
 10 11  2  0  0  0  0
 10 15  1  0  0  0  0
 11 12  1  0  0  0  0
 11 93  1  0  0  0  0
 12 13  2  0  0  0  0
 12 94  1  0  0  0  0
 13 14  1  0  0  0  0
 13 31  1  0  0  0  0
 14 15  2  0  0  0  0
 14 95  1  0  0  0  0
 15 96  1  0  0  0  0
 16 17  2  0  0  0  0
 16 21  1  0  0  0  0
 16 31  1  0  0  0  0
 17 18  1  0  0  0  0
 17 97  1  0  0  0  0
 18 19  2  0  0  0  0
 18 98  1  0  0  0  0
 19 20  1  0  0  0  0
 19 24  1  0  0  0  0
 20 21  2  0  0  0  0
 20 99  1  0  0  0  0
 21 23  1  0  0  0  0
 22 28  1  0  0  0  0
 22 32  2  0  0  0  0
 26 27  1  0  0  0  0
 28100  1  0  0  0  0
 28101  1  0  0  0  0
 29102  1  0  0  0  0
 29103  1  0  0  0  0
 33 34  1  0  0  0  0
 33 66  1  0  0  0  0
 33 70  2  0  0  0  0
 34 36  1  0  0  0  0
 34 59  1  0  0  0  0
 34104  1  6  0  0  0
 35 44  2  0  0  0  0
 35 45  1  0  0  0  0
 35 68  1  0  0  0  0
 36 56  1  0  0  0  0
 36105  1  0  0  0  0
 37 39  1  0  0  0  0
 37 47  1  0  0  0  0
 37 66  1  0  0  0  0
 37106  1  6  0  0  0
 38 43  2  0  0  0  0
 38 46  1  0  0  0  0
 38 47  1  0  0  0  0
 39 64  1  0  0  0  0
 39 67  2  0  0  0  0
 40 52  1  0  0  0  0
 40 53  2  0  0  0  0
 40 58  1  0  0  0  0
 41107  1  0  0  0  0
 41108  1  0  0  0  0
 41109  1  0  0  0  0
 42 43  1  0  0  0  0
 42 66  1  0  0  0  0
 42110  1  0  0  0  0
 42111  1  0  0  0  0
 43 44  1  0  0  0  0
 44112  1  0  0  0  0
 45 46  2  0  0  0  0
 45113  1  0  0  0  0
 46114  1  0  0  0  0
 47115  1  0  0  0  0
 47116  1  0  0  0  0
 48 41  1  0  0  0  0
 48 56  1  0  0  0  0
 48 65  1  0  0  0  0
 48117  1  1  0  0  0
 49 50  1  0  0  0  0
 49 53  1  0  0  0  0
 49 64  1  0  0  0  0
 49118  1  1  0  0  0
 50 51  1  0  0  0  0
 50119  1  0  0  0  0
 50120  1  0  0  0  0
 51 52  1  0  0  0  0
 51121  1  0  0  0  0
 51122  1  0  0  0  0
 52123  1  0  0  0  0
 52124  1  0  0  0  0
 53 54  1  0  0  0  0
 54 55  2  0  0  0  0
 54125  1  0  0  0  0
 55 57  1  0  0  0  0
 55126  1  0  0  0  0
 56 69  2  0  0  0  0
 57 58  2  0  0  0  0
 57127  1  0  0  0  0
 58128  1  0  0  0  0
 59 60  1  0  0  0  0
 59 61  1  0  0  0  0
 59 62  1  0  0  0  0
 60129  1  0  0  0  0
 60130  1  0  0  0  0
 60131  1  0  0  0  0
 61132  1  0  0  0  0
 61133  1  0  0  0  0
 61134  1  0  0  0  0
 62135  1  0  0  0  0
 62136  1  0  0  0  0
 62137  1  0  0  0  0
 63 65  1  0  0  0  0
 63138  1  0  0  0  0
 63139  1  0  0  0  0
 63140  1  0  0  0  0
 64141  1  0  0  0  0
 65142  1  0  0  0  0
 68 76  1  0  0  0  0
 71 72  2  0  0  0  0
 71 73  1  0  0  0  0
 71143  1  0  0  0  0
 72 78  1  0  0  0  0
 72 81  1  0  0  0  0
 73 79  2  0  0  0  0
 73 82  1  0  0  0  0
 74 78  2  0  0  0  0
 74 79  1  0  0  0  0
 74 80  1  0  0  0  0
 75 77  1  0  0  0  0
 75 82  1  0  0  0  0
 75144  1  0  0  0  0
 75145  1  0  0  0  0
 76 77  1  0  0  0  0
 76146  1  0  0  0  0
 76147  1  0  0  0  0
 77 83  1  0  0  0  0
 77148  1  6  0  0  0
 80149  1  0  0  0  0
 80150  1  0  0  0  0
 81151  1  0  0  0  0
 82152  1  0  0  0  0
 83153  1  0  0  0  0
M  ISO  4   1 100  68 101  76 101  81 100
M  END
$$$$
56
 OpenBabel04052305473D

151159  0  0  0  0  0  0  0  0999 V2000
  -30.7652  -14.3608   20.6636 C   0  0  0  0  0  0  0  0  0  0  0  0
  -30.4392  -12.2669   19.3775 C   0  0  0  0  0  0  0  0  0  0  0  0
  -29.4791  -12.5281   18.1977 C   0  0  0  0  0  0  0  0  0  0  0  0
  -27.9985  -12.3963   18.6038 C   0  0  0  0  0  0  0  0  0  0  0  0
  -27.6639  -13.2170   19.8820 C   0  0  2  0  0  0  0  0  0  0  0  0
  -28.6795  -12.9602   21.0279 C   0  0  0  0  0  0  0  0  0  0  0  0
  -25.2633  -13.8245   20.5754 C   0  0  0  0  0  0  0  0  0  0  0  0
  -24.1645  -13.0409   20.9408 C   0  0  0  0  0  0  0  0  0  0  0  0
  -24.6400  -11.7009   20.8697 C   0  0  0  0  0  0  0  0  0  0  0  0
  -23.9005  -10.4085   21.0420 C   0  0  0  0  0  0  0  0  0  0  0  0
  -24.3588   -9.4123   21.9123 C   0  0  0  0  0  0  0  0  0  0  0  0
  -23.6296   -8.2350   22.0803 C   0  0  0  0  0  0  0  0  0  0  0  0
  -22.4385   -8.0419   21.3657 C   0  0  0  0  0  0  0  0  0  0  0  0
  -22.0103   -9.0167   20.4678 C   0  0  0  0  0  0  0  0  0  0  0  0
  -22.7317  -10.1925   20.3102 C   0  0  0  0  0  0  0  0  0  0  0  0
  -21.6857   -6.0709   22.5391 C   0  0  0  0  0  0  0  0  0  0  0  0
  -21.4064   -6.5490   23.8264 C   0  0  0  0  0  0  0  0  0  0  0  0
  -21.3635   -5.6677   24.9085 C   0  0  0  0  0  0  0  0  0  0  0  0
  -21.5973   -4.3067   24.7088 C   0  0  0  0  0  0  0  0  0  0  0  0
  -21.8700   -3.8284   23.4282 C   0  0  0  0  0  0  0  0  0  0  0  0
  -21.9144   -4.7056   22.3460 C   0  0  0  0  0  0  0  0  0  0  0  0
  -22.8194  -13.5263   21.1763 C   0  0  0  0  0  0  0  0  0  0  0  0
  -22.1559   -4.2206   21.1063 F   0  0  0  0  0  0  0  0  0  0  0  0
  -21.5628   -3.4510   25.7555 F   0  0  0  0  0  0  0  0  0  0  0  0
  -30.0261  -13.1803   20.4553 N   0  0  0  0  0  0  0  0  0  0  0  0
  -26.2911  -12.9356   20.3443 N   0  0  0  0  0  0  0  0  0  0  0  0
  -25.9236  -11.6675   20.5847 N   0  0  0  0  0  0  0  0  0  0  0  0
  -22.0708  -12.7905   22.0005 N   0  0  0  0  0  0  0  0  0  0  0  0
  -25.4117  -15.1773   20.4097 N   0  0  0  0  0  0  0  0  0  0  0  0
  -31.7916  -14.6724   20.0536 O   0  0  0  0  0  0  0  0  0  0  0  0
  -21.6670   -6.9022   21.4423 O   0  0  0  0  0  0  0  0  0  0  0  0
  -22.3946  -14.5564   20.6568 O   0  0  0  0  0  0  0  0  0  0  0  0
  -24.6048  -31.8614   23.2223 C   0  0  0  0  0  0  0  0  0  0  0  0
  -25.8822  -32.4841   23.8616 C   0  0  1  0  0  0  0  0  0  0  0  0
  -27.2536  -27.5042   20.1156 C   0  0  0  0  0  0  0  0  0  0  0  0
  -25.5726  -33.8762   24.2210 N   0  0  0  0  0  0  0  0  0  0  0  0
  -23.4066  -30.4859   21.5461 C   0  0  2  0  0  0  0  0  0  0  0  0
  -24.8467  -28.9636   20.1247 C   0  0  0  0  0  0  0  0  0  0  0  0
  -22.7412  -29.4652   22.5052 C   0  0  0  0  0  0  0  0  0  0  0  0
  -18.0167  -28.1302   22.8626 C   0  0  0  0  0  0  0  0  0  0  0  0
  -24.1342  -36.7390   23.2568 C   0  0  0  0  0  0  0  0  0  0  0  0
  -25.9141  -30.8882   21.3456 C   0  0  0  0  0  0  0  0  0  0  0  0
  -25.9930  -29.5029   20.7208 C   0  0  0  0  0  0  0  0  0  0  0  0
  -27.1758  -28.7612   20.7331 C   0  0  0  0  0  0  0  0  0  0  0  0
  -26.1032  -26.9836   19.5230 C   0  0  0  0  0  0  0  0  0  0  0  0
  -24.9097  -27.7011   19.5331 C   0  0  0  0  0  0  0  0  0  0  0  0
  -23.5715  -29.7899   20.1582 C   0  0  0  0  0  0  0  0  0  0  0  0
  -25.3990  -36.3212   24.0232 C   0  0  1  0  0  0  0  0  0  0  0  0
  -20.5793  -28.3813   23.1004 C   0  0  2  0  0  0  0  0  0  0  0  0
  -20.6548  -26.9392   22.5411 C   0  0  0  0  0  0  0  0  0  0  0  0
  -19.5615  -26.6407   21.5143 C   0  0  0  0  0  0  0  0  0  0  0  0
  -18.1797  -26.7818   22.1673 C   0  0  0  0  0  0  0  0  0  0  0  0
  -19.1385  -28.8769   23.2988 C   0  0  0  0  0  0  0  0  0  0  0  0
  -18.9183  -30.1286   23.8878 C   0  0  0  0  0  0  0  0  0  0  0  0
  -17.6396  -30.6493   24.0352 C   0  0  0  0  0  0  0  0  0  0  0  0
  -25.9153  -34.9582   23.4993 C   0  0  0  0  0  0  0  0  0  0  0  0
  -16.5415  -29.9068   23.6254 C   0  0  0  0  0  0  0  0  0  0  0  0
  -16.7331  -28.6521   23.0586 C   0  0  0  0  0  0  0  0  0  0  0  0
  -26.4583  -31.6439   25.0683 C   0  0  0  0  0  0  0  0  0  0  0  0
  -25.3807  -31.3179   26.1374 C   0  0  0  0  0  0  0  0  0  0  0  0
  -27.0530  -30.3024   24.5680 C   0  0  0  0  0  0  0  0  0  0  0  0
  -27.6014  -32.4281   25.7651 C   0  0  0  0  0  0  0  0  0  0  0  0
  -27.5629  -37.2220   24.8621 C   0  0  0  0  0  0  0  0  0  0  0  0
  -21.4133  -29.3375   22.3735 N   0  0  0  0  0  0  0  0  0  0  0  0
  -26.4706  -37.3372   23.9061 N   0  0  0  0  0  0  0  0  0  0  0  0
  -24.6674  -31.0544   22.1178 N   0  0  0  0  0  0  0  0  0  0  0  0
  -23.4259  -28.8150   23.2971 O   0  0  0  0  0  0  0  0  0  0  0  0
  -28.3948  -26.7345   20.0089 O   0  0  0  0  0  0  0  0  0  0  0  0
  -26.5870  -34.9065   22.4671 O   0  0  0  0  0  0  0  0  0  0  0  0
  -23.5365  -32.1254   23.7833 O   0  0  0  0  0  0  0  0  0  0  0  0
  -29.5275  -18.9211   24.7771 C   0  0  0  0  0  0  0  0  0  0  0  0
  -30.3586  -18.1089   24.0136 C   0  0  0  0  0  0  0  0  0  0  0  0
  -28.3196  -19.3626   24.2485 C   0  0  0  0  0  0  0  0  0  0  0  0
  -29.9393  -17.7693   22.7374 C   0  0  0  0  0  0  0  0  0  0  0  0
  -27.9917  -18.9670   22.9618 C   0  0  0  0  0  0  0  0  0  0  0  0
  -30.8068  -16.8992   21.8901 C   0  0  0  0  0  0  0  0  0  0  0  0
  -25.8687  -20.2596   23.1801 C   0  0  0  0  0  0  0  0  0  0  0  0
  -24.6531  -20.5812   22.3269 C   0  0  0  0  0  0  0  0  0  0  0  0
  -28.7731  -18.1789   22.1898 N   0  0  0  0  0  0  0  0  0  0  0  0
  -26.7852  -19.4147   22.4494 N   0  0  0  0  0  0  0  0  0  0  0  0
  -30.1422  -15.6762   21.4987 N   0  0  0  0  0  0  0  0  0  0  0  0
  -31.4485  -12.4701   19.0860 H   0  0  0  0  0  0  0  0  0  0  0  0
  -30.3970  -11.2460   19.6950 H   0  0  0  0  0  0  0  0  0  0  0  0
  -29.6870  -11.8204   17.4226 H   0  0  0  0  0  0  0  0  0  0  0  0
  -29.6375  -13.5326   17.8649 H   0  0  0  0  0  0  0  0  0  0  0  0
  -27.7830  -11.3650   18.7904 H   0  0  0  0  0  0  0  0  0  0  0  0
  -27.4028  -12.7801   17.8021 H   0  0  0  0  0  0  0  0  0  0  0  0
  -27.7353  -14.2503   19.6136 H   0  0  0  0  0  0  0  0  0  0  0  0
  -28.5890  -11.9550   21.3832 H   0  0  0  0  0  0  0  0  0  0  0  0
  -28.5005  -13.6134   21.8562 H   0  0  0  0  0  0  0  0  0  0  0  0
  -25.2399   -9.5495   22.4318 H   0  0  0  0  0  0  0  0  0  0  0  0
  -23.9663   -7.5070   22.7297 H   0  0  0  0  0  0  0  0  0  0  0  0
  -21.1515   -8.8641   19.9162 H   0  0  0  0  0  0  0  0  0  0  0  0
  -22.4016  -10.9115   19.6476 H   0  0  0  0  0  0  0  0  0  0  0  0
  -21.2319   -7.5552   23.9750 H   0  0  0  0  0  0  0  0  0  0  0  0
  -21.1589   -6.0228   25.8556 H   0  0  0  0  0  0  0  0  0  0  0  0
  -22.0396   -2.8212   23.2809 H   0  0  0  0  0  0  0  0  0  0  0  0
  -22.4401  -11.9703   22.4008 H   0  0  0  0  0  0  0  0  0  0  0  0
  -21.1493  -13.0679   22.2082 H   0  0  0  0  0  0  0  0  0  0  0  0
  -24.6538  -15.7807   20.5848 H   0  0  0  0  0  0  0  0  0  0  0  0
  -26.2762  -15.5453   20.1156 H   0  0  0  0  0  0  0  0  0  0  0  0
  -26.6778  -32.4663   23.1464 H   0  0  0  0  0  0  0  0  0  0  0  0
  -25.0747  -34.0282   25.0566 H   0  0  0  0  0  0  0  0  0  0  0  0
  -22.7881  -31.3489   21.4131 H   0  0  0  0  0  0  0  0  0  0  0  0
  -23.3854  -35.9823   23.3648 H   0  0  0  0  0  0  0  0  0  0  0  0
  -24.3696  -36.8624   22.2204 H   0  0  0  0  0  0  0  0  0  0  0  0
  -23.7669  -37.6632   23.6516 H   0  0  0  0  0  0  0  0  0  0  0  0
  -25.9445  -31.6237   20.5691 H   0  0  0  0  0  0  0  0  0  0  0  0
  -26.7436  -31.0079   22.0108 H   0  0  0  0  0  0  0  0  0  0  0  0
  -28.0090  -29.1452   21.2057 H   0  0  0  0  0  0  0  0  0  0  0  0
  -26.1369  -26.0560   19.0719 H   0  0  0  0  0  0  0  0  0  0  0  0
  -24.0652  -27.2961   19.0997 H   0  0  0  0  0  0  0  0  0  0  0  0
  -23.6156  -30.5365   19.3930 H   0  0  0  0  0  0  0  0  0  0  0  0
  -22.7355  -29.1425   19.9945 H   0  0  0  0  0  0  0  0  0  0  0  0
  -25.1353  -36.2335   25.0565 H   0  0  0  0  0  0  0  0  0  0  0  0
  -21.0070  -28.3206   24.0793 H   0  0  0  0  0  0  0  0  0  0  0  0
  -20.5555  -26.2518   23.3550 H   0  0  0  0  0  0  0  0  0  0  0  0
  -21.5974  -26.8362   22.0454 H   0  0  0  0  0  0  0  0  0  0  0  0
  -19.6810  -25.6422   21.1488 H   0  0  0  0  0  0  0  0  0  0  0  0
  -19.6406  -27.3343   20.7034 H   0  0  0  0  0  0  0  0  0  0  0  0
  -17.4282  -26.6888   21.4113 H   0  0  0  0  0  0  0  0  0  0  0  0
  -18.0803  -26.0130   22.9049 H   0  0  0  0  0  0  0  0  0  0  0  0
  -19.7265  -30.6774   24.2204 H   0  0  0  0  0  0  0  0  0  0  0  0
  -17.5064  -31.5856   24.4483 H   0  0  0  0  0  0  0  0  0  0  0  0
  -15.5878  -30.2839   23.7407 H   0  0  0  0  0  0  0  0  0  0  0  0
  -15.9120  -28.0941   22.7766 H   0  0  0  0  0  0  0  0  0  0  0  0
  -24.5787  -30.7757   25.6817 H   0  0  0  0  0  0  0  0  0  0  0  0
  -25.0041  -32.2289   26.5536 H   0  0  0  0  0  0  0  0  0  0  0  0
  -25.8166  -30.7245   26.9138 H   0  0  0  0  0  0  0  0  0  0  0  0
  -26.2892  -29.7335   24.0803 H   0  0  0  0  0  0  0  0  0  0  0  0
  -27.4336  -29.7484   25.4006 H   0  0  0  0  0  0  0  0  0  0  0  0
  -27.8466  -30.4994   23.8779 H   0  0  0  0  0  0  0  0  0  0  0  0
  -27.2251  -33.3632   26.1242 H   0  0  0  0  0  0  0  0  0  0  0  0
  -28.3902  -32.6065   25.0645 H   0  0  0  0  0  0  0  0  0  0  0  0
  -27.9772  -31.8555   26.5872 H   0  0  0  0  0  0  0  0  0  0  0  0
  -28.2744  -38.0016   24.6863 H   0  0  0  0  0  0  0  0  0  0  0  0
  -28.0396  -36.2711   24.7461 H   0  0  0  0  0  0  0  0  0  0  0  0
  -27.1773  -37.3087   25.8564 H   0  0  0  0  0  0  0  0  0  0  0  0
  -20.9627  -29.9365   21.7352 H   0  0  0  0  0  0  0  0  0  0  0  0
  -26.0447  -38.2561   24.0273 H   0  0  0  0  0  0  0  0  0  0  0  0
  -29.8060  -19.1951   25.7323 H   0  0  0  0  0  0  0  0  0  0  0  0
  -31.2594  -17.7697   24.3857 H   0  0  0  0  0  0  0  0  0  0  0  0
  -27.6873  -19.9659   24.7973 H   0  0  0  0  0  0  0  0  0  0  0  0
  -31.6885  -16.6500   22.4427 H   0  0  0  0  0  0  0  0  0  0  0  0
  -31.0443  -17.4422   20.9992 H   0  0  0  0  0  0  0  0  0  0  0  0
  -25.5527  -19.7526   24.0678 H   0  0  0  0  0  0  0  0  0  0  0  0
  -26.3654  -21.1721   23.4360 H   0  0  0  0  0  0  0  0  0  0  0  0
  -23.7589  -20.7822   22.8790 H   0  0  0  0  0  0  0  0  0  0  0  0
  -24.2424  -19.8743   21.6366 H   0  0  0  0  0  0  0  0  0  0  0  0
  -26.5383  -19.1420   21.5362 H   0  0  0  0  0  0  0  0  0  0  0  0
  -29.1949  -15.6056   21.7574 H   0  0  0  0  0  0  0  0  0  0  0  0
  1 25  1  0  0  0  0
  1 30  2  0  0  0  0
  1 81  1  0  0  0  0
  2  3  1  0  0  0  0
  2 25  1  0  0  0  0
  2 82  1  0  0  0  0
  2 83  1  0  0  0  0
  3  4  1  0  0  0  0
  3 84  1  0  0  0  0
  3 85  1  0  0  0  0
  4  5  1  0  0  0  0
  4 86  1  0  0  0  0
  4 87  1  0  0  0  0
  5  6  1  0  0  0  0
  5 26  1  0  0  0  0
  5 88  1  6  0  0  0
  6 25  1  0  0  0  0
  6 89  1  0  0  0  0
  6 90  1  0  0  0  0
  7  8  2  0  0  0  0
  7 26  1  0  0  0  0
  7 29  1  0  0  0  0
  8  9  1  0  0  0  0
  8 22  1  0  0  0  0
  9 10  1  0  0  0  0
  9 27  2  0  0  0  0
 10 11  2  0  0  0  0
 10 15  1  0  0  0  0
 11 12  1  0  0  0  0
 11 91  1  0  0  0  0
 12 13  2  0  0  0  0
 12 92  1  0  0  0  0
 13 14  1  0  0  0  0
 13 31  1  0  0  0  0
 14 15  2  0  0  0  0
 14 93  1  0  0  0  0
 15 94  1  0  0  0  0
 16 17  2  0  0  0  0
 16 21  1  0  0  0  0
 16 31  1  0  0  0  0
 17 18  1  0  0  0  0
 17 95  1  0  0  0  0
 18 19  2  0  0  0  0
 18 96  1  0  0  0  0
 19 20  1  0  0  0  0
 19 24  1  0  0  0  0
 20 21  2  0  0  0  0
 20 97  1  0  0  0  0
 21 23  1  0  0  0  0
 22 28  1  0  0  0  0
 22 32  2  0  0  0  0
 26 27  1  0  0  0  0
 28 98  1  0  0  0  0
 28 99  1  0  0  0  0
 29100  1  0  0  0  0
 29101  1  0  0  0  0
 33 34  1  0  0  0  0
 33 66  1  0  0  0  0
 33 70  2  0  0  0  0
 34 36  1  0  0  0  0
 34 59  1  0  0  0  0
 34102  1  6  0  0  0
 35 44  2  0  0  0  0
 35 45  1  0  0  0  0
 35 68  1  0  0  0  0
 36 56  1  0  0  0  0
 36103  1  0  0  0  0
 37 39  1  0  0  0  0
 37 47  1  0  0  0  0
 37 66  1  0  0  0  0
 37104  1  6  0  0  0
 38 43  2  0  0  0  0
 38 46  1  0  0  0  0
 38 47  1  0  0  0  0
 39 64  1  0  0  0  0
 39 67  2  0  0  0  0
 40 52  1  0  0  0  0
 40 53  2  0  0  0  0
 40 58  1  0  0  0  0
 41105  1  0  0  0  0
 41106  1  0  0  0  0
 41107  1  0  0  0  0
 42 43  1  0  0  0  0
 42 66  1  0  0  0  0
 42108  1  0  0  0  0
 42109  1  0  0  0  0
 43 44  1  0  0  0  0
 44110  1  0  0  0  0
 45 46  2  0  0  0  0
 45111  1  0  0  0  0
 46112  1  0  0  0  0
 47113  1  0  0  0  0
 47114  1  0  0  0  0
 48 41  1  0  0  0  0
 48 56  1  0  0  0  0
 48 65  1  0  0  0  0
 48115  1  1  0  0  0
 49 50  1  0  0  0  0
 49 53  1  0  0  0  0
 49 64  1  0  0  0  0
 49116  1  1  0  0  0
 50 51  1  0  0  0  0
 50117  1  0  0  0  0
 50118  1  0  0  0  0
 51 52  1  0  0  0  0
 51119  1  0  0  0  0
 51120  1  0  0  0  0
 52121  1  0  0  0  0
 52122  1  0  0  0  0
 53 54  1  0  0  0  0
 54 55  2  0  0  0  0
 54123  1  0  0  0  0
 55 57  1  0  0  0  0
 55124  1  0  0  0  0
 56 69  2  0  0  0  0
 57 58  2  0  0  0  0
 57125  1  0  0  0  0
 58126  1  0  0  0  0
 59 60  1  0  0  0  0
 59 61  1  0  0  0  0
 59 62  1  0  0  0  0
 60127  1  0  0  0  0
 60128  1  0  0  0  0
 60129  1  0  0  0  0
 61130  1  0  0  0  0
 61131  1  0  0  0  0
 61132  1  0  0  0  0
 62133  1  0  0  0  0
 62134  1  0  0  0  0
 62135  1  0  0  0  0
 63 65  1  0  0  0  0
 63136  1  0  0  0  0
 63137  1  0  0  0  0
 63138  1  0  0  0  0
 64139  1  0  0  0  0
 65140  1  0  0  0  0
 68 78  1  0  0  0  0
 71 72  2  0  0  0  0
 71 73  1  0  0  0  0
 71141  1  0  0  0  0
 72 74  1  0  0  0  0
 72142  1  0  0  0  0
 73 75  2  0  0  0  0
 73143  1  0  0  0  0
 74 76  1  0  0  0  0
 74 79  2  0  0  0  0
 75 79  1  0  0  0  0
 75 80  1  0  0  0  0
 76 81  1  0  0  0  0
 76144  1  0  0  0  0
 76145  1  0  0  0  0
 77 78  1  0  0  0  0
 77 80  1  0  0  0  0
 77146  1  0  0  0  0
 77147  1  0  0  0  0
 78148  1  0  0  0  0
 78149  1  0  0  0  0
 80150  1  0  0  0  0
 81151  1  0  0  0  0
M  ISO  4   1 100  68 101  78 101  81 100
M  END
$$$$
57
 OpenBabel04052305473D

155163  0  0  0  0  0  0  0  0999 V2000
  -30.7652  -14.3608   20.6636 C   0  0  0  0  0  0  0  0  0  0  0  0
  -30.4392  -12.2669   19.3775 C   0  0  0  0  0  0  0  0  0  0  0  0
  -29.4791  -12.5281   18.1977 C   0  0  0  0  0  0  0  0  0  0  0  0
  -27.9985  -12.3963   18.6038 C   0  0  0  0  0  0  0  0  0  0  0  0
  -27.6639  -13.2170   19.8820 C   0  0  2  0  0  0  0  0  0  0  0  0
  -28.6795  -12.9602   21.0279 C   0  0  0  0  0  0  0  0  0  0  0  0
  -25.2633  -13.8245   20.5754 C   0  0  0  0  0  0  0  0  0  0  0  0
  -24.1645  -13.0409   20.9408 C   0  0  0  0  0  0  0  0  0  0  0  0
  -24.6400  -11.7009   20.8697 C   0  0  0  0  0  0  0  0  0  0  0  0
  -23.9005  -10.4085   21.0420 C   0  0  0  0  0  0  0  0  0  0  0  0
  -24.3588   -9.4123   21.9123 C   0  0  0  0  0  0  0  0  0  0  0  0
  -23.6296   -8.2350   22.0803 C   0  0  0  0  0  0  0  0  0  0  0  0
  -22.4385   -8.0419   21.3657 C   0  0  0  0  0  0  0  0  0  0  0  0
  -22.0103   -9.0167   20.4678 C   0  0  0  0  0  0  0  0  0  0  0  0
  -22.7317  -10.1925   20.3102 C   0  0  0  0  0  0  0  0  0  0  0  0
  -21.6857   -6.0709   22.5391 C   0  0  0  0  0  0  0  0  0  0  0  0
  -21.4064   -6.5490   23.8264 C   0  0  0  0  0  0  0  0  0  0  0  0
  -21.3635   -5.6677   24.9085 C   0  0  0  0  0  0  0  0  0  0  0  0
  -21.5973   -4.3067   24.7088 C   0  0  0  0  0  0  0  0  0  0  0  0
  -21.8700   -3.8284   23.4282 C   0  0  0  0  0  0  0  0  0  0  0  0
  -21.9144   -4.7056   22.3460 C   0  0  0  0  0  0  0  0  0  0  0  0
  -22.8194  -13.5263   21.1763 C   0  0  0  0  0  0  0  0  0  0  0  0
  -22.1559   -4.2206   21.1063 F   0  0  0  0  0  0  0  0  0  0  0  0
  -21.5628   -3.4510   25.7555 F   0  0  0  0  0  0  0  0  0  0  0  0
  -30.0261  -13.1803   20.4553 N   0  0  0  0  0  0  0  0  0  0  0  0
  -26.2911  -12.9356   20.3443 N   0  0  0  0  0  0  0  0  0  0  0  0
  -25.9236  -11.6675   20.5847 N   0  0  0  0  0  0  0  0  0  0  0  0
  -22.0708  -12.7905   22.0005 N   0  0  0  0  0  0  0  0  0  0  0  0
  -25.4117  -15.1773   20.4097 N   0  0  0  0  0  0  0  0  0  0  0  0
  -31.7916  -14.6724   20.0536 O   0  0  0  0  0  0  0  0  0  0  0  0
  -21.6670   -6.9022   21.4423 O   0  0  0  0  0  0  0  0  0  0  0  0
  -22.3946  -14.5564   20.6568 O   0  0  0  0  0  0  0  0  0  0  0  0
  -24.6048  -31.8614   23.2223 C   0  0  0  0  0  0  0  0  0  0  0  0
  -25.8822  -32.4841   23.8616 C   0  0  1  0  0  0  0  0  0  0  0  0
  -27.2536  -27.5042   20.1156 C   0  0  0  0  0  0  0  0  0  0  0  0
  -25.5726  -33.8762   24.2210 N   0  0  0  0  0  0  0  0  0  0  0  0
  -23.4066  -30.4859   21.5461 C   0  0  2  0  0  0  0  0  0  0  0  0
  -24.8467  -28.9636   20.1247 C   0  0  0  0  0  0  0  0  0  0  0  0
  -22.7412  -29.4652   22.5052 C   0  0  0  0  0  0  0  0  0  0  0  0
  -18.0167  -28.1302   22.8626 C   0  0  0  0  0  0  0  0  0  0  0  0
  -24.1342  -36.7390   23.2568 C   0  0  0  0  0  0  0  0  0  0  0  0
  -25.9141  -30.8882   21.3456 C   0  0  0  0  0  0  0  0  0  0  0  0
  -25.9930  -29.5029   20.7208 C   0  0  0  0  0  0  0  0  0  0  0  0
  -27.1758  -28.7612   20.7331 C   0  0  0  0  0  0  0  0  0  0  0  0
  -26.1032  -26.9836   19.5230 C   0  0  0  0  0  0  0  0  0  0  0  0
  -24.9097  -27.7011   19.5331 C   0  0  0  0  0  0  0  0  0  0  0  0
  -23.5715  -29.7899   20.1582 C   0  0  0  0  0  0  0  0  0  0  0  0
  -25.3990  -36.3212   24.0232 C   0  0  1  0  0  0  0  0  0  0  0  0
  -20.5793  -28.3813   23.1004 C   0  0  2  0  0  0  0  0  0  0  0  0
  -20.6548  -26.9392   22.5411 C   0  0  0  0  0  0  0  0  0  0  0  0
  -19.5615  -26.6407   21.5143 C   0  0  0  0  0  0  0  0  0  0  0  0
  -18.1797  -26.7818   22.1673 C   0  0  0  0  0  0  0  0  0  0  0  0
  -19.1385  -28.8769   23.2988 C   0  0  0  0  0  0  0  0  0  0  0  0
  -18.9183  -30.1286   23.8878 C   0  0  0  0  0  0  0  0  0  0  0  0
  -17.6396  -30.6493   24.0352 C   0  0  0  0  0  0  0  0  0  0  0  0
  -25.9153  -34.9582   23.4993 C   0  0  0  0  0  0  0  0  0  0  0  0
  -16.5415  -29.9068   23.6254 C   0  0  0  0  0  0  0  0  0  0  0  0
  -16.7331  -28.6521   23.0586 C   0  0  0  0  0  0  0  0  0  0  0  0
  -26.4583  -31.6439   25.0683 C   0  0  0  0  0  0  0  0  0  0  0  0
  -25.3807  -31.3179   26.1374 C   0  0  0  0  0  0  0  0  0  0  0  0
  -27.0530  -30.3024   24.5680 C   0  0  0  0  0  0  0  0  0  0  0  0
  -27.6014  -32.4281   25.7651 C   0  0  0  0  0  0  0  0  0  0  0  0
  -27.5629  -37.2220   24.8621 C   0  0  0  0  0  0  0  0  0  0  0  0
  -21.4133  -29.3375   22.3735 N   0  0  0  0  0  0  0  0  0  0  0  0
  -26.4706  -37.3372   23.9061 N   0  0  0  0  0  0  0  0  0  0  0  0
  -24.6674  -31.0544   22.1178 N   0  0  0  0  0  0  0  0  0  0  0  0
  -23.4259  -28.8150   23.2971 O   0  0  0  0  0  0  0  0  0  0  0  0
  -28.3948  -26.7345   20.0089 O   0  0  0  0  0  0  0  0  0  0  0  0
  -26.5870  -34.9065   22.4671 O   0  0  0  0  0  0  0  0  0  0  0  0
  -23.5365  -32.1254   23.7833 O   0  0  0  0  0  0  0  0  0  0  0  0
  -28.4451  -21.0955   17.1642 C   0  0  0  0  0  0  0  0  0  0  0  0
  -28.4506  -22.0822   16.1995 C   0  0  0  0  0  0  0  0  0  0  0  0
  -28.9461  -21.4625   18.3964 C   0  0  0  0  0  0  0  0  0  0  0  0
  -29.3699  -23.5685   17.6531 C   0  0  0  0  0  0  0  0  0  0  0  0
  -31.7982  -24.7282   19.3286 C   0  0  0  0  0  0  0  0  0  0  0  0
  -30.3495  -26.7886   19.2914 C   0  0  0  0  0  0  0  0  0  0  0  0
  -28.9389  -27.3642   19.2164 C   0  0  0  0  0  0  0  0  0  0  0  0
  -30.3757  -25.2605   19.1864 C   0  0  1  0  0  0  0  0  0  0  0  0
  -28.9072  -23.3342   16.4103 N   0  0  0  0  0  0  0  0  0  0  0  0
  -29.4187  -22.6948   18.6768 N   0  0  0  0  0  0  0  0  0  0  0  0
  -27.9441  -21.7466   14.9199 N   0  0  0  0  0  0  0  0  0  0  0  0
  -28.9617  -20.4812   19.4185 N   0  0  0  0  0  0  0  0  0  0  0  0
  -29.8458  -24.8427   17.9052 N   0  0  0  0  0  0  0  0  0  0  0  0
  -31.4485  -12.4701   19.0860 H   0  0  0  0  0  0  0  0  0  0  0  0
  -30.3970  -11.2460   19.6950 H   0  0  0  0  0  0  0  0  0  0  0  0
  -29.6870  -11.8204   17.4226 H   0  0  0  0  0  0  0  0  0  0  0  0
  -29.6375  -13.5326   17.8649 H   0  0  0  0  0  0  0  0  0  0  0  0
  -27.7830  -11.3650   18.7904 H   0  0  0  0  0  0  0  0  0  0  0  0
  -27.4028  -12.7801   17.8021 H   0  0  0  0  0  0  0  0  0  0  0  0
  -27.7353  -14.2503   19.6136 H   0  0  0  0  0  0  0  0  0  0  0  0
  -28.5890  -11.9550   21.3832 H   0  0  0  0  0  0  0  0  0  0  0  0
  -28.5005  -13.6134   21.8562 H   0  0  0  0  0  0  0  0  0  0  0  0
  -25.2399   -9.5495   22.4318 H   0  0  0  0  0  0  0  0  0  0  0  0
  -23.9663   -7.5070   22.7297 H   0  0  0  0  0  0  0  0  0  0  0  0
  -21.1515   -8.8641   19.9162 H   0  0  0  0  0  0  0  0  0  0  0  0
  -22.4016  -10.9115   19.6476 H   0  0  0  0  0  0  0  0  0  0  0  0
  -21.2319   -7.5552   23.9750 H   0  0  0  0  0  0  0  0  0  0  0  0
  -21.1589   -6.0228   25.8556 H   0  0  0  0  0  0  0  0  0  0  0  0
  -22.0396   -2.8212   23.2809 H   0  0  0  0  0  0  0  0  0  0  0  0
  -22.4401  -11.9703   22.4008 H   0  0  0  0  0  0  0  0  0  0  0  0
  -21.1493  -13.0679   22.2082 H   0  0  0  0  0  0  0  0  0  0  0  0
  -24.6538  -15.7807   20.5848 H   0  0  0  0  0  0  0  0  0  0  0  0
  -26.2762  -15.5453   20.1156 H   0  0  0  0  0  0  0  0  0  0  0  0
  -26.6778  -32.4663   23.1464 H   0  0  0  0  0  0  0  0  0  0  0  0
  -25.0747  -34.0282   25.0566 H   0  0  0  0  0  0  0  0  0  0  0  0
  -22.7881  -31.3489   21.4131 H   0  0  0  0  0  0  0  0  0  0  0  0
  -23.3854  -35.9823   23.3648 H   0  0  0  0  0  0  0  0  0  0  0  0
  -24.3696  -36.8624   22.2204 H   0  0  0  0  0  0  0  0  0  0  0  0
  -23.7669  -37.6632   23.6516 H   0  0  0  0  0  0  0  0  0  0  0  0
  -25.9445  -31.6237   20.5691 H   0  0  0  0  0  0  0  0  0  0  0  0
  -26.7436  -31.0079   22.0108 H   0  0  0  0  0  0  0  0  0  0  0  0
  -28.0090  -29.1452   21.2057 H   0  0  0  0  0  0  0  0  0  0  0  0
  -26.1369  -26.0560   19.0719 H   0  0  0  0  0  0  0  0  0  0  0  0
  -24.0652  -27.2961   19.0997 H   0  0  0  0  0  0  0  0  0  0  0  0
  -23.6156  -30.5365   19.3930 H   0  0  0  0  0  0  0  0  0  0  0  0
  -22.7355  -29.1425   19.9945 H   0  0  0  0  0  0  0  0  0  0  0  0
  -25.1353  -36.2335   25.0565 H   0  0  0  0  0  0  0  0  0  0  0  0
  -21.0070  -28.3206   24.0793 H   0  0  0  0  0  0  0  0  0  0  0  0
  -20.5555  -26.2518   23.3550 H   0  0  0  0  0  0  0  0  0  0  0  0
  -21.5974  -26.8362   22.0454 H   0  0  0  0  0  0  0  0  0  0  0  0
  -19.6810  -25.6422   21.1488 H   0  0  0  0  0  0  0  0  0  0  0  0
  -19.6406  -27.3343   20.7034 H   0  0  0  0  0  0  0  0  0  0  0  0
  -17.4282  -26.6888   21.4113 H   0  0  0  0  0  0  0  0  0  0  0  0
  -18.0803  -26.0130   22.9049 H   0  0  0  0  0  0  0  0  0  0  0  0
  -19.7265  -30.6774   24.2204 H   0  0  0  0  0  0  0  0  0  0  0  0
  -17.5064  -31.5856   24.4483 H   0  0  0  0  0  0  0  0  0  0  0  0
  -15.5878  -30.2839   23.7407 H   0  0  0  0  0  0  0  0  0  0  0  0
  -15.9120  -28.0941   22.7766 H   0  0  0  0  0  0  0  0  0  0  0  0
  -24.5787  -30.7757   25.6817 H   0  0  0  0  0  0  0  0  0  0  0  0
  -25.0041  -32.2289   26.5536 H   0  0  0  0  0  0  0  0  0  0  0  0
  -25.8166  -30.7245   26.9138 H   0  0  0  0  0  0  0  0  0  0  0  0
  -26.2892  -29.7335   24.0803 H   0  0  0  0  0  0  0  0  0  0  0  0
  -27.4336  -29.7484   25.4006 H   0  0  0  0  0  0  0  0  0  0  0  0
  -27.8466  -30.4994   23.8779 H   0  0  0  0  0  0  0  0  0  0  0  0
  -27.2251  -33.3632   26.1242 H   0  0  0  0  0  0  0  0  0  0  0  0
  -28.3902  -32.6065   25.0645 H   0  0  0  0  0  0  0  0  0  0  0  0
  -27.9772  -31.8555   26.5872 H   0  0  0  0  0  0  0  0  0  0  0  0
  -28.2744  -38.0016   24.6863 H   0  0  0  0  0  0  0  0  0  0  0  0
  -28.0396  -36.2711   24.7461 H   0  0  0  0  0  0  0  0  0  0  0  0
  -27.1773  -37.3087   25.8564 H   0  0  0  0  0  0  0  0  0  0  0  0
  -20.9627  -29.9365   21.7352 H   0  0  0  0  0  0  0  0  0  0  0  0
  -26.0447  -38.2561   24.0273 H   0  0  0  0  0  0  0  0  0  0  0  0
  -28.0895  -20.1451   16.9763 H   0  0  0  0  0  0  0  0  0  0  0  0
  -32.1998  -25.0315   20.2729 H   0  0  0  0  0  0  0  0  0  0  0  0
  -32.4061  -25.1200   18.5401 H   0  0  0  0  0  0  0  0  0  0  0  0
  -31.7865  -23.6597   19.2726 H   0  0  0  0  0  0  0  0  0  0  0  0
  -30.7856  -27.0742   20.2258 H   0  0  0  0  0  0  0  0  0  0  0  0
  -30.8997  -27.1772   18.4601 H   0  0  0  0  0  0  0  0  0  0  0  0
  -28.5110  -27.2262   18.2454 H   0  0  0  0  0  0  0  0  0  0  0  0
  -28.8875  -28.4195   19.3852 H   0  0  0  0  0  0  0  0  0  0  0  0
  -29.7739  -24.8661   19.9783 H   0  0  0  0  0  0  0  0  0  0  0  0
  -27.6065  -20.8381   14.7469 H   0  0  0  0  0  0  0  0  0  0  0  0
  -27.9297  -22.4218   14.2036 H   0  0  0  0  0  0  0  0  0  0  0  0
  -28.5539  -20.8623   20.2295 H   0  0  0  0  0  0  0  0  0  0  0  0
  -29.8230  -25.5013   17.1738 H   0  0  0  0  0  0  0  0  0  0  0  0
  1 25  1  0  0  0  0
  1 30  2  0  0  0  0
  1 82  1  0  0  0  0
  2  3  1  0  0  0  0
  2 25  1  0  0  0  0
  2 84  1  0  0  0  0
  2 85  1  0  0  0  0
  3  4  1  0  0  0  0
  3 86  1  0  0  0  0
  3 87  1  0  0  0  0
  4  5  1  0  0  0  0
  4 88  1  0  0  0  0
  4 89  1  0  0  0  0
  5  6  1  0  0  0  0
  5 26  1  0  0  0  0
  5 90  1  6  0  0  0
  6 25  1  0  0  0  0
  6 91  1  0  0  0  0
  6 92  1  0  0  0  0
  7  8  2  0  0  0  0
  7 26  1  0  0  0  0
  7 29  1  0  0  0  0
  8  9  1  0  0  0  0
  8 22  1  0  0  0  0
  9 10  1  0  0  0  0
  9 27  2  0  0  0  0
 10 11  2  0  0  0  0
 10 15  1  0  0  0  0
 11 12  1  0  0  0  0
 11 93  1  0  0  0  0
 12 13  2  0  0  0  0
 12 94  1  0  0  0  0
 13 14  1  0  0  0  0
 13 31  1  0  0  0  0
 14 15  2  0  0  0  0
 14 95  1  0  0  0  0
 15 96  1  0  0  0  0
 16 17  2  0  0  0  0
 16 21  1  0  0  0  0
 16 31  1  0  0  0  0
 17 18  1  0  0  0  0
 17 97  1  0  0  0  0
 18 19  2  0  0  0  0
 18 98  1  0  0  0  0
 19 20  1  0  0  0  0
 19 24  1  0  0  0  0
 20 21  2  0  0  0  0
 20 99  1  0  0  0  0
 21 23  1  0  0  0  0
 22 28  1  0  0  0  0
 22 32  2  0  0  0  0
 26 27  1  0  0  0  0
 28100  1  0  0  0  0
 28101  1  0  0  0  0
 29102  1  0  0  0  0
 29103  1  0  0  0  0
 33 34  1  0  0  0  0
 33 66  1  0  0  0  0
 33 70  2  0  0  0  0
 34 36  1  0  0  0  0
 34 59  1  0  0  0  0
 34104  1  6  0  0  0
 35 44  2  0  0  0  0
 35 45  1  0  0  0  0
 35 68  1  0  0  0  0
 36 56  1  0  0  0  0
 36105  1  0  0  0  0
 37 39  1  0  0  0  0
 37 47  1  0  0  0  0
 37 66  1  0  0  0  0
 37106  1  6  0  0  0
 38 43  2  0  0  0  0
 38 46  1  0  0  0  0
 38 47  1  0  0  0  0
 39 64  1  0  0  0  0
 39 67  2  0  0  0  0
 40 52  1  0  0  0  0
 40 53  2  0  0  0  0
 40 58  1  0  0  0  0
 41107  1  0  0  0  0
 41108  1  0  0  0  0
 41109  1  0  0  0  0
 42 43  1  0  0  0  0
 42 66  1  0  0  0  0
 42110  1  0  0  0  0
 42111  1  0  0  0  0
 43 44  1  0  0  0  0
 44112  1  0  0  0  0
 45 46  2  0  0  0  0
 45113  1  0  0  0  0
 46114  1  0  0  0  0
 47115  1  0  0  0  0
 47116  1  0  0  0  0
 48 41  1  0  0  0  0
 48 56  1  0  0  0  0
 48 65  1  0  0  0  0
 48117  1  1  0  0  0
 49 50  1  0  0  0  0
 49 53  1  0  0  0  0
 49 64  1  0  0  0  0
 49118  1  1  0  0  0
 50 51  1  0  0  0  0
 50119  1  0  0  0  0
 50120  1  0  0  0  0
 51 52  1  0  0  0  0
 51121  1  0  0  0  0
 51122  1  0  0  0  0
 52123  1  0  0  0  0
 52124  1  0  0  0  0
 53 54  1  0  0  0  0
 54 55  2  0  0  0  0
 54125  1  0  0  0  0
 55 57  1  0  0  0  0
 55126  1  0  0  0  0
 56 69  2  0  0  0  0
 57 58  2  0  0  0  0
 57127  1  0  0  0  0
 58128  1  0  0  0  0
 59 60  1  0  0  0  0
 59 61  1  0  0  0  0
 59 62  1  0  0  0  0
 60129  1  0  0  0  0
 60130  1  0  0  0  0
 60131  1  0  0  0  0
 61132  1  0  0  0  0
 61133  1  0  0  0  0
 61134  1  0  0  0  0
 62135  1  0  0  0  0
 62136  1  0  0  0  0
 62137  1  0  0  0  0
 63 65  1  0  0  0  0
 63138  1  0  0  0  0
 63139  1  0  0  0  0
 63140  1  0  0  0  0
 64141  1  0  0  0  0
 65142  1  0  0  0  0
 68 77  1  0  0  0  0
 71 72  2  0  0  0  0
 71 73  1  0  0  0  0
 71143  1  0  0  0  0
 72 79  1  0  0  0  0
 72 81  1  0  0  0  0
 73 80  2  0  0  0  0
 73 82  1  0  0  0  0
 74 79  2  0  0  0  0
 74 80  1  0  0  0  0
 74 83  1  0  0  0  0
 75144  1  0  0  0  0
 75145  1  0  0  0  0
 75146  1  0  0  0  0
 76 77  1  0  0  0  0
 76 78  1  0  0  0  0
 76147  1  0  0  0  0
 76148  1  0  0  0  0
 77149  1  0  0  0  0
 77150  1  0  0  0  0
 78 75  1  0  0  0  0
 78 83  1  0  0  0  0
 78151  1  1  0  0  0
 81152  1  0  0  0  0
 81153  1  0  0  0  0
 82154  1  0  0  0  0
 83155  1  0  0  0  0
M  ISO  4   1 100  68 101  77 101  82 100
M  END
$$$$
58
 OpenBabel04052305473D

155163  0  0  0  0  0  0  0  0999 V2000
  -30.7652  -14.3608   20.6636 C   0  0  0  0  0  0  0  0  0  0  0  0
  -30.4392  -12.2669   19.3775 C   0  0  0  0  0  0  0  0  0  0  0  0
  -29.4791  -12.5281   18.1977 C   0  0  0  0  0  0  0  0  0  0  0  0
  -27.9985  -12.3963   18.6038 C   0  0  0  0  0  0  0  0  0  0  0  0
  -27.6639  -13.2170   19.8820 C   0  0  2  0  0  0  0  0  0  0  0  0
  -28.6795  -12.9602   21.0279 C   0  0  0  0  0  0  0  0  0  0  0  0
  -25.2633  -13.8245   20.5754 C   0  0  0  0  0  0  0  0  0  0  0  0
  -24.1645  -13.0409   20.9408 C   0  0  0  0  0  0  0  0  0  0  0  0
  -24.6400  -11.7009   20.8697 C   0  0  0  0  0  0  0  0  0  0  0  0
  -23.9005  -10.4085   21.0420 C   0  0  0  0  0  0  0  0  0  0  0  0
  -24.3588   -9.4123   21.9123 C   0  0  0  0  0  0  0  0  0  0  0  0
  -23.6296   -8.2350   22.0803 C   0  0  0  0  0  0  0  0  0  0  0  0
  -22.4385   -8.0419   21.3657 C   0  0  0  0  0  0  0  0  0  0  0  0
  -22.0103   -9.0167   20.4678 C   0  0  0  0  0  0  0  0  0  0  0  0
  -22.7317  -10.1925   20.3102 C   0  0  0  0  0  0  0  0  0  0  0  0
  -21.6857   -6.0709   22.5391 C   0  0  0  0  0  0  0  0  0  0  0  0
  -21.4064   -6.5490   23.8264 C   0  0  0  0  0  0  0  0  0  0  0  0
  -21.3635   -5.6677   24.9085 C   0  0  0  0  0  0  0  0  0  0  0  0
  -21.5973   -4.3067   24.7088 C   0  0  0  0  0  0  0  0  0  0  0  0
  -21.8700   -3.8284   23.4282 C   0  0  0  0  0  0  0  0  0  0  0  0
  -21.9144   -4.7056   22.3460 C   0  0  0  0  0  0  0  0  0  0  0  0
  -22.8194  -13.5263   21.1763 C   0  0  0  0  0  0  0  0  0  0  0  0
  -22.1559   -4.2206   21.1063 F   0  0  0  0  0  0  0  0  0  0  0  0
  -21.5628   -3.4510   25.7555 F   0  0  0  0  0  0  0  0  0  0  0  0
  -30.0261  -13.1803   20.4553 N   0  0  0  0  0  0  0  0  0  0  0  0
  -26.2911  -12.9356   20.3443 N   0  0  0  0  0  0  0  0  0  0  0  0
  -25.9236  -11.6675   20.5847 N   0  0  0  0  0  0  0  0  0  0  0  0
  -22.0708  -12.7905   22.0005 N   0  0  0  0  0  0  0  0  0  0  0  0
  -25.4117  -15.1773   20.4097 N   0  0  0  0  0  0  0  0  0  0  0  0
  -31.7916  -14.6724   20.0536 O   0  0  0  0  0  0  0  0  0  0  0  0
  -21.6670   -6.9022   21.4423 O   0  0  0  0  0  0  0  0  0  0  0  0
  -22.3946  -14.5564   20.6568 O   0  0  0  0  0  0  0  0  0  0  0  0
  -24.6048  -31.8614   23.2223 C   0  0  0  0  0  0  0  0  0  0  0  0
  -25.8822  -32.4841   23.8616 C   0  0  1  0  0  0  0  0  0  0  0  0
  -27.2536  -27.5042   20.1156 C   0  0  0  0  0  0  0  0  0  0  0  0
  -25.5726  -33.8762   24.2210 N   0  0  0  0  0  0  0  0  0  0  0  0
  -23.4066  -30.4859   21.5461 C   0  0  2  0  0  0  0  0  0  0  0  0
  -24.8467  -28.9636   20.1247 C   0  0  0  0  0  0  0  0  0  0  0  0
  -22.7412  -29.4652   22.5052 C   0  0  0  0  0  0  0  0  0  0  0  0
  -18.0167  -28.1302   22.8626 C   0  0  0  0  0  0  0  0  0  0  0  0
  -24.1342  -36.7390   23.2568 C   0  0  0  0  0  0  0  0  0  0  0  0
  -25.9141  -30.8882   21.3456 C   0  0  0  0  0  0  0  0  0  0  0  0
  -25.9930  -29.5029   20.7208 C   0  0  0  0  0  0  0  0  0  0  0  0
  -27.1758  -28.7612   20.7331 C   0  0  0  0  0  0  0  0  0  0  0  0
  -26.1032  -26.9836   19.5230 C   0  0  0  0  0  0  0  0  0  0  0  0
  -24.9097  -27.7011   19.5331 C   0  0  0  0  0  0  0  0  0  0  0  0
  -23.5715  -29.7899   20.1582 C   0  0  0  0  0  0  0  0  0  0  0  0
  -25.3990  -36.3212   24.0232 C   0  0  1  0  0  0  0  0  0  0  0  0
  -20.5793  -28.3813   23.1004 C   0  0  2  0  0  0  0  0  0  0  0  0
  -20.6548  -26.9392   22.5411 C   0  0  0  0  0  0  0  0  0  0  0  0
  -19.5615  -26.6407   21.5143 C   0  0  0  0  0  0  0  0  0  0  0  0
  -18.1797  -26.7818   22.1673 C   0  0  0  0  0  0  0  0  0  0  0  0
  -19.1385  -28.8769   23.2988 C   0  0  0  0  0  0  0  0  0  0  0  0
  -18.9183  -30.1286   23.8878 C   0  0  0  0  0  0  0  0  0  0  0  0
  -17.6396  -30.6493   24.0352 C   0  0  0  0  0  0  0  0  0  0  0  0
  -25.9153  -34.9582   23.4993 C   0  0  0  0  0  0  0  0  0  0  0  0
  -16.5415  -29.9068   23.6254 C   0  0  0  0  0  0  0  0  0  0  0  0
  -16.7331  -28.6521   23.0586 C   0  0  0  0  0  0  0  0  0  0  0  0
  -26.4583  -31.6439   25.0683 C   0  0  0  0  0  0  0  0  0  0  0  0
  -25.3807  -31.3179   26.1374 C   0  0  0  0  0  0  0  0  0  0  0  0
  -27.0530  -30.3024   24.5680 C   0  0  0  0  0  0  0  0  0  0  0  0
  -27.6014  -32.4281   25.7651 C   0  0  0  0  0  0  0  0  0  0  0  0
  -27.5629  -37.2220   24.8621 C   0  0  0  0  0  0  0  0  0  0  0  0
  -21.4133  -29.3375   22.3735 N   0  0  0  0  0  0  0  0  0  0  0  0
  -26.4706  -37.3372   23.9061 N   0  0  0  0  0  0  0  0  0  0  0  0
  -24.6674  -31.0544   22.1178 N   0  0  0  0  0  0  0  0  0  0  0  0
  -23.4259  -28.8150   23.2971 O   0  0  0  0  0  0  0  0  0  0  0  0
  -28.3948  -26.7345   20.0089 O   0  0  0  0  0  0  0  0  0  0  0  0
  -26.5870  -34.9065   22.4671 O   0  0  0  0  0  0  0  0  0  0  0  0
  -23.5365  -32.1254   23.7833 O   0  0  0  0  0  0  0  0  0  0  0  0
  -29.4944  -20.3264   21.1053 C   0  0  0  0  0  0  0  0  0  0  0  0
  -28.0151  -18.5872   19.6922 C   0  0  0  0  0  0  0  0  0  0  0  0
  -28.3552  -18.3616   21.0104 C   0  0  0  0  0  0  0  0  0  0  0  0
  -28.4847  -19.7650   19.1476 C   0  0  0  0  0  0  0  0  0  0  0  0
  -30.0752  -21.0905   16.7472 C   0  0  0  0  0  0  0  0  0  0  0  0
  -27.7323  -21.5093   15.9221 C   0  0  0  0  0  0  0  0  0  0  0  0
  -26.2677  -21.7405   16.2806 C   0  0  0  0  0  0  0  0  0  0  0  0
  -28.6128  -21.2537   17.1494 C   0  0  1  0  0  0  0  0  0  0  0  0
  -29.0962  -19.2129   21.7497 N   0  0  0  0  0  0  0  0  0  0  0  0
  -29.2296  -20.6609   19.8280 N   0  0  0  0  0  0  0  0  0  0  0  0
  -27.2431  -17.6766   18.9526 N   0  0  0  0  0  0  0  0  0  0  0  0
  -27.9071  -17.1721   21.6367 N   0  0  0  0  0  0  0  0  0  0  0  0
  -28.1777  -20.0516   17.8296 N   0  0  0  0  0  0  0  0  0  0  0  0
  -31.4485  -12.4701   19.0860 H   0  0  0  0  0  0  0  0  0  0  0  0
  -30.3970  -11.2460   19.6950 H   0  0  0  0  0  0  0  0  0  0  0  0
  -29.6870  -11.8204   17.4226 H   0  0  0  0  0  0  0  0  0  0  0  0
  -29.6375  -13.5326   17.8649 H   0  0  0  0  0  0  0  0  0  0  0  0
  -27.7830  -11.3650   18.7904 H   0  0  0  0  0  0  0  0  0  0  0  0
  -27.4028  -12.7801   17.8021 H   0  0  0  0  0  0  0  0  0  0  0  0
  -27.7353  -14.2503   19.6136 H   0  0  0  0  0  0  0  0  0  0  0  0
  -28.5890  -11.9550   21.3832 H   0  0  0  0  0  0  0  0  0  0  0  0
  -28.5005  -13.6134   21.8562 H   0  0  0  0  0  0  0  0  0  0  0  0
  -25.2399   -9.5495   22.4318 H   0  0  0  0  0  0  0  0  0  0  0  0
  -23.9663   -7.5070   22.7297 H   0  0  0  0  0  0  0  0  0  0  0  0
  -21.1515   -8.8641   19.9162 H   0  0  0  0  0  0  0  0  0  0  0  0
  -22.4016  -10.9115   19.6476 H   0  0  0  0  0  0  0  0  0  0  0  0
  -21.2319   -7.5552   23.9750 H   0  0  0  0  0  0  0  0  0  0  0  0
  -21.1589   -6.0228   25.8556 H   0  0  0  0  0  0  0  0  0  0  0  0
  -22.0396   -2.8212   23.2809 H   0  0  0  0  0  0  0  0  0  0  0  0
  -22.4401  -11.9703   22.4008 H   0  0  0  0  0  0  0  0  0  0  0  0
  -21.1493  -13.0679   22.2082 H   0  0  0  0  0  0  0  0  0  0  0  0
  -24.6538  -15.7807   20.5848 H   0  0  0  0  0  0  0  0  0  0  0  0
  -26.2762  -15.5453   20.1156 H   0  0  0  0  0  0  0  0  0  0  0  0
  -26.6778  -32.4663   23.1464 H   0  0  0  0  0  0  0  0  0  0  0  0
  -25.0747  -34.0282   25.0566 H   0  0  0  0  0  0  0  0  0  0  0  0
  -22.7881  -31.3489   21.4131 H   0  0  0  0  0  0  0  0  0  0  0  0
  -23.3854  -35.9823   23.3648 H   0  0  0  0  0  0  0  0  0  0  0  0
  -24.3696  -36.8624   22.2204 H   0  0  0  0  0  0  0  0  0  0  0  0
  -23.7669  -37.6632   23.6516 H   0  0  0  0  0  0  0  0  0  0  0  0
  -25.9445  -31.6237   20.5691 H   0  0  0  0  0  0  0  0  0  0  0  0
  -26.7436  -31.0079   22.0108 H   0  0  0  0  0  0  0  0  0  0  0  0
  -28.0090  -29.1452   21.2057 H   0  0  0  0  0  0  0  0  0  0  0  0
  -26.1369  -26.0560   19.0719 H   0  0  0  0  0  0  0  0  0  0  0  0
  -24.0652  -27.2961   19.0997 H   0  0  0  0  0  0  0  0  0  0  0  0
  -23.6156  -30.5365   19.3930 H   0  0  0  0  0  0  0  0  0  0  0  0
  -22.7355  -29.1425   19.9945 H   0  0  0  0  0  0  0  0  0  0  0  0
  -25.1353  -36.2335   25.0565 H   0  0  0  0  0  0  0  0  0  0  0  0
  -21.0070  -28.3206   24.0793 H   0  0  0  0  0  0  0  0  0  0  0  0
  -20.5555  -26.2518   23.3550 H   0  0  0  0  0  0  0  0  0  0  0  0
  -21.5974  -26.8362   22.0454 H   0  0  0  0  0  0  0  0  0  0  0  0
  -19.6810  -25.6422   21.1488 H   0  0  0  0  0  0  0  0  0  0  0  0
  -19.6406  -27.3343   20.7034 H   0  0  0  0  0  0  0  0  0  0  0  0
  -17.4282  -26.6888   21.4113 H   0  0  0  0  0  0  0  0  0  0  0  0
  -18.0803  -26.0130   22.9049 H   0  0  0  0  0  0  0  0  0  0  0  0
  -19.7265  -30.6774   24.2204 H   0  0  0  0  0  0  0  0  0  0  0  0
  -17.5064  -31.5856   24.4483 H   0  0  0  0  0  0  0  0  0  0  0  0
  -15.5878  -30.2839   23.7407 H   0  0  0  0  0  0  0  0  0  0  0  0
  -15.9120  -28.0941   22.7766 H   0  0  0  0  0  0  0  0  0  0  0  0
  -24.5787  -30.7757   25.6817 H   0  0  0  0  0  0  0  0  0  0  0  0
  -25.0041  -32.2289   26.5536 H   0  0  0  0  0  0  0  0  0  0  0  0
  -25.8166  -30.7245   26.9138 H   0  0  0  0  0  0  0  0  0  0  0  0
  -26.2892  -29.7335   24.0803 H   0  0  0  0  0  0  0  0  0  0  0  0
  -27.4336  -29.7484   25.4006 H   0  0  0  0  0  0  0  0  0  0  0  0
  -27.8466  -30.4994   23.8779 H   0  0  0  0  0  0  0  0  0  0  0  0
  -27.2251  -33.3632   26.1242 H   0  0  0  0  0  0  0  0  0  0  0  0
  -28.3902  -32.6065   25.0645 H   0  0  0  0  0  0  0  0  0  0  0  0
  -27.9772  -31.8555   26.5872 H   0  0  0  0  0  0  0  0  0  0  0  0
  -28.2744  -38.0016   24.6863 H   0  0  0  0  0  0  0  0  0  0  0  0
  -28.0396  -36.2711   24.7461 H   0  0  0  0  0  0  0  0  0  0  0  0
  -27.1773  -37.3087   25.8564 H   0  0  0  0  0  0  0  0  0  0  0  0
  -20.9627  -29.9365   21.7352 H   0  0  0  0  0  0  0  0  0  0  0  0
  -26.0447  -38.2561   24.0273 H   0  0  0  0  0  0  0  0  0  0  0  0
  -30.0632  -20.9947   21.6483 H   0  0  0  0  0  0  0  0  0  0  0  0
  -30.4072  -21.9741   16.2433 H   0  0  0  0  0  0  0  0  0  0  0  0
  -30.1736  -20.2489   16.0938 H   0  0  0  0  0  0  0  0  0  0  0  0
  -30.6705  -20.9340   17.6224 H   0  0  0  0  0  0  0  0  0  0  0  0
  -28.0999  -22.3753   15.4124 H   0  0  0  0  0  0  0  0  0  0  0  0
  -27.7782  -20.6356   15.3061 H   0  0  0  0  0  0  0  0  0  0  0  0
  -25.8047  -20.9410   16.8204 H   0  0  0  0  0  0  0  0  0  0  0  0
  -25.5097  -21.8656   15.5358 H   0  0  0  0  0  0  0  0  0  0  0  0
  -28.5214  -22.0973   17.8012 H   0  0  0  0  0  0  0  0  0  0  0  0
  -26.9247  -16.8455   19.3735 H   0  0  0  0  0  0  0  0  0  0  0  0
  -27.0203  -17.8693   18.0132 H   0  0  0  0  0  0  0  0  0  0  0  0
  -27.0967  -17.0452   22.1811 H   0  0  0  0  0  0  0  0  0  0  0  0
  -27.6339  -19.4031   17.3267 H   0  0  0  0  0  0  0  0  0  0  0  0
  1 25  1  0  0  0  0
  1 30  2  0  0  0  0
  1 82  1  0  0  0  0
  2  3  1  0  0  0  0
  2 25  1  0  0  0  0
  2 84  1  0  0  0  0
  2 85  1  0  0  0  0
  3  4  1  0  0  0  0
  3 86  1  0  0  0  0
  3 87  1  0  0  0  0
  4  5  1  0  0  0  0
  4 88  1  0  0  0  0
  4 89  1  0  0  0  0
  5  6  1  0  0  0  0
  5 26  1  0  0  0  0
  5 90  1  6  0  0  0
  6 25  1  0  0  0  0
  6 91  1  0  0  0  0
  6 92  1  0  0  0  0
  7  8  2  0  0  0  0
  7 26  1  0  0  0  0
  7 29  1  0  0  0  0
  8  9  1  0  0  0  0
  8 22  1  0  0  0  0
  9 10  1  0  0  0  0
  9 27  2  0  0  0  0
 10 11  2  0  0  0  0
 10 15  1  0  0  0  0
 11 12  1  0  0  0  0
 11 93  1  0  0  0  0
 12 13  2  0  0  0  0
 12 94  1  0  0  0  0
 13 14  1  0  0  0  0
 13 31  1  0  0  0  0
 14 15  2  0  0  0  0
 14 95  1  0  0  0  0
 15 96  1  0  0  0  0
 16 17  2  0  0  0  0
 16 21  1  0  0  0  0
 16 31  1  0  0  0  0
 17 18  1  0  0  0  0
 17 97  1  0  0  0  0
 18 19  2  0  0  0  0
 18 98  1  0  0  0  0
 19 20  1  0  0  0  0
 19 24  1  0  0  0  0
 20 21  2  0  0  0  0
 20 99  1  0  0  0  0
 21 23  1  0  0  0  0
 22 28  1  0  0  0  0
 22 32  2  0  0  0  0
 26 27  1  0  0  0  0
 28100  1  0  0  0  0
 28101  1  0  0  0  0
 29102  1  0  0  0  0
 29103  1  0  0  0  0
 33 34  1  0  0  0  0
 33 66  1  0  0  0  0
 33 70  2  0  0  0  0
 34 36  1  0  0  0  0
 34 59  1  0  0  0  0
 34104  1  6  0  0  0
 35 44  2  0  0  0  0
 35 45  1  0  0  0  0
 35 68  1  0  0  0  0
 36 56  1  0  0  0  0
 36105  1  0  0  0  0
 37 39  1  0  0  0  0
 37 47  1  0  0  0  0
 37 66  1  0  0  0  0
 37106  1  6  0  0  0
 38 43  2  0  0  0  0
 38 46  1  0  0  0  0
 38 47  1  0  0  0  0
 39 64  1  0  0  0  0
 39 67  2  0  0  0  0
 40 52  1  0  0  0  0
 40 53  2  0  0  0  0
 40 58  1  0  0  0  0
 41107  1  0  0  0  0
 41108  1  0  0  0  0
 41109  1  0  0  0  0
 42 43  1  0  0  0  0
 42 66  1  0  0  0  0
 42110  1  0  0  0  0
 42111  1  0  0  0  0
 43 44  1  0  0  0  0
 44112  1  0  0  0  0
 45 46  2  0  0  0  0
 45113  1  0  0  0  0
 46114  1  0  0  0  0
 47115  1  0  0  0  0
 47116  1  0  0  0  0
 48 41  1  0  0  0  0
 48 56  1  0  0  0  0
 48 65  1  0  0  0  0
 48117  1  1  0  0  0
 49 50  1  0  0  0  0
 49 53  1  0  0  0  0
 49 64  1  0  0  0  0
 49118  1  1  0  0  0
 50 51  1  0  0  0  0
 50119  1  0  0  0  0
 50120  1  0  0  0  0
 51 52  1  0  0  0  0
 51121  1  0  0  0  0
 51122  1  0  0  0  0
 52123  1  0  0  0  0
 52124  1  0  0  0  0
 53 54  1  0  0  0  0
 54 55  2  0  0  0  0
 54125  1  0  0  0  0
 55 57  1  0  0  0  0
 55126  1  0  0  0  0
 56 69  2  0  0  0  0
 57 58  2  0  0  0  0
 57127  1  0  0  0  0
 58128  1  0  0  0  0
 59 60  1  0  0  0  0
 59 61  1  0  0  0  0
 59 62  1  0  0  0  0
 60129  1  0  0  0  0
 60130  1  0  0  0  0
 60131  1  0  0  0  0
 61132  1  0  0  0  0
 61133  1  0  0  0  0
 61134  1  0  0  0  0
 62135  1  0  0  0  0
 62136  1  0  0  0  0
 62137  1  0  0  0  0
 63 65  1  0  0  0  0
 63138  1  0  0  0  0
 63139  1  0  0  0  0
 63140  1  0  0  0  0
 64141  1  0  0  0  0
 65142  1  0  0  0  0
 68 77  1  0  0  0  0
 71 79  2  0  0  0  0
 71 80  1  0  0  0  0
 71143  1  0  0  0  0
 72 73  2  0  0  0  0
 72 74  1  0  0  0  0
 72 81  1  0  0  0  0
 73 79  1  0  0  0  0
 73 82  1  0  0  0  0
 74 80  2  0  0  0  0
 74 83  1  0  0  0  0
 75144  1  0  0  0  0
 75145  1  0  0  0  0
 75146  1  0  0  0  0
 76 77  1  0  0  0  0
 76 78  1  0  0  0  0
 76147  1  0  0  0  0
 76148  1  0  0  0  0
 77149  1  0  0  0  0
 77150  1  0  0  0  0
 78 75  1  0  0  0  0
 78 83  1  0  0  0  0
 78151  1  1  0  0  0
 81152  1  0  0  0  0
 81153  1  0  0  0  0
 82154  1  0  0  0  0
 83155  1  0  0  0  0
M  ISO  4   1 100  68 101  77 101  82 100
M  END
$$$$
59
 OpenBabel04052305473D

159167  0  0  0  0  0  0  0  0999 V2000
  -30.7652  -14.3608   20.6636 C   0  0  0  0  0  0  0  0  0  0  0  0
  -30.4392  -12.2669   19.3775 C   0  0  0  0  0  0  0  0  0  0  0  0
  -29.4791  -12.5281   18.1977 C   0  0  0  0  0  0  0  0  0  0  0  0
  -27.9985  -12.3963   18.6038 C   0  0  0  0  0  0  0  0  0  0  0  0
  -27.6639  -13.2170   19.8820 C   0  0  2  0  0  0  0  0  0  0  0  0
  -28.6795  -12.9602   21.0279 C   0  0  0  0  0  0  0  0  0  0  0  0
  -25.2633  -13.8245   20.5754 C   0  0  0  0  0  0  0  0  0  0  0  0
  -24.1645  -13.0409   20.9408 C   0  0  0  0  0  0  0  0  0  0  0  0
  -24.6400  -11.7009   20.8697 C   0  0  0  0  0  0  0  0  0  0  0  0
  -23.9005  -10.4085   21.0420 C   0  0  0  0  0  0  0  0  0  0  0  0
  -24.3588   -9.4123   21.9123 C   0  0  0  0  0  0  0  0  0  0  0  0
  -23.6296   -8.2350   22.0803 C   0  0  0  0  0  0  0  0  0  0  0  0
  -22.4385   -8.0419   21.3657 C   0  0  0  0  0  0  0  0  0  0  0  0
  -22.0103   -9.0167   20.4678 C   0  0  0  0  0  0  0  0  0  0  0  0
  -22.7317  -10.1925   20.3102 C   0  0  0  0  0  0  0  0  0  0  0  0
  -21.6857   -6.0709   22.5391 C   0  0  0  0  0  0  0  0  0  0  0  0
  -21.4064   -6.5490   23.8264 C   0  0  0  0  0  0  0  0  0  0  0  0
  -21.3635   -5.6677   24.9085 C   0  0  0  0  0  0  0  0  0  0  0  0
  -21.5973   -4.3067   24.7088 C   0  0  0  0  0  0  0  0  0  0  0  0
  -21.8700   -3.8284   23.4282 C   0  0  0  0  0  0  0  0  0  0  0  0
  -21.9144   -4.7056   22.3460 C   0  0  0  0  0  0  0  0  0  0  0  0
  -22.8194  -13.5263   21.1763 C   0  0  0  0  0  0  0  0  0  0  0  0
  -22.1559   -4.2206   21.1063 F   0  0  0  0  0  0  0  0  0  0  0  0
  -21.5628   -3.4510   25.7555 F   0  0  0  0  0  0  0  0  0  0  0  0
  -30.0261  -13.1803   20.4553 N   0  0  0  0  0  0  0  0  0  0  0  0
  -26.2911  -12.9356   20.3443 N   0  0  0  0  0  0  0  0  0  0  0  0
  -25.9236  -11.6675   20.5847 N   0  0  0  0  0  0  0  0  0  0  0  0
  -22.0708  -12.7905   22.0005 N   0  0  0  0  0  0  0  0  0  0  0  0
  -25.4117  -15.1773   20.4097 N   0  0  0  0  0  0  0  0  0  0  0  0
  -31.7916  -14.6724   20.0536 O   0  0  0  0  0  0  0  0  0  0  0  0
  -21.6670   -6.9022   21.4423 O   0  0  0  0  0  0  0  0  0  0  0  0
  -22.3946  -14.5564   20.6568 O   0  0  0  0  0  0  0  0  0  0  0  0
  -24.6048  -31.8614   23.2223 C   0  0  0  0  0  0  0  0  0  0  0  0
  -25.8822  -32.4841   23.8616 C   0  0  1  0  0  0  0  0  0  0  0  0
  -27.2536  -27.5042   20.1156 C   0  0  0  0  0  0  0  0  0  0  0  0
  -25.5726  -33.8762   24.2210 N   0  0  0  0  0  0  0  0  0  0  0  0
  -23.4066  -30.4859   21.5461 C   0  0  2  0  0  0  0  0  0  0  0  0
  -24.8467  -28.9636   20.1247 C   0  0  0  0  0  0  0  0  0  0  0  0
  -22.7412  -29.4652   22.5052 C   0  0  0  0  0  0  0  0  0  0  0  0
  -18.0167  -28.1302   22.8626 C   0  0  0  0  0  0  0  0  0  0  0  0
  -24.1342  -36.7390   23.2568 C   0  0  0  0  0  0  0  0  0  0  0  0
  -25.9141  -30.8882   21.3456 C   0  0  0  0  0  0  0  0  0  0  0  0
  -25.9930  -29.5029   20.7208 C   0  0  0  0  0  0  0  0  0  0  0  0
  -27.1758  -28.7612   20.7331 C   0  0  0  0  0  0  0  0  0  0  0  0
  -26.1032  -26.9836   19.5230 C   0  0  0  0  0  0  0  0  0  0  0  0
  -24.9097  -27.7011   19.5331 C   0  0  0  0  0  0  0  0  0  0  0  0
  -23.5715  -29.7899   20.1582 C   0  0  0  0  0  0  0  0  0  0  0  0
  -25.3990  -36.3212   24.0232 C   0  0  1  0  0  0  0  0  0  0  0  0
  -20.5793  -28.3813   23.1004 C   0  0  2  0  0  0  0  0  0  0  0  0
  -20.6548  -26.9392   22.5411 C   0  0  0  0  0  0  0  0  0  0  0  0
  -19.5615  -26.6407   21.5143 C   0  0  0  0  0  0  0  0  0  0  0  0
  -18.1797  -26.7818   22.1673 C   0  0  0  0  0  0  0  0  0  0  0  0
  -19.1385  -28.8769   23.2988 C   0  0  0  0  0  0  0  0  0  0  0  0
  -18.9183  -30.1286   23.8878 C   0  0  0  0  0  0  0  0  0  0  0  0
  -17.6396  -30.6493   24.0352 C   0  0  0  0  0  0  0  0  0  0  0  0
  -25.9153  -34.9582   23.4993 C   0  0  0  0  0  0  0  0  0  0  0  0
  -16.5415  -29.9068   23.6254 C   0  0  0  0  0  0  0  0  0  0  0  0
  -16.7331  -28.6521   23.0586 C   0  0  0  0  0  0  0  0  0  0  0  0
  -26.4583  -31.6439   25.0683 C   0  0  0  0  0  0  0  0  0  0  0  0
  -25.3807  -31.3179   26.1374 C   0  0  0  0  0  0  0  0  0  0  0  0
  -27.0530  -30.3024   24.5680 C   0  0  0  0  0  0  0  0  0  0  0  0
  -27.6014  -32.4281   25.7651 C   0  0  0  0  0  0  0  0  0  0  0  0
  -27.5629  -37.2220   24.8621 C   0  0  0  0  0  0  0  0  0  0  0  0
  -21.4133  -29.3375   22.3735 N   0  0  0  0  0  0  0  0  0  0  0  0
  -26.4706  -37.3372   23.9061 N   0  0  0  0  0  0  0  0  0  0  0  0
  -24.6674  -31.0544   22.1178 N   0  0  0  0  0  0  0  0  0  0  0  0
  -23.4259  -28.8150   23.2971 O   0  0  0  0  0  0  0  0  0  0  0  0
  -28.3948  -26.7345   20.0089 O   0  0  0  0  0  0  0  0  0  0  0  0
  -26.5870  -34.9065   22.4671 O   0  0  0  0  0  0  0  0  0  0  0  0
  -23.5365  -32.1254   23.7833 O   0  0  0  0  0  0  0  0  0  0  0  0
  -32.0000  -17.2860   21.7631 C   0  0  0  0  0  0  0  0  0  0  0  0
  -31.0140  -18.8341   23.1891 C   0  0  0  0  0  0  0  0  0  0  0  0
  -32.1395  -18.5215   22.4590 C   0  0  0  0  0  0  0  0  0  0  0  0
  -30.7731  -16.7012   21.9881 C   0  0  0  0  0  0  0  0  0  0  0  0
  -36.1305  -19.8630   20.9386 C   0  0  0  0  0  0  0  0  0  0  0  0
  -33.5390  -23.3346   18.3459 C   0  0  0  0  0  0  0  0  0  0  0  0
  -33.3687  -19.3799   22.4027 C   0  0  0  0  0  0  0  0  0  0  0  0
  -34.7933  -21.6099   19.6912 C   0  0  0  0  0  0  0  0  0  0  0  0
  -34.8822  -20.7364   20.9508 C   0  0  1  0  0  0  0  0  0  0  0  0
  -33.5504  -22.5071   19.6254 C   0  0  1  0  0  0  0  0  0  0  0  0
  -30.2216  -15.4890   21.5042 N   0  0  0  0  0  0  0  0  0  0  0  0
  -33.6963  -19.8381   21.0277 N   0  3  0  0  0  0  0  0  0  0  0  0
  -29.7958  -17.6406   23.0343 S   0  0  0  0  0  0  0  0  0  0  0  0
  -31.4485  -12.4701   19.0860 H   0  0  0  0  0  0  0  0  0  0  0  0
  -30.3970  -11.2460   19.6950 H   0  0  0  0  0  0  0  0  0  0  0  0
  -29.6870  -11.8204   17.4226 H   0  0  0  0  0  0  0  0  0  0  0  0
  -29.6375  -13.5326   17.8649 H   0  0  0  0  0  0  0  0  0  0  0  0
  -27.7830  -11.3650   18.7904 H   0  0  0  0  0  0  0  0  0  0  0  0
  -27.4028  -12.7801   17.8021 H   0  0  0  0  0  0  0  0  0  0  0  0
  -27.7353  -14.2503   19.6136 H   0  0  0  0  0  0  0  0  0  0  0  0
  -28.5890  -11.9550   21.3832 H   0  0  0  0  0  0  0  0  0  0  0  0
  -28.5005  -13.6134   21.8562 H   0  0  0  0  0  0  0  0  0  0  0  0
  -25.2399   -9.5495   22.4318 H   0  0  0  0  0  0  0  0  0  0  0  0
  -23.9663   -7.5070   22.7297 H   0  0  0  0  0  0  0  0  0  0  0  0
  -21.1515   -8.8641   19.9162 H   0  0  0  0  0  0  0  0  0  0  0  0
  -22.4016  -10.9115   19.6476 H   0  0  0  0  0  0  0  0  0  0  0  0
  -21.2319   -7.5552   23.9750 H   0  0  0  0  0  0  0  0  0  0  0  0
  -21.1589   -6.0228   25.8556 H   0  0  0  0  0  0  0  0  0  0  0  0
  -22.0396   -2.8212   23.2809 H   0  0  0  0  0  0  0  0  0  0  0  0
  -22.4401  -11.9703   22.4008 H   0  0  0  0  0  0  0  0  0  0  0  0
  -21.1493  -13.0679   22.2082 H   0  0  0  0  0  0  0  0  0  0  0  0
  -24.6538  -15.7807   20.5848 H   0  0  0  0  0  0  0  0  0  0  0  0
  -26.2762  -15.5453   20.1156 H   0  0  0  0  0  0  0  0  0  0  0  0
  -26.6778  -32.4663   23.1464 H   0  0  0  0  0  0  0  0  0  0  0  0
  -25.0747  -34.0282   25.0566 H   0  0  0  0  0  0  0  0  0  0  0  0
  -22.7881  -31.3489   21.4131 H   0  0  0  0  0  0  0  0  0  0  0  0
  -23.3854  -35.9823   23.3648 H   0  0  0  0  0  0  0  0  0  0  0  0
  -24.3696  -36.8624   22.2204 H   0  0  0  0  0  0  0  0  0  0  0  0
  -23.7669  -37.6632   23.6516 H   0  0  0  0  0  0  0  0  0  0  0  0
  -25.9445  -31.6237   20.5691 H   0  0  0  0  0  0  0  0  0  0  0  0
  -26.7436  -31.0079   22.0108 H   0  0  0  0  0  0  0  0  0  0  0  0
  -28.0090  -29.1452   21.2057 H   0  0  0  0  0  0  0  0  0  0  0  0
  -26.1369  -26.0560   19.0719 H   0  0  0  0  0  0  0  0  0  0  0  0
  -24.0652  -27.2961   19.0997 H   0  0  0  0  0  0  0  0  0  0  0  0
  -23.6156  -30.5365   19.3930 H   0  0  0  0  0  0  0  0  0  0  0  0
  -22.7355  -29.1425   19.9945 H   0  0  0  0  0  0  0  0  0  0  0  0
  -25.1353  -36.2335   25.0565 H   0  0  0  0  0  0  0  0  0  0  0  0
  -21.0070  -28.3206   24.0793 H   0  0  0  0  0  0  0  0  0  0  0  0
  -20.5555  -26.2518   23.3550 H   0  0  0  0  0  0  0  0  0  0  0  0
  -21.5974  -26.8362   22.0454 H   0  0  0  0  0  0  0  0  0  0  0  0
  -19.6810  -25.6422   21.1488 H   0  0  0  0  0  0  0  0  0  0  0  0
  -19.6406  -27.3343   20.7034 H   0  0  0  0  0  0  0  0  0  0  0  0
  -17.4282  -26.6888   21.4113 H   0  0  0  0  0  0  0  0  0  0  0  0
  -18.0803  -26.0130   22.9049 H   0  0  0  0  0  0  0  0  0  0  0  0
  -19.7265  -30.6774   24.2204 H   0  0  0  0  0  0  0  0  0  0  0  0
  -17.5064  -31.5856   24.4483 H   0  0  0  0  0  0  0  0  0  0  0  0
  -15.5878  -30.2839   23.7407 H   0  0  0  0  0  0  0  0  0  0  0  0
  -15.9120  -28.0941   22.7766 H   0  0  0  0  0  0  0  0  0  0  0  0
  -24.5787  -30.7757   25.6817 H   0  0  0  0  0  0  0  0  0  0  0  0
  -25.0041  -32.2289   26.5536 H   0  0  0  0  0  0  0  0  0  0  0  0
  -25.8166  -30.7245   26.9138 H   0  0  0  0  0  0  0  0  0  0  0  0
  -26.2892  -29.7335   24.0803 H   0  0  0  0  0  0  0  0  0  0  0  0
  -27.4336  -29.7484   25.4006 H   0  0  0  0  0  0  0  0  0  0  0  0
  -27.8466  -30.4994   23.8779 H   0  0  0  0  0  0  0  0  0  0  0  0
  -27.2251  -33.3632   26.1242 H   0  0  0  0  0  0  0  0  0  0  0  0
  -28.3902  -32.6065   25.0645 H   0  0  0  0  0  0  0  0  0  0  0  0
  -27.9772  -31.8555   26.5872 H   0  0  0  0  0  0  0  0  0  0  0  0
  -28.2744  -38.0016   24.6863 H   0  0  0  0  0  0  0  0  0  0  0  0
  -28.0396  -36.2711   24.7461 H   0  0  0  0  0  0  0  0  0  0  0  0
  -27.1773  -37.3087   25.8564 H   0  0  0  0  0  0  0  0  0  0  0  0
  -20.9627  -29.9365   21.7352 H   0  0  0  0  0  0  0  0  0  0  0  0
  -26.0447  -38.2561   24.0273 H   0  0  0  0  0  0  0  0  0  0  0  0
  -32.7320  -16.8773   21.1613 H   0  0  0  0  0  0  0  0  0  0  0  0
  -30.9164  -19.6870   23.7619 H   0  0  0  0  0  0  0  0  0  0  0  0
  -36.9999  -20.4842   20.8836 H   0  0  0  0  0  0  0  0  0  0  0  0
  -36.1025  -19.2127   20.0893 H   0  0  0  0  0  0  0  0  0  0  0  0
  -36.1657  -19.2787   21.8343 H   0  0  0  0  0  0  0  0  0  0  0  0
  -34.3507  -23.0317   17.7180 H   0  0  0  0  0  0  0  0  0  0  0  0
  -33.6447  -24.3709   18.5904 H   0  0  0  0  0  0  0  0  0  0  0  0
  -32.6136  -23.1823   17.8309 H   0  0  0  0  0  0  0  0  0  0  0  0
  -34.1959  -18.8156   22.7799 H   0  0  0  0  0  0  0  0  0  0  0  0
  -33.1767  -20.2517   22.9926 H   0  0  0  0  0  0  0  0  0  0  0  0
  -34.7856  -20.9652   18.8373 H   0  0  0  0  0  0  0  0  0  0  0  0
  -35.6398  -22.2639   19.7141 H   0  0  0  0  0  0  0  0  0  0  0  0
  -34.9198  -21.3951   21.7932 H   0  0  0  0  0  0  0  0  0  0  0  0
  -33.5158  -21.8392   20.4606 H   0  0  0  0  0  0  0  0  0  0  0  0
  -29.2844  -15.3546   21.7740 H   0  0  0  0  0  0  0  0  0  0  0  0
  -32.8897  -20.3405   20.6570 H   0  0  0  0  0  0  0  0  0  0  0  0
  -33.9244  -19.0039   20.4868 H   0  0  0  0  0  0  0  0  0  0  0  0
  1 25  1  0  0  0  0
  1 30  2  0  0  0  0
  1 81  1  0  0  0  0
  2  3  1  0  0  0  0
  2 25  1  0  0  0  0
  2 84  1  0  0  0  0
  2 85  1  0  0  0  0
  3  4  1  0  0  0  0
  3 86  1  0  0  0  0
  3 87  1  0  0  0  0
  4  5  1  0  0  0  0
  4 88  1  0  0  0  0
  4 89  1  0  0  0  0
  5  6  1  0  0  0  0
  5 26  1  0  0  0  0
  5 90  1  6  0  0  0
  6 25  1  0  0  0  0
  6 91  1  0  0  0  0
  6 92  1  0  0  0  0
  7  8  2  0  0  0  0
  7 26  1  0  0  0  0
  7 29  1  0  0  0  0
  8  9  1  0  0  0  0
  8 22  1  0  0  0  0
  9 10  1  0  0  0  0
  9 27  2  0  0  0  0
 10 11  2  0  0  0  0
 10 15  1  0  0  0  0
 11 12  1  0  0  0  0
 11 93  1  0  0  0  0
 12 13  2  0  0  0  0
 12 94  1  0  0  0  0
 13 14  1  0  0  0  0
 13 31  1  0  0  0  0
 14 15  2  0  0  0  0
 14 95  1  0  0  0  0
 15 96  1  0  0  0  0
 16 17  2  0  0  0  0
 16 21  1  0  0  0  0
 16 31  1  0  0  0  0
 17 18  1  0  0  0  0
 17 97  1  0  0  0  0
 18 19  2  0  0  0  0
 18 98  1  0  0  0  0
 19 20  1  0  0  0  0
 19 24  1  0  0  0  0
 20 21  2  0  0  0  0
 20 99  1  0  0  0  0
 21 23  1  0  0  0  0
 22 28  1  0  0  0  0
 22 32  2  0  0  0  0
 26 27  1  0  0  0  0
 28100  1  0  0  0  0
 28101  1  0  0  0  0
 29102  1  0  0  0  0
 29103  1  0  0  0  0
 33 34  1  0  0  0  0
 33 66  1  0  0  0  0
 33 70  2  0  0  0  0
 34 36  1  0  0  0  0
 34 59  1  0  0  0  0
 34104  1  6  0  0  0
 35 44  2  0  0  0  0
 35 45  1  0  0  0  0
 35 68  1  0  0  0  0
 36 56  1  0  0  0  0
 36105  1  0  0  0  0
 37 39  1  0  0  0  0
 37 47  1  0  0  0  0
 37 66  1  0  0  0  0
 37106  1  6  0  0  0
 38 43  2  0  0  0  0
 38 46  1  0  0  0  0
 38 47  1  0  0  0  0
 39 64  1  0  0  0  0
 39 67  2  0  0  0  0
 40 52  1  0  0  0  0
 40 53  2  0  0  0  0
 40 58  1  0  0  0  0
 41107  1  0  0  0  0
 41108  1  0  0  0  0
 41109  1  0  0  0  0
 42 43  1  0  0  0  0
 42 66  1  0  0  0  0
 42110  1  0  0  0  0
 42111  1  0  0  0  0
 43 44  1  0  0  0  0
 44112  1  0  0  0  0
 45 46  2  0  0  0  0
 45113  1  0  0  0  0
 46114  1  0  0  0  0
 47115  1  0  0  0  0
 47116  1  0  0  0  0
 48 41  1  0  0  0  0
 48 56  1  0  0  0  0
 48 65  1  0  0  0  0
 48117  1  1  0  0  0
 49 50  1  0  0  0  0
 49 53  1  0  0  0  0
 49 64  1  0  0  0  0
 49118  1  1  0  0  0
 50 51  1  0  0  0  0
 50119  1  0  0  0  0
 50120  1  0  0  0  0
 51 52  1  0  0  0  0
 51121  1  0  0  0  0
 51122  1  0  0  0  0
 52123  1  0  0  0  0
 52124  1  0  0  0  0
 53 54  1  0  0  0  0
 54 55  2  0  0  0  0
 54125  1  0  0  0  0
 55 57  1  0  0  0  0
 55126  1  0  0  0  0
 56 69  2  0  0  0  0
 57 58  2  0  0  0  0
 57127  1  0  0  0  0
 58128  1  0  0  0  0
 59 60  1  0  0  0  0
 59 61  1  0  0  0  0
 59 62  1  0  0  0  0
 60129  1  0  0  0  0
 60130  1  0  0  0  0
 60131  1  0  0  0  0
 61132  1  0  0  0  0
 61133  1  0  0  0  0
 61134  1  0  0  0  0
 62135  1  0  0  0  0
 62136  1  0  0  0  0
 62137  1  0  0  0  0
 63 65  1  0  0  0  0
 63138  1  0  0  0  0
 63139  1  0  0  0  0
 63140  1  0  0  0  0
 64141  1  0  0  0  0
 65142  1  0  0  0  0
 68 80  1  0  0  0  0
 71 73  1  0  0  0  0
 71 74  2  0  0  0  0
 71143  1  0  0  0  0
 72 73  2  0  0  0  0
 72 83  1  0  0  0  0
 72144  1  0  0  0  0
 73 77  1  0  0  0  0
 74 81  1  0  0  0  0
 74 83  1  0  0  0  0
 75145  1  0  0  0  0
 75146  1  0  0  0  0
 75147  1  0  0  0  0
 76148  1  0  0  0  0
 76149  1  0  0  0  0
 76150  1  0  0  0  0
 77 82  1  0  0  0  0
 77151  1  0  0  0  0
 77152  1  0  0  0  0
 78 79  1  0  0  0  0
 78 80  1  0  0  0  0
 78153  1  0  0  0  0
 78154  1  0  0  0  0
 79 75  1  0  0  0  0
 79 82  1  0  0  0  0
 79155  1  1  0  0  0
 80 76  1  0  0  0  0
 80156  1  6  0  0  0
 81157  1  0  0  0  0
 82158  1  0  0  0  0
 82159  1  0  0  0  0
M  ISO  4   1 100  68 101  80 101  81 100
M  CHG  1  82   1
M  END
$$$$
60
 OpenBabel04052305473D

151159  0  0  0  0  0  0  0  0999 V2000
  -30.7652  -14.3608   20.6636 C   0  0  0  0  0  0  0  0  0  0  0  0
  -30.4392  -12.2669   19.3775 C   0  0  0  0  0  0  0  0  0  0  0  0
  -29.4791  -12.5281   18.1977 C   0  0  0  0  0  0  0  0  0  0  0  0
  -27.9985  -12.3963   18.6038 C   0  0  0  0  0  0  0  0  0  0  0  0
  -27.6639  -13.2170   19.8820 C   0  0  2  0  0  0  0  0  0  0  0  0
  -28.6795  -12.9602   21.0279 C   0  0  0  0  0  0  0  0  0  0  0  0
  -25.2633  -13.8245   20.5754 C   0  0  0  0  0  0  0  0  0  0  0  0
  -24.1645  -13.0409   20.9408 C   0  0  0  0  0  0  0  0  0  0  0  0
  -24.6400  -11.7009   20.8697 C   0  0  0  0  0  0  0  0  0  0  0  0
  -23.9005  -10.4085   21.0420 C   0  0  0  0  0  0  0  0  0  0  0  0
  -24.3588   -9.4123   21.9123 C   0  0  0  0  0  0  0  0  0  0  0  0
  -23.6296   -8.2350   22.0803 C   0  0  0  0  0  0  0  0  0  0  0  0
  -22.4385   -8.0419   21.3657 C   0  0  0  0  0  0  0  0  0  0  0  0
  -22.0103   -9.0167   20.4678 C   0  0  0  0  0  0  0  0  0  0  0  0
  -22.7317  -10.1925   20.3102 C   0  0  0  0  0  0  0  0  0  0  0  0
  -21.6857   -6.0709   22.5391 C   0  0  0  0  0  0  0  0  0  0  0  0
  -21.4064   -6.5490   23.8264 C   0  0  0  0  0  0  0  0  0  0  0  0
  -21.3635   -5.6677   24.9085 C   0  0  0  0  0  0  0  0  0  0  0  0
  -21.5973   -4.3067   24.7088 C   0  0  0  0  0  0  0  0  0  0  0  0
  -21.8700   -3.8284   23.4282 C   0  0  0  0  0  0  0  0  0  0  0  0
  -21.9144   -4.7056   22.3460 C   0  0  0  0  0  0  0  0  0  0  0  0
  -22.8194  -13.5263   21.1763 C   0  0  0  0  0  0  0  0  0  0  0  0
  -22.1559   -4.2206   21.1063 F   0  0  0  0  0  0  0  0  0  0  0  0
  -21.5628   -3.4510   25.7555 F   0  0  0  0  0  0  0  0  0  0  0  0
  -30.0261  -13.1803   20.4553 N   0  0  0  0  0  0  0  0  0  0  0  0
  -26.2911  -12.9356   20.3443 N   0  0  0  0  0  0  0  0  0  0  0  0
  -25.9236  -11.6675   20.5847 N   0  0  0  0  0  0  0  0  0  0  0  0
  -22.0708  -12.7905   22.0005 N   0  0  0  0  0  0  0  0  0  0  0  0
  -25.4117  -15.1773   20.4097 N   0  0  0  0  0  0  0  0  0  0  0  0
  -31.7916  -14.6724   20.0536 O   0  0  0  0  0  0  0  0  0  0  0  0
  -21.6670   -6.9022   21.4423 O   0  0  0  0  0  0  0  0  0  0  0  0
  -22.3946  -14.5564   20.6568 O   0  0  0  0  0  0  0  0  0  0  0  0
  -24.6048  -31.8614   23.2223 C   0  0  0  0  0  0  0  0  0  0  0  0
  -25.8822  -32.4841   23.8616 C   0  0  1  0  0  0  0  0  0  0  0  0
  -27.2536  -27.5042   20.1156 C   0  0  0  0  0  0  0  0  0  0  0  0
  -25.5726  -33.8762   24.2210 N   0  0  0  0  0  0  0  0  0  0  0  0
  -23.4066  -30.4859   21.5461 C   0  0  2  0  0  0  0  0  0  0  0  0
  -24.8467  -28.9636   20.1247 C   0  0  0  0  0  0  0  0  0  0  0  0
  -22.7412  -29.4652   22.5052 C   0  0  0  0  0  0  0  0  0  0  0  0
  -18.0167  -28.1302   22.8626 C   0  0  0  0  0  0  0  0  0  0  0  0
  -24.1342  -36.7390   23.2568 C   0  0  0  0  0  0  0  0  0  0  0  0
  -25.9141  -30.8882   21.3456 C   0  0  0  0  0  0  0  0  0  0  0  0
  -25.9930  -29.5029   20.7208 C   0  0  0  0  0  0  0  0  0  0  0  0
  -27.1758  -28.7612   20.7331 C   0  0  0  0  0  0  0  0  0  0  0  0
  -26.1032  -26.9836   19.5230 C   0  0  0  0  0  0  0  0  0  0  0  0
  -24.9097  -27.7011   19.5331 C   0  0  0  0  0  0  0  0  0  0  0  0
  -23.5715  -29.7899   20.1582 C   0  0  0  0  0  0  0  0  0  0  0  0
  -25.3990  -36.3212   24.0232 C   0  0  1  0  0  0  0  0  0  0  0  0
  -20.5793  -28.3813   23.1004 C   0  0  2  0  0  0  0  0  0  0  0  0
  -20.6548  -26.9392   22.5411 C   0  0  0  0  0  0  0  0  0  0  0  0
  -19.5615  -26.6407   21.5143 C   0  0  0  0  0  0  0  0  0  0  0  0
  -18.1797  -26.7818   22.1673 C   0  0  0  0  0  0  0  0  0  0  0  0
  -19.1385  -28.8769   23.2988 C   0  0  0  0  0  0  0  0  0  0  0  0
  -18.9183  -30.1286   23.8878 C   0  0  0  0  0  0  0  0  0  0  0  0
  -17.6396  -30.6493   24.0352 C   0  0  0  0  0  0  0  0  0  0  0  0
  -25.9153  -34.9582   23.4993 C   0  0  0  0  0  0  0  0  0  0  0  0
  -16.5415  -29.9068   23.6254 C   0  0  0  0  0  0  0  0  0  0  0  0
  -16.7331  -28.6521   23.0586 C   0  0  0  0  0  0  0  0  0  0  0  0
  -26.4583  -31.6439   25.0683 C   0  0  0  0  0  0  0  0  0  0  0  0
  -25.3807  -31.3179   26.1374 C   0  0  0  0  0  0  0  0  0  0  0  0
  -27.0530  -30.3024   24.5680 C   0  0  0  0  0  0  0  0  0  0  0  0
  -27.6014  -32.4281   25.7651 C   0  0  0  0  0  0  0  0  0  0  0  0
  -27.5629  -37.2220   24.8621 C   0  0  0  0  0  0  0  0  0  0  0  0
  -21.4133  -29.3375   22.3735 N   0  0  0  0  0  0  0  0  0  0  0  0
  -26.4706  -37.3372   23.9061 N   0  0  0  0  0  0  0  0  0  0  0  0
  -24.6674  -31.0544   22.1178 N   0  0  0  0  0  0  0  0  0  0  0  0
  -23.4259  -28.8150   23.2971 O   0  0  0  0  0  0  0  0  0  0  0  0
  -28.3948  -26.7345   20.0089 O   0  0  0  0  0  0  0  0  0  0  0  0
  -26.5870  -34.9065   22.4671 O   0  0  0  0  0  0  0  0  0  0  0  0
  -23.5365  -32.1254   23.7833 O   0  0  0  0  0  0  0  0  0  0  0  0
  -32.1965  -18.4986   21.9255 C   0  0  0  0  0  0  0  0  0  0  0  0
  -30.5694  -16.9531   21.8979 C   0  0  0  0  0  0  0  0  0  0  0  0
  -30.2926  -18.8533   23.0597 C   0  0  0  0  0  0  0  0  0  0  0  0
  -27.5870  -20.4188   25.1683 C   0  0  0  0  0  0  0  0  0  0  0  0
  -28.1957  -19.2957   24.3375 C   0  0  0  0  0  0  0  0  0  0  0  0
  -26.1721  -20.1087   25.6425 C   0  0  0  0  0  0  0  0  0  0  0  0
  -31.7965  -17.2980   21.4760 N   0  0  0  0  0  0  0  0  0  0  0  0
  -31.5007  -19.3296   22.7182 N   0  0  0  0  0  0  0  0  0  0  0  0
  -29.7612  -17.6772   22.6888 N   0  0  0  0  0  0  0  0  0  0  0  0
  -33.4781  -18.9312   21.5214 N   0  0  0  0  0  0  0  0  0  0  0  0
  -30.0772  -15.6963   21.4668 N   0  0  0  0  0  0  0  0  0  0  0  0
  -29.5152  -19.6571   23.8787 N   0  0  0  0  0  0  0  0  0  0  0  0
  -31.4485  -12.4701   19.0860 H   0  0  0  0  0  0  0  0  0  0  0  0
  -30.3970  -11.2460   19.6950 H   0  0  0  0  0  0  0  0  0  0  0  0
  -29.6870  -11.8204   17.4226 H   0  0  0  0  0  0  0  0  0  0  0  0
  -29.6375  -13.5326   17.8649 H   0  0  0  0  0  0  0  0  0  0  0  0
  -27.7830  -11.3650   18.7904 H   0  0  0  0  0  0  0  0  0  0  0  0
  -27.4028  -12.7801   17.8021 H   0  0  0  0  0  0  0  0  0  0  0  0
  -27.7353  -14.2503   19.6136 H   0  0  0  0  0  0  0  0  0  0  0  0
  -28.5890  -11.9550   21.3832 H   0  0  0  0  0  0  0  0  0  0  0  0
  -28.5005  -13.6134   21.8562 H   0  0  0  0  0  0  0  0  0  0  0  0
  -25.2399   -9.5495   22.4318 H   0  0  0  0  0  0  0  0  0  0  0  0
  -23.9663   -7.5070   22.7297 H   0  0  0  0  0  0  0  0  0  0  0  0
  -21.1515   -8.8641   19.9162 H   0  0  0  0  0  0  0  0  0  0  0  0
  -22.4016  -10.9115   19.6476 H   0  0  0  0  0  0  0  0  0  0  0  0
  -21.2319   -7.5552   23.9750 H   0  0  0  0  0  0  0  0  0  0  0  0
  -21.1589   -6.0228   25.8556 H   0  0  0  0  0  0  0  0  0  0  0  0
  -22.0396   -2.8212   23.2809 H   0  0  0  0  0  0  0  0  0  0  0  0
  -22.4401  -11.9703   22.4008 H   0  0  0  0  0  0  0  0  0  0  0  0
  -21.1493  -13.0679   22.2082 H   0  0  0  0  0  0  0  0  0  0  0  0
  -24.6538  -15.7807   20.5848 H   0  0  0  0  0  0  0  0  0  0  0  0
  -26.2762  -15.5453   20.1156 H   0  0  0  0  0  0  0  0  0  0  0  0
  -26.6778  -32.4663   23.1464 H   0  0  0  0  0  0  0  0  0  0  0  0
  -25.0747  -34.0282   25.0566 H   0  0  0  0  0  0  0  0  0  0  0  0
  -22.7881  -31.3489   21.4131 H   0  0  0  0  0  0  0  0  0  0  0  0
  -23.3854  -35.9823   23.3648 H   0  0  0  0  0  0  0  0  0  0  0  0
  -24.3696  -36.8624   22.2204 H   0  0  0  0  0  0  0  0  0  0  0  0
  -23.7669  -37.6632   23.6516 H   0  0  0  0  0  0  0  0  0  0  0  0
  -25.9445  -31.6237   20.5691 H   0  0  0  0  0  0  0  0  0  0  0  0
  -26.7436  -31.0079   22.0108 H   0  0  0  0  0  0  0  0  0  0  0  0
  -28.0090  -29.1452   21.2057 H   0  0  0  0  0  0  0  0  0  0  0  0
  -26.1369  -26.0560   19.0719 H   0  0  0  0  0  0  0  0  0  0  0  0
  -24.0652  -27.2961   19.0997 H   0  0  0  0  0  0  0  0  0  0  0  0
  -23.6156  -30.5365   19.3930 H   0  0  0  0  0  0  0  0  0  0  0  0
  -22.7355  -29.1425   19.9945 H   0  0  0  0  0  0  0  0  0  0  0  0
  -25.1353  -36.2335   25.0565 H   0  0  0  0  0  0  0  0  0  0  0  0
  -21.0070  -28.3206   24.0793 H   0  0  0  0  0  0  0  0  0  0  0  0
  -20.5555  -26.2518   23.3550 H   0  0  0  0  0  0  0  0  0  0  0  0
  -21.5974  -26.8362   22.0454 H   0  0  0  0  0  0  0  0  0  0  0  0
  -19.6810  -25.6422   21.1488 H   0  0  0  0  0  0  0  0  0  0  0  0
  -19.6406  -27.3343   20.7034 H   0  0  0  0  0  0  0  0  0  0  0  0
  -17.4282  -26.6888   21.4113 H   0  0  0  0  0  0  0  0  0  0  0  0
  -18.0803  -26.0130   22.9049 H   0  0  0  0  0  0  0  0  0  0  0  0
  -19.7265  -30.6774   24.2204 H   0  0  0  0  0  0  0  0  0  0  0  0
  -17.5064  -31.5856   24.4483 H   0  0  0  0  0  0  0  0  0  0  0  0
  -15.5878  -30.2839   23.7407 H   0  0  0  0  0  0  0  0  0  0  0  0
  -15.9120  -28.0941   22.7766 H   0  0  0  0  0  0  0  0  0  0  0  0
  -24.5787  -30.7757   25.6817 H   0  0  0  0  0  0  0  0  0  0  0  0
  -25.0041  -32.2289   26.5536 H   0  0  0  0  0  0  0  0  0  0  0  0
  -25.8166  -30.7245   26.9138 H   0  0  0  0  0  0  0  0  0  0  0  0
  -26.2892  -29.7335   24.0803 H   0  0  0  0  0  0  0  0  0  0  0  0
  -27.4336  -29.7484   25.4006 H   0  0  0  0  0  0  0  0  0  0  0  0
  -27.8466  -30.4994   23.8779 H   0  0  0  0  0  0  0  0  0  0  0  0
  -27.2251  -33.3632   26.1242 H   0  0  0  0  0  0  0  0  0  0  0  0
  -28.3902  -32.6065   25.0645 H   0  0  0  0  0  0  0  0  0  0  0  0
  -27.9772  -31.8555   26.5872 H   0  0  0  0  0  0  0  0  0  0  0  0
  -28.2744  -38.0016   24.6863 H   0  0  0  0  0  0  0  0  0  0  0  0
  -28.0396  -36.2711   24.7461 H   0  0  0  0  0  0  0  0  0  0  0  0
  -27.1773  -37.3087   25.8564 H   0  0  0  0  0  0  0  0  0  0  0  0
  -20.9627  -29.9365   21.7352 H   0  0  0  0  0  0  0  0  0  0  0  0
  -26.0447  -38.2561   24.0273 H   0  0  0  0  0  0  0  0  0  0  0  0
  -27.5600  -21.3074   24.5728 H   0  0  0  0  0  0  0  0  0  0  0  0
  -28.1972  -20.5400   26.0389 H   0  0  0  0  0  0  0  0  0  0  0  0
  -27.5693  -19.1061   23.4910 H   0  0  0  0  0  0  0  0  0  0  0  0
  -28.2718  -18.4197   24.9472 H   0  0  0  0  0  0  0  0  0  0  0  0
  -25.8717  -20.3210   26.6473 H   0  0  0  0  0  0  0  0  0  0  0  0
  -25.5113  -19.2672   25.6422 H   0  0  0  0  0  0  0  0  0  0  0  0
  -34.0299  -18.3597   20.9399 H   0  0  0  0  0  0  0  0  0  0  0  0
  -33.8201  -19.8044   21.8211 H   0  0  0  0  0  0  0  0  0  0  0  0
  -29.1247  -15.5657   21.6788 H   0  0  0  0  0  0  0  0  0  0  0  0
  -29.8844  -20.5241   24.1637 H   0  0  0  0  0  0  0  0  0  0  0  0
  1 25  1  0  0  0  0
  1 30  2  0  0  0  0
  1 81  1  0  0  0  0
  2  3  1  0  0  0  0
  2 25  1  0  0  0  0
  2 83  1  0  0  0  0
  2 84  1  0  0  0  0
  3  4  1  0  0  0  0
  3 85  1  0  0  0  0
  3 86  1  0  0  0  0
  4  5  1  0  0  0  0
  4 87  1  0  0  0  0
  4 88  1  0  0  0  0
  5  6  1  0  0  0  0
  5 26  1  0  0  0  0
  5 89  1  6  0  0  0
  6 25  1  0  0  0  0
  6 90  1  0  0  0  0
  6 91  1  0  0  0  0
  7  8  2  0  0  0  0
  7 26  1  0  0  0  0
  7 29  1  0  0  0  0
  8  9  1  0  0  0  0
  8 22  1  0  0  0  0
  9 10  1  0  0  0  0
  9 27  2  0  0  0  0
 10 11  2  0  0  0  0
 10 15  1  0  0  0  0
 11 12  1  0  0  0  0
 11 92  1  0  0  0  0
 12 13  2  0  0  0  0
 12 93  1  0  0  0  0
 13 14  1  0  0  0  0
 13 31  1  0  0  0  0
 14 15  2  0  0  0  0
 14 94  1  0  0  0  0
 15 95  1  0  0  0  0
 16 17  2  0  0  0  0
 16 21  1  0  0  0  0
 16 31  1  0  0  0  0
 17 18  1  0  0  0  0
 17 96  1  0  0  0  0
 18 19  2  0  0  0  0
 18 97  1  0  0  0  0
 19 20  1  0  0  0  0
 19 24  1  0  0  0  0
 20 21  2  0  0  0  0
 20 98  1  0  0  0  0
 21 23  1  0  0  0  0
 22 28  1  0  0  0  0
 22 32  2  0  0  0  0
 26 27  1  0  0  0  0
 28 99  1  0  0  0  0
 28100  1  0  0  0  0
 29101  1  0  0  0  0
 29102  1  0  0  0  0
 33 34  1  0  0  0  0
 33 66  1  0  0  0  0
 33 70  2  0  0  0  0
 34 36  1  0  0  0  0
 34 59  1  0  0  0  0
 34103  1  6  0  0  0
 35 44  2  0  0  0  0
 35 45  1  0  0  0  0
 35 68  1  0  0  0  0
 36 56  1  0  0  0  0
 36104  1  0  0  0  0
 37 39  1  0  0  0  0
 37 47  1  0  0  0  0
 37 66  1  0  0  0  0
 37105  1  6  0  0  0
 38 43  2  0  0  0  0
 38 46  1  0  0  0  0
 38 47  1  0  0  0  0
 39 64  1  0  0  0  0
 39 67  2  0  0  0  0
 40 52  1  0  0  0  0
 40 53  2  0  0  0  0
 40 58  1  0  0  0  0
 41106  1  0  0  0  0
 41107  1  0  0  0  0
 41108  1  0  0  0  0
 42 43  1  0  0  0  0
 42 66  1  0  0  0  0
 42109  1  0  0  0  0
 42110  1  0  0  0  0
 43 44  1  0  0  0  0
 44111  1  0  0  0  0
 45 46  2  0  0  0  0
 45112  1  0  0  0  0
 46113  1  0  0  0  0
 47114  1  0  0  0  0
 47115  1  0  0  0  0
 48 41  1  0  0  0  0
 48 56  1  0  0  0  0
 48 65  1  0  0  0  0
 48116  1  1  0  0  0
 49 50  1  0  0  0  0
 49 53  1  0  0  0  0
 49 64  1  0  0  0  0
 49117  1  1  0  0  0
 50 51  1  0  0  0  0
 50118  1  0  0  0  0
 50119  1  0  0  0  0
 51 52  1  0  0  0  0
 51120  1  0  0  0  0
 51121  1  0  0  0  0
 52122  1  0  0  0  0
 52123  1  0  0  0  0
 53 54  1  0  0  0  0
 54 55  2  0  0  0  0
 54124  1  0  0  0  0
 55 57  1  0  0  0  0
 55125  1  0  0  0  0
 56 69  2  0  0  0  0
 57 58  2  0  0  0  0
 57126  1  0  0  0  0
 58127  1  0  0  0  0
 59 60  1  0  0  0  0
 59 61  1  0  0  0  0
 59 62  1  0  0  0  0
 60128  1  0  0  0  0
 60129  1  0  0  0  0
 60130  1  0  0  0  0
 61131  1  0  0  0  0
 61132  1  0  0  0  0
 61133  1  0  0  0  0
 62134  1  0  0  0  0
 62135  1  0  0  0  0
 62136  1  0  0  0  0
 63 65  1  0  0  0  0
 63137  1  0  0  0  0
 63138  1  0  0  0  0
 63139  1  0  0  0  0
 64140  1  0  0  0  0
 65141  1  0  0  0  0
 68 76  1  0  0  0  0
 71 77  2  0  0  0  0
 71 78  1  0  0  0  0
 71 80  1  0  0  0  0
 72 77  1  0  0  0  0
 72 79  2  0  0  0  0
 72 81  1  0  0  0  0
 73 78  2  0  0  0  0
 73 79  1  0  0  0  0
 73 82  1  0  0  0  0
 74 75  1  0  0  0  0
 74 76  1  0  0  0  0
 74142  1  0  0  0  0
 74143  1  0  0  0  0
 75 82  1  0  0  0  0
 75144  1  0  0  0  0
 75145  1  0  0  0  0
 76146  1  0  0  0  0
 76147  1  0  0  0  0
 80148  1  0  0  0  0
 80149  1  0  0  0  0
 81150  1  0  0  0  0
 82151  1  0  0  0  0
M  ISO  4   1 100  68 101  76 101  81 100
M  END
$$$$
61
 OpenBabel04052305473D

162170  0  0  0  0  0  0  0  0999 V2000
  -30.7652  -14.3608   20.6636 C   0  0  0  0  0  0  0  0  0  0  0  0
  -30.4392  -12.2669   19.3775 C   0  0  0  0  0  0  0  0  0  0  0  0
  -29.4791  -12.5281   18.1977 C   0  0  0  0  0  0  0  0  0  0  0  0
  -27.9985  -12.3963   18.6038 C   0  0  0  0  0  0  0  0  0  0  0  0
  -27.6639  -13.2170   19.8820 C   0  0  2  0  0  0  0  0  0  0  0  0
  -28.6795  -12.9602   21.0279 C   0  0  0  0  0  0  0  0  0  0  0  0
  -25.2633  -13.8245   20.5754 C   0  0  0  0  0  0  0  0  0  0  0  0
  -24.1645  -13.0409   20.9408 C   0  0  0  0  0  0  0  0  0  0  0  0
  -24.6400  -11.7009   20.8697 C   0  0  0  0  0  0  0  0  0  0  0  0
  -23.9005  -10.4085   21.0420 C   0  0  0  0  0  0  0  0  0  0  0  0
  -24.3588   -9.4123   21.9123 C   0  0  0  0  0  0  0  0  0  0  0  0
  -23.6296   -8.2350   22.0803 C   0  0  0  0  0  0  0  0  0  0  0  0
  -22.4385   -8.0419   21.3657 C   0  0  0  0  0  0  0  0  0  0  0  0
  -22.0103   -9.0167   20.4678 C   0  0  0  0  0  0  0  0  0  0  0  0
  -22.7317  -10.1925   20.3102 C   0  0  0  0  0  0  0  0  0  0  0  0
  -21.6857   -6.0709   22.5391 C   0  0  0  0  0  0  0  0  0  0  0  0
  -21.4064   -6.5490   23.8264 C   0  0  0  0  0  0  0  0  0  0  0  0
  -21.3635   -5.6677   24.9085 C   0  0  0  0  0  0  0  0  0  0  0  0
  -21.5973   -4.3067   24.7088 C   0  0  0  0  0  0  0  0  0  0  0  0
  -21.8700   -3.8284   23.4282 C   0  0  0  0  0  0  0  0  0  0  0  0
  -21.9144   -4.7056   22.3460 C   0  0  0  0  0  0  0  0  0  0  0  0
  -22.8194  -13.5263   21.1763 C   0  0  0  0  0  0  0  0  0  0  0  0
  -22.1559   -4.2206   21.1063 F   0  0  0  0  0  0  0  0  0  0  0  0
  -21.5628   -3.4510   25.7555 F   0  0  0  0  0  0  0  0  0  0  0  0
  -30.0261  -13.1803   20.4553 N   0  0  0  0  0  0  0  0  0  0  0  0
  -26.2911  -12.9356   20.3443 N   0  0  0  0  0  0  0  0  0  0  0  0
  -25.9236  -11.6675   20.5847 N   0  0  0  0  0  0  0  0  0  0  0  0
  -22.0708  -12.7905   22.0005 N   0  0  0  0  0  0  0  0  0  0  0  0
  -25.4117  -15.1773   20.4097 N   0  0  0  0  0  0  0  0  0  0  0  0
  -31.7916  -14.6724   20.0536 O   0  0  0  0  0  0  0  0  0  0  0  0
  -21.6670   -6.9022   21.4423 O   0  0  0  0  0  0  0  0  0  0  0  0
  -22.3946  -14.5564   20.6568 O   0  0  0  0  0  0  0  0  0  0  0  0
  -24.6048  -31.8614   23.2223 C   0  0  0  0  0  0  0  0  0  0  0  0
  -25.8822  -32.4841   23.8616 C   0  0  1  0  0  0  0  0  0  0  0  0
  -27.2536  -27.5042   20.1156 C   0  0  0  0  0  0  0  0  0  0  0  0
  -25.5726  -33.8762   24.2210 N   0  0  0  0  0  0  0  0  0  0  0  0
  -23.4066  -30.4859   21.5461 C   0  0  2  0  0  0  0  0  0  0  0  0
  -24.8467  -28.9636   20.1247 C   0  0  0  0  0  0  0  0  0  0  0  0
  -22.7412  -29.4652   22.5052 C   0  0  0  0  0  0  0  0  0  0  0  0
  -18.0167  -28.1302   22.8626 C   0  0  0  0  0  0  0  0  0  0  0  0
  -24.1342  -36.7390   23.2568 C   0  0  0  0  0  0  0  0  0  0  0  0
  -25.9141  -30.8882   21.3456 C   0  0  0  0  0  0  0  0  0  0  0  0
  -25.9930  -29.5029   20.7208 C   0  0  0  0  0  0  0  0  0  0  0  0
  -27.1758  -28.7612   20.7331 C   0  0  0  0  0  0  0  0  0  0  0  0
  -26.1032  -26.9836   19.5230 C   0  0  0  0  0  0  0  0  0  0  0  0
  -24.9097  -27.7011   19.5331 C   0  0  0  0  0  0  0  0  0  0  0  0
  -23.5715  -29.7899   20.1582 C   0  0  0  0  0  0  0  0  0  0  0  0
  -25.3990  -36.3212   24.0232 C   0  0  1  0  0  0  0  0  0  0  0  0
  -20.5793  -28.3813   23.1004 C   0  0  2  0  0  0  0  0  0  0  0  0
  -20.6548  -26.9392   22.5411 C   0  0  0  0  0  0  0  0  0  0  0  0
  -19.5615  -26.6407   21.5143 C   0  0  0  0  0  0  0  0  0  0  0  0
  -18.1797  -26.7818   22.1673 C   0  0  0  0  0  0  0  0  0  0  0  0
  -19.1385  -28.8769   23.2988 C   0  0  0  0  0  0  0  0  0  0  0  0
  -18.9183  -30.1286   23.8878 C   0  0  0  0  0  0  0  0  0  0  0  0
  -17.6396  -30.6493   24.0352 C   0  0  0  0  0  0  0  0  0  0  0  0
  -25.9153  -34.9582   23.4993 C   0  0  0  0  0  0  0  0  0  0  0  0
  -16.5415  -29.9068   23.6254 C   0  0  0  0  0  0  0  0  0  0  0  0
  -16.7331  -28.6521   23.0586 C   0  0  0  0  0  0  0  0  0  0  0  0
  -26.4583  -31.6439   25.0683 C   0  0  0  0  0  0  0  0  0  0  0  0
  -25.3807  -31.3179   26.1374 C   0  0  0  0  0  0  0  0  0  0  0  0
  -27.0530  -30.3024   24.5680 C   0  0  0  0  0  0  0  0  0  0  0  0
  -27.6014  -32.4281   25.7651 C   0  0  0  0  0  0  0  0  0  0  0  0
  -27.5629  -37.2220   24.8621 C   0  0  0  0  0  0  0  0  0  0  0  0
  -21.4133  -29.3375   22.3735 N   0  0  0  0  0  0  0  0  0  0  0  0
  -26.4706  -37.3372   23.9061 N   0  0  0  0  0  0  0  0  0  0  0  0
  -24.6674  -31.0544   22.1178 N   0  0  0  0  0  0  0  0  0  0  0  0
  -23.4259  -28.8150   23.2971 O   0  0  0  0  0  0  0  0  0  0  0  0
  -28.3948  -26.7345   20.0089 O   0  0  0  0  0  0  0  0  0  0  0  0
  -26.5870  -34.9065   22.4671 O   0  0  0  0  0  0  0  0  0  0  0  0
  -23.5365  -32.1254   23.7833 O   0  0  0  0  0  0  0  0  0  0  0  0
  -25.4130  -15.3432   21.3121 C   0  0  0  0  0  0  0  0  0  0  0  0
  -24.5081  -13.2499   21.4812 C   0  0  0  0  0  0  0  0  0  0  0  0
  -26.4543  -14.8330   20.5685 C   0  0  0  0  0  0  0  0  0  0  0  0
  -25.5490  -12.7397   20.7370 C   0  0  0  0  0  0  0  0  0  0  0  0
  -23.6881  -11.8264   23.4032 C   0  0  0  0  0  0  0  0  0  0  0  0
  -20.9866  -12.4440   19.9591 C   0  0  0  0  0  0  0  0  0  0  0  0
  -20.6613  -14.7513   20.9343 C   0  0  0  0  0  0  0  0  0  0  0  0
  -21.3477  -16.0925   21.1685 C   0  0  0  0  0  0  0  0  0  0  0  0
  -23.3979  -12.3690   22.0061 C   0  0  1  0  0  0  0  0  0  0  0  0
  -21.6347  -13.5895   20.7253 C   0  0  1  0  0  0  0  0  0  0  0  0
  -24.4212  -14.5608   21.7818 N   0  0  0  0  0  0  0  0  0  0  0  0
  -26.5410  -13.5221   20.2676 N   0  0  0  0  0  0  0  0  0  0  0  0
  -25.5830  -11.3559   20.4540 N   0  0  0  0  0  0  0  0  0  0  0  0
  -27.4595  -15.7217   20.1130 N   0  0  0  0  0  0  0  0  0  0  0  0
  -22.0846  -13.0631   22.0441 N   0  3  0  0  0  0  0  0  0  0  0  0
  -31.4485  -12.4701   19.0860 H   0  0  0  0  0  0  0  0  0  0  0  0
  -30.3970  -11.2460   19.6950 H   0  0  0  0  0  0  0  0  0  0  0  0
  -29.6870  -11.8204   17.4226 H   0  0  0  0  0  0  0  0  0  0  0  0
  -29.6375  -13.5326   17.8649 H   0  0  0  0  0  0  0  0  0  0  0  0
  -27.7830  -11.3650   18.7904 H   0  0  0  0  0  0  0  0  0  0  0  0
  -27.4028  -12.7801   17.8021 H   0  0  0  0  0  0  0  0  0  0  0  0
  -27.7353  -14.2503   19.6136 H   0  0  0  0  0  0  0  0  0  0  0  0
  -28.5890  -11.9550   21.3832 H   0  0  0  0  0  0  0  0  0  0  0  0
  -28.5005  -13.6134   21.8562 H   0  0  0  0  0  0  0  0  0  0  0  0
  -25.2399   -9.5495   22.4318 H   0  0  0  0  0  0  0  0  0  0  0  0
  -23.9663   -7.5070   22.7297 H   0  0  0  0  0  0  0  0  0  0  0  0
  -21.1515   -8.8641   19.9162 H   0  0  0  0  0  0  0  0  0  0  0  0
  -22.4016  -10.9115   19.6476 H   0  0  0  0  0  0  0  0  0  0  0  0
  -21.2319   -7.5552   23.9750 H   0  0  0  0  0  0  0  0  0  0  0  0
  -21.1589   -6.0228   25.8556 H   0  0  0  0  0  0  0  0  0  0  0  0
  -22.0396   -2.8212   23.2809 H   0  0  0  0  0  0  0  0  0  0  0  0
  -22.4401  -11.9703   22.4008 H   0  0  0  0  0  0  0  0  0  0  0  0
  -21.1493  -13.0679   22.2082 H   0  0  0  0  0  0  0  0  0  0  0  0
  -24.6538  -15.7807   20.5848 H   0  0  0  0  0  0  0  0  0  0  0  0
  -26.2762  -15.5453   20.1156 H   0  0  0  0  0  0  0  0  0  0  0  0
  -26.6778  -32.4663   23.1464 H   0  0  0  0  0  0  0  0  0  0  0  0
  -25.0747  -34.0282   25.0566 H   0  0  0  0  0  0  0  0  0  0  0  0
  -22.7881  -31.3489   21.4131 H   0  0  0  0  0  0  0  0  0  0  0  0
  -23.3854  -35.9823   23.3648 H   0  0  0  0  0  0  0  0  0  0  0  0
  -24.3696  -36.8624   22.2204 H   0  0  0  0  0  0  0  0  0  0  0  0
  -23.7669  -37.6632   23.6516 H   0  0  0  0  0  0  0  0  0  0  0  0
  -25.9445  -31.6237   20.5691 H   0  0  0  0  0  0  0  0  0  0  0  0
  -26.7436  -31.0079   22.0108 H   0  0  0  0  0  0  0  0  0  0  0  0
  -28.0090  -29.1452   21.2057 H   0  0  0  0  0  0  0  0  0  0  0  0
  -26.1369  -26.0560   19.0719 H   0  0  0  0  0  0  0  0  0  0  0  0
  -24.0652  -27.2961   19.0997 H   0  0  0  0  0  0  0  0  0  0  0  0
  -23.6156  -30.5365   19.3930 H   0  0  0  0  0  0  0  0  0  0  0  0
  -22.7355  -29.1425   19.9945 H   0  0  0  0  0  0  0  0  0  0  0  0
  -25.1353  -36.2335   25.0565 H   0  0  0  0  0  0  0  0  0  0  0  0
  -21.0070  -28.3206   24.0793 H   0  0  0  0  0  0  0  0  0  0  0  0
  -20.5555  -26.2518   23.3550 H   0  0  0  0  0  0  0  0  0  0  0  0
  -21.5974  -26.8362   22.0454 H   0  0  0  0  0  0  0  0  0  0  0  0
  -19.6810  -25.6422   21.1488 H   0  0  0  0  0  0  0  0  0  0  0  0
  -19.6406  -27.3343   20.7034 H   0  0  0  0  0  0  0  0  0  0  0  0
  -17.4282  -26.6888   21.4113 H   0  0  0  0  0  0  0  0  0  0  0  0
  -18.0803  -26.0130   22.9049 H   0  0  0  0  0  0  0  0  0  0  0  0
  -19.7265  -30.6774   24.2204 H   0  0  0  0  0  0  0  0  0  0  0  0
  -17.5064  -31.5856   24.4483 H   0  0  0  0  0  0  0  0  0  0  0  0
  -15.5878  -30.2839   23.7407 H   0  0  0  0  0  0  0  0  0  0  0  0
  -15.9120  -28.0941   22.7766 H   0  0  0  0  0  0  0  0  0  0  0  0
  -24.5787  -30.7757   25.6817 H   0  0  0  0  0  0  0  0  0  0  0  0
  -25.0041  -32.2289   26.5536 H   0  0  0  0  0  0  0  0  0  0  0  0
  -25.8166  -30.7245   26.9138 H   0  0  0  0  0  0  0  0  0  0  0  0
  -26.2892  -29.7335   24.0803 H   0  0  0  0  0  0  0  0  0  0  0  0
  -27.4336  -29.7484   25.4006 H   0  0  0  0  0  0  0  0  0  0  0  0
  -27.8466  -30.4994   23.8779 H   0  0  0  0  0  0  0  0  0  0  0  0
  -27.2251  -33.3632   26.1242 H   0  0  0  0  0  0  0  0  0  0  0  0
  -28.3902  -32.6065   25.0645 H   0  0  0  0  0  0  0  0  0  0  0  0
  -27.9772  -31.8555   26.5872 H   0  0  0  0  0  0  0  0  0  0  0  0
  -28.2744  -38.0016   24.6863 H   0  0  0  0  0  0  0  0  0  0  0  0
  -28.0396  -36.2711   24.7461 H   0  0  0  0  0  0  0  0  0  0  0  0
  -27.1773  -37.3087   25.8564 H   0  0  0  0  0  0  0  0  0  0  0  0
  -20.9627  -29.9365   21.7352 H   0  0  0  0  0  0  0  0  0  0  0  0
  -26.0447  -38.2561   24.0273 H   0  0  0  0  0  0  0  0  0  0  0  0
  -25.3917  -16.3547   21.5156 H   0  0  0  0  0  0  0  0  0  0  0  0
  -24.6312  -11.3211   23.4008 H   0  0  0  0  0  0  0  0  0  0  0  0
  -22.9170  -11.1410   23.6869 H   0  0  0  0  0  0  0  0  0  0  0  0
  -23.7195  -12.6368   24.1012 H   0  0  0  0  0  0  0  0  0  0  0  0
  -20.6536  -12.7963   19.0052 H   0  0  0  0  0  0  0  0  0  0  0  0
  -20.1506  -12.0719   20.5136 H   0  0  0  0  0  0  0  0  0  0  0  0
  -21.7003  -11.6590   19.8201 H   0  0  0  0  0  0  0  0  0  0  0  0
  -20.0440  -14.8353   20.0644 H   0  0  0  0  0  0  0  0  0  0  0  0
  -20.0969  -14.5311   21.8162 H   0  0  0  0  0  0  0  0  0  0  0  0
  -21.7990  -15.7945   22.0918 H   0  0  0  0  0  0  0  0  0  0  0  0
  -20.7087  -16.4942   20.4101 H   0  0  0  0  0  0  0  0  0  0  0  0
  -23.3501  -11.5563   21.3117 H   0  0  0  0  0  0  0  0  0  0  0  0
  -22.4617  -13.9664   20.1605 H   0  0  0  0  0  0  0  0  0  0  0  0
  -24.8678  -10.7675   20.7878 H   0  0  0  0  0  0  0  0  0  0  0  0
  -26.3219  -10.9801   19.9230 H   0  0  0  0  0  0  0  0  0  0  0  0
  -27.2811  -16.5972   19.6997 H   0  0  0  0  0  0  0  0  0  0  0  0
  -22.1551  -13.8461   22.6940 H   0  0  0  0  0  0  0  0  0  0  0  0
  -21.3947  -12.3701   22.3343 H   0  0  0  0  0  0  0  0  0  0  0  0
  1 25  1  0  0  0  0
  1 30  2  0  0  0  0
  1 84  1  0  0  0  0
  2  3  1  0  0  0  0
  2 25  1  0  0  0  0
  2 86  1  0  0  0  0
  2 87  1  0  0  0  0
  3  4  1  0  0  0  0
  3 88  1  0  0  0  0
  3 89  1  0  0  0  0
  4  5  1  0  0  0  0
  4 90  1  0  0  0  0
  4 91  1  0  0  0  0
  5  6  1  0  0  0  0
  5 26  1  0  0  0  0
  5 92  1  6  0  0  0
  6 25  1  0  0  0  0
  6 93  1  0  0  0  0
  6 94  1  0  0  0  0
  7  8  2  0  0  0  0
  7 26  1  0  0  0  0
  7 29  1  0  0  0  0
  8  9  1  0  0  0  0
  8 22  1  0  0  0  0
  9 10  1  0  0  0  0
  9 27  2  0  0  0  0
 10 11  2  0  0  0  0
 10 15  1  0  0  0  0
 11 12  1  0  0  0  0
 11 95  1  0  0  0  0
 12 13  2  0  0  0  0
 12 96  1  0  0  0  0
 13 14  1  0  0  0  0
 13 31  1  0  0  0  0
 14 15  2  0  0  0  0
 14 97  1  0  0  0  0
 15 98  1  0  0  0  0
 16 17  2  0  0  0  0
 16 21  1  0  0  0  0
 16 31  1  0  0  0  0
 17 18  1  0  0  0  0
 17 99  1  0  0  0  0
 18 19  2  0  0  0  0
 18100  1  0  0  0  0
 19 20  1  0  0  0  0
 19 24  1  0  0  0  0
 20 21  2  0  0  0  0
 20101  1  0  0  0  0
 21 23  1  0  0  0  0
 22 28  1  0  0  0  0
 22 32  2  0  0  0  0
 26 27  1  0  0  0  0
 28102  1  0  0  0  0
 28103  1  0  0  0  0
 29104  1  0  0  0  0
 29105  1  0  0  0  0
 33 34  1  0  0  0  0
 33 66  1  0  0  0  0
 33 70  2  0  0  0  0
 34 36  1  0  0  0  0
 34 59  1  0  0  0  0
 34106  1  6  0  0  0
 35 44  2  0  0  0  0
 35 45  1  0  0  0  0
 35 68  1  0  0  0  0
 36 56  1  0  0  0  0
 36107  1  0  0  0  0
 37 39  1  0  0  0  0
 37 47  1  0  0  0  0
 37 66  1  0  0  0  0
 37108  1  6  0  0  0
 38 43  2  0  0  0  0
 38 46  1  0  0  0  0
 38 47  1  0  0  0  0
 39 64  1  0  0  0  0
 39 67  2  0  0  0  0
 40 52  1  0  0  0  0
 40 53  2  0  0  0  0
 40 58  1  0  0  0  0
 41109  1  0  0  0  0
 41110  1  0  0  0  0
 41111  1  0  0  0  0
 42 43  1  0  0  0  0
 42 66  1  0  0  0  0
 42112  1  0  0  0  0
 42113  1  0  0  0  0
 43 44  1  0  0  0  0
 44114  1  0  0  0  0
 45 46  2  0  0  0  0
 45115  1  0  0  0  0
 46116  1  0  0  0  0
 47117  1  0  0  0  0
 47118  1  0  0  0  0
 48 41  1  0  0  0  0
 48 56  1  0  0  0  0
 48 65  1  0  0  0  0
 48119  1  1  0  0  0
 49 50  1  0  0  0  0
 49 53  1  0  0  0  0
 49 64  1  0  0  0  0
 49120  1  1  0  0  0
 50 51  1  0  0  0  0
 50121  1  0  0  0  0
 50122  1  0  0  0  0
 51 52  1  0  0  0  0
 51123  1  0  0  0  0
 51124  1  0  0  0  0
 52125  1  0  0  0  0
 52126  1  0  0  0  0
 53 54  1  0  0  0  0
 54 55  2  0  0  0  0
 54127  1  0  0  0  0
 55 57  1  0  0  0  0
 55128  1  0  0  0  0
 56 69  2  0  0  0  0
 57 58  2  0  0  0  0
 57129  1  0  0  0  0
 58130  1  0  0  0  0
 59 60  1  0  0  0  0
 59 61  1  0  0  0  0
 59 62  1  0  0  0  0
 60131  1  0  0  0  0
 60132  1  0  0  0  0
 60133  1  0  0  0  0
 61134  1  0  0  0  0
 61135  1  0  0  0  0
 61136  1  0  0  0  0
 62137  1  0  0  0  0
 62138  1  0  0  0  0
 62139  1  0  0  0  0
 63 65  1  0  0  0  0
 63140  1  0  0  0  0
 63141  1  0  0  0  0
 63142  1  0  0  0  0
 64143  1  0  0  0  0
 65144  1  0  0  0  0
 68 78  1  0  0  0  0
 71 73  2  0  0  0  0
 71 81  1  0  0  0  0
 71145  1  0  0  0  0
 72 74  1  0  0  0  0
 72 79  1  0  0  0  0
 72 81  2  0  0  0  0
 73 82  1  0  0  0  0
 73 84  1  0  0  0  0
 74 82  2  0  0  0  0
 74 83  1  0  0  0  0
 75146  1  0  0  0  0
 75147  1  0  0  0  0
 75148  1  0  0  0  0
 76149  1  0  0  0  0
 76150  1  0  0  0  0
 76151  1  0  0  0  0
 77 78  1  0  0  0  0
 77 80  1  0  0  0  0
 77152  1  0  0  0  0
 77153  1  0  0  0  0
 78154  1  0  0  0  0
 78155  1  0  0  0  0
 79 75  1  0  0  0  0
 79 85  1  0  0  0  0
 79156  1  6  0  0  0
 80 76  1  0  0  0  0
 80 85  1  0  0  0  0
 80157  1  6  0  0  0
 83158  1  0  0  0  0
 83159  1  0  0  0  0
 84160  1  0  0  0  0
 85161  1  0  0  0  0
 85162  1  0  0  0  0
M  ISO  4   1 100  68 101  78 101  84 100
M  CHG  1  85   1
M  END
$$$$
62
 OpenBabel04052305473D

150158  0  0  0  0  0  0  0  0999 V2000
  -30.7652  -14.3608   20.6636 C   0  0  0  0  0  0  0  0  0  0  0  0
  -30.4392  -12.2669   19.3775 C   0  0  0  0  0  0  0  0  0  0  0  0
  -29.4791  -12.5281   18.1977 C   0  0  0  0  0  0  0  0  0  0  0  0
  -27.9985  -12.3963   18.6038 C   0  0  0  0  0  0  0  0  0  0  0  0
  -27.6639  -13.2170   19.8820 C   0  0  2  0  0  0  0  0  0  0  0  0
  -28.6795  -12.9602   21.0279 C   0  0  0  0  0  0  0  0  0  0  0  0
  -25.2633  -13.8245   20.5754 C   0  0  0  0  0  0  0  0  0  0  0  0
  -24.1645  -13.0409   20.9408 C   0  0  0  0  0  0  0  0  0  0  0  0
  -24.6400  -11.7009   20.8697 C   0  0  0  0  0  0  0  0  0  0  0  0
  -23.9005  -10.4085   21.0420 C   0  0  0  0  0  0  0  0  0  0  0  0
  -24.3588   -9.4123   21.9123 C   0  0  0  0  0  0  0  0  0  0  0  0
  -23.6296   -8.2350   22.0803 C   0  0  0  0  0  0  0  0  0  0  0  0
  -22.4385   -8.0419   21.3657 C   0  0  0  0  0  0  0  0  0  0  0  0
  -22.0103   -9.0167   20.4678 C   0  0  0  0  0  0  0  0  0  0  0  0
  -22.7317  -10.1925   20.3102 C   0  0  0  0  0  0  0  0  0  0  0  0
  -21.6857   -6.0709   22.5391 C   0  0  0  0  0  0  0  0  0  0  0  0
  -21.4064   -6.5490   23.8264 C   0  0  0  0  0  0  0  0  0  0  0  0
  -21.3635   -5.6677   24.9085 C   0  0  0  0  0  0  0  0  0  0  0  0
  -21.5973   -4.3067   24.7088 C   0  0  0  0  0  0  0  0  0  0  0  0
  -21.8700   -3.8284   23.4282 C   0  0  0  0  0  0  0  0  0  0  0  0
  -21.9144   -4.7056   22.3460 C   0  0  0  0  0  0  0  0  0  0  0  0
  -22.8194  -13.5263   21.1763 C   0  0  0  0  0  0  0  0  0  0  0  0
  -22.1559   -4.2206   21.1063 F   0  0  0  0  0  0  0  0  0  0  0  0
  -21.5628   -3.4510   25.7555 F   0  0  0  0  0  0  0  0  0  0  0  0
  -30.0261  -13.1803   20.4553 N   0  0  0  0  0  0  0  0  0  0  0  0
  -26.2911  -12.9356   20.3443 N   0  0  0  0  0  0  0  0  0  0  0  0
  -25.9236  -11.6675   20.5847 N   0  0  0  0  0  0  0  0  0  0  0  0
  -22.0708  -12.7905   22.0005 N   0  0  0  0  0  0  0  0  0  0  0  0
  -25.4117  -15.1773   20.4097 N   0  0  0  0  0  0  0  0  0  0  0  0
  -31.7916  -14.6724   20.0536 O   0  0  0  0  0  0  0  0  0  0  0  0
  -21.6670   -6.9022   21.4423 O   0  0  0  0  0  0  0  0  0  0  0  0
  -22.3946  -14.5564   20.6568 O   0  0  0  0  0  0  0  0  0  0  0  0
  -24.6048  -31.8614   23.2223 C   0  0  0  0  0  0  0  0  0  0  0  0
  -25.8822  -32.4841   23.8616 C   0  0  1  0  0  0  0  0  0  0  0  0
  -27.2536  -27.5042   20.1156 C   0  0  0  0  0  0  0  0  0  0  0  0
  -25.5726  -33.8762   24.2210 N   0  0  0  0  0  0  0  0  0  0  0  0
  -23.4066  -30.4859   21.5461 C   0  0  2  0  0  0  0  0  0  0  0  0
  -24.8467  -28.9636   20.1247 C   0  0  0  0  0  0  0  0  0  0  0  0
  -22.7412  -29.4652   22.5052 C   0  0  0  0  0  0  0  0  0  0  0  0
  -18.0167  -28.1302   22.8626 C   0  0  0  0  0  0  0  0  0  0  0  0
  -24.1342  -36.7390   23.2568 C   0  0  0  0  0  0  0  0  0  0  0  0
  -25.9141  -30.8882   21.3456 C   0  0  0  0  0  0  0  0  0  0  0  0
  -25.9930  -29.5029   20.7208 C   0  0  0  0  0  0  0  0  0  0  0  0
  -27.1758  -28.7612   20.7331 C   0  0  0  0  0  0  0  0  0  0  0  0
  -26.1032  -26.9836   19.5230 C   0  0  0  0  0  0  0  0  0  0  0  0
  -24.9097  -27.7011   19.5331 C   0  0  0  0  0  0  0  0  0  0  0  0
  -23.5715  -29.7899   20.1582 C   0  0  0  0  0  0  0  0  0  0  0  0
  -25.3990  -36.3212   24.0232 C   0  0  1  0  0  0  0  0  0  0  0  0
  -20.5793  -28.3813   23.1004 C   0  0  2  0  0  0  0  0  0  0  0  0
  -20.6548  -26.9392   22.5411 C   0  0  0  0  0  0  0  0  0  0  0  0
  -19.5615  -26.6407   21.5143 C   0  0  0  0  0  0  0  0  0  0  0  0
  -18.1797  -26.7818   22.1673 C   0  0  0  0  0  0  0  0  0  0  0  0
  -19.1385  -28.8769   23.2988 C   0  0  0  0  0  0  0  0  0  0  0  0
  -18.9183  -30.1286   23.8878 C   0  0  0  0  0  0  0  0  0  0  0  0
  -17.6396  -30.6493   24.0352 C   0  0  0  0  0  0  0  0  0  0  0  0
  -25.9153  -34.9582   23.4993 C   0  0  0  0  0  0  0  0  0  0  0  0
  -16.5415  -29.9068   23.6254 C   0  0  0  0  0  0  0  0  0  0  0  0
  -16.7331  -28.6521   23.0586 C   0  0  0  0  0  0  0  0  0  0  0  0
  -26.4583  -31.6439   25.0683 C   0  0  0  0  0  0  0  0  0  0  0  0
  -25.3807  -31.3179   26.1374 C   0  0  0  0  0  0  0  0  0  0  0  0
  -27.0530  -30.3024   24.5680 C   0  0  0  0  0  0  0  0  0  0  0  0
  -27.6014  -32.4281   25.7651 C   0  0  0  0  0  0  0  0  0  0  0  0
  -27.5629  -37.2220   24.8621 C   0  0  0  0  0  0  0  0  0  0  0  0
  -21.4133  -29.3375   22.3735 N   0  0  0  0  0  0  0  0  0  0  0  0
  -26.4706  -37.3372   23.9061 N   0  0  0  0  0  0  0  0  0  0  0  0
  -24.6674  -31.0544   22.1178 N   0  0  0  0  0  0  0  0  0  0  0  0
  -23.4259  -28.8150   23.2971 O   0  0  0  0  0  0  0  0  0  0  0  0
  -28.3948  -26.7345   20.0089 O   0  0  0  0  0  0  0  0  0  0  0  0
  -26.5870  -34.9065   22.4671 O   0  0  0  0  0  0  0  0  0  0  0  0
  -23.5365  -32.1254   23.7833 O   0  0  0  0  0  0  0  0  0  0  0  0
  -30.5729  -16.0356   24.2070 C   0  0  0  0  0  0  0  0  0  0  0  0
  -32.5765  -16.8477   23.7796 C   0  0  0  0  0  0  0  0  0  0  0  0
  -31.0598  -15.5686   23.0089 C   0  0  0  0  0  0  0  0  0  0  0  0
  -31.5196  -17.6262   25.9857 C   0  0  0  0  0  0  0  0  0  0  0  0
  -29.8474  -19.2940   25.0775 C   0  0  0  0  0  0  0  0  0  0  0  0
  -31.1754  -19.1101   25.8073 C   0  0  1  0  0  0  0  0  0  0  0  0
  -32.3075  -16.0776   22.7488 N   0  0  0  0  0  0  0  0  0  0  0  0
  -31.5558  -16.8534   24.6892 N   0  0  0  0  0  0  0  0  0  0  0  0
  -30.3934  -14.6801   22.1290 N   0  0  0  0  0  0  0  0  0  0  0  0
  -31.0517  -19.7496   27.1534 N   0  3  0  0  0  0  0  0  0  0  0  0
  -31.4485  -12.4701   19.0860 H   0  0  0  0  0  0  0  0  0  0  0  0
  -30.3970  -11.2460   19.6950 H   0  0  0  0  0  0  0  0  0  0  0  0
  -29.6870  -11.8204   17.4226 H   0  0  0  0  0  0  0  0  0  0  0  0
  -29.6375  -13.5326   17.8649 H   0  0  0  0  0  0  0  0  0  0  0  0
  -27.7830  -11.3650   18.7904 H   0  0  0  0  0  0  0  0  0  0  0  0
  -27.4028  -12.7801   17.8021 H   0  0  0  0  0  0  0  0  0  0  0  0
  -27.7353  -14.2503   19.6136 H   0  0  0  0  0  0  0  0  0  0  0  0
  -28.5890  -11.9550   21.3832 H   0  0  0  0  0  0  0  0  0  0  0  0
  -28.5005  -13.6134   21.8562 H   0  0  0  0  0  0  0  0  0  0  0  0
  -25.2399   -9.5495   22.4318 H   0  0  0  0  0  0  0  0  0  0  0  0
  -23.9663   -7.5070   22.7297 H   0  0  0  0  0  0  0  0  0  0  0  0
  -21.1515   -8.8641   19.9162 H   0  0  0  0  0  0  0  0  0  0  0  0
  -22.4016  -10.9115   19.6476 H   0  0  0  0  0  0  0  0  0  0  0  0
  -21.2319   -7.5552   23.9750 H   0  0  0  0  0  0  0  0  0  0  0  0
  -21.1589   -6.0228   25.8556 H   0  0  0  0  0  0  0  0  0  0  0  0
  -22.0396   -2.8212   23.2809 H   0  0  0  0  0  0  0  0  0  0  0  0
  -22.4401  -11.9703   22.4008 H   0  0  0  0  0  0  0  0  0  0  0  0
  -21.1493  -13.0679   22.2082 H   0  0  0  0  0  0  0  0  0  0  0  0
  -24.6538  -15.7807   20.5848 H   0  0  0  0  0  0  0  0  0  0  0  0
  -26.2762  -15.5453   20.1156 H   0  0  0  0  0  0  0  0  0  0  0  0
  -26.6778  -32.4663   23.1464 H   0  0  0  0  0  0  0  0  0  0  0  0
  -25.0747  -34.0282   25.0566 H   0  0  0  0  0  0  0  0  0  0  0  0
  -22.7881  -31.3489   21.4131 H   0  0  0  0  0  0  0  0  0  0  0  0
  -23.3854  -35.9823   23.3648 H   0  0  0  0  0  0  0  0  0  0  0  0
  -24.3696  -36.8624   22.2204 H   0  0  0  0  0  0  0  0  0  0  0  0
  -23.7669  -37.6632   23.6516 H   0  0  0  0  0  0  0  0  0  0  0  0
  -25.9445  -31.6237   20.5691 H   0  0  0  0  0  0  0  0  0  0  0  0
  -26.7436  -31.0079   22.0108 H   0  0  0  0  0  0  0  0  0  0  0  0
  -28.0090  -29.1452   21.2057 H   0  0  0  0  0  0  0  0  0  0  0  0
  -26.1369  -26.0560   19.0719 H   0  0  0  0  0  0  0  0  0  0  0  0
  -24.0652  -27.2961   19.0997 H   0  0  0  0  0  0  0  0  0  0  0  0
  -23.6156  -30.5365   19.3930 H   0  0  0  0  0  0  0  0  0  0  0  0
  -22.7355  -29.1425   19.9945 H   0  0  0  0  0  0  0  0  0  0  0  0
  -25.1353  -36.2335   25.0565 H   0  0  0  0  0  0  0  0  0  0  0  0
  -21.0070  -28.3206   24.0793 H   0  0  0  0  0  0  0  0  0  0  0  0
  -20.5555  -26.2518   23.3550 H   0  0  0  0  0  0  0  0  0  0  0  0
  -21.5974  -26.8362   22.0454 H   0  0  0  0  0  0  0  0  0  0  0  0
  -19.6810  -25.6422   21.1488 H   0  0  0  0  0  0  0  0  0  0  0  0
  -19.6406  -27.3343   20.7034 H   0  0  0  0  0  0  0  0  0  0  0  0
  -17.4282  -26.6888   21.4113 H   0  0  0  0  0  0  0  0  0  0  0  0
  -18.0803  -26.0130   22.9049 H   0  0  0  0  0  0  0  0  0  0  0  0
  -19.7265  -30.6774   24.2204 H   0  0  0  0  0  0  0  0  0  0  0  0
  -17.5064  -31.5856   24.4483 H   0  0  0  0  0  0  0  0  0  0  0  0
  -15.5878  -30.2839   23.7407 H   0  0  0  0  0  0  0  0  0  0  0  0
  -15.9120  -28.0941   22.7766 H   0  0  0  0  0  0  0  0  0  0  0  0
  -24.5787  -30.7757   25.6817 H   0  0  0  0  0  0  0  0  0  0  0  0
  -25.0041  -32.2289   26.5536 H   0  0  0  0  0  0  0  0  0  0  0  0
  -25.8166  -30.7245   26.9138 H   0  0  0  0  0  0  0  0  0  0  0  0
  -26.2892  -29.7335   24.0803 H   0  0  0  0  0  0  0  0  0  0  0  0
  -27.4336  -29.7484   25.4006 H   0  0  0  0  0  0  0  0  0  0  0  0
  -27.8466  -30.4994   23.8779 H   0  0  0  0  0  0  0  0  0  0  0  0
  -27.2251  -33.3632   26.1242 H   0  0  0  0  0  0  0  0  0  0  0  0
  -28.3902  -32.6065   25.0645 H   0  0  0  0  0  0  0  0  0  0  0  0
  -27.9772  -31.8555   26.5872 H   0  0  0  0  0  0  0  0  0  0  0  0
  -28.2744  -38.0016   24.6863 H   0  0  0  0  0  0  0  0  0  0  0  0
  -28.0396  -36.2711   24.7461 H   0  0  0  0  0  0  0  0  0  0  0  0
  -27.1773  -37.3087   25.8564 H   0  0  0  0  0  0  0  0  0  0  0  0
  -20.9627  -29.9365   21.7352 H   0  0  0  0  0  0  0  0  0  0  0  0
  -26.0447  -38.2561   24.0273 H   0  0  0  0  0  0  0  0  0  0  0  0
  -29.6648  -15.8166   24.6457 H   0  0  0  0  0  0  0  0  0  0  0  0
  -33.4520  -17.3831   23.8890 H   0  0  0  0  0  0  0  0  0  0  0  0
  -30.7837  -17.1826   26.6233 H   0  0  0  0  0  0  0  0  0  0  0  0
  -32.5028  -17.5807   26.4054 H   0  0  0  0  0  0  0  0  0  0  0  0
  -29.0807  -19.2750   25.8236 H   0  0  0  0  0  0  0  0  0  0  0  0
  -29.8542  -18.5043   24.3555 H   0  0  0  0  0  0  0  0  0  0  0  0
  -31.9562  -19.5597   25.2301 H   0  0  0  0  0  0  0  0  0  0  0  0
  -29.6056  -14.2142   22.4918 H   0  0  0  0  0  0  0  0  0  0  0  0
  -30.3008  -19.2989   27.6762 H   0  0  0  0  0  0  0  0  0  0  0  0
  -30.8400  -20.7410   27.0407 H   0  0  0  0  0  0  0  0  0  0  0  0
  -31.9300  -19.6451   27.6615 H   0  0  0  0  0  0  0  0  0  0  0  0
  1 25  1  0  0  0  0
  1 30  2  0  0  0  0
  1 79  1  0  0  0  0
  2  3  1  0  0  0  0
  2 25  1  0  0  0  0
  2 81  1  0  0  0  0
  2 82  1  0  0  0  0
  3  4  1  0  0  0  0
  3 83  1  0  0  0  0
  3 84  1  0  0  0  0
  4  5  1  0  0  0  0
  4 85  1  0  0  0  0
  4 86  1  0  0  0  0
  5  6  1  0  0  0  0
  5 26  1  0  0  0  0
  5 87  1  6  0  0  0
  6 25  1  0  0  0  0
  6 88  1  0  0  0  0
  6 89  1  0  0  0  0
  7  8  2  0  0  0  0
  7 26  1  0  0  0  0
  7 29  1  0  0  0  0
  8  9  1  0  0  0  0
  8 22  1  0  0  0  0
  9 10  1  0  0  0  0
  9 27  2  0  0  0  0
 10 11  2  0  0  0  0
 10 15  1  0  0  0  0
 11 12  1  0  0  0  0
 11 90  1  0  0  0  0
 12 13  2  0  0  0  0
 12 91  1  0  0  0  0
 13 14  1  0  0  0  0
 13 31  1  0  0  0  0
 14 15  2  0  0  0  0
 14 92  1  0  0  0  0
 15 93  1  0  0  0  0
 16 17  2  0  0  0  0
 16 21  1  0  0  0  0
 16 31  1  0  0  0  0
 17 18  1  0  0  0  0
 17 94  1  0  0  0  0
 18 19  2  0  0  0  0
 18 95  1  0  0  0  0
 19 20  1  0  0  0  0
 19 24  1  0  0  0  0
 20 21  2  0  0  0  0
 20 96  1  0  0  0  0
 21 23  1  0  0  0  0
 22 28  1  0  0  0  0
 22 32  2  0  0  0  0
 26 27  1  0  0  0  0
 28 97  1  0  0  0  0
 28 98  1  0  0  0  0
 29 99  1  0  0  0  0
 29100  1  0  0  0  0
 33 34  1  0  0  0  0
 33 66  1  0  0  0  0
 33 70  2  0  0  0  0
 34 36  1  0  0  0  0
 34 59  1  0  0  0  0
 34101  1  6  0  0  0
 35 44  2  0  0  0  0
 35 45  1  0  0  0  0
 35 68  1  0  0  0  0
 36 56  1  0  0  0  0
 36102  1  0  0  0  0
 37 39  1  0  0  0  0
 37 47  1  0  0  0  0
 37 66  1  0  0  0  0
 37103  1  6  0  0  0
 38 43  2  0  0  0  0
 38 46  1  0  0  0  0
 38 47  1  0  0  0  0
 39 64  1  0  0  0  0
 39 67  2  0  0  0  0
 40 52  1  0  0  0  0
 40 53  2  0  0  0  0
 40 58  1  0  0  0  0
 41104  1  0  0  0  0
 41105  1  0  0  0  0
 41106  1  0  0  0  0
 42 43  1  0  0  0  0
 42 66  1  0  0  0  0
 42107  1  0  0  0  0
 42108  1  0  0  0  0
 43 44  1  0  0  0  0
 44109  1  0  0  0  0
 45 46  2  0  0  0  0
 45110  1  0  0  0  0
 46111  1  0  0  0  0
 47112  1  0  0  0  0
 47113  1  0  0  0  0
 48 41  1  0  0  0  0
 48 56  1  0  0  0  0
 48 65  1  0  0  0  0
 48114  1  1  0  0  0
 49 50  1  0  0  0  0
 49 53  1  0  0  0  0
 49 64  1  0  0  0  0
 49115  1  1  0  0  0
 50 51  1  0  0  0  0
 50116  1  0  0  0  0
 50117  1  0  0  0  0
 51 52  1  0  0  0  0
 51118  1  0  0  0  0
 51119  1  0  0  0  0
 52120  1  0  0  0  0
 52121  1  0  0  0  0
 53 54  1  0  0  0  0
 54 55  2  0  0  0  0
 54122  1  0  0  0  0
 55 57  1  0  0  0  0
 55123  1  0  0  0  0
 56 69  2  0  0  0  0
 57 58  2  0  0  0  0
 57124  1  0  0  0  0
 58125  1  0  0  0  0
 59 60  1  0  0  0  0
 59 61  1  0  0  0  0
 59 62  1  0  0  0  0
 60126  1  0  0  0  0
 60127  1  0  0  0  0
 60128  1  0  0  0  0
 61129  1  0  0  0  0
 61130  1  0  0  0  0
 61131  1  0  0  0  0
 62132  1  0  0  0  0
 62133  1  0  0  0  0
 62134  1  0  0  0  0
 63 65  1  0  0  0  0
 63135  1  0  0  0  0
 63136  1  0  0  0  0
 63137  1  0  0  0  0
 64138  1  0  0  0  0
 65139  1  0  0  0  0
 68 75  1  0  0  0  0
 71 73  2  0  0  0  0
 71 78  1  0  0  0  0
 71140  1  0  0  0  0
 72 77  2  0  0  0  0
 72 78  1  0  0  0  0
 72141  1  0  0  0  0
 73 77  1  0  0  0  0
 73 79  1  0  0  0  0
 74 76  1  0  0  0  0
 74 78  1  0  0  0  0
 74142  1  0  0  0  0
 74143  1  0  0  0  0
 75 76  1  0  0  0  0
 75144  1  0  0  0  0
 75145  1  0  0  0  0
 76 80  1  0  0  0  0
 76146  1  6  0  0  0
 79147  1  0  0  0  0
 80148  1  0  0  0  0
 80149  1  0  0  0  0
 80150  1  0  0  0  0
M  ISO  4   1 100  68 101  75 101  79 100
M  CHG  1  80   1
M  END
$$$$
63
 OpenBabel04052305473D

148156  0  0  0  0  0  0  0  0999 V2000
  -30.7652  -14.3608   20.6636 C   0  0  0  0  0  0  0  0  0  0  0  0
  -30.4392  -12.2669   19.3775 C   0  0  0  0  0  0  0  0  0  0  0  0
  -29.4791  -12.5281   18.1977 C   0  0  0  0  0  0  0  0  0  0  0  0
  -27.9985  -12.3963   18.6038 C   0  0  0  0  0  0  0  0  0  0  0  0
  -27.6639  -13.2170   19.8820 C   0  0  2  0  0  0  0  0  0  0  0  0
  -28.6795  -12.9602   21.0279 C   0  0  0  0  0  0  0  0  0  0  0  0
  -25.2633  -13.8245   20.5754 C   0  0  0  0  0  0  0  0  0  0  0  0
  -24.1645  -13.0409   20.9408 C   0  0  0  0  0  0  0  0  0  0  0  0
  -24.6400  -11.7009   20.8697 C   0  0  0  0  0  0  0  0  0  0  0  0
  -23.9005  -10.4085   21.0420 C   0  0  0  0  0  0  0  0  0  0  0  0
  -24.3588   -9.4123   21.9123 C   0  0  0  0  0  0  0  0  0  0  0  0
  -23.6296   -8.2350   22.0803 C   0  0  0  0  0  0  0  0  0  0  0  0
  -22.4385   -8.0419   21.3657 C   0  0  0  0  0  0  0  0  0  0  0  0
  -22.0103   -9.0167   20.4678 C   0  0  0  0  0  0  0  0  0  0  0  0
  -22.7317  -10.1925   20.3102 C   0  0  0  0  0  0  0  0  0  0  0  0
  -21.6857   -6.0709   22.5391 C   0  0  0  0  0  0  0  0  0  0  0  0
  -21.4064   -6.5490   23.8264 C   0  0  0  0  0  0  0  0  0  0  0  0
  -21.3635   -5.6677   24.9085 C   0  0  0  0  0  0  0  0  0  0  0  0
  -21.5973   -4.3067   24.7088 C   0  0  0  0  0  0  0  0  0  0  0  0
  -21.8700   -3.8284   23.4282 C   0  0  0  0  0  0  0  0  0  0  0  0
  -21.9144   -4.7056   22.3460 C   0  0  0  0  0  0  0  0  0  0  0  0
  -22.8194  -13.5263   21.1763 C   0  0  0  0  0  0  0  0  0  0  0  0
  -22.1559   -4.2206   21.1063 F   0  0  0  0  0  0  0  0  0  0  0  0
  -21.5628   -3.4510   25.7555 F   0  0  0  0  0  0  0  0  0  0  0  0
  -30.0261  -13.1803   20.4553 N   0  0  0  0  0  0  0  0  0  0  0  0
  -26.2911  -12.9356   20.3443 N   0  0  0  0  0  0  0  0  0  0  0  0
  -25.9236  -11.6675   20.5847 N   0  0  0  0  0  0  0  0  0  0  0  0
  -22.0708  -12.7905   22.0005 N   0  0  0  0  0  0  0  0  0  0  0  0
  -25.4117  -15.1773   20.4097 N   0  0  0  0  0  0  0  0  0  0  0  0
  -31.7916  -14.6724   20.0536 O   0  0  0  0  0  0  0  0  0  0  0  0
  -21.6670   -6.9022   21.4423 O   0  0  0  0  0  0  0  0  0  0  0  0
  -22.3946  -14.5564   20.6568 O   0  0  0  0  0  0  0  0  0  0  0  0
  -24.6048  -31.8614   23.2223 C   0  0  0  0  0  0  0  0  0  0  0  0
  -25.8822  -32.4841   23.8616 C   0  0  1  0  0  0  0  0  0  0  0  0
  -27.2536  -27.5042   20.1156 C   0  0  0  0  0  0  0  0  0  0  0  0
  -25.5726  -33.8762   24.2210 N   0  0  0  0  0  0  0  0  0  0  0  0
  -23.4066  -30.4859   21.5461 C   0  0  2  0  0  0  0  0  0  0  0  0
  -24.8467  -28.9636   20.1247 C   0  0  0  0  0  0  0  0  0  0  0  0
  -22.7412  -29.4652   22.5052 C   0  0  0  0  0  0  0  0  0  0  0  0
  -18.0167  -28.1302   22.8626 C   0  0  0  0  0  0  0  0  0  0  0  0
  -24.1342  -36.7390   23.2568 C   0  0  0  0  0  0  0  0  0  0  0  0
  -25.9141  -30.8882   21.3456 C   0  0  0  0  0  0  0  0  0  0  0  0
  -25.9930  -29.5029   20.7208 C   0  0  0  0  0  0  0  0  0  0  0  0
  -27.1758  -28.7612   20.7331 C   0  0  0  0  0  0  0  0  0  0  0  0
  -26.1032  -26.9836   19.5230 C   0  0  0  0  0  0  0  0  0  0  0  0
  -24.9097  -27.7011   19.5331 C   0  0  0  0  0  0  0  0  0  0  0  0
  -23.5715  -29.7899   20.1582 C   0  0  0  0  0  0  0  0  0  0  0  0
  -25.3990  -36.3212   24.0232 C   0  0  1  0  0  0  0  0  0  0  0  0
  -20.5793  -28.3813   23.1004 C   0  0  2  0  0  0  0  0  0  0  0  0
  -20.6548  -26.9392   22.5411 C   0  0  0  0  0  0  0  0  0  0  0  0
  -19.5615  -26.6407   21.5143 C   0  0  0  0  0  0  0  0  0  0  0  0
  -18.1797  -26.7818   22.1673 C   0  0  0  0  0  0  0  0  0  0  0  0
  -19.1385  -28.8769   23.2988 C   0  0  0  0  0  0  0  0  0  0  0  0
  -18.9183  -30.1286   23.8878 C   0  0  0  0  0  0  0  0  0  0  0  0
  -17.6396  -30.6493   24.0352 C   0  0  0  0  0  0  0  0  0  0  0  0
  -25.9153  -34.9582   23.4993 C   0  0  0  0  0  0  0  0  0  0  0  0
  -16.5415  -29.9068   23.6254 C   0  0  0  0  0  0  0  0  0  0  0  0
  -16.7331  -28.6521   23.0586 C   0  0  0  0  0  0  0  0  0  0  0  0
  -26.4583  -31.6439   25.0683 C   0  0  0  0  0  0  0  0  0  0  0  0
  -25.3807  -31.3179   26.1374 C   0  0  0  0  0  0  0  0  0  0  0  0
  -27.0530  -30.3024   24.5680 C   0  0  0  0  0  0  0  0  0  0  0  0
  -27.6014  -32.4281   25.7651 C   0  0  0  0  0  0  0  0  0  0  0  0
  -27.5629  -37.2220   24.8621 C   0  0  0  0  0  0  0  0  0  0  0  0
  -21.4133  -29.3375   22.3735 N   0  0  0  0  0  0  0  0  0  0  0  0
  -26.4706  -37.3372   23.9061 N   0  0  0  0  0  0  0  0  0  0  0  0
  -24.6674  -31.0544   22.1178 N   0  0  0  0  0  0  0  0  0  0  0  0
  -23.4259  -28.8150   23.2971 O   0  0  0  0  0  0  0  0  0  0  0  0
  -28.3948  -26.7345   20.0089 O   0  0  0  0  0  0  0  0  0  0  0  0
  -26.5870  -34.9065   22.4671 O   0  0  0  0  0  0  0  0  0  0  0  0
  -23.5365  -32.1254   23.7833 O   0  0  0  0  0  0  0  0  0  0  0  0
  -29.5023  -22.5328   19.1332 C   0  0  0  0  0  0  0  0  0  0  0  0
  -28.1386  -22.7731   17.2664 C   0  0  0  0  0  0  0  0  0  0  0  0
  -29.0020  -23.4114   18.1293 C   0  0  0  0  0  0  0  0  0  0  0  0
  -29.0019  -21.2562   18.9994 C   0  0  0  0  0  0  0  0  0  0  0  0
  -30.1941  -25.5180   18.8258 C   0  0  0  0  0  0  0  0  0  0  0  0
  -30.2740  -26.9629   18.3462 C   0  0  0  0  0  0  0  0  0  0  0  0
  -28.9281  -27.6716   18.3577 C   0  0  0  0  0  0  0  0  0  0  0  0
  -29.3377  -24.7812   18.0120 N   0  0  0  0  0  0  0  0  0  0  0  0
  -29.2279  -20.0865   19.7666 N   0  0  0  0  0  0  0  0  0  0  0  0
  -30.8208  -25.1184   19.8014 O   0  0  0  0  0  0  0  0  0  0  0  0
  -27.9339  -21.1210   17.6677 S   0  0  0  0  0  0  0  0  0  0  0  0
  -31.4485  -12.4701   19.0860 H   0  0  0  0  0  0  0  0  0  0  0  0
  -30.3970  -11.2460   19.6950 H   0  0  0  0  0  0  0  0  0  0  0  0
  -29.6870  -11.8204   17.4226 H   0  0  0  0  0  0  0  0  0  0  0  0
  -29.6375  -13.5326   17.8649 H   0  0  0  0  0  0  0  0  0  0  0  0
  -27.7830  -11.3650   18.7904 H   0  0  0  0  0  0  0  0  0  0  0  0
  -27.4028  -12.7801   17.8021 H   0  0  0  0  0  0  0  0  0  0  0  0
  -27.7353  -14.2503   19.6136 H   0  0  0  0  0  0  0  0  0  0  0  0
  -28.5890  -11.9550   21.3832 H   0  0  0  0  0  0  0  0  0  0  0  0
  -28.5005  -13.6134   21.8562 H   0  0  0  0  0  0  0  0  0  0  0  0
  -25.2399   -9.5495   22.4318 H   0  0  0  0  0  0  0  0  0  0  0  0
  -23.9663   -7.5070   22.7297 H   0  0  0  0  0  0  0  0  0  0  0  0
  -21.1515   -8.8641   19.9162 H   0  0  0  0  0  0  0  0  0  0  0  0
  -22.4016  -10.9115   19.6476 H   0  0  0  0  0  0  0  0  0  0  0  0
  -21.2319   -7.5552   23.9750 H   0  0  0  0  0  0  0  0  0  0  0  0
  -21.1589   -6.0228   25.8556 H   0  0  0  0  0  0  0  0  0  0  0  0
  -22.0396   -2.8212   23.2809 H   0  0  0  0  0  0  0  0  0  0  0  0
  -22.4401  -11.9703   22.4008 H   0  0  0  0  0  0  0  0  0  0  0  0
  -21.1493  -13.0679   22.2082 H   0  0  0  0  0  0  0  0  0  0  0  0
  -24.6538  -15.7807   20.5848 H   0  0  0  0  0  0  0  0  0  0  0  0
  -26.2762  -15.5453   20.1156 H   0  0  0  0  0  0  0  0  0  0  0  0
  -26.6778  -32.4663   23.1464 H   0  0  0  0  0  0  0  0  0  0  0  0
  -25.0747  -34.0282   25.0566 H   0  0  0  0  0  0  0  0  0  0  0  0
  -22.7881  -31.3489   21.4131 H   0  0  0  0  0  0  0  0  0  0  0  0
  -23.3854  -35.9823   23.3648 H   0  0  0  0  0  0  0  0  0  0  0  0
  -24.3696  -36.8624   22.2204 H   0  0  0  0  0  0  0  0  0  0  0  0
  -23.7669  -37.6632   23.6516 H   0  0  0  0  0  0  0  0  0  0  0  0
  -25.9445  -31.6237   20.5691 H   0  0  0  0  0  0  0  0  0  0  0  0
  -26.7436  -31.0079   22.0108 H   0  0  0  0  0  0  0  0  0  0  0  0
  -28.0090  -29.1452   21.2057 H   0  0  0  0  0  0  0  0  0  0  0  0
  -26.1369  -26.0560   19.0719 H   0  0  0  0  0  0  0  0  0  0  0  0
  -24.0652  -27.2961   19.0997 H   0  0  0  0  0  0  0  0  0  0  0  0
  -23.6156  -30.5365   19.3930 H   0  0  0  0  0  0  0  0  0  0  0  0
  -22.7355  -29.1425   19.9945 H   0  0  0  0  0  0  0  0  0  0  0  0
  -25.1353  -36.2335   25.0565 H   0  0  0  0  0  0  0  0  0  0  0  0
  -21.0070  -28.3206   24.0793 H   0  0  0  0  0  0  0  0  0  0  0  0
  -20.5555  -26.2518   23.3550 H   0  0  0  0  0  0  0  0  0  0  0  0
  -21.5974  -26.8362   22.0454 H   0  0  0  0  0  0  0  0  0  0  0  0
  -19.6810  -25.6422   21.1488 H   0  0  0  0  0  0  0  0  0  0  0  0
  -19.6406  -27.3343   20.7034 H   0  0  0  0  0  0  0  0  0  0  0  0
  -17.4282  -26.6888   21.4113 H   0  0  0  0  0  0  0  0  0  0  0  0
  -18.0803  -26.0130   22.9049 H   0  0  0  0  0  0  0  0  0  0  0  0
  -19.7265  -30.6774   24.2204 H   0  0  0  0  0  0  0  0  0  0  0  0
  -17.5064  -31.5856   24.4483 H   0  0  0  0  0  0  0  0  0  0  0  0
  -15.5878  -30.2839   23.7407 H   0  0  0  0  0  0  0  0  0  0  0  0
  -15.9120  -28.0941   22.7766 H   0  0  0  0  0  0  0  0  0  0  0  0
  -24.5787  -30.7757   25.6817 H   0  0  0  0  0  0  0  0  0  0  0  0
  -25.0041  -32.2289   26.5536 H   0  0  0  0  0  0  0  0  0  0  0  0
  -25.8166  -30.7245   26.9138 H   0  0  0  0  0  0  0  0  0  0  0  0
  -26.2892  -29.7335   24.0803 H   0  0  0  0  0  0  0  0  0  0  0  0
  -27.4336  -29.7484   25.4006 H   0  0  0  0  0  0  0  0  0  0  0  0
  -27.8466  -30.4994   23.8779 H   0  0  0  0  0  0  0  0  0  0  0  0
  -27.2251  -33.3632   26.1242 H   0  0  0  0  0  0  0  0  0  0  0  0
  -28.3902  -32.6065   25.0645 H   0  0  0  0  0  0  0  0  0  0  0  0
  -27.9772  -31.8555   26.5872 H   0  0  0  0  0  0  0  0  0  0  0  0
  -28.2744  -38.0016   24.6863 H   0  0  0  0  0  0  0  0  0  0  0  0
  -28.0396  -36.2711   24.7461 H   0  0  0  0  0  0  0  0  0  0  0  0
  -27.1773  -37.3087   25.8564 H   0  0  0  0  0  0  0  0  0  0  0  0
  -20.9627  -29.9365   21.7352 H   0  0  0  0  0  0  0  0  0  0  0  0
  -26.0447  -38.2561   24.0273 H   0  0  0  0  0  0  0  0  0  0  0  0
  -30.1619  -22.8190   19.8735 H   0  0  0  0  0  0  0  0  0  0  0  0
  -27.6703  -23.2360   16.4717 H   0  0  0  0  0  0  0  0  0  0  0  0
  -30.6533  -26.9690   17.3457 H   0  0  0  0  0  0  0  0  0  0  0  0
  -30.9164  -27.4879   19.0219 H   0  0  0  0  0  0  0  0  0  0  0  0
  -28.3124  -27.4421   17.5132 H   0  0  0  0  0  0  0  0  0  0  0  0
  -28.8921  -28.7403   18.3202 H   0  0  0  0  0  0  0  0  0  0  0  0
  -28.9166  -25.2701   17.2684 H   0  0  0  0  0  0  0  0  0  0  0  0
  -29.0028  -20.3872   20.6767 H   0  0  0  0  0  0  0  0  0  0  0  0
  1 25  1  0  0  0  0
  1 30  2  0  0  0  0
  1 79  1  0  0  0  0
  2  3  1  0  0  0  0
  2 25  1  0  0  0  0
  2 82  1  0  0  0  0
  2 83  1  0  0  0  0
  3  4  1  0  0  0  0
  3 84  1  0  0  0  0
  3 85  1  0  0  0  0
  4  5  1  0  0  0  0
  4 86  1  0  0  0  0
  4 87  1  0  0  0  0
  5  6  1  0  0  0  0
  5 26  1  0  0  0  0
  5 88  1  6  0  0  0
  6 25  1  0  0  0  0
  6 89  1  0  0  0  0
  6 90  1  0  0  0  0
  7  8  2  0  0  0  0
  7 26  1  0  0  0  0
  7 29  1  0  0  0  0
  8  9  1  0  0  0  0
  8 22  1  0  0  0  0
  9 10  1  0  0  0  0
  9 27  2  0  0  0  0
 10 11  2  0  0  0  0
 10 15  1  0  0  0  0
 11 12  1  0  0  0  0
 11 91  1  0  0  0  0
 12 13  2  0  0  0  0
 12 92  1  0  0  0  0
 13 14  1  0  0  0  0
 13 31  1  0  0  0  0
 14 15  2  0  0  0  0
 14 93  1  0  0  0  0
 15 94  1  0  0  0  0
 16 17  2  0  0  0  0
 16 21  1  0  0  0  0
 16 31  1  0  0  0  0
 17 18  1  0  0  0  0
 17 95  1  0  0  0  0
 18 19  2  0  0  0  0
 18 96  1  0  0  0  0
 19 20  1  0  0  0  0
 19 24  1  0  0  0  0
 20 21  2  0  0  0  0
 20 97  1  0  0  0  0
 21 23  1  0  0  0  0
 22 28  1  0  0  0  0
 22 32  2  0  0  0  0
 26 27  1  0  0  0  0
 28 98  1  0  0  0  0
 28 99  1  0  0  0  0
 29100  1  0  0  0  0
 29101  1  0  0  0  0
 33 34  1  0  0  0  0
 33 66  1  0  0  0  0
 33 70  2  0  0  0  0
 34 36  1  0  0  0  0
 34 59  1  0  0  0  0
 34102  1  6  0  0  0
 35 44  2  0  0  0  0
 35 45  1  0  0  0  0
 35 68  1  0  0  0  0
 36 56  1  0  0  0  0
 36103  1  0  0  0  0
 37 39  1  0  0  0  0
 37 47  1  0  0  0  0
 37 66  1  0  0  0  0
 37104  1  6  0  0  0
 38 43  2  0  0  0  0
 38 46  1  0  0  0  0
 38 47  1  0  0  0  0
 39 64  1  0  0  0  0
 39 67  2  0  0  0  0
 40 52  1  0  0  0  0
 40 53  2  0  0  0  0
 40 58  1  0  0  0  0
 41105  1  0  0  0  0
 41106  1  0  0  0  0
 41107  1  0  0  0  0
 42 43  1  0  0  0  0
 42 66  1  0  0  0  0
 42108  1  0  0  0  0
 42109  1  0  0  0  0
 43 44  1  0  0  0  0
 44110  1  0  0  0  0
 45 46  2  0  0  0  0
 45111  1  0  0  0  0
 46112  1  0  0  0  0
 47113  1  0  0  0  0
 47114  1  0  0  0  0
 48 41  1  0  0  0  0
 48 56  1  0  0  0  0
 48 65  1  0  0  0  0
 48115  1  1  0  0  0
 49 50  1  0  0  0  0
 49 53  1  0  0  0  0
 49 64  1  0  0  0  0
 49116  1  1  0  0  0
 50 51  1  0  0  0  0
 50117  1  0  0  0  0
 50118  1  0  0  0  0
 51 52  1  0  0  0  0
 51119  1  0  0  0  0
 51120  1  0  0  0  0
 52121  1  0  0  0  0
 52122  1  0  0  0  0
 53 54  1  0  0  0  0
 54 55  2  0  0  0  0
 54123  1  0  0  0  0
 55 57  1  0  0  0  0
 55124  1  0  0  0  0
 56 69  2  0  0  0  0
 57 58  2  0  0  0  0
 57125  1  0  0  0  0
 58126  1  0  0  0  0
 59 60  1  0  0  0  0
 59 61  1  0  0  0  0
 59 62  1  0  0  0  0
 60127  1  0  0  0  0
 60128  1  0  0  0  0
 60129  1  0  0  0  0
 61130  1  0  0  0  0
 61131  1  0  0  0  0
 61132  1  0  0  0  0
 62133  1  0  0  0  0
 62134  1  0  0  0  0
 62135  1  0  0  0  0
 63 65  1  0  0  0  0
 63136  1  0  0  0  0
 63137  1  0  0  0  0
 63138  1  0  0  0  0
 64139  1  0  0  0  0
 65140  1  0  0  0  0
 68 77  1  0  0  0  0
 71 73  1  0  0  0  0
 71 74  2  0  0  0  0
 71141  1  0  0  0  0
 72 73  2  0  0  0  0
 72 81  1  0  0  0  0
 72142  1  0  0  0  0
 73 78  1  0  0  0  0
 74 79  1  0  0  0  0
 74 81  1  0  0  0  0
 75 76  1  0  0  0  0
 75 78  1  0  0  0  0
 75 80  2  0  0  0  0
 76 77  1  0  0  0  0
 76143  1  0  0  0  0
 76144  1  0  0  0  0
 77145  1  0  0  0  0
 77146  1  0  0  0  0
 78147  1  0  0  0  0
 79148  1  0  0  0  0
M  ISO  4   1 100  68 101  77 101  79 100
M  END
$$$$
64
 OpenBabel04052305473D

153161  0  0  0  0  0  0  0  0999 V2000
  -30.7652  -14.3608   20.6636 C   0  0  0  0  0  0  0  0  0  0  0  0
  -30.4392  -12.2669   19.3775 C   0  0  0  0  0  0  0  0  0  0  0  0
  -29.4791  -12.5281   18.1977 C   0  0  0  0  0  0  0  0  0  0  0  0
  -27.9985  -12.3963   18.6038 C   0  0  0  0  0  0  0  0  0  0  0  0
  -27.6639  -13.2170   19.8820 C   0  0  2  0  0  0  0  0  0  0  0  0
  -28.6795  -12.9602   21.0279 C   0  0  0  0  0  0  0  0  0  0  0  0
  -25.2633  -13.8245   20.5754 C   0  0  0  0  0  0  0  0  0  0  0  0
  -24.1645  -13.0409   20.9408 C   0  0  0  0  0  0  0  0  0  0  0  0
  -24.6400  -11.7009   20.8697 C   0  0  0  0  0  0  0  0  0  0  0  0
  -23.9005  -10.4085   21.0420 C   0  0  0  0  0  0  0  0  0  0  0  0
  -24.3588   -9.4123   21.9123 C   0  0  0  0  0  0  0  0  0  0  0  0
  -23.6296   -8.2350   22.0803 C   0  0  0  0  0  0  0  0  0  0  0  0
  -22.4385   -8.0419   21.3657 C   0  0  0  0  0  0  0  0  0  0  0  0
  -22.0103   -9.0167   20.4678 C   0  0  0  0  0  0  0  0  0  0  0  0
  -22.7317  -10.1925   20.3102 C   0  0  0  0  0  0  0  0  0  0  0  0
  -21.6857   -6.0709   22.5391 C   0  0  0  0  0  0  0  0  0  0  0  0
  -21.4064   -6.5490   23.8264 C   0  0  0  0  0  0  0  0  0  0  0  0
  -21.3635   -5.6677   24.9085 C   0  0  0  0  0  0  0  0  0  0  0  0
  -21.5973   -4.3067   24.7088 C   0  0  0  0  0  0  0  0  0  0  0  0
  -21.8700   -3.8284   23.4282 C   0  0  0  0  0  0  0  0  0  0  0  0
  -21.9144   -4.7056   22.3460 C   0  0  0  0  0  0  0  0  0  0  0  0
  -22.8194  -13.5263   21.1763 C   0  0  0  0  0  0  0  0  0  0  0  0
  -22.1559   -4.2206   21.1063 F   0  0  0  0  0  0  0  0  0  0  0  0
  -21.5628   -3.4510   25.7555 F   0  0  0  0  0  0  0  0  0  0  0  0
  -30.0261  -13.1803   20.4553 N   0  0  0  0  0  0  0  0  0  0  0  0
  -26.2911  -12.9356   20.3443 N   0  0  0  0  0  0  0  0  0  0  0  0
  -25.9236  -11.6675   20.5847 N   0  0  0  0  0  0  0  0  0  0  0  0
  -22.0708  -12.7905   22.0005 N   0  0  0  0  0  0  0  0  0  0  0  0
  -25.4117  -15.1773   20.4097 N   0  0  0  0  0  0  0  0  0  0  0  0
  -31.7916  -14.6724   20.0536 O   0  0  0  0  0  0  0  0  0  0  0  0
  -21.6670   -6.9022   21.4423 O   0  0  0  0  0  0  0  0  0  0  0  0
  -22.3946  -14.5564   20.6568 O   0  0  0  0  0  0  0  0  0  0  0  0
  -24.6048  -31.8614   23.2223 C   0  0  0  0  0  0  0  0  0  0  0  0
  -25.8822  -32.4841   23.8616 C   0  0  1  0  0  0  0  0  0  0  0  0
  -27.2536  -27.5042   20.1156 C   0  0  0  0  0  0  0  0  0  0  0  0
  -25.5726  -33.8762   24.2210 N   0  0  0  0  0  0  0  0  0  0  0  0
  -23.4066  -30.4859   21.5461 C   0  0  2  0  0  0  0  0  0  0  0  0
  -24.8467  -28.9636   20.1247 C   0  0  0  0  0  0  0  0  0  0  0  0
  -22.7412  -29.4652   22.5052 C   0  0  0  0  0  0  0  0  0  0  0  0
  -18.0167  -28.1302   22.8626 C   0  0  0  0  0  0  0  0  0  0  0  0
  -24.1342  -36.7390   23.2568 C   0  0  0  0  0  0  0  0  0  0  0  0
  -25.9141  -30.8882   21.3456 C   0  0  0  0  0  0  0  0  0  0  0  0
  -25.9930  -29.5029   20.7208 C   0  0  0  0  0  0  0  0  0  0  0  0
  -27.1758  -28.7612   20.7331 C   0  0  0  0  0  0  0  0  0  0  0  0
  -26.1032  -26.9836   19.5230 C   0  0  0  0  0  0  0  0  0  0  0  0
  -24.9097  -27.7011   19.5331 C   0  0  0  0  0  0  0  0  0  0  0  0
  -23.5715  -29.7899   20.1582 C   0  0  0  0  0  0  0  0  0  0  0  0
  -25.3990  -36.3212   24.0232 C   0  0  1  0  0  0  0  0  0  0  0  0
  -20.5793  -28.3813   23.1004 C   0  0  2  0  0  0  0  0  0  0  0  0
  -20.6548  -26.9392   22.5411 C   0  0  0  0  0  0  0  0  0  0  0  0
  -19.5615  -26.6407   21.5143 C   0  0  0  0  0  0  0  0  0  0  0  0
  -18.1797  -26.7818   22.1673 C   0  0  0  0  0  0  0  0  0  0  0  0
  -19.1385  -28.8769   23.2988 C   0  0  0  0  0  0  0  0  0  0  0  0
  -18.9183  -30.1286   23.8878 C   0  0  0  0  0  0  0  0  0  0  0  0
  -17.6396  -30.6493   24.0352 C   0  0  0  0  0  0  0  0  0  0  0  0
  -25.9153  -34.9582   23.4993 C   0  0  0  0  0  0  0  0  0  0  0  0
  -16.5415  -29.9068   23.6254 C   0  0  0  0  0  0  0  0  0  0  0  0
  -16.7331  -28.6521   23.0586 C   0  0  0  0  0  0  0  0  0  0  0  0
  -26.4583  -31.6439   25.0683 C   0  0  0  0  0  0  0  0  0  0  0  0
  -25.3807  -31.3179   26.1374 C   0  0  0  0  0  0  0  0  0  0  0  0
  -27.0530  -30.3024   24.5680 C   0  0  0  0  0  0  0  0  0  0  0  0
  -27.6014  -32.4281   25.7651 C   0  0  0  0  0  0  0  0  0  0  0  0
  -27.5629  -37.2220   24.8621 C   0  0  0  0  0  0  0  0  0  0  0  0
  -21.4133  -29.3375   22.3735 N   0  0  0  0  0  0  0  0  0  0  0  0
  -26.4706  -37.3372   23.9061 N   0  0  0  0  0  0  0  0  0  0  0  0
  -24.6674  -31.0544   22.1178 N   0  0  0  0  0  0  0  0  0  0  0  0
  -23.4259  -28.8150   23.2971 O   0  0  0  0  0  0  0  0  0  0  0  0
  -28.3948  -26.7345   20.0089 O   0  0  0  0  0  0  0  0  0  0  0  0
  -26.5870  -34.9065   22.4671 O   0  0  0  0  0  0  0  0  0  0  0  0
  -23.5365  -32.1254   23.7833 O   0  0  0  0  0  0  0  0  0  0  0  0
  -32.0432  -26.2685   21.4227 C   0  0  0  0  0  0  0  0  0  0  0  0
  -31.7581  -28.1030   22.8788 C   0  0  0  0  0  0  0  0  0  0  0  0
  -33.3653  -29.7486   25.9692 C   0  0  0  0  0  0  0  0  0  0  0  0
  -33.3050  -30.3399   24.5664 C   0  0  0  0  0  0  0  0  0  0  0  0
  -30.9363  -31.1583   24.8658 C   0  0  0  0  0  0  0  0  0  0  0  0
  -29.6620  -31.5789   24.1405 C   0  0  0  0  0  0  0  0  0  0  0  0
  -31.8846  -30.3376   23.9816 C   0  0  2  0  0  0  0  0  0  0  0  0
  -32.7380  -27.3151   21.0305 N   0  0  0  0  0  0  0  0  0  0  0  0
  -32.5715  -28.3908   21.8851 N   0  0  0  0  0  0  0  0  0  0  0  0
  -31.9519  -24.9910   20.8165 N   0  0  0  0  0  0  0  0  0  0  0  0
  -31.3989  -28.9752   23.8897 N   0  0  0  0  0  0  0  0  0  0  0  0
  -31.1319  -26.5065   22.8561 S   0  0  0  0  0  0  0  0  0  0  0  0
  -31.4485  -12.4701   19.0860 H   0  0  0  0  0  0  0  0  0  0  0  0
  -30.3970  -11.2460   19.6950 H   0  0  0  0  0  0  0  0  0  0  0  0
  -29.6870  -11.8204   17.4226 H   0  0  0  0  0  0  0  0  0  0  0  0
  -29.6375  -13.5326   17.8649 H   0  0  0  0  0  0  0  0  0  0  0  0
  -27.7830  -11.3650   18.7904 H   0  0  0  0  0  0  0  0  0  0  0  0
  -27.4028  -12.7801   17.8021 H   0  0  0  0  0  0  0  0  0  0  0  0
  -27.7353  -14.2503   19.6136 H   0  0  0  0  0  0  0  0  0  0  0  0
  -28.5890  -11.9550   21.3832 H   0  0  0  0  0  0  0  0  0  0  0  0
  -28.5005  -13.6134   21.8562 H   0  0  0  0  0  0  0  0  0  0  0  0
  -25.2399   -9.5495   22.4318 H   0  0  0  0  0  0  0  0  0  0  0  0
  -23.9663   -7.5070   22.7297 H   0  0  0  0  0  0  0  0  0  0  0  0
  -21.1515   -8.8641   19.9162 H   0  0  0  0  0  0  0  0  0  0  0  0
  -22.4016  -10.9115   19.6476 H   0  0  0  0  0  0  0  0  0  0  0  0
  -21.2319   -7.5552   23.9750 H   0  0  0  0  0  0  0  0  0  0  0  0
  -21.1589   -6.0228   25.8556 H   0  0  0  0  0  0  0  0  0  0  0  0
  -22.0396   -2.8212   23.2809 H   0  0  0  0  0  0  0  0  0  0  0  0
  -22.4401  -11.9703   22.4008 H   0  0  0  0  0  0  0  0  0  0  0  0
  -21.1493  -13.0679   22.2082 H   0  0  0  0  0  0  0  0  0  0  0  0
  -24.6538  -15.7807   20.5848 H   0  0  0  0  0  0  0  0  0  0  0  0
  -26.2762  -15.5453   20.1156 H   0  0  0  0  0  0  0  0  0  0  0  0
  -26.6778  -32.4663   23.1464 H   0  0  0  0  0  0  0  0  0  0  0  0
  -25.0747  -34.0282   25.0566 H   0  0  0  0  0  0  0  0  0  0  0  0
  -22.7881  -31.3489   21.4131 H   0  0  0  0  0  0  0  0  0  0  0  0
  -23.3854  -35.9823   23.3648 H   0  0  0  0  0  0  0  0  0  0  0  0
  -24.3696  -36.8624   22.2204 H   0  0  0  0  0  0  0  0  0  0  0  0
  -23.7669  -37.6632   23.6516 H   0  0  0  0  0  0  0  0  0  0  0  0
  -25.9445  -31.6237   20.5691 H   0  0  0  0  0  0  0  0  0  0  0  0
  -26.7436  -31.0079   22.0108 H   0  0  0  0  0  0  0  0  0  0  0  0
  -28.0090  -29.1452   21.2057 H   0  0  0  0  0  0  0  0  0  0  0  0
  -26.1369  -26.0560   19.0719 H   0  0  0  0  0  0  0  0  0  0  0  0
  -24.0652  -27.2961   19.0997 H   0  0  0  0  0  0  0  0  0  0  0  0
  -23.6156  -30.5365   19.3930 H   0  0  0  0  0  0  0  0  0  0  0  0
  -22.7355  -29.1425   19.9945 H   0  0  0  0  0  0  0  0  0  0  0  0
  -25.1353  -36.2335   25.0565 H   0  0  0  0  0  0  0  0  0  0  0  0
  -21.0070  -28.3206   24.0793 H   0  0  0  0  0  0  0  0  0  0  0  0
  -20.5555  -26.2518   23.3550 H   0  0  0  0  0  0  0  0  0  0  0  0
  -21.5974  -26.8362   22.0454 H   0  0  0  0  0  0  0  0  0  0  0  0
  -19.6810  -25.6422   21.1488 H   0  0  0  0  0  0  0  0  0  0  0  0
  -19.6406  -27.3343   20.7034 H   0  0  0  0  0  0  0  0  0  0  0  0
  -17.4282  -26.6888   21.4113 H   0  0  0  0  0  0  0  0  0  0  0  0
  -18.0803  -26.0130   22.9049 H   0  0  0  0  0  0  0  0  0  0  0  0
  -19.7265  -30.6774   24.2204 H   0  0  0  0  0  0  0  0  0  0  0  0
  -17.5064  -31.5856   24.4483 H   0  0  0  0  0  0  0  0  0  0  0  0
  -15.5878  -30.2839   23.7407 H   0  0  0  0  0  0  0  0  0  0  0  0
  -15.9120  -28.0941   22.7766 H   0  0  0  0  0  0  0  0  0  0  0  0
  -24.5787  -30.7757   25.6817 H   0  0  0  0  0  0  0  0  0  0  0  0
  -25.0041  -32.2289   26.5536 H   0  0  0  0  0  0  0  0  0  0  0  0
  -25.8166  -30.7245   26.9138 H   0  0  0  0  0  0  0  0  0  0  0  0
  -26.2892  -29.7335   24.0803 H   0  0  0  0  0  0  0  0  0  0  0  0
  -27.4336  -29.7484   25.4006 H   0  0  0  0  0  0  0  0  0  0  0  0
  -27.8466  -30.4994   23.8779 H   0  0  0  0  0  0  0  0  0  0  0  0
  -27.2251  -33.3632   26.1242 H   0  0  0  0  0  0  0  0  0  0  0  0
  -28.3902  -32.6065   25.0645 H   0  0  0  0  0  0  0  0  0  0  0  0
  -27.9772  -31.8555   26.5872 H   0  0  0  0  0  0  0  0  0  0  0  0
  -28.2744  -38.0016   24.6863 H   0  0  0  0  0  0  0  0  0  0  0  0
  -28.0396  -36.2711   24.7461 H   0  0  0  0  0  0  0  0  0  0  0  0
  -27.1773  -37.3087   25.8564 H   0  0  0  0  0  0  0  0  0  0  0  0
  -20.9627  -29.9365   21.7352 H   0  0  0  0  0  0  0  0  0  0  0  0
  -26.0447  -38.2561   24.0273 H   0  0  0  0  0  0  0  0  0  0  0  0
  -34.3741  -29.7759   26.3247 H   0  0  0  0  0  0  0  0  0  0  0  0
  -33.0233  -28.7350   25.9440 H   0  0  0  0  0  0  0  0  0  0  0  0
  -32.7408  -30.3196   26.6241 H   0  0  0  0  0  0  0  0  0  0  0  0
  -33.9399  -29.7649   23.9252 H   0  0  0  0  0  0  0  0  0  0  0  0
  -33.6256  -31.3587   24.6315 H   0  0  0  0  0  0  0  0  0  0  0  0
  -30.6659  -30.5678   25.7161 H   0  0  0  0  0  0  0  0  0  0  0  0
  -31.4538  -32.0511   25.1487 H   0  0  0  0  0  0  0  0  0  0  0  0
  -29.8167  -32.4949   23.6095 H   0  0  0  0  0  0  0  0  0  0  0  0
  -28.8522  -31.7501   24.8186 H   0  0  0  0  0  0  0  0  0  0  0  0
  -31.9156  -30.7780   23.0069 H   0  0  0  0  0  0  0  0  0  0  0  0
  -32.0593  -25.2039   19.8613 H   0  0  0  0  0  0  0  0  0  0  0  0
  -30.7799  -28.6535   24.5844 H   0  0  0  0  0  0  0  0  0  0  0  0
  1 25  1  0  0  0  0
  1 30  2  0  0  0  0
  1 80  1  0  0  0  0
  2  3  1  0  0  0  0
  2 25  1  0  0  0  0
  2 83  1  0  0  0  0
  2 84  1  0  0  0  0
  3  4  1  0  0  0  0
  3 85  1  0  0  0  0
  3 86  1  0  0  0  0
  4  5  1  0  0  0  0
  4 87  1  0  0  0  0
  4 88  1  0  0  0  0
  5  6  1  0  0  0  0
  5 26  1  0  0  0  0
  5 89  1  6  0  0  0
  6 25  1  0  0  0  0
  6 90  1  0  0  0  0
  6 91  1  0  0  0  0
  7  8  2  0  0  0  0
  7 26  1  0  0  0  0
  7 29  1  0  0  0  0
  8  9  1  0  0  0  0
  8 22  1  0  0  0  0
  9 10  1  0  0  0  0
  9 27  2  0  0  0  0
 10 11  2  0  0  0  0
 10 15  1  0  0  0  0
 11 12  1  0  0  0  0
 11 92  1  0  0  0  0
 12 13  2  0  0  0  0
 12 93  1  0  0  0  0
 13 14  1  0  0  0  0
 13 31  1  0  0  0  0
 14 15  2  0  0  0  0
 14 94  1  0  0  0  0
 15 95  1  0  0  0  0
 16 17  2  0  0  0  0
 16 21  1  0  0  0  0
 16 31  1  0  0  0  0
 17 18  1  0  0  0  0
 17 96  1  0  0  0  0
 18 19  2  0  0  0  0
 18 97  1  0  0  0  0
 19 20  1  0  0  0  0
 19 24  1  0  0  0  0
 20 21  2  0  0  0  0
 20 98  1  0  0  0  0
 21 23  1  0  0  0  0
 22 28  1  0  0  0  0
 22 32  2  0  0  0  0
 26 27  1  0  0  0  0
 28 99  1  0  0  0  0
 28100  1  0  0  0  0
 29101  1  0  0  0  0
 29102  1  0  0  0  0
 33 34  1  0  0  0  0
 33 66  1  0  0  0  0
 33 70  2  0  0  0  0
 34 36  1  0  0  0  0
 34 59  1  0  0  0  0
 34103  1  6  0  0  0
 35 44  2  0  0  0  0
 35 45  1  0  0  0  0
 35 68  1  0  0  0  0
 36 56  1  0  0  0  0
 36104  1  0  0  0  0
 37 39  1  0  0  0  0
 37 47  1  0  0  0  0
 37 66  1  0  0  0  0
 37105  1  6  0  0  0
 38 43  2  0  0  0  0
 38 46  1  0  0  0  0
 38 47  1  0  0  0  0
 39 64  1  0  0  0  0
 39 67  2  0  0  0  0
 40 52  1  0  0  0  0
 40 53  2  0  0  0  0
 40 58  1  0  0  0  0
 41106  1  0  0  0  0
 41107  1  0  0  0  0
 41108  1  0  0  0  0
 42 43  1  0  0  0  0
 42 66  1  0  0  0  0
 42109  1  0  0  0  0
 42110  1  0  0  0  0
 43 44  1  0  0  0  0
 44111  1  0  0  0  0
 45 46  2  0  0  0  0
 45112  1  0  0  0  0
 46113  1  0  0  0  0
 47114  1  0  0  0  0
 47115  1  0  0  0  0
 48 41  1  0  0  0  0
 48 56  1  0  0  0  0
 48 65  1  0  0  0  0
 48116  1  1  0  0  0
 49 50  1  0  0  0  0
 49 53  1  0  0  0  0
 49 64  1  0  0  0  0
 49117  1  1  0  0  0
 50 51  1  0  0  0  0
 50118  1  0  0  0  0
 50119  1  0  0  0  0
 51 52  1  0  0  0  0
 51120  1  0  0  0  0
 51121  1  0  0  0  0
 52122  1  0  0  0  0
 52123  1  0  0  0  0
 53 54  1  0  0  0  0
 54 55  2  0  0  0  0
 54124  1  0  0  0  0
 55 57  1  0  0  0  0
 55125  1  0  0  0  0
 56 69  2  0  0  0  0
 57 58  2  0  0  0  0
 57126  1  0  0  0  0
 58127  1  0  0  0  0
 59 60  1  0  0  0  0
 59 61  1  0  0  0  0
 59 62  1  0  0  0  0
 60128  1  0  0  0  0
 60129  1  0  0  0  0
 60130  1  0  0  0  0
 61131  1  0  0  0  0
 61132  1  0  0  0  0
 61133  1  0  0  0  0
 62134  1  0  0  0  0
 62135  1  0  0  0  0
 62136  1  0  0  0  0
 63 65  1  0  0  0  0
 63137  1  0  0  0  0
 63138  1  0  0  0  0
 63139  1  0  0  0  0
 64140  1  0  0  0  0
 65141  1  0  0  0  0
 68 76  1  0  0  0  0
 71 78  2  0  0  0  0
 71 80  1  0  0  0  0
 71 82  1  0  0  0  0
 72 79  2  0  0  0  0
 72 81  1  0  0  0  0
 72 82  1  0  0  0  0
 73 74  1  0  0  0  0
 73142  1  0  0  0  0
 73143  1  0  0  0  0
 73144  1  0  0  0  0
 74145  1  0  0  0  0
 74146  1  0  0  0  0
 75 76  1  0  0  0  0
 75 77  1  0  0  0  0
 75147  1  0  0  0  0
 75148  1  0  0  0  0
 76149  1  0  0  0  0
 76150  1  0  0  0  0
 77 74  1  0  0  0  0
 77 81  1  0  0  0  0
 77151  1  6  0  0  0
 78 79  1  0  0  0  0
 80152  1  0  0  0  0
 81153  1  0  0  0  0
M  ISO  4   1 100  68 101  76 101  80 100
M  END
$$$$
65
 OpenBabel04052305473D

156164  0  0  0  0  0  0  0  0999 V2000
  -30.7652  -14.3608   20.6636 C   0  0  0  0  0  0  0  0  0  0  0  0
  -30.4392  -12.2669   19.3775 C   0  0  0  0  0  0  0  0  0  0  0  0
  -29.4791  -12.5281   18.1977 C   0  0  0  0  0  0  0  0  0  0  0  0
  -27.9985  -12.3963   18.6038 C   0  0  0  0  0  0  0  0  0  0  0  0
  -27.6639  -13.2170   19.8820 C   0  0  2  0  0  0  0  0  0  0  0  0
  -28.6795  -12.9602   21.0279 C   0  0  0  0  0  0  0  0  0  0  0  0
  -25.2633  -13.8245   20.5754 C   0  0  0  0  0  0  0  0  0  0  0  0
  -24.1645  -13.0409   20.9408 C   0  0  0  0  0  0  0  0  0  0  0  0
  -24.6400  -11.7009   20.8697 C   0  0  0  0  0  0  0  0  0  0  0  0
  -23.9005  -10.4085   21.0420 C   0  0  0  0  0  0  0  0  0  0  0  0
  -24.3588   -9.4123   21.9123 C   0  0  0  0  0  0  0  0  0  0  0  0
  -23.6296   -8.2350   22.0803 C   0  0  0  0  0  0  0  0  0  0  0  0
  -22.4385   -8.0419   21.3657 C   0  0  0  0  0  0  0  0  0  0  0  0
  -22.0103   -9.0167   20.4678 C   0  0  0  0  0  0  0  0  0  0  0  0
  -22.7317  -10.1925   20.3102 C   0  0  0  0  0  0  0  0  0  0  0  0
  -21.6857   -6.0709   22.5391 C   0  0  0  0  0  0  0  0  0  0  0  0
  -21.4064   -6.5490   23.8264 C   0  0  0  0  0  0  0  0  0  0  0  0
  -21.3635   -5.6677   24.9085 C   0  0  0  0  0  0  0  0  0  0  0  0
  -21.5973   -4.3067   24.7088 C   0  0  0  0  0  0  0  0  0  0  0  0
  -21.8700   -3.8284   23.4282 C   0  0  0  0  0  0  0  0  0  0  0  0
  -21.9144   -4.7056   22.3460 C   0  0  0  0  0  0  0  0  0  0  0  0
  -22.8194  -13.5263   21.1763 C   0  0  0  0  0  0  0  0  0  0  0  0
  -22.1559   -4.2206   21.1063 F   0  0  0  0  0  0  0  0  0  0  0  0
  -21.5628   -3.4510   25.7555 F   0  0  0  0  0  0  0  0  0  0  0  0
  -30.0261  -13.1803   20.4553 N   0  0  0  0  0  0  0  0  0  0  0  0
  -26.2911  -12.9356   20.3443 N   0  0  0  0  0  0  0  0  0  0  0  0
  -25.9236  -11.6675   20.5847 N   0  0  0  0  0  0  0  0  0  0  0  0
  -22.0708  -12.7905   22.0005 N   0  0  0  0  0  0  0  0  0  0  0  0
  -25.4117  -15.1773   20.4097 N   0  0  0  0  0  0  0  0  0  0  0  0
  -31.7916  -14.6724   20.0536 O   0  0  0  0  0  0  0  0  0  0  0  0
  -21.6670   -6.9022   21.4423 O   0  0  0  0  0  0  0  0  0  0  0  0
  -22.3946  -14.5564   20.6568 O   0  0  0  0  0  0  0  0  0  0  0  0
  -24.6048  -31.8614   23.2223 C   0  0  0  0  0  0  0  0  0  0  0  0
  -25.8822  -32.4841   23.8616 C   0  0  1  0  0  0  0  0  0  0  0  0
  -27.2536  -27.5042   20.1156 C   0  0  0  0  0  0  0  0  0  0  0  0
  -25.5726  -33.8762   24.2210 N   0  0  0  0  0  0  0  0  0  0  0  0
  -23.4066  -30.4859   21.5461 C   0  0  2  0  0  0  0  0  0  0  0  0
  -24.8467  -28.9636   20.1247 C   0  0  0  0  0  0  0  0  0  0  0  0
  -22.7412  -29.4652   22.5052 C   0  0  0  0  0  0  0  0  0  0  0  0
  -18.0167  -28.1302   22.8626 C   0  0  0  0  0  0  0  0  0  0  0  0
  -24.1342  -36.7390   23.2568 C   0  0  0  0  0  0  0  0  0  0  0  0
  -25.9141  -30.8882   21.3456 C   0  0  0  0  0  0  0  0  0  0  0  0
  -25.9930  -29.5029   20.7208 C   0  0  0  0  0  0  0  0  0  0  0  0
  -27.1758  -28.7612   20.7331 C   0  0  0  0  0  0  0  0  0  0  0  0
  -26.1032  -26.9836   19.5230 C   0  0  0  0  0  0  0  0  0  0  0  0
  -24.9097  -27.7011   19.5331 C   0  0  0  0  0  0  0  0  0  0  0  0
  -23.5715  -29.7899   20.1582 C   0  0  0  0  0  0  0  0  0  0  0  0
  -25.3990  -36.3212   24.0232 C   0  0  1  0  0  0  0  0  0  0  0  0
  -20.5793  -28.3813   23.1004 C   0  0  2  0  0  0  0  0  0  0  0  0
  -20.6548  -26.9392   22.5411 C   0  0  0  0  0  0  0  0  0  0  0  0
  -19.5615  -26.6407   21.5143 C   0  0  0  0  0  0  0  0  0  0  0  0
  -18.1797  -26.7818   22.1673 C   0  0  0  0  0  0  0  0  0  0  0  0
  -19.1385  -28.8769   23.2988 C   0  0  0  0  0  0  0  0  0  0  0  0
  -18.9183  -30.1286   23.8878 C   0  0  0  0  0  0  0  0  0  0  0  0
  -17.6396  -30.6493   24.0352 C   0  0  0  0  0  0  0  0  0  0  0  0
  -25.9153  -34.9582   23.4993 C   0  0  0  0  0  0  0  0  0  0  0  0
  -16.5415  -29.9068   23.6254 C   0  0  0  0  0  0  0  0  0  0  0  0
  -16.7331  -28.6521   23.0586 C   0  0  0  0  0  0  0  0  0  0  0  0
  -26.4583  -31.6439   25.0683 C   0  0  0  0  0  0  0  0  0  0  0  0
  -25.3807  -31.3179   26.1374 C   0  0  0  0  0  0  0  0  0  0  0  0
  -27.0530  -30.3024   24.5680 C   0  0  0  0  0  0  0  0  0  0  0  0
  -27.6014  -32.4281   25.7651 C   0  0  0  0  0  0  0  0  0  0  0  0
  -27.5629  -37.2220   24.8621 C   0  0  0  0  0  0  0  0  0  0  0  0
  -21.4133  -29.3375   22.3735 N   0  0  0  0  0  0  0  0  0  0  0  0
  -26.4706  -37.3372   23.9061 N   0  0  0  0  0  0  0  0  0  0  0  0
  -24.6674  -31.0544   22.1178 N   0  0  0  0  0  0  0  0  0  0  0  0
  -23.4259  -28.8150   23.2971 O   0  0  0  0  0  0  0  0  0  0  0  0
  -28.3948  -26.7345   20.0089 O   0  0  0  0  0  0  0  0  0  0  0  0
  -26.5870  -34.9065   22.4671 O   0  0  0  0  0  0  0  0  0  0  0  0
  -23.5365  -32.1254   23.7833 O   0  0  0  0  0  0  0  0  0  0  0  0
  -32.3883  -20.5261   23.2011 C   0  0  0  0  0  0  0  0  0  0  0  0
  -31.9107  -21.0169   22.0059 C   0  0  0  0  0  0  0  0  0  0  0  0
  -33.7059  -22.3804   23.4361 C   0  0  0  0  0  0  0  0  0  0  0  0
  -33.2288  -22.8709   22.2405 C   0  0  0  0  0  0  0  0  0  0  0  0
  -31.6109  -25.2862   21.3267 C   0  0  0  0  0  0  0  0  0  0  0  0
  -32.9837  -24.8845   20.7875 C   0  0  0  0  0  0  0  0  0  0  0  0
  -29.4346  -26.4725   20.8606 C   0  0  0  0  0  0  0  0  0  0  0  0
  -30.8248  -26.1395   20.3281 C   0  0  2  0  0  0  0  0  0  0  0  0
  -33.2945  -21.1991   23.9377 N   0  0  0  0  0  0  0  0  0  0  0  0
  -32.3224  -22.1981   21.5041 N   0  0  0  0  0  0  0  0  0  0  0  0
  -34.6560  -23.1276   24.1691 N   0  0  0  0  0  0  0  0  0  0  0  0
  -30.9586  -20.2484   21.2912 N   0  0  0  0  0  0  0  0  0  0  0  0
  -33.6854  -24.0913   21.7692 N   0  0  0  0  0  0  0  0  0  0  0  0
  -30.6862  -25.4102   19.1089 O   0  0  0  0  0  0  0  0  0  0  0  0
  -31.4485  -12.4701   19.0860 H   0  0  0  0  0  0  0  0  0  0  0  0
  -30.3970  -11.2460   19.6950 H   0  0  0  0  0  0  0  0  0  0  0  0
  -29.6870  -11.8204   17.4226 H   0  0  0  0  0  0  0  0  0  0  0  0
  -29.6375  -13.5326   17.8649 H   0  0  0  0  0  0  0  0  0  0  0  0
  -27.7830  -11.3650   18.7904 H   0  0  0  0  0  0  0  0  0  0  0  0
  -27.4028  -12.7801   17.8021 H   0  0  0  0  0  0  0  0  0  0  0  0
  -27.7353  -14.2503   19.6136 H   0  0  0  0  0  0  0  0  0  0  0  0
  -28.5890  -11.9550   21.3832 H   0  0  0  0  0  0  0  0  0  0  0  0
  -28.5005  -13.6134   21.8562 H   0  0  0  0  0  0  0  0  0  0  0  0
  -25.2399   -9.5495   22.4318 H   0  0  0  0  0  0  0  0  0  0  0  0
  -23.9663   -7.5070   22.7297 H   0  0  0  0  0  0  0  0  0  0  0  0
  -21.1515   -8.8641   19.9162 H   0  0  0  0  0  0  0  0  0  0  0  0
  -22.4016  -10.9115   19.6476 H   0  0  0  0  0  0  0  0  0  0  0  0
  -21.2319   -7.5552   23.9750 H   0  0  0  0  0  0  0  0  0  0  0  0
  -21.1589   -6.0228   25.8556 H   0  0  0  0  0  0  0  0  0  0  0  0
  -22.0396   -2.8212   23.2809 H   0  0  0  0  0  0  0  0  0  0  0  0
  -22.4401  -11.9703   22.4008 H   0  0  0  0  0  0  0  0  0  0  0  0
  -21.1493  -13.0679   22.2082 H   0  0  0  0  0  0  0  0  0  0  0  0
  -24.6538  -15.7807   20.5848 H   0  0  0  0  0  0  0  0  0  0  0  0
  -26.2762  -15.5453   20.1156 H   0  0  0  0  0  0  0  0  0  0  0  0
  -26.6778  -32.4663   23.1464 H   0  0  0  0  0  0  0  0  0  0  0  0
  -25.0747  -34.0282   25.0566 H   0  0  0  0  0  0  0  0  0  0  0  0
  -22.7881  -31.3489   21.4131 H   0  0  0  0  0  0  0  0  0  0  0  0
  -23.3854  -35.9823   23.3648 H   0  0  0  0  0  0  0  0  0  0  0  0
  -24.3696  -36.8624   22.2204 H   0  0  0  0  0  0  0  0  0  0  0  0
  -23.7669  -37.6632   23.6516 H   0  0  0  0  0  0  0  0  0  0  0  0
  -25.9445  -31.6237   20.5691 H   0  0  0  0  0  0  0  0  0  0  0  0
  -26.7436  -31.0079   22.0108 H   0  0  0  0  0  0  0  0  0  0  0  0
  -28.0090  -29.1452   21.2057 H   0  0  0  0  0  0  0  0  0  0  0  0
  -26.1369  -26.0560   19.0719 H   0  0  0  0  0  0  0  0  0  0  0  0
  -24.0652  -27.2961   19.0997 H   0  0  0  0  0  0  0  0  0  0  0  0
  -23.6156  -30.5365   19.3930 H   0  0  0  0  0  0  0  0  0  0  0  0
  -22.7355  -29.1425   19.9945 H   0  0  0  0  0  0  0  0  0  0  0  0
  -25.1353  -36.2335   25.0565 H   0  0  0  0  0  0  0  0  0  0  0  0
  -21.0070  -28.3206   24.0793 H   0  0  0  0  0  0  0  0  0  0  0  0
  -20.5555  -26.2518   23.3550 H   0  0  0  0  0  0  0  0  0  0  0  0
  -21.5974  -26.8362   22.0454 H   0  0  0  0  0  0  0  0  0  0  0  0
  -19.6810  -25.6422   21.1488 H   0  0  0  0  0  0  0  0  0  0  0  0
  -19.6406  -27.3343   20.7034 H   0  0  0  0  0  0  0  0  0  0  0  0
  -17.4282  -26.6888   21.4113 H   0  0  0  0  0  0  0  0  0  0  0  0
  -18.0803  -26.0130   22.9049 H   0  0  0  0  0  0  0  0  0  0  0  0
  -19.7265  -30.6774   24.2204 H   0  0  0  0  0  0  0  0  0  0  0  0
  -17.5064  -31.5856   24.4483 H   0  0  0  0  0  0  0  0  0  0  0  0
  -15.5878  -30.2839   23.7407 H   0  0  0  0  0  0  0  0  0  0  0  0
  -15.9120  -28.0941   22.7766 H   0  0  0  0  0  0  0  0  0  0  0  0
  -24.5787  -30.7757   25.6817 H   0  0  0  0  0  0  0  0  0  0  0  0
  -25.0041  -32.2289   26.5536 H   0  0  0  0  0  0  0  0  0  0  0  0
  -25.8166  -30.7245   26.9138 H   0  0  0  0  0  0  0  0  0  0  0  0
  -26.2892  -29.7335   24.0803 H   0  0  0  0  0  0  0  0  0  0  0  0
  -27.4336  -29.7484   25.4006 H   0  0  0  0  0  0  0  0  0  0  0  0
  -27.8466  -30.4994   23.8779 H   0  0  0  0  0  0  0  0  0  0  0  0
  -27.2251  -33.3632   26.1242 H   0  0  0  0  0  0  0  0  0  0  0  0
  -28.3902  -32.6065   25.0645 H   0  0  0  0  0  0  0  0  0  0  0  0
  -27.9772  -31.8555   26.5872 H   0  0  0  0  0  0  0  0  0  0  0  0
  -28.2744  -38.0016   24.6863 H   0  0  0  0  0  0  0  0  0  0  0  0
  -28.0396  -36.2711   24.7461 H   0  0  0  0  0  0  0  0  0  0  0  0
  -27.1773  -37.3087   25.8564 H   0  0  0  0  0  0  0  0  0  0  0  0
  -20.9627  -29.9365   21.7352 H   0  0  0  0  0  0  0  0  0  0  0  0
  -26.0447  -38.2561   24.0273 H   0  0  0  0  0  0  0  0  0  0  0  0
  -32.0419  -19.6160   23.5427 H   0  0  0  0  0  0  0  0  0  0  0  0
  -31.7452  -25.8467   22.2282 H   0  0  0  0  0  0  0  0  0  0  0  0
  -31.0528  -24.3907   21.5046 H   0  0  0  0  0  0  0  0  0  0  0  0
  -33.5515  -25.7653   20.5717 H   0  0  0  0  0  0  0  0  0  0  0  0
  -32.8564  -24.3080   19.8951 H   0  0  0  0  0  0  0  0  0  0  0  0
  -29.5458  -27.3382   21.4795 H   0  0  0  0  0  0  0  0  0  0  0  0
  -29.1343  -25.5547   21.3213 H   0  0  0  0  0  0  0  0  0  0  0  0
  -31.3572  -27.0540   20.1696 H   0  0  0  0  0  0  0  0  0  0  0  0
  -34.9730  -23.9937   23.8247 H   0  0  0  0  0  0  0  0  0  0  0  0
  -35.0007  -22.7819   25.0240 H   0  0  0  0  0  0  0  0  0  0  0  0
  -30.2420  -20.7545   20.8445 H   0  0  0  0  0  0  0  0  0  0  0  0
  -34.5363  -24.4372   22.1236 H   0  0  0  0  0  0  0  0  0  0  0  0
  -30.2015  -24.5872   19.2778 H   0  0  0  0  0  0  0  0  0  0  0  0
  1 25  1  0  0  0  0
  1 30  2  0  0  0  0
  1 82  1  0  0  0  0
  2  3  1  0  0  0  0
  2 25  1  0  0  0  0
  2 85  1  0  0  0  0
  2 86  1  0  0  0  0
  3  4  1  0  0  0  0
  3 87  1  0  0  0  0
  3 88  1  0  0  0  0
  4  5  1  0  0  0  0
  4 89  1  0  0  0  0
  4 90  1  0  0  0  0
  5  6  1  0  0  0  0
  5 26  1  0  0  0  0
  5 91  1  6  0  0  0
  6 25  1  0  0  0  0
  6 92  1  0  0  0  0
  6 93  1  0  0  0  0
  7  8  2  0  0  0  0
  7 26  1  0  0  0  0
  7 29  1  0  0  0  0
  8  9  1  0  0  0  0
  8 22  1  0  0  0  0
  9 10  1  0  0  0  0
  9 27  2  0  0  0  0
 10 11  2  0  0  0  0
 10 15  1  0  0  0  0
 11 12  1  0  0  0  0
 11 94  1  0  0  0  0
 12 13  2  0  0  0  0
 12 95  1  0  0  0  0
 13 14  1  0  0  0  0
 13 31  1  0  0  0  0
 14 15  2  0  0  0  0
 14 96  1  0  0  0  0
 15 97  1  0  0  0  0
 16 17  2  0  0  0  0
 16 21  1  0  0  0  0
 16 31  1  0  0  0  0
 17 18  1  0  0  0  0
 17 98  1  0  0  0  0
 18 19  2  0  0  0  0
 18 99  1  0  0  0  0
 19 20  1  0  0  0  0
 19 24  1  0  0  0  0
 20 21  2  0  0  0  0
 20100  1  0  0  0  0
 21 23  1  0  0  0  0
 22 28  1  0  0  0  0
 22 32  2  0  0  0  0
 26 27  1  0  0  0  0
 28101  1  0  0  0  0
 28102  1  0  0  0  0
 29103  1  0  0  0  0
 29104  1  0  0  0  0
 33 34  1  0  0  0  0
 33 66  1  0  0  0  0
 33 70  2  0  0  0  0
 34 36  1  0  0  0  0
 34 59  1  0  0  0  0
 34105  1  6  0  0  0
 35 44  2  0  0  0  0
 35 45  1  0  0  0  0
 35 68  1  0  0  0  0
 36 56  1  0  0  0  0
 36106  1  0  0  0  0
 37 39  1  0  0  0  0
 37 47  1  0  0  0  0
 37 66  1  0  0  0  0
 37107  1  6  0  0  0
 38 43  2  0  0  0  0
 38 46  1  0  0  0  0
 38 47  1  0  0  0  0
 39 64  1  0  0  0  0
 39 67  2  0  0  0  0
 40 52  1  0  0  0  0
 40 53  2  0  0  0  0
 40 58  1  0  0  0  0
 41108  1  0  0  0  0
 41109  1  0  0  0  0
 41110  1  0  0  0  0
 42 43  1  0  0  0  0
 42 66  1  0  0  0  0
 42111  1  0  0  0  0
 42112  1  0  0  0  0
 43 44  1  0  0  0  0
 44113  1  0  0  0  0
 45 46  2  0  0  0  0
 45114  1  0  0  0  0
 46115  1  0  0  0  0
 47116  1  0  0  0  0
 47117  1  0  0  0  0
 48 41  1  0  0  0  0
 48 56  1  0  0  0  0
 48 65  1  0  0  0  0
 48118  1  1  0  0  0
 49 50  1  0  0  0  0
 49 53  1  0  0  0  0
 49 64  1  0  0  0  0
 49119  1  1  0  0  0
 50 51  1  0  0  0  0
 50120  1  0  0  0  0
 50121  1  0  0  0  0
 51 52  1  0  0  0  0
 51122  1  0  0  0  0
 51123  1  0  0  0  0
 52124  1  0  0  0  0
 52125  1  0  0  0  0
 53 54  1  0  0  0  0
 54 55  2  0  0  0  0
 54126  1  0  0  0  0
 55 57  1  0  0  0  0
 55127  1  0  0  0  0
 56 69  2  0  0  0  0
 57 58  2  0  0  0  0
 57128  1  0  0  0  0
 58129  1  0  0  0  0
 59 60  1  0  0  0  0
 59 61  1  0  0  0  0
 59 62  1  0  0  0  0
 60130  1  0  0  0  0
 60131  1  0  0  0  0
 60132  1  0  0  0  0
 61133  1  0  0  0  0
 61134  1  0  0  0  0
 61135  1  0  0  0  0
 62136  1  0  0  0  0
 62137  1  0  0  0  0
 62138  1  0  0  0  0
 63 65  1  0  0  0  0
 63139  1  0  0  0  0
 63140  1  0  0  0  0
 63141  1  0  0  0  0
 64142  1  0  0  0  0
 65143  1  0  0  0  0
 68 77  1  0  0  0  0
 71 72  2  0  0  0  0
 71 79  1  0  0  0  0
 71144  1  0  0  0  0
 72 80  1  0  0  0  0
 72 82  1  0  0  0  0
 73 74  1  0  0  0  0
 73 79  2  0  0  0  0
 73 81  1  0  0  0  0
 74 80  2  0  0  0  0
 74 83  1  0  0  0  0
 75 76  1  0  0  0  0
 75 78  1  0  0  0  0
 75145  1  0  0  0  0
 75146  1  0  0  0  0
 76 83  1  0  0  0  0
 76147  1  0  0  0  0
 76148  1  0  0  0  0
 77 78  1  0  0  0  0
 77149  1  0  0  0  0
 77150  1  0  0  0  0
 78 84  1  0  0  0  0
 78151  1  6  0  0  0
 81152  1  0  0  0  0
 81153  1  0  0  0  0
 82154  1  0  0  0  0
 83155  1  0  0  0  0
 84156  1  0  0  0  0
M  ISO  4   1 100  68 101  77 101  82 100
M  END
$$$$
66
 OpenBabel04052305473D

147155  0  0  0  0  0  0  0  0999 V2000
  -30.7652  -14.3608   20.6636 C   0  0  0  0  0  0  0  0  0  0  0  0
  -30.4392  -12.2669   19.3775 C   0  0  0  0  0  0  0  0  0  0  0  0
  -29.4791  -12.5281   18.1977 C   0  0  0  0  0  0  0  0  0  0  0  0
  -27.9985  -12.3963   18.6038 C   0  0  0  0  0  0  0  0  0  0  0  0
  -27.6639  -13.2170   19.8820 C   0  0  2  0  0  0  0  0  0  0  0  0
  -28.6795  -12.9602   21.0279 C   0  0  0  0  0  0  0  0  0  0  0  0
  -25.2633  -13.8245   20.5754 C   0  0  0  0  0  0  0  0  0  0  0  0
  -24.1645  -13.0409   20.9408 C   0  0  0  0  0  0  0  0  0  0  0  0
  -24.6400  -11.7009   20.8697 C   0  0  0  0  0  0  0  0  0  0  0  0
  -23.9005  -10.4085   21.0420 C   0  0  0  0  0  0  0  0  0  0  0  0
  -24.3588   -9.4123   21.9123 C   0  0  0  0  0  0  0  0  0  0  0  0
  -23.6296   -8.2350   22.0803 C   0  0  0  0  0  0  0  0  0  0  0  0
  -22.4385   -8.0419   21.3657 C   0  0  0  0  0  0  0  0  0  0  0  0
  -22.0103   -9.0167   20.4678 C   0  0  0  0  0  0  0  0  0  0  0  0
  -22.7317  -10.1925   20.3102 C   0  0  0  0  0  0  0  0  0  0  0  0
  -21.6857   -6.0709   22.5391 C   0  0  0  0  0  0  0  0  0  0  0  0
  -21.4064   -6.5490   23.8264 C   0  0  0  0  0  0  0  0  0  0  0  0
  -21.3635   -5.6677   24.9085 C   0  0  0  0  0  0  0  0  0  0  0  0
  -21.5973   -4.3067   24.7088 C   0  0  0  0  0  0  0  0  0  0  0  0
  -21.8700   -3.8284   23.4282 C   0  0  0  0  0  0  0  0  0  0  0  0
  -21.9144   -4.7056   22.3460 C   0  0  0  0  0  0  0  0  0  0  0  0
  -22.8194  -13.5263   21.1763 C   0  0  0  0  0  0  0  0  0  0  0  0
  -22.1559   -4.2206   21.1063 F   0  0  0  0  0  0  0  0  0  0  0  0
  -21.5628   -3.4510   25.7555 F   0  0  0  0  0  0  0  0  0  0  0  0
  -30.0261  -13.1803   20.4553 N   0  0  0  0  0  0  0  0  0  0  0  0
  -26.2911  -12.9356   20.3443 N   0  0  0  0  0  0  0  0  0  0  0  0
  -25.9236  -11.6675   20.5847 N   0  0  0  0  0  0  0  0  0  0  0  0
  -22.0708  -12.7905   22.0005 N   0  0  0  0  0  0  0  0  0  0  0  0
  -25.4117  -15.1773   20.4097 N   0  0  0  0  0  0  0  0  0  0  0  0
  -31.7916  -14.6724   20.0536 O   0  0  0  0  0  0  0  0  0  0  0  0
  -21.6670   -6.9022   21.4423 O   0  0  0  0  0  0  0  0  0  0  0  0
  -22.3946  -14.5564   20.6568 O   0  0  0  0  0  0  0  0  0  0  0  0
  -24.6048  -31.8614   23.2223 C   0  0  0  0  0  0  0  0  0  0  0  0
  -25.8822  -32.4841   23.8616 C   0  0  1  0  0  0  0  0  0  0  0  0
  -27.2536  -27.5042   20.1156 C   0  0  0  0  0  0  0  0  0  0  0  0
  -25.5726  -33.8762   24.2210 N   0  0  0  0  0  0  0  0  0  0  0  0
  -23.4066  -30.4859   21.5461 C   0  0  2  0  0  0  0  0  0  0  0  0
  -24.8467  -28.9636   20.1247 C   0  0  0  0  0  0  0  0  0  0  0  0
  -22.7412  -29.4652   22.5052 C   0  0  0  0  0  0  0  0  0  0  0  0
  -18.0167  -28.1302   22.8626 C   0  0  0  0  0  0  0  0  0  0  0  0
  -24.1342  -36.7390   23.2568 C   0  0  0  0  0  0  0  0  0  0  0  0
  -25.9141  -30.8882   21.3456 C   0  0  0  0  0  0  0  0  0  0  0  0
  -25.9930  -29.5029   20.7208 C   0  0  0  0  0  0  0  0  0  0  0  0
  -27.1758  -28.7612   20.7331 C   0  0  0  0  0  0  0  0  0  0  0  0
  -26.1032  -26.9836   19.5230 C   0  0  0  0  0  0  0  0  0  0  0  0
  -24.9097  -27.7011   19.5331 C   0  0  0  0  0  0  0  0  0  0  0  0
  -23.5715  -29.7899   20.1582 C   0  0  0  0  0  0  0  0  0  0  0  0
  -25.3990  -36.3212   24.0232 C   0  0  1  0  0  0  0  0  0  0  0  0
  -20.5793  -28.3813   23.1004 C   0  0  2  0  0  0  0  0  0  0  0  0
  -20.6548  -26.9392   22.5411 C   0  0  0  0  0  0  0  0  0  0  0  0
  -19.5615  -26.6407   21.5143 C   0  0  0  0  0  0  0  0  0  0  0  0
  -18.1797  -26.7818   22.1673 C   0  0  0  0  0  0  0  0  0  0  0  0
  -19.1385  -28.8769   23.2988 C   0  0  0  0  0  0  0  0  0  0  0  0
  -18.9183  -30.1286   23.8878 C   0  0  0  0  0  0  0  0  0  0  0  0
  -17.6396  -30.6493   24.0352 C   0  0  0  0  0  0  0  0  0  0  0  0
  -25.9153  -34.9582   23.4993 C   0  0  0  0  0  0  0  0  0  0  0  0
  -16.5415  -29.9068   23.6254 C   0  0  0  0  0  0  0  0  0  0  0  0
  -16.7331  -28.6521   23.0586 C   0  0  0  0  0  0  0  0  0  0  0  0
  -26.4583  -31.6439   25.0683 C   0  0  0  0  0  0  0  0  0  0  0  0
  -25.3807  -31.3179   26.1374 C   0  0  0  0  0  0  0  0  0  0  0  0
  -27.0530  -30.3024   24.5680 C   0  0  0  0  0  0  0  0  0  0  0  0
  -27.6014  -32.4281   25.7651 C   0  0  0  0  0  0  0  0  0  0  0  0
  -27.5629  -37.2220   24.8621 C   0  0  0  0  0  0  0  0  0  0  0  0
  -21.4133  -29.3375   22.3735 N   0  0  0  0  0  0  0  0  0  0  0  0
  -26.4706  -37.3372   23.9061 N   0  0  0  0  0  0  0  0  0  0  0  0
  -24.6674  -31.0544   22.1178 N   0  0  0  0  0  0  0  0  0  0  0  0
  -23.4259  -28.8150   23.2971 O   0  0  0  0  0  0  0  0  0  0  0  0
  -28.3948  -26.7345   20.0089 O   0  0  0  0  0  0  0  0  0  0  0  0
  -26.5870  -34.9065   22.4671 O   0  0  0  0  0  0  0  0  0  0  0  0
  -23.5365  -32.1254   23.7833 O   0  0  0  0  0  0  0  0  0  0  0  0
  -31.0015  -19.0501   20.5351 C   0  0  0  0  0  0  0  0  0  0  0  0
  -30.2434  -18.3454   21.4466 C   0  0  0  0  0  0  0  0  0  0  0  0
  -29.1797  -20.2691   20.4613 C   0  0  0  0  0  0  0  0  0  0  0  0
  -28.3371  -22.3186   19.2683 C   0  0  0  0  0  0  0  0  0  0  0  0
  -30.5807  -17.1360   22.2217 C   0  0  0  0  0  0  0  0  0  0  0  0
  -27.0638  -23.1433   19.2374 C   0  0  0  0  0  0  0  0  0  0  0  0
  -30.3931  -20.1532   19.9688 N   0  0  0  0  0  0  0  0  0  0  0  0
  -28.2124  -21.2559   20.1566 N   0  0  0  0  0  0  0  0  0  0  0  0
  -29.9493  -15.9419   21.7056 N   0  0  0  0  0  0  0  0  0  0  0  0
  -29.3074  -22.6087   18.5761 O   0  0  0  0  0  0  0  0  0  0  0  0
  -28.7052  -19.0862   21.6105 S   0  0  0  0  0  0  0  0  0  0  0  0
  -31.4485  -12.4701   19.0860 H   0  0  0  0  0  0  0  0  0  0  0  0
  -30.3970  -11.2460   19.6950 H   0  0  0  0  0  0  0  0  0  0  0  0
  -29.6870  -11.8204   17.4226 H   0  0  0  0  0  0  0  0  0  0  0  0
  -29.6375  -13.5326   17.8649 H   0  0  0  0  0  0  0  0  0  0  0  0
  -27.7830  -11.3650   18.7904 H   0  0  0  0  0  0  0  0  0  0  0  0
  -27.4028  -12.7801   17.8021 H   0  0  0  0  0  0  0  0  0  0  0  0
  -27.7353  -14.2503   19.6136 H   0  0  0  0  0  0  0  0  0  0  0  0
  -28.5890  -11.9550   21.3832 H   0  0  0  0  0  0  0  0  0  0  0  0
  -28.5005  -13.6134   21.8562 H   0  0  0  0  0  0  0  0  0  0  0  0
  -25.2399   -9.5495   22.4318 H   0  0  0  0  0  0  0  0  0  0  0  0
  -23.9663   -7.5070   22.7297 H   0  0  0  0  0  0  0  0  0  0  0  0
  -21.1515   -8.8641   19.9162 H   0  0  0  0  0  0  0  0  0  0  0  0
  -22.4016  -10.9115   19.6476 H   0  0  0  0  0  0  0  0  0  0  0  0
  -21.2319   -7.5552   23.9750 H   0  0  0  0  0  0  0  0  0  0  0  0
  -21.1589   -6.0228   25.8556 H   0  0  0  0  0  0  0  0  0  0  0  0
  -22.0396   -2.8212   23.2809 H   0  0  0  0  0  0  0  0  0  0  0  0
  -22.4401  -11.9703   22.4008 H   0  0  0  0  0  0  0  0  0  0  0  0
  -21.1493  -13.0679   22.2082 H   0  0  0  0  0  0  0  0  0  0  0  0
  -24.6538  -15.7807   20.5848 H   0  0  0  0  0  0  0  0  0  0  0  0
  -26.2762  -15.5453   20.1156 H   0  0  0  0  0  0  0  0  0  0  0  0
  -26.6778  -32.4663   23.1464 H   0  0  0  0  0  0  0  0  0  0  0  0
  -25.0747  -34.0282   25.0566 H   0  0  0  0  0  0  0  0  0  0  0  0
  -22.7881  -31.3489   21.4131 H   0  0  0  0  0  0  0  0  0  0  0  0
  -23.3854  -35.9823   23.3648 H   0  0  0  0  0  0  0  0  0  0  0  0
  -24.3696  -36.8624   22.2204 H   0  0  0  0  0  0  0  0  0  0  0  0
  -23.7669  -37.6632   23.6516 H   0  0  0  0  0  0  0  0  0  0  0  0
  -25.9445  -31.6237   20.5691 H   0  0  0  0  0  0  0  0  0  0  0  0
  -26.7436  -31.0079   22.0108 H   0  0  0  0  0  0  0  0  0  0  0  0
  -28.0090  -29.1452   21.2057 H   0  0  0  0  0  0  0  0  0  0  0  0
  -26.1369  -26.0560   19.0719 H   0  0  0  0  0  0  0  0  0  0  0  0
  -24.0652  -27.2961   19.0997 H   0  0  0  0  0  0  0  0  0  0  0  0
  -23.6156  -30.5365   19.3930 H   0  0  0  0  0  0  0  0  0  0  0  0
  -22.7355  -29.1425   19.9945 H   0  0  0  0  0  0  0  0  0  0  0  0
  -25.1353  -36.2335   25.0565 H   0  0  0  0  0  0  0  0  0  0  0  0
  -21.0070  -28.3206   24.0793 H   0  0  0  0  0  0  0  0  0  0  0  0
  -20.5555  -26.2518   23.3550 H   0  0  0  0  0  0  0  0  0  0  0  0
  -21.5974  -26.8362   22.0454 H   0  0  0  0  0  0  0  0  0  0  0  0
  -19.6810  -25.6422   21.1488 H   0  0  0  0  0  0  0  0  0  0  0  0
  -19.6406  -27.3343   20.7034 H   0  0  0  0  0  0  0  0  0  0  0  0
  -17.4282  -26.6888   21.4113 H   0  0  0  0  0  0  0  0  0  0  0  0
  -18.0803  -26.0130   22.9049 H   0  0  0  0  0  0  0  0  0  0  0  0
  -19.7265  -30.6774   24.2204 H   0  0  0  0  0  0  0  0  0  0  0  0
  -17.5064  -31.5856   24.4483 H   0  0  0  0  0  0  0  0  0  0  0  0
  -15.5878  -30.2839   23.7407 H   0  0  0  0  0  0  0  0  0  0  0  0
  -15.9120  -28.0941   22.7766 H   0  0  0  0  0  0  0  0  0  0  0  0
  -24.5787  -30.7757   25.6817 H   0  0  0  0  0  0  0  0  0  0  0  0
  -25.0041  -32.2289   26.5536 H   0  0  0  0  0  0  0  0  0  0  0  0
  -25.8166  -30.7245   26.9138 H   0  0  0  0  0  0  0  0  0  0  0  0
  -26.2892  -29.7335   24.0803 H   0  0  0  0  0  0  0  0  0  0  0  0
  -27.4336  -29.7484   25.4006 H   0  0  0  0  0  0  0  0  0  0  0  0
  -27.8466  -30.4994   23.8779 H   0  0  0  0  0  0  0  0  0  0  0  0
  -27.2251  -33.3632   26.1242 H   0  0  0  0  0  0  0  0  0  0  0  0
  -28.3902  -32.6065   25.0645 H   0  0  0  0  0  0  0  0  0  0  0  0
  -27.9772  -31.8555   26.5872 H   0  0  0  0  0  0  0  0  0  0  0  0
  -28.2744  -38.0016   24.6863 H   0  0  0  0  0  0  0  0  0  0  0  0
  -28.0396  -36.2711   24.7461 H   0  0  0  0  0  0  0  0  0  0  0  0
  -27.1773  -37.3087   25.8564 H   0  0  0  0  0  0  0  0  0  0  0  0
  -20.9627  -29.9365   21.7352 H   0  0  0  0  0  0  0  0  0  0  0  0
  -26.0447  -38.2561   24.0273 H   0  0  0  0  0  0  0  0  0  0  0  0
  -31.9644  -18.7703   20.2911 H   0  0  0  0  0  0  0  0  0  0  0  0
  -30.2636  -17.2796   23.2335 H   0  0  0  0  0  0  0  0  0  0  0  0
  -31.6391  -16.9950   22.1519 H   0  0  0  0  0  0  0  0  0  0  0  0
  -26.3714  -22.8168   19.9850 H   0  0  0  0  0  0  0  0  0  0  0  0
  -26.5273  -23.0722   18.3144 H   0  0  0  0  0  0  0  0  0  0  0  0
  -27.3514  -21.1815   20.6281 H   0  0  0  0  0  0  0  0  0  0  0  0
  -28.9824  -15.8734   21.8780 H   0  0  0  0  0  0  0  0  0  0  0  0
  1 25  1  0  0  0  0
  1 30  2  0  0  0  0
  1 79  1  0  0  0  0
  2  3  1  0  0  0  0
  2 25  1  0  0  0  0
  2 82  1  0  0  0  0
  2 83  1  0  0  0  0
  3  4  1  0  0  0  0
  3 84  1  0  0  0  0
  3 85  1  0  0  0  0
  4  5  1  0  0  0  0
  4 86  1  0  0  0  0
  4 87  1  0  0  0  0
  5  6  1  0  0  0  0
  5 26  1  0  0  0  0
  5 88  1  6  0  0  0
  6 25  1  0  0  0  0
  6 89  1  0  0  0  0
  6 90  1  0  0  0  0
  7  8  2  0  0  0  0
  7 26  1  0  0  0  0
  7 29  1  0  0  0  0
  8  9  1  0  0  0  0
  8 22  1  0  0  0  0
  9 10  1  0  0  0  0
  9 27  2  0  0  0  0
 10 11  2  0  0  0  0
 10 15  1  0  0  0  0
 11 12  1  0  0  0  0
 11 91  1  0  0  0  0
 12 13  2  0  0  0  0
 12 92  1  0  0  0  0
 13 14  1  0  0  0  0
 13 31  1  0  0  0  0
 14 15  2  0  0  0  0
 14 93  1  0  0  0  0
 15 94  1  0  0  0  0
 16 17  2  0  0  0  0
 16 21  1  0  0  0  0
 16 31  1  0  0  0  0
 17 18  1  0  0  0  0
 17 95  1  0  0  0  0
 18 19  2  0  0  0  0
 18 96  1  0  0  0  0
 19 20  1  0  0  0  0
 19 24  1  0  0  0  0
 20 21  2  0  0  0  0
 20 97  1  0  0  0  0
 21 23  1  0  0  0  0
 22 28  1  0  0  0  0
 22 32  2  0  0  0  0
 26 27  1  0  0  0  0
 28 98  1  0  0  0  0
 28 99  1  0  0  0  0
 29100  1  0  0  0  0
 29101  1  0  0  0  0
 33 34  1  0  0  0  0
 33 66  1  0  0  0  0
 33 70  2  0  0  0  0
 34 36  1  0  0  0  0
 34 59  1  0  0  0  0
 34102  1  6  0  0  0
 35 44  2  0  0  0  0
 35 45  1  0  0  0  0
 35 68  1  0  0  0  0
 36 56  1  0  0  0  0
 36103  1  0  0  0  0
 37 39  1  0  0  0  0
 37 47  1  0  0  0  0
 37 66  1  0  0  0  0
 37104  1  6  0  0  0
 38 43  2  0  0  0  0
 38 46  1  0  0  0  0
 38 47  1  0  0  0  0
 39 64  1  0  0  0  0
 39 67  2  0  0  0  0
 40 52  1  0  0  0  0
 40 53  2  0  0  0  0
 40 58  1  0  0  0  0
 41105  1  0  0  0  0
 41106  1  0  0  0  0
 41107  1  0  0  0  0
 42 43  1  0  0  0  0
 42 66  1  0  0  0  0
 42108  1  0  0  0  0
 42109  1  0  0  0  0
 43 44  1  0  0  0  0
 44110  1  0  0  0  0
 45 46  2  0  0  0  0
 45111  1  0  0  0  0
 46112  1  0  0  0  0
 47113  1  0  0  0  0
 47114  1  0  0  0  0
 48 41  1  0  0  0  0
 48 56  1  0  0  0  0
 48 65  1  0  0  0  0
 48115  1  1  0  0  0
 49 50  1  0  0  0  0
 49 53  1  0  0  0  0
 49 64  1  0  0  0  0
 49116  1  1  0  0  0
 50 51  1  0  0  0  0
 50117  1  0  0  0  0
 50118  1  0  0  0  0
 51 52  1  0  0  0  0
 51119  1  0  0  0  0
 51120  1  0  0  0  0
 52121  1  0  0  0  0
 52122  1  0  0  0  0
 53 54  1  0  0  0  0
 54 55  2  0  0  0  0
 54123  1  0  0  0  0
 55 57  1  0  0  0  0
 55124  1  0  0  0  0
 56 69  2  0  0  0  0
 57 58  2  0  0  0  0
 57125  1  0  0  0  0
 58126  1  0  0  0  0
 59 60  1  0  0  0  0
 59 61  1  0  0  0  0
 59 62  1  0  0  0  0
 60127  1  0  0  0  0
 60128  1  0  0  0  0
 60129  1  0  0  0  0
 61130  1  0  0  0  0
 61131  1  0  0  0  0
 61132  1  0  0  0  0
 62133  1  0  0  0  0
 62134  1  0  0  0  0
 62135  1  0  0  0  0
 63 65  1  0  0  0  0
 63136  1  0  0  0  0
 63137  1  0  0  0  0
 63138  1  0  0  0  0
 64139  1  0  0  0  0
 65140  1  0  0  0  0
 68 76  1  0  0  0  0
 71 72  2  0  0  0  0
 71 77  1  0  0  0  0
 71141  1  0  0  0  0
 72 75  1  0  0  0  0
 72 81  1  0  0  0  0
 73 77  2  0  0  0  0
 73 78  1  0  0  0  0
 73 81  1  0  0  0  0
 74 76  1  0  0  0  0
 74 78  1  0  0  0  0
 74 80  2  0  0  0  0
 75 79  1  0  0  0  0
 75142  1  0  0  0  0
 75143  1  0  0  0  0
 76144  1  0  0  0  0
 76145  1  0  0  0  0
 78146  1  0  0  0  0
 79147  1  0  0  0  0
M  ISO  4   1 100  68 101  76 101  79 100
M  END
$$$$
67
 OpenBabel04052305473D

148156  0  0  0  0  0  0  0  0999 V2000
  -30.7652  -14.3608   20.6636 C   0  0  0  0  0  0  0  0  0  0  0  0
  -30.4392  -12.2669   19.3775 C   0  0  0  0  0  0  0  0  0  0  0  0
  -29.4791  -12.5281   18.1977 C   0  0  0  0  0  0  0  0  0  0  0  0
  -27.9985  -12.3963   18.6038 C   0  0  0  0  0  0  0  0  0  0  0  0
  -27.6639  -13.2170   19.8820 C   0  0  2  0  0  0  0  0  0  0  0  0
  -28.6795  -12.9602   21.0279 C   0  0  0  0  0  0  0  0  0  0  0  0
  -25.2633  -13.8245   20.5754 C   0  0  0  0  0  0  0  0  0  0  0  0
  -24.1645  -13.0409   20.9408 C   0  0  0  0  0  0  0  0  0  0  0  0
  -24.6400  -11.7009   20.8697 C   0  0  0  0  0  0  0  0  0  0  0  0
  -23.9005  -10.4085   21.0420 C   0  0  0  0  0  0  0  0  0  0  0  0
  -24.3588   -9.4123   21.9123 C   0  0  0  0  0  0  0  0  0  0  0  0
  -23.6296   -8.2350   22.0803 C   0  0  0  0  0  0  0  0  0  0  0  0
  -22.4385   -8.0419   21.3657 C   0  0  0  0  0  0  0  0  0  0  0  0
  -22.0103   -9.0167   20.4678 C   0  0  0  0  0  0  0  0  0  0  0  0
  -22.7317  -10.1925   20.3102 C   0  0  0  0  0  0  0  0  0  0  0  0
  -21.6857   -6.0709   22.5391 C   0  0  0  0  0  0  0  0  0  0  0  0
  -21.4064   -6.5490   23.8264 C   0  0  0  0  0  0  0  0  0  0  0  0
  -21.3635   -5.6677   24.9085 C   0  0  0  0  0  0  0  0  0  0  0  0
  -21.5973   -4.3067   24.7088 C   0  0  0  0  0  0  0  0  0  0  0  0
  -21.8700   -3.8284   23.4282 C   0  0  0  0  0  0  0  0  0  0  0  0
  -21.9144   -4.7056   22.3460 C   0  0  0  0  0  0  0  0  0  0  0  0
  -22.8194  -13.5263   21.1763 C   0  0  0  0  0  0  0  0  0  0  0  0
  -22.1559   -4.2206   21.1063 F   0  0  0  0  0  0  0  0  0  0  0  0
  -21.5628   -3.4510   25.7555 F   0  0  0  0  0  0  0  0  0  0  0  0
  -30.0261  -13.1803   20.4553 N   0  0  0  0  0  0  0  0  0  0  0  0
  -26.2911  -12.9356   20.3443 N   0  0  0  0  0  0  0  0  0  0  0  0
  -25.9236  -11.6675   20.5847 N   0  0  0  0  0  0  0  0  0  0  0  0
  -22.0708  -12.7905   22.0005 N   0  0  0  0  0  0  0  0  0  0  0  0
  -25.4117  -15.1773   20.4097 N   0  0  0  0  0  0  0  0  0  0  0  0
  -31.7916  -14.6724   20.0536 O   0  0  0  0  0  0  0  0  0  0  0  0
  -21.6670   -6.9022   21.4423 O   0  0  0  0  0  0  0  0  0  0  0  0
  -22.3946  -14.5564   20.6568 O   0  0  0  0  0  0  0  0  0  0  0  0
  -24.6048  -31.8614   23.2223 C   0  0  0  0  0  0  0  0  0  0  0  0
  -25.8822  -32.4841   23.8616 C   0  0  1  0  0  0  0  0  0  0  0  0
  -27.2536  -27.5042   20.1156 C   0  0  0  0  0  0  0  0  0  0  0  0
  -25.5726  -33.8762   24.2210 N   0  0  0  0  0  0  0  0  0  0  0  0
  -23.4066  -30.4859   21.5461 C   0  0  2  0  0  0  0  0  0  0  0  0
  -24.8467  -28.9636   20.1247 C   0  0  0  0  0  0  0  0  0  0  0  0
  -22.7412  -29.4652   22.5052 C   0  0  0  0  0  0  0  0  0  0  0  0
  -18.0167  -28.1302   22.8626 C   0  0  0  0  0  0  0  0  0  0  0  0
  -24.1342  -36.7390   23.2568 C   0  0  0  0  0  0  0  0  0  0  0  0
  -25.9141  -30.8882   21.3456 C   0  0  0  0  0  0  0  0  0  0  0  0
  -25.9930  -29.5029   20.7208 C   0  0  0  0  0  0  0  0  0  0  0  0
  -27.1758  -28.7612   20.7331 C   0  0  0  0  0  0  0  0  0  0  0  0
  -26.1032  -26.9836   19.5230 C   0  0  0  0  0  0  0  0  0  0  0  0
  -24.9097  -27.7011   19.5331 C   0  0  0  0  0  0  0  0  0  0  0  0
  -23.5715  -29.7899   20.1582 C   0  0  0  0  0  0  0  0  0  0  0  0
  -25.3990  -36.3212   24.0232 C   0  0  1  0  0  0  0  0  0  0  0  0
  -20.5793  -28.3813   23.1004 C   0  0  2  0  0  0  0  0  0  0  0  0
  -20.6548  -26.9392   22.5411 C   0  0  0  0  0  0  0  0  0  0  0  0
  -19.5615  -26.6407   21.5143 C   0  0  0  0  0  0  0  0  0  0  0  0
  -18.1797  -26.7818   22.1673 C   0  0  0  0  0  0  0  0  0  0  0  0
  -19.1385  -28.8769   23.2988 C   0  0  0  0  0  0  0  0  0  0  0  0
  -18.9183  -30.1286   23.8878 C   0  0  0  0  0  0  0  0  0  0  0  0
  -17.6396  -30.6493   24.0352 C   0  0  0  0  0  0  0  0  0  0  0  0
  -25.9153  -34.9582   23.4993 C   0  0  0  0  0  0  0  0  0  0  0  0
  -16.5415  -29.9068   23.6254 C   0  0  0  0  0  0  0  0  0  0  0  0
  -16.7331  -28.6521   23.0586 C   0  0  0  0  0  0  0  0  0  0  0  0
  -26.4583  -31.6439   25.0683 C   0  0  0  0  0  0  0  0  0  0  0  0
  -25.3807  -31.3179   26.1374 C   0  0  0  0  0  0  0  0  0  0  0  0
  -27.0530  -30.3024   24.5680 C   0  0  0  0  0  0  0  0  0  0  0  0
  -27.6014  -32.4281   25.7651 C   0  0  0  0  0  0  0  0  0  0  0  0
  -27.5629  -37.2220   24.8621 C   0  0  0  0  0  0  0  0  0  0  0  0
  -21.4133  -29.3375   22.3735 N   0  0  0  0  0  0  0  0  0  0  0  0
  -26.4706  -37.3372   23.9061 N   0  0  0  0  0  0  0  0  0  0  0  0
  -24.6674  -31.0544   22.1178 N   0  0  0  0  0  0  0  0  0  0  0  0
  -23.4259  -28.8150   23.2971 O   0  0  0  0  0  0  0  0  0  0  0  0
  -28.3948  -26.7345   20.0089 O   0  0  0  0  0  0  0  0  0  0  0  0
  -26.5870  -34.9065   22.4671 O   0  0  0  0  0  0  0  0  0  0  0  0
  -23.5365  -32.1254   23.7833 O   0  0  0  0  0  0  0  0  0  0  0  0
  -30.0311  -22.4961   18.1928 C   0  0  0  0  0  0  0  0  0  0  0  0
  -28.7614  -20.9066   18.5686 C   0  0  0  0  0  0  0  0  0  0  0  0
  -29.5173  -24.9351   18.3078 C   0  0  0  0  0  0  0  0  0  0  0  0
  -29.4042  -27.4013   18.8027 C   0  0  0  0  0  0  0  0  0  0  0  0
  -30.3222  -26.2108   18.5480 C   0  0  1  0  0  0  0  0  0  0  0  0
  -28.7463  -22.2156   18.5570 N   0  0  0  0  0  0  0  0  0  0  0  0
  -30.8198  -21.4379   17.9835 N   0  0  0  0  0  0  0  0  0  0  0  0
  -30.4095  -23.8224   18.0706 N   0  0  0  0  0  0  0  0  0  0  0  0
  -27.7083  -20.0097   18.8754 N   0  0  0  0  0  0  0  0  0  0  0  0
  -29.9612  -20.3610   18.2378 O   0  0  0  0  0  0  0  0  0  0  0  0
  -31.1397  -26.0363   19.7071 O   0  0  0  0  0  0  0  0  0  0  0  0
  -31.4485  -12.4701   19.0860 H   0  0  0  0  0  0  0  0  0  0  0  0
  -30.3970  -11.2460   19.6950 H   0  0  0  0  0  0  0  0  0  0  0  0
  -29.6870  -11.8204   17.4226 H   0  0  0  0  0  0  0  0  0  0  0  0
  -29.6375  -13.5326   17.8649 H   0  0  0  0  0  0  0  0  0  0  0  0
  -27.7830  -11.3650   18.7904 H   0  0  0  0  0  0  0  0  0  0  0  0
  -27.4028  -12.7801   17.8021 H   0  0  0  0  0  0  0  0  0  0  0  0
  -27.7353  -14.2503   19.6136 H   0  0  0  0  0  0  0  0  0  0  0  0
  -28.5890  -11.9550   21.3832 H   0  0  0  0  0  0  0  0  0  0  0  0
  -28.5005  -13.6134   21.8562 H   0  0  0  0  0  0  0  0  0  0  0  0
  -25.2399   -9.5495   22.4318 H   0  0  0  0  0  0  0  0  0  0  0  0
  -23.9663   -7.5070   22.7297 H   0  0  0  0  0  0  0  0  0  0  0  0
  -21.1515   -8.8641   19.9162 H   0  0  0  0  0  0  0  0  0  0  0  0
  -22.4016  -10.9115   19.6476 H   0  0  0  0  0  0  0  0  0  0  0  0
  -21.2319   -7.5552   23.9750 H   0  0  0  0  0  0  0  0  0  0  0  0
  -21.1589   -6.0228   25.8556 H   0  0  0  0  0  0  0  0  0  0  0  0
  -22.0396   -2.8212   23.2809 H   0  0  0  0  0  0  0  0  0  0  0  0
  -22.4401  -11.9703   22.4008 H   0  0  0  0  0  0  0  0  0  0  0  0
  -21.1493  -13.0679   22.2082 H   0  0  0  0  0  0  0  0  0  0  0  0
  -24.6538  -15.7807   20.5848 H   0  0  0  0  0  0  0  0  0  0  0  0
  -26.2762  -15.5453   20.1156 H   0  0  0  0  0  0  0  0  0  0  0  0
  -26.6778  -32.4663   23.1464 H   0  0  0  0  0  0  0  0  0  0  0  0
  -25.0747  -34.0282   25.0566 H   0  0  0  0  0  0  0  0  0  0  0  0
  -22.7881  -31.3489   21.4131 H   0  0  0  0  0  0  0  0  0  0  0  0
  -23.3854  -35.9823   23.3648 H   0  0  0  0  0  0  0  0  0  0  0  0
  -24.3696  -36.8624   22.2204 H   0  0  0  0  0  0  0  0  0  0  0  0
  -23.7669  -37.6632   23.6516 H   0  0  0  0  0  0  0  0  0  0  0  0
  -25.9445  -31.6237   20.5691 H   0  0  0  0  0  0  0  0  0  0  0  0
  -26.7436  -31.0079   22.0108 H   0  0  0  0  0  0  0  0  0  0  0  0
  -28.0090  -29.1452   21.2057 H   0  0  0  0  0  0  0  0  0  0  0  0
  -26.1369  -26.0560   19.0719 H   0  0  0  0  0  0  0  0  0  0  0  0
  -24.0652  -27.2961   19.0997 H   0  0  0  0  0  0  0  0  0  0  0  0
  -23.6156  -30.5365   19.3930 H   0  0  0  0  0  0  0  0  0  0  0  0
  -22.7355  -29.1425   19.9945 H   0  0  0  0  0  0  0  0  0  0  0  0
  -25.1353  -36.2335   25.0565 H   0  0  0  0  0  0  0  0  0  0  0  0
  -21.0070  -28.3206   24.0793 H   0  0  0  0  0  0  0  0  0  0  0  0
  -20.5555  -26.2518   23.3550 H   0  0  0  0  0  0  0  0  0  0  0  0
  -21.5974  -26.8362   22.0454 H   0  0  0  0  0  0  0  0  0  0  0  0
  -19.6810  -25.6422   21.1488 H   0  0  0  0  0  0  0  0  0  0  0  0
  -19.6406  -27.3343   20.7034 H   0  0  0  0  0  0  0  0  0  0  0  0
  -17.4282  -26.6888   21.4113 H   0  0  0  0  0  0  0  0  0  0  0  0
  -18.0803  -26.0130   22.9049 H   0  0  0  0  0  0  0  0  0  0  0  0
  -19.7265  -30.6774   24.2204 H   0  0  0  0  0  0  0  0  0  0  0  0
  -17.5064  -31.5856   24.4483 H   0  0  0  0  0  0  0  0  0  0  0  0
  -15.5878  -30.2839   23.7407 H   0  0  0  0  0  0  0  0  0  0  0  0
  -15.9120  -28.0941   22.7766 H   0  0  0  0  0  0  0  0  0  0  0  0
  -24.5787  -30.7757   25.6817 H   0  0  0  0  0  0  0  0  0  0  0  0
  -25.0041  -32.2289   26.5536 H   0  0  0  0  0  0  0  0  0  0  0  0
  -25.8166  -30.7245   26.9138 H   0  0  0  0  0  0  0  0  0  0  0  0
  -26.2892  -29.7335   24.0803 H   0  0  0  0  0  0  0  0  0  0  0  0
  -27.4336  -29.7484   25.4006 H   0  0  0  0  0  0  0  0  0  0  0  0
  -27.8466  -30.4994   23.8779 H   0  0  0  0  0  0  0  0  0  0  0  0
  -27.2251  -33.3632   26.1242 H   0  0  0  0  0  0  0  0  0  0  0  0
  -28.3902  -32.6065   25.0645 H   0  0  0  0  0  0  0  0  0  0  0  0
  -27.9772  -31.8555   26.5872 H   0  0  0  0  0  0  0  0  0  0  0  0
  -28.2744  -38.0016   24.6863 H   0  0  0  0  0  0  0  0  0  0  0  0
  -28.0396  -36.2711   24.7461 H   0  0  0  0  0  0  0  0  0  0  0  0
  -27.1773  -37.3087   25.8564 H   0  0  0  0  0  0  0  0  0  0  0  0
  -20.9627  -29.9365   21.7352 H   0  0  0  0  0  0  0  0  0  0  0  0
  -26.0447  -38.2561   24.0273 H   0  0  0  0  0  0  0  0  0  0  0  0
  -28.8857  -25.0704   17.4548 H   0  0  0  0  0  0  0  0  0  0  0  0
  -28.9218  -24.7285   19.1724 H   0  0  0  0  0  0  0  0  0  0  0  0
  -28.8524  -27.6731   17.9272 H   0  0  0  0  0  0  0  0  0  0  0  0
  -29.9025  -28.3071   19.0785 H   0  0  0  0  0  0  0  0  0  0  0  0
  -30.9137  -26.3983   17.6763 H   0  0  0  0  0  0  0  0  0  0  0  0
  -31.3377  -24.0187   17.8076 H   0  0  0  0  0  0  0  0  0  0  0  0
  -26.7400  -20.1823   18.8338 H   0  0  0  0  0  0  0  0  0  0  0  0
  -30.5757  -25.8686   20.4783 H   0  0  0  0  0  0  0  0  0  0  0  0
  1 25  1  0  0  0  0
  1 30  2  0  0  0  0
  1 79  1  0  0  0  0
  2  3  1  0  0  0  0
  2 25  1  0  0  0  0
  2 82  1  0  0  0  0
  2 83  1  0  0  0  0
  3  4  1  0  0  0  0
  3 84  1  0  0  0  0
  3 85  1  0  0  0  0
  4  5  1  0  0  0  0
  4 86  1  0  0  0  0
  4 87  1  0  0  0  0
  5  6  1  0  0  0  0
  5 26  1  0  0  0  0
  5 88  1  6  0  0  0
  6 25  1  0  0  0  0
  6 89  1  0  0  0  0
  6 90  1  0  0  0  0
  7  8  2  0  0  0  0
  7 26  1  0  0  0  0
  7 29  1  0  0  0  0
  8  9  1  0  0  0  0
  8 22  1  0  0  0  0
  9 10  1  0  0  0  0
  9 27  2  0  0  0  0
 10 11  2  0  0  0  0
 10 15  1  0  0  0  0
 11 12  1  0  0  0  0
 11 91  1  0  0  0  0
 12 13  2  0  0  0  0
 12 92  1  0  0  0  0
 13 14  1  0  0  0  0
 13 31  1  0  0  0  0
 14 15  2  0  0  0  0
 14 93  1  0  0  0  0
 15 94  1  0  0  0  0
 16 17  2  0  0  0  0
 16 21  1  0  0  0  0
 16 31  1  0  0  0  0
 17 18  1  0  0  0  0
 17 95  1  0  0  0  0
 18 19  2  0  0  0  0
 18 96  1  0  0  0  0
 19 20  1  0  0  0  0
 19 24  1  0  0  0  0
 20 21  2  0  0  0  0
 20 97  1  0  0  0  0
 21 23  1  0  0  0  0
 22 28  1  0  0  0  0
 22 32  2  0  0  0  0
 26 27  1  0  0  0  0
 28 98  1  0  0  0  0
 28 99  1  0  0  0  0
 29100  1  0  0  0  0
 29101  1  0  0  0  0
 33 34  1  0  0  0  0
 33 66  1  0  0  0  0
 33 70  2  0  0  0  0
 34 36  1  0  0  0  0
 34 59  1  0  0  0  0
 34102  1  6  0  0  0
 35 44  2  0  0  0  0
 35 45  1  0  0  0  0
 35 68  1  0  0  0  0
 36 56  1  0  0  0  0
 36103  1  0  0  0  0
 37 39  1  0  0  0  0
 37 47  1  0  0  0  0
 37 66  1  0  0  0  0
 37104  1  6  0  0  0
 38 43  2  0  0  0  0
 38 46  1  0  0  0  0
 38 47  1  0  0  0  0
 39 64  1  0  0  0  0
 39 67  2  0  0  0  0
 40 52  1  0  0  0  0
 40 53  2  0  0  0  0
 40 58  1  0  0  0  0
 41105  1  0  0  0  0
 41106  1  0  0  0  0
 41107  1  0  0  0  0
 42 43  1  0  0  0  0
 42 66  1  0  0  0  0
 42108  1  0  0  0  0
 42109  1  0  0  0  0
 43 44  1  0  0  0  0
 44110  1  0  0  0  0
 45 46  2  0  0  0  0
 45111  1  0  0  0  0
 46112  1  0  0  0  0
 47113  1  0  0  0  0
 47114  1  0  0  0  0
 48 41  1  0  0  0  0
 48 56  1  0  0  0  0
 48 65  1  0  0  0  0
 48115  1  1  0  0  0
 49 50  1  0  0  0  0
 49 53  1  0  0  0  0
 49 64  1  0  0  0  0
 49116  1  1  0  0  0
 50 51  1  0  0  0  0
 50117  1  0  0  0  0
 50118  1  0  0  0  0
 51 52  1  0  0  0  0
 51119  1  0  0  0  0
 51120  1  0  0  0  0
 52121  1  0  0  0  0
 52122  1  0  0  0  0
 53 54  1  0  0  0  0
 54 55  2  0  0  0  0
 54123  1  0  0  0  0
 55 57  1  0  0  0  0
 55124  1  0  0  0  0
 56 69  2  0  0  0  0
 57 58  2  0  0  0  0
 57125  1  0  0  0  0
 58126  1  0  0  0  0
 59 60  1  0  0  0  0
 59 61  1  0  0  0  0
 59 62  1  0  0  0  0
 60127  1  0  0  0  0
 60128  1  0  0  0  0
 60129  1  0  0  0  0
 61130  1  0  0  0  0
 61131  1  0  0  0  0
 61132  1  0  0  0  0
 62133  1  0  0  0  0
 62134  1  0  0  0  0
 62135  1  0  0  0  0
 63 65  1  0  0  0  0
 63136  1  0  0  0  0
 63137  1  0  0  0  0
 63138  1  0  0  0  0
 64139  1  0  0  0  0
 65140  1  0  0  0  0
 68 74  1  0  0  0  0
 71 76  1  0  0  0  0
 71 77  2  0  0  0  0
 71 78  1  0  0  0  0
 72 76  2  0  0  0  0
 72 79  1  0  0  0  0
 72 80  1  0  0  0  0
 73 75  1  0  0  0  0
 73 78  1  0  0  0  0
 73141  1  0  0  0  0
 73142  1  0  0  0  0
 74 75  1  0  0  0  0
 74143  1  0  0  0  0
 74144  1  0  0  0  0
 75 81  1  0  0  0  0
 75145  1  6  0  0  0
 77 80  1  0  0  0  0
 78146  1  0  0  0  0
 79147  1  0  0  0  0
 81148  1  0  0  0  0
M  ISO  4   1 100  68 101  74 101  79 100
M  END
$$$$
68
 OpenBabel04052305473D

151159  0  0  0  0  0  0  0  0999 V2000
  -30.7652  -14.3608   20.6636 C   0  0  0  0  0  0  0  0  0  0  0  0
  -30.4392  -12.2669   19.3775 C   0  0  0  0  0  0  0  0  0  0  0  0
  -29.4791  -12.5281   18.1977 C   0  0  0  0  0  0  0  0  0  0  0  0
  -27.9985  -12.3963   18.6038 C   0  0  0  0  0  0  0  0  0  0  0  0
  -27.6639  -13.2170   19.8820 C   0  0  2  0  0  0  0  0  0  0  0  0
  -28.6795  -12.9602   21.0279 C   0  0  0  0  0  0  0  0  0  0  0  0
  -25.2633  -13.8245   20.5754 C   0  0  0  0  0  0  0  0  0  0  0  0
  -24.1645  -13.0409   20.9408 C   0  0  0  0  0  0  0  0  0  0  0  0
  -24.6400  -11.7009   20.8697 C   0  0  0  0  0  0  0  0  0  0  0  0
  -23.9005  -10.4085   21.0420 C   0  0  0  0  0  0  0  0  0  0  0  0
  -24.3588   -9.4123   21.9123 C   0  0  0  0  0  0  0  0  0  0  0  0
  -23.6296   -8.2350   22.0803 C   0  0  0  0  0  0  0  0  0  0  0  0
  -22.4385   -8.0419   21.3657 C   0  0  0  0  0  0  0  0  0  0  0  0
  -22.0103   -9.0167   20.4678 C   0  0  0  0  0  0  0  0  0  0  0  0
  -22.7317  -10.1925   20.3102 C   0  0  0  0  0  0  0  0  0  0  0  0
  -21.6857   -6.0709   22.5391 C   0  0  0  0  0  0  0  0  0  0  0  0
  -21.4064   -6.5490   23.8264 C   0  0  0  0  0  0  0  0  0  0  0  0
  -21.3635   -5.6677   24.9085 C   0  0  0  0  0  0  0  0  0  0  0  0
  -21.5973   -4.3067   24.7088 C   0  0  0  0  0  0  0  0  0  0  0  0
  -21.8700   -3.8284   23.4282 C   0  0  0  0  0  0  0  0  0  0  0  0
  -21.9144   -4.7056   22.3460 C   0  0  0  0  0  0  0  0  0  0  0  0
  -22.8194  -13.5263   21.1763 C   0  0  0  0  0  0  0  0  0  0  0  0
  -22.1559   -4.2206   21.1063 F   0  0  0  0  0  0  0  0  0  0  0  0
  -21.5628   -3.4510   25.7555 F   0  0  0  0  0  0  0  0  0  0  0  0
  -30.0261  -13.1803   20.4553 N   0  0  0  0  0  0  0  0  0  0  0  0
  -26.2911  -12.9356   20.3443 N   0  0  0  0  0  0  0  0  0  0  0  0
  -25.9236  -11.6675   20.5847 N   0  0  0  0  0  0  0  0  0  0  0  0
  -22.0708  -12.7905   22.0005 N   0  0  0  0  0  0  0  0  0  0  0  0
  -25.4117  -15.1773   20.4097 N   0  0  0  0  0  0  0  0  0  0  0  0
  -31.7916  -14.6724   20.0536 O   0  0  0  0  0  0  0  0  0  0  0  0
  -21.6670   -6.9022   21.4423 O   0  0  0  0  0  0  0  0  0  0  0  0
  -22.3946  -14.5564   20.6568 O   0  0  0  0  0  0  0  0  0  0  0  0
  -24.6048  -31.8614   23.2223 C   0  0  0  0  0  0  0  0  0  0  0  0
  -25.8822  -32.4841   23.8616 C   0  0  1  0  0  0  0  0  0  0  0  0
  -27.2536  -27.5042   20.1156 C   0  0  0  0  0  0  0  0  0  0  0  0
  -25.5726  -33.8762   24.2210 N   0  0  0  0  0  0  0  0  0  0  0  0
  -23.4066  -30.4859   21.5461 C   0  0  2  0  0  0  0  0  0  0  0  0
  -24.8467  -28.9636   20.1247 C   0  0  0  0  0  0  0  0  0  0  0  0
  -22.7412  -29.4652   22.5052 C   0  0  0  0  0  0  0  0  0  0  0  0
  -18.0167  -28.1302   22.8626 C   0  0  0  0  0  0  0  0  0  0  0  0
  -24.1342  -36.7390   23.2568 C   0  0  0  0  0  0  0  0  0  0  0  0
  -25.9141  -30.8882   21.3456 C   0  0  0  0  0  0  0  0  0  0  0  0
  -25.9930  -29.5029   20.7208 C   0  0  0  0  0  0  0  0  0  0  0  0
  -27.1758  -28.7612   20.7331 C   0  0  0  0  0  0  0  0  0  0  0  0
  -26.1032  -26.9836   19.5230 C   0  0  0  0  0  0  0  0  0  0  0  0
  -24.9097  -27.7011   19.5331 C   0  0  0  0  0  0  0  0  0  0  0  0
  -23.5715  -29.7899   20.1582 C   0  0  0  0  0  0  0  0  0  0  0  0
  -25.3990  -36.3212   24.0232 C   0  0  1  0  0  0  0  0  0  0  0  0
  -20.5793  -28.3813   23.1004 C   0  0  2  0  0  0  0  0  0  0  0  0
  -20.6548  -26.9392   22.5411 C   0  0  0  0  0  0  0  0  0  0  0  0
  -19.5615  -26.6407   21.5143 C   0  0  0  0  0  0  0  0  0  0  0  0
  -18.1797  -26.7818   22.1673 C   0  0  0  0  0  0  0  0  0  0  0  0
  -19.1385  -28.8769   23.2988 C   0  0  0  0  0  0  0  0  0  0  0  0
  -18.9183  -30.1286   23.8878 C   0  0  0  0  0  0  0  0  0  0  0  0
  -17.6396  -30.6493   24.0352 C   0  0  0  0  0  0  0  0  0  0  0  0
  -25.9153  -34.9582   23.4993 C   0  0  0  0  0  0  0  0  0  0  0  0
  -16.5415  -29.9068   23.6254 C   0  0  0  0  0  0  0  0  0  0  0  0
  -16.7331  -28.6521   23.0586 C   0  0  0  0  0  0  0  0  0  0  0  0
  -26.4583  -31.6439   25.0683 C   0  0  0  0  0  0  0  0  0  0  0  0
  -25.3807  -31.3179   26.1374 C   0  0  0  0  0  0  0  0  0  0  0  0
  -27.0530  -30.3024   24.5680 C   0  0  0  0  0  0  0  0  0  0  0  0
  -27.6014  -32.4281   25.7651 C   0  0  0  0  0  0  0  0  0  0  0  0
  -27.5629  -37.2220   24.8621 C   0  0  0  0  0  0  0  0  0  0  0  0
  -21.4133  -29.3375   22.3735 N   0  0  0  0  0  0  0  0  0  0  0  0
  -26.4706  -37.3372   23.9061 N   0  0  0  0  0  0  0  0  0  0  0  0
  -24.6674  -31.0544   22.1178 N   0  0  0  0  0  0  0  0  0  0  0  0
  -23.4259  -28.8150   23.2971 O   0  0  0  0  0  0  0  0  0  0  0  0
  -28.3948  -26.7345   20.0089 O   0  0  0  0  0  0  0  0  0  0  0  0
  -26.5870  -34.9065   22.4671 O   0  0  0  0  0  0  0  0  0  0  0  0
  -23.5365  -32.1254   23.7833 O   0  0  0  0  0  0  0  0  0  0  0  0
  -30.5631  -22.8311   20.6215 C   0  0  0  0  0  0  0  0  0  0  0  0
  -30.0275  -21.5833   20.3799 C   0  0  0  0  0  0  0  0  0  0  0  0
  -29.6037  -23.2515   18.6946 C   0  0  0  0  0  0  0  0  0  0  0  0
  -30.9176  -25.4335   16.8074 C   0  0  0  0  0  0  0  0  0  0  0  0
  -28.4969  -25.8905   16.2815 C   0  0  0  0  0  0  0  0  0  0  0  0
  -27.0504  -25.8580   16.7648 C   0  0  0  0  0  0  0  0  0  0  0  0
  -29.4812  -25.3228   17.3089 C   0  0  1  0  0  0  0  0  0  0  0  0
  -30.3215  -23.7888   19.6560 N   0  0  0  0  0  0  0  0  0  0  0  0
  -30.0625  -20.3732   21.1161 N   0  0  0  0  0  0  0  0  0  0  0  0
  -29.1812  -23.9296   17.5653 N   0  0  0  0  0  0  0  0  0  0  0  0
  -29.1834  -21.5988   18.8871 S   0  0  0  0  0  0  0  0  0  0  0  0
  -31.4485  -12.4701   19.0860 H   0  0  0  0  0  0  0  0  0  0  0  0
  -30.3970  -11.2460   19.6950 H   0  0  0  0  0  0  0  0  0  0  0  0
  -29.6870  -11.8204   17.4226 H   0  0  0  0  0  0  0  0  0  0  0  0
  -29.6375  -13.5326   17.8649 H   0  0  0  0  0  0  0  0  0  0  0  0
  -27.7830  -11.3650   18.7904 H   0  0  0  0  0  0  0  0  0  0  0  0
  -27.4028  -12.7801   17.8021 H   0  0  0  0  0  0  0  0  0  0  0  0
  -27.7353  -14.2503   19.6136 H   0  0  0  0  0  0  0  0  0  0  0  0
  -28.5890  -11.9550   21.3832 H   0  0  0  0  0  0  0  0  0  0  0  0
  -28.5005  -13.6134   21.8562 H   0  0  0  0  0  0  0  0  0  0  0  0
  -25.2399   -9.5495   22.4318 H   0  0  0  0  0  0  0  0  0  0  0  0
  -23.9663   -7.5070   22.7297 H   0  0  0  0  0  0  0  0  0  0  0  0
  -21.1515   -8.8641   19.9162 H   0  0  0  0  0  0  0  0  0  0  0  0
  -22.4016  -10.9115   19.6476 H   0  0  0  0  0  0  0  0  0  0  0  0
  -21.2319   -7.5552   23.9750 H   0  0  0  0  0  0  0  0  0  0  0  0
  -21.1589   -6.0228   25.8556 H   0  0  0  0  0  0  0  0  0  0  0  0
  -22.0396   -2.8212   23.2809 H   0  0  0  0  0  0  0  0  0  0  0  0
  -22.4401  -11.9703   22.4008 H   0  0  0  0  0  0  0  0  0  0  0  0
  -21.1493  -13.0679   22.2082 H   0  0  0  0  0  0  0  0  0  0  0  0
  -24.6538  -15.7807   20.5848 H   0  0  0  0  0  0  0  0  0  0  0  0
  -26.2762  -15.5453   20.1156 H   0  0  0  0  0  0  0  0  0  0  0  0
  -26.6778  -32.4663   23.1464 H   0  0  0  0  0  0  0  0  0  0  0  0
  -25.0747  -34.0282   25.0566 H   0  0  0  0  0  0  0  0  0  0  0  0
  -22.7881  -31.3489   21.4131 H   0  0  0  0  0  0  0  0  0  0  0  0
  -23.3854  -35.9823   23.3648 H   0  0  0  0  0  0  0  0  0  0  0  0
  -24.3696  -36.8624   22.2204 H   0  0  0  0  0  0  0  0  0  0  0  0
  -23.7669  -37.6632   23.6516 H   0  0  0  0  0  0  0  0  0  0  0  0
  -25.9445  -31.6237   20.5691 H   0  0  0  0  0  0  0  0  0  0  0  0
  -26.7436  -31.0079   22.0108 H   0  0  0  0  0  0  0  0  0  0  0  0
  -28.0090  -29.1452   21.2057 H   0  0  0  0  0  0  0  0  0  0  0  0
  -26.1369  -26.0560   19.0719 H   0  0  0  0  0  0  0  0  0  0  0  0
  -24.0652  -27.2961   19.0997 H   0  0  0  0  0  0  0  0  0  0  0  0
  -23.6156  -30.5365   19.3930 H   0  0  0  0  0  0  0  0  0  0  0  0
  -22.7355  -29.1425   19.9945 H   0  0  0  0  0  0  0  0  0  0  0  0
  -25.1353  -36.2335   25.0565 H   0  0  0  0  0  0  0  0  0  0  0  0
  -21.0070  -28.3206   24.0793 H   0  0  0  0  0  0  0  0  0  0  0  0
  -20.5555  -26.2518   23.3550 H   0  0  0  0  0  0  0  0  0  0  0  0
  -21.5974  -26.8362   22.0454 H   0  0  0  0  0  0  0  0  0  0  0  0
  -19.6810  -25.6422   21.1488 H   0  0  0  0  0  0  0  0  0  0  0  0
  -19.6406  -27.3343   20.7034 H   0  0  0  0  0  0  0  0  0  0  0  0
  -17.4282  -26.6888   21.4113 H   0  0  0  0  0  0  0  0  0  0  0  0
  -18.0803  -26.0130   22.9049 H   0  0  0  0  0  0  0  0  0  0  0  0
  -19.7265  -30.6774   24.2204 H   0  0  0  0  0  0  0  0  0  0  0  0
  -17.5064  -31.5856   24.4483 H   0  0  0  0  0  0  0  0  0  0  0  0
  -15.5878  -30.2839   23.7407 H   0  0  0  0  0  0  0  0  0  0  0  0
  -15.9120  -28.0941   22.7766 H   0  0  0  0  0  0  0  0  0  0  0  0
  -24.5787  -30.7757   25.6817 H   0  0  0  0  0  0  0  0  0  0  0  0
  -25.0041  -32.2289   26.5536 H   0  0  0  0  0  0  0  0  0  0  0  0
  -25.8166  -30.7245   26.9138 H   0  0  0  0  0  0  0  0  0  0  0  0
  -26.2892  -29.7335   24.0803 H   0  0  0  0  0  0  0  0  0  0  0  0
  -27.4336  -29.7484   25.4006 H   0  0  0  0  0  0  0  0  0  0  0  0
  -27.8466  -30.4994   23.8779 H   0  0  0  0  0  0  0  0  0  0  0  0
  -27.2251  -33.3632   26.1242 H   0  0  0  0  0  0  0  0  0  0  0  0
  -28.3902  -32.6065   25.0645 H   0  0  0  0  0  0  0  0  0  0  0  0
  -27.9772  -31.8555   26.5872 H   0  0  0  0  0  0  0  0  0  0  0  0
  -28.2744  -38.0016   24.6863 H   0  0  0  0  0  0  0  0  0  0  0  0
  -28.0396  -36.2711   24.7461 H   0  0  0  0  0  0  0  0  0  0  0  0
  -27.1773  -37.3087   25.8564 H   0  0  0  0  0  0  0  0  0  0  0  0
  -20.9627  -29.9365   21.7352 H   0  0  0  0  0  0  0  0  0  0  0  0
  -26.0447  -38.2561   24.0273 H   0  0  0  0  0  0  0  0  0  0  0  0
  -31.1109  -23.0366   21.4716 H   0  0  0  0  0  0  0  0  0  0  0  0
  -31.1500  -26.4600   16.6146 H   0  0  0  0  0  0  0  0  0  0  0  0
  -31.0250  -24.8680   15.9054 H   0  0  0  0  0  0  0  0  0  0  0  0
  -31.5853  -25.0501   17.5504 H   0  0  0  0  0  0  0  0  0  0  0  0
  -28.7655  -26.9056   16.0759 H   0  0  0  0  0  0  0  0  0  0  0  0
  -28.5570  -25.2778   15.4063 H   0  0  0  0  0  0  0  0  0  0  0  0
  -26.5779  -24.8993   16.7147 H   0  0  0  0  0  0  0  0  0  0  0  0
  -26.2714  -26.4191   16.2923 H   0  0  0  0  0  0  0  0  0  0  0  0
  -29.3805  -25.8913   18.2098 H   0  0  0  0  0  0  0  0  0  0  0  0
  -29.9171  -20.5911   22.0651 H   0  0  0  0  0  0  0  0  0  0  0  0
  -28.6475  -23.4382   16.8997 H   0  0  0  0  0  0  0  0  0  0  0  0
  1 25  1  0  0  0  0
  1 30  2  0  0  0  0
  1 79  1  0  0  0  0
  2  3  1  0  0  0  0
  2 25  1  0  0  0  0
  2 82  1  0  0  0  0
  2 83  1  0  0  0  0
  3  4  1  0  0  0  0
  3 84  1  0  0  0  0
  3 85  1  0  0  0  0
  4  5  1  0  0  0  0
  4 86  1  0  0  0  0
  4 87  1  0  0  0  0
  5  6  1  0  0  0  0
  5 26  1  0  0  0  0
  5 88  1  6  0  0  0
  6 25  1  0  0  0  0
  6 89  1  0  0  0  0
  6 90  1  0  0  0  0
  7  8  2  0  0  0  0
  7 26  1  0  0  0  0
  7 29  1  0  0  0  0
  8  9  1  0  0  0  0
  8 22  1  0  0  0  0
  9 10  1  0  0  0  0
  9 27  2  0  0  0  0
 10 11  2  0  0  0  0
 10 15  1  0  0  0  0
 11 12  1  0  0  0  0
 11 91  1  0  0  0  0
 12 13  2  0  0  0  0
 12 92  1  0  0  0  0
 13 14  1  0  0  0  0
 13 31  1  0  0  0  0
 14 15  2  0  0  0  0
 14 93  1  0  0  0  0
 15 94  1  0  0  0  0
 16 17  2  0  0  0  0
 16 21  1  0  0  0  0
 16 31  1  0  0  0  0
 17 18  1  0  0  0  0
 17 95  1  0  0  0  0
 18 19  2  0  0  0  0
 18 96  1  0  0  0  0
 19 20  1  0  0  0  0
 19 24  1  0  0  0  0
 20 21  2  0  0  0  0
 20 97  1  0  0  0  0
 21 23  1  0  0  0  0
 22 28  1  0  0  0  0
 22 32  2  0  0  0  0
 26 27  1  0  0  0  0
 28 98  1  0  0  0  0
 28 99  1  0  0  0  0
 29100  1  0  0  0  0
 29101  1  0  0  0  0
 33 34  1  0  0  0  0
 33 66  1  0  0  0  0
 33 70  2  0  0  0  0
 34 36  1  0  0  0  0
 34 59  1  0  0  0  0
 34102  1  6  0  0  0
 35 44  2  0  0  0  0
 35 45  1  0  0  0  0
 35 68  1  0  0  0  0
 36 56  1  0  0  0  0
 36103  1  0  0  0  0
 37 39  1  0  0  0  0
 37 47  1  0  0  0  0
 37 66  1  0  0  0  0
 37104  1  6  0  0  0
 38 43  2  0  0  0  0
 38 46  1  0  0  0  0
 38 47  1  0  0  0  0
 39 64  1  0  0  0  0
 39 67  2  0  0  0  0
 40 52  1  0  0  0  0
 40 53  2  0  0  0  0
 40 58  1  0  0  0  0
 41105  1  0  0  0  0
 41106  1  0  0  0  0
 41107  1  0  0  0  0
 42 43  1  0  0  0  0
 42 66  1  0  0  0  0
 42108  1  0  0  0  0
 42109  1  0  0  0  0
 43 44  1  0  0  0  0
 44110  1  0  0  0  0
 45 46  2  0  0  0  0
 45111  1  0  0  0  0
 46112  1  0  0  0  0
 47113  1  0  0  0  0
 47114  1  0  0  0  0
 48 41  1  0  0  0  0
 48 56  1  0  0  0  0
 48 65  1  0  0  0  0
 48115  1  1  0  0  0
 49 50  1  0  0  0  0
 49 53  1  0  0  0  0
 49 64  1  0  0  0  0
 49116  1  1  0  0  0
 50 51  1  0  0  0  0
 50117  1  0  0  0  0
 50118  1  0  0  0  0
 51 52  1  0  0  0  0
 51119  1  0  0  0  0
 51120  1  0  0  0  0
 52121  1  0  0  0  0
 52122  1  0  0  0  0
 53 54  1  0  0  0  0
 54 55  2  0  0  0  0
 54123  1  0  0  0  0
 55 57  1  0  0  0  0
 55124  1  0  0  0  0
 56 69  2  0  0  0  0
 57 58  2  0  0  0  0
 57125  1  0  0  0  0
 58126  1  0  0  0  0
 59 60  1  0  0  0  0
 59 61  1  0  0  0  0
 59 62  1  0  0  0  0
 60127  1  0  0  0  0
 60128  1  0  0  0  0
 60129  1  0  0  0  0
 61130  1  0  0  0  0
 61131  1  0  0  0  0
 61132  1  0  0  0  0
 62133  1  0  0  0  0
 62134  1  0  0  0  0
 62135  1  0  0  0  0
 63 65  1  0  0  0  0
 63136  1  0  0  0  0
 63137  1  0  0  0  0
 63138  1  0  0  0  0
 64139  1  0  0  0  0
 65140  1  0  0  0  0
 68 76  1  0  0  0  0
 71 72  2  0  0  0  0
 71 78  1  0  0  0  0
 71141  1  0  0  0  0
 72 79  1  0  0  0  0
 72 81  1  0  0  0  0
 73 78  2  0  0  0  0
 73 80  1  0  0  0  0
 73 81  1  0  0  0  0
 74142  1  0  0  0  0
 74143  1  0  0  0  0
 74144  1  0  0  0  0
 75 76  1  0  0  0  0
 75 77  1  0  0  0  0
 75145  1  0  0  0  0
 75146  1  0  0  0  0
 76147  1  0  0  0  0
 76148  1  0  0  0  0
 77 74  1  0  0  0  0
 77 80  1  0  0  0  0
 77149  1  1  0  0  0
 79150  1  0  0  0  0
 80151  1  0  0  0  0
M  ISO  4   1 100  68 101  76 101  79 100
M  END
$$$$
69
 OpenBabel04052305473D

151159  0  0  0  0  0  0  0  0999 V2000
  -30.7652  -14.3608   20.6636 C   0  0  0  0  0  0  0  0  0  0  0  0
  -30.4392  -12.2669   19.3775 C   0  0  0  0  0  0  0  0  0  0  0  0
  -29.4791  -12.5281   18.1977 C   0  0  0  0  0  0  0  0  0  0  0  0
  -27.9985  -12.3963   18.6038 C   0  0  0  0  0  0  0  0  0  0  0  0
  -27.6639  -13.2170   19.8820 C   0  0  2  0  0  0  0  0  0  0  0  0
  -28.6795  -12.9602   21.0279 C   0  0  0  0  0  0  0  0  0  0  0  0
  -25.2633  -13.8245   20.5754 C   0  0  0  0  0  0  0  0  0  0  0  0
  -24.1645  -13.0409   20.9408 C   0  0  0  0  0  0  0  0  0  0  0  0
  -24.6400  -11.7009   20.8697 C   0  0  0  0  0  0  0  0  0  0  0  0
  -23.9005  -10.4085   21.0420 C   0  0  0  0  0  0  0  0  0  0  0  0
  -24.3588   -9.4123   21.9123 C   0  0  0  0  0  0  0  0  0  0  0  0
  -23.6296   -8.2350   22.0803 C   0  0  0  0  0  0  0  0  0  0  0  0
  -22.4385   -8.0419   21.3657 C   0  0  0  0  0  0  0  0  0  0  0  0
  -22.0103   -9.0167   20.4678 C   0  0  0  0  0  0  0  0  0  0  0  0
  -22.7317  -10.1925   20.3102 C   0  0  0  0  0  0  0  0  0  0  0  0
  -21.6857   -6.0709   22.5391 C   0  0  0  0  0  0  0  0  0  0  0  0
  -21.4064   -6.5490   23.8264 C   0  0  0  0  0  0  0  0  0  0  0  0
  -21.3635   -5.6677   24.9085 C   0  0  0  0  0  0  0  0  0  0  0  0
  -21.5973   -4.3067   24.7088 C   0  0  0  0  0  0  0  0  0  0  0  0
  -21.8700   -3.8284   23.4282 C   0  0  0  0  0  0  0  0  0  0  0  0
  -21.9144   -4.7056   22.3460 C   0  0  0  0  0  0  0  0  0  0  0  0
  -22.8194  -13.5263   21.1763 C   0  0  0  0  0  0  0  0  0  0  0  0
  -22.1559   -4.2206   21.1063 F   0  0  0  0  0  0  0  0  0  0  0  0
  -21.5628   -3.4510   25.7555 F   0  0  0  0  0  0  0  0  0  0  0  0
  -30.0261  -13.1803   20.4553 N   0  0  0  0  0  0  0  0  0  0  0  0
  -26.2911  -12.9356   20.3443 N   0  0  0  0  0  0  0  0  0  0  0  0
  -25.9236  -11.6675   20.5847 N   0  0  0  0  0  0  0  0  0  0  0  0
  -22.0708  -12.7905   22.0005 N   0  0  0  0  0  0  0  0  0  0  0  0
  -25.4117  -15.1773   20.4097 N   0  0  0  0  0  0  0  0  0  0  0  0
  -31.7916  -14.6724   20.0536 O   0  0  0  0  0  0  0  0  0  0  0  0
  -21.6670   -6.9022   21.4423 O   0  0  0  0  0  0  0  0  0  0  0  0
  -22.3946  -14.5564   20.6568 O   0  0  0  0  0  0  0  0  0  0  0  0
  -24.6048  -31.8614   23.2223 C   0  0  0  0  0  0  0  0  0  0  0  0
  -25.8822  -32.4841   23.8616 C   0  0  1  0  0  0  0  0  0  0  0  0
  -27.2536  -27.5042   20.1156 C   0  0  0  0  0  0  0  0  0  0  0  0
  -25.5726  -33.8762   24.2210 N   0  0  0  0  0  0  0  0  0  0  0  0
  -23.4066  -30.4859   21.5461 C   0  0  2  0  0  0  0  0  0  0  0  0
  -24.8467  -28.9636   20.1247 C   0  0  0  0  0  0  0  0  0  0  0  0
  -22.7412  -29.4652   22.5052 C   0  0  0  0  0  0  0  0  0  0  0  0
  -18.0167  -28.1302   22.8626 C   0  0  0  0  0  0  0  0  0  0  0  0
  -24.1342  -36.7390   23.2568 C   0  0  0  0  0  0  0  0  0  0  0  0
  -25.9141  -30.8882   21.3456 C   0  0  0  0  0  0  0  0  0  0  0  0
  -25.9930  -29.5029   20.7208 C   0  0  0  0  0  0  0  0  0  0  0  0
  -27.1758  -28.7612   20.7331 C   0  0  0  0  0  0  0  0  0  0  0  0
  -26.1032  -26.9836   19.5230 C   0  0  0  0  0  0  0  0  0  0  0  0
  -24.9097  -27.7011   19.5331 C   0  0  0  0  0  0  0  0  0  0  0  0
  -23.5715  -29.7899   20.1582 C   0  0  0  0  0  0  0  0  0  0  0  0
  -25.3990  -36.3212   24.0232 C   0  0  1  0  0  0  0  0  0  0  0  0
  -20.5793  -28.3813   23.1004 C   0  0  2  0  0  0  0  0  0  0  0  0
  -20.6548  -26.9392   22.5411 C   0  0  0  0  0  0  0  0  0  0  0  0
  -19.5615  -26.6407   21.5143 C   0  0  0  0  0  0  0  0  0  0  0  0
  -18.1797  -26.7818   22.1673 C   0  0  0  0  0  0  0  0  0  0  0  0
  -19.1385  -28.8769   23.2988 C   0  0  0  0  0  0  0  0  0  0  0  0
  -18.9183  -30.1286   23.8878 C   0  0  0  0  0  0  0  0  0  0  0  0
  -17.6396  -30.6493   24.0352 C   0  0  0  0  0  0  0  0  0  0  0  0
  -25.9153  -34.9582   23.4993 C   0  0  0  0  0  0  0  0  0  0  0  0
  -16.5415  -29.9068   23.6254 C   0  0  0  0  0  0  0  0  0  0  0  0
  -16.7331  -28.6521   23.0586 C   0  0  0  0  0  0  0  0  0  0  0  0
  -26.4583  -31.6439   25.0683 C   0  0  0  0  0  0  0  0  0  0  0  0
  -25.3807  -31.3179   26.1374 C   0  0  0  0  0  0  0  0  0  0  0  0
  -27.0530  -30.3024   24.5680 C   0  0  0  0  0  0  0  0  0  0  0  0
  -27.6014  -32.4281   25.7651 C   0  0  0  0  0  0  0  0  0  0  0  0
  -27.5629  -37.2220   24.8621 C   0  0  0  0  0  0  0  0  0  0  0  0
  -21.4133  -29.3375   22.3735 N   0  0  0  0  0  0  0  0  0  0  0  0
  -26.4706  -37.3372   23.9061 N   0  0  0  0  0  0  0  0  0  0  0  0
  -24.6674  -31.0544   22.1178 N   0  0  0  0  0  0  0  0  0  0  0  0
  -23.4259  -28.8150   23.2971 O   0  0  0  0  0  0  0  0  0  0  0  0
  -28.3948  -26.7345   20.0089 O   0  0  0  0  0  0  0  0  0  0  0  0
  -26.5870  -34.9065   22.4671 O   0  0  0  0  0  0  0  0  0  0  0  0
  -23.5365  -32.1254   23.7833 O   0  0  0  0  0  0  0  0  0  0  0  0
  -29.3562  -21.5911   19.8051 C   0  0  0  0  0  0  0  0  0  0  0  0
  -28.8403  -23.1144   18.0787 C   0  0  0  0  0  0  0  0  0  0  0  0
  -26.4757  -25.4494   15.2846 C   0  0  0  0  0  0  0  0  0  0  0  0
  -28.6607  -25.1411   16.6345 C   0  0  0  0  0  0  0  0  0  0  0  0
  -25.7916  -25.9772   16.5369 C   0  0  0  0  0  0  0  0  0  0  0  0
  -28.0034  -25.5631   15.3194 C   0  0  1  0  0  0  0  0  0  0  0  0
  -29.8859  -22.7755   20.0253 N   0  0  0  0  0  0  0  0  0  0  0  0
  -29.5825  -23.6693   19.0132 N   0  0  0  0  0  0  0  0  0  0  0  0
  -29.4417  -20.4229   20.6024 N   0  0  0  0  0  0  0  0  0  0  0  0
  -28.3795  -23.7575   16.9418 N   0  0  0  0  0  0  0  0  0  0  0  0
  -28.5530  -24.7658   14.2687 O   0  0  0  0  0  0  0  0  0  0  0  0
  -28.4512  -21.4669   18.3534 S   0  0  0  0  0  0  0  0  0  0  0  0
  -31.4485  -12.4701   19.0860 H   0  0  0  0  0  0  0  0  0  0  0  0
  -30.3970  -11.2460   19.6950 H   0  0  0  0  0  0  0  0  0  0  0  0
  -29.6870  -11.8204   17.4226 H   0  0  0  0  0  0  0  0  0  0  0  0
  -29.6375  -13.5326   17.8649 H   0  0  0  0  0  0  0  0  0  0  0  0
  -27.7830  -11.3650   18.7904 H   0  0  0  0  0  0  0  0  0  0  0  0
  -27.4028  -12.7801   17.8021 H   0  0  0  0  0  0  0  0  0  0  0  0
  -27.7353  -14.2503   19.6136 H   0  0  0  0  0  0  0  0  0  0  0  0
  -28.5890  -11.9550   21.3832 H   0  0  0  0  0  0  0  0  0  0  0  0
  -28.5005  -13.6134   21.8562 H   0  0  0  0  0  0  0  0  0  0  0  0
  -25.2399   -9.5495   22.4318 H   0  0  0  0  0  0  0  0  0  0  0  0
  -23.9663   -7.5070   22.7297 H   0  0  0  0  0  0  0  0  0  0  0  0
  -21.1515   -8.8641   19.9162 H   0  0  0  0  0  0  0  0  0  0  0  0
  -22.4016  -10.9115   19.6476 H   0  0  0  0  0  0  0  0  0  0  0  0
  -21.2319   -7.5552   23.9750 H   0  0  0  0  0  0  0  0  0  0  0  0
  -21.1589   -6.0228   25.8556 H   0  0  0  0  0  0  0  0  0  0  0  0
  -22.0396   -2.8212   23.2809 H   0  0  0  0  0  0  0  0  0  0  0  0
  -22.4401  -11.9703   22.4008 H   0  0  0  0  0  0  0  0  0  0  0  0
  -21.1493  -13.0679   22.2082 H   0  0  0  0  0  0  0  0  0  0  0  0
  -24.6538  -15.7807   20.5848 H   0  0  0  0  0  0  0  0  0  0  0  0
  -26.2762  -15.5453   20.1156 H   0  0  0  0  0  0  0  0  0  0  0  0
  -26.6778  -32.4663   23.1464 H   0  0  0  0  0  0  0  0  0  0  0  0
  -25.0747  -34.0282   25.0566 H   0  0  0  0  0  0  0  0  0  0  0  0
  -22.7881  -31.3489   21.4131 H   0  0  0  0  0  0  0  0  0  0  0  0
  -23.3854  -35.9823   23.3648 H   0  0  0  0  0  0  0  0  0  0  0  0
  -24.3696  -36.8624   22.2204 H   0  0  0  0  0  0  0  0  0  0  0  0
  -23.7669  -37.6632   23.6516 H   0  0  0  0  0  0  0  0  0  0  0  0
  -25.9445  -31.6237   20.5691 H   0  0  0  0  0  0  0  0  0  0  0  0
  -26.7436  -31.0079   22.0108 H   0  0  0  0  0  0  0  0  0  0  0  0
  -28.0090  -29.1452   21.2057 H   0  0  0  0  0  0  0  0  0  0  0  0
  -26.1369  -26.0560   19.0719 H   0  0  0  0  0  0  0  0  0  0  0  0
  -24.0652  -27.2961   19.0997 H   0  0  0  0  0  0  0  0  0  0  0  0
  -23.6156  -30.5365   19.3930 H   0  0  0  0  0  0  0  0  0  0  0  0
  -22.7355  -29.1425   19.9945 H   0  0  0  0  0  0  0  0  0  0  0  0
  -25.1353  -36.2335   25.0565 H   0  0  0  0  0  0  0  0  0  0  0  0
  -21.0070  -28.3206   24.0793 H   0  0  0  0  0  0  0  0  0  0  0  0
  -20.5555  -26.2518   23.3550 H   0  0  0  0  0  0  0  0  0  0  0  0
  -21.5974  -26.8362   22.0454 H   0  0  0  0  0  0  0  0  0  0  0  0
  -19.6810  -25.6422   21.1488 H   0  0  0  0  0  0  0  0  0  0  0  0
  -19.6406  -27.3343   20.7034 H   0  0  0  0  0  0  0  0  0  0  0  0
  -17.4282  -26.6888   21.4113 H   0  0  0  0  0  0  0  0  0  0  0  0
  -18.0803  -26.0130   22.9049 H   0  0  0  0  0  0  0  0  0  0  0  0
  -19.7265  -30.6774   24.2204 H   0  0  0  0  0  0  0  0  0  0  0  0
  -17.5064  -31.5856   24.4483 H   0  0  0  0  0  0  0  0  0  0  0  0
  -15.5878  -30.2839   23.7407 H   0  0  0  0  0  0  0  0  0  0  0  0
  -15.9120  -28.0941   22.7766 H   0  0  0  0  0  0  0  0  0  0  0  0
  -24.5787  -30.7757   25.6817 H   0  0  0  0  0  0  0  0  0  0  0  0
  -25.0041  -32.2289   26.5536 H   0  0  0  0  0  0  0  0  0  0  0  0
  -25.8166  -30.7245   26.9138 H   0  0  0  0  0  0  0  0  0  0  0  0
  -26.2892  -29.7335   24.0803 H   0  0  0  0  0  0  0  0  0  0  0  0
  -27.4336  -29.7484   25.4006 H   0  0  0  0  0  0  0  0  0  0  0  0
  -27.8466  -30.4994   23.8779 H   0  0  0  0  0  0  0  0  0  0  0  0
  -27.2251  -33.3632   26.1242 H   0  0  0  0  0  0  0  0  0  0  0  0
  -28.3902  -32.6065   25.0645 H   0  0  0  0  0  0  0  0  0  0  0  0
  -27.9772  -31.8555   26.5872 H   0  0  0  0  0  0  0  0  0  0  0  0
  -28.2744  -38.0016   24.6863 H   0  0  0  0  0  0  0  0  0  0  0  0
  -28.0396  -36.2711   24.7461 H   0  0  0  0  0  0  0  0  0  0  0  0
  -27.1773  -37.3087   25.8564 H   0  0  0  0  0  0  0  0  0  0  0  0
  -20.9627  -29.9365   21.7352 H   0  0  0  0  0  0  0  0  0  0  0  0
  -26.0447  -38.2561   24.0273 H   0  0  0  0  0  0  0  0  0  0  0  0
  -26.1152  -26.0046   14.4439 H   0  0  0  0  0  0  0  0  0  0  0  0
  -26.2424  -24.4073   15.2179 H   0  0  0  0  0  0  0  0  0  0  0  0
  -28.2855  -25.7569   17.4250 H   0  0  0  0  0  0  0  0  0  0  0  0
  -29.7198  -25.2564   16.5349 H   0  0  0  0  0  0  0  0  0  0  0  0
  -25.0542  -25.2604   16.8324 H   0  0  0  0  0  0  0  0  0  0  0  0
  -25.3943  -26.9325   16.2641 H   0  0  0  0  0  0  0  0  0  0  0  0
  -28.2131  -26.6058   15.2026 H   0  0  0  0  0  0  0  0  0  0  0  0
  -29.1880  -20.6758   21.5194 H   0  0  0  0  0  0  0  0  0  0  0  0
  -27.8296  -23.2431   16.3076 H   0  0  0  0  0  0  0  0  0  0  0  0
  -28.3348  -23.8333   14.4225 H   0  0  0  0  0  0  0  0  0  0  0  0
  1 25  1  0  0  0  0
  1 30  2  0  0  0  0
  1 79  1  0  0  0  0
  2  3  1  0  0  0  0
  2 25  1  0  0  0  0
  2 83  1  0  0  0  0
  2 84  1  0  0  0  0
  3  4  1  0  0  0  0
  3 85  1  0  0  0  0
  3 86  1  0  0  0  0
  4  5  1  0  0  0  0
  4 87  1  0  0  0  0
  4 88  1  0  0  0  0
  5  6  1  0  0  0  0
  5 26  1  0  0  0  0
  5 89  1  6  0  0  0
  6 25  1  0  0  0  0
  6 90  1  0  0  0  0
  6 91  1  0  0  0  0
  7  8  2  0  0  0  0
  7 26  1  0  0  0  0
  7 29  1  0  0  0  0
  8  9  1  0  0  0  0
  8 22  1  0  0  0  0
  9 10  1  0  0  0  0
  9 27  2  0  0  0  0
 10 11  2  0  0  0  0
 10 15  1  0  0  0  0
 11 12  1  0  0  0  0
 11 92  1  0  0  0  0
 12 13  2  0  0  0  0
 12 93  1  0  0  0  0
 13 14  1  0  0  0  0
 13 31  1  0  0  0  0
 14 15  2  0  0  0  0
 14 94  1  0  0  0  0
 15 95  1  0  0  0  0
 16 17  2  0  0  0  0
 16 21  1  0  0  0  0
 16 31  1  0  0  0  0
 17 18  1  0  0  0  0
 17 96  1  0  0  0  0
 18 19  2  0  0  0  0
 18 97  1  0  0  0  0
 19 20  1  0  0  0  0
 19 24  1  0  0  0  0
 20 21  2  0  0  0  0
 20 98  1  0  0  0  0
 21 23  1  0  0  0  0
 22 28  1  0  0  0  0
 22 32  2  0  0  0  0
 26 27  1  0  0  0  0
 28 99  1  0  0  0  0
 28100  1  0  0  0  0
 29101  1  0  0  0  0
 29102  1  0  0  0  0
 33 34  1  0  0  0  0
 33 66  1  0  0  0  0
 33 70  2  0  0  0  0
 34 36  1  0  0  0  0
 34 59  1  0  0  0  0
 34103  1  6  0  0  0
 35 44  2  0  0  0  0
 35 45  1  0  0  0  0
 35 68  1  0  0  0  0
 36 56  1  0  0  0  0
 36104  1  0  0  0  0
 37 39  1  0  0  0  0
 37 47  1  0  0  0  0
 37 66  1  0  0  0  0
 37105  1  6  0  0  0
 38 43  2  0  0  0  0
 38 46  1  0  0  0  0
 38 47  1  0  0  0  0
 39 64  1  0  0  0  0
 39 67  2  0  0  0  0
 40 52  1  0  0  0  0
 40 53  2  0  0  0  0
 40 58  1  0  0  0  0
 41106  1  0  0  0  0
 41107  1  0  0  0  0
 41108  1  0  0  0  0
 42 43  1  0  0  0  0
 42 66  1  0  0  0  0
 42109  1  0  0  0  0
 42110  1  0  0  0  0
 43 44  1  0  0  0  0
 44111  1  0  0  0  0
 45 46  2  0  0  0  0
 45112  1  0  0  0  0
 46113  1  0  0  0  0
 47114  1  0  0  0  0
 47115  1  0  0  0  0
 48 41  1  0  0  0  0
 48 56  1  0  0  0  0
 48 65  1  0  0  0  0
 48116  1  1  0  0  0
 49 50  1  0  0  0  0
 49 53  1  0  0  0  0
 49 64  1  0  0  0  0
 49117  1  1  0  0  0
 50 51  1  0  0  0  0
 50118  1  0  0  0  0
 50119  1  0  0  0  0
 51 52  1  0  0  0  0
 51120  1  0  0  0  0
 51121  1  0  0  0  0
 52122  1  0  0  0  0
 52123  1  0  0  0  0
 53 54  1  0  0  0  0
 54 55  2  0  0  0  0
 54124  1  0  0  0  0
 55 57  1  0  0  0  0
 55125  1  0  0  0  0
 56 69  2  0  0  0  0
 57 58  2  0  0  0  0
 57126  1  0  0  0  0
 58127  1  0  0  0  0
 59 60  1  0  0  0  0
 59 61  1  0  0  0  0
 59 62  1  0  0  0  0
 60128  1  0  0  0  0
 60129  1  0  0  0  0
 60130  1  0  0  0  0
 61131  1  0  0  0  0
 61132  1  0  0  0  0
 61133  1  0  0  0  0
 62134  1  0  0  0  0
 62135  1  0  0  0  0
 62136  1  0  0  0  0
 63 65  1  0  0  0  0
 63137  1  0  0  0  0
 63138  1  0  0  0  0
 63139  1  0  0  0  0
 64140  1  0  0  0  0
 65141  1  0  0  0  0
 68 75  1  0  0  0  0
 71 77  2  0  0  0  0
 71 79  1  0  0  0  0
 71 82  1  0  0  0  0
 72 78  2  0  0  0  0
 72 80  1  0  0  0  0
 72 82  1  0  0  0  0
 73 75  1  0  0  0  0
 73 76  1  0  0  0  0
 73142  1  0  0  0  0
 73143  1  0  0  0  0
 74 76  1  0  0  0  0
 74 80  1  0  0  0  0
 74144  1  0  0  0  0
 74145  1  0  0  0  0
 75146  1  0  0  0  0
 75147  1  0  0  0  0
 76 81  1  0  0  0  0
 76148  1  6  0  0  0
 77 78  1  0  0  0  0
 79149  1  0  0  0  0
 80150  1  0  0  0  0
 81151  1  0  0  0  0
M  ISO  4   1 100  68 101  75 101  79 100
M  END
$$$$
70
 OpenBabel04052305473D

159167  0  0  0  0  0  0  0  0999 V2000
  -30.7652  -14.3608   20.6636 C   0  0  0  0  0  0  0  0  0  0  0  0
  -30.4392  -12.2669   19.3775 C   0  0  0  0  0  0  0  0  0  0  0  0
  -29.4791  -12.5281   18.1977 C   0  0  0  0  0  0  0  0  0  0  0  0
  -27.9985  -12.3963   18.6038 C   0  0  0  0  0  0  0  0  0  0  0  0
  -27.6639  -13.2170   19.8820 C   0  0  2  0  0  0  0  0  0  0  0  0
  -28.6795  -12.9602   21.0279 C   0  0  0  0  0  0  0  0  0  0  0  0
  -25.2633  -13.8245   20.5754 C   0  0  0  0  0  0  0  0  0  0  0  0
  -24.1645  -13.0409   20.9408 C   0  0  0  0  0  0  0  0  0  0  0  0
  -24.6400  -11.7009   20.8697 C   0  0  0  0  0  0  0  0  0  0  0  0
  -23.9005  -10.4085   21.0420 C   0  0  0  0  0  0  0  0  0  0  0  0
  -24.3588   -9.4123   21.9123 C   0  0  0  0  0  0  0  0  0  0  0  0
  -23.6296   -8.2350   22.0803 C   0  0  0  0  0  0  0  0  0  0  0  0
  -22.4385   -8.0419   21.3657 C   0  0  0  0  0  0  0  0  0  0  0  0
  -22.0103   -9.0167   20.4678 C   0  0  0  0  0  0  0  0  0  0  0  0
  -22.7317  -10.1925   20.3102 C   0  0  0  0  0  0  0  0  0  0  0  0
  -21.6857   -6.0709   22.5391 C   0  0  0  0  0  0  0  0  0  0  0  0
  -21.4064   -6.5490   23.8264 C   0  0  0  0  0  0  0  0  0  0  0  0
  -21.3635   -5.6677   24.9085 C   0  0  0  0  0  0  0  0  0  0  0  0
  -21.5973   -4.3067   24.7088 C   0  0  0  0  0  0  0  0  0  0  0  0
  -21.8700   -3.8284   23.4282 C   0  0  0  0  0  0  0  0  0  0  0  0
  -21.9144   -4.7056   22.3460 C   0  0  0  0  0  0  0  0  0  0  0  0
  -22.8194  -13.5263   21.1763 C   0  0  0  0  0  0  0  0  0  0  0  0
  -22.1559   -4.2206   21.1063 F   0  0  0  0  0  0  0  0  0  0  0  0
  -21.5628   -3.4510   25.7555 F   0  0  0  0  0  0  0  0  0  0  0  0
  -30.0261  -13.1803   20.4553 N   0  0  0  0  0  0  0  0  0  0  0  0
  -26.2911  -12.9356   20.3443 N   0  0  0  0  0  0  0  0  0  0  0  0
  -25.9236  -11.6675   20.5847 N   0  0  0  0  0  0  0  0  0  0  0  0
  -22.0708  -12.7905   22.0005 N   0  0  0  0  0  0  0  0  0  0  0  0
  -25.4117  -15.1773   20.4097 N   0  0  0  0  0  0  0  0  0  0  0  0
  -31.7916  -14.6724   20.0536 O   0  0  0  0  0  0  0  0  0  0  0  0
  -21.6670   -6.9022   21.4423 O   0  0  0  0  0  0  0  0  0  0  0  0
  -22.3946  -14.5564   20.6568 O   0  0  0  0  0  0  0  0  0  0  0  0
  -24.6048  -31.8614   23.2223 C   0  0  0  0  0  0  0  0  0  0  0  0
  -25.8822  -32.4841   23.8616 C   0  0  1  0  0  0  0  0  0  0  0  0
  -27.2536  -27.5042   20.1156 C   0  0  0  0  0  0  0  0  0  0  0  0
  -25.5726  -33.8762   24.2210 N   0  0  0  0  0  0  0  0  0  0  0  0
  -23.4066  -30.4859   21.5461 C   0  0  2  0  0  0  0  0  0  0  0  0
  -24.8467  -28.9636   20.1247 C   0  0  0  0  0  0  0  0  0  0  0  0
  -22.7412  -29.4652   22.5052 C   0  0  0  0  0  0  0  0  0  0  0  0
  -18.0167  -28.1302   22.8626 C   0  0  0  0  0  0  0  0  0  0  0  0
  -24.1342  -36.7390   23.2568 C   0  0  0  0  0  0  0  0  0  0  0  0
  -25.9141  -30.8882   21.3456 C   0  0  0  0  0  0  0  0  0  0  0  0
  -25.9930  -29.5029   20.7208 C   0  0  0  0  0  0  0  0  0  0  0  0
  -27.1758  -28.7612   20.7331 C   0  0  0  0  0  0  0  0  0  0  0  0
  -26.1032  -26.9836   19.5230 C   0  0  0  0  0  0  0  0  0  0  0  0
  -24.9097  -27.7011   19.5331 C   0  0  0  0  0  0  0  0  0  0  0  0
  -23.5715  -29.7899   20.1582 C   0  0  0  0  0  0  0  0  0  0  0  0
  -25.3990  -36.3212   24.0232 C   0  0  1  0  0  0  0  0  0  0  0  0
  -20.5793  -28.3813   23.1004 C   0  0  2  0  0  0  0  0  0  0  0  0
  -20.6548  -26.9392   22.5411 C   0  0  0  0  0  0  0  0  0  0  0  0
  -19.5615  -26.6407   21.5143 C   0  0  0  0  0  0  0  0  0  0  0  0
  -18.1797  -26.7818   22.1673 C   0  0  0  0  0  0  0  0  0  0  0  0
  -19.1385  -28.8769   23.2988 C   0  0  0  0  0  0  0  0  0  0  0  0
  -18.9183  -30.1286   23.8878 C   0  0  0  0  0  0  0  0  0  0  0  0
  -17.6396  -30.6493   24.0352 C   0  0  0  0  0  0  0  0  0  0  0  0
  -25.9153  -34.9582   23.4993 C   0  0  0  0  0  0  0  0  0  0  0  0
  -16.5415  -29.9068   23.6254 C   0  0  0  0  0  0  0  0  0  0  0  0
  -16.7331  -28.6521   23.0586 C   0  0  0  0  0  0  0  0  0  0  0  0
  -26.4583  -31.6439   25.0683 C   0  0  0  0  0  0  0  0  0  0  0  0
  -25.3807  -31.3179   26.1374 C   0  0  0  0  0  0  0  0  0  0  0  0
  -27.0530  -30.3024   24.5680 C   0  0  0  0  0  0  0  0  0  0  0  0
  -27.6014  -32.4281   25.7651 C   0  0  0  0  0  0  0  0  0  0  0  0
  -27.5629  -37.2220   24.8621 C   0  0  0  0  0  0  0  0  0  0  0  0
  -21.4133  -29.3375   22.3735 N   0  0  0  0  0  0  0  0  0  0  0  0
  -26.4706  -37.3372   23.9061 N   0  0  0  0  0  0  0  0  0  0  0  0
  -24.6674  -31.0544   22.1178 N   0  0  0  0  0  0  0  0  0  0  0  0
  -23.4259  -28.8150   23.2971 O   0  0  0  0  0  0  0  0  0  0  0  0
  -28.3948  -26.7345   20.0089 O   0  0  0  0  0  0  0  0  0  0  0  0
  -26.5870  -34.9065   22.4671 O   0  0  0  0  0  0  0  0  0  0  0  0
  -23.5365  -32.1254   23.7833 O   0  0  0  0  0  0  0  0  0  0  0  0
  -29.1770  -19.8141   21.8495 C   0  0  0  0  0  0  0  0  0  0  0  0
  -27.1990  -19.3634   22.8264 C   0  0  0  0  0  0  0  0  0  0  0  0
  -28.2071  -18.8056   22.0716 C   0  0  0  0  0  0  0  0  0  0  0  0
  -28.7320  -20.9576   22.4756 C   0  0  0  0  0  0  0  0  0  0  0  0
  -31.6850  -22.0371   22.8420 C   0  0  0  0  0  0  0  0  0  0  0  0
  -26.7118  -21.5912   23.8292 C   0  0  0  0  0  0  0  0  0  0  0  0
  -29.5329  -24.6873   20.9602 C   0  0  0  0  0  0  0  0  0  0  0  0
  -30.6649  -24.1019   21.8159 C   0  0  0  0  0  0  0  0  0  0  0  0
  -29.6311  -26.2036   20.8361 C   0  0  0  0  0  0  0  0  0  0  0  0
  -30.5597  -22.5778   21.9654 C   0  0  2  0  0  0  0  0  0  0  0  0
  -27.5289  -20.6718   23.0663 N   0  0  0  0  0  0  0  0  0  0  0  0
  -28.2412  -17.4646   21.6150 N   0  0  0  0  0  0  0  0  0  0  0  0
  -29.2926  -22.2189   22.5676 N   0  0  0  0  0  0  0  0  0  0  0  0
  -31.4485  -12.4701   19.0860 H   0  0  0  0  0  0  0  0  0  0  0  0
  -30.3970  -11.2460   19.6950 H   0  0  0  0  0  0  0  0  0  0  0  0
  -29.6870  -11.8204   17.4226 H   0  0  0  0  0  0  0  0  0  0  0  0
  -29.6375  -13.5326   17.8649 H   0  0  0  0  0  0  0  0  0  0  0  0
  -27.7830  -11.3650   18.7904 H   0  0  0  0  0  0  0  0  0  0  0  0
  -27.4028  -12.7801   17.8021 H   0  0  0  0  0  0  0  0  0  0  0  0
  -27.7353  -14.2503   19.6136 H   0  0  0  0  0  0  0  0  0  0  0  0
  -28.5890  -11.9550   21.3832 H   0  0  0  0  0  0  0  0  0  0  0  0
  -28.5005  -13.6134   21.8562 H   0  0  0  0  0  0  0  0  0  0  0  0
  -25.2399   -9.5495   22.4318 H   0  0  0  0  0  0  0  0  0  0  0  0
  -23.9663   -7.5070   22.7297 H   0  0  0  0  0  0  0  0  0  0  0  0
  -21.1515   -8.8641   19.9162 H   0  0  0  0  0  0  0  0  0  0  0  0
  -22.4016  -10.9115   19.6476 H   0  0  0  0  0  0  0  0  0  0  0  0
  -21.2319   -7.5552   23.9750 H   0  0  0  0  0  0  0  0  0  0  0  0
  -21.1589   -6.0228   25.8556 H   0  0  0  0  0  0  0  0  0  0  0  0
  -22.0396   -2.8212   23.2809 H   0  0  0  0  0  0  0  0  0  0  0  0
  -22.4401  -11.9703   22.4008 H   0  0  0  0  0  0  0  0  0  0  0  0
  -21.1493  -13.0679   22.2082 H   0  0  0  0  0  0  0  0  0  0  0  0
  -24.6538  -15.7807   20.5848 H   0  0  0  0  0  0  0  0  0  0  0  0
  -26.2762  -15.5453   20.1156 H   0  0  0  0  0  0  0  0  0  0  0  0
  -26.6778  -32.4663   23.1464 H   0  0  0  0  0  0  0  0  0  0  0  0
  -25.0747  -34.0282   25.0566 H   0  0  0  0  0  0  0  0  0  0  0  0
  -22.7881  -31.3489   21.4131 H   0  0  0  0  0  0  0  0  0  0  0  0
  -23.3854  -35.9823   23.3648 H   0  0  0  0  0  0  0  0  0  0  0  0
  -24.3696  -36.8624   22.2204 H   0  0  0  0  0  0  0  0  0  0  0  0
  -23.7669  -37.6632   23.6516 H   0  0  0  0  0  0  0  0  0  0  0  0
  -25.9445  -31.6237   20.5691 H   0  0  0  0  0  0  0  0  0  0  0  0
  -26.7436  -31.0079   22.0108 H   0  0  0  0  0  0  0  0  0  0  0  0
  -28.0090  -29.1452   21.2057 H   0  0  0  0  0  0  0  0  0  0  0  0
  -26.1369  -26.0560   19.0719 H   0  0  0  0  0  0  0  0  0  0  0  0
  -24.0652  -27.2961   19.0997 H   0  0  0  0  0  0  0  0  0  0  0  0
  -23.6156  -30.5365   19.3930 H   0  0  0  0  0  0  0  0  0  0  0  0
  -22.7355  -29.1425   19.9945 H   0  0  0  0  0  0  0  0  0  0  0  0
  -25.1353  -36.2335   25.0565 H   0  0  0  0  0  0  0  0  0  0  0  0
  -21.0070  -28.3206   24.0793 H   0  0  0  0  0  0  0  0  0  0  0  0
  -20.5555  -26.2518   23.3550 H   0  0  0  0  0  0  0  0  0  0  0  0
  -21.5974  -26.8362   22.0454 H   0  0  0  0  0  0  0  0  0  0  0  0
  -19.6810  -25.6422   21.1488 H   0  0  0  0  0  0  0  0  0  0  0  0
  -19.6406  -27.3343   20.7034 H   0  0  0  0  0  0  0  0  0  0  0  0
  -17.4282  -26.6888   21.4113 H   0  0  0  0  0  0  0  0  0  0  0  0
  -18.0803  -26.0130   22.9049 H   0  0  0  0  0  0  0  0  0  0  0  0
  -19.7265  -30.6774   24.2204 H   0  0  0  0  0  0  0  0  0  0  0  0
  -17.5064  -31.5856   24.4483 H   0  0  0  0  0  0  0  0  0  0  0  0
  -15.5878  -30.2839   23.7407 H   0  0  0  0  0  0  0  0  0  0  0  0
  -15.9120  -28.0941   22.7766 H   0  0  0  0  0  0  0  0  0  0  0  0
  -24.5787  -30.7757   25.6817 H   0  0  0  0  0  0  0  0  0  0  0  0
  -25.0041  -32.2289   26.5536 H   0  0  0  0  0  0  0  0  0  0  0  0
  -25.8166  -30.7245   26.9138 H   0  0  0  0  0  0  0  0  0  0  0  0
  -26.2892  -29.7335   24.0803 H   0  0  0  0  0  0  0  0  0  0  0  0
  -27.4336  -29.7484   25.4006 H   0  0  0  0  0  0  0  0  0  0  0  0
  -27.8466  -30.4994   23.8779 H   0  0  0  0  0  0  0  0  0  0  0  0
  -27.2251  -33.3632   26.1242 H   0  0  0  0  0  0  0  0  0  0  0  0
  -28.3902  -32.6065   25.0645 H   0  0  0  0  0  0  0  0  0  0  0  0
  -27.9772  -31.8555   26.5872 H   0  0  0  0  0  0  0  0  0  0  0  0
  -28.2744  -38.0016   24.6863 H   0  0  0  0  0  0  0  0  0  0  0  0
  -28.0396  -36.2711   24.7461 H   0  0  0  0  0  0  0  0  0  0  0  0
  -27.1773  -37.3087   25.8564 H   0  0  0  0  0  0  0  0  0  0  0  0
  -20.9627  -29.9365   21.7352 H   0  0  0  0  0  0  0  0  0  0  0  0
  -26.0447  -38.2561   24.0273 H   0  0  0  0  0  0  0  0  0  0  0  0
  -30.0549  -19.7111   21.3169 H   0  0  0  0  0  0  0  0  0  0  0  0
  -26.3468  -18.8818   23.1532 H   0  0  0  0  0  0  0  0  0  0  0  0
  -32.6292  -22.2947   22.4095 H   0  0  0  0  0  0  0  0  0  0  0  0
  -31.6030  -20.9725   22.9113 H   0  0  0  0  0  0  0  0  0  0  0  0
  -31.6121  -22.4649   23.8201 H   0  0  0  0  0  0  0  0  0  0  0  0
  -25.8297  -21.0885   24.1670 H   0  0  0  0  0  0  0  0  0  0  0  0
  -26.4355  -22.4199   23.2113 H   0  0  0  0  0  0  0  0  0  0  0  0
  -27.2661  -21.9449   24.6733 H   0  0  0  0  0  0  0  0  0  0  0  0
  -28.5953  -24.4384   21.4118 H   0  0  0  0  0  0  0  0  0  0  0  0
  -29.6142  -24.2710   19.9779 H   0  0  0  0  0  0  0  0  0  0  0  0
  -30.6247  -24.5458   22.7886 H   0  0  0  0  0  0  0  0  0  0  0  0
  -31.5900  -24.3175   21.3234 H   0  0  0  0  0  0  0  0  0  0  0  0
  -30.5382  -26.4640   20.3319 H   0  0  0  0  0  0  0  0  0  0  0  0
  -29.6304  -26.6462   21.8103 H   0  0  0  0  0  0  0  0  0  0  0  0
  -30.6350  -22.1501   20.9875 H   0  0  0  0  0  0  0  0  0  0  0  0
  -27.3148  -17.1637   21.4723 H   0  0  0  0  0  0  0  0  0  0  0  0
  -28.8035  -22.9102   23.0698 H   0  0  0  0  0  0  0  0  0  0  0  0
  1 25  1  0  0  0  0
  1 30  2  0  0  0  0
  1 82  1  0  0  0  0
  2  3  1  0  0  0  0
  2 25  1  0  0  0  0
  2 84  1  0  0  0  0
  2 85  1  0  0  0  0
  3  4  1  0  0  0  0
  3 86  1  0  0  0  0
  3 87  1  0  0  0  0
  4  5  1  0  0  0  0
  4 88  1  0  0  0  0
  4 89  1  0  0  0  0
  5  6  1  0  0  0  0
  5 26  1  0  0  0  0
  5 90  1  6  0  0  0
  6 25  1  0  0  0  0
  6 91  1  0  0  0  0
  6 92  1  0  0  0  0
  7  8  2  0  0  0  0
  7 26  1  0  0  0  0
  7 29  1  0  0  0  0
  8  9  1  0  0  0  0
  8 22  1  0  0  0  0
  9 10  1  0  0  0  0
  9 27  2  0  0  0  0
 10 11  2  0  0  0  0
 10 15  1  0  0  0  0
 11 12  1  0  0  0  0
 11 93  1  0  0  0  0
 12 13  2  0  0  0  0
 12 94  1  0  0  0  0
 13 14  1  0  0  0  0
 13 31  1  0  0  0  0
 14 15  2  0  0  0  0
 14 95  1  0  0  0  0
 15 96  1  0  0  0  0
 16 17  2  0  0  0  0
 16 21  1  0  0  0  0
 16 31  1  0  0  0  0
 17 18  1  0  0  0  0
 17 97  1  0  0  0  0
 18 19  2  0  0  0  0
 18 98  1  0  0  0  0
 19 20  1  0  0  0  0
 19 24  1  0  0  0  0
 20 21  2  0  0  0  0
 20 99  1  0  0  0  0
 21 23  1  0  0  0  0
 22 28  1  0  0  0  0
 22 32  2  0  0  0  0
 26 27  1  0  0  0  0
 28100  1  0  0  0  0
 28101  1  0  0  0  0
 29102  1  0  0  0  0
 29103  1  0  0  0  0
 33 34  1  0  0  0  0
 33 66  1  0  0  0  0
 33 70  2  0  0  0  0
 34 36  1  0  0  0  0
 34 59  1  0  0  0  0
 34104  1  6  0  0  0
 35 44  2  0  0  0  0
 35 45  1  0  0  0  0
 35 68  1  0  0  0  0
 36 56  1  0  0  0  0
 36105  1  0  0  0  0
 37 39  1  0  0  0  0
 37 47  1  0  0  0  0
 37 66  1  0  0  0  0
 37106  1  6  0  0  0
 38 43  2  0  0  0  0
 38 46  1  0  0  0  0
 38 47  1  0  0  0  0
 39 64  1  0  0  0  0
 39 67  2  0  0  0  0
 40 52  1  0  0  0  0
 40 53  2  0  0  0  0
 40 58  1  0  0  0  0
 41107  1  0  0  0  0
 41108  1  0  0  0  0
 41109  1  0  0  0  0
 42 43  1  0  0  0  0
 42 66  1  0  0  0  0
 42110  1  0  0  0  0
 42111  1  0  0  0  0
 43 44  1  0  0  0  0
 44112  1  0  0  0  0
 45 46  2  0  0  0  0
 45113  1  0  0  0  0
 46114  1  0  0  0  0
 47115  1  0  0  0  0
 47116  1  0  0  0  0
 48 41  1  0  0  0  0
 48 56  1  0  0  0  0
 48 65  1  0  0  0  0
 48117  1  1  0  0  0
 49 50  1  0  0  0  0
 49 53  1  0  0  0  0
 49 64  1  0  0  0  0
 49118  1  1  0  0  0
 50 51  1  0  0  0  0
 50119  1  0  0  0  0
 50120  1  0  0  0  0
 51 52  1  0  0  0  0
 51121  1  0  0  0  0
 51122  1  0  0  0  0
 52123  1  0  0  0  0
 52124  1  0  0  0  0
 53 54  1  0  0  0  0
 54 55  2  0  0  0  0
 54125  1  0  0  0  0
 55 57  1  0  0  0  0
 55126  1  0  0  0  0
 56 69  2  0  0  0  0
 57 58  2  0  0  0  0
 57127  1  0  0  0  0
 58128  1  0  0  0  0
 59 60  1  0  0  0  0
 59 61  1  0  0  0  0
 59 62  1  0  0  0  0
 60129  1  0  0  0  0
 60130  1  0  0  0  0
 60131  1  0  0  0  0
 61132  1  0  0  0  0
 61133  1  0  0  0  0
 61134  1  0  0  0  0
 62135  1  0  0  0  0
 62136  1  0  0  0  0
 62137  1  0  0  0  0
 63 65  1  0  0  0  0
 63138  1  0  0  0  0
 63139  1  0  0  0  0
 63140  1  0  0  0  0
 64141  1  0  0  0  0
 65142  1  0  0  0  0
 68 79  1  0  0  0  0
 71 73  1  0  0  0  0
 71 74  2  0  0  0  0
 71143  1  0  0  0  0
 72 73  2  0  0  0  0
 72 81  1  0  0  0  0
 72144  1  0  0  0  0
 73 82  1  0  0  0  0
 74 81  1  0  0  0  0
 74 83  1  0  0  0  0
 75145  1  0  0  0  0
 75146  1  0  0  0  0
 75147  1  0  0  0  0
 76 81  1  0  0  0  0
 76148  1  0  0  0  0
 76149  1  0  0  0  0
 76150  1  0  0  0  0
 77 78  1  0  0  0  0
 77 79  1  0  0  0  0
 77151  1  0  0  0  0
 77152  1  0  0  0  0
 78 80  1  0  0  0  0
 78153  1  0  0  0  0
 78154  1  0  0  0  0
 79155  1  0  0  0  0
 79156  1  0  0  0  0
 80 75  1  0  0  0  0
 80 83  1  0  0  0  0
 80157  1  6  0  0  0
 82158  1  0  0  0  0
 83159  1  0  0  0  0
M  ISO  4   1 100  68 101  79 101  82 100
M  END
$$$$
71
 OpenBabel04052305473D

151159  0  0  0  0  0  0  0  0999 V2000
  -30.7652  -14.3608   20.6636 C   0  0  0  0  0  0  0  0  0  0  0  0
  -30.4392  -12.2669   19.3775 C   0  0  0  0  0  0  0  0  0  0  0  0
  -29.4791  -12.5281   18.1977 C   0  0  0  0  0  0  0  0  0  0  0  0
  -27.9985  -12.3963   18.6038 C   0  0  0  0  0  0  0  0  0  0  0  0
  -27.6639  -13.2170   19.8820 C   0  0  2  0  0  0  0  0  0  0  0  0
  -28.6795  -12.9602   21.0279 C   0  0  0  0  0  0  0  0  0  0  0  0
  -25.2633  -13.8245   20.5754 C   0  0  0  0  0  0  0  0  0  0  0  0
  -24.1645  -13.0409   20.9408 C   0  0  0  0  0  0  0  0  0  0  0  0
  -24.6400  -11.7009   20.8697 C   0  0  0  0  0  0  0  0  0  0  0  0
  -23.9005  -10.4085   21.0420 C   0  0  0  0  0  0  0  0  0  0  0  0
  -24.3588   -9.4123   21.9123 C   0  0  0  0  0  0  0  0  0  0  0  0
  -23.6296   -8.2350   22.0803 C   0  0  0  0  0  0  0  0  0  0  0  0
  -22.4385   -8.0419   21.3657 C   0  0  0  0  0  0  0  0  0  0  0  0
  -22.0103   -9.0167   20.4678 C   0  0  0  0  0  0  0  0  0  0  0  0
  -22.7317  -10.1925   20.3102 C   0  0  0  0  0  0  0  0  0  0  0  0
  -21.6857   -6.0709   22.5391 C   0  0  0  0  0  0  0  0  0  0  0  0
  -21.4064   -6.5490   23.8264 C   0  0  0  0  0  0  0  0  0  0  0  0
  -21.3635   -5.6677   24.9085 C   0  0  0  0  0  0  0  0  0  0  0  0
  -21.5973   -4.3067   24.7088 C   0  0  0  0  0  0  0  0  0  0  0  0
  -21.8700   -3.8284   23.4282 C   0  0  0  0  0  0  0  0  0  0  0  0
  -21.9144   -4.7056   22.3460 C   0  0  0  0  0  0  0  0  0  0  0  0
  -22.8194  -13.5263   21.1763 C   0  0  0  0  0  0  0  0  0  0  0  0
  -22.1559   -4.2206   21.1063 F   0  0  0  0  0  0  0  0  0  0  0  0
  -21.5628   -3.4510   25.7555 F   0  0  0  0  0  0  0  0  0  0  0  0
  -30.0261  -13.1803   20.4553 N   0  0  0  0  0  0  0  0  0  0  0  0
  -26.2911  -12.9356   20.3443 N   0  0  0  0  0  0  0  0  0  0  0  0
  -25.9236  -11.6675   20.5847 N   0  0  0  0  0  0  0  0  0  0  0  0
  -22.0708  -12.7905   22.0005 N   0  0  0  0  0  0  0  0  0  0  0  0
  -25.4117  -15.1773   20.4097 N   0  0  0  0  0  0  0  0  0  0  0  0
  -31.7916  -14.6724   20.0536 O   0  0  0  0  0  0  0  0  0  0  0  0
  -21.6670   -6.9022   21.4423 O   0  0  0  0  0  0  0  0  0  0  0  0
  -22.3946  -14.5564   20.6568 O   0  0  0  0  0  0  0  0  0  0  0  0
  -24.6048  -31.8614   23.2223 C   0  0  0  0  0  0  0  0  0  0  0  0
  -25.8822  -32.4841   23.8616 C   0  0  1  0  0  0  0  0  0  0  0  0
  -27.2536  -27.5042   20.1156 C   0  0  0  0  0  0  0  0  0  0  0  0
  -25.5726  -33.8762   24.2210 N   0  0  0  0  0  0  0  0  0  0  0  0
  -23.4066  -30.4859   21.5461 C   0  0  2  0  0  0  0  0  0  0  0  0
  -24.8467  -28.9636   20.1247 C   0  0  0  0  0  0  0  0  0  0  0  0
  -22.7412  -29.4652   22.5052 C   0  0  0  0  0  0  0  0  0  0  0  0
  -18.0167  -28.1302   22.8626 C   0  0  0  0  0  0  0  0  0  0  0  0
  -24.1342  -36.7390   23.2568 C   0  0  0  0  0  0  0  0  0  0  0  0
  -25.9141  -30.8882   21.3456 C   0  0  0  0  0  0  0  0  0  0  0  0
  -25.9930  -29.5029   20.7208 C   0  0  0  0  0  0  0  0  0  0  0  0
  -27.1758  -28.7612   20.7331 C   0  0  0  0  0  0  0  0  0  0  0  0
  -26.1032  -26.9836   19.5230 C   0  0  0  0  0  0  0  0  0  0  0  0
  -24.9097  -27.7011   19.5331 C   0  0  0  0  0  0  0  0  0  0  0  0
  -23.5715  -29.7899   20.1582 C   0  0  0  0  0  0  0  0  0  0  0  0
  -25.3990  -36.3212   24.0232 C   0  0  1  0  0  0  0  0  0  0  0  0
  -20.5793  -28.3813   23.1004 C   0  0  2  0  0  0  0  0  0  0  0  0
  -20.6548  -26.9392   22.5411 C   0  0  0  0  0  0  0  0  0  0  0  0
  -19.5615  -26.6407   21.5143 C   0  0  0  0  0  0  0  0  0  0  0  0
  -18.1797  -26.7818   22.1673 C   0  0  0  0  0  0  0  0  0  0  0  0
  -19.1385  -28.8769   23.2988 C   0  0  0  0  0  0  0  0  0  0  0  0
  -18.9183  -30.1286   23.8878 C   0  0  0  0  0  0  0  0  0  0  0  0
  -17.6396  -30.6493   24.0352 C   0  0  0  0  0  0  0  0  0  0  0  0
  -25.9153  -34.9582   23.4993 C   0  0  0  0  0  0  0  0  0  0  0  0
  -16.5415  -29.9068   23.6254 C   0  0  0  0  0  0  0  0  0  0  0  0
  -16.7331  -28.6521   23.0586 C   0  0  0  0  0  0  0  0  0  0  0  0
  -26.4583  -31.6439   25.0683 C   0  0  0  0  0  0  0  0  0  0  0  0
  -25.3807  -31.3179   26.1374 C   0  0  0  0  0  0  0  0  0  0  0  0
  -27.0530  -30.3024   24.5680 C   0  0  0  0  0  0  0  0  0  0  0  0
  -27.6014  -32.4281   25.7651 C   0  0  0  0  0  0  0  0  0  0  0  0
  -27.5629  -37.2220   24.8621 C   0  0  0  0  0  0  0  0  0  0  0  0
  -21.4133  -29.3375   22.3735 N   0  0  0  0  0  0  0  0  0  0  0  0
  -26.4706  -37.3372   23.9061 N   0  0  0  0  0  0  0  0  0  0  0  0
  -24.6674  -31.0544   22.1178 N   0  0  0  0  0  0  0  0  0  0  0  0
  -23.4259  -28.8150   23.2971 O   0  0  0  0  0  0  0  0  0  0  0  0
  -28.3948  -26.7345   20.0089 O   0  0  0  0  0  0  0  0  0  0  0  0
  -26.5870  -34.9065   22.4671 O   0  0  0  0  0  0  0  0  0  0  0  0
  -23.5365  -32.1254   23.7833 O   0  0  0  0  0  0  0  0  0  0  0  0
  -29.5417  -18.0745   22.8071 C   0  0  0  0  0  0  0  0  0  0  0  0
  -31.4824  -18.9531   22.2430 C   0  0  0  0  0  0  0  0  0  0  0  0
  -30.2551  -17.2331   21.9863 C   0  0  0  0  0  0  0  0  0  0  0  0
  -29.1500  -22.7637   23.6098 C   0  0  0  0  0  0  0  0  0  0  0  0
  -30.0202  -20.4037   23.7766 C   0  0  0  0  0  0  0  0  0  0  0  0
  -28.2199  -23.7493   22.9104 C   0  0  0  0  0  0  0  0  0  0  0  0
  -29.0402  -21.3392   23.0549 C   0  0  1  0  0  0  0  0  0  0  0  0
  -31.4624  -17.7857   21.6390 N   0  0  0  0  0  0  0  0  0  0  0  0
  -30.3409  -19.1719   22.9629 N   0  0  0  0  0  0  0  0  0  0  0  0
  -29.8353  -15.9575   21.5344 N   0  0  0  0  0  0  0  0  0  0  0  0
  -27.7171  -20.8477   23.2640 O   0  0  0  0  0  0  0  0  0  0  0  0
  -31.4485  -12.4701   19.0860 H   0  0  0  0  0  0  0  0  0  0  0  0
  -30.3970  -11.2460   19.6950 H   0  0  0  0  0  0  0  0  0  0  0  0
  -29.6870  -11.8204   17.4226 H   0  0  0  0  0  0  0  0  0  0  0  0
  -29.6375  -13.5326   17.8649 H   0  0  0  0  0  0  0  0  0  0  0  0
  -27.7830  -11.3650   18.7904 H   0  0  0  0  0  0  0  0  0  0  0  0
  -27.4028  -12.7801   17.8021 H   0  0  0  0  0  0  0  0  0  0  0  0
  -27.7353  -14.2503   19.6136 H   0  0  0  0  0  0  0  0  0  0  0  0
  -28.5890  -11.9550   21.3832 H   0  0  0  0  0  0  0  0  0  0  0  0
  -28.5005  -13.6134   21.8562 H   0  0  0  0  0  0  0  0  0  0  0  0
  -25.2399   -9.5495   22.4318 H   0  0  0  0  0  0  0  0  0  0  0  0
  -23.9663   -7.5070   22.7297 H   0  0  0  0  0  0  0  0  0  0  0  0
  -21.1515   -8.8641   19.9162 H   0  0  0  0  0  0  0  0  0  0  0  0
  -22.4016  -10.9115   19.6476 H   0  0  0  0  0  0  0  0  0  0  0  0
  -21.2319   -7.5552   23.9750 H   0  0  0  0  0  0  0  0  0  0  0  0
  -21.1589   -6.0228   25.8556 H   0  0  0  0  0  0  0  0  0  0  0  0
  -22.0396   -2.8212   23.2809 H   0  0  0  0  0  0  0  0  0  0  0  0
  -22.4401  -11.9703   22.4008 H   0  0  0  0  0  0  0  0  0  0  0  0
  -21.1493  -13.0679   22.2082 H   0  0  0  0  0  0  0  0  0  0  0  0
  -24.6538  -15.7807   20.5848 H   0  0  0  0  0  0  0  0  0  0  0  0
  -26.2762  -15.5453   20.1156 H   0  0  0  0  0  0  0  0  0  0  0  0
  -26.6778  -32.4663   23.1464 H   0  0  0  0  0  0  0  0  0  0  0  0
  -25.0747  -34.0282   25.0566 H   0  0  0  0  0  0  0  0  0  0  0  0
  -22.7881  -31.3489   21.4131 H   0  0  0  0  0  0  0  0  0  0  0  0
  -23.3854  -35.9823   23.3648 H   0  0  0  0  0  0  0  0  0  0  0  0
  -24.3696  -36.8624   22.2204 H   0  0  0  0  0  0  0  0  0  0  0  0
  -23.7669  -37.6632   23.6516 H   0  0  0  0  0  0  0  0  0  0  0  0
  -25.9445  -31.6237   20.5691 H   0  0  0  0  0  0  0  0  0  0  0  0
  -26.7436  -31.0079   22.0108 H   0  0  0  0  0  0  0  0  0  0  0  0
  -28.0090  -29.1452   21.2057 H   0  0  0  0  0  0  0  0  0  0  0  0
  -26.1369  -26.0560   19.0719 H   0  0  0  0  0  0  0  0  0  0  0  0
  -24.0652  -27.2961   19.0997 H   0  0  0  0  0  0  0  0  0  0  0  0
  -23.6156  -30.5365   19.3930 H   0  0  0  0  0  0  0  0  0  0  0  0
  -22.7355  -29.1425   19.9945 H   0  0  0  0  0  0  0  0  0  0  0  0
  -25.1353  -36.2335   25.0565 H   0  0  0  0  0  0  0  0  0  0  0  0
  -21.0070  -28.3206   24.0793 H   0  0  0  0  0  0  0  0  0  0  0  0
  -20.5555  -26.2518   23.3550 H   0  0  0  0  0  0  0  0  0  0  0  0
  -21.5974  -26.8362   22.0454 H   0  0  0  0  0  0  0  0  0  0  0  0
  -19.6810  -25.6422   21.1488 H   0  0  0  0  0  0  0  0  0  0  0  0
  -19.6406  -27.3343   20.7034 H   0  0  0  0  0  0  0  0  0  0  0  0
  -17.4282  -26.6888   21.4113 H   0  0  0  0  0  0  0  0  0  0  0  0
  -18.0803  -26.0130   22.9049 H   0  0  0  0  0  0  0  0  0  0  0  0
  -19.7265  -30.6774   24.2204 H   0  0  0  0  0  0  0  0  0  0  0  0
  -17.5064  -31.5856   24.4483 H   0  0  0  0  0  0  0  0  0  0  0  0
  -15.5878  -30.2839   23.7407 H   0  0  0  0  0  0  0  0  0  0  0  0
  -15.9120  -28.0941   22.7766 H   0  0  0  0  0  0  0  0  0  0  0  0
  -24.5787  -30.7757   25.6817 H   0  0  0  0  0  0  0  0  0  0  0  0
  -25.0041  -32.2289   26.5536 H   0  0  0  0  0  0  0  0  0  0  0  0
  -25.8166  -30.7245   26.9138 H   0  0  0  0  0  0  0  0  0  0  0  0
  -26.2892  -29.7335   24.0803 H   0  0  0  0  0  0  0  0  0  0  0  0
  -27.4336  -29.7484   25.4006 H   0  0  0  0  0  0  0  0  0  0  0  0
  -27.8466  -30.4994   23.8779 H   0  0  0  0  0  0  0  0  0  0  0  0
  -27.2251  -33.3632   26.1242 H   0  0  0  0  0  0  0  0  0  0  0  0
  -28.3902  -32.6065   25.0645 H   0  0  0  0  0  0  0  0  0  0  0  0
  -27.9772  -31.8555   26.5872 H   0  0  0  0  0  0  0  0  0  0  0  0
  -28.2744  -38.0016   24.6863 H   0  0  0  0  0  0  0  0  0  0  0  0
  -28.0396  -36.2711   24.7461 H   0  0  0  0  0  0  0  0  0  0  0  0
  -27.1773  -37.3087   25.8564 H   0  0  0  0  0  0  0  0  0  0  0  0
  -20.9627  -29.9365   21.7352 H   0  0  0  0  0  0  0  0  0  0  0  0
  -26.0447  -38.2561   24.0273 H   0  0  0  0  0  0  0  0  0  0  0  0
  -28.6079  -17.9128   23.2157 H   0  0  0  0  0  0  0  0  0  0  0  0
  -32.2649  -19.6232   22.1813 H   0  0  0  0  0  0  0  0  0  0  0  0
  -28.9048  -22.7438   24.6511 H   0  0  0  0  0  0  0  0  0  0  0  0
  -30.1531  -23.0961   23.4418 H   0  0  0  0  0  0  0  0  0  0  0  0
  -29.5846  -20.0990   24.7052 H   0  0  0  0  0  0  0  0  0  0  0  0
  -30.9326  -20.9410   23.9309 H   0  0  0  0  0  0  0  0  0  0  0  0
  -27.8048  -24.2805   23.7413 H   0  0  0  0  0  0  0  0  0  0  0  0
  -27.8777  -23.0146   22.2118 H   0  0  0  0  0  0  0  0  0  0  0  0
  -29.2720  -21.3653   22.0106 H   0  0  0  0  0  0  0  0  0  0  0  0
  -28.8724  -15.8055   21.6720 H   0  0  0  0  0  0  0  0  0  0  0  0
  -27.5248  -20.8311   24.2146 H   0  0  0  0  0  0  0  0  0  0  0  0
  1 25  1  0  0  0  0
  1 30  2  0  0  0  0
  1 80  1  0  0  0  0
  2  3  1  0  0  0  0
  2 25  1  0  0  0  0
  2 82  1  0  0  0  0
  2 83  1  0  0  0  0
  3  4  1  0  0  0  0
  3 84  1  0  0  0  0
  3 85  1  0  0  0  0
  4  5  1  0  0  0  0
  4 86  1  0  0  0  0
  4 87  1  0  0  0  0
  5  6  1  0  0  0  0
  5 26  1  0  0  0  0
  5 88  1  6  0  0  0
  6 25  1  0  0  0  0
  6 89  1  0  0  0  0
  6 90  1  0  0  0  0
  7  8  2  0  0  0  0
  7 26  1  0  0  0  0
  7 29  1  0  0  0  0
  8  9  1  0  0  0  0
  8 22  1  0  0  0  0
  9 10  1  0  0  0  0
  9 27  2  0  0  0  0
 10 11  2  0  0  0  0
 10 15  1  0  0  0  0
 11 12  1  0  0  0  0
 11 91  1  0  0  0  0
 12 13  2  0  0  0  0
 12 92  1  0  0  0  0
 13 14  1  0  0  0  0
 13 31  1  0  0  0  0
 14 15  2  0  0  0  0
 14 93  1  0  0  0  0
 15 94  1  0  0  0  0
 16 17  2  0  0  0  0
 16 21  1  0  0  0  0
 16 31  1  0  0  0  0
 17 18  1  0  0  0  0
 17 95  1  0  0  0  0
 18 19  2  0  0  0  0
 18 96  1  0  0  0  0
 19 20  1  0  0  0  0
 19 24  1  0  0  0  0
 20 21  2  0  0  0  0
 20 97  1  0  0  0  0
 21 23  1  0  0  0  0
 22 28  1  0  0  0  0
 22 32  2  0  0  0  0
 26 27  1  0  0  0  0
 28 98  1  0  0  0  0
 28 99  1  0  0  0  0
 29100  1  0  0  0  0
 29101  1  0  0  0  0
 33 34  1  0  0  0  0
 33 66  1  0  0  0  0
 33 70  2  0  0  0  0
 34 36  1  0  0  0  0
 34 59  1  0  0  0  0
 34102  1  6  0  0  0
 35 44  2  0  0  0  0
 35 45  1  0  0  0  0
 35 68  1  0  0  0  0
 36 56  1  0  0  0  0
 36103  1  0  0  0  0
 37 39  1  0  0  0  0
 37 47  1  0  0  0  0
 37 66  1  0  0  0  0
 37104  1  6  0  0  0
 38 43  2  0  0  0  0
 38 46  1  0  0  0  0
 38 47  1  0  0  0  0
 39 64  1  0  0  0  0
 39 67  2  0  0  0  0
 40 52  1  0  0  0  0
 40 53  2  0  0  0  0
 40 58  1  0  0  0  0
 41105  1  0  0  0  0
 41106  1  0  0  0  0
 41107  1  0  0  0  0
 42 43  1  0  0  0  0
 42 66  1  0  0  0  0
 42108  1  0  0  0  0
 42109  1  0  0  0  0
 43 44  1  0  0  0  0
 44110  1  0  0  0  0
 45 46  2  0  0  0  0
 45111  1  0  0  0  0
 46112  1  0  0  0  0
 47113  1  0  0  0  0
 47114  1  0  0  0  0
 48 41  1  0  0  0  0
 48 56  1  0  0  0  0
 48 65  1  0  0  0  0
 48115  1  1  0  0  0
 49 50  1  0  0  0  0
 49 53  1  0  0  0  0
 49 64  1  0  0  0  0
 49116  1  1  0  0  0
 50 51  1  0  0  0  0
 50117  1  0  0  0  0
 50118  1  0  0  0  0
 51 52  1  0  0  0  0
 51119  1  0  0  0  0
 51120  1  0  0  0  0
 52121  1  0  0  0  0
 52122  1  0  0  0  0
 53 54  1  0  0  0  0
 54 55  2  0  0  0  0
 54123  1  0  0  0  0
 55 57  1  0  0  0  0
 55124  1  0  0  0  0
 56 69  2  0  0  0  0
 57 58  2  0  0  0  0
 57125  1  0  0  0  0
 58126  1  0  0  0  0
 59 60  1  0  0  0  0
 59 61  1  0  0  0  0
 59 62  1  0  0  0  0
 60127  1  0  0  0  0
 60128  1  0  0  0  0
 60129  1  0  0  0  0
 61130  1  0  0  0  0
 61131  1  0  0  0  0
 61132  1  0  0  0  0
 62133  1  0  0  0  0
 62134  1  0  0  0  0
 62135  1  0  0  0  0
 63 65  1  0  0  0  0
 63136  1  0  0  0  0
 63137  1  0  0  0  0
 63138  1  0  0  0  0
 64139  1  0  0  0  0
 65140  1  0  0  0  0
 68 76  1  0  0  0  0
 71 73  2  0  0  0  0
 71 79  1  0  0  0  0
 71141  1  0  0  0  0
 72 78  2  0  0  0  0
 72 79  1  0  0  0  0
 72142  1  0  0  0  0
 73 78  1  0  0  0  0
 73 80  1  0  0  0  0
 74 76  1  0  0  0  0
 74 77  1  0  0  0  0
 74143  1  0  0  0  0
 74144  1  0  0  0  0
 75 77  1  0  0  0  0
 75 79  1  0  0  0  0
 75145  1  0  0  0  0
 75146  1  0  0  0  0
 76147  1  0  0  0  0
 76148  1  0  0  0  0
 77 81  1  0  0  0  0
 77149  1  6  0  0  0
 80150  1  0  0  0  0
 81151  1  0  0  0  0
M  ISO  4   1 100  68 101  76 101  80 100
M  END
$$$$
72
 OpenBabel04052305473D

151159  0  0  0  0  0  0  0  0999 V2000
  -30.7652  -14.3608   20.6636 C   0  0  0  0  0  0  0  0  0  0  0  0
  -30.4392  -12.2669   19.3775 C   0  0  0  0  0  0  0  0  0  0  0  0
  -29.4791  -12.5281   18.1977 C   0  0  0  0  0  0  0  0  0  0  0  0
  -27.9985  -12.3963   18.6038 C   0  0  0  0  0  0  0  0  0  0  0  0
  -27.6639  -13.2170   19.8820 C   0  0  2  0  0  0  0  0  0  0  0  0
  -28.6795  -12.9602   21.0279 C   0  0  0  0  0  0  0  0  0  0  0  0
  -25.2633  -13.8245   20.5754 C   0  0  0  0  0  0  0  0  0  0  0  0
  -24.1645  -13.0409   20.9408 C   0  0  0  0  0  0  0  0  0  0  0  0
  -24.6400  -11.7009   20.8697 C   0  0  0  0  0  0  0  0  0  0  0  0
  -23.9005  -10.4085   21.0420 C   0  0  0  0  0  0  0  0  0  0  0  0
  -24.3588   -9.4123   21.9123 C   0  0  0  0  0  0  0  0  0  0  0  0
  -23.6296   -8.2350   22.0803 C   0  0  0  0  0  0  0  0  0  0  0  0
  -22.4385   -8.0419   21.3657 C   0  0  0  0  0  0  0  0  0  0  0  0
  -22.0103   -9.0167   20.4678 C   0  0  0  0  0  0  0  0  0  0  0  0
  -22.7317  -10.1925   20.3102 C   0  0  0  0  0  0  0  0  0  0  0  0
  -21.6857   -6.0709   22.5391 C   0  0  0  0  0  0  0  0  0  0  0  0
  -21.4064   -6.5490   23.8264 C   0  0  0  0  0  0  0  0  0  0  0  0
  -21.3635   -5.6677   24.9085 C   0  0  0  0  0  0  0  0  0  0  0  0
  -21.5973   -4.3067   24.7088 C   0  0  0  0  0  0  0  0  0  0  0  0
  -21.8700   -3.8284   23.4282 C   0  0  0  0  0  0  0  0  0  0  0  0
  -21.9144   -4.7056   22.3460 C   0  0  0  0  0  0  0  0  0  0  0  0
  -22.8194  -13.5263   21.1763 C   0  0  0  0  0  0  0  0  0  0  0  0
  -22.1559   -4.2206   21.1063 F   0  0  0  0  0  0  0  0  0  0  0  0
  -21.5628   -3.4510   25.7555 F   0  0  0  0  0  0  0  0  0  0  0  0
  -30.0261  -13.1803   20.4553 N   0  0  0  0  0  0  0  0  0  0  0  0
  -26.2911  -12.9356   20.3443 N   0  0  0  0  0  0  0  0  0  0  0  0
  -25.9236  -11.6675   20.5847 N   0  0  0  0  0  0  0  0  0  0  0  0
  -22.0708  -12.7905   22.0005 N   0  0  0  0  0  0  0  0  0  0  0  0
  -25.4117  -15.1773   20.4097 N   0  0  0  0  0  0  0  0  0  0  0  0
  -31.7916  -14.6724   20.0536 O   0  0  0  0  0  0  0  0  0  0  0  0
  -21.6670   -6.9022   21.4423 O   0  0  0  0  0  0  0  0  0  0  0  0
  -22.3946  -14.5564   20.6568 O   0  0  0  0  0  0  0  0  0  0  0  0
  -24.6048  -31.8614   23.2223 C   0  0  0  0  0  0  0  0  0  0  0  0
  -25.8822  -32.4841   23.8616 C   0  0  1  0  0  0  0  0  0  0  0  0
  -27.2536  -27.5042   20.1156 C   0  0  0  0  0  0  0  0  0  0  0  0
  -25.5726  -33.8762   24.2210 N   0  0  0  0  0  0  0  0  0  0  0  0
  -23.4066  -30.4859   21.5461 C   0  0  2  0  0  0  0  0  0  0  0  0
  -24.8467  -28.9636   20.1247 C   0  0  0  0  0  0  0  0  0  0  0  0
  -22.7412  -29.4652   22.5052 C   0  0  0  0  0  0  0  0  0  0  0  0
  -18.0167  -28.1302   22.8626 C   0  0  0  0  0  0  0  0  0  0  0  0
  -24.1342  -36.7390   23.2568 C   0  0  0  0  0  0  0  0  0  0  0  0
  -25.9141  -30.8882   21.3456 C   0  0  0  0  0  0  0  0  0  0  0  0
  -25.9930  -29.5029   20.7208 C   0  0  0  0  0  0  0  0  0  0  0  0
  -27.1758  -28.7612   20.7331 C   0  0  0  0  0  0  0  0  0  0  0  0
  -26.1032  -26.9836   19.5230 C   0  0  0  0  0  0  0  0  0  0  0  0
  -24.9097  -27.7011   19.5331 C   0  0  0  0  0  0  0  0  0  0  0  0
  -23.5715  -29.7899   20.1582 C   0  0  0  0  0  0  0  0  0  0  0  0
  -25.3990  -36.3212   24.0232 C   0  0  1  0  0  0  0  0  0  0  0  0
  -20.5793  -28.3813   23.1004 C   0  0  2  0  0  0  0  0  0  0  0  0
  -20.6548  -26.9392   22.5411 C   0  0  0  0  0  0  0  0  0  0  0  0
  -19.5615  -26.6407   21.5143 C   0  0  0  0  0  0  0  0  0  0  0  0
  -18.1797  -26.7818   22.1673 C   0  0  0  0  0  0  0  0  0  0  0  0
  -19.1385  -28.8769   23.2988 C   0  0  0  0  0  0  0  0  0  0  0  0
  -18.9183  -30.1286   23.8878 C   0  0  0  0  0  0  0  0  0  0  0  0
  -17.6396  -30.6493   24.0352 C   0  0  0  0  0  0  0  0  0  0  0  0
  -25.9153  -34.9582   23.4993 C   0  0  0  0  0  0  0  0  0  0  0  0
  -16.5415  -29.9068   23.6254 C   0  0  0  0  0  0  0  0  0  0  0  0
  -16.7331  -28.6521   23.0586 C   0  0  0  0  0  0  0  0  0  0  0  0
  -26.4583  -31.6439   25.0683 C   0  0  0  0  0  0  0  0  0  0  0  0
  -25.3807  -31.3179   26.1374 C   0  0  0  0  0  0  0  0  0  0  0  0
  -27.0530  -30.3024   24.5680 C   0  0  0  0  0  0  0  0  0  0  0  0
  -27.6014  -32.4281   25.7651 C   0  0  0  0  0  0  0  0  0  0  0  0
  -27.5629  -37.2220   24.8621 C   0  0  0  0  0  0  0  0  0  0  0  0
  -21.4133  -29.3375   22.3735 N   0  0  0  0  0  0  0  0  0  0  0  0
  -26.4706  -37.3372   23.9061 N   0  0  0  0  0  0  0  0  0  0  0  0
  -24.6674  -31.0544   22.1178 N   0  0  0  0  0  0  0  0  0  0  0  0
  -23.4259  -28.8150   23.2971 O   0  0  0  0  0  0  0  0  0  0  0  0
  -28.3948  -26.7345   20.0089 O   0  0  0  0  0  0  0  0  0  0  0  0
  -26.5870  -34.9065   22.4671 O   0  0  0  0  0  0  0  0  0  0  0  0
  -23.5365  -32.1254   23.7833 O   0  0  0  0  0  0  0  0  0  0  0  0
  -29.1302  -19.4913   24.1982 C   0  0  0  0  0  0  0  0  0  0  0  0
  -28.1825  -18.6214   23.7009 C   0  0  0  0  0  0  0  0  0  0  0  0
  -29.9533  -17.7744   22.7227 C   0  0  0  0  0  0  0  0  0  0  0  0
  -23.3897  -17.2136   23.5392 C   0  0  0  0  0  0  0  0  0  0  0  0
  -30.8084  -16.8977   21.8935 C   0  0  0  0  0  0  0  0  0  0  0  0
  -25.8373  -17.7950   23.4942 C   0  0  0  0  0  0  0  0  0  0  0  0
  -24.4665  -18.1520   24.0642 C   0  0  1  0  0  0  0  0  0  0  0  0
  -28.6526  -17.6365   22.8543 N   0  0  0  0  0  0  0  0  0  0  0  0
  -26.8355  -18.7031   24.0118 N   0  0  0  0  0  0  0  0  0  0  0  0
  -30.1434  -15.6753   21.5006 N   0  0  0  0  0  0  0  0  0  0  0  0
  -30.6763  -19.0671   23.5893 S   0  0  0  0  0  0  0  0  0  0  0  0
  -31.4485  -12.4701   19.0860 H   0  0  0  0  0  0  0  0  0  0  0  0
  -30.3970  -11.2460   19.6950 H   0  0  0  0  0  0  0  0  0  0  0  0
  -29.6870  -11.8204   17.4226 H   0  0  0  0  0  0  0  0  0  0  0  0
  -29.6375  -13.5326   17.8649 H   0  0  0  0  0  0  0  0  0  0  0  0
  -27.7830  -11.3650   18.7904 H   0  0  0  0  0  0  0  0  0  0  0  0
  -27.4028  -12.7801   17.8021 H   0  0  0  0  0  0  0  0  0  0  0  0
  -27.7353  -14.2503   19.6136 H   0  0  0  0  0  0  0  0  0  0  0  0
  -28.5890  -11.9550   21.3832 H   0  0  0  0  0  0  0  0  0  0  0  0
  -28.5005  -13.6134   21.8562 H   0  0  0  0  0  0  0  0  0  0  0  0
  -25.2399   -9.5495   22.4318 H   0  0  0  0  0  0  0  0  0  0  0  0
  -23.9663   -7.5070   22.7297 H   0  0  0  0  0  0  0  0  0  0  0  0
  -21.1515   -8.8641   19.9162 H   0  0  0  0  0  0  0  0  0  0  0  0
  -22.4016  -10.9115   19.6476 H   0  0  0  0  0  0  0  0  0  0  0  0
  -21.2319   -7.5552   23.9750 H   0  0  0  0  0  0  0  0  0  0  0  0
  -21.1589   -6.0228   25.8556 H   0  0  0  0  0  0  0  0  0  0  0  0
  -22.0396   -2.8212   23.2809 H   0  0  0  0  0  0  0  0  0  0  0  0
  -22.4401  -11.9703   22.4008 H   0  0  0  0  0  0  0  0  0  0  0  0
  -21.1493  -13.0679   22.2082 H   0  0  0  0  0  0  0  0  0  0  0  0
  -24.6538  -15.7807   20.5848 H   0  0  0  0  0  0  0  0  0  0  0  0
  -26.2762  -15.5453   20.1156 H   0  0  0  0  0  0  0  0  0  0  0  0
  -26.6778  -32.4663   23.1464 H   0  0  0  0  0  0  0  0  0  0  0  0
  -25.0747  -34.0282   25.0566 H   0  0  0  0  0  0  0  0  0  0  0  0
  -22.7881  -31.3489   21.4131 H   0  0  0  0  0  0  0  0  0  0  0  0
  -23.3854  -35.9823   23.3648 H   0  0  0  0  0  0  0  0  0  0  0  0
  -24.3696  -36.8624   22.2204 H   0  0  0  0  0  0  0  0  0  0  0  0
  -23.7669  -37.6632   23.6516 H   0  0  0  0  0  0  0  0  0  0  0  0
  -25.9445  -31.6237   20.5691 H   0  0  0  0  0  0  0  0  0  0  0  0
  -26.7436  -31.0079   22.0108 H   0  0  0  0  0  0  0  0  0  0  0  0
  -28.0090  -29.1452   21.2057 H   0  0  0  0  0  0  0  0  0  0  0  0
  -26.1369  -26.0560   19.0719 H   0  0  0  0  0  0  0  0  0  0  0  0
  -24.0652  -27.2961   19.0997 H   0  0  0  0  0  0  0  0  0  0  0  0
  -23.6156  -30.5365   19.3930 H   0  0  0  0  0  0  0  0  0  0  0  0
  -22.7355  -29.1425   19.9945 H   0  0  0  0  0  0  0  0  0  0  0  0
  -25.1353  -36.2335   25.0565 H   0  0  0  0  0  0  0  0  0  0  0  0
  -21.0070  -28.3206   24.0793 H   0  0  0  0  0  0  0  0  0  0  0  0
  -20.5555  -26.2518   23.3550 H   0  0  0  0  0  0  0  0  0  0  0  0
  -21.5974  -26.8362   22.0454 H   0  0  0  0  0  0  0  0  0  0  0  0
  -19.6810  -25.6422   21.1488 H   0  0  0  0  0  0  0  0  0  0  0  0
  -19.6406  -27.3343   20.7034 H   0  0  0  0  0  0  0  0  0  0  0  0
  -17.4282  -26.6888   21.4113 H   0  0  0  0  0  0  0  0  0  0  0  0
  -18.0803  -26.0130   22.9049 H   0  0  0  0  0  0  0  0  0  0  0  0
  -19.7265  -30.6774   24.2204 H   0  0  0  0  0  0  0  0  0  0  0  0
  -17.5064  -31.5856   24.4483 H   0  0  0  0  0  0  0  0  0  0  0  0
  -15.5878  -30.2839   23.7407 H   0  0  0  0  0  0  0  0  0  0  0  0
  -15.9120  -28.0941   22.7766 H   0  0  0  0  0  0  0  0  0  0  0  0
  -24.5787  -30.7757   25.6817 H   0  0  0  0  0  0  0  0  0  0  0  0
  -25.0041  -32.2289   26.5536 H   0  0  0  0  0  0  0  0  0  0  0  0
  -25.8166  -30.7245   26.9138 H   0  0  0  0  0  0  0  0  0  0  0  0
  -26.2892  -29.7335   24.0803 H   0  0  0  0  0  0  0  0  0  0  0  0
  -27.4336  -29.7484   25.4006 H   0  0  0  0  0  0  0  0  0  0  0  0
  -27.8466  -30.4994   23.8779 H   0  0  0  0  0  0  0  0  0  0  0  0
  -27.2251  -33.3632   26.1242 H   0  0  0  0  0  0  0  0  0  0  0  0
  -28.3902  -32.6065   25.0645 H   0  0  0  0  0  0  0  0  0  0  0  0
  -27.9772  -31.8555   26.5872 H   0  0  0  0  0  0  0  0  0  0  0  0
  -28.2744  -38.0016   24.6863 H   0  0  0  0  0  0  0  0  0  0  0  0
  -28.0396  -36.2711   24.7461 H   0  0  0  0  0  0  0  0  0  0  0  0
  -27.1773  -37.3087   25.8564 H   0  0  0  0  0  0  0  0  0  0  0  0
  -20.9627  -29.9365   21.7352 H   0  0  0  0  0  0  0  0  0  0  0  0
  -26.0447  -38.2561   24.0273 H   0  0  0  0  0  0  0  0  0  0  0  0
  -28.9383  -20.2773   24.8388 H   0  0  0  0  0  0  0  0  0  0  0  0
  -23.2398  -16.4167   24.2373 H   0  0  0  0  0  0  0  0  0  0  0  0
  -23.6970  -16.8096   22.5973 H   0  0  0  0  0  0  0  0  0  0  0  0
  -22.4752  -17.7547   23.4139 H   0  0  0  0  0  0  0  0  0  0  0  0
  -31.6844  -16.6454   22.4538 H   0  0  0  0  0  0  0  0  0  0  0  0
  -31.0496  -17.4347   21.0000 H   0  0  0  0  0  0  0  0  0  0  0  0
  -25.8085  -17.8697   22.4272 H   0  0  0  0  0  0  0  0  0  0  0  0
  -26.0884  -16.7948   23.7794 H   0  0  0  0  0  0  0  0  0  0  0  0
  -23.9771  -18.1648   25.0156 H   0  0  0  0  0  0  0  0  0  0  0  0
  -26.5414  -19.4198   24.6193 H   0  0  0  0  0  0  0  0  0  0  0  0
  -29.1962  -15.6047   21.7597 H   0  0  0  0  0  0  0  0  0  0  0  0
  1 25  1  0  0  0  0
  1 30  2  0  0  0  0
  1 80  1  0  0  0  0
  2  3  1  0  0  0  0
  2 25  1  0  0  0  0
  2 82  1  0  0  0  0
  2 83  1  0  0  0  0
  3  4  1  0  0  0  0
  3 84  1  0  0  0  0
  3 85  1  0  0  0  0
  4  5  1  0  0  0  0
  4 86  1  0  0  0  0
  4 87  1  0  0  0  0
  5  6  1  0  0  0  0
  5 26  1  0  0  0  0
  5 88  1  6  0  0  0
  6 25  1  0  0  0  0
  6 89  1  0  0  0  0
  6 90  1  0  0  0  0
  7  8  2  0  0  0  0
  7 26  1  0  0  0  0
  7 29  1  0  0  0  0
  8  9  1  0  0  0  0
  8 22  1  0  0  0  0
  9 10  1  0  0  0  0
  9 27  2  0  0  0  0
 10 11  2  0  0  0  0
 10 15  1  0  0  0  0
 11 12  1  0  0  0  0
 11 91  1  0  0  0  0
 12 13  2  0  0  0  0
 12 92  1  0  0  0  0
 13 14  1  0  0  0  0
 13 31  1  0  0  0  0
 14 15  2  0  0  0  0
 14 93  1  0  0  0  0
 15 94  1  0  0  0  0
 16 17  2  0  0  0  0
 16 21  1  0  0  0  0
 16 31  1  0  0  0  0
 17 18  1  0  0  0  0
 17 95  1  0  0  0  0
 18 19  2  0  0  0  0
 18 96  1  0  0  0  0
 19 20  1  0  0  0  0
 19 24  1  0  0  0  0
 20 21  2  0  0  0  0
 20 97  1  0  0  0  0
 21 23  1  0  0  0  0
 22 28  1  0  0  0  0
 22 32  2  0  0  0  0
 26 27  1  0  0  0  0
 28 98  1  0  0  0  0
 28 99  1  0  0  0  0
 29100  1  0  0  0  0
 29101  1  0  0  0  0
 33 34  1  0  0  0  0
 33 66  1  0  0  0  0
 33 70  2  0  0  0  0
 34 36  1  0  0  0  0
 34 59  1  0  0  0  0
 34102  1  6  0  0  0
 35 44  2  0  0  0  0
 35 45  1  0  0  0  0
 35 68  1  0  0  0  0
 36 56  1  0  0  0  0
 36103  1  0  0  0  0
 37 39  1  0  0  0  0
 37 47  1  0  0  0  0
 37 66  1  0  0  0  0
 37104  1  6  0  0  0
 38 43  2  0  0  0  0
 38 46  1  0  0  0  0
 38 47  1  0  0  0  0
 39 64  1  0  0  0  0
 39 67  2  0  0  0  0
 40 52  1  0  0  0  0
 40 53  2  0  0  0  0
 40 58  1  0  0  0  0
 41105  1  0  0  0  0
 41106  1  0  0  0  0
 41107  1  0  0  0  0
 42 43  1  0  0  0  0
 42 66  1  0  0  0  0
 42108  1  0  0  0  0
 42109  1  0  0  0  0
 43 44  1  0  0  0  0
 44110  1  0  0  0  0
 45 46  2  0  0  0  0
 45111  1  0  0  0  0
 46112  1  0  0  0  0
 47113  1  0  0  0  0
 47114  1  0  0  0  0
 48 41  1  0  0  0  0
 48 56  1  0  0  0  0
 48 65  1  0  0  0  0
 48115  1  1  0  0  0
 49 50  1  0  0  0  0
 49 53  1  0  0  0  0
 49 64  1  0  0  0  0
 49116  1  1  0  0  0
 50 51  1  0  0  0  0
 50117  1  0  0  0  0
 50118  1  0  0  0  0
 51 52  1  0  0  0  0
 51119  1  0  0  0  0
 51120  1  0  0  0  0
 52121  1  0  0  0  0
 52122  1  0  0  0  0
 53 54  1  0  0  0  0
 54 55  2  0  0  0  0
 54123  1  0  0  0  0
 55 57  1  0  0  0  0
 55124  1  0  0  0  0
 56 69  2  0  0  0  0
 57 58  2  0  0  0  0
 57125  1  0  0  0  0
 58126  1  0  0  0  0
 59 60  1  0  0  0  0
 59 61  1  0  0  0  0
 59 62  1  0  0  0  0
 60127  1  0  0  0  0
 60128  1  0  0  0  0
 60129  1  0  0  0  0
 61130  1  0  0  0  0
 61131  1  0  0  0  0
 61132  1  0  0  0  0
 62133  1  0  0  0  0
 62134  1  0  0  0  0
 62135  1  0  0  0  0
 63 65  1  0  0  0  0
 63136  1  0  0  0  0
 63137  1  0  0  0  0
 63138  1  0  0  0  0
 64139  1  0  0  0  0
 65140  1  0  0  0  0
 68 77  1  0  0  0  0
 71 72  2  0  0  0  0
 71 81  1  0  0  0  0
 71141  1  0  0  0  0
 72 78  1  0  0  0  0
 72 79  1  0  0  0  0
 73 75  1  0  0  0  0
 73 78  2  0  0  0  0
 73 81  1  0  0  0  0
 74142  1  0  0  0  0
 74143  1  0  0  0  0
 74144  1  0  0  0  0
 75 80  1  0  0  0  0
 75145  1  0  0  0  0
 75146  1  0  0  0  0
 76 77  1  0  0  0  0
 76 79  1  0  0  0  0
 76147  1  0  0  0  0
 76148  1  0  0  0  0
 77 74  1  0  0  0  0
 77149  1  1  0  0  0
 79150  1  0  0  0  0
 80151  1  0  0  0  0
M  ISO  4   1 100  68 101  77 101  80 100
M  END
$$$$
73
 OpenBabel04052305473D

151159  0  0  0  0  0  0  0  0999 V2000
  -30.7652  -14.3608   20.6636 C   0  0  0  0  0  0  0  0  0  0  0  0
  -30.4392  -12.2669   19.3775 C   0  0  0  0  0  0  0  0  0  0  0  0
  -29.4791  -12.5281   18.1977 C   0  0  0  0  0  0  0  0  0  0  0  0
  -27.9985  -12.3963   18.6038 C   0  0  0  0  0  0  0  0  0  0  0  0
  -27.6639  -13.2170   19.8820 C   0  0  2  0  0  0  0  0  0  0  0  0
  -28.6795  -12.9602   21.0279 C   0  0  0  0  0  0  0  0  0  0  0  0
  -25.2633  -13.8245   20.5754 C   0  0  0  0  0  0  0  0  0  0  0  0
  -24.1645  -13.0409   20.9408 C   0  0  0  0  0  0  0  0  0  0  0  0
  -24.6400  -11.7009   20.8697 C   0  0  0  0  0  0  0  0  0  0  0  0
  -23.9005  -10.4085   21.0420 C   0  0  0  0  0  0  0  0  0  0  0  0
  -24.3588   -9.4123   21.9123 C   0  0  0  0  0  0  0  0  0  0  0  0
  -23.6296   -8.2350   22.0803 C   0  0  0  0  0  0  0  0  0  0  0  0
  -22.4385   -8.0419   21.3657 C   0  0  0  0  0  0  0  0  0  0  0  0
  -22.0103   -9.0167   20.4678 C   0  0  0  0  0  0  0  0  0  0  0  0
  -22.7317  -10.1925   20.3102 C   0  0  0  0  0  0  0  0  0  0  0  0
  -21.6857   -6.0709   22.5391 C   0  0  0  0  0  0  0  0  0  0  0  0
  -21.4064   -6.5490   23.8264 C   0  0  0  0  0  0  0  0  0  0  0  0
  -21.3635   -5.6677   24.9085 C   0  0  0  0  0  0  0  0  0  0  0  0
  -21.5973   -4.3067   24.7088 C   0  0  0  0  0  0  0  0  0  0  0  0
  -21.8700   -3.8284   23.4282 C   0  0  0  0  0  0  0  0  0  0  0  0
  -21.9144   -4.7056   22.3460 C   0  0  0  0  0  0  0  0  0  0  0  0
  -22.8194  -13.5263   21.1763 C   0  0  0  0  0  0  0  0  0  0  0  0
  -22.1559   -4.2206   21.1063 F   0  0  0  0  0  0  0  0  0  0  0  0
  -21.5628   -3.4510   25.7555 F   0  0  0  0  0  0  0  0  0  0  0  0
  -30.0261  -13.1803   20.4553 N   0  0  0  0  0  0  0  0  0  0  0  0
  -26.2911  -12.9356   20.3443 N   0  0  0  0  0  0  0  0  0  0  0  0
  -25.9236  -11.6675   20.5847 N   0  0  0  0  0  0  0  0  0  0  0  0
  -22.0708  -12.7905   22.0005 N   0  0  0  0  0  0  0  0  0  0  0  0
  -25.4117  -15.1773   20.4097 N   0  0  0  0  0  0  0  0  0  0  0  0
  -31.7916  -14.6724   20.0536 O   0  0  0  0  0  0  0  0  0  0  0  0
  -21.6670   -6.9022   21.4423 O   0  0  0  0  0  0  0  0  0  0  0  0
  -22.3946  -14.5564   20.6568 O   0  0  0  0  0  0  0  0  0  0  0  0
  -24.6048  -31.8614   23.2223 C   0  0  0  0  0  0  0  0  0  0  0  0
  -25.8822  -32.4841   23.8616 C   0  0  1  0  0  0  0  0  0  0  0  0
  -27.2536  -27.5042   20.1156 C   0  0  0  0  0  0  0  0  0  0  0  0
  -25.5726  -33.8762   24.2210 N   0  0  0  0  0  0  0  0  0  0  0  0
  -23.4066  -30.4859   21.5461 C   0  0  2  0  0  0  0  0  0  0  0  0
  -24.8467  -28.9636   20.1247 C   0  0  0  0  0  0  0  0  0  0  0  0
  -22.7412  -29.4652   22.5052 C   0  0  0  0  0  0  0  0  0  0  0  0
  -18.0167  -28.1302   22.8626 C   0  0  0  0  0  0  0  0  0  0  0  0
  -24.1342  -36.7390   23.2568 C   0  0  0  0  0  0  0  0  0  0  0  0
  -25.9141  -30.8882   21.3456 C   0  0  0  0  0  0  0  0  0  0  0  0
  -25.9930  -29.5029   20.7208 C   0  0  0  0  0  0  0  0  0  0  0  0
  -27.1758  -28.7612   20.7331 C   0  0  0  0  0  0  0  0  0  0  0  0
  -26.1032  -26.9836   19.5230 C   0  0  0  0  0  0  0  0  0  0  0  0
  -24.9097  -27.7011   19.5331 C   0  0  0  0  0  0  0  0  0  0  0  0
  -23.5715  -29.7899   20.1582 C   0  0  0  0  0  0  0  0  0  0  0  0
  -25.3990  -36.3212   24.0232 C   0  0  1  0  0  0  0  0  0  0  0  0
  -20.5793  -28.3813   23.1004 C   0  0  2  0  0  0  0  0  0  0  0  0
  -20.6548  -26.9392   22.5411 C   0  0  0  0  0  0  0  0  0  0  0  0
  -19.5615  -26.6407   21.5143 C   0  0  0  0  0  0  0  0  0  0  0  0
  -18.1797  -26.7818   22.1673 C   0  0  0  0  0  0  0  0  0  0  0  0
  -19.1385  -28.8769   23.2988 C   0  0  0  0  0  0  0  0  0  0  0  0
  -18.9183  -30.1286   23.8878 C   0  0  0  0  0  0  0  0  0  0  0  0
  -17.6396  -30.6493   24.0352 C   0  0  0  0  0  0  0  0  0  0  0  0
  -25.9153  -34.9582   23.4993 C   0  0  0  0  0  0  0  0  0  0  0  0
  -16.5415  -29.9068   23.6254 C   0  0  0  0  0  0  0  0  0  0  0  0
  -16.7331  -28.6521   23.0586 C   0  0  0  0  0  0  0  0  0  0  0  0
  -26.4583  -31.6439   25.0683 C   0  0  0  0  0  0  0  0  0  0  0  0
  -25.3807  -31.3179   26.1374 C   0  0  0  0  0  0  0  0  0  0  0  0
  -27.0530  -30.3024   24.5680 C   0  0  0  0  0  0  0  0  0  0  0  0
  -27.6014  -32.4281   25.7651 C   0  0  0  0  0  0  0  0  0  0  0  0
  -27.5629  -37.2220   24.8621 C   0  0  0  0  0  0  0  0  0  0  0  0
  -21.4133  -29.3375   22.3735 N   0  0  0  0  0  0  0  0  0  0  0  0
  -26.4706  -37.3372   23.9061 N   0  0  0  0  0  0  0  0  0  0  0  0
  -24.6674  -31.0544   22.1178 N   0  0  0  0  0  0  0  0  0  0  0  0
  -23.4259  -28.8150   23.2971 O   0  0  0  0  0  0  0  0  0  0  0  0
  -28.3948  -26.7345   20.0089 O   0  0  0  0  0  0  0  0  0  0  0  0
  -26.5870  -34.9065   22.4671 O   0  0  0  0  0  0  0  0  0  0  0  0
  -23.5365  -32.1254   23.7833 O   0  0  0  0  0  0  0  0  0  0  0  0
  -32.7262  -15.4554   23.7553 C   0  0  0  0  0  0  0  0  0  0  0  0
  -32.4444  -16.7657   24.2390 C   0  0  0  0  0  0  0  0  0  0  0  0
  -31.7316  -14.5592   24.0793 C   0  0  0  0  0  0  0  0  0  0  0  0
  -31.2448  -16.8209   24.9142 C   0  0  0  0  0  0  0  0  0  0  0  0
  -31.0208  -19.2230   25.6379 C   0  0  0  0  0  0  0  0  0  0  0  0
  -31.6532  -13.1165   23.7628 C   0  0  0  0  0  0  0  0  0  0  0  0
  -30.0084  -20.0648   26.4064 C   0  0  0  0  0  0  0  0  0  0  0  0
  -30.4231  -21.5221   26.5418 C   0  0  0  0  0  0  0  0  0  0  0  0
  -30.5877  -17.9029   25.5469 N   0  0  0  0  0  0  0  0  0  0  0  0
  -30.7223  -12.8269   22.6949 N   0  0  0  0  0  0  0  0  0  0  0  0
  -32.0569  -19.6992   25.1863 O   0  0  0  0  0  0  0  0  0  0  0  0
  -30.4643  -15.2976   24.9631 S   0  0  0  0  0  0  0  0  0  0  0  0
  -31.4485  -12.4701   19.0860 H   0  0  0  0  0  0  0  0  0  0  0  0
  -30.3970  -11.2460   19.6950 H   0  0  0  0  0  0  0  0  0  0  0  0
  -29.6870  -11.8204   17.4226 H   0  0  0  0  0  0  0  0  0  0  0  0
  -29.6375  -13.5326   17.8649 H   0  0  0  0  0  0  0  0  0  0  0  0
  -27.7830  -11.3650   18.7904 H   0  0  0  0  0  0  0  0  0  0  0  0
  -27.4028  -12.7801   17.8021 H   0  0  0  0  0  0  0  0  0  0  0  0
  -27.7353  -14.2503   19.6136 H   0  0  0  0  0  0  0  0  0  0  0  0
  -28.5890  -11.9550   21.3832 H   0  0  0  0  0  0  0  0  0  0  0  0
  -28.5005  -13.6134   21.8562 H   0  0  0  0  0  0  0  0  0  0  0  0
  -25.2399   -9.5495   22.4318 H   0  0  0  0  0  0  0  0  0  0  0  0
  -23.9663   -7.5070   22.7297 H   0  0  0  0  0  0  0  0  0  0  0  0
  -21.1515   -8.8641   19.9162 H   0  0  0  0  0  0  0  0  0  0  0  0
  -22.4016  -10.9115   19.6476 H   0  0  0  0  0  0  0  0  0  0  0  0
  -21.2319   -7.5552   23.9750 H   0  0  0  0  0  0  0  0  0  0  0  0
  -21.1589   -6.0228   25.8556 H   0  0  0  0  0  0  0  0  0  0  0  0
  -22.0396   -2.8212   23.2809 H   0  0  0  0  0  0  0  0  0  0  0  0
  -22.4401  -11.9703   22.4008 H   0  0  0  0  0  0  0  0  0  0  0  0
  -21.1493  -13.0679   22.2082 H   0  0  0  0  0  0  0  0  0  0  0  0
  -24.6538  -15.7807   20.5848 H   0  0  0  0  0  0  0  0  0  0  0  0
  -26.2762  -15.5453   20.1156 H   0  0  0  0  0  0  0  0  0  0  0  0
  -26.6778  -32.4663   23.1464 H   0  0  0  0  0  0  0  0  0  0  0  0
  -25.0747  -34.0282   25.0566 H   0  0  0  0  0  0  0  0  0  0  0  0
  -22.7881  -31.3489   21.4131 H   0  0  0  0  0  0  0  0  0  0  0  0
  -23.3854  -35.9823   23.3648 H   0  0  0  0  0  0  0  0  0  0  0  0
  -24.3696  -36.8624   22.2204 H   0  0  0  0  0  0  0  0  0  0  0  0
  -23.7669  -37.6632   23.6516 H   0  0  0  0  0  0  0  0  0  0  0  0
  -25.9445  -31.6237   20.5691 H   0  0  0  0  0  0  0  0  0  0  0  0
  -26.7436  -31.0079   22.0108 H   0  0  0  0  0  0  0  0  0  0  0  0
  -28.0090  -29.1452   21.2057 H   0  0  0  0  0  0  0  0  0  0  0  0
  -26.1369  -26.0560   19.0719 H   0  0  0  0  0  0  0  0  0  0  0  0
  -24.0652  -27.2961   19.0997 H   0  0  0  0  0  0  0  0  0  0  0  0
  -23.6156  -30.5365   19.3930 H   0  0  0  0  0  0  0  0  0  0  0  0
  -22.7355  -29.1425   19.9945 H   0  0  0  0  0  0  0  0  0  0  0  0
  -25.1353  -36.2335   25.0565 H   0  0  0  0  0  0  0  0  0  0  0  0
  -21.0070  -28.3206   24.0793 H   0  0  0  0  0  0  0  0  0  0  0  0
  -20.5555  -26.2518   23.3550 H   0  0  0  0  0  0  0  0  0  0  0  0
  -21.5974  -26.8362   22.0454 H   0  0  0  0  0  0  0  0  0  0  0  0
  -19.6810  -25.6422   21.1488 H   0  0  0  0  0  0  0  0  0  0  0  0
  -19.6406  -27.3343   20.7034 H   0  0  0  0  0  0  0  0  0  0  0  0
  -17.4282  -26.6888   21.4113 H   0  0  0  0  0  0  0  0  0  0  0  0
  -18.0803  -26.0130   22.9049 H   0  0  0  0  0  0  0  0  0  0  0  0
  -19.7265  -30.6774   24.2204 H   0  0  0  0  0  0  0  0  0  0  0  0
  -17.5064  -31.5856   24.4483 H   0  0  0  0  0  0  0  0  0  0  0  0
  -15.5878  -30.2839   23.7407 H   0  0  0  0  0  0  0  0  0  0  0  0
  -15.9120  -28.0941   22.7766 H   0  0  0  0  0  0  0  0  0  0  0  0
  -24.5787  -30.7757   25.6817 H   0  0  0  0  0  0  0  0  0  0  0  0
  -25.0041  -32.2289   26.5536 H   0  0  0  0  0  0  0  0  0  0  0  0
  -25.8166  -30.7245   26.9138 H   0  0  0  0  0  0  0  0  0  0  0  0
  -26.2892  -29.7335   24.0803 H   0  0  0  0  0  0  0  0  0  0  0  0
  -27.4336  -29.7484   25.4006 H   0  0  0  0  0  0  0  0  0  0  0  0
  -27.8466  -30.4994   23.8779 H   0  0  0  0  0  0  0  0  0  0  0  0
  -27.2251  -33.3632   26.1242 H   0  0  0  0  0  0  0  0  0  0  0  0
  -28.3902  -32.6065   25.0645 H   0  0  0  0  0  0  0  0  0  0  0  0
  -27.9772  -31.8555   26.5872 H   0  0  0  0  0  0  0  0  0  0  0  0
  -28.2744  -38.0016   24.6863 H   0  0  0  0  0  0  0  0  0  0  0  0
  -28.0396  -36.2711   24.7461 H   0  0  0  0  0  0  0  0  0  0  0  0
  -27.1773  -37.3087   25.8564 H   0  0  0  0  0  0  0  0  0  0  0  0
  -20.9627  -29.9365   21.7352 H   0  0  0  0  0  0  0  0  0  0  0  0
  -26.0447  -38.2561   24.0273 H   0  0  0  0  0  0  0  0  0  0  0  0
  -33.5757  -15.2070   23.2246 H   0  0  0  0  0  0  0  0  0  0  0  0
  -33.0658  -17.5778   24.0999 H   0  0  0  0  0  0  0  0  0  0  0  0
  -31.3409  -12.5904   24.6406 H   0  0  0  0  0  0  0  0  0  0  0  0
  -32.6237  -12.8048   23.4375 H   0  0  0  0  0  0  0  0  0  0  0  0
  -29.8954  -19.6506   27.3865 H   0  0  0  0  0  0  0  0  0  0  0  0
  -29.0921  -20.0442   25.8542 H   0  0  0  0  0  0  0  0  0  0  0  0
  -31.4864  -21.5472   26.6587 H   0  0  0  0  0  0  0  0  0  0  0  0
  -29.8727  -21.8946   27.3804 H   0  0  0  0  0  0  0  0  0  0  0  0
  -29.7237  -17.6983   25.9722 H   0  0  0  0  0  0  0  0  0  0  0  0
  -30.0977  -12.0679   22.7510 H   0  0  0  0  0  0  0  0  0  0  0  0
  1 25  1  0  0  0  0
  1 30  2  0  0  0  0
  1 80  1  0  0  0  0
  2  3  1  0  0  0  0
  2 25  1  0  0  0  0
  2 83  1  0  0  0  0
  2 84  1  0  0  0  0
  3  4  1  0  0  0  0
  3 85  1  0  0  0  0
  3 86  1  0  0  0  0
  4  5  1  0  0  0  0
  4 87  1  0  0  0  0
  4 88  1  0  0  0  0
  5  6  1  0  0  0  0
  5 26  1  0  0  0  0
  5 89  1  6  0  0  0
  6 25  1  0  0  0  0
  6 90  1  0  0  0  0
  6 91  1  0  0  0  0
  7  8  2  0  0  0  0
  7 26  1  0  0  0  0
  7 29  1  0  0  0  0
  8  9  1  0  0  0  0
  8 22  1  0  0  0  0
  9 10  1  0  0  0  0
  9 27  2  0  0  0  0
 10 11  2  0  0  0  0
 10 15  1  0  0  0  0
 11 12  1  0  0  0  0
 11 92  1  0  0  0  0
 12 13  2  0  0  0  0
 12 93  1  0  0  0  0
 13 14  1  0  0  0  0
 13 31  1  0  0  0  0
 14 15  2  0  0  0  0
 14 94  1  0  0  0  0
 15 95  1  0  0  0  0
 16 17  2  0  0  0  0
 16 21  1  0  0  0  0
 16 31  1  0  0  0  0
 17 18  1  0  0  0  0
 17 96  1  0  0  0  0
 18 19  2  0  0  0  0
 18 97  1  0  0  0  0
 19 20  1  0  0  0  0
 19 24  1  0  0  0  0
 20 21  2  0  0  0  0
 20 98  1  0  0  0  0
 21 23  1  0  0  0  0
 22 28  1  0  0  0  0
 22 32  2  0  0  0  0
 26 27  1  0  0  0  0
 28 99  1  0  0  0  0
 28100  1  0  0  0  0
 29101  1  0  0  0  0
 29102  1  0  0  0  0
 33 34  1  0  0  0  0
 33 66  1  0  0  0  0
 33 70  2  0  0  0  0
 34 36  1  0  0  0  0
 34 59  1  0  0  0  0
 34103  1  6  0  0  0
 35 44  2  0  0  0  0
 35 45  1  0  0  0  0
 35 68  1  0  0  0  0
 36 56  1  0  0  0  0
 36104  1  0  0  0  0
 37 39  1  0  0  0  0
 37 47  1  0  0  0  0
 37 66  1  0  0  0  0
 37105  1  6  0  0  0
 38 43  2  0  0  0  0
 38 46  1  0  0  0  0
 38 47  1  0  0  0  0
 39 64  1  0  0  0  0
 39 67  2  0  0  0  0
 40 52  1  0  0  0  0
 40 53  2  0  0  0  0
 40 58  1  0  0  0  0
 41106  1  0  0  0  0
 41107  1  0  0  0  0
 41108  1  0  0  0  0
 42 43  1  0  0  0  0
 42 66  1  0  0  0  0
 42109  1  0  0  0  0
 42110  1  0  0  0  0
 43 44  1  0  0  0  0
 44111  1  0  0  0  0
 45 46  2  0  0  0  0
 45112  1  0  0  0  0
 46113  1  0  0  0  0
 47114  1  0  0  0  0
 47115  1  0  0  0  0
 48 41  1  0  0  0  0
 48 56  1  0  0  0  0
 48 65  1  0  0  0  0
 48116  1  1  0  0  0
 49 50  1  0  0  0  0
 49 53  1  0  0  0  0
 49 64  1  0  0  0  0
 49117  1  1  0  0  0
 50 51  1  0  0  0  0
 50118  1  0  0  0  0
 50119  1  0  0  0  0
 51 52  1  0  0  0  0
 51120  1  0  0  0  0
 51121  1  0  0  0  0
 52122  1  0  0  0  0
 52123  1  0  0  0  0
 53 54  1  0  0  0  0
 54 55  2  0  0  0  0
 54124  1  0  0  0  0
 55 57  1  0  0  0  0
 55125  1  0  0  0  0
 56 69  2  0  0  0  0
 57 58  2  0  0  0  0
 57126  1  0  0  0  0
 58127  1  0  0  0  0
 59 60  1  0  0  0  0
 59 61  1  0  0  0  0
 59 62  1  0  0  0  0
 60128  1  0  0  0  0
 60129  1  0  0  0  0
 60130  1  0  0  0  0
 61131  1  0  0  0  0
 61132  1  0  0  0  0
 61133  1  0  0  0  0
 62134  1  0  0  0  0
 62135  1  0  0  0  0
 62136  1  0  0  0  0
 63 65  1  0  0  0  0
 63137  1  0  0  0  0
 63138  1  0  0  0  0
 63139  1  0  0  0  0
 64140  1  0  0  0  0
 65141  1  0  0  0  0
 68 78  1  0  0  0  0
 71 72  1  0  0  0  0
 71 73  2  0  0  0  0
 71142  1  0  0  0  0
 72 74  2  0  0  0  0
 72143  1  0  0  0  0
 73 76  1  0  0  0  0
 73 82  1  0  0  0  0
 74 79  1  0  0  0  0
 74 82  1  0  0  0  0
 75 77  1  0  0  0  0
 75 79  1  0  0  0  0
 75 81  2  0  0  0  0
 76 80  1  0  0  0  0
 76144  1  0  0  0  0
 76145  1  0  0  0  0
 77 78  1  0  0  0  0
 77146  1  0  0  0  0
 77147  1  0  0  0  0
 78148  1  0  0  0  0
 78149  1  0  0  0  0
 79150  1  0  0  0  0
 80151  1  0  0  0  0
M  ISO  4   1 100  68 101  78 101  80 100
M  END
$$$$
74
 OpenBabel04052305473D

153161  0  0  0  0  0  0  0  0999 V2000
  -30.7652  -14.3608   20.6636 C   0  0  0  0  0  0  0  0  0  0  0  0
  -30.4392  -12.2669   19.3775 C   0  0  0  0  0  0  0  0  0  0  0  0
  -29.4791  -12.5281   18.1977 C   0  0  0  0  0  0  0  0  0  0  0  0
  -27.9985  -12.3963   18.6038 C   0  0  0  0  0  0  0  0  0  0  0  0
  -27.6639  -13.2170   19.8820 C   0  0  2  0  0  0  0  0  0  0  0  0
  -28.6795  -12.9602   21.0279 C   0  0  0  0  0  0  0  0  0  0  0  0
  -25.2633  -13.8245   20.5754 C   0  0  0  0  0  0  0  0  0  0  0  0
  -24.1645  -13.0409   20.9408 C   0  0  0  0  0  0  0  0  0  0  0  0
  -24.6400  -11.7009   20.8697 C   0  0  0  0  0  0  0  0  0  0  0  0
  -23.9005  -10.4085   21.0420 C   0  0  0  0  0  0  0  0  0  0  0  0
  -24.3588   -9.4123   21.9123 C   0  0  0  0  0  0  0  0  0  0  0  0
  -23.6296   -8.2350   22.0803 C   0  0  0  0  0  0  0  0  0  0  0  0
  -22.4385   -8.0419   21.3657 C   0  0  0  0  0  0  0  0  0  0  0  0
  -22.0103   -9.0167   20.4678 C   0  0  0  0  0  0  0  0  0  0  0  0
  -22.7317  -10.1925   20.3102 C   0  0  0  0  0  0  0  0  0  0  0  0
  -21.6857   -6.0709   22.5391 C   0  0  0  0  0  0  0  0  0  0  0  0
  -21.4064   -6.5490   23.8264 C   0  0  0  0  0  0  0  0  0  0  0  0
  -21.3635   -5.6677   24.9085 C   0  0  0  0  0  0  0  0  0  0  0  0
  -21.5973   -4.3067   24.7088 C   0  0  0  0  0  0  0  0  0  0  0  0
  -21.8700   -3.8284   23.4282 C   0  0  0  0  0  0  0  0  0  0  0  0
  -21.9144   -4.7056   22.3460 C   0  0  0  0  0  0  0  0  0  0  0  0
  -22.8194  -13.5263   21.1763 C   0  0  0  0  0  0  0  0  0  0  0  0
  -22.1559   -4.2206   21.1063 F   0  0  0  0  0  0  0  0  0  0  0  0
  -21.5628   -3.4510   25.7555 F   0  0  0  0  0  0  0  0  0  0  0  0
  -30.0261  -13.1803   20.4553 N   0  0  0  0  0  0  0  0  0  0  0  0
  -26.2911  -12.9356   20.3443 N   0  0  0  0  0  0  0  0  0  0  0  0
  -25.9236  -11.6675   20.5847 N   0  0  0  0  0  0  0  0  0  0  0  0
  -22.0708  -12.7905   22.0005 N   0  0  0  0  0  0  0  0  0  0  0  0
  -25.4117  -15.1773   20.4097 N   0  0  0  0  0  0  0  0  0  0  0  0
  -31.7916  -14.6724   20.0536 O   0  0  0  0  0  0  0  0  0  0  0  0
  -21.6670   -6.9022   21.4423 O   0  0  0  0  0  0  0  0  0  0  0  0
  -22.3946  -14.5564   20.6568 O   0  0  0  0  0  0  0  0  0  0  0  0
  -24.6048  -31.8614   23.2223 C   0  0  0  0  0  0  0  0  0  0  0  0
  -25.8822  -32.4841   23.8616 C   0  0  1  0  0  0  0  0  0  0  0  0
  -27.2536  -27.5042   20.1156 C   0  0  0  0  0  0  0  0  0  0  0  0
  -25.5726  -33.8762   24.2210 N   0  0  0  0  0  0  0  0  0  0  0  0
  -23.4066  -30.4859   21.5461 C   0  0  2  0  0  0  0  0  0  0  0  0
  -24.8467  -28.9636   20.1247 C   0  0  0  0  0  0  0  0  0  0  0  0
  -22.7412  -29.4652   22.5052 C   0  0  0  0  0  0  0  0  0  0  0  0
  -18.0167  -28.1302   22.8626 C   0  0  0  0  0  0  0  0  0  0  0  0
  -24.1342  -36.7390   23.2568 C   0  0  0  0  0  0  0  0  0  0  0  0
  -25.9141  -30.8882   21.3456 C   0  0  0  0  0  0  0  0  0  0  0  0
  -25.9930  -29.5029   20.7208 C   0  0  0  0  0  0  0  0  0  0  0  0
  -27.1758  -28.7612   20.7331 C   0  0  0  0  0  0  0  0  0  0  0  0
  -26.1032  -26.9836   19.5230 C   0  0  0  0  0  0  0  0  0  0  0  0
  -24.9097  -27.7011   19.5331 C   0  0  0  0  0  0  0  0  0  0  0  0
  -23.5715  -29.7899   20.1582 C   0  0  0  0  0  0  0  0  0  0  0  0
  -25.3990  -36.3212   24.0232 C   0  0  1  0  0  0  0  0  0  0  0  0
  -20.5793  -28.3813   23.1004 C   0  0  2  0  0  0  0  0  0  0  0  0
  -20.6548  -26.9392   22.5411 C   0  0  0  0  0  0  0  0  0  0  0  0
  -19.5615  -26.6407   21.5143 C   0  0  0  0  0  0  0  0  0  0  0  0
  -18.1797  -26.7818   22.1673 C   0  0  0  0  0  0  0  0  0  0  0  0
  -19.1385  -28.8769   23.2988 C   0  0  0  0  0  0  0  0  0  0  0  0
  -18.9183  -30.1286   23.8878 C   0  0  0  0  0  0  0  0  0  0  0  0
  -17.6396  -30.6493   24.0352 C   0  0  0  0  0  0  0  0  0  0  0  0
  -25.9153  -34.9582   23.4993 C   0  0  0  0  0  0  0  0  0  0  0  0
  -16.5415  -29.9068   23.6254 C   0  0  0  0  0  0  0  0  0  0  0  0
  -16.7331  -28.6521   23.0586 C   0  0  0  0  0  0  0  0  0  0  0  0
  -26.4583  -31.6439   25.0683 C   0  0  0  0  0  0  0  0  0  0  0  0
  -25.3807  -31.3179   26.1374 C   0  0  0  0  0  0  0  0  0  0  0  0
  -27.0530  -30.3024   24.5680 C   0  0  0  0  0  0  0  0  0  0  0  0
  -27.6014  -32.4281   25.7651 C   0  0  0  0  0  0  0  0  0  0  0  0
  -27.5629  -37.2220   24.8621 C   0  0  0  0  0  0  0  0  0  0  0  0
  -21.4133  -29.3375   22.3735 N   0  0  0  0  0  0  0  0  0  0  0  0
  -26.4706  -37.3372   23.9061 N   0  0  0  0  0  0  0  0  0  0  0  0
  -24.6674  -31.0544   22.1178 N   0  0  0  0  0  0  0  0  0  0  0  0
  -23.4259  -28.8150   23.2971 O   0  0  0  0  0  0  0  0  0  0  0  0
  -28.3948  -26.7345   20.0089 O   0  0  0  0  0  0  0  0  0  0  0  0
  -26.5870  -34.9065   22.4671 O   0  0  0  0  0  0  0  0  0  0  0  0
  -23.5365  -32.1254   23.7833 O   0  0  0  0  0  0  0  0  0  0  0  0
  -29.7692  -17.7283   22.7134 C   0  0  0  0  0  0  0  0  0  0  0  0
  -32.1902  -18.5647   21.9607 C   0  0  0  0  0  0  0  0  0  0  0  0
  -30.5681  -16.9540   21.9011 C   0  0  0  0  0  0  0  0  0  0  0  0
  -31.3911  -19.3395   22.7723 C   0  0  0  0  0  0  0  0  0  0  0  0
  -31.2153  -20.9755   25.4818 C   0  0  0  0  0  0  0  0  0  0  0  0
  -31.6918  -22.8909   23.9168 C   0  0  0  0  0  0  0  0  0  0  0  0
  -31.5712  -23.4545   22.5045 C   0  0  0  0  0  0  0  0  0  0  0  0
  -31.1293  -21.4715   24.0418 C   0  0  1  0  0  0  0  0  0  0  0  0
  -31.7930  -17.3581   21.5105 N   0  0  0  0  0  0  0  0  0  0  0  0
  -30.1663  -18.9351   23.1633 N   0  0  0  0  0  0  0  0  0  0  0  0
  -30.0762  -15.6974   21.4690 N   0  0  0  0  0  0  0  0  0  0  0  0
  -31.8732  -20.5669   23.1903 N   0  0  0  0  0  0  0  0  0  0  0  0
  -31.4485  -12.4701   19.0860 H   0  0  0  0  0  0  0  0  0  0  0  0
  -30.3970  -11.2460   19.6950 H   0  0  0  0  0  0  0  0  0  0  0  0
  -29.6870  -11.8204   17.4226 H   0  0  0  0  0  0  0  0  0  0  0  0
  -29.6375  -13.5326   17.8649 H   0  0  0  0  0  0  0  0  0  0  0  0
  -27.7830  -11.3650   18.7904 H   0  0  0  0  0  0  0  0  0  0  0  0
  -27.4028  -12.7801   17.8021 H   0  0  0  0  0  0  0  0  0  0  0  0
  -27.7353  -14.2503   19.6136 H   0  0  0  0  0  0  0  0  0  0  0  0
  -28.5890  -11.9550   21.3832 H   0  0  0  0  0  0  0  0  0  0  0  0
  -28.5005  -13.6134   21.8562 H   0  0  0  0  0  0  0  0  0  0  0  0
  -25.2399   -9.5495   22.4318 H   0  0  0  0  0  0  0  0  0  0  0  0
  -23.9663   -7.5070   22.7297 H   0  0  0  0  0  0  0  0  0  0  0  0
  -21.1515   -8.8641   19.9162 H   0  0  0  0  0  0  0  0  0  0  0  0
  -22.4016  -10.9115   19.6476 H   0  0  0  0  0  0  0  0  0  0  0  0
  -21.2319   -7.5552   23.9750 H   0  0  0  0  0  0  0  0  0  0  0  0
  -21.1589   -6.0228   25.8556 H   0  0  0  0  0  0  0  0  0  0  0  0
  -22.0396   -2.8212   23.2809 H   0  0  0  0  0  0  0  0  0  0  0  0
  -22.4401  -11.9703   22.4008 H   0  0  0  0  0  0  0  0  0  0  0  0
  -21.1493  -13.0679   22.2082 H   0  0  0  0  0  0  0  0  0  0  0  0
  -24.6538  -15.7807   20.5848 H   0  0  0  0  0  0  0  0  0  0  0  0
  -26.2762  -15.5453   20.1156 H   0  0  0  0  0  0  0  0  0  0  0  0
  -26.6778  -32.4663   23.1464 H   0  0  0  0  0  0  0  0  0  0  0  0
  -25.0747  -34.0282   25.0566 H   0  0  0  0  0  0  0  0  0  0  0  0
  -22.7881  -31.3489   21.4131 H   0  0  0  0  0  0  0  0  0  0  0  0
  -23.3854  -35.9823   23.3648 H   0  0  0  0  0  0  0  0  0  0  0  0
  -24.3696  -36.8624   22.2204 H   0  0  0  0  0  0  0  0  0  0  0  0
  -23.7669  -37.6632   23.6516 H   0  0  0  0  0  0  0  0  0  0  0  0
  -25.9445  -31.6237   20.5691 H   0  0  0  0  0  0  0  0  0  0  0  0
  -26.7436  -31.0079   22.0108 H   0  0  0  0  0  0  0  0  0  0  0  0
  -28.0090  -29.1452   21.2057 H   0  0  0  0  0  0  0  0  0  0  0  0
  -26.1369  -26.0560   19.0719 H   0  0  0  0  0  0  0  0  0  0  0  0
  -24.0652  -27.2961   19.0997 H   0  0  0  0  0  0  0  0  0  0  0  0
  -23.6156  -30.5365   19.3930 H   0  0  0  0  0  0  0  0  0  0  0  0
  -22.7355  -29.1425   19.9945 H   0  0  0  0  0  0  0  0  0  0  0  0
  -25.1353  -36.2335   25.0565 H   0  0  0  0  0  0  0  0  0  0  0  0
  -21.0070  -28.3206   24.0793 H   0  0  0  0  0  0  0  0  0  0  0  0
  -20.5555  -26.2518   23.3550 H   0  0  0  0  0  0  0  0  0  0  0  0
  -21.5974  -26.8362   22.0454 H   0  0  0  0  0  0  0  0  0  0  0  0
  -19.6810  -25.6422   21.1488 H   0  0  0  0  0  0  0  0  0  0  0  0
  -19.6406  -27.3343   20.7034 H   0  0  0  0  0  0  0  0  0  0  0  0
  -17.4282  -26.6888   21.4113 H   0  0  0  0  0  0  0  0  0  0  0  0
  -18.0803  -26.0130   22.9049 H   0  0  0  0  0  0  0  0  0  0  0  0
  -19.7265  -30.6774   24.2204 H   0  0  0  0  0  0  0  0  0  0  0  0
  -17.5064  -31.5856   24.4483 H   0  0  0  0  0  0  0  0  0  0  0  0
  -15.5878  -30.2839   23.7407 H   0  0  0  0  0  0  0  0  0  0  0  0
  -15.9120  -28.0941   22.7766 H   0  0  0  0  0  0  0  0  0  0  0  0
  -24.5787  -30.7757   25.6817 H   0  0  0  0  0  0  0  0  0  0  0  0
  -25.0041  -32.2289   26.5536 H   0  0  0  0  0  0  0  0  0  0  0  0
  -25.8166  -30.7245   26.9138 H   0  0  0  0  0  0  0  0  0  0  0  0
  -26.2892  -29.7335   24.0803 H   0  0  0  0  0  0  0  0  0  0  0  0
  -27.4336  -29.7484   25.4006 H   0  0  0  0  0  0  0  0  0  0  0  0
  -27.8466  -30.4994   23.8779 H   0  0  0  0  0  0  0  0  0  0  0  0
  -27.2251  -33.3632   26.1242 H   0  0  0  0  0  0  0  0  0  0  0  0
  -28.3902  -32.6065   25.0645 H   0  0  0  0  0  0  0  0  0  0  0  0
  -27.9772  -31.8555   26.5872 H   0  0  0  0  0  0  0  0  0  0  0  0
  -28.2744  -38.0016   24.6863 H   0  0  0  0  0  0  0  0  0  0  0  0
  -28.0396  -36.2711   24.7461 H   0  0  0  0  0  0  0  0  0  0  0  0
  -27.1773  -37.3087   25.8564 H   0  0  0  0  0  0  0  0  0  0  0  0
  -20.9627  -29.9365   21.7352 H   0  0  0  0  0  0  0  0  0  0  0  0
  -26.0447  -38.2561   24.0273 H   0  0  0  0  0  0  0  0  0  0  0  0
  -28.8390  -17.3738   22.9855 H   0  0  0  0  0  0  0  0  0  0  0  0
  -33.1208  -18.9188   21.6893 H   0  0  0  0  0  0  0  0  0  0  0  0
  -30.6684  -21.6374   26.1203 H   0  0  0  0  0  0  0  0  0  0  0  0
  -32.2398  -20.9489   25.7893 H   0  0  0  0  0  0  0  0  0  0  0  0
  -30.7980  -19.9923   25.5459 H   0  0  0  0  0  0  0  0  0  0  0  0
  -31.1562  -23.5307   24.5867 H   0  0  0  0  0  0  0  0  0  0  0  0
  -32.7335  -22.8459   24.1569 H   0  0  0  0  0  0  0  0  0  0  0  0
  -31.4983  -22.5681   21.9097 H   0  0  0  0  0  0  0  0  0  0  0  0
  -32.3414  -24.1837   22.6454 H   0  0  0  0  0  0  0  0  0  0  0  0
  -30.1027  -21.4970   23.7413 H   0  0  0  0  0  0  0  0  0  0  0  0
  -29.1238  -15.5664   21.6810 H   0  0  0  0  0  0  0  0  0  0  0  0
  -32.7709  -20.8403   22.8927 H   0  0  0  0  0  0  0  0  0  0  0  0
  1 25  1  0  0  0  0
  1 30  2  0  0  0  0
  1 81  1  0  0  0  0
  2  3  1  0  0  0  0
  2 25  1  0  0  0  0
  2 83  1  0  0  0  0
  2 84  1  0  0  0  0
  3  4  1  0  0  0  0
  3 85  1  0  0  0  0
  3 86  1  0  0  0  0
  4  5  1  0  0  0  0
  4 87  1  0  0  0  0
  4 88  1  0  0  0  0
  5  6  1  0  0  0  0
  5 26  1  0  0  0  0
  5 89  1  6  0  0  0
  6 25  1  0  0  0  0
  6 90  1  0  0  0  0
  6 91  1  0  0  0  0
  7  8  2  0  0  0  0
  7 26  1  0  0  0  0
  7 29  1  0  0  0  0
  8  9  1  0  0  0  0
  8 22  1  0  0  0  0
  9 10  1  0  0  0  0
  9 27  2  0  0  0  0
 10 11  2  0  0  0  0
 10 15  1  0  0  0  0
 11 12  1  0  0  0  0
 11 92  1  0  0  0  0
 12 13  2  0  0  0  0
 12 93  1  0  0  0  0
 13 14  1  0  0  0  0
 13 31  1  0  0  0  0
 14 15  2  0  0  0  0
 14 94  1  0  0  0  0
 15 95  1  0  0  0  0
 16 17  2  0  0  0  0
 16 21  1  0  0  0  0
 16 31  1  0  0  0  0
 17 18  1  0  0  0  0
 17 96  1  0  0  0  0
 18 19  2  0  0  0  0
 18 97  1  0  0  0  0
 19 20  1  0  0  0  0
 19 24  1  0  0  0  0
 20 21  2  0  0  0  0
 20 98  1  0  0  0  0
 21 23  1  0  0  0  0
 22 28  1  0  0  0  0
 22 32  2  0  0  0  0
 26 27  1  0  0  0  0
 28 99  1  0  0  0  0
 28100  1  0  0  0  0
 29101  1  0  0  0  0
 29102  1  0  0  0  0
 33 34  1  0  0  0  0
 33 66  1  0  0  0  0
 33 70  2  0  0  0  0
 34 36  1  0  0  0  0
 34 59  1  0  0  0  0
 34103  1  6  0  0  0
 35 44  2  0  0  0  0
 35 45  1  0  0  0  0
 35 68  1  0  0  0  0
 36 56  1  0  0  0  0
 36104  1  0  0  0  0
 37 39  1  0  0  0  0
 37 47  1  0  0  0  0
 37 66  1  0  0  0  0
 37105  1  6  0  0  0
 38 43  2  0  0  0  0
 38 46  1  0  0  0  0
 38 47  1  0  0  0  0
 39 64  1  0  0  0  0
 39 67  2  0  0  0  0
 40 52  1  0  0  0  0
 40 53  2  0  0  0  0
 40 58  1  0  0  0  0
 41106  1  0  0  0  0
 41107  1  0  0  0  0
 41108  1  0  0  0  0
 42 43  1  0  0  0  0
 42 66  1  0  0  0  0
 42109  1  0  0  0  0
 42110  1  0  0  0  0
 43 44  1  0  0  0  0
 44111  1  0  0  0  0
 45 46  2  0  0  0  0
 45112  1  0  0  0  0
 46113  1  0  0  0  0
 47114  1  0  0  0  0
 47115  1  0  0  0  0
 48 41  1  0  0  0  0
 48 56  1  0  0  0  0
 48 65  1  0  0  0  0
 48116  1  1  0  0  0
 49 50  1  0  0  0  0
 49 53  1  0  0  0  0
 49 64  1  0  0  0  0
 49117  1  1  0  0  0
 50 51  1  0  0  0  0
 50118  1  0  0  0  0
 50119  1  0  0  0  0
 51 52  1  0  0  0  0
 51120  1  0  0  0  0
 51121  1  0  0  0  0
 52122  1  0  0  0  0
 52123  1  0  0  0  0
 53 54  1  0  0  0  0
 54 55  2  0  0  0  0
 54124  1  0  0  0  0
 55 57  1  0  0  0  0
 55125  1  0  0  0  0
 56 69  2  0  0  0  0
 57 58  2  0  0  0  0
 57126  1  0  0  0  0
 58127  1  0  0  0  0
 59 60  1  0  0  0  0
 59 61  1  0  0  0  0
 59 62  1  0  0  0  0
 60128  1  0  0  0  0
 60129  1  0  0  0  0
 60130  1  0  0  0  0
 61131  1  0  0  0  0
 61132  1  0  0  0  0
 61133  1  0  0  0  0
 62134  1  0  0  0  0
 62135  1  0  0  0  0
 62136  1  0  0  0  0
 63 65  1  0  0  0  0
 63137  1  0  0  0  0
 63138  1  0  0  0  0
 63139  1  0  0  0  0
 64140  1  0  0  0  0
 65141  1  0  0  0  0
 68 77  1  0  0  0  0
 71 73  2  0  0  0  0
 71 80  1  0  0  0  0
 71142  1  0  0  0  0
 72 74  1  0  0  0  0
 72 79  2  0  0  0  0
 72143  1  0  0  0  0
 73 79  1  0  0  0  0
 73 81  1  0  0  0  0
 74 80  2  0  0  0  0
 74 82  1  0  0  0  0
 75144  1  0  0  0  0
 75145  1  0  0  0  0
 75146  1  0  0  0  0
 76 77  1  0  0  0  0
 76 78  1  0  0  0  0
 76147  1  0  0  0  0
 76148  1  0  0  0  0
 77149  1  0  0  0  0
 77150  1  0  0  0  0
 78 75  1  0  0  0  0
 78 82  1  0  0  0  0
 78151  1  6  0  0  0
 81152  1  0  0  0  0
 82153  1  0  0  0  0
M  ISO  4   1 100  68 101  77 101  81 100
M  END
$$$$
75
 OpenBabel04052305473D

153161  0  0  0  0  0  0  0  0999 V2000
  -30.7652  -14.3608   20.6636 C   0  0  0  0  0  0  0  0  0  0  0  0
  -30.4392  -12.2669   19.3775 C   0  0  0  0  0  0  0  0  0  0  0  0
  -29.4791  -12.5281   18.1977 C   0  0  0  0  0  0  0  0  0  0  0  0
  -27.9985  -12.3963   18.6038 C   0  0  0  0  0  0  0  0  0  0  0  0
  -27.6639  -13.2170   19.8820 C   0  0  2  0  0  0  0  0  0  0  0  0
  -28.6795  -12.9602   21.0279 C   0  0  0  0  0  0  0  0  0  0  0  0
  -25.2633  -13.8245   20.5754 C   0  0  0  0  0  0  0  0  0  0  0  0
  -24.1645  -13.0409   20.9408 C   0  0  0  0  0  0  0  0  0  0  0  0
  -24.6400  -11.7009   20.8697 C   0  0  0  0  0  0  0  0  0  0  0  0
  -23.9005  -10.4085   21.0420 C   0  0  0  0  0  0  0  0  0  0  0  0
  -24.3588   -9.4123   21.9123 C   0  0  0  0  0  0  0  0  0  0  0  0
  -23.6296   -8.2350   22.0803 C   0  0  0  0  0  0  0  0  0  0  0  0
  -22.4385   -8.0419   21.3657 C   0  0  0  0  0  0  0  0  0  0  0  0
  -22.0103   -9.0167   20.4678 C   0  0  0  0  0  0  0  0  0  0  0  0
  -22.7317  -10.1925   20.3102 C   0  0  0  0  0  0  0  0  0  0  0  0
  -21.6857   -6.0709   22.5391 C   0  0  0  0  0  0  0  0  0  0  0  0
  -21.4064   -6.5490   23.8264 C   0  0  0  0  0  0  0  0  0  0  0  0
  -21.3635   -5.6677   24.9085 C   0  0  0  0  0  0  0  0  0  0  0  0
  -21.5973   -4.3067   24.7088 C   0  0  0  0  0  0  0  0  0  0  0  0
  -21.8700   -3.8284   23.4282 C   0  0  0  0  0  0  0  0  0  0  0  0
  -21.9144   -4.7056   22.3460 C   0  0  0  0  0  0  0  0  0  0  0  0
  -22.8194  -13.5263   21.1763 C   0  0  0  0  0  0  0  0  0  0  0  0
  -22.1559   -4.2206   21.1063 F   0  0  0  0  0  0  0  0  0  0  0  0
  -21.5628   -3.4510   25.7555 F   0  0  0  0  0  0  0  0  0  0  0  0
  -30.0261  -13.1803   20.4553 N   0  0  0  0  0  0  0  0  0  0  0  0
  -26.2911  -12.9356   20.3443 N   0  0  0  0  0  0  0  0  0  0  0  0
  -25.9236  -11.6675   20.5847 N   0  0  0  0  0  0  0  0  0  0  0  0
  -22.0708  -12.7905   22.0005 N   0  0  0  0  0  0  0  0  0  0  0  0
  -25.4117  -15.1773   20.4097 N   0  0  0  0  0  0  0  0  0  0  0  0
  -31.7916  -14.6724   20.0536 O   0  0  0  0  0  0  0  0  0  0  0  0
  -21.6670   -6.9022   21.4423 O   0  0  0  0  0  0  0  0  0  0  0  0
  -22.3946  -14.5564   20.6568 O   0  0  0  0  0  0  0  0  0  0  0  0
  -24.6048  -31.8614   23.2223 C   0  0  0  0  0  0  0  0  0  0  0  0
  -25.8822  -32.4841   23.8616 C   0  0  1  0  0  0  0  0  0  0  0  0
  -27.2536  -27.5042   20.1156 C   0  0  0  0  0  0  0  0  0  0  0  0
  -25.5726  -33.8762   24.2210 N   0  0  0  0  0  0  0  0  0  0  0  0
  -23.4066  -30.4859   21.5461 C   0  0  2  0  0  0  0  0  0  0  0  0
  -24.8467  -28.9636   20.1247 C   0  0  0  0  0  0  0  0  0  0  0  0
  -22.7412  -29.4652   22.5052 C   0  0  0  0  0  0  0  0  0  0  0  0
  -18.0167  -28.1302   22.8626 C   0  0  0  0  0  0  0  0  0  0  0  0
  -24.1342  -36.7390   23.2568 C   0  0  0  0  0  0  0  0  0  0  0  0
  -25.9141  -30.8882   21.3456 C   0  0  0  0  0  0  0  0  0  0  0  0
  -25.9930  -29.5029   20.7208 C   0  0  0  0  0  0  0  0  0  0  0  0
  -27.1758  -28.7612   20.7331 C   0  0  0  0  0  0  0  0  0  0  0  0
  -26.1032  -26.9836   19.5230 C   0  0  0  0  0  0  0  0  0  0  0  0
  -24.9097  -27.7011   19.5331 C   0  0  0  0  0  0  0  0  0  0  0  0
  -23.5715  -29.7899   20.1582 C   0  0  0  0  0  0  0  0  0  0  0  0
  -25.3990  -36.3212   24.0232 C   0  0  1  0  0  0  0  0  0  0  0  0
  -20.5793  -28.3813   23.1004 C   0  0  2  0  0  0  0  0  0  0  0  0
  -20.6548  -26.9392   22.5411 C   0  0  0  0  0  0  0  0  0  0  0  0
  -19.5615  -26.6407   21.5143 C   0  0  0  0  0  0  0  0  0  0  0  0
  -18.1797  -26.7818   22.1673 C   0  0  0  0  0  0  0  0  0  0  0  0
  -19.1385  -28.8769   23.2988 C   0  0  0  0  0  0  0  0  0  0  0  0
  -18.9183  -30.1286   23.8878 C   0  0  0  0  0  0  0  0  0  0  0  0
  -17.6396  -30.6493   24.0352 C   0  0  0  0  0  0  0  0  0  0  0  0
  -25.9153  -34.9582   23.4993 C   0  0  0  0  0  0  0  0  0  0  0  0
  -16.5415  -29.9068   23.6254 C   0  0  0  0  0  0  0  0  0  0  0  0
  -16.7331  -28.6521   23.0586 C   0  0  0  0  0  0  0  0  0  0  0  0
  -26.4583  -31.6439   25.0683 C   0  0  0  0  0  0  0  0  0  0  0  0
  -25.3807  -31.3179   26.1374 C   0  0  0  0  0  0  0  0  0  0  0  0
  -27.0530  -30.3024   24.5680 C   0  0  0  0  0  0  0  0  0  0  0  0
  -27.6014  -32.4281   25.7651 C   0  0  0  0  0  0  0  0  0  0  0  0
  -27.5629  -37.2220   24.8621 C   0  0  0  0  0  0  0  0  0  0  0  0
  -21.4133  -29.3375   22.3735 N   0  0  0  0  0  0  0  0  0  0  0  0
  -26.4706  -37.3372   23.9061 N   0  0  0  0  0  0  0  0  0  0  0  0
  -24.6674  -31.0544   22.1178 N   0  0  0  0  0  0  0  0  0  0  0  0
  -23.4259  -28.8150   23.2971 O   0  0  0  0  0  0  0  0  0  0  0  0
  -28.3948  -26.7345   20.0089 O   0  0  0  0  0  0  0  0  0  0  0  0
  -26.5870  -34.9065   22.4671 O   0  0  0  0  0  0  0  0  0  0  0  0
  -23.5365  -32.1254   23.7833 O   0  0  0  0  0  0  0  0  0  0  0  0
  -31.2131  -20.9334   16.5170 C   0  0  0  0  0  0  0  0  0  0  0  0
  -31.4687  -22.2645   16.7762 C   0  0  0  0  0  0  0  0  0  0  0  0
  -30.6349  -22.8641   17.6978 C   0  0  0  0  0  0  0  0  0  0  0  0
  -29.4789  -20.9283   17.9865 C   0  0  0  0  0  0  0  0  0  0  0  0
  -29.8346  -25.0489   18.5987 C   0  0  0  0  0  0  0  0  0  0  0  0
  -29.2489  -27.4759   18.9263 C   0  0  0  0  0  0  0  0  0  0  0  0
  -30.3801  -26.4650   18.7725 C   0  0  1  0  0  0  0  0  0  0  0  0
  -30.2228  -20.2317   17.1062 N   0  0  0  0  0  0  0  0  0  0  0  0
  -29.6262  -22.2235   18.3243 N   0  0  0  0  0  0  0  0  0  0  0  0
  -32.5144  -22.9381   16.1313 N   0  0  0  0  0  0  0  0  0  0  0  0
  -30.8403  -24.1993   18.0013 N   0  0  0  0  0  0  0  0  0  0  0  0
  -28.4288  -20.2230   18.6250 N   0  0  0  0  0  0  0  0  0  0  0  0
  -31.1743  -26.5174   19.9594 O   0  0  0  0  0  0  0  0  0  0  0  0
  -31.4485  -12.4701   19.0860 H   0  0  0  0  0  0  0  0  0  0  0  0
  -30.3970  -11.2460   19.6950 H   0  0  0  0  0  0  0  0  0  0  0  0
  -29.6870  -11.8204   17.4226 H   0  0  0  0  0  0  0  0  0  0  0  0
  -29.6375  -13.5326   17.8649 H   0  0  0  0  0  0  0  0  0  0  0  0
  -27.7830  -11.3650   18.7904 H   0  0  0  0  0  0  0  0  0  0  0  0
  -27.4028  -12.7801   17.8021 H   0  0  0  0  0  0  0  0  0  0  0  0
  -27.7353  -14.2503   19.6136 H   0  0  0  0  0  0  0  0  0  0  0  0
  -28.5890  -11.9550   21.3832 H   0  0  0  0  0  0  0  0  0  0  0  0
  -28.5005  -13.6134   21.8562 H   0  0  0  0  0  0  0  0  0  0  0  0
  -25.2399   -9.5495   22.4318 H   0  0  0  0  0  0  0  0  0  0  0  0
  -23.9663   -7.5070   22.7297 H   0  0  0  0  0  0  0  0  0  0  0  0
  -21.1515   -8.8641   19.9162 H   0  0  0  0  0  0  0  0  0  0  0  0
  -22.4016  -10.9115   19.6476 H   0  0  0  0  0  0  0  0  0  0  0  0
  -21.2319   -7.5552   23.9750 H   0  0  0  0  0  0  0  0  0  0  0  0
  -21.1589   -6.0228   25.8556 H   0  0  0  0  0  0  0  0  0  0  0  0
  -22.0396   -2.8212   23.2809 H   0  0  0  0  0  0  0  0  0  0  0  0
  -22.4401  -11.9703   22.4008 H   0  0  0  0  0  0  0  0  0  0  0  0
  -21.1493  -13.0679   22.2082 H   0  0  0  0  0  0  0  0  0  0  0  0
  -24.6538  -15.7807   20.5848 H   0  0  0  0  0  0  0  0  0  0  0  0
  -26.2762  -15.5453   20.1156 H   0  0  0  0  0  0  0  0  0  0  0  0
  -26.6778  -32.4663   23.1464 H   0  0  0  0  0  0  0  0  0  0  0  0
  -25.0747  -34.0282   25.0566 H   0  0  0  0  0  0  0  0  0  0  0  0
  -22.7881  -31.3489   21.4131 H   0  0  0  0  0  0  0  0  0  0  0  0
  -23.3854  -35.9823   23.3648 H   0  0  0  0  0  0  0  0  0  0  0  0
  -24.3696  -36.8624   22.2204 H   0  0  0  0  0  0  0  0  0  0  0  0
  -23.7669  -37.6632   23.6516 H   0  0  0  0  0  0  0  0  0  0  0  0
  -25.9445  -31.6237   20.5691 H   0  0  0  0  0  0  0  0  0  0  0  0
  -26.7436  -31.0079   22.0108 H   0  0  0  0  0  0  0  0  0  0  0  0
  -28.0090  -29.1452   21.2057 H   0  0  0  0  0  0  0  0  0  0  0  0
  -26.1369  -26.0560   19.0719 H   0  0  0  0  0  0  0  0  0  0  0  0
  -24.0652  -27.2961   19.0997 H   0  0  0  0  0  0  0  0  0  0  0  0
  -23.6156  -30.5365   19.3930 H   0  0  0  0  0  0  0  0  0  0  0  0
  -22.7355  -29.1425   19.9945 H   0  0  0  0  0  0  0  0  0  0  0  0
  -25.1353  -36.2335   25.0565 H   0  0  0  0  0  0  0  0  0  0  0  0
  -21.0070  -28.3206   24.0793 H   0  0  0  0  0  0  0  0  0  0  0  0
  -20.5555  -26.2518   23.3550 H   0  0  0  0  0  0  0  0  0  0  0  0
  -21.5974  -26.8362   22.0454 H   0  0  0  0  0  0  0  0  0  0  0  0
  -19.6810  -25.6422   21.1488 H   0  0  0  0  0  0  0  0  0  0  0  0
  -19.6406  -27.3343   20.7034 H   0  0  0  0  0  0  0  0  0  0  0  0
  -17.4282  -26.6888   21.4113 H   0  0  0  0  0  0  0  0  0  0  0  0
  -18.0803  -26.0130   22.9049 H   0  0  0  0  0  0  0  0  0  0  0  0
  -19.7265  -30.6774   24.2204 H   0  0  0  0  0  0  0  0  0  0  0  0
  -17.5064  -31.5856   24.4483 H   0  0  0  0  0  0  0  0  0  0  0  0
  -15.5878  -30.2839   23.7407 H   0  0  0  0  0  0  0  0  0  0  0  0
  -15.9120  -28.0941   22.7766 H   0  0  0  0  0  0  0  0  0  0  0  0
  -24.5787  -30.7757   25.6817 H   0  0  0  0  0  0  0  0  0  0  0  0
  -25.0041  -32.2289   26.5536 H   0  0  0  0  0  0  0  0  0  0  0  0
  -25.8166  -30.7245   26.9138 H   0  0  0  0  0  0  0  0  0  0  0  0
  -26.2892  -29.7335   24.0803 H   0  0  0  0  0  0  0  0  0  0  0  0
  -27.4336  -29.7484   25.4006 H   0  0  0  0  0  0  0  0  0  0  0  0
  -27.8466  -30.4994   23.8779 H   0  0  0  0  0  0  0  0  0  0  0  0
  -27.2251  -33.3632   26.1242 H   0  0  0  0  0  0  0  0  0  0  0  0
  -28.3902  -32.6065   25.0645 H   0  0  0  0  0  0  0  0  0  0  0  0
  -27.9772  -31.8555   26.5872 H   0  0  0  0  0  0  0  0  0  0  0  0
  -28.2744  -38.0016   24.6863 H   0  0  0  0  0  0  0  0  0  0  0  0
  -28.0396  -36.2711   24.7461 H   0  0  0  0  0  0  0  0  0  0  0  0
  -27.1773  -37.3087   25.8564 H   0  0  0  0  0  0  0  0  0  0  0  0
  -20.9627  -29.9365   21.7352 H   0  0  0  0  0  0  0  0  0  0  0  0
  -26.0447  -38.2561   24.0273 H   0  0  0  0  0  0  0  0  0  0  0  0
  -31.8138  -20.4468   15.8333 H   0  0  0  0  0  0  0  0  0  0  0  0
  -28.9729  -25.0768   17.9650 H   0  0  0  0  0  0  0  0  0  0  0  0
  -29.5685  -24.6558   19.5576 H   0  0  0  0  0  0  0  0  0  0  0  0
  -28.7073  -27.6124   18.0137 H   0  0  0  0  0  0  0  0  0  0  0  0
  -29.5538  -28.4685   19.1844 H   0  0  0  0  0  0  0  0  0  0  0  0
  -30.9569  -26.7066   17.9043 H   0  0  0  0  0  0  0  0  0  0  0  0
  -33.0799  -22.4618   15.4813 H   0  0  0  0  0  0  0  0  0  0  0  0
  -32.6837  -23.8877   16.3282 H   0  0  0  0  0  0  0  0  0  0  0  0
  -31.7201  -24.5920   17.7990 H   0  0  0  0  0  0  0  0  0  0  0  0
  -27.5075  -20.5484   18.7457 H   0  0  0  0  0  0  0  0  0  0  0  0
  -30.6243  -26.2942   20.7266 H   0  0  0  0  0  0  0  0  0  0  0  0
  1 25  1  0  0  0  0
  1 30  2  0  0  0  0
  1 82  1  0  0  0  0
  2  3  1  0  0  0  0
  2 25  1  0  0  0  0
  2 84  1  0  0  0  0
  2 85  1  0  0  0  0
  3  4  1  0  0  0  0
  3 86  1  0  0  0  0
  3 87  1  0  0  0  0
  4  5  1  0  0  0  0
  4 88  1  0  0  0  0
  4 89  1  0  0  0  0
  5  6  1  0  0  0  0
  5 26  1  0  0  0  0
  5 90  1  6  0  0  0
  6 25  1  0  0  0  0
  6 91  1  0  0  0  0
  6 92  1  0  0  0  0
  7  8  2  0  0  0  0
  7 26  1  0  0  0  0
  7 29  1  0  0  0  0
  8  9  1  0  0  0  0
  8 22  1  0  0  0  0
  9 10  1  0  0  0  0
  9 27  2  0  0  0  0
 10 11  2  0  0  0  0
 10 15  1  0  0  0  0
 11 12  1  0  0  0  0
 11 93  1  0  0  0  0
 12 13  2  0  0  0  0
 12 94  1  0  0  0  0
 13 14  1  0  0  0  0
 13 31  1  0  0  0  0
 14 15  2  0  0  0  0
 14 95  1  0  0  0  0
 15 96  1  0  0  0  0
 16 17  2  0  0  0  0
 16 21  1  0  0  0  0
 16 31  1  0  0  0  0
 17 18  1  0  0  0  0
 17 97  1  0  0  0  0
 18 19  2  0  0  0  0
 18 98  1  0  0  0  0
 19 20  1  0  0  0  0
 19 24  1  0  0  0  0
 20 21  2  0  0  0  0
 20 99  1  0  0  0  0
 21 23  1  0  0  0  0
 22 28  1  0  0  0  0
 22 32  2  0  0  0  0
 26 27  1  0  0  0  0
 28100  1  0  0  0  0
 28101  1  0  0  0  0
 29102  1  0  0  0  0
 29103  1  0  0  0  0
 33 34  1  0  0  0  0
 33 66  1  0  0  0  0
 33 70  2  0  0  0  0
 34 36  1  0  0  0  0
 34 59  1  0  0  0  0
 34104  1  6  0  0  0
 35 44  2  0  0  0  0
 35 45  1  0  0  0  0
 35 68  1  0  0  0  0
 36 56  1  0  0  0  0
 36105  1  0  0  0  0
 37 39  1  0  0  0  0
 37 47  1  0  0  0  0
 37 66  1  0  0  0  0
 37106  1  6  0  0  0
 38 43  2  0  0  0  0
 38 46  1  0  0  0  0
 38 47  1  0  0  0  0
 39 64  1  0  0  0  0
 39 67  2  0  0  0  0
 40 52  1  0  0  0  0
 40 53  2  0  0  0  0
 40 58  1  0  0  0  0
 41107  1  0  0  0  0
 41108  1  0  0  0  0
 41109  1  0  0  0  0
 42 43  1  0  0  0  0
 42 66  1  0  0  0  0
 42110  1  0  0  0  0
 42111  1  0  0  0  0
 43 44  1  0  0  0  0
 44112  1  0  0  0  0
 45 46  2  0  0  0  0
 45113  1  0  0  0  0
 46114  1  0  0  0  0
 47115  1  0  0  0  0
 47116  1  0  0  0  0
 48 41  1  0  0  0  0
 48 56  1  0  0  0  0
 48 65  1  0  0  0  0
 48117  1  1  0  0  0
 49 50  1  0  0  0  0
 49 53  1  0  0  0  0
 49 64  1  0  0  0  0
 49118  1  1  0  0  0
 50 51  1  0  0  0  0
 50119  1  0  0  0  0
 50120  1  0  0  0  0
 51 52  1  0  0  0  0
 51121  1  0  0  0  0
 51122  1  0  0  0  0
 52123  1  0  0  0  0
 52124  1  0  0  0  0
 53 54  1  0  0  0  0
 54 55  2  0  0  0  0
 54125  1  0  0  0  0
 55 57  1  0  0  0  0
 55126  1  0  0  0  0
 56 69  2  0  0  0  0
 57 58  2  0  0  0  0
 57127  1  0  0  0  0
 58128  1  0  0  0  0
 59 60  1  0  0  0  0
 59 61  1  0  0  0  0
 59 62  1  0  0  0  0
 60129  1  0  0  0  0
 60130  1  0  0  0  0
 60131  1  0  0  0  0
 61132  1  0  0  0  0
 61133  1  0  0  0  0
 61134  1  0  0  0  0
 62135  1  0  0  0  0
 62136  1  0  0  0  0
 62137  1  0  0  0  0
 63 65  1  0  0  0  0
 63138  1  0  0  0  0
 63139  1  0  0  0  0
 63140  1  0  0  0  0
 64141  1  0  0  0  0
 65142  1  0  0  0  0
 68 76  1  0  0  0  0
 71 72  2  0  0  0  0
 71 78  1  0  0  0  0
 71143  1  0  0  0  0
 72 73  1  0  0  0  0
 72 80  1  0  0  0  0
 73 79  2  0  0  0  0
 73 81  1  0  0  0  0
 74 78  2  0  0  0  0
 74 79  1  0  0  0  0
 74 82  1  0  0  0  0
 75 77  1  0  0  0  0
 75 81  1  0  0  0  0
 75144  1  0  0  0  0
 75145  1  0  0  0  0
 76 77  1  0  0  0  0
 76146  1  0  0  0  0
 76147  1  0  0  0  0
 77 83  1  0  0  0  0
 77148  1  6  0  0  0
 80149  1  0  0  0  0
 80150  1  0  0  0  0
 81151  1  0  0  0  0
 82152  1  0  0  0  0
 83153  1  0  0  0  0
M  ISO  4   1 100  68 101  76 101  82 100
M  END
$$$$
76
 OpenBabel04052305473D

157165  0  0  0  0  0  0  0  0999 V2000
  -30.7652  -14.3608   20.6636 C   0  0  0  0  0  0  0  0  0  0  0  0
  -30.4392  -12.2669   19.3775 C   0  0  0  0  0  0  0  0  0  0  0  0
  -29.4791  -12.5281   18.1977 C   0  0  0  0  0  0  0  0  0  0  0  0
  -27.9985  -12.3963   18.6038 C   0  0  0  0  0  0  0  0  0  0  0  0
  -27.6639  -13.2170   19.8820 C   0  0  2  0  0  0  0  0  0  0  0  0
  -28.6795  -12.9602   21.0279 C   0  0  0  0  0  0  0  0  0  0  0  0
  -25.2633  -13.8245   20.5754 C   0  0  0  0  0  0  0  0  0  0  0  0
  -24.1645  -13.0409   20.9408 C   0  0  0  0  0  0  0  0  0  0  0  0
  -24.6400  -11.7009   20.8697 C   0  0  0  0  0  0  0  0  0  0  0  0
  -23.9005  -10.4085   21.0420 C   0  0  0  0  0  0  0  0  0  0  0  0
  -24.3588   -9.4123   21.9123 C   0  0  0  0  0  0  0  0  0  0  0  0
  -23.6296   -8.2350   22.0803 C   0  0  0  0  0  0  0  0  0  0  0  0
  -22.4385   -8.0419   21.3657 C   0  0  0  0  0  0  0  0  0  0  0  0
  -22.0103   -9.0167   20.4678 C   0  0  0  0  0  0  0  0  0  0  0  0
  -22.7317  -10.1925   20.3102 C   0  0  0  0  0  0  0  0  0  0  0  0
  -21.6857   -6.0709   22.5391 C   0  0  0  0  0  0  0  0  0  0  0  0
  -21.4064   -6.5490   23.8264 C   0  0  0  0  0  0  0  0  0  0  0  0
  -21.3635   -5.6677   24.9085 C   0  0  0  0  0  0  0  0  0  0  0  0
  -21.5973   -4.3067   24.7088 C   0  0  0  0  0  0  0  0  0  0  0  0
  -21.8700   -3.8284   23.4282 C   0  0  0  0  0  0  0  0  0  0  0  0
  -21.9144   -4.7056   22.3460 C   0  0  0  0  0  0  0  0  0  0  0  0
  -22.8194  -13.5263   21.1763 C   0  0  0  0  0  0  0  0  0  0  0  0
  -22.1559   -4.2206   21.1063 F   0  0  0  0  0  0  0  0  0  0  0  0
  -21.5628   -3.4510   25.7555 F   0  0  0  0  0  0  0  0  0  0  0  0
  -30.0261  -13.1803   20.4553 N   0  0  0  0  0  0  0  0  0  0  0  0
  -26.2911  -12.9356   20.3443 N   0  0  0  0  0  0  0  0  0  0  0  0
  -25.9236  -11.6675   20.5847 N   0  0  0  0  0  0  0  0  0  0  0  0
  -22.0708  -12.7905   22.0005 N   0  0  0  0  0  0  0  0  0  0  0  0
  -25.4117  -15.1773   20.4097 N   0  0  0  0  0  0  0  0  0  0  0  0
  -31.7916  -14.6724   20.0536 O   0  0  0  0  0  0  0  0  0  0  0  0
  -21.6670   -6.9022   21.4423 O   0  0  0  0  0  0  0  0  0  0  0  0
  -22.3946  -14.5564   20.6568 O   0  0  0  0  0  0  0  0  0  0  0  0
  -24.6048  -31.8614   23.2223 C   0  0  0  0  0  0  0  0  0  0  0  0
  -25.8822  -32.4841   23.8616 C   0  0  1  0  0  0  0  0  0  0  0  0
  -27.2536  -27.5042   20.1156 C   0  0  0  0  0  0  0  0  0  0  0  0
  -25.5726  -33.8762   24.2210 N   0  0  0  0  0  0  0  0  0  0  0  0
  -23.4066  -30.4859   21.5461 C   0  0  2  0  0  0  0  0  0  0  0  0
  -24.8467  -28.9636   20.1247 C   0  0  0  0  0  0  0  0  0  0  0  0
  -22.7412  -29.4652   22.5052 C   0  0  0  0  0  0  0  0  0  0  0  0
  -18.0167  -28.1302   22.8626 C   0  0  0  0  0  0  0  0  0  0  0  0
  -24.1342  -36.7390   23.2568 C   0  0  0  0  0  0  0  0  0  0  0  0
  -25.9141  -30.8882   21.3456 C   0  0  0  0  0  0  0  0  0  0  0  0
  -25.9930  -29.5029   20.7208 C   0  0  0  0  0  0  0  0  0  0  0  0
  -27.1758  -28.7612   20.7331 C   0  0  0  0  0  0  0  0  0  0  0  0
  -26.1032  -26.9836   19.5230 C   0  0  0  0  0  0  0  0  0  0  0  0
  -24.9097  -27.7011   19.5331 C   0  0  0  0  0  0  0  0  0  0  0  0
  -23.5715  -29.7899   20.1582 C   0  0  0  0  0  0  0  0  0  0  0  0
  -25.3990  -36.3212   24.0232 C   0  0  1  0  0  0  0  0  0  0  0  0
  -20.5793  -28.3813   23.1004 C   0  0  2  0  0  0  0  0  0  0  0  0
  -20.6548  -26.9392   22.5411 C   0  0  0  0  0  0  0  0  0  0  0  0
  -19.5615  -26.6407   21.5143 C   0  0  0  0  0  0  0  0  0  0  0  0
  -18.1797  -26.7818   22.1673 C   0  0  0  0  0  0  0  0  0  0  0  0
  -19.1385  -28.8769   23.2988 C   0  0  0  0  0  0  0  0  0  0  0  0
  -18.9183  -30.1286   23.8878 C   0  0  0  0  0  0  0  0  0  0  0  0
  -17.6396  -30.6493   24.0352 C   0  0  0  0  0  0  0  0  0  0  0  0
  -25.9153  -34.9582   23.4993 C   0  0  0  0  0  0  0  0  0  0  0  0
  -16.5415  -29.9068   23.6254 C   0  0  0  0  0  0  0  0  0  0  0  0
  -16.7331  -28.6521   23.0586 C   0  0  0  0  0  0  0  0  0  0  0  0
  -26.4583  -31.6439   25.0683 C   0  0  0  0  0  0  0  0  0  0  0  0
  -25.3807  -31.3179   26.1374 C   0  0  0  0  0  0  0  0  0  0  0  0
  -27.0530  -30.3024   24.5680 C   0  0  0  0  0  0  0  0  0  0  0  0
  -27.6014  -32.4281   25.7651 C   0  0  0  0  0  0  0  0  0  0  0  0
  -27.5629  -37.2220   24.8621 C   0  0  0  0  0  0  0  0  0  0  0  0
  -21.4133  -29.3375   22.3735 N   0  0  0  0  0  0  0  0  0  0  0  0
  -26.4706  -37.3372   23.9061 N   0  0  0  0  0  0  0  0  0  0  0  0
  -24.6674  -31.0544   22.1178 N   0  0  0  0  0  0  0  0  0  0  0  0
  -23.4259  -28.8150   23.2971 O   0  0  0  0  0  0  0  0  0  0  0  0
  -28.3948  -26.7345   20.0089 O   0  0  0  0  0  0  0  0  0  0  0  0
  -26.5870  -34.9065   22.4671 O   0  0  0  0  0  0  0  0  0  0  0  0
  -23.5365  -32.1254   23.7833 O   0  0  0  0  0  0  0  0  0  0  0  0
  -26.9974  -19.3043   18.4012 C   0  0  0  0  0  0  0  0  0  0  0  0
  -29.3678  -19.4221   18.5558 C   0  0  0  0  0  0  0  0  0  0  0  0
  -28.2168  -18.6508   18.5400 C   0  0  0  0  0  0  0  0  0  0  0  0
  -26.9666  -20.6894   18.2842 C   0  0  0  0  0  0  0  0  0  0  0  0
  -28.1735  -21.3695   18.3116 C   0  0  0  0  0  0  0  0  0  0  0  0
  -30.0170  -23.4737   16.8453 C   0  0  0  0  0  0  0  0  0  0  0  0
  -28.2872  -25.1329   19.9325 C   0  0  0  0  0  0  0  0  0  0  0  0
  -29.3452  -23.5702   18.2129 C   0  0  1  0  0  0  0  0  0  0  0  0
  -29.0006  -25.0214   18.5861 C   0  0  1  0  0  0  0  0  0  0  0  0
  -29.3776  -20.7694   18.4448 N   0  0  0  0  0  0  0  0  0  0  0  0
  -25.7333  -21.3531   18.1439 N   0  0  0  0  0  0  0  0  0  0  0  0
  -28.2809  -17.2405   18.6607 N   0  0  0  0  0  0  0  0  0  0  0  0
  -28.1521  -22.7472   18.1981 N   0  0  0  0  0  0  0  0  0  0  0  0
  -28.1747  -25.5960   17.5718 O   0  0  0  0  0  0  0  0  0  0  0  0
  -31.4485  -12.4701   19.0860 H   0  0  0  0  0  0  0  0  0  0  0  0
  -30.3970  -11.2460   19.6950 H   0  0  0  0  0  0  0  0  0  0  0  0
  -29.6870  -11.8204   17.4226 H   0  0  0  0  0  0  0  0  0  0  0  0
  -29.6375  -13.5326   17.8649 H   0  0  0  0  0  0  0  0  0  0  0  0
  -27.7830  -11.3650   18.7904 H   0  0  0  0  0  0  0  0  0  0  0  0
  -27.4028  -12.7801   17.8021 H   0  0  0  0  0  0  0  0  0  0  0  0
  -27.7353  -14.2503   19.6136 H   0  0  0  0  0  0  0  0  0  0  0  0
  -28.5890  -11.9550   21.3832 H   0  0  0  0  0  0  0  0  0  0  0  0
  -28.5005  -13.6134   21.8562 H   0  0  0  0  0  0  0  0  0  0  0  0
  -25.2399   -9.5495   22.4318 H   0  0  0  0  0  0  0  0  0  0  0  0
  -23.9663   -7.5070   22.7297 H   0  0  0  0  0  0  0  0  0  0  0  0
  -21.1515   -8.8641   19.9162 H   0  0  0  0  0  0  0  0  0  0  0  0
  -22.4016  -10.9115   19.6476 H   0  0  0  0  0  0  0  0  0  0  0  0
  -21.2319   -7.5552   23.9750 H   0  0  0  0  0  0  0  0  0  0  0  0
  -21.1589   -6.0228   25.8556 H   0  0  0  0  0  0  0  0  0  0  0  0
  -22.0396   -2.8212   23.2809 H   0  0  0  0  0  0  0  0  0  0  0  0
  -22.4401  -11.9703   22.4008 H   0  0  0  0  0  0  0  0  0  0  0  0
  -21.1493  -13.0679   22.2082 H   0  0  0  0  0  0  0  0  0  0  0  0
  -24.6538  -15.7807   20.5848 H   0  0  0  0  0  0  0  0  0  0  0  0
  -26.2762  -15.5453   20.1156 H   0  0  0  0  0  0  0  0  0  0  0  0
  -26.6778  -32.4663   23.1464 H   0  0  0  0  0  0  0  0  0  0  0  0
  -25.0747  -34.0282   25.0566 H   0  0  0  0  0  0  0  0  0  0  0  0
  -22.7881  -31.3489   21.4131 H   0  0  0  0  0  0  0  0  0  0  0  0
  -23.3854  -35.9823   23.3648 H   0  0  0  0  0  0  0  0  0  0  0  0
  -24.3696  -36.8624   22.2204 H   0  0  0  0  0  0  0  0  0  0  0  0
  -23.7669  -37.6632   23.6516 H   0  0  0  0  0  0  0  0  0  0  0  0
  -25.9445  -31.6237   20.5691 H   0  0  0  0  0  0  0  0  0  0  0  0
  -26.7436  -31.0079   22.0108 H   0  0  0  0  0  0  0  0  0  0  0  0
  -28.0090  -29.1452   21.2057 H   0  0  0  0  0  0  0  0  0  0  0  0
  -26.1369  -26.0560   19.0719 H   0  0  0  0  0  0  0  0  0  0  0  0
  -24.0652  -27.2961   19.0997 H   0  0  0  0  0  0  0  0  0  0  0  0
  -23.6156  -30.5365   19.3930 H   0  0  0  0  0  0  0  0  0  0  0  0
  -22.7355  -29.1425   19.9945 H   0  0  0  0  0  0  0  0  0  0  0  0
  -25.1353  -36.2335   25.0565 H   0  0  0  0  0  0  0  0  0  0  0  0
  -21.0070  -28.3206   24.0793 H   0  0  0  0  0  0  0  0  0  0  0  0
  -20.5555  -26.2518   23.3550 H   0  0  0  0  0  0  0  0  0  0  0  0
  -21.5974  -26.8362   22.0454 H   0  0  0  0  0  0  0  0  0  0  0  0
  -19.6810  -25.6422   21.1488 H   0  0  0  0  0  0  0  0  0  0  0  0
  -19.6406  -27.3343   20.7034 H   0  0  0  0  0  0  0  0  0  0  0  0
  -17.4282  -26.6888   21.4113 H   0  0  0  0  0  0  0  0  0  0  0  0
  -18.0803  -26.0130   22.9049 H   0  0  0  0  0  0  0  0  0  0  0  0
  -19.7265  -30.6774   24.2204 H   0  0  0  0  0  0  0  0  0  0  0  0
  -17.5064  -31.5856   24.4483 H   0  0  0  0  0  0  0  0  0  0  0  0
  -15.5878  -30.2839   23.7407 H   0  0  0  0  0  0  0  0  0  0  0  0
  -15.9120  -28.0941   22.7766 H   0  0  0  0  0  0  0  0  0  0  0  0
  -24.5787  -30.7757   25.6817 H   0  0  0  0  0  0  0  0  0  0  0  0
  -25.0041  -32.2289   26.5536 H   0  0  0  0  0  0  0  0  0  0  0  0
  -25.8166  -30.7245   26.9138 H   0  0  0  0  0  0  0  0  0  0  0  0
  -26.2892  -29.7335   24.0803 H   0  0  0  0  0  0  0  0  0  0  0  0
  -27.4336  -29.7484   25.4006 H   0  0  0  0  0  0  0  0  0  0  0  0
  -27.8466  -30.4994   23.8779 H   0  0  0  0  0  0  0  0  0  0  0  0
  -27.2251  -33.3632   26.1242 H   0  0  0  0  0  0  0  0  0  0  0  0
  -28.3902  -32.6065   25.0645 H   0  0  0  0  0  0  0  0  0  0  0  0
  -27.9772  -31.8555   26.5872 H   0  0  0  0  0  0  0  0  0  0  0  0
  -28.2744  -38.0016   24.6863 H   0  0  0  0  0  0  0  0  0  0  0  0
  -28.0396  -36.2711   24.7461 H   0  0  0  0  0  0  0  0  0  0  0  0
  -27.1773  -37.3087   25.8564 H   0  0  0  0  0  0  0  0  0  0  0  0
  -20.9627  -29.9365   21.7352 H   0  0  0  0  0  0  0  0  0  0  0  0
  -26.0447  -38.2561   24.0273 H   0  0  0  0  0  0  0  0  0  0  0  0
  -26.1187  -18.7634   18.3851 H   0  0  0  0  0  0  0  0  0  0  0  0
  -30.2735  -18.9382   18.6587 H   0  0  0  0  0  0  0  0  0  0  0  0
  -30.9011  -24.0764   16.8389 H   0  0  0  0  0  0  0  0  0  0  0  0
  -29.3425  -23.8219   16.0912 H   0  0  0  0  0  0  0  0  0  0  0  0
  -30.2783  -22.4552   16.6474 H   0  0  0  0  0  0  0  0  0  0  0  0
  -28.8106  -24.6403   20.7252 H   0  0  0  0  0  0  0  0  0  0  0  0
  -27.3158  -24.6930   20.0207 H   0  0  0  0  0  0  0  0  0  0  0  0
  -30.0276  -23.2186   18.9583 H   0  0  0  0  0  0  0  0  0  0  0  0
  -29.9272  -25.5504   18.6667 H   0  0  0  0  0  0  0  0  0  0  0  0
  -24.8953  -20.8366   18.1285 H   0  0  0  0  0  0  0  0  0  0  0  0
  -25.7087  -22.3338   18.0611 H   0  0  0  0  0  0  0  0  0  0  0  0
  -27.5636  -16.8024   18.1480 H   0  0  0  0  0  0  0  0  0  0  0  0
  -27.2797  -23.1932   18.1021 H   0  0  0  0  0  0  0  0  0  0  0  0
  -27.3415  -25.1026   17.5153 H   0  0  0  0  0  0  0  0  0  0  0  0
  1 25  1  0  0  0  0
  1 30  2  0  0  0  0
  1 82  1  0  0  0  0
  2  3  1  0  0  0  0
  2 25  1  0  0  0  0
  2 85  1  0  0  0  0
  2 86  1  0  0  0  0
  3  4  1  0  0  0  0
  3 87  1  0  0  0  0
  3 88  1  0  0  0  0
  4  5  1  0  0  0  0
  4 89  1  0  0  0  0
  4 90  1  0  0  0  0
  5  6  1  0  0  0  0
  5 26  1  0  0  0  0
  5 91  1  6  0  0  0
  6 25  1  0  0  0  0
  6 92  1  0  0  0  0
  6 93  1  0  0  0  0
  7  8  2  0  0  0  0
  7 26  1  0  0  0  0
  7 29  1  0  0  0  0
  8  9  1  0  0  0  0
  8 22  1  0  0  0  0
  9 10  1  0  0  0  0
  9 27  2  0  0  0  0
 10 11  2  0  0  0  0
 10 15  1  0  0  0  0
 11 12  1  0  0  0  0
 11 94  1  0  0  0  0
 12 13  2  0  0  0  0
 12 95  1  0  0  0  0
 13 14  1  0  0  0  0
 13 31  1  0  0  0  0
 14 15  2  0  0  0  0
 14 96  1  0  0  0  0
 15 97  1  0  0  0  0
 16 17  2  0  0  0  0
 16 21  1  0  0  0  0
 16 31  1  0  0  0  0
 17 18  1  0  0  0  0
 17 98  1  0  0  0  0
 18 19  2  0  0  0  0
 18 99  1  0  0  0  0
 19 20  1  0  0  0  0
 19 24  1  0  0  0  0
 20 21  2  0  0  0  0
 20100  1  0  0  0  0
 21 23  1  0  0  0  0
 22 28  1  0  0  0  0
 22 32  2  0  0  0  0
 26 27  1  0  0  0  0
 28101  1  0  0  0  0
 28102  1  0  0  0  0
 29103  1  0  0  0  0
 29104  1  0  0  0  0
 33 34  1  0  0  0  0
 33 66  1  0  0  0  0
 33 70  2  0  0  0  0
 34 36  1  0  0  0  0
 34 59  1  0  0  0  0
 34105  1  6  0  0  0
 35 44  2  0  0  0  0
 35 45  1  0  0  0  0
 35 68  1  0  0  0  0
 36 56  1  0  0  0  0
 36106  1  0  0  0  0
 37 39  1  0  0  0  0
 37 47  1  0  0  0  0
 37 66  1  0  0  0  0
 37107  1  6  0  0  0
 38 43  2  0  0  0  0
 38 46  1  0  0  0  0
 38 47  1  0  0  0  0
 39 64  1  0  0  0  0
 39 67  2  0  0  0  0
 40 52  1  0  0  0  0
 40 53  2  0  0  0  0
 40 58  1  0  0  0  0
 41108  1  0  0  0  0
 41109  1  0  0  0  0
 41110  1  0  0  0  0
 42 43  1  0  0  0  0
 42 66  1  0  0  0  0
 42111  1  0  0  0  0
 42112  1  0  0  0  0
 43 44  1  0  0  0  0
 44113  1  0  0  0  0
 45 46  2  0  0  0  0
 45114  1  0  0  0  0
 46115  1  0  0  0  0
 47116  1  0  0  0  0
 47117  1  0  0  0  0
 48 41  1  0  0  0  0
 48 56  1  0  0  0  0
 48 65  1  0  0  0  0
 48118  1  1  0  0  0
 49 50  1  0  0  0  0
 49 53  1  0  0  0  0
 49 64  1  0  0  0  0
 49119  1  1  0  0  0
 50 51  1  0  0  0  0
 50120  1  0  0  0  0
 50121  1  0  0  0  0
 51 52  1  0  0  0  0
 51122  1  0  0  0  0
 51123  1  0  0  0  0
 52124  1  0  0  0  0
 52125  1  0  0  0  0
 53 54  1  0  0  0  0
 54 55  2  0  0  0  0
 54126  1  0  0  0  0
 55 57  1  0  0  0  0
 55127  1  0  0  0  0
 56 69  2  0  0  0  0
 57 58  2  0  0  0  0
 57128  1  0  0  0  0
 58129  1  0  0  0  0
 59 60  1  0  0  0  0
 59 61  1  0  0  0  0
 59 62  1  0  0  0  0
 60130  1  0  0  0  0
 60131  1  0  0  0  0
 60132  1  0  0  0  0
 61133  1  0  0  0  0
 61134  1  0  0  0  0
 61135  1  0  0  0  0
 62136  1  0  0  0  0
 62137  1  0  0  0  0
 62138  1  0  0  0  0
 63 65  1  0  0  0  0
 63139  1  0  0  0  0
 63140  1  0  0  0  0
 63141  1  0  0  0  0
 64142  1  0  0  0  0
 65143  1  0  0  0  0
 68 77  1  0  0  0  0
 71 73  2  0  0  0  0
 71 74  1  0  0  0  0
 71144  1  0  0  0  0
 72 73  1  0  0  0  0
 72 80  2  0  0  0  0
 72145  1  0  0  0  0
 73 82  1  0  0  0  0
 74 75  2  0  0  0  0
 74 81  1  0  0  0  0
 75 80  1  0  0  0  0
 75 83  1  0  0  0  0
 76146  1  0  0  0  0
 76147  1  0  0  0  0
 76148  1  0  0  0  0
 77 79  1  0  0  0  0
 77149  1  0  0  0  0
 77150  1  0  0  0  0
 78 76  1  0  0  0  0
 78 79  1  0  0  0  0
 78 83  1  0  0  0  0
 78151  1  1  0  0  0
 79 84  1  0  0  0  0
 79152  1  1  0  0  0
 81153  1  0  0  0  0
 81154  1  0  0  0  0
 82155  1  0  0  0  0
 83156  1  0  0  0  0
 84157  1  0  0  0  0
M  ISO  4   1 100  68 101  77 101  82 100
M  END
$$$$
77
 OpenBabel04052305473D

154162  0  0  0  0  0  0  0  0999 V2000
  -30.7652  -14.3608   20.6636 C   0  0  0  0  0  0  0  0  0  0  0  0
  -30.4392  -12.2669   19.3775 C   0  0  0  0  0  0  0  0  0  0  0  0
  -29.4791  -12.5281   18.1977 C   0  0  0  0  0  0  0  0  0  0  0  0
  -27.9985  -12.3963   18.6038 C   0  0  0  0  0  0  0  0  0  0  0  0
  -27.6639  -13.2170   19.8820 C   0  0  2  0  0  0  0  0  0  0  0  0
  -28.6795  -12.9602   21.0279 C   0  0  0  0  0  0  0  0  0  0  0  0
  -25.2633  -13.8245   20.5754 C   0  0  0  0  0  0  0  0  0  0  0  0
  -24.1645  -13.0409   20.9408 C   0  0  0  0  0  0  0  0  0  0  0  0
  -24.6400  -11.7009   20.8697 C   0  0  0  0  0  0  0  0  0  0  0  0
  -23.9005  -10.4085   21.0420 C   0  0  0  0  0  0  0  0  0  0  0  0
  -24.3588   -9.4123   21.9123 C   0  0  0  0  0  0  0  0  0  0  0  0
  -23.6296   -8.2350   22.0803 C   0  0  0  0  0  0  0  0  0  0  0  0
  -22.4385   -8.0419   21.3657 C   0  0  0  0  0  0  0  0  0  0  0  0
  -22.0103   -9.0167   20.4678 C   0  0  0  0  0  0  0  0  0  0  0  0
  -22.7317  -10.1925   20.3102 C   0  0  0  0  0  0  0  0  0  0  0  0
  -21.6857   -6.0709   22.5391 C   0  0  0  0  0  0  0  0  0  0  0  0
  -21.4064   -6.5490   23.8264 C   0  0  0  0  0  0  0  0  0  0  0  0
  -21.3635   -5.6677   24.9085 C   0  0  0  0  0  0  0  0  0  0  0  0
  -21.5973   -4.3067   24.7088 C   0  0  0  0  0  0  0  0  0  0  0  0
  -21.8700   -3.8284   23.4282 C   0  0  0  0  0  0  0  0  0  0  0  0
  -21.9144   -4.7056   22.3460 C   0  0  0  0  0  0  0  0  0  0  0  0
  -22.8194  -13.5263   21.1763 C   0  0  0  0  0  0  0  0  0  0  0  0
  -22.1559   -4.2206   21.1063 F   0  0  0  0  0  0  0  0  0  0  0  0
  -21.5628   -3.4510   25.7555 F   0  0  0  0  0  0  0  0  0  0  0  0
  -30.0261  -13.1803   20.4553 N   0  0  0  0  0  0  0  0  0  0  0  0
  -26.2911  -12.9356   20.3443 N   0  0  0  0  0  0  0  0  0  0  0  0
  -25.9236  -11.6675   20.5847 N   0  0  0  0  0  0  0  0  0  0  0  0
  -22.0708  -12.7905   22.0005 N   0  0  0  0  0  0  0  0  0  0  0  0
  -25.4117  -15.1773   20.4097 N   0  0  0  0  0  0  0  0  0  0  0  0
  -31.7916  -14.6724   20.0536 O   0  0  0  0  0  0  0  0  0  0  0  0
  -21.6670   -6.9022   21.4423 O   0  0  0  0  0  0  0  0  0  0  0  0
  -22.3946  -14.5564   20.6568 O   0  0  0  0  0  0  0  0  0  0  0  0
  -24.6048  -31.8614   23.2223 C   0  0  0  0  0  0  0  0  0  0  0  0
  -25.8822  -32.4841   23.8616 C   0  0  1  0  0  0  0  0  0  0  0  0
  -27.2536  -27.5042   20.1156 C   0  0  0  0  0  0  0  0  0  0  0  0
  -25.5726  -33.8762   24.2210 N   0  0  0  0  0  0  0  0  0  0  0  0
  -23.4066  -30.4859   21.5461 C   0  0  2  0  0  0  0  0  0  0  0  0
  -24.8467  -28.9636   20.1247 C   0  0  0  0  0  0  0  0  0  0  0  0
  -22.7412  -29.4652   22.5052 C   0  0  0  0  0  0  0  0  0  0  0  0
  -18.0167  -28.1302   22.8626 C   0  0  0  0  0  0  0  0  0  0  0  0
  -24.1342  -36.7390   23.2568 C   0  0  0  0  0  0  0  0  0  0  0  0
  -25.9141  -30.8882   21.3456 C   0  0  0  0  0  0  0  0  0  0  0  0
  -25.9930  -29.5029   20.7208 C   0  0  0  0  0  0  0  0  0  0  0  0
  -27.1758  -28.7612   20.7331 C   0  0  0  0  0  0  0  0  0  0  0  0
  -26.1032  -26.9836   19.5230 C   0  0  0  0  0  0  0  0  0  0  0  0
  -24.9097  -27.7011   19.5331 C   0  0  0  0  0  0  0  0  0  0  0  0
  -23.5715  -29.7899   20.1582 C   0  0  0  0  0  0  0  0  0  0  0  0
  -25.3990  -36.3212   24.0232 C   0  0  1  0  0  0  0  0  0  0  0  0
  -20.5793  -28.3813   23.1004 C   0  0  2  0  0  0  0  0  0  0  0  0
  -20.6548  -26.9392   22.5411 C   0  0  0  0  0  0  0  0  0  0  0  0
  -19.5615  -26.6407   21.5143 C   0  0  0  0  0  0  0  0  0  0  0  0
  -18.1797  -26.7818   22.1673 C   0  0  0  0  0  0  0  0  0  0  0  0
  -19.1385  -28.8769   23.2988 C   0  0  0  0  0  0  0  0  0  0  0  0
  -18.9183  -30.1286   23.8878 C   0  0  0  0  0  0  0  0  0  0  0  0
  -17.6396  -30.6493   24.0352 C   0  0  0  0  0  0  0  0  0  0  0  0
  -25.9153  -34.9582   23.4993 C   0  0  0  0  0  0  0  0  0  0  0  0
  -16.5415  -29.9068   23.6254 C   0  0  0  0  0  0  0  0  0  0  0  0
  -16.7331  -28.6521   23.0586 C   0  0  0  0  0  0  0  0  0  0  0  0
  -26.4583  -31.6439   25.0683 C   0  0  0  0  0  0  0  0  0  0  0  0
  -25.3807  -31.3179   26.1374 C   0  0  0  0  0  0  0  0  0  0  0  0
  -27.0530  -30.3024   24.5680 C   0  0  0  0  0  0  0  0  0  0  0  0
  -27.6014  -32.4281   25.7651 C   0  0  0  0  0  0  0  0  0  0  0  0
  -27.5629  -37.2220   24.8621 C   0  0  0  0  0  0  0  0  0  0  0  0
  -21.4133  -29.3375   22.3735 N   0  0  0  0  0  0  0  0  0  0  0  0
  -26.4706  -37.3372   23.9061 N   0  0  0  0  0  0  0  0  0  0  0  0
  -24.6674  -31.0544   22.1178 N   0  0  0  0  0  0  0  0  0  0  0  0
  -23.4259  -28.8150   23.2971 O   0  0  0  0  0  0  0  0  0  0  0  0
  -28.3948  -26.7345   20.0089 O   0  0  0  0  0  0  0  0  0  0  0  0
  -26.5870  -34.9065   22.4671 O   0  0  0  0  0  0  0  0  0  0  0  0
  -23.5365  -32.1254   23.7833 O   0  0  0  0  0  0  0  0  0  0  0  0
  -19.4419  -24.6892   21.5231 C   0  0  0  0  0  0  0  0  0  0  0  0
  -17.8383  -23.6289   22.8295 C   0  0  0  0  0  0  0  0  0  0  0  0
  -18.9098  -23.4498   21.9825 C   0  0  0  0  0  0  0  0  0  0  0  0
  -18.7565  -25.7684   22.0364 C   0  0  0  0  0  0  0  0  0  0  0  0
  -20.4776  -21.8849   20.7870 C   0  0  0  0  0  0  0  0  0  0  0  0
  -19.1384  -20.1648   18.6340 C   0  0  0  0  0  0  0  0  0  0  0  0
  -18.9982  -27.2086   21.8019 C   0  0  0  0  0  0  0  0  0  0  0  0
  -19.4919  -19.6639   20.0300 C   0  0  0  0  0  0  0  0  0  0  0  0
  -20.6955  -20.3778   20.6535 C   0  0  1  0  0  0  0  0  0  0  0  0
  -19.4055  -22.1737   21.6243 N   0  0  0  0  0  0  0  0  0  0  0  0
  -20.3227  -27.6272   22.2035 N   0  0  0  0  0  0  0  0  0  0  0  0
  -21.2096  -22.6858   20.2124 O   0  0  0  0  0  0  0  0  0  0  0  0
  -17.4777  -25.2858   23.0678 S   0  0  0  0  0  0  0  0  0  0  0  0
  -31.4485  -12.4701   19.0860 H   0  0  0  0  0  0  0  0  0  0  0  0
  -30.3970  -11.2460   19.6950 H   0  0  0  0  0  0  0  0  0  0  0  0
  -29.6870  -11.8204   17.4226 H   0  0  0  0  0  0  0  0  0  0  0  0
  -29.6375  -13.5326   17.8649 H   0  0  0  0  0  0  0  0  0  0  0  0
  -27.7830  -11.3650   18.7904 H   0  0  0  0  0  0  0  0  0  0  0  0
  -27.4028  -12.7801   17.8021 H   0  0  0  0  0  0  0  0  0  0  0  0
  -27.7353  -14.2503   19.6136 H   0  0  0  0  0  0  0  0  0  0  0  0
  -28.5890  -11.9550   21.3832 H   0  0  0  0  0  0  0  0  0  0  0  0
  -28.5005  -13.6134   21.8562 H   0  0  0  0  0  0  0  0  0  0  0  0
  -25.2399   -9.5495   22.4318 H   0  0  0  0  0  0  0  0  0  0  0  0
  -23.9663   -7.5070   22.7297 H   0  0  0  0  0  0  0  0  0  0  0  0
  -21.1515   -8.8641   19.9162 H   0  0  0  0  0  0  0  0  0  0  0  0
  -22.4016  -10.9115   19.6476 H   0  0  0  0  0  0  0  0  0  0  0  0
  -21.2319   -7.5552   23.9750 H   0  0  0  0  0  0  0  0  0  0  0  0
  -21.1589   -6.0228   25.8556 H   0  0  0  0  0  0  0  0  0  0  0  0
  -22.0396   -2.8212   23.2809 H   0  0  0  0  0  0  0  0  0  0  0  0
  -22.4401  -11.9703   22.4008 H   0  0  0  0  0  0  0  0  0  0  0  0
  -21.1493  -13.0679   22.2082 H   0  0  0  0  0  0  0  0  0  0  0  0
  -24.6538  -15.7807   20.5848 H   0  0  0  0  0  0  0  0  0  0  0  0
  -26.2762  -15.5453   20.1156 H   0  0  0  0  0  0  0  0  0  0  0  0
  -26.6778  -32.4663   23.1464 H   0  0  0  0  0  0  0  0  0  0  0  0
  -25.0747  -34.0282   25.0566 H   0  0  0  0  0  0  0  0  0  0  0  0
  -22.7881  -31.3489   21.4131 H   0  0  0  0  0  0  0  0  0  0  0  0
  -23.3854  -35.9823   23.3648 H   0  0  0  0  0  0  0  0  0  0  0  0
  -24.3696  -36.8624   22.2204 H   0  0  0  0  0  0  0  0  0  0  0  0
  -23.7669  -37.6632   23.6516 H   0  0  0  0  0  0  0  0  0  0  0  0
  -25.9445  -31.6237   20.5691 H   0  0  0  0  0  0  0  0  0  0  0  0
  -26.7436  -31.0079   22.0108 H   0  0  0  0  0  0  0  0  0  0  0  0
  -28.0090  -29.1452   21.2057 H   0  0  0  0  0  0  0  0  0  0  0  0
  -26.1369  -26.0560   19.0719 H   0  0  0  0  0  0  0  0  0  0  0  0
  -24.0652  -27.2961   19.0997 H   0  0  0  0  0  0  0  0  0  0  0  0
  -23.6156  -30.5365   19.3930 H   0  0  0  0  0  0  0  0  0  0  0  0
  -22.7355  -29.1425   19.9945 H   0  0  0  0  0  0  0  0  0  0  0  0
  -25.1353  -36.2335   25.0565 H   0  0  0  0  0  0  0  0  0  0  0  0
  -21.0070  -28.3206   24.0793 H   0  0  0  0  0  0  0  0  0  0  0  0
  -20.5555  -26.2518   23.3550 H   0  0  0  0  0  0  0  0  0  0  0  0
  -21.5974  -26.8362   22.0454 H   0  0  0  0  0  0  0  0  0  0  0  0
  -19.6810  -25.6422   21.1488 H   0  0  0  0  0  0  0  0  0  0  0  0
  -19.6406  -27.3343   20.7034 H   0  0  0  0  0  0  0  0  0  0  0  0
  -17.4282  -26.6888   21.4113 H   0  0  0  0  0  0  0  0  0  0  0  0
  -18.0803  -26.0130   22.9049 H   0  0  0  0  0  0  0  0  0  0  0  0
  -19.7265  -30.6774   24.2204 H   0  0  0  0  0  0  0  0  0  0  0  0
  -17.5064  -31.5856   24.4483 H   0  0  0  0  0  0  0  0  0  0  0  0
  -15.5878  -30.2839   23.7407 H   0  0  0  0  0  0  0  0  0  0  0  0
  -15.9120  -28.0941   22.7766 H   0  0  0  0  0  0  0  0  0  0  0  0
  -24.5787  -30.7757   25.6817 H   0  0  0  0  0  0  0  0  0  0  0  0
  -25.0041  -32.2289   26.5536 H   0  0  0  0  0  0  0  0  0  0  0  0
  -25.8166  -30.7245   26.9138 H   0  0  0  0  0  0  0  0  0  0  0  0
  -26.2892  -29.7335   24.0803 H   0  0  0  0  0  0  0  0  0  0  0  0
  -27.4336  -29.7484   25.4006 H   0  0  0  0  0  0  0  0  0  0  0  0
  -27.8466  -30.4994   23.8779 H   0  0  0  0  0  0  0  0  0  0  0  0
  -27.2251  -33.3632   26.1242 H   0  0  0  0  0  0  0  0  0  0  0  0
  -28.3902  -32.6065   25.0645 H   0  0  0  0  0  0  0  0  0  0  0  0
  -27.9772  -31.8555   26.5872 H   0  0  0  0  0  0  0  0  0  0  0  0
  -28.2744  -38.0016   24.6863 H   0  0  0  0  0  0  0  0  0  0  0  0
  -28.0396  -36.2711   24.7461 H   0  0  0  0  0  0  0  0  0  0  0  0
  -27.1773  -37.3087   25.8564 H   0  0  0  0  0  0  0  0  0  0  0  0
  -20.9627  -29.9365   21.7352 H   0  0  0  0  0  0  0  0  0  0  0  0
  -26.0447  -38.2561   24.0273 H   0  0  0  0  0  0  0  0  0  0  0  0
  -20.2461  -24.7690   20.8813 H   0  0  0  0  0  0  0  0  0  0  0  0
  -17.3146  -22.8556   23.2687 H   0  0  0  0  0  0  0  0  0  0  0  0
  -18.2929  -19.6233   18.2643 H   0  0  0  0  0  0  0  0  0  0  0  0
  -19.9717  -20.0151   17.9797 H   0  0  0  0  0  0  0  0  0  0  0  0
  -18.9025  -21.2075   18.6783 H   0  0  0  0  0  0  0  0  0  0  0  0
  -18.2783  -27.7712   22.3588 H   0  0  0  0  0  0  0  0  0  0  0  0
  -18.9105  -27.3828   20.7498 H   0  0  0  0  0  0  0  0  0  0  0  0
  -19.7137  -18.6190   19.9679 H   0  0  0  0  0  0  0  0  0  0  0  0
  -18.6490  -19.8655   20.6575 H   0  0  0  0  0  0  0  0  0  0  0  0
  -20.8338  -19.3710   20.9882 H   0  0  0  0  0  0  0  0  0  0  0  0
  -18.9368  -21.4002   22.0132 H   0  0  0  0  0  0  0  0  0  0  0  0
  -20.5746  -28.5272   22.5129 H   0  0  0  0  0  0  0  0  0  0  0  0
  1 25  1  0  0  0  0
  1 30  2  0  0  0  0
  1 81  1  0  0  0  0
  2  3  1  0  0  0  0
  2 25  1  0  0  0  0
  2 84  1  0  0  0  0
  2 85  1  0  0  0  0
  3  4  1  0  0  0  0
  3 86  1  0  0  0  0
  3 87  1  0  0  0  0
  4  5  1  0  0  0  0
  4 88  1  0  0  0  0
  4 89  1  0  0  0  0
  5  6  1  0  0  0  0
  5 26  1  0  0  0  0
  5 90  1  6  0  0  0
  6 25  1  0  0  0  0
  6 91  1  0  0  0  0
  6 92  1  0  0  0  0
  7  8  2  0  0  0  0
  7 26  1  0  0  0  0
  7 29  1  0  0  0  0
  8  9  1  0  0  0  0
  8 22  1  0  0  0  0
  9 10  1  0  0  0  0
  9 27  2  0  0  0  0
 10 11  2  0  0  0  0
 10 15  1  0  0  0  0
 11 12  1  0  0  0  0
 11 93  1  0  0  0  0
 12 13  2  0  0  0  0
 12 94  1  0  0  0  0
 13 14  1  0  0  0  0
 13 31  1  0  0  0  0
 14 15  2  0  0  0  0
 14 95  1  0  0  0  0
 15 96  1  0  0  0  0
 16 17  2  0  0  0  0
 16 21  1  0  0  0  0
 16 31  1  0  0  0  0
 17 18  1  0  0  0  0
 17 97  1  0  0  0  0
 18 19  2  0  0  0  0
 18 98  1  0  0  0  0
 19 20  1  0  0  0  0
 19 24  1  0  0  0  0
 20 21  2  0  0  0  0
 20 99  1  0  0  0  0
 21 23  1  0  0  0  0
 22 28  1  0  0  0  0
 22 32  2  0  0  0  0
 26 27  1  0  0  0  0
 28100  1  0  0  0  0
 28101  1  0  0  0  0
 29102  1  0  0  0  0
 29103  1  0  0  0  0
 33 34  1  0  0  0  0
 33 66  1  0  0  0  0
 33 70  2  0  0  0  0
 34 36  1  0  0  0  0
 34 59  1  0  0  0  0
 34104  1  6  0  0  0
 35 44  2  0  0  0  0
 35 45  1  0  0  0  0
 35 68  1  0  0  0  0
 36 56  1  0  0  0  0
 36105  1  0  0  0  0
 37 39  1  0  0  0  0
 37 47  1  0  0  0  0
 37 66  1  0  0  0  0
 37106  1  6  0  0  0
 38 43  2  0  0  0  0
 38 46  1  0  0  0  0
 38 47  1  0  0  0  0
 39 64  1  0  0  0  0
 39 67  2  0  0  0  0
 40 52  1  0  0  0  0
 40 53  2  0  0  0  0
 40 58  1  0  0  0  0
 41107  1  0  0  0  0
 41108  1  0  0  0  0
 41109  1  0  0  0  0
 42 43  1  0  0  0  0
 42 66  1  0  0  0  0
 42110  1  0  0  0  0
 42111  1  0  0  0  0
 43 44  1  0  0  0  0
 44112  1  0  0  0  0
 45 46  2  0  0  0  0
 45113  1  0  0  0  0
 46114  1  0  0  0  0
 47115  1  0  0  0  0
 47116  1  0  0  0  0
 48 41  1  0  0  0  0
 48 56  1  0  0  0  0
 48 65  1  0  0  0  0
 48117  1  1  0  0  0
 49 50  1  0  0  0  0
 49 53  1  0  0  0  0
 49 64  1  0  0  0  0
 49118  1  1  0  0  0
 50 51  1  0  0  0  0
 50119  1  0  0  0  0
 50120  1  0  0  0  0
 51 52  1  0  0  0  0
 51121  1  0  0  0  0
 51122  1  0  0  0  0
 52123  1  0  0  0  0
 52124  1  0  0  0  0
 53 54  1  0  0  0  0
 54 55  2  0  0  0  0
 54125  1  0  0  0  0
 55 57  1  0  0  0  0
 55126  1  0  0  0  0
 56 69  2  0  0  0  0
 57 58  2  0  0  0  0
 57127  1  0  0  0  0
 58128  1  0  0  0  0
 59 60  1  0  0  0  0
 59 61  1  0  0  0  0
 59 62  1  0  0  0  0
 60129  1  0  0  0  0
 60130  1  0  0  0  0
 60131  1  0  0  0  0
 61132  1  0  0  0  0
 61133  1  0  0  0  0
 61134  1  0  0  0  0
 62135  1  0  0  0  0
 62136  1  0  0  0  0
 62137  1  0  0  0  0
 63 65  1  0  0  0  0
 63138  1  0  0  0  0
 63139  1  0  0  0  0
 63140  1  0  0  0  0
 64141  1  0  0  0  0
 65142  1  0  0  0  0
 68 79  1  0  0  0  0
 71 73  1  0  0  0  0
 71 74  2  0  0  0  0
 71143  1  0  0  0  0
 72 73  2  0  0  0  0
 72 83  1  0  0  0  0
 72144  1  0  0  0  0
 73 80  1  0  0  0  0
 74 77  1  0  0  0  0
 74 83  1  0  0  0  0
 75 79  1  0  0  0  0
 75 80  1  0  0  0  0
 75 82  2  0  0  0  0
 76 78  1  0  0  0  0
 76145  1  0  0  0  0
 76146  1  0  0  0  0
 76147  1  0  0  0  0
 77 81  1  0  0  0  0
 77148  1  0  0  0  0
 77149  1  0  0  0  0
 78150  1  0  0  0  0
 78151  1  0  0  0  0
 79 78  1  0  0  0  0
 79152  1  1  0  0  0
 80153  1  0  0  0  0
 81154  1  0  0  0  0
M  ISO  4   1 100  68 101  79 101  81 100
M  END
$$$$
78
 OpenBabel04052305473D

151159  0  0  0  0  0  0  0  0999 V2000
  -30.7652  -14.3608   20.6636 C   0  0  0  0  0  0  0  0  0  0  0  0
  -30.4392  -12.2669   19.3775 C   0  0  0  0  0  0  0  0  0  0  0  0
  -29.4791  -12.5281   18.1977 C   0  0  0  0  0  0  0  0  0  0  0  0
  -27.9985  -12.3963   18.6038 C   0  0  0  0  0  0  0  0  0  0  0  0
  -27.6639  -13.2170   19.8820 C   0  0  2  0  0  0  0  0  0  0  0  0
  -28.6795  -12.9602   21.0279 C   0  0  0  0  0  0  0  0  0  0  0  0
  -25.2633  -13.8245   20.5754 C   0  0  0  0  0  0  0  0  0  0  0  0
  -24.1645  -13.0409   20.9408 C   0  0  0  0  0  0  0  0  0  0  0  0
  -24.6400  -11.7009   20.8697 C   0  0  0  0  0  0  0  0  0  0  0  0
  -23.9005  -10.4085   21.0420 C   0  0  0  0  0  0  0  0  0  0  0  0
  -24.3588   -9.4123   21.9123 C   0  0  0  0  0  0  0  0  0  0  0  0
  -23.6296   -8.2350   22.0803 C   0  0  0  0  0  0  0  0  0  0  0  0
  -22.4385   -8.0419   21.3657 C   0  0  0  0  0  0  0  0  0  0  0  0
  -22.0103   -9.0167   20.4678 C   0  0  0  0  0  0  0  0  0  0  0  0
  -22.7317  -10.1925   20.3102 C   0  0  0  0  0  0  0  0  0  0  0  0
  -21.6857   -6.0709   22.5391 C   0  0  0  0  0  0  0  0  0  0  0  0
  -21.4064   -6.5490   23.8264 C   0  0  0  0  0  0  0  0  0  0  0  0
  -21.3635   -5.6677   24.9085 C   0  0  0  0  0  0  0  0  0  0  0  0
  -21.5973   -4.3067   24.7088 C   0  0  0  0  0  0  0  0  0  0  0  0
  -21.8700   -3.8284   23.4282 C   0  0  0  0  0  0  0  0  0  0  0  0
  -21.9144   -4.7056   22.3460 C   0  0  0  0  0  0  0  0  0  0  0  0
  -22.8194  -13.5263   21.1763 C   0  0  0  0  0  0  0  0  0  0  0  0
  -22.1559   -4.2206   21.1063 F   0  0  0  0  0  0  0  0  0  0  0  0
  -21.5628   -3.4510   25.7555 F   0  0  0  0  0  0  0  0  0  0  0  0
  -30.0261  -13.1803   20.4553 N   0  0  0  0  0  0  0  0  0  0  0  0
  -26.2911  -12.9356   20.3443 N   0  0  0  0  0  0  0  0  0  0  0  0
  -25.9236  -11.6675   20.5847 N   0  0  0  0  0  0  0  0  0  0  0  0
  -22.0708  -12.7905   22.0005 N   0  0  0  0  0  0  0  0  0  0  0  0
  -25.4117  -15.1773   20.4097 N   0  0  0  0  0  0  0  0  0  0  0  0
  -31.7916  -14.6724   20.0536 O   0  0  0  0  0  0  0  0  0  0  0  0
  -21.6670   -6.9022   21.4423 O   0  0  0  0  0  0  0  0  0  0  0  0
  -22.3946  -14.5564   20.6568 O   0  0  0  0  0  0  0  0  0  0  0  0
  -24.6048  -31.8614   23.2223 C   0  0  0  0  0  0  0  0  0  0  0  0
  -25.8822  -32.4841   23.8616 C   0  0  1  0  0  0  0  0  0  0  0  0
  -27.2536  -27.5042   20.1156 C   0  0  0  0  0  0  0  0  0  0  0  0
  -25.5726  -33.8762   24.2210 N   0  0  0  0  0  0  0  0  0  0  0  0
  -23.4066  -30.4859   21.5461 C   0  0  2  0  0  0  0  0  0  0  0  0
  -24.8467  -28.9636   20.1247 C   0  0  0  0  0  0  0  0  0  0  0  0
  -22.7412  -29.4652   22.5052 C   0  0  0  0  0  0  0  0  0  0  0  0
  -18.0167  -28.1302   22.8626 C   0  0  0  0  0  0  0  0  0  0  0  0
  -24.1342  -36.7390   23.2568 C   0  0  0  0  0  0  0  0  0  0  0  0
  -25.9141  -30.8882   21.3456 C   0  0  0  0  0  0  0  0  0  0  0  0
  -25.9930  -29.5029   20.7208 C   0  0  0  0  0  0  0  0  0  0  0  0
  -27.1758  -28.7612   20.7331 C   0  0  0  0  0  0  0  0  0  0  0  0
  -26.1032  -26.9836   19.5230 C   0  0  0  0  0  0  0  0  0  0  0  0
  -24.9097  -27.7011   19.5331 C   0  0  0  0  0  0  0  0  0  0  0  0
  -23.5715  -29.7899   20.1582 C   0  0  0  0  0  0  0  0  0  0  0  0
  -25.3990  -36.3212   24.0232 C   0  0  1  0  0  0  0  0  0  0  0  0
  -20.5793  -28.3813   23.1004 C   0  0  2  0  0  0  0  0  0  0  0  0
  -20.6548  -26.9392   22.5411 C   0  0  0  0  0  0  0  0  0  0  0  0
  -19.5615  -26.6407   21.5143 C   0  0  0  0  0  0  0  0  0  0  0  0
  -18.1797  -26.7818   22.1673 C   0  0  0  0  0  0  0  0  0  0  0  0
  -19.1385  -28.8769   23.2988 C   0  0  0  0  0  0  0  0  0  0  0  0
  -18.9183  -30.1286   23.8878 C   0  0  0  0  0  0  0  0  0  0  0  0
  -17.6396  -30.6493   24.0352 C   0  0  0  0  0  0  0  0  0  0  0  0
  -25.9153  -34.9582   23.4993 C   0  0  0  0  0  0  0  0  0  0  0  0
  -16.5415  -29.9068   23.6254 C   0  0  0  0  0  0  0  0  0  0  0  0
  -16.7331  -28.6521   23.0586 C   0  0  0  0  0  0  0  0  0  0  0  0
  -26.4583  -31.6439   25.0683 C   0  0  0  0  0  0  0  0  0  0  0  0
  -25.3807  -31.3179   26.1374 C   0  0  0  0  0  0  0  0  0  0  0  0
  -27.0530  -30.3024   24.5680 C   0  0  0  0  0  0  0  0  0  0  0  0
  -27.6014  -32.4281   25.7651 C   0  0  0  0  0  0  0  0  0  0  0  0
  -27.5629  -37.2220   24.8621 C   0  0  0  0  0  0  0  0  0  0  0  0
  -21.4133  -29.3375   22.3735 N   0  0  0  0  0  0  0  0  0  0  0  0
  -26.4706  -37.3372   23.9061 N   0  0  0  0  0  0  0  0  0  0  0  0
  -24.6674  -31.0544   22.1178 N   0  0  0  0  0  0  0  0  0  0  0  0
  -23.4259  -28.8150   23.2971 O   0  0  0  0  0  0  0  0  0  0  0  0
  -28.3948  -26.7345   20.0089 O   0  0  0  0  0  0  0  0  0  0  0  0
  -26.5870  -34.9065   22.4671 O   0  0  0  0  0  0  0  0  0  0  0  0
  -23.5365  -32.1254   23.7833 O   0  0  0  0  0  0  0  0  0  0  0  0
  -31.7966  -18.2137   23.3904 C   0  0  0  0  0  0  0  0  0  0  0  0
  -31.4424  -16.8963   23.2413 C   0  0  0  0  0  0  0  0  0  0  0  0
  -32.8671  -20.1704   24.5088 C   0  0  0  0  0  0  0  0  0  0  0  0
  -34.4759  -21.7482   25.6325 C   0  0  0  0  0  0  0  0  0  0  0  0
  -33.7104  -20.4351   25.7545 C   0  0  1  0  0  0  0  0  0  0  0  0
  -31.3055  -18.9428   22.3431 N   0  0  0  0  0  0  0  0  0  0  0  0
  -30.6497  -18.1125   21.5396 N   0  0  0  0  0  0  0  0  0  0  0  0
  -30.7328  -16.8860   22.0801 N   0  0  0  0  0  0  0  0  0  0  0  0
  -31.6682  -15.7883   23.9771 N   0  0  0  0  0  0  0  0  0  0  0  0
  -32.5344  -18.7660   24.4237 N   0  0  0  0  0  0  0  0  0  0  0  0
  -30.1628  -15.7105   21.5313 N   0  0  0  0  0  0  0  0  0  0  0  0
  -32.8479  -20.5384   26.8893 O   0  0  0  0  0  0  0  0  0  0  0  0
  -31.4485  -12.4701   19.0860 H   0  0  0  0  0  0  0  0  0  0  0  0
  -30.3970  -11.2460   19.6950 H   0  0  0  0  0  0  0  0  0  0  0  0
  -29.6870  -11.8204   17.4226 H   0  0  0  0  0  0  0  0  0  0  0  0
  -29.6375  -13.5326   17.8649 H   0  0  0  0  0  0  0  0  0  0  0  0
  -27.7830  -11.3650   18.7904 H   0  0  0  0  0  0  0  0  0  0  0  0
  -27.4028  -12.7801   17.8021 H   0  0  0  0  0  0  0  0  0  0  0  0
  -27.7353  -14.2503   19.6136 H   0  0  0  0  0  0  0  0  0  0  0  0
  -28.5890  -11.9550   21.3832 H   0  0  0  0  0  0  0  0  0  0  0  0
  -28.5005  -13.6134   21.8562 H   0  0  0  0  0  0  0  0  0  0  0  0
  -25.2399   -9.5495   22.4318 H   0  0  0  0  0  0  0  0  0  0  0  0
  -23.9663   -7.5070   22.7297 H   0  0  0  0  0  0  0  0  0  0  0  0
  -21.1515   -8.8641   19.9162 H   0  0  0  0  0  0  0  0  0  0  0  0
  -22.4016  -10.9115   19.6476 H   0  0  0  0  0  0  0  0  0  0  0  0
  -21.2319   -7.5552   23.9750 H   0  0  0  0  0  0  0  0  0  0  0  0
  -21.1589   -6.0228   25.8556 H   0  0  0  0  0  0  0  0  0  0  0  0
  -22.0396   -2.8212   23.2809 H   0  0  0  0  0  0  0  0  0  0  0  0
  -22.4401  -11.9703   22.4008 H   0  0  0  0  0  0  0  0  0  0  0  0
  -21.1493  -13.0679   22.2082 H   0  0  0  0  0  0  0  0  0  0  0  0
  -24.6538  -15.7807   20.5848 H   0  0  0  0  0  0  0  0  0  0  0  0
  -26.2762  -15.5453   20.1156 H   0  0  0  0  0  0  0  0  0  0  0  0
  -26.6778  -32.4663   23.1464 H   0  0  0  0  0  0  0  0  0  0  0  0
  -25.0747  -34.0282   25.0566 H   0  0  0  0  0  0  0  0  0  0  0  0
  -22.7881  -31.3489   21.4131 H   0  0  0  0  0  0  0  0  0  0  0  0
  -23.3854  -35.9823   23.3648 H   0  0  0  0  0  0  0  0  0  0  0  0
  -24.3696  -36.8624   22.2204 H   0  0  0  0  0  0  0  0  0  0  0  0
  -23.7669  -37.6632   23.6516 H   0  0  0  0  0  0  0  0  0  0  0  0
  -25.9445  -31.6237   20.5691 H   0  0  0  0  0  0  0  0  0  0  0  0
  -26.7436  -31.0079   22.0108 H   0  0  0  0  0  0  0  0  0  0  0  0
  -28.0090  -29.1452   21.2057 H   0  0  0  0  0  0  0  0  0  0  0  0
  -26.1369  -26.0560   19.0719 H   0  0  0  0  0  0  0  0  0  0  0  0
  -24.0652  -27.2961   19.0997 H   0  0  0  0  0  0  0  0  0  0  0  0
  -23.6156  -30.5365   19.3930 H   0  0  0  0  0  0  0  0  0  0  0  0
  -22.7355  -29.1425   19.9945 H   0  0  0  0  0  0  0  0  0  0  0  0
  -25.1353  -36.2335   25.0565 H   0  0  0  0  0  0  0  0  0  0  0  0
  -21.0070  -28.3206   24.0793 H   0  0  0  0  0  0  0  0  0  0  0  0
  -20.5555  -26.2518   23.3550 H   0  0  0  0  0  0  0  0  0  0  0  0
  -21.5974  -26.8362   22.0454 H   0  0  0  0  0  0  0  0  0  0  0  0
  -19.6810  -25.6422   21.1488 H   0  0  0  0  0  0  0  0  0  0  0  0
  -19.6406  -27.3343   20.7034 H   0  0  0  0  0  0  0  0  0  0  0  0
  -17.4282  -26.6888   21.4113 H   0  0  0  0  0  0  0  0  0  0  0  0
  -18.0803  -26.0130   22.9049 H   0  0  0  0  0  0  0  0  0  0  0  0
  -19.7265  -30.6774   24.2204 H   0  0  0  0  0  0  0  0  0  0  0  0
  -17.5064  -31.5856   24.4483 H   0  0  0  0  0  0  0  0  0  0  0  0
  -15.5878  -30.2839   23.7407 H   0  0  0  0  0  0  0  0  0  0  0  0
  -15.9120  -28.0941   22.7766 H   0  0  0  0  0  0  0  0  0  0  0  0
  -24.5787  -30.7757   25.6817 H   0  0  0  0  0  0  0  0  0  0  0  0
  -25.0041  -32.2289   26.5536 H   0  0  0  0  0  0  0  0  0  0  0  0
  -25.8166  -30.7245   26.9138 H   0  0  0  0  0  0  0  0  0  0  0  0
  -26.2892  -29.7335   24.0803 H   0  0  0  0  0  0  0  0  0  0  0  0
  -27.4336  -29.7484   25.4006 H   0  0  0  0  0  0  0  0  0  0  0  0
  -27.8466  -30.4994   23.8779 H   0  0  0  0  0  0  0  0  0  0  0  0
  -27.2251  -33.3632   26.1242 H   0  0  0  0  0  0  0  0  0  0  0  0
  -28.3902  -32.6065   25.0645 H   0  0  0  0  0  0  0  0  0  0  0  0
  -27.9772  -31.8555   26.5872 H   0  0  0  0  0  0  0  0  0  0  0  0
  -28.2744  -38.0016   24.6863 H   0  0  0  0  0  0  0  0  0  0  0  0
  -28.0396  -36.2711   24.7461 H   0  0  0  0  0  0  0  0  0  0  0  0
  -27.1773  -37.3087   25.8564 H   0  0  0  0  0  0  0  0  0  0  0  0
  -20.9627  -29.9365   21.7352 H   0  0  0  0  0  0  0  0  0  0  0  0
  -26.0447  -38.2561   24.0273 H   0  0  0  0  0  0  0  0  0  0  0  0
  -33.4210  -20.4563   23.6391 H   0  0  0  0  0  0  0  0  0  0  0  0
  -31.9642  -20.7413   24.5691 H   0  0  0  0  0  0  0  0  0  0  0  0
  -35.4277  -21.6105   25.1634 H   0  0  0  0  0  0  0  0  0  0  0  0
  -34.7151  -22.2178   26.5637 H   0  0  0  0  0  0  0  0  0  0  0  0
  -34.4045  -19.6279   25.8623 H   0  0  0  0  0  0  0  0  0  0  0  0
  -32.1883  -15.8486   24.8108 H   0  0  0  0  0  0  0  0  0  0  0  0
  -31.3129  -14.9194   23.6803 H   0  0  0  0  0  0  0  0  0  0  0  0
  -32.8500  -18.1692   25.1403 H   0  0  0  0  0  0  0  0  0  0  0  0
  -29.1918  -15.6563   21.6846 H   0  0  0  0  0  0  0  0  0  0  0  0
  -32.2324  -21.2771   26.7614 H   0  0  0  0  0  0  0  0  0  0  0  0
  1 25  1  0  0  0  0
  1 30  2  0  0  0  0
  1 81  1  0  0  0  0
  2  3  1  0  0  0  0
  2 25  1  0  0  0  0
  2 83  1  0  0  0  0
  2 84  1  0  0  0  0
  3  4  1  0  0  0  0
  3 85  1  0  0  0  0
  3 86  1  0  0  0  0
  4  5  1  0  0  0  0
  4 87  1  0  0  0  0
  4 88  1  0  0  0  0
  5  6  1  0  0  0  0
  5 26  1  0  0  0  0
  5 89  1  6  0  0  0
  6 25  1  0  0  0  0
  6 90  1  0  0  0  0
  6 91  1  0  0  0  0
  7  8  2  0  0  0  0
  7 26  1  0  0  0  0
  7 29  1  0  0  0  0
  8  9  1  0  0  0  0
  8 22  1  0  0  0  0
  9 10  1  0  0  0  0
  9 27  2  0  0  0  0
 10 11  2  0  0  0  0
 10 15  1  0  0  0  0
 11 12  1  0  0  0  0
 11 92  1  0  0  0  0
 12 13  2  0  0  0  0
 12 93  1  0  0  0  0
 13 14  1  0  0  0  0
 13 31  1  0  0  0  0
 14 15  2  0  0  0  0
 14 94  1  0  0  0  0
 15 95  1  0  0  0  0
 16 17  2  0  0  0  0
 16 21  1  0  0  0  0
 16 31  1  0  0  0  0
 17 18  1  0  0  0  0
 17 96  1  0  0  0  0
 18 19  2  0  0  0  0
 18 97  1  0  0  0  0
 19 20  1  0  0  0  0
 19 24  1  0  0  0  0
 20 21  2  0  0  0  0
 20 98  1  0  0  0  0
 21 23  1  0  0  0  0
 22 28  1  0  0  0  0
 22 32  2  0  0  0  0
 26 27  1  0  0  0  0
 28 99  1  0  0  0  0
 28100  1  0  0  0  0
 29101  1  0  0  0  0
 29102  1  0  0  0  0
 33 34  1  0  0  0  0
 33 66  1  0  0  0  0
 33 70  2  0  0  0  0
 34 36  1  0  0  0  0
 34 59  1  0  0  0  0
 34103  1  6  0  0  0
 35 44  2  0  0  0  0
 35 45  1  0  0  0  0
 35 68  1  0  0  0  0
 36 56  1  0  0  0  0
 36104  1  0  0  0  0
 37 39  1  0  0  0  0
 37 47  1  0  0  0  0
 37 66  1  0  0  0  0
 37105  1  6  0  0  0
 38 43  2  0  0  0  0
 38 46  1  0  0  0  0
 38 47  1  0  0  0  0
 39 64  1  0  0  0  0
 39 67  2  0  0  0  0
 40 52  1  0  0  0  0
 40 53  2  0  0  0  0
 40 58  1  0  0  0  0
 41106  1  0  0  0  0
 41107  1  0  0  0  0
 41108  1  0  0  0  0
 42 43  1  0  0  0  0
 42 66  1  0  0  0  0
 42109  1  0  0  0  0
 42110  1  0  0  0  0
 43 44  1  0  0  0  0
 44111  1  0  0  0  0
 45 46  2  0  0  0  0
 45112  1  0  0  0  0
 46113  1  0  0  0  0
 47114  1  0  0  0  0
 47115  1  0  0  0  0
 48 41  1  0  0  0  0
 48 56  1  0  0  0  0
 48 65  1  0  0  0  0
 48116  1  1  0  0  0
 49 50  1  0  0  0  0
 49 53  1  0  0  0  0
 49 64  1  0  0  0  0
 49117  1  1  0  0  0
 50 51  1  0  0  0  0
 50118  1  0  0  0  0
 50119  1  0  0  0  0
 51 52  1  0  0  0  0
 51120  1  0  0  0  0
 51121  1  0  0  0  0
 52122  1  0  0  0  0
 52123  1  0  0  0  0
 53 54  1  0  0  0  0
 54 55  2  0  0  0  0
 54124  1  0  0  0  0
 55 57  1  0  0  0  0
 55125  1  0  0  0  0
 56 69  2  0  0  0  0
 57 58  2  0  0  0  0
 57126  1  0  0  0  0
 58127  1  0  0  0  0
 59 60  1  0  0  0  0
 59 61  1  0  0  0  0
 59 62  1  0  0  0  0
 60128  1  0  0  0  0
 60129  1  0  0  0  0
 60130  1  0  0  0  0
 61131  1  0  0  0  0
 61132  1  0  0  0  0
 61133  1  0  0  0  0
 62134  1  0  0  0  0
 62135  1  0  0  0  0
 62136  1  0  0  0  0
 63 65  1  0  0  0  0
 63137  1  0  0  0  0
 63138  1  0  0  0  0
 63139  1  0  0  0  0
 64140  1  0  0  0  0
 65141  1  0  0  0  0
 68 74  1  0  0  0  0
 71 72  2  0  0  0  0
 71 76  1  0  0  0  0
 71 80  1  0  0  0  0
 72 78  1  0  0  0  0
 72 79  1  0  0  0  0
 73 75  1  0  0  0  0
 73 80  1  0  0  0  0
 73142  1  0  0  0  0
 73143  1  0  0  0  0
 74 75  1  0  0  0  0
 74144  1  0  0  0  0
 74145  1  0  0  0  0
 75 82  1  0  0  0  0
 75146  1  1  0  0  0
 76 77  2  0  0  0  0
 77 78  1  0  0  0  0
 78 81  1  0  0  0  0
 79147  1  0  0  0  0
 79148  1  0  0  0  0
 80149  1  0  0  0  0
 81150  1  0  0  0  0
 82151  1  0  0  0  0
M  ISO  4   1 100  68 101  74 101  81 100
M  END
$$$$
79
 OpenBabel04052305473D

157165  0  0  0  0  0  0  0  0999 V2000
  -30.7652  -14.3608   20.6636 C   0  0  0  0  0  0  0  0  0  0  0  0
  -30.4392  -12.2669   19.3775 C   0  0  0  0  0  0  0  0  0  0  0  0
  -29.4791  -12.5281   18.1977 C   0  0  0  0  0  0  0  0  0  0  0  0
  -27.9985  -12.3963   18.6038 C   0  0  0  0  0  0  0  0  0  0  0  0
  -27.6639  -13.2170   19.8820 C   0  0  2  0  0  0  0  0  0  0  0  0
  -28.6795  -12.9602   21.0279 C   0  0  0  0  0  0  0  0  0  0  0  0
  -25.2633  -13.8245   20.5754 C   0  0  0  0  0  0  0  0  0  0  0  0
  -24.1645  -13.0409   20.9408 C   0  0  0  0  0  0  0  0  0  0  0  0
  -24.6400  -11.7009   20.8697 C   0  0  0  0  0  0  0  0  0  0  0  0
  -23.9005  -10.4085   21.0420 C   0  0  0  0  0  0  0  0  0  0  0  0
  -24.3588   -9.4123   21.9123 C   0  0  0  0  0  0  0  0  0  0  0  0
  -23.6296   -8.2350   22.0803 C   0  0  0  0  0  0  0  0  0  0  0  0
  -22.4385   -8.0419   21.3657 C   0  0  0  0  0  0  0  0  0  0  0  0
  -22.0103   -9.0167   20.4678 C   0  0  0  0  0  0  0  0  0  0  0  0
  -22.7317  -10.1925   20.3102 C   0  0  0  0  0  0  0  0  0  0  0  0
  -21.6857   -6.0709   22.5391 C   0  0  0  0  0  0  0  0  0  0  0  0
  -21.4064   -6.5490   23.8264 C   0  0  0  0  0  0  0  0  0  0  0  0
  -21.3635   -5.6677   24.9085 C   0  0  0  0  0  0  0  0  0  0  0  0
  -21.5973   -4.3067   24.7088 C   0  0  0  0  0  0  0  0  0  0  0  0
  -21.8700   -3.8284   23.4282 C   0  0  0  0  0  0  0  0  0  0  0  0
  -21.9144   -4.7056   22.3460 C   0  0  0  0  0  0  0  0  0  0  0  0
  -22.8194  -13.5263   21.1763 C   0  0  0  0  0  0  0  0  0  0  0  0
  -22.1559   -4.2206   21.1063 F   0  0  0  0  0  0  0  0  0  0  0  0
  -21.5628   -3.4510   25.7555 F   0  0  0  0  0  0  0  0  0  0  0  0
  -30.0261  -13.1803   20.4553 N   0  0  0  0  0  0  0  0  0  0  0  0
  -26.2911  -12.9356   20.3443 N   0  0  0  0  0  0  0  0  0  0  0  0
  -25.9236  -11.6675   20.5847 N   0  0  0  0  0  0  0  0  0  0  0  0
  -22.0708  -12.7905   22.0005 N   0  0  0  0  0  0  0  0  0  0  0  0
  -25.4117  -15.1773   20.4097 N   0  0  0  0  0  0  0  0  0  0  0  0
  -31.7916  -14.6724   20.0536 O   0  0  0  0  0  0  0  0  0  0  0  0
  -21.6670   -6.9022   21.4423 O   0  0  0  0  0  0  0  0  0  0  0  0
  -22.3946  -14.5564   20.6568 O   0  0  0  0  0  0  0  0  0  0  0  0
  -24.6048  -31.8614   23.2223 C   0  0  0  0  0  0  0  0  0  0  0  0
  -25.8822  -32.4841   23.8616 C   0  0  1  0  0  0  0  0  0  0  0  0
  -27.2536  -27.5042   20.1156 C   0  0  0  0  0  0  0  0  0  0  0  0
  -25.5726  -33.8762   24.2210 N   0  0  0  0  0  0  0  0  0  0  0  0
  -23.4066  -30.4859   21.5461 C   0  0  2  0  0  0  0  0  0  0  0  0
  -24.8467  -28.9636   20.1247 C   0  0  0  0  0  0  0  0  0  0  0  0
  -22.7412  -29.4652   22.5052 C   0  0  0  0  0  0  0  0  0  0  0  0
  -18.0167  -28.1302   22.8626 C   0  0  0  0  0  0  0  0  0  0  0  0
  -24.1342  -36.7390   23.2568 C   0  0  0  0  0  0  0  0  0  0  0  0
  -25.9141  -30.8882   21.3456 C   0  0  0  0  0  0  0  0  0  0  0  0
  -25.9930  -29.5029   20.7208 C   0  0  0  0  0  0  0  0  0  0  0  0
  -27.1758  -28.7612   20.7331 C   0  0  0  0  0  0  0  0  0  0  0  0
  -26.1032  -26.9836   19.5230 C   0  0  0  0  0  0  0  0  0  0  0  0
  -24.9097  -27.7011   19.5331 C   0  0  0  0  0  0  0  0  0  0  0  0
  -23.5715  -29.7899   20.1582 C   0  0  0  0  0  0  0  0  0  0  0  0
  -25.3990  -36.3212   24.0232 C   0  0  1  0  0  0  0  0  0  0  0  0
  -20.5793  -28.3813   23.1004 C   0  0  2  0  0  0  0  0  0  0  0  0
  -20.6548  -26.9392   22.5411 C   0  0  0  0  0  0  0  0  0  0  0  0
  -19.5615  -26.6407   21.5143 C   0  0  0  0  0  0  0  0  0  0  0  0
  -18.1797  -26.7818   22.1673 C   0  0  0  0  0  0  0  0  0  0  0  0
  -19.1385  -28.8769   23.2988 C   0  0  0  0  0  0  0  0  0  0  0  0
  -18.9183  -30.1286   23.8878 C   0  0  0  0  0  0  0  0  0  0  0  0
  -17.6396  -30.6493   24.0352 C   0  0  0  0  0  0  0  0  0  0  0  0
  -25.9153  -34.9582   23.4993 C   0  0  0  0  0  0  0  0  0  0  0  0
  -16.5415  -29.9068   23.6254 C   0  0  0  0  0  0  0  0  0  0  0  0
  -16.7331  -28.6521   23.0586 C   0  0  0  0  0  0  0  0  0  0  0  0
  -26.4583  -31.6439   25.0683 C   0  0  0  0  0  0  0  0  0  0  0  0
  -25.3807  -31.3179   26.1374 C   0  0  0  0  0  0  0  0  0  0  0  0
  -27.0530  -30.3024   24.5680 C   0  0  0  0  0  0  0  0  0  0  0  0
  -27.6014  -32.4281   25.7651 C   0  0  0  0  0  0  0  0  0  0  0  0
  -27.5629  -37.2220   24.8621 C   0  0  0  0  0  0  0  0  0  0  0  0
  -21.4133  -29.3375   22.3735 N   0  0  0  0  0  0  0  0  0  0  0  0
  -26.4706  -37.3372   23.9061 N   0  0  0  0  0  0  0  0  0  0  0  0
  -24.6674  -31.0544   22.1178 N   0  0  0  0  0  0  0  0  0  0  0  0
  -23.4259  -28.8150   23.2971 O   0  0  0  0  0  0  0  0  0  0  0  0
  -28.3948  -26.7345   20.0089 O   0  0  0  0  0  0  0  0  0  0  0  0
  -26.5870  -34.9065   22.4671 O   0  0  0  0  0  0  0  0  0  0  0  0
  -23.5365  -32.1254   23.7833 O   0  0  0  0  0  0  0  0  0  0  0  0
  -23.2395  -23.0415   22.5517 C   0  0  0  0  0  0  0  0  0  0  0  0
  -24.2688  -23.5352   23.3225 C   0  0  0  0  0  0  0  0  0  0  0  0
  -22.0504  -24.9618   22.9096 C   0  0  0  0  0  0  0  0  0  0  0  0
  -23.0794  -25.4552   23.6811 C   0  0  0  0  0  0  0  0  0  0  0  0
  -19.7576  -25.4013   21.9662 C   0  0  0  0  0  0  0  0  0  0  0  0
  -18.3629  -27.0338   20.6002 C   0  0  0  0  0  0  0  0  0  0  0  0
  -19.5205  -27.6708   19.8346 C   0  0  0  0  0  0  0  0  0  0  0  0
  -18.7201  -26.5175   21.9970 C   0  0  1  0  0  0  0  0  0  0  0  0
  -22.1118  -23.7460   22.3313 N   0  0  0  0  0  0  0  0  0  0  0  0
  -24.2072  -24.7509   23.9011 N   0  0  0  0  0  0  0  0  0  0  0  0
  -22.9644  -26.7381   24.2635 N   0  0  0  0  0  0  0  0  0  0  0  0
  -20.8859  -25.7397   22.7067 N   0  0  0  0  0  0  0  0  0  0  0  0
  -25.4220  -22.7323   23.5052 N   0  0  0  0  0  0  0  0  0  0  0  0
  -17.4861  -26.0644   22.6998 N   0  3  0  0  0  0  0  0  0  0  0  0
  -19.5605  -24.3595   21.3475 O   0  0  0  0  0  0  0  0  0  0  0  0
  -31.4485  -12.4701   19.0860 H   0  0  0  0  0  0  0  0  0  0  0  0
  -30.3970  -11.2460   19.6950 H   0  0  0  0  0  0  0  0  0  0  0  0
  -29.6870  -11.8204   17.4226 H   0  0  0  0  0  0  0  0  0  0  0  0
  -29.6375  -13.5326   17.8649 H   0  0  0  0  0  0  0  0  0  0  0  0
  -27.7830  -11.3650   18.7904 H   0  0  0  0  0  0  0  0  0  0  0  0
  -27.4028  -12.7801   17.8021 H   0  0  0  0  0  0  0  0  0  0  0  0
  -27.7353  -14.2503   19.6136 H   0  0  0  0  0  0  0  0  0  0  0  0
  -28.5890  -11.9550   21.3832 H   0  0  0  0  0  0  0  0  0  0  0  0
  -28.5005  -13.6134   21.8562 H   0  0  0  0  0  0  0  0  0  0  0  0
  -25.2399   -9.5495   22.4318 H   0  0  0  0  0  0  0  0  0  0  0  0
  -23.9663   -7.5070   22.7297 H   0  0  0  0  0  0  0  0  0  0  0  0
  -21.1515   -8.8641   19.9162 H   0  0  0  0  0  0  0  0  0  0  0  0
  -22.4016  -10.9115   19.6476 H   0  0  0  0  0  0  0  0  0  0  0  0
  -21.2319   -7.5552   23.9750 H   0  0  0  0  0  0  0  0  0  0  0  0
  -21.1589   -6.0228   25.8556 H   0  0  0  0  0  0  0  0  0  0  0  0
  -22.0396   -2.8212   23.2809 H   0  0  0  0  0  0  0  0  0  0  0  0
  -22.4401  -11.9703   22.4008 H   0  0  0  0  0  0  0  0  0  0  0  0
  -21.1493  -13.0679   22.2082 H   0  0  0  0  0  0  0  0  0  0  0  0
  -24.6538  -15.7807   20.5848 H   0  0  0  0  0  0  0  0  0  0  0  0
  -26.2762  -15.5453   20.1156 H   0  0  0  0  0  0  0  0  0  0  0  0
  -26.6778  -32.4663   23.1464 H   0  0  0  0  0  0  0  0  0  0  0  0
  -25.0747  -34.0282   25.0566 H   0  0  0  0  0  0  0  0  0  0  0  0
  -22.7881  -31.3489   21.4131 H   0  0  0  0  0  0  0  0  0  0  0  0
  -23.3854  -35.9823   23.3648 H   0  0  0  0  0  0  0  0  0  0  0  0
  -24.3696  -36.8624   22.2204 H   0  0  0  0  0  0  0  0  0  0  0  0
  -23.7669  -37.6632   23.6516 H   0  0  0  0  0  0  0  0  0  0  0  0
  -25.9445  -31.6237   20.5691 H   0  0  0  0  0  0  0  0  0  0  0  0
  -26.7436  -31.0079   22.0108 H   0  0  0  0  0  0  0  0  0  0  0  0
  -28.0090  -29.1452   21.2057 H   0  0  0  0  0  0  0  0  0  0  0  0
  -26.1369  -26.0560   19.0719 H   0  0  0  0  0  0  0  0  0  0  0  0
  -24.0652  -27.2961   19.0997 H   0  0  0  0  0  0  0  0  0  0  0  0
  -23.6156  -30.5365   19.3930 H   0  0  0  0  0  0  0  0  0  0  0  0
  -22.7355  -29.1425   19.9945 H   0  0  0  0  0  0  0  0  0  0  0  0
  -25.1353  -36.2335   25.0565 H   0  0  0  0  0  0  0  0  0  0  0  0
  -21.0070  -28.3206   24.0793 H   0  0  0  0  0  0  0  0  0  0  0  0
  -20.5555  -26.2518   23.3550 H   0  0  0  0  0  0  0  0  0  0  0  0
  -21.5974  -26.8362   22.0454 H   0  0  0  0  0  0  0  0  0  0  0  0
  -19.6810  -25.6422   21.1488 H   0  0  0  0  0  0  0  0  0  0  0  0
  -19.6406  -27.3343   20.7034 H   0  0  0  0  0  0  0  0  0  0  0  0
  -17.4282  -26.6888   21.4113 H   0  0  0  0  0  0  0  0  0  0  0  0
  -18.0803  -26.0130   22.9049 H   0  0  0  0  0  0  0  0  0  0  0  0
  -19.7265  -30.6774   24.2204 H   0  0  0  0  0  0  0  0  0  0  0  0
  -17.5064  -31.5856   24.4483 H   0  0  0  0  0  0  0  0  0  0  0  0
  -15.5878  -30.2839   23.7407 H   0  0  0  0  0  0  0  0  0  0  0  0
  -15.9120  -28.0941   22.7766 H   0  0  0  0  0  0  0  0  0  0  0  0
  -24.5787  -30.7757   25.6817 H   0  0  0  0  0  0  0  0  0  0  0  0
  -25.0041  -32.2289   26.5536 H   0  0  0  0  0  0  0  0  0  0  0  0
  -25.8166  -30.7245   26.9138 H   0  0  0  0  0  0  0  0  0  0  0  0
  -26.2892  -29.7335   24.0803 H   0  0  0  0  0  0  0  0  0  0  0  0
  -27.4336  -29.7484   25.4006 H   0  0  0  0  0  0  0  0  0  0  0  0
  -27.8466  -30.4994   23.8779 H   0  0  0  0  0  0  0  0  0  0  0  0
  -27.2251  -33.3632   26.1242 H   0  0  0  0  0  0  0  0  0  0  0  0
  -28.3902  -32.6065   25.0645 H   0  0  0  0  0  0  0  0  0  0  0  0
  -27.9772  -31.8555   26.5872 H   0  0  0  0  0  0  0  0  0  0  0  0
  -28.2744  -38.0016   24.6863 H   0  0  0  0  0  0  0  0  0  0  0  0
  -28.0396  -36.2711   24.7461 H   0  0  0  0  0  0  0  0  0  0  0  0
  -27.1773  -37.3087   25.8564 H   0  0  0  0  0  0  0  0  0  0  0  0
  -20.9627  -29.9365   21.7352 H   0  0  0  0  0  0  0  0  0  0  0  0
  -26.0447  -38.2561   24.0273 H   0  0  0  0  0  0  0  0  0  0  0  0
  -23.3346  -22.1042   22.1304 H   0  0  0  0  0  0  0  0  0  0  0  0
  -17.9974  -26.2092   20.0245 H   0  0  0  0  0  0  0  0  0  0  0  0
  -17.6362  -27.8062   20.7426 H   0  0  0  0  0  0  0  0  0  0  0  0
  -19.3864  -28.7154   20.0239 H   0  0  0  0  0  0  0  0  0  0  0  0
  -19.3792  -27.0922   18.9457 H   0  0  0  0  0  0  0  0  0  0  0  0
  -19.1627  -27.3309   22.5331 H   0  0  0  0  0  0  0  0  0  0  0  0
  -22.1510  -27.2734   24.1185 H   0  0  0  0  0  0  0  0  0  0  0  0
  -23.6977  -27.0963   24.8141 H   0  0  0  0  0  0  0  0  0  0  0  0
  -20.8725  -26.6236   23.1401 H   0  0  0  0  0  0  0  0  0  0  0  0
  -25.9459  -23.1630   24.2189 H   0  0  0  0  0  0  0  0  0  0  0  0
  -17.0673  -25.2893   22.1858 H   0  0  0  0  0  0  0  0  0  0  0  0
  -16.8215  -26.8364   22.7518 H   0  0  0  0  0  0  0  0  0  0  0  0
  -17.7251  -25.7575   23.6427 H   0  0  0  0  0  0  0  0  0  0  0  0
  1 25  1  0  0  0  0
  1 30  2  0  0  0  0
  1 83  1  0  0  0  0
  2  3  1  0  0  0  0
  2 25  1  0  0  0  0
  2 86  1  0  0  0  0
  2 87  1  0  0  0  0
  3  4  1  0  0  0  0
  3 88  1  0  0  0  0
  3 89  1  0  0  0  0
  4  5  1  0  0  0  0
  4 90  1  0  0  0  0
  4 91  1  0  0  0  0
  5  6  1  0  0  0  0
  5 26  1  0  0  0  0
  5 92  1  6  0  0  0
  6 25  1  0  0  0  0
  6 93  1  0  0  0  0
  6 94  1  0  0  0  0
  7  8  2  0  0  0  0
  7 26  1  0  0  0  0
  7 29  1  0  0  0  0
  8  9  1  0  0  0  0
  8 22  1  0  0  0  0
  9 10  1  0  0  0  0
  9 27  2  0  0  0  0
 10 11  2  0  0  0  0
 10 15  1  0  0  0  0
 11 12  1  0  0  0  0
 11 95  1  0  0  0  0
 12 13  2  0  0  0  0
 12 96  1  0  0  0  0
 13 14  1  0  0  0  0
 13 31  1  0  0  0  0
 14 15  2  0  0  0  0
 14 97  1  0  0  0  0
 15 98  1  0  0  0  0
 16 17  2  0  0  0  0
 16 21  1  0  0  0  0
 16 31  1  0  0  0  0
 17 18  1  0  0  0  0
 17 99  1  0  0  0  0
 18 19  2  0  0  0  0
 18100  1  0  0  0  0
 19 20  1  0  0  0  0
 19 24  1  0  0  0  0
 20 21  2  0  0  0  0
 20101  1  0  0  0  0
 21 23  1  0  0  0  0
 22 28  1  0  0  0  0
 22 32  2  0  0  0  0
 26 27  1  0  0  0  0
 28102  1  0  0  0  0
 28103  1  0  0  0  0
 29104  1  0  0  0  0
 29105  1  0  0  0  0
 33 34  1  0  0  0  0
 33 66  1  0  0  0  0
 33 70  2  0  0  0  0
 34 36  1  0  0  0  0
 34 59  1  0  0  0  0
 34106  1  6  0  0  0
 35 44  2  0  0  0  0
 35 45  1  0  0  0  0
 35 68  1  0  0  0  0
 36 56  1  0  0  0  0
 36107  1  0  0  0  0
 37 39  1  0  0  0  0
 37 47  1  0  0  0  0
 37 66  1  0  0  0  0
 37108  1  6  0  0  0
 38 43  2  0  0  0  0
 38 46  1  0  0  0  0
 38 47  1  0  0  0  0
 39 64  1  0  0  0  0
 39 67  2  0  0  0  0
 40 52  1  0  0  0  0
 40 53  2  0  0  0  0
 40 58  1  0  0  0  0
 41109  1  0  0  0  0
 41110  1  0  0  0  0
 41111  1  0  0  0  0
 42 43  1  0  0  0  0
 42 66  1  0  0  0  0
 42112  1  0  0  0  0
 42113  1  0  0  0  0
 43 44  1  0  0  0  0
 44114  1  0  0  0  0
 45 46  2  0  0  0  0
 45115  1  0  0  0  0
 46116  1  0  0  0  0
 47117  1  0  0  0  0
 47118  1  0  0  0  0
 48 41  1  0  0  0  0
 48 56  1  0  0  0  0
 48 65  1  0  0  0  0
 48119  1  1  0  0  0
 49 50  1  0  0  0  0
 49 53  1  0  0  0  0
 49 64  1  0  0  0  0
 49120  1  1  0  0  0
 50 51  1  0  0  0  0
 50121  1  0  0  0  0
 50122  1  0  0  0  0
 51 52  1  0  0  0  0
 51123  1  0  0  0  0
 51124  1  0  0  0  0
 52125  1  0  0  0  0
 52126  1  0  0  0  0
 53 54  1  0  0  0  0
 54 55  2  0  0  0  0
 54127  1  0  0  0  0
 55 57  1  0  0  0  0
 55128  1  0  0  0  0
 56 69  2  0  0  0  0
 57 58  2  0  0  0  0
 57129  1  0  0  0  0
 58130  1  0  0  0  0
 59 60  1  0  0  0  0
 59 61  1  0  0  0  0
 59 62  1  0  0  0  0
 60131  1  0  0  0  0
 60132  1  0  0  0  0
 60133  1  0  0  0  0
 61134  1  0  0  0  0
 61135  1  0  0  0  0
 61136  1  0  0  0  0
 62137  1  0  0  0  0
 62138  1  0  0  0  0
 62139  1  0  0  0  0
 63 65  1  0  0  0  0
 63140  1  0  0  0  0
 63141  1  0  0  0  0
 63142  1  0  0  0  0
 64143  1  0  0  0  0
 65144  1  0  0  0  0
 68 77  1  0  0  0  0
 71 72  2  0  0  0  0
 71 79  1  0  0  0  0
 71145  1  0  0  0  0
 72 80  1  0  0  0  0
 72 83  1  0  0  0  0
 73 74  1  0  0  0  0
 73 79  2  0  0  0  0
 73 82  1  0  0  0  0
 74 80  2  0  0  0  0
 74 81  1  0  0  0  0
 75 78  1  0  0  0  0
 75 82  1  0  0  0  0
 75 85  2  0  0  0  0
 76 77  1  0  0  0  0
 76 78  1  0  0  0  0
 76146  1  0  0  0  0
 76147  1  0  0  0  0
 77148  1  0  0  0  0
 77149  1  0  0  0  0
 78 84  1  0  0  0  0
 78150  1  1  0  0  0
 81151  1  0  0  0  0
 81152  1  0  0  0  0
 82153  1  0  0  0  0
 83154  1  0  0  0  0
 84155  1  0  0  0  0
 84156  1  0  0  0  0
 84157  1  0  0  0  0
M  ISO  4   1 100  68 101  77 101  83 100
M  CHG  1  84   1
M  END
$$$$
80
 OpenBabel04052305473D

158166  0  0  0  0  0  0  0  0999 V2000
  -30.7652  -14.3608   20.6636 C   0  0  0  0  0  0  0  0  0  0  0  0
  -30.4392  -12.2669   19.3775 C   0  0  0  0  0  0  0  0  0  0  0  0
  -29.4791  -12.5281   18.1977 C   0  0  0  0  0  0  0  0  0  0  0  0
  -27.9985  -12.3963   18.6038 C   0  0  0  0  0  0  0  0  0  0  0  0
  -27.6639  -13.2170   19.8820 C   0  0  2  0  0  0  0  0  0  0  0  0
  -28.6795  -12.9602   21.0279 C   0  0  0  0  0  0  0  0  0  0  0  0
  -25.2633  -13.8245   20.5754 C   0  0  0  0  0  0  0  0  0  0  0  0
  -24.1645  -13.0409   20.9408 C   0  0  0  0  0  0  0  0  0  0  0  0
  -24.6400  -11.7009   20.8697 C   0  0  0  0  0  0  0  0  0  0  0  0
  -23.9005  -10.4085   21.0420 C   0  0  0  0  0  0  0  0  0  0  0  0
  -24.3588   -9.4123   21.9123 C   0  0  0  0  0  0  0  0  0  0  0  0
  -23.6296   -8.2350   22.0803 C   0  0  0  0  0  0  0  0  0  0  0  0
  -22.4385   -8.0419   21.3657 C   0  0  0  0  0  0  0  0  0  0  0  0
  -22.0103   -9.0167   20.4678 C   0  0  0  0  0  0  0  0  0  0  0  0
  -22.7317  -10.1925   20.3102 C   0  0  0  0  0  0  0  0  0  0  0  0
  -21.6857   -6.0709   22.5391 C   0  0  0  0  0  0  0  0  0  0  0  0
  -21.4064   -6.5490   23.8264 C   0  0  0  0  0  0  0  0  0  0  0  0
  -21.3635   -5.6677   24.9085 C   0  0  0  0  0  0  0  0  0  0  0  0
  -21.5973   -4.3067   24.7088 C   0  0  0  0  0  0  0  0  0  0  0  0
  -21.8700   -3.8284   23.4282 C   0  0  0  0  0  0  0  0  0  0  0  0
  -21.9144   -4.7056   22.3460 C   0  0  0  0  0  0  0  0  0  0  0  0
  -22.8194  -13.5263   21.1763 C   0  0  0  0  0  0  0  0  0  0  0  0
  -22.1559   -4.2206   21.1063 F   0  0  0  0  0  0  0  0  0  0  0  0
  -21.5628   -3.4510   25.7555 F   0  0  0  0  0  0  0  0  0  0  0  0
  -30.0261  -13.1803   20.4553 N   0  0  0  0  0  0  0  0  0  0  0  0
  -26.2911  -12.9356   20.3443 N   0  0  0  0  0  0  0  0  0  0  0  0
  -25.9236  -11.6675   20.5847 N   0  0  0  0  0  0  0  0  0  0  0  0
  -22.0708  -12.7905   22.0005 N   0  0  0  0  0  0  0  0  0  0  0  0
  -25.4117  -15.1773   20.4097 N   0  0  0  0  0  0  0  0  0  0  0  0
  -31.7916  -14.6724   20.0536 O   0  0  0  0  0  0  0  0  0  0  0  0
  -21.6670   -6.9022   21.4423 O   0  0  0  0  0  0  0  0  0  0  0  0
  -22.3946  -14.5564   20.6568 O   0  0  0  0  0  0  0  0  0  0  0  0
  -24.6048  -31.8614   23.2223 C   0  0  0  0  0  0  0  0  0  0  0  0
  -25.8822  -32.4841   23.8616 C   0  0  1  0  0  0  0  0  0  0  0  0
  -27.2536  -27.5042   20.1156 C   0  0  0  0  0  0  0  0  0  0  0  0
  -25.5726  -33.8762   24.2210 N   0  0  0  0  0  0  0  0  0  0  0  0
  -23.4066  -30.4859   21.5461 C   0  0  2  0  0  0  0  0  0  0  0  0
  -24.8467  -28.9636   20.1247 C   0  0  0  0  0  0  0  0  0  0  0  0
  -22.7412  -29.4652   22.5052 C   0  0  0  0  0  0  0  0  0  0  0  0
  -18.0167  -28.1302   22.8626 C   0  0  0  0  0  0  0  0  0  0  0  0
  -24.1342  -36.7390   23.2568 C   0  0  0  0  0  0  0  0  0  0  0  0
  -25.9141  -30.8882   21.3456 C   0  0  0  0  0  0  0  0  0  0  0  0
  -25.9930  -29.5029   20.7208 C   0  0  0  0  0  0  0  0  0  0  0  0
  -27.1758  -28.7612   20.7331 C   0  0  0  0  0  0  0  0  0  0  0  0
  -26.1032  -26.9836   19.5230 C   0  0  0  0  0  0  0  0  0  0  0  0
  -24.9097  -27.7011   19.5331 C   0  0  0  0  0  0  0  0  0  0  0  0
  -23.5715  -29.7899   20.1582 C   0  0  0  0  0  0  0  0  0  0  0  0
  -25.3990  -36.3212   24.0232 C   0  0  1  0  0  0  0  0  0  0  0  0
  -20.5793  -28.3813   23.1004 C   0  0  2  0  0  0  0  0  0  0  0  0
  -20.6548  -26.9392   22.5411 C   0  0  0  0  0  0  0  0  0  0  0  0
  -19.5615  -26.6407   21.5143 C   0  0  0  0  0  0  0  0  0  0  0  0
  -18.1797  -26.7818   22.1673 C   0  0  0  0  0  0  0  0  0  0  0  0
  -19.1385  -28.8769   23.2988 C   0  0  0  0  0  0  0  0  0  0  0  0
  -18.9183  -30.1286   23.8878 C   0  0  0  0  0  0  0  0  0  0  0  0
  -17.6396  -30.6493   24.0352 C   0  0  0  0  0  0  0  0  0  0  0  0
  -25.9153  -34.9582   23.4993 C   0  0  0  0  0  0  0  0  0  0  0  0
  -16.5415  -29.9068   23.6254 C   0  0  0  0  0  0  0  0  0  0  0  0
  -16.7331  -28.6521   23.0586 C   0  0  0  0  0  0  0  0  0  0  0  0
  -26.4583  -31.6439   25.0683 C   0  0  0  0  0  0  0  0  0  0  0  0
  -25.3807  -31.3179   26.1374 C   0  0  0  0  0  0  0  0  0  0  0  0
  -27.0530  -30.3024   24.5680 C   0  0  0  0  0  0  0  0  0  0  0  0
  -27.6014  -32.4281   25.7651 C   0  0  0  0  0  0  0  0  0  0  0  0
  -27.5629  -37.2220   24.8621 C   0  0  0  0  0  0  0  0  0  0  0  0
  -21.4133  -29.3375   22.3735 N   0  0  0  0  0  0  0  0  0  0  0  0
  -26.4706  -37.3372   23.9061 N   0  0  0  0  0  0  0  0  0  0  0  0
  -24.6674  -31.0544   22.1178 N   0  0  0  0  0  0  0  0  0  0  0  0
  -23.4259  -28.8150   23.2971 O   0  0  0  0  0  0  0  0  0  0  0  0
  -28.3948  -26.7345   20.0089 O   0  0  0  0  0  0  0  0  0  0  0  0
  -26.5870  -34.9065   22.4671 O   0  0  0  0  0  0  0  0  0  0  0  0
  -23.5365  -32.1254   23.7833 O   0  0  0  0  0  0  0  0  0  0  0  0
  -27.3885  -19.2573   18.6099 C   0  0  0  0  0  0  0  0  0  0  0  0
  -27.4614  -21.4867   18.1061 C   0  0  0  0  0  0  0  0  0  0  0  0
  -28.6066  -19.3608   19.2447 C   0  0  0  0  0  0  0  0  0  0  0  0
  -28.6792  -21.5905   18.7415 C   0  0  0  0  0  0  0  0  0  0  0  0
  -26.7880  -22.6443   17.4589 C   0  0  0  0  0  0  0  0  0  0  0  0
  -26.3015  -24.9533   17.2808 C   0  0  0  0  0  0  0  0  0  0  0  0
  -26.1978  -26.2620   19.4686 C   0  0  0  0  0  0  0  0  0  0  0  0
  -26.6147  -26.2614   18.0009 C   0  0  1  0  0  0  0  0  0  0  0  0
  -26.7941  -20.3183   18.0291 N   0  0  0  0  0  0  0  0  0  0  0  0
  -29.2738  -20.5294   19.3220 N   0  0  0  0  0  0  0  0  0  0  0  0
  -26.9794  -23.8259   17.9272 N   0  0  0  0  0  0  0  0  0  0  0  0
  -29.3298  -22.8442   18.7893 N   0  0  0  0  0  0  0  0  0  0  0  0
  -25.9771  -22.3452   16.3828 N   0  0  0  0  0  0  0  0  0  0  0  0
  -29.1651  -18.1979   19.8306 N   0  0  0  0  0  0  0  0  0  0  0  0
  -28.0843  -26.5134   17.9247 N   0  3  0  0  0  0  0  0  0  0  0  0
  -31.4485  -12.4701   19.0860 H   0  0  0  0  0  0  0  0  0  0  0  0
  -30.3970  -11.2460   19.6950 H   0  0  0  0  0  0  0  0  0  0  0  0
  -29.6870  -11.8204   17.4226 H   0  0  0  0  0  0  0  0  0  0  0  0
  -29.6375  -13.5326   17.8649 H   0  0  0  0  0  0  0  0  0  0  0  0
  -27.7830  -11.3650   18.7904 H   0  0  0  0  0  0  0  0  0  0  0  0
  -27.4028  -12.7801   17.8021 H   0  0  0  0  0  0  0  0  0  0  0  0
  -27.7353  -14.2503   19.6136 H   0  0  0  0  0  0  0  0  0  0  0  0
  -28.5890  -11.9550   21.3832 H   0  0  0  0  0  0  0  0  0  0  0  0
  -28.5005  -13.6134   21.8562 H   0  0  0  0  0  0  0  0  0  0  0  0
  -25.2399   -9.5495   22.4318 H   0  0  0  0  0  0  0  0  0  0  0  0
  -23.9663   -7.5070   22.7297 H   0  0  0  0  0  0  0  0  0  0  0  0
  -21.1515   -8.8641   19.9162 H   0  0  0  0  0  0  0  0  0  0  0  0
  -22.4016  -10.9115   19.6476 H   0  0  0  0  0  0  0  0  0  0  0  0
  -21.2319   -7.5552   23.9750 H   0  0  0  0  0  0  0  0  0  0  0  0
  -21.1589   -6.0228   25.8556 H   0  0  0  0  0  0  0  0  0  0  0  0
  -22.0396   -2.8212   23.2809 H   0  0  0  0  0  0  0  0  0  0  0  0
  -22.4401  -11.9703   22.4008 H   0  0  0  0  0  0  0  0  0  0  0  0
  -21.1493  -13.0679   22.2082 H   0  0  0  0  0  0  0  0  0  0  0  0
  -24.6538  -15.7807   20.5848 H   0  0  0  0  0  0  0  0  0  0  0  0
  -26.2762  -15.5453   20.1156 H   0  0  0  0  0  0  0  0  0  0  0  0
  -26.6778  -32.4663   23.1464 H   0  0  0  0  0  0  0  0  0  0  0  0
  -25.0747  -34.0282   25.0566 H   0  0  0  0  0  0  0  0  0  0  0  0
  -22.7881  -31.3489   21.4131 H   0  0  0  0  0  0  0  0  0  0  0  0
  -23.3854  -35.9823   23.3648 H   0  0  0  0  0  0  0  0  0  0  0  0
  -24.3696  -36.8624   22.2204 H   0  0  0  0  0  0  0  0  0  0  0  0
  -23.7669  -37.6632   23.6516 H   0  0  0  0  0  0  0  0  0  0  0  0
  -25.9445  -31.6237   20.5691 H   0  0  0  0  0  0  0  0  0  0  0  0
  -26.7436  -31.0079   22.0108 H   0  0  0  0  0  0  0  0  0  0  0  0
  -28.0090  -29.1452   21.2057 H   0  0  0  0  0  0  0  0  0  0  0  0
  -26.1369  -26.0560   19.0719 H   0  0  0  0  0  0  0  0  0  0  0  0
  -24.0652  -27.2961   19.0997 H   0  0  0  0  0  0  0  0  0  0  0  0
  -23.6156  -30.5365   19.3930 H   0  0  0  0  0  0  0  0  0  0  0  0
  -22.7355  -29.1425   19.9945 H   0  0  0  0  0  0  0  0  0  0  0  0
  -25.1353  -36.2335   25.0565 H   0  0  0  0  0  0  0  0  0  0  0  0
  -21.0070  -28.3206   24.0793 H   0  0  0  0  0  0  0  0  0  0  0  0
  -20.5555  -26.2518   23.3550 H   0  0  0  0  0  0  0  0  0  0  0  0
  -21.5974  -26.8362   22.0454 H   0  0  0  0  0  0  0  0  0  0  0  0
  -19.6810  -25.6422   21.1488 H   0  0  0  0  0  0  0  0  0  0  0  0
  -19.6406  -27.3343   20.7034 H   0  0  0  0  0  0  0  0  0  0  0  0
  -17.4282  -26.6888   21.4113 H   0  0  0  0  0  0  0  0  0  0  0  0
  -18.0803  -26.0130   22.9049 H   0  0  0  0  0  0  0  0  0  0  0  0
  -19.7265  -30.6774   24.2204 H   0  0  0  0  0  0  0  0  0  0  0  0
  -17.5064  -31.5856   24.4483 H   0  0  0  0  0  0  0  0  0  0  0  0
  -15.5878  -30.2839   23.7407 H   0  0  0  0  0  0  0  0  0  0  0  0
  -15.9120  -28.0941   22.7766 H   0  0  0  0  0  0  0  0  0  0  0  0
  -24.5787  -30.7757   25.6817 H   0  0  0  0  0  0  0  0  0  0  0  0
  -25.0041  -32.2289   26.5536 H   0  0  0  0  0  0  0  0  0  0  0  0
  -25.8166  -30.7245   26.9138 H   0  0  0  0  0  0  0  0  0  0  0  0
  -26.2892  -29.7335   24.0803 H   0  0  0  0  0  0  0  0  0  0  0  0
  -27.4336  -29.7484   25.4006 H   0  0  0  0  0  0  0  0  0  0  0  0
  -27.8466  -30.4994   23.8779 H   0  0  0  0  0  0  0  0  0  0  0  0
  -27.2251  -33.3632   26.1242 H   0  0  0  0  0  0  0  0  0  0  0  0
  -28.3902  -32.6065   25.0645 H   0  0  0  0  0  0  0  0  0  0  0  0
  -27.9772  -31.8555   26.5872 H   0  0  0  0  0  0  0  0  0  0  0  0
  -28.2744  -38.0016   24.6863 H   0  0  0  0  0  0  0  0  0  0  0  0
  -28.0396  -36.2711   24.7461 H   0  0  0  0  0  0  0  0  0  0  0  0
  -27.1773  -37.3087   25.8564 H   0  0  0  0  0  0  0  0  0  0  0  0
  -20.9627  -29.9365   21.7352 H   0  0  0  0  0  0  0  0  0  0  0  0
  -26.0447  -38.2561   24.0273 H   0  0  0  0  0  0  0  0  0  0  0  0
  -26.9170  -18.3399   18.5781 H   0  0  0  0  0  0  0  0  0  0  0  0
  -26.6309  -25.0247   16.2653 H   0  0  0  0  0  0  0  0  0  0  0  0
  -25.2455  -24.7856   17.3199 H   0  0  0  0  0  0  0  0  0  0  0  0
  -25.8441  -25.3192   19.8305 H   0  0  0  0  0  0  0  0  0  0  0  0
  -25.3924  -26.8725   19.8202 H   0  0  0  0  0  0  0  0  0  0  0  0
  -26.0511  -27.0282   17.5118 H   0  0  0  0  0  0  0  0  0  0  0  0
  -28.9122  -23.6317   18.3713 H   0  0  0  0  0  0  0  0  0  0  0  0
  -30.2006  -22.9300   19.2406 H   0  0  0  0  0  0  0  0  0  0  0  0
  -25.8815  -21.4124   16.0828 H   0  0  0  0  0  0  0  0  0  0  0  0
  -25.4943  -23.0646   15.9153 H   0  0  0  0  0  0  0  0  0  0  0  0
  -29.2359  -18.5531   20.7460 H   0  0  0  0  0  0  0  0  0  0  0  0
  -28.5832  -25.7621   18.4012 H   0  0  0  0  0  0  0  0  0  0  0  0
  -28.3004  -27.4033   18.3738 H   0  0  0  0  0  0  0  0  0  0  0  0
  -28.3733  -26.5469   16.9471 H   0  0  0  0  0  0  0  0  0  0  0  0
  1 25  1  0  0  0  0
  1 30  2  0  0  0  0
  1 84  1  0  0  0  0
  2  3  1  0  0  0  0
  2 25  1  0  0  0  0
  2 86  1  0  0  0  0
  2 87  1  0  0  0  0
  3  4  1  0  0  0  0
  3 88  1  0  0  0  0
  3 89  1  0  0  0  0
  4  5  1  0  0  0  0
  4 90  1  0  0  0  0
  4 91  1  0  0  0  0
  5  6  1  0  0  0  0
  5 26  1  0  0  0  0
  5 92  1  6  0  0  0
  6 25  1  0  0  0  0
  6 93  1  0  0  0  0
  6 94  1  0  0  0  0
  7  8  2  0  0  0  0
  7 26  1  0  0  0  0
  7 29  1  0  0  0  0
  8  9  1  0  0  0  0
  8 22  1  0  0  0  0
  9 10  1  0  0  0  0
  9 27  2  0  0  0  0
 10 11  2  0  0  0  0
 10 15  1  0  0  0  0
 11 12  1  0  0  0  0
 11 95  1  0  0  0  0
 12 13  2  0  0  0  0
 12 96  1  0  0  0  0
 13 14  1  0  0  0  0
 13 31  1  0  0  0  0
 14 15  2  0  0  0  0
 14 97  1  0  0  0  0
 15 98  1  0  0  0  0
 16 17  2  0  0  0  0
 16 21  1  0  0  0  0
 16 31  1  0  0  0  0
 17 18  1  0  0  0  0
 17 99  1  0  0  0  0
 18 19  2  0  0  0  0
 18100  1  0  0  0  0
 19 20  1  0  0  0  0
 19 24  1  0  0  0  0
 20 21  2  0  0  0  0
 20101  1  0  0  0  0
 21 23  1  0  0  0  0
 22 28  1  0  0  0  0
 22 32  2  0  0  0  0
 26 27  1  0  0  0  0
 28102  1  0  0  0  0
 28103  1  0  0  0  0
 29104  1  0  0  0  0
 29105  1  0  0  0  0
 33 34  1  0  0  0  0
 33 66  1  0  0  0  0
 33 70  2  0  0  0  0
 34 36  1  0  0  0  0
 34 59  1  0  0  0  0
 34106  1  6  0  0  0
 35 44  2  0  0  0  0
 35 45  1  0  0  0  0
 35 68  1  0  0  0  0
 36 56  1  0  0  0  0
 36107  1  0  0  0  0
 37 39  1  0  0  0  0
 37 47  1  0  0  0  0
 37 66  1  0  0  0  0
 37108  1  6  0  0  0
 38 43  2  0  0  0  0
 38 46  1  0  0  0  0
 38 47  1  0  0  0  0
 39 64  1  0  0  0  0
 39 67  2  0  0  0  0
 40 52  1  0  0  0  0
 40 53  2  0  0  0  0
 40 58  1  0  0  0  0
 41109  1  0  0  0  0
 41110  1  0  0  0  0
 41111  1  0  0  0  0
 42 43  1  0  0  0  0
 42 66  1  0  0  0  0
 42112  1  0  0  0  0
 42113  1  0  0  0  0
 43 44  1  0  0  0  0
 44114  1  0  0  0  0
 45 46  2  0  0  0  0
 45115  1  0  0  0  0
 46116  1  0  0  0  0
 47117  1  0  0  0  0
 47118  1  0  0  0  0
 48 41  1  0  0  0  0
 48 56  1  0  0  0  0
 48 65  1  0  0  0  0
 48119  1  1  0  0  0
 49 50  1  0  0  0  0
 49 53  1  0  0  0  0
 49 64  1  0  0  0  0
 49120  1  1  0  0  0
 50 51  1  0  0  0  0
 50121  1  0  0  0  0
 50122  1  0  0  0  0
 51 52  1  0  0  0  0
 51123  1  0  0  0  0
 51124  1  0  0  0  0
 52125  1  0  0  0  0
 52126  1  0  0  0  0
 53 54  1  0  0  0  0
 54 55  2  0  0  0  0
 54127  1  0  0  0  0
 55 57  1  0  0  0  0
 55128  1  0  0  0  0
 56 69  2  0  0  0  0
 57 58  2  0  0  0  0
 57129  1  0  0  0  0
 58130  1  0  0  0  0
 59 60  1  0  0  0  0
 59 61  1  0  0  0  0
 59 62  1  0  0  0  0
 60131  1  0  0  0  0
 60132  1  0  0  0  0
 60133  1  0  0  0  0
 61134  1  0  0  0  0
 61135  1  0  0  0  0
 61136  1  0  0  0  0
 62137  1  0  0  0  0
 62138  1  0  0  0  0
 62139  1  0  0  0  0
 63 65  1  0  0  0  0
 63140  1  0  0  0  0
 63141  1  0  0  0  0
 63142  1  0  0  0  0
 64143  1  0  0  0  0
 65144  1  0  0  0  0
 68 77  1  0  0  0  0
 71 73  2  0  0  0  0
 71 79  1  0  0  0  0
 71145  1  0  0  0  0
 72 74  1  0  0  0  0
 72 75  1  0  0  0  0
 72 79  2  0  0  0  0
 73 80  1  0  0  0  0
 73 84  1  0  0  0  0
 74 80  2  0  0  0  0
 74 82  1  0  0  0  0
 75 81  2  0  0  0  0
 75 83  1  0  0  0  0
 76 78  1  0  0  0  0
 76 81  1  0  0  0  0
 76146  1  0  0  0  0
 76147  1  0  0  0  0
 77 78  1  0  0  0  0
 77148  1  0  0  0  0
 77149  1  0  0  0  0
 78 85  1  0  0  0  0
 78150  1  6  0  0  0
 82151  1  0  0  0  0
 82152  1  0  0  0  0
 83153  1  0  0  0  0
 83154  1  0  0  0  0
 84155  1  0  0  0  0
 85156  1  0  0  0  0
 85157  1  0  0  0  0
 85158  1  0  0  0  0
M  ISO  4   1 100  68 101  77 101  84 100
M  CHG  1  85   1
M  END
$$$$
81
 OpenBabel04052305473D

159167  0  0  0  0  0  0  0  0999 V2000
  -30.7652  -14.3608   20.6636 C   0  0  0  0  0  0  0  0  0  0  0  0
  -30.4392  -12.2669   19.3775 C   0  0  0  0  0  0  0  0  0  0  0  0
  -29.4791  -12.5281   18.1977 C   0  0  0  0  0  0  0  0  0  0  0  0
  -27.9985  -12.3963   18.6038 C   0  0  0  0  0  0  0  0  0  0  0  0
  -27.6639  -13.2170   19.8820 C   0  0  2  0  0  0  0  0  0  0  0  0
  -28.6795  -12.9602   21.0279 C   0  0  0  0  0  0  0  0  0  0  0  0
  -25.2633  -13.8245   20.5754 C   0  0  0  0  0  0  0  0  0  0  0  0
  -24.1645  -13.0409   20.9408 C   0  0  0  0  0  0  0  0  0  0  0  0
  -24.6400  -11.7009   20.8697 C   0  0  0  0  0  0  0  0  0  0  0  0
  -23.9005  -10.4085   21.0420 C   0  0  0  0  0  0  0  0  0  0  0  0
  -24.3588   -9.4123   21.9123 C   0  0  0  0  0  0  0  0  0  0  0  0
  -23.6296   -8.2350   22.0803 C   0  0  0  0  0  0  0  0  0  0  0  0
  -22.4385   -8.0419   21.3657 C   0  0  0  0  0  0  0  0  0  0  0  0
  -22.0103   -9.0167   20.4678 C   0  0  0  0  0  0  0  0  0  0  0  0
  -22.7317  -10.1925   20.3102 C   0  0  0  0  0  0  0  0  0  0  0  0
  -21.6857   -6.0709   22.5391 C   0  0  0  0  0  0  0  0  0  0  0  0
  -21.4064   -6.5490   23.8264 C   0  0  0  0  0  0  0  0  0  0  0  0
  -21.3635   -5.6677   24.9085 C   0  0  0  0  0  0  0  0  0  0  0  0
  -21.5973   -4.3067   24.7088 C   0  0  0  0  0  0  0  0  0  0  0  0
  -21.8700   -3.8284   23.4282 C   0  0  0  0  0  0  0  0  0  0  0  0
  -21.9144   -4.7056   22.3460 C   0  0  0  0  0  0  0  0  0  0  0  0
  -22.8194  -13.5263   21.1763 C   0  0  0  0  0  0  0  0  0  0  0  0
  -22.1559   -4.2206   21.1063 F   0  0  0  0  0  0  0  0  0  0  0  0
  -21.5628   -3.4510   25.7555 F   0  0  0  0  0  0  0  0  0  0  0  0
  -30.0261  -13.1803   20.4553 N   0  0  0  0  0  0  0  0  0  0  0  0
  -26.2911  -12.9356   20.3443 N   0  0  0  0  0  0  0  0  0  0  0  0
  -25.9236  -11.6675   20.5847 N   0  0  0  0  0  0  0  0  0  0  0  0
  -22.0708  -12.7905   22.0005 N   0  0  0  0  0  0  0  0  0  0  0  0
  -25.4117  -15.1773   20.4097 N   0  0  0  0  0  0  0  0  0  0  0  0
  -31.7916  -14.6724   20.0536 O   0  0  0  0  0  0  0  0  0  0  0  0
  -21.6670   -6.9022   21.4423 O   0  0  0  0  0  0  0  0  0  0  0  0
  -22.3946  -14.5564   20.6568 O   0  0  0  0  0  0  0  0  0  0  0  0
  -24.6048  -31.8614   23.2223 C   0  0  0  0  0  0  0  0  0  0  0  0
  -25.8822  -32.4841   23.8616 C   0  0  1  0  0  0  0  0  0  0  0  0
  -27.2536  -27.5042   20.1156 C   0  0  0  0  0  0  0  0  0  0  0  0
  -25.5726  -33.8762   24.2210 N   0  0  0  0  0  0  0  0  0  0  0  0
  -23.4066  -30.4859   21.5461 C   0  0  2  0  0  0  0  0  0  0  0  0
  -24.8467  -28.9636   20.1247 C   0  0  0  0  0  0  0  0  0  0  0  0
  -22.7412  -29.4652   22.5052 C   0  0  0  0  0  0  0  0  0  0  0  0
  -18.0167  -28.1302   22.8626 C   0  0  0  0  0  0  0  0  0  0  0  0
  -24.1342  -36.7390   23.2568 C   0  0  0  0  0  0  0  0  0  0  0  0
  -25.9141  -30.8882   21.3456 C   0  0  0  0  0  0  0  0  0  0  0  0
  -25.9930  -29.5029   20.7208 C   0  0  0  0  0  0  0  0  0  0  0  0
  -27.1758  -28.7612   20.7331 C   0  0  0  0  0  0  0  0  0  0  0  0
  -26.1032  -26.9836   19.5230 C   0  0  0  0  0  0  0  0  0  0  0  0
  -24.9097  -27.7011   19.5331 C   0  0  0  0  0  0  0  0  0  0  0  0
  -23.5715  -29.7899   20.1582 C   0  0  0  0  0  0  0  0  0  0  0  0
  -25.3990  -36.3212   24.0232 C   0  0  1  0  0  0  0  0  0  0  0  0
  -20.5793  -28.3813   23.1004 C   0  0  2  0  0  0  0  0  0  0  0  0
  -20.6548  -26.9392   22.5411 C   0  0  0  0  0  0  0  0  0  0  0  0
  -19.5615  -26.6407   21.5143 C   0  0  0  0  0  0  0  0  0  0  0  0
  -18.1797  -26.7818   22.1673 C   0  0  0  0  0  0  0  0  0  0  0  0
  -19.1385  -28.8769   23.2988 C   0  0  0  0  0  0  0  0  0  0  0  0
  -18.9183  -30.1286   23.8878 C   0  0  0  0  0  0  0  0  0  0  0  0
  -17.6396  -30.6493   24.0352 C   0  0  0  0  0  0  0  0  0  0  0  0
  -25.9153  -34.9582   23.4993 C   0  0  0  0  0  0  0  0  0  0  0  0
  -16.5415  -29.9068   23.6254 C   0  0  0  0  0  0  0  0  0  0  0  0
  -16.7331  -28.6521   23.0586 C   0  0  0  0  0  0  0  0  0  0  0  0
  -26.4583  -31.6439   25.0683 C   0  0  0  0  0  0  0  0  0  0  0  0
  -25.3807  -31.3179   26.1374 C   0  0  0  0  0  0  0  0  0  0  0  0
  -27.0530  -30.3024   24.5680 C   0  0  0  0  0  0  0  0  0  0  0  0
  -27.6014  -32.4281   25.7651 C   0  0  0  0  0  0  0  0  0  0  0  0
  -27.5629  -37.2220   24.8621 C   0  0  0  0  0  0  0  0  0  0  0  0
  -21.4133  -29.3375   22.3735 N   0  0  0  0  0  0  0  0  0  0  0  0
  -26.4706  -37.3372   23.9061 N   0  0  0  0  0  0  0  0  0  0  0  0
  -24.6674  -31.0544   22.1178 N   0  0  0  0  0  0  0  0  0  0  0  0
  -23.4259  -28.8150   23.2971 O   0  0  0  0  0  0  0  0  0  0  0  0
  -28.3948  -26.7345   20.0089 O   0  0  0  0  0  0  0  0  0  0  0  0
  -26.5870  -34.9065   22.4671 O   0  0  0  0  0  0  0  0  0  0  0  0
  -23.5365  -32.1254   23.7833 O   0  0  0  0  0  0  0  0  0  0  0  0
  -29.9806  -23.3867   18.7924 C   0  0  0  0  0  0  0  0  0  0  0  0
  -31.3328  -23.4788   19.2002 C   0  0  0  0  0  0  0  0  0  0  0  0
  -31.5812  -22.3566   19.9558 C   0  0  0  0  0  0  0  0  0  0  0  0
  -29.4992  -22.2147   19.3277 C   0  0  0  0  0  0  0  0  0  0  0  0
  -32.7721  -21.8559   20.6584 C   0  0  0  0  0  0  0  0  0  0  0  0
  -32.3018  -24.5861   18.8706 C   0  0  0  0  0  0  0  0  0  0  0  0
  -32.4882  -25.6082   20.0018 C   0  0  0  0  0  0  0  0  0  0  0  0
  -30.5837  -27.1428   19.3481 C   0  0  0  0  0  0  0  0  0  0  0  0
  -29.2605  -27.8174   19.7014 C   0  0  0  0  0  0  0  0  0  0  0  0
  -31.2067  -26.3110   20.4822 C   0  0  2  0  0  0  0  0  0  0  0  0
  -28.2226  -21.6038   19.2570 N   0  0  0  0  0  0  0  0  0  0  0  0
  -31.5351  -27.2088   21.6257 N   0  3  0  0  0  0  0  0  0  0  0  0
  -30.4686  -21.5807   20.0382 O   0  0  0  0  0  0  0  0  0  0  0  0
  -31.4485  -12.4701   19.0860 H   0  0  0  0  0  0  0  0  0  0  0  0
  -30.3970  -11.2460   19.6950 H   0  0  0  0  0  0  0  0  0  0  0  0
  -29.6870  -11.8204   17.4226 H   0  0  0  0  0  0  0  0  0  0  0  0
  -29.6375  -13.5326   17.8649 H   0  0  0  0  0  0  0  0  0  0  0  0
  -27.7830  -11.3650   18.7904 H   0  0  0  0  0  0  0  0  0  0  0  0
  -27.4028  -12.7801   17.8021 H   0  0  0  0  0  0  0  0  0  0  0  0
  -27.7353  -14.2503   19.6136 H   0  0  0  0  0  0  0  0  0  0  0  0
  -28.5890  -11.9550   21.3832 H   0  0  0  0  0  0  0  0  0  0  0  0
  -28.5005  -13.6134   21.8562 H   0  0  0  0  0  0  0  0  0  0  0  0
  -25.2399   -9.5495   22.4318 H   0  0  0  0  0  0  0  0  0  0  0  0
  -23.9663   -7.5070   22.7297 H   0  0  0  0  0  0  0  0  0  0  0  0
  -21.1515   -8.8641   19.9162 H   0  0  0  0  0  0  0  0  0  0  0  0
  -22.4016  -10.9115   19.6476 H   0  0  0  0  0  0  0  0  0  0  0  0
  -21.2319   -7.5552   23.9750 H   0  0  0  0  0  0  0  0  0  0  0  0
  -21.1589   -6.0228   25.8556 H   0  0  0  0  0  0  0  0  0  0  0  0
  -22.0396   -2.8212   23.2809 H   0  0  0  0  0  0  0  0  0  0  0  0
  -22.4401  -11.9703   22.4008 H   0  0  0  0  0  0  0  0  0  0  0  0
  -21.1493  -13.0679   22.2082 H   0  0  0  0  0  0  0  0  0  0  0  0
  -24.6538  -15.7807   20.5848 H   0  0  0  0  0  0  0  0  0  0  0  0
  -26.2762  -15.5453   20.1156 H   0  0  0  0  0  0  0  0  0  0  0  0
  -26.6778  -32.4663   23.1464 H   0  0  0  0  0  0  0  0  0  0  0  0
  -25.0747  -34.0282   25.0566 H   0  0  0  0  0  0  0  0  0  0  0  0
  -22.7881  -31.3489   21.4131 H   0  0  0  0  0  0  0  0  0  0  0  0
  -23.3854  -35.9823   23.3648 H   0  0  0  0  0  0  0  0  0  0  0  0
  -24.3696  -36.8624   22.2204 H   0  0  0  0  0  0  0  0  0  0  0  0
  -23.7669  -37.6632   23.6516 H   0  0  0  0  0  0  0  0  0  0  0  0
  -25.9445  -31.6237   20.5691 H   0  0  0  0  0  0  0  0  0  0  0  0
  -26.7436  -31.0079   22.0108 H   0  0  0  0  0  0  0  0  0  0  0  0
  -28.0090  -29.1452   21.2057 H   0  0  0  0  0  0  0  0  0  0  0  0
  -26.1369  -26.0560   19.0719 H   0  0  0  0  0  0  0  0  0  0  0  0
  -24.0652  -27.2961   19.0997 H   0  0  0  0  0  0  0  0  0  0  0  0
  -23.6156  -30.5365   19.3930 H   0  0  0  0  0  0  0  0  0  0  0  0
  -22.7355  -29.1425   19.9945 H   0  0  0  0  0  0  0  0  0  0  0  0
  -25.1353  -36.2335   25.0565 H   0  0  0  0  0  0  0  0  0  0  0  0
  -21.0070  -28.3206   24.0793 H   0  0  0  0  0  0  0  0  0  0  0  0
  -20.5555  -26.2518   23.3550 H   0  0  0  0  0  0  0  0  0  0  0  0
  -21.5974  -26.8362   22.0454 H   0  0  0  0  0  0  0  0  0  0  0  0
  -19.6810  -25.6422   21.1488 H   0  0  0  0  0  0  0  0  0  0  0  0
  -19.6406  -27.3343   20.7034 H   0  0  0  0  0  0  0  0  0  0  0  0
  -17.4282  -26.6888   21.4113 H   0  0  0  0  0  0  0  0  0  0  0  0
  -18.0803  -26.0130   22.9049 H   0  0  0  0  0  0  0  0  0  0  0  0
  -19.7265  -30.6774   24.2204 H   0  0  0  0  0  0  0  0  0  0  0  0
  -17.5064  -31.5856   24.4483 H   0  0  0  0  0  0  0  0  0  0  0  0
  -15.5878  -30.2839   23.7407 H   0  0  0  0  0  0  0  0  0  0  0  0
  -15.9120  -28.0941   22.7766 H   0  0  0  0  0  0  0  0  0  0  0  0
  -24.5787  -30.7757   25.6817 H   0  0  0  0  0  0  0  0  0  0  0  0
  -25.0041  -32.2289   26.5536 H   0  0  0  0  0  0  0  0  0  0  0  0
  -25.8166  -30.7245   26.9138 H   0  0  0  0  0  0  0  0  0  0  0  0
  -26.2892  -29.7335   24.0803 H   0  0  0  0  0  0  0  0  0  0  0  0
  -27.4336  -29.7484   25.4006 H   0  0  0  0  0  0  0  0  0  0  0  0
  -27.8466  -30.4994   23.8779 H   0  0  0  0  0  0  0  0  0  0  0  0
  -27.2251  -33.3632   26.1242 H   0  0  0  0  0  0  0  0  0  0  0  0
  -28.3902  -32.6065   25.0645 H   0  0  0  0  0  0  0  0  0  0  0  0
  -27.9772  -31.8555   26.5872 H   0  0  0  0  0  0  0  0  0  0  0  0
  -28.2744  -38.0016   24.6863 H   0  0  0  0  0  0  0  0  0  0  0  0
  -28.0396  -36.2711   24.7461 H   0  0  0  0  0  0  0  0  0  0  0  0
  -27.1773  -37.3087   25.8564 H   0  0  0  0  0  0  0  0  0  0  0  0
  -20.9627  -29.9365   21.7352 H   0  0  0  0  0  0  0  0  0  0  0  0
  -26.0447  -38.2561   24.0273 H   0  0  0  0  0  0  0  0  0  0  0  0
  -29.4608  -24.0624   18.2108 H   0  0  0  0  0  0  0  0  0  0  0  0
  -33.5806  -22.5439   20.5248 H   0  0  0  0  0  0  0  0  0  0  0  0
  -33.0464  -20.9015   20.2599 H   0  0  0  0  0  0  0  0  0  0  0  0
  -32.5558  -21.7580   21.7017 H   0  0  0  0  0  0  0  0  0  0  0  0
  -31.9412  -25.1029   18.0059 H   0  0  0  0  0  0  0  0  0  0  0  0
  -33.2543  -24.1266   18.7076 H   0  0  0  0  0  0  0  0  0  0  0  0
  -33.1664  -26.3605   19.6569 H   0  0  0  0  0  0  0  0  0  0  0  0
  -32.8487  -25.0519   20.8417 H   0  0  0  0  0  0  0  0  0  0  0  0
  -31.2823  -27.9046   19.0716 H   0  0  0  0  0  0  0  0  0  0  0  0
  -30.3700  -26.4577   18.5544 H   0  0  0  0  0  0  0  0  0  0  0  0
  -28.8865  -28.3796   18.8713 H   0  0  0  0  0  0  0  0  0  0  0  0
  -29.3550  -28.5118   20.5099 H   0  0  0  0  0  0  0  0  0  0  0  0
  -30.5027  -25.5658   20.7888 H   0  0  0  0  0  0  0  0  0  0  0  0
  -27.3236  -21.9680   19.0884 H   0  0  0  0  0  0  0  0  0  0  0  0
  -32.2062  -27.9144   21.3221 H   0  0  0  0  0  0  0  0  0  0  0  0
  -31.9391  -26.6594   22.3842 H   0  0  0  0  0  0  0  0  0  0  0  0
  -30.6847  -27.6670   21.9533 H   0  0  0  0  0  0  0  0  0  0  0  0
  1 25  1  0  0  0  0
  1 30  2  0  0  0  0
  1 81  1  0  0  0  0
  2  3  1  0  0  0  0
  2 25  1  0  0  0  0
  2 84  1  0  0  0  0
  2 85  1  0  0  0  0
  3  4  1  0  0  0  0
  3 86  1  0  0  0  0
  3 87  1  0  0  0  0
  4  5  1  0  0  0  0
  4 88  1  0  0  0  0
  4 89  1  0  0  0  0
  5  6  1  0  0  0  0
  5 26  1  0  0  0  0
  5 90  1  6  0  0  0
  6 25  1  0  0  0  0
  6 91  1  0  0  0  0
  6 92  1  0  0  0  0
  7  8  2  0  0  0  0
  7 26  1  0  0  0  0
  7 29  1  0  0  0  0
  8  9  1  0  0  0  0
  8 22  1  0  0  0  0
  9 10  1  0  0  0  0
  9 27  2  0  0  0  0
 10 11  2  0  0  0  0
 10 15  1  0  0  0  0
 11 12  1  0  0  0  0
 11 93  1  0  0  0  0
 12 13  2  0  0  0  0
 12 94  1  0  0  0  0
 13 14  1  0  0  0  0
 13 31  1  0  0  0  0
 14 15  2  0  0  0  0
 14 95  1  0  0  0  0
 15 96  1  0  0  0  0
 16 17  2  0  0  0  0
 16 21  1  0  0  0  0
 16 31  1  0  0  0  0
 17 18  1  0  0  0  0
 17 97  1  0  0  0  0
 18 19  2  0  0  0  0
 18 98  1  0  0  0  0
 19 20  1  0  0  0  0
 19 24  1  0  0  0  0
 20 21  2  0  0  0  0
 20 99  1  0  0  0  0
 21 23  1  0  0  0  0
 22 28  1  0  0  0  0
 22 32  2  0  0  0  0
 26 27  1  0  0  0  0
 28100  1  0  0  0  0
 28101  1  0  0  0  0
 29102  1  0  0  0  0
 29103  1  0  0  0  0
 33 34  1  0  0  0  0
 33 66  1  0  0  0  0
 33 70  2  0  0  0  0
 34 36  1  0  0  0  0
 34 59  1  0  0  0  0
 34104  1  6  0  0  0
 35 44  2  0  0  0  0
 35 45  1  0  0  0  0
 35 68  1  0  0  0  0
 36 56  1  0  0  0  0
 36105  1  0  0  0  0
 37 39  1  0  0  0  0
 37 47  1  0  0  0  0
 37 66  1  0  0  0  0
 37106  1  6  0  0  0
 38 43  2  0  0  0  0
 38 46  1  0  0  0  0
 38 47  1  0  0  0  0
 39 64  1  0  0  0  0
 39 67  2  0  0  0  0
 40 52  1  0  0  0  0
 40 53  2  0  0  0  0
 40 58  1  0  0  0  0
 41107  1  0  0  0  0
 41108  1  0  0  0  0
 41109  1  0  0  0  0
 42 43  1  0  0  0  0
 42 66  1  0  0  0  0
 42110  1  0  0  0  0
 42111  1  0  0  0  0
 43 44  1  0  0  0  0
 44112  1  0  0  0  0
 45 46  2  0  0  0  0
 45113  1  0  0  0  0
 46114  1  0  0  0  0
 47115  1  0  0  0  0
 47116  1  0  0  0  0
 48 41  1  0  0  0  0
 48 56  1  0  0  0  0
 48 65  1  0  0  0  0
 48117  1  1  0  0  0
 49 50  1  0  0  0  0
 49 53  1  0  0  0  0
 49 64  1  0  0  0  0
 49118  1  1  0  0  0
 50 51  1  0  0  0  0
 50119  1  0  0  0  0
 50120  1  0  0  0  0
 51 52  1  0  0  0  0
 51121  1  0  0  0  0
 51122  1  0  0  0  0
 52123  1  0  0  0  0
 52124  1  0  0  0  0
 53 54  1  0  0  0  0
 54 55  2  0  0  0  0
 54125  1  0  0  0  0
 55 57  1  0  0  0  0
 55126  1  0  0  0  0
 56 69  2  0  0  0  0
 57 58  2  0  0  0  0
 57127  1  0  0  0  0
 58128  1  0  0  0  0
 59 60  1  0  0  0  0
 59 61  1  0  0  0  0
 59 62  1  0  0  0  0
 60129  1  0  0  0  0
 60130  1  0  0  0  0
 60131  1  0  0  0  0
 61132  1  0  0  0  0
 61133  1  0  0  0  0
 61134  1  0  0  0  0
 62135  1  0  0  0  0
 62136  1  0  0  0  0
 62137  1  0  0  0  0
 63 65  1  0  0  0  0
 63138  1  0  0  0  0
 63139  1  0  0  0  0
 63140  1  0  0  0  0
 64141  1  0  0  0  0
 65142  1  0  0  0  0
 68 79  1  0  0  0  0
 71 72  1  0  0  0  0
 71 74  2  0  0  0  0
 71143  1  0  0  0  0
 72 73  2  0  0  0  0
 72 76  1  0  0  0  0
 73 75  1  0  0  0  0
 73 83  1  0  0  0  0
 74 81  1  0  0  0  0
 74 83  1  0  0  0  0
 75144  1  0  0  0  0
 75145  1  0  0  0  0
 75146  1  0  0  0  0
 76 77  1  0  0  0  0
 76147  1  0  0  0  0
 76148  1  0  0  0  0
 77 80  1  0  0  0  0
 77149  1  0  0  0  0
 77150  1  0  0  0  0
 78 79  1  0  0  0  0
 78 80  1  0  0  0  0
 78151  1  0  0  0  0
 78152  1  0  0  0  0
 79153  1  0  0  0  0
 79154  1  0  0  0  0
 80 82  1  0  0  0  0
 80155  1  1  0  0  0
 81156  1  0  0  0  0
 82157  1  0  0  0  0
 82158  1  0  0  0  0
 82159  1  0  0  0  0
M  ISO  4   1 100  68 101  79 101  81 100
M  CHG  1  82   1
M  END
$$$$
82
 OpenBabel04052305473D

155163  0  0  0  0  0  0  0  0999 V2000
  -30.7652  -14.3608   20.6636 C   0  0  0  0  0  0  0  0  0  0  0  0
  -30.4392  -12.2669   19.3775 C   0  0  0  0  0  0  0  0  0  0  0  0
  -29.4791  -12.5281   18.1977 C   0  0  0  0  0  0  0  0  0  0  0  0
  -27.9985  -12.3963   18.6038 C   0  0  0  0  0  0  0  0  0  0  0  0
  -27.6639  -13.2170   19.8820 C   0  0  2  0  0  0  0  0  0  0  0  0
  -28.6795  -12.9602   21.0279 C   0  0  0  0  0  0  0  0  0  0  0  0
  -25.2633  -13.8245   20.5754 C   0  0  0  0  0  0  0  0  0  0  0  0
  -24.1645  -13.0409   20.9408 C   0  0  0  0  0  0  0  0  0  0  0  0
  -24.6400  -11.7009   20.8697 C   0  0  0  0  0  0  0  0  0  0  0  0
  -23.9005  -10.4085   21.0420 C   0  0  0  0  0  0  0  0  0  0  0  0
  -24.3588   -9.4123   21.9123 C   0  0  0  0  0  0  0  0  0  0  0  0
  -23.6296   -8.2350   22.0803 C   0  0  0  0  0  0  0  0  0  0  0  0
  -22.4385   -8.0419   21.3657 C   0  0  0  0  0  0  0  0  0  0  0  0
  -22.0103   -9.0167   20.4678 C   0  0  0  0  0  0  0  0  0  0  0  0
  -22.7317  -10.1925   20.3102 C   0  0  0  0  0  0  0  0  0  0  0  0
  -21.6857   -6.0709   22.5391 C   0  0  0  0  0  0  0  0  0  0  0  0
  -21.4064   -6.5490   23.8264 C   0  0  0  0  0  0  0  0  0  0  0  0
  -21.3635   -5.6677   24.9085 C   0  0  0  0  0  0  0  0  0  0  0  0
  -21.5973   -4.3067   24.7088 C   0  0  0  0  0  0  0  0  0  0  0  0
  -21.8700   -3.8284   23.4282 C   0  0  0  0  0  0  0  0  0  0  0  0
  -21.9144   -4.7056   22.3460 C   0  0  0  0  0  0  0  0  0  0  0  0
  -22.8194  -13.5263   21.1763 C   0  0  0  0  0  0  0  0  0  0  0  0
  -22.1559   -4.2206   21.1063 F   0  0  0  0  0  0  0  0  0  0  0  0
  -21.5628   -3.4510   25.7555 F   0  0  0  0  0  0  0  0  0  0  0  0
  -30.0261  -13.1803   20.4553 N   0  0  0  0  0  0  0  0  0  0  0  0
  -26.2911  -12.9356   20.3443 N   0  0  0  0  0  0  0  0  0  0  0  0
  -25.9236  -11.6675   20.5847 N   0  0  0  0  0  0  0  0  0  0  0  0
  -22.0708  -12.7905   22.0005 N   0  0  0  0  0  0  0  0  0  0  0  0
  -25.4117  -15.1773   20.4097 N   0  0  0  0  0  0  0  0  0  0  0  0
  -31.7916  -14.6724   20.0536 O   0  0  0  0  0  0  0  0  0  0  0  0
  -21.6670   -6.9022   21.4423 O   0  0  0  0  0  0  0  0  0  0  0  0
  -22.3946  -14.5564   20.6568 O   0  0  0  0  0  0  0  0  0  0  0  0
  -24.6048  -31.8614   23.2223 C   0  0  0  0  0  0  0  0  0  0  0  0
  -25.8822  -32.4841   23.8616 C   0  0  1  0  0  0  0  0  0  0  0  0
  -27.2536  -27.5042   20.1156 C   0  0  0  0  0  0  0  0  0  0  0  0
  -25.5726  -33.8762   24.2210 N   0  0  0  0  0  0  0  0  0  0  0  0
  -23.4066  -30.4859   21.5461 C   0  0  2  0  0  0  0  0  0  0  0  0
  -24.8467  -28.9636   20.1247 C   0  0  0  0  0  0  0  0  0  0  0  0
  -22.7412  -29.4652   22.5052 C   0  0  0  0  0  0  0  0  0  0  0  0
  -18.0167  -28.1302   22.8626 C   0  0  0  0  0  0  0  0  0  0  0  0
  -24.1342  -36.7390   23.2568 C   0  0  0  0  0  0  0  0  0  0  0  0
  -25.9141  -30.8882   21.3456 C   0  0  0  0  0  0  0  0  0  0  0  0
  -25.9930  -29.5029   20.7208 C   0  0  0  0  0  0  0  0  0  0  0  0
  -27.1758  -28.7612   20.7331 C   0  0  0  0  0  0  0  0  0  0  0  0
  -26.1032  -26.9836   19.5230 C   0  0  0  0  0  0  0  0  0  0  0  0
  -24.9097  -27.7011   19.5331 C   0  0  0  0  0  0  0  0  0  0  0  0
  -23.5715  -29.7899   20.1582 C   0  0  0  0  0  0  0  0  0  0  0  0
  -25.3990  -36.3212   24.0232 C   0  0  1  0  0  0  0  0  0  0  0  0
  -20.5793  -28.3813   23.1004 C   0  0  2  0  0  0  0  0  0  0  0  0
  -20.6548  -26.9392   22.5411 C   0  0  0  0  0  0  0  0  0  0  0  0
  -19.5615  -26.6407   21.5143 C   0  0  0  0  0  0  0  0  0  0  0  0
  -18.1797  -26.7818   22.1673 C   0  0  0  0  0  0  0  0  0  0  0  0
  -19.1385  -28.8769   23.2988 C   0  0  0  0  0  0  0  0  0  0  0  0
  -18.9183  -30.1286   23.8878 C   0  0  0  0  0  0  0  0  0  0  0  0
  -17.6396  -30.6493   24.0352 C   0  0  0  0  0  0  0  0  0  0  0  0
  -25.9153  -34.9582   23.4993 C   0  0  0  0  0  0  0  0  0  0  0  0
  -16.5415  -29.9068   23.6254 C   0  0  0  0  0  0  0  0  0  0  0  0
  -16.7331  -28.6521   23.0586 C   0  0  0  0  0  0  0  0  0  0  0  0
  -26.4583  -31.6439   25.0683 C   0  0  0  0  0  0  0  0  0  0  0  0
  -25.3807  -31.3179   26.1374 C   0  0  0  0  0  0  0  0  0  0  0  0
  -27.0530  -30.3024   24.5680 C   0  0  0  0  0  0  0  0  0  0  0  0
  -27.6014  -32.4281   25.7651 C   0  0  0  0  0  0  0  0  0  0  0  0
  -27.5629  -37.2220   24.8621 C   0  0  0  0  0  0  0  0  0  0  0  0
  -21.4133  -29.3375   22.3735 N   0  0  0  0  0  0  0  0  0  0  0  0
  -26.4706  -37.3372   23.9061 N   0  0  0  0  0  0  0  0  0  0  0  0
  -24.6674  -31.0544   22.1178 N   0  0  0  0  0  0  0  0  0  0  0  0
  -23.4259  -28.8150   23.2971 O   0  0  0  0  0  0  0  0  0  0  0  0
  -28.3948  -26.7345   20.0089 O   0  0  0  0  0  0  0  0  0  0  0  0
  -26.5870  -34.9065   22.4671 O   0  0  0  0  0  0  0  0  0  0  0  0
  -23.5365  -32.1254   23.7833 O   0  0  0  0  0  0  0  0  0  0  0  0
  -31.3624  -24.2120   19.2505 C   0  0  0  0  0  0  0  0  0  0  0  0
  -30.6644  -23.0717   19.5889 C   0  0  0  0  0  0  0  0  0  0  0  0
  -29.4230  -25.1331   19.6980 C   0  0  0  0  0  0  0  0  0  0  0  0
  -32.7793  -24.2780   18.8341 C   0  0  0  0  0  0  0  0  0  0  0  0
  -30.0949  -18.0626   19.8106 C   0  0  0  0  0  0  0  0  0  0  0  0
  -30.3029  -20.6350   19.9861 C   0  0  0  0  0  0  0  0  0  0  0  0
  -28.7200  -18.0198   19.1604 C   0  0  0  0  0  0  0  0  0  0  0  0
  -30.8993  -19.3227   19.4746 C   0  0  1  0  0  0  0  0  0  0  0  0
  -30.6520  -25.3950   19.3120 N   0  0  0  0  0  0  0  0  0  0  0  0
  -31.1230  -21.7650   19.6138 N   0  0  0  0  0  0  0  0  0  0  0  0
  -28.3608  -26.0506   19.8921 N   0  0  0  0  0  0  0  0  0  0  0  0
  -32.2165  -19.1905   20.0124 O   0  0  0  0  0  0  0  0  0  0  0  0
  -29.0528  -23.4857   20.0046 S   0  0  0  0  0  0  0  0  0  0  0  0
  -31.4485  -12.4701   19.0860 H   0  0  0  0  0  0  0  0  0  0  0  0
  -30.3970  -11.2460   19.6950 H   0  0  0  0  0  0  0  0  0  0  0  0
  -29.6870  -11.8204   17.4226 H   0  0  0  0  0  0  0  0  0  0  0  0
  -29.6375  -13.5326   17.8649 H   0  0  0  0  0  0  0  0  0  0  0  0
  -27.7830  -11.3650   18.7904 H   0  0  0  0  0  0  0  0  0  0  0  0
  -27.4028  -12.7801   17.8021 H   0  0  0  0  0  0  0  0  0  0  0  0
  -27.7353  -14.2503   19.6136 H   0  0  0  0  0  0  0  0  0  0  0  0
  -28.5890  -11.9550   21.3832 H   0  0  0  0  0  0  0  0  0  0  0  0
  -28.5005  -13.6134   21.8562 H   0  0  0  0  0  0  0  0  0  0  0  0
  -25.2399   -9.5495   22.4318 H   0  0  0  0  0  0  0  0  0  0  0  0
  -23.9663   -7.5070   22.7297 H   0  0  0  0  0  0  0  0  0  0  0  0
  -21.1515   -8.8641   19.9162 H   0  0  0  0  0  0  0  0  0  0  0  0
  -22.4016  -10.9115   19.6476 H   0  0  0  0  0  0  0  0  0  0  0  0
  -21.2319   -7.5552   23.9750 H   0  0  0  0  0  0  0  0  0  0  0  0
  -21.1589   -6.0228   25.8556 H   0  0  0  0  0  0  0  0  0  0  0  0
  -22.0396   -2.8212   23.2809 H   0  0  0  0  0  0  0  0  0  0  0  0
  -22.4401  -11.9703   22.4008 H   0  0  0  0  0  0  0  0  0  0  0  0
  -21.1493  -13.0679   22.2082 H   0  0  0  0  0  0  0  0  0  0  0  0
  -24.6538  -15.7807   20.5848 H   0  0  0  0  0  0  0  0  0  0  0  0
  -26.2762  -15.5453   20.1156 H   0  0  0  0  0  0  0  0  0  0  0  0
  -26.6778  -32.4663   23.1464 H   0  0  0  0  0  0  0  0  0  0  0  0
  -25.0747  -34.0282   25.0566 H   0  0  0  0  0  0  0  0  0  0  0  0
  -22.7881  -31.3489   21.4131 H   0  0  0  0  0  0  0  0  0  0  0  0
  -23.3854  -35.9823   23.3648 H   0  0  0  0  0  0  0  0  0  0  0  0
  -24.3696  -36.8624   22.2204 H   0  0  0  0  0  0  0  0  0  0  0  0
  -23.7669  -37.6632   23.6516 H   0  0  0  0  0  0  0  0  0  0  0  0
  -25.9445  -31.6237   20.5691 H   0  0  0  0  0  0  0  0  0  0  0  0
  -26.7436  -31.0079   22.0108 H   0  0  0  0  0  0  0  0  0  0  0  0
  -28.0090  -29.1452   21.2057 H   0  0  0  0  0  0  0  0  0  0  0  0
  -26.1369  -26.0560   19.0719 H   0  0  0  0  0  0  0  0  0  0  0  0
  -24.0652  -27.2961   19.0997 H   0  0  0  0  0  0  0  0  0  0  0  0
  -23.6156  -30.5365   19.3930 H   0  0  0  0  0  0  0  0  0  0  0  0
  -22.7355  -29.1425   19.9945 H   0  0  0  0  0  0  0  0  0  0  0  0
  -25.1353  -36.2335   25.0565 H   0  0  0  0  0  0  0  0  0  0  0  0
  -21.0070  -28.3206   24.0793 H   0  0  0  0  0  0  0  0  0  0  0  0
  -20.5555  -26.2518   23.3550 H   0  0  0  0  0  0  0  0  0  0  0  0
  -21.5974  -26.8362   22.0454 H   0  0  0  0  0  0  0  0  0  0  0  0
  -19.6810  -25.6422   21.1488 H   0  0  0  0  0  0  0  0  0  0  0  0
  -19.6406  -27.3343   20.7034 H   0  0  0  0  0  0  0  0  0  0  0  0
  -17.4282  -26.6888   21.4113 H   0  0  0  0  0  0  0  0  0  0  0  0
  -18.0803  -26.0130   22.9049 H   0  0  0  0  0  0  0  0  0  0  0  0
  -19.7265  -30.6774   24.2204 H   0  0  0  0  0  0  0  0  0  0  0  0
  -17.5064  -31.5856   24.4483 H   0  0  0  0  0  0  0  0  0  0  0  0
  -15.5878  -30.2839   23.7407 H   0  0  0  0  0  0  0  0  0  0  0  0
  -15.9120  -28.0941   22.7766 H   0  0  0  0  0  0  0  0  0  0  0  0
  -24.5787  -30.7757   25.6817 H   0  0  0  0  0  0  0  0  0  0  0  0
  -25.0041  -32.2289   26.5536 H   0  0  0  0  0  0  0  0  0  0  0  0
  -25.8166  -30.7245   26.9138 H   0  0  0  0  0  0  0  0  0  0  0  0
  -26.2892  -29.7335   24.0803 H   0  0  0  0  0  0  0  0  0  0  0  0
  -27.4336  -29.7484   25.4006 H   0  0  0  0  0  0  0  0  0  0  0  0
  -27.8466  -30.4994   23.8779 H   0  0  0  0  0  0  0  0  0  0  0  0
  -27.2251  -33.3632   26.1242 H   0  0  0  0  0  0  0  0  0  0  0  0
  -28.3902  -32.6065   25.0645 H   0  0  0  0  0  0  0  0  0  0  0  0
  -27.9772  -31.8555   26.5872 H   0  0  0  0  0  0  0  0  0  0  0  0
  -28.2744  -38.0016   24.6863 H   0  0  0  0  0  0  0  0  0  0  0  0
  -28.0396  -36.2711   24.7461 H   0  0  0  0  0  0  0  0  0  0  0  0
  -27.1773  -37.3087   25.8564 H   0  0  0  0  0  0  0  0  0  0  0  0
  -20.9627  -29.9365   21.7352 H   0  0  0  0  0  0  0  0  0  0  0  0
  -26.0447  -38.2561   24.0273 H   0  0  0  0  0  0  0  0  0  0  0  0
  -33.1970  -23.2929   18.8330 H   0  0  0  0  0  0  0  0  0  0  0  0
  -33.3236  -24.8954   19.5178 H   0  0  0  0  0  0  0  0  0  0  0  0
  -32.8429  -24.6935   17.8501 H   0  0  0  0  0  0  0  0  0  0  0  0
  -30.6506  -17.2098   19.4808 H   0  0  0  0  0  0  0  0  0  0  0  0
  -29.9389  -18.0657   20.8692 H   0  0  0  0  0  0  0  0  0  0  0  0
  -30.2312  -20.5928   21.0529 H   0  0  0  0  0  0  0  0  0  0  0  0
  -29.3356  -20.7604   19.5462 H   0  0  0  0  0  0  0  0  0  0  0  0
  -27.9789  -17.4905   19.7221 H   0  0  0  0  0  0  0  0  0  0  0  0
  -28.5633  -17.5439   18.2149 H   0  0  0  0  0  0  0  0  0  0  0  0
  -30.8913  -19.3881   18.4066 H   0  0  0  0  0  0  0  0  0  0  0  0
  -32.0602  -21.5966   19.3638 H   0  0  0  0  0  0  0  0  0  0  0  0
  -27.8640  -26.8997   19.9300 H   0  0  0  0  0  0  0  0  0  0  0  0
  -32.1668  -19.1356   20.9796 H   0  0  0  0  0  0  0  0  0  0  0  0
  1 25  1  0  0  0  0
  1 30  2  0  0  0  0
  1 81  1  0  0  0  0
  2  3  1  0  0  0  0
  2 25  1  0  0  0  0
  2 84  1  0  0  0  0
  2 85  1  0  0  0  0
  3  4  1  0  0  0  0
  3 86  1  0  0  0  0
  3 87  1  0  0  0  0
  4  5  1  0  0  0  0
  4 88  1  0  0  0  0
  4 89  1  0  0  0  0
  5  6  1  0  0  0  0
  5 26  1  0  0  0  0
  5 90  1  6  0  0  0
  6 25  1  0  0  0  0
  6 91  1  0  0  0  0
  6 92  1  0  0  0  0
  7  8  2  0  0  0  0
  7 26  1  0  0  0  0
  7 29  1  0  0  0  0
  8  9  1  0  0  0  0
  8 22  1  0  0  0  0
  9 10  1  0  0  0  0
  9 27  2  0  0  0  0
 10 11  2  0  0  0  0
 10 15  1  0  0  0  0
 11 12  1  0  0  0  0
 11 93  1  0  0  0  0
 12 13  2  0  0  0  0
 12 94  1  0  0  0  0
 13 14  1  0  0  0  0
 13 31  1  0  0  0  0
 14 15  2  0  0  0  0
 14 95  1  0  0  0  0
 15 96  1  0  0  0  0
 16 17  2  0  0  0  0
 16 21  1  0  0  0  0
 16 31  1  0  0  0  0
 17 18  1  0  0  0  0
 17 97  1  0  0  0  0
 18 19  2  0  0  0  0
 18 98  1  0  0  0  0
 19 20  1  0  0  0  0
 19 24  1  0  0  0  0
 20 21  2  0  0  0  0
 20 99  1  0  0  0  0
 21 23  1  0  0  0  0
 22 28  1  0  0  0  0
 22 32  2  0  0  0  0
 26 27  1  0  0  0  0
 28100  1  0  0  0  0
 28101  1  0  0  0  0
 29102  1  0  0  0  0
 29103  1  0  0  0  0
 33 34  1  0  0  0  0
 33 66  1  0  0  0  0
 33 70  2  0  0  0  0
 34 36  1  0  0  0  0
 34 59  1  0  0  0  0
 34104  1  6  0  0  0
 35 44  2  0  0  0  0
 35 45  1  0  0  0  0
 35 68  1  0  0  0  0
 36 56  1  0  0  0  0
 36105  1  0  0  0  0
 37 39  1  0  0  0  0
 37 47  1  0  0  0  0
 37 66  1  0  0  0  0
 37106  1  6  0  0  0
 38 43  2  0  0  0  0
 38 46  1  0  0  0  0
 38 47  1  0  0  0  0
 39 64  1  0  0  0  0
 39 67  2  0  0  0  0
 40 52  1  0  0  0  0
 40 53  2  0  0  0  0
 40 58  1  0  0  0  0
 41107  1  0  0  0  0
 41108  1  0  0  0  0
 41109  1  0  0  0  0
 42 43  1  0  0  0  0
 42 66  1  0  0  0  0
 42110  1  0  0  0  0
 42111  1  0  0  0  0
 43 44  1  0  0  0  0
 44112  1  0  0  0  0
 45 46  2  0  0  0  0
 45113  1  0  0  0  0
 46114  1  0  0  0  0
 47115  1  0  0  0  0
 47116  1  0  0  0  0
 48 41  1  0  0  0  0
 48 56  1  0  0  0  0
 48 65  1  0  0  0  0
 48117  1  1  0  0  0
 49 50  1  0  0  0  0
 49 53  1  0  0  0  0
 49 64  1  0  0  0  0
 49118  1  1  0  0  0
 50 51  1  0  0  0  0
 50119  1  0  0  0  0
 50120  1  0  0  0  0
 51 52  1  0  0  0  0
 51121  1  0  0  0  0
 51122  1  0  0  0  0
 52123  1  0  0  0  0
 52124  1  0  0  0  0
 53 54  1  0  0  0  0
 54 55  2  0  0  0  0
 54125  1  0  0  0  0
 55 57  1  0  0  0  0
 55126  1  0  0  0  0
 56 69  2  0  0  0  0
 57 58  2  0  0  0  0
 57127  1  0  0  0  0
 58128  1  0  0  0  0
 59 60  1  0  0  0  0
 59 61  1  0  0  0  0
 59 62  1  0  0  0  0
 60129  1  0  0  0  0
 60130  1  0  0  0  0
 60131  1  0  0  0  0
 61132  1  0  0  0  0
 61133  1  0  0  0  0
 61134  1  0  0  0  0
 62135  1  0  0  0  0
 62136  1  0  0  0  0
 62137  1  0  0  0  0
 63 65  1  0  0  0  0
 63138  1  0  0  0  0
 63139  1  0  0  0  0
 63140  1  0  0  0  0
 64141  1  0  0  0  0
 65142  1  0  0  0  0
 68 77  1  0  0  0  0
 71 72  2  0  0  0  0
 71 74  1  0  0  0  0
 71 79  1  0  0  0  0
 72 80  1  0  0  0  0
 72 83  1  0  0  0  0
 73 79  2  0  0  0  0
 73 81  1  0  0  0  0
 73 83  1  0  0  0  0
 74143  1  0  0  0  0
 74144  1  0  0  0  0
 74145  1  0  0  0  0
 75 77  1  0  0  0  0
 75 78  1  0  0  0  0
 75146  1  0  0  0  0
 75147  1  0  0  0  0
 76 78  1  0  0  0  0
 76 80  1  0  0  0  0
 76148  1  0  0  0  0
 76149  1  0  0  0  0
 77150  1  0  0  0  0
 77151  1  0  0  0  0
 78 82  1  0  0  0  0
 78152  1  6  0  0  0
 80153  1  0  0  0  0
 81154  1  0  0  0  0
 82155  1  0  0  0  0
M  ISO  4   1 100  68 101  77 101  81 100
M  END
$$$$
83
 OpenBabel04052305473D

148156  0  0  0  0  0  0  0  0999 V2000
  -30.7652  -14.3608   20.6636 C   0  0  0  0  0  0  0  0  0  0  0  0
  -30.4392  -12.2669   19.3775 C   0  0  0  0  0  0  0  0  0  0  0  0
  -29.4791  -12.5281   18.1977 C   0  0  0  0  0  0  0  0  0  0  0  0
  -27.9985  -12.3963   18.6038 C   0  0  0  0  0  0  0  0  0  0  0  0
  -27.6639  -13.2170   19.8820 C   0  0  2  0  0  0  0  0  0  0  0  0
  -28.6795  -12.9602   21.0279 C   0  0  0  0  0  0  0  0  0  0  0  0
  -25.2633  -13.8245   20.5754 C   0  0  0  0  0  0  0  0  0  0  0  0
  -24.1645  -13.0409   20.9408 C   0  0  0  0  0  0  0  0  0  0  0  0
  -24.6400  -11.7009   20.8697 C   0  0  0  0  0  0  0  0  0  0  0  0
  -23.9005  -10.4085   21.0420 C   0  0  0  0  0  0  0  0  0  0  0  0
  -24.3588   -9.4123   21.9123 C   0  0  0  0  0  0  0  0  0  0  0  0
  -23.6296   -8.2350   22.0803 C   0  0  0  0  0  0  0  0  0  0  0  0
  -22.4385   -8.0419   21.3657 C   0  0  0  0  0  0  0  0  0  0  0  0
  -22.0103   -9.0167   20.4678 C   0  0  0  0  0  0  0  0  0  0  0  0
  -22.7317  -10.1925   20.3102 C   0  0  0  0  0  0  0  0  0  0  0  0
  -21.6857   -6.0709   22.5391 C   0  0  0  0  0  0  0  0  0  0  0  0
  -21.4064   -6.5490   23.8264 C   0  0  0  0  0  0  0  0  0  0  0  0
  -21.3635   -5.6677   24.9085 C   0  0  0  0  0  0  0  0  0  0  0  0
  -21.5973   -4.3067   24.7088 C   0  0  0  0  0  0  0  0  0  0  0  0
  -21.8700   -3.8284   23.4282 C   0  0  0  0  0  0  0  0  0  0  0  0
  -21.9144   -4.7056   22.3460 C   0  0  0  0  0  0  0  0  0  0  0  0
  -22.8194  -13.5263   21.1763 C   0  0  0  0  0  0  0  0  0  0  0  0
  -22.1559   -4.2206   21.1063 F   0  0  0  0  0  0  0  0  0  0  0  0
  -21.5628   -3.4510   25.7555 F   0  0  0  0  0  0  0  0  0  0  0  0
  -30.0261  -13.1803   20.4553 N   0  0  0  0  0  0  0  0  0  0  0  0
  -26.2911  -12.9356   20.3443 N   0  0  0  0  0  0  0  0  0  0  0  0
  -25.9236  -11.6675   20.5847 N   0  0  0  0  0  0  0  0  0  0  0  0
  -22.0708  -12.7905   22.0005 N   0  0  0  0  0  0  0  0  0  0  0  0
  -25.4117  -15.1773   20.4097 N   0  0  0  0  0  0  0  0  0  0  0  0
  -31.7916  -14.6724   20.0536 O   0  0  0  0  0  0  0  0  0  0  0  0
  -21.6670   -6.9022   21.4423 O   0  0  0  0  0  0  0  0  0  0  0  0
  -22.3946  -14.5564   20.6568 O   0  0  0  0  0  0  0  0  0  0  0  0
  -24.6048  -31.8614   23.2223 C   0  0  0  0  0  0  0  0  0  0  0  0
  -25.8822  -32.4841   23.8616 C   0  0  1  0  0  0  0  0  0  0  0  0
  -27.2536  -27.5042   20.1156 C   0  0  0  0  0  0  0  0  0  0  0  0
  -25.5726  -33.8762   24.2210 N   0  0  0  0  0  0  0  0  0  0  0  0
  -23.4066  -30.4859   21.5461 C   0  0  2  0  0  0  0  0  0  0  0  0
  -24.8467  -28.9636   20.1247 C   0  0  0  0  0  0  0  0  0  0  0  0
  -22.7412  -29.4652   22.5052 C   0  0  0  0  0  0  0  0  0  0  0  0
  -18.0167  -28.1302   22.8626 C   0  0  0  0  0  0  0  0  0  0  0  0
  -24.1342  -36.7390   23.2568 C   0  0  0  0  0  0  0  0  0  0  0  0
  -25.9141  -30.8882   21.3456 C   0  0  0  0  0  0  0  0  0  0  0  0
  -25.9930  -29.5029   20.7208 C   0  0  0  0  0  0  0  0  0  0  0  0
  -27.1758  -28.7612   20.7331 C   0  0  0  0  0  0  0  0  0  0  0  0
  -26.1032  -26.9836   19.5230 C   0  0  0  0  0  0  0  0  0  0  0  0
  -24.9097  -27.7011   19.5331 C   0  0  0  0  0  0  0  0  0  0  0  0
  -23.5715  -29.7899   20.1582 C   0  0  0  0  0  0  0  0  0  0  0  0
  -25.3990  -36.3212   24.0232 C   0  0  1  0  0  0  0  0  0  0  0  0
  -20.5793  -28.3813   23.1004 C   0  0  2  0  0  0  0  0  0  0  0  0
  -20.6548  -26.9392   22.5411 C   0  0  0  0  0  0  0  0  0  0  0  0
  -19.5615  -26.6407   21.5143 C   0  0  0  0  0  0  0  0  0  0  0  0
  -18.1797  -26.7818   22.1673 C   0  0  0  0  0  0  0  0  0  0  0  0
  -19.1385  -28.8769   23.2988 C   0  0  0  0  0  0  0  0  0  0  0  0
  -18.9183  -30.1286   23.8878 C   0  0  0  0  0  0  0  0  0  0  0  0
  -17.6396  -30.6493   24.0352 C   0  0  0  0  0  0  0  0  0  0  0  0
  -25.9153  -34.9582   23.4993 C   0  0  0  0  0  0  0  0  0  0  0  0
  -16.5415  -29.9068   23.6254 C   0  0  0  0  0  0  0  0  0  0  0  0
  -16.7331  -28.6521   23.0586 C   0  0  0  0  0  0  0  0  0  0  0  0
  -26.4583  -31.6439   25.0683 C   0  0  0  0  0  0  0  0  0  0  0  0
  -25.3807  -31.3179   26.1374 C   0  0  0  0  0  0  0  0  0  0  0  0
  -27.0530  -30.3024   24.5680 C   0  0  0  0  0  0  0  0  0  0  0  0
  -27.6014  -32.4281   25.7651 C   0  0  0  0  0  0  0  0  0  0  0  0
  -27.5629  -37.2220   24.8621 C   0  0  0  0  0  0  0  0  0  0  0  0
  -21.4133  -29.3375   22.3735 N   0  0  0  0  0  0  0  0  0  0  0  0
  -26.4706  -37.3372   23.9061 N   0  0  0  0  0  0  0  0  0  0  0  0
  -24.6674  -31.0544   22.1178 N   0  0  0  0  0  0  0  0  0  0  0  0
  -23.4259  -28.8150   23.2971 O   0  0  0  0  0  0  0  0  0  0  0  0
  -28.3948  -26.7345   20.0089 O   0  0  0  0  0  0  0  0  0  0  0  0
  -26.5870  -34.9065   22.4671 O   0  0  0  0  0  0  0  0  0  0  0  0
  -23.5365  -32.1254   23.7833 O   0  0  0  0  0  0  0  0  0  0  0  0
  -27.0985  -20.2621   21.0321 C   0  0  0  0  0  0  0  0  0  0  0  0
  -28.1968  -19.5752   20.5588 C   0  0  0  0  0  0  0  0  0  0  0  0
  -28.8471  -21.6124   20.0723 C   0  0  0  0  0  0  0  0  0  0  0  0
  -29.6993  -22.7201   19.5631 C   0  0  0  0  0  0  0  0  0  0  0  0
  -30.1328  -25.0093   19.1492 C   0  0  0  0  0  0  0  0  0  0  0  0
  -29.4440  -26.3414   19.3829 C   0  0  0  0  0  0  0  0  0  0  0  0
  -29.2003  -20.3478   20.0077 N   0  0  0  0  0  0  0  0  0  0  0  0
  -29.2827  -23.9320   19.6631 N   0  0  0  0  0  0  0  0  0  0  0  0
  -30.8999  -22.3444   18.9953 N   0  0  0  0  0  0  0  0  0  0  0  0
  -28.3234  -18.1650   20.6157 N   0  0  0  0  0  0  0  0  0  0  0  0
  -27.3213  -21.9444   20.7841 S   0  0  0  0  0  0  0  0  0  0  0  0
  -31.4485  -12.4701   19.0860 H   0  0  0  0  0  0  0  0  0  0  0  0
  -30.3970  -11.2460   19.6950 H   0  0  0  0  0  0  0  0  0  0  0  0
  -29.6870  -11.8204   17.4226 H   0  0  0  0  0  0  0  0  0  0  0  0
  -29.6375  -13.5326   17.8649 H   0  0  0  0  0  0  0  0  0  0  0  0
  -27.7830  -11.3650   18.7904 H   0  0  0  0  0  0  0  0  0  0  0  0
  -27.4028  -12.7801   17.8021 H   0  0  0  0  0  0  0  0  0  0  0  0
  -27.7353  -14.2503   19.6136 H   0  0  0  0  0  0  0  0  0  0  0  0
  -28.5890  -11.9550   21.3832 H   0  0  0  0  0  0  0  0  0  0  0  0
  -28.5005  -13.6134   21.8562 H   0  0  0  0  0  0  0  0  0  0  0  0
  -25.2399   -9.5495   22.4318 H   0  0  0  0  0  0  0  0  0  0  0  0
  -23.9663   -7.5070   22.7297 H   0  0  0  0  0  0  0  0  0  0  0  0
  -21.1515   -8.8641   19.9162 H   0  0  0  0  0  0  0  0  0  0  0  0
  -22.4016  -10.9115   19.6476 H   0  0  0  0  0  0  0  0  0  0  0  0
  -21.2319   -7.5552   23.9750 H   0  0  0  0  0  0  0  0  0  0  0  0
  -21.1589   -6.0228   25.8556 H   0  0  0  0  0  0  0  0  0  0  0  0
  -22.0396   -2.8212   23.2809 H   0  0  0  0  0  0  0  0  0  0  0  0
  -22.4401  -11.9703   22.4008 H   0  0  0  0  0  0  0  0  0  0  0  0
  -21.1493  -13.0679   22.2082 H   0  0  0  0  0  0  0  0  0  0  0  0
  -24.6538  -15.7807   20.5848 H   0  0  0  0  0  0  0  0  0  0  0  0
  -26.2762  -15.5453   20.1156 H   0  0  0  0  0  0  0  0  0  0  0  0
  -26.6778  -32.4663   23.1464 H   0  0  0  0  0  0  0  0  0  0  0  0
  -25.0747  -34.0282   25.0566 H   0  0  0  0  0  0  0  0  0  0  0  0
  -22.7881  -31.3489   21.4131 H   0  0  0  0  0  0  0  0  0  0  0  0
  -23.3854  -35.9823   23.3648 H   0  0  0  0  0  0  0  0  0  0  0  0
  -24.3696  -36.8624   22.2204 H   0  0  0  0  0  0  0  0  0  0  0  0
  -23.7669  -37.6632   23.6516 H   0  0  0  0  0  0  0  0  0  0  0  0
  -25.9445  -31.6237   20.5691 H   0  0  0  0  0  0  0  0  0  0  0  0
  -26.7436  -31.0079   22.0108 H   0  0  0  0  0  0  0  0  0  0  0  0
  -28.0090  -29.1452   21.2057 H   0  0  0  0  0  0  0  0  0  0  0  0
  -26.1369  -26.0560   19.0719 H   0  0  0  0  0  0  0  0  0  0  0  0
  -24.0652  -27.2961   19.0997 H   0  0  0  0  0  0  0  0  0  0  0  0
  -23.6156  -30.5365   19.3930 H   0  0  0  0  0  0  0  0  0  0  0  0
  -22.7355  -29.1425   19.9945 H   0  0  0  0  0  0  0  0  0  0  0  0
  -25.1353  -36.2335   25.0565 H   0  0  0  0  0  0  0  0  0  0  0  0
  -21.0070  -28.3206   24.0793 H   0  0  0  0  0  0  0  0  0  0  0  0
  -20.5555  -26.2518   23.3550 H   0  0  0  0  0  0  0  0  0  0  0  0
  -21.5974  -26.8362   22.0454 H   0  0  0  0  0  0  0  0  0  0  0  0
  -19.6810  -25.6422   21.1488 H   0  0  0  0  0  0  0  0  0  0  0  0
  -19.6406  -27.3343   20.7034 H   0  0  0  0  0  0  0  0  0  0  0  0
  -17.4282  -26.6888   21.4113 H   0  0  0  0  0  0  0  0  0  0  0  0
  -18.0803  -26.0130   22.9049 H   0  0  0  0  0  0  0  0  0  0  0  0
  -19.7265  -30.6774   24.2204 H   0  0  0  0  0  0  0  0  0  0  0  0
  -17.5064  -31.5856   24.4483 H   0  0  0  0  0  0  0  0  0  0  0  0
  -15.5878  -30.2839   23.7407 H   0  0  0  0  0  0  0  0  0  0  0  0
  -15.9120  -28.0941   22.7766 H   0  0  0  0  0  0  0  0  0  0  0  0
  -24.5787  -30.7757   25.6817 H   0  0  0  0  0  0  0  0  0  0  0  0
  -25.0041  -32.2289   26.5536 H   0  0  0  0  0  0  0  0  0  0  0  0
  -25.8166  -30.7245   26.9138 H   0  0  0  0  0  0  0  0  0  0  0  0
  -26.2892  -29.7335   24.0803 H   0  0  0  0  0  0  0  0  0  0  0  0
  -27.4336  -29.7484   25.4006 H   0  0  0  0  0  0  0  0  0  0  0  0
  -27.8466  -30.4994   23.8779 H   0  0  0  0  0  0  0  0  0  0  0  0
  -27.2251  -33.3632   26.1242 H   0  0  0  0  0  0  0  0  0  0  0  0
  -28.3902  -32.6065   25.0645 H   0  0  0  0  0  0  0  0  0  0  0  0
  -27.9772  -31.8555   26.5872 H   0  0  0  0  0  0  0  0  0  0  0  0
  -28.2744  -38.0016   24.6863 H   0  0  0  0  0  0  0  0  0  0  0  0
  -28.0396  -36.2711   24.7461 H   0  0  0  0  0  0  0  0  0  0  0  0
  -27.1773  -37.3087   25.8564 H   0  0  0  0  0  0  0  0  0  0  0  0
  -20.9627  -29.9365   21.7352 H   0  0  0  0  0  0  0  0  0  0  0  0
  -26.0447  -38.2561   24.0273 H   0  0  0  0  0  0  0  0  0  0  0  0
  -26.2693  -19.8298   21.4688 H   0  0  0  0  0  0  0  0  0  0  0  0
  -31.0731  -24.9979   19.6597 H   0  0  0  0  0  0  0  0  0  0  0  0
  -30.2984  -24.8685   18.1015 H   0  0  0  0  0  0  0  0  0  0  0  0
  -29.2656  -26.6896   18.3870 H   0  0  0  0  0  0  0  0  0  0  0  0
  -30.1232  -26.6564   20.1473 H   0  0  0  0  0  0  0  0  0  0  0  0
  -31.1493  -21.3928   18.9557 H   0  0  0  0  0  0  0  0  0  0  0  0
  -31.5069  -23.0280   18.6299 H   0  0  0  0  0  0  0  0  0  0  0  0
  -27.3934  -17.8479   20.6767 H   0  0  0  0  0  0  0  0  0  0  0  0
  1 25  1  0  0  0  0
  1 30  2  0  0  0  0
  1 80  1  0  0  0  0
  2  3  1  0  0  0  0
  2 25  1  0  0  0  0
  2 82  1  0  0  0  0
  2 83  1  0  0  0  0
  3  4  1  0  0  0  0
  3 84  1  0  0  0  0
  3 85  1  0  0  0  0
  4  5  1  0  0  0  0
  4 86  1  0  0  0  0
  4 87  1  0  0  0  0
  5  6  1  0  0  0  0
  5 26  1  0  0  0  0
  5 88  1  6  0  0  0
  6 25  1  0  0  0  0
  6 89  1  0  0  0  0
  6 90  1  0  0  0  0
  7  8  2  0  0  0  0
  7 26  1  0  0  0  0
  7 29  1  0  0  0  0
  8  9  1  0  0  0  0
  8 22  1  0  0  0  0
  9 10  1  0  0  0  0
  9 27  2  0  0  0  0
 10 11  2  0  0  0  0
 10 15  1  0  0  0  0
 11 12  1  0  0  0  0
 11 91  1  0  0  0  0
 12 13  2  0  0  0  0
 12 92  1  0  0  0  0
 13 14  1  0  0  0  0
 13 31  1  0  0  0  0
 14 15  2  0  0  0  0
 14 93  1  0  0  0  0
 15 94  1  0  0  0  0
 16 17  2  0  0  0  0
 16 21  1  0  0  0  0
 16 31  1  0  0  0  0
 17 18  1  0  0  0  0
 17 95  1  0  0  0  0
 18 19  2  0  0  0  0
 18 96  1  0  0  0  0
 19 20  1  0  0  0  0
 19 24  1  0  0  0  0
 20 21  2  0  0  0  0
 20 97  1  0  0  0  0
 21 23  1  0  0  0  0
 22 28  1  0  0  0  0
 22 32  2  0  0  0  0
 26 27  1  0  0  0  0
 28 98  1  0  0  0  0
 28 99  1  0  0  0  0
 29100  1  0  0  0  0
 29101  1  0  0  0  0
 33 34  1  0  0  0  0
 33 66  1  0  0  0  0
 33 70  2  0  0  0  0
 34 36  1  0  0  0  0
 34 59  1  0  0  0  0
 34102  1  6  0  0  0
 35 44  2  0  0  0  0
 35 45  1  0  0  0  0
 35 68  1  0  0  0  0
 36 56  1  0  0  0  0
 36103  1  0  0  0  0
 37 39  1  0  0  0  0
 37 47  1  0  0  0  0
 37 66  1  0  0  0  0
 37104  1  6  0  0  0
 38 43  2  0  0  0  0
 38 46  1  0  0  0  0
 38 47  1  0  0  0  0
 39 64  1  0  0  0  0
 39 67  2  0  0  0  0
 40 52  1  0  0  0  0
 40 53  2  0  0  0  0
 40 58  1  0  0  0  0
 41105  1  0  0  0  0
 41106  1  0  0  0  0
 41107  1  0  0  0  0
 42 43  1  0  0  0  0
 42 66  1  0  0  0  0
 42108  1  0  0  0  0
 42109  1  0  0  0  0
 43 44  1  0  0  0  0
 44110  1  0  0  0  0
 45 46  2  0  0  0  0
 45111  1  0  0  0  0
 46112  1  0  0  0  0
 47113  1  0  0  0  0
 47114  1  0  0  0  0
 48 41  1  0  0  0  0
 48 56  1  0  0  0  0
 48 65  1  0  0  0  0
 48115  1  1  0  0  0
 49 50  1  0  0  0  0
 49 53  1  0  0  0  0
 49 64  1  0  0  0  0
 49116  1  1  0  0  0
 50 51  1  0  0  0  0
 50117  1  0  0  0  0
 50118  1  0  0  0  0
 51 52  1  0  0  0  0
 51119  1  0  0  0  0
 51120  1  0  0  0  0
 52121  1  0  0  0  0
 52122  1  0  0  0  0
 53 54  1  0  0  0  0
 54 55  2  0  0  0  0
 54123  1  0  0  0  0
 55 57  1  0  0  0  0
 55124  1  0  0  0  0
 56 69  2  0  0  0  0
 57 58  2  0  0  0  0
 57125  1  0  0  0  0
 58126  1  0  0  0  0
 59 60  1  0  0  0  0
 59 61  1  0  0  0  0
 59 62  1  0  0  0  0
 60127  1  0  0  0  0
 60128  1  0  0  0  0
 60129  1  0  0  0  0
 61130  1  0  0  0  0
 61131  1  0  0  0  0
 61132  1  0  0  0  0
 62133  1  0  0  0  0
 62134  1  0  0  0  0
 62135  1  0  0  0  0
 63 65  1  0  0  0  0
 63136  1  0  0  0  0
 63137  1  0  0  0  0
 63138  1  0  0  0  0
 64139  1  0  0  0  0
 65140  1  0  0  0  0
 68 76  1  0  0  0  0
 71 72  2  0  0  0  0
 71 81  1  0  0  0  0
 71141  1  0  0  0  0
 72 77  1  0  0  0  0
 72 80  1  0  0  0  0
 73 74  1  0  0  0  0
 73 77  2  0  0  0  0
 73 81  1  0  0  0  0
 74 78  2  0  0  0  0
 74 79  1  0  0  0  0
 75 76  1  0  0  0  0
 75 78  1  0  0  0  0
 75142  1  0  0  0  0
 75143  1  0  0  0  0
 76144  1  0  0  0  0
 76145  1  0  0  0  0
 79146  1  0  0  0  0
 79147  1  0  0  0  0
 80148  1  0  0  0  0
M  ISO  4   1 100  68 101  76 101  80 100
M  END
$$$$
84
 OpenBabel04052305473D

156164  0  0  0  0  0  0  0  0999 V2000
  -30.7652  -14.3608   20.6636 C   0  0  0  0  0  0  0  0  0  0  0  0
  -30.4392  -12.2669   19.3775 C   0  0  0  0  0  0  0  0  0  0  0  0
  -29.4791  -12.5281   18.1977 C   0  0  0  0  0  0  0  0  0  0  0  0
  -27.9985  -12.3963   18.6038 C   0  0  0  0  0  0  0  0  0  0  0  0
  -27.6639  -13.2170   19.8820 C   0  0  2  0  0  0  0  0  0  0  0  0
  -28.6795  -12.9602   21.0279 C   0  0  0  0  0  0  0  0  0  0  0  0
  -25.2633  -13.8245   20.5754 C   0  0  0  0  0  0  0  0  0  0  0  0
  -24.1645  -13.0409   20.9408 C   0  0  0  0  0  0  0  0  0  0  0  0
  -24.6400  -11.7009   20.8697 C   0  0  0  0  0  0  0  0  0  0  0  0
  -23.9005  -10.4085   21.0420 C   0  0  0  0  0  0  0  0  0  0  0  0
  -24.3588   -9.4123   21.9123 C   0  0  0  0  0  0  0  0  0  0  0  0
  -23.6296   -8.2350   22.0803 C   0  0  0  0  0  0  0  0  0  0  0  0
  -22.4385   -8.0419   21.3657 C   0  0  0  0  0  0  0  0  0  0  0  0
  -22.0103   -9.0167   20.4678 C   0  0  0  0  0  0  0  0  0  0  0  0
  -22.7317  -10.1925   20.3102 C   0  0  0  0  0  0  0  0  0  0  0  0
  -21.6857   -6.0709   22.5391 C   0  0  0  0  0  0  0  0  0  0  0  0
  -21.4064   -6.5490   23.8264 C   0  0  0  0  0  0  0  0  0  0  0  0
  -21.3635   -5.6677   24.9085 C   0  0  0  0  0  0  0  0  0  0  0  0
  -21.5973   -4.3067   24.7088 C   0  0  0  0  0  0  0  0  0  0  0  0
  -21.8700   -3.8284   23.4282 C   0  0  0  0  0  0  0  0  0  0  0  0
  -21.9144   -4.7056   22.3460 C   0  0  0  0  0  0  0  0  0  0  0  0
  -22.8194  -13.5263   21.1763 C   0  0  0  0  0  0  0  0  0  0  0  0
  -22.1559   -4.2206   21.1063 F   0  0  0  0  0  0  0  0  0  0  0  0
  -21.5628   -3.4510   25.7555 F   0  0  0  0  0  0  0  0  0  0  0  0
  -30.0261  -13.1803   20.4553 N   0  0  0  0  0  0  0  0  0  0  0  0
  -26.2911  -12.9356   20.3443 N   0  0  0  0  0  0  0  0  0  0  0  0
  -25.9236  -11.6675   20.5847 N   0  0  0  0  0  0  0  0  0  0  0  0
  -22.0708  -12.7905   22.0005 N   0  0  0  0  0  0  0  0  0  0  0  0
  -25.4117  -15.1773   20.4097 N   0  0  0  0  0  0  0  0  0  0  0  0
  -31.7916  -14.6724   20.0536 O   0  0  0  0  0  0  0  0  0  0  0  0
  -21.6670   -6.9022   21.4423 O   0  0  0  0  0  0  0  0  0  0  0  0
  -22.3946  -14.5564   20.6568 O   0  0  0  0  0  0  0  0  0  0  0  0
  -24.6048  -31.8614   23.2223 C   0  0  0  0  0  0  0  0  0  0  0  0
  -25.8822  -32.4841   23.8616 C   0  0  1  0  0  0  0  0  0  0  0  0
  -27.2536  -27.5042   20.1156 C   0  0  0  0  0  0  0  0  0  0  0  0
  -25.5726  -33.8762   24.2210 N   0  0  0  0  0  0  0  0  0  0  0  0
  -23.4066  -30.4859   21.5461 C   0  0  2  0  0  0  0  0  0  0  0  0
  -24.8467  -28.9636   20.1247 C   0  0  0  0  0  0  0  0  0  0  0  0
  -22.7412  -29.4652   22.5052 C   0  0  0  0  0  0  0  0  0  0  0  0
  -18.0167  -28.1302   22.8626 C   0  0  0  0  0  0  0  0  0  0  0  0
  -24.1342  -36.7390   23.2568 C   0  0  0  0  0  0  0  0  0  0  0  0
  -25.9141  -30.8882   21.3456 C   0  0  0  0  0  0  0  0  0  0  0  0
  -25.9930  -29.5029   20.7208 C   0  0  0  0  0  0  0  0  0  0  0  0
  -27.1758  -28.7612   20.7331 C   0  0  0  0  0  0  0  0  0  0  0  0
  -26.1032  -26.9836   19.5230 C   0  0  0  0  0  0  0  0  0  0  0  0
  -24.9097  -27.7011   19.5331 C   0  0  0  0  0  0  0  0  0  0  0  0
  -23.5715  -29.7899   20.1582 C   0  0  0  0  0  0  0  0  0  0  0  0
  -25.3990  -36.3212   24.0232 C   0  0  1  0  0  0  0  0  0  0  0  0
  -20.5793  -28.3813   23.1004 C   0  0  2  0  0  0  0  0  0  0  0  0
  -20.6548  -26.9392   22.5411 C   0  0  0  0  0  0  0  0  0  0  0  0
  -19.5615  -26.6407   21.5143 C   0  0  0  0  0  0  0  0  0  0  0  0
  -18.1797  -26.7818   22.1673 C   0  0  0  0  0  0  0  0  0  0  0  0
  -19.1385  -28.8769   23.2988 C   0  0  0  0  0  0  0  0  0  0  0  0
  -18.9183  -30.1286   23.8878 C   0  0  0  0  0  0  0  0  0  0  0  0
  -17.6396  -30.6493   24.0352 C   0  0  0  0  0  0  0  0  0  0  0  0
  -25.9153  -34.9582   23.4993 C   0  0  0  0  0  0  0  0  0  0  0  0
  -16.5415  -29.9068   23.6254 C   0  0  0  0  0  0  0  0  0  0  0  0
  -16.7331  -28.6521   23.0586 C   0  0  0  0  0  0  0  0  0  0  0  0
  -26.4583  -31.6439   25.0683 C   0  0  0  0  0  0  0  0  0  0  0  0
  -25.3807  -31.3179   26.1374 C   0  0  0  0  0  0  0  0  0  0  0  0
  -27.0530  -30.3024   24.5680 C   0  0  0  0  0  0  0  0  0  0  0  0
  -27.6014  -32.4281   25.7651 C   0  0  0  0  0  0  0  0  0  0  0  0
  -27.5629  -37.2220   24.8621 C   0  0  0  0  0  0  0  0  0  0  0  0
  -21.4133  -29.3375   22.3735 N   0  0  0  0  0  0  0  0  0  0  0  0
  -26.4706  -37.3372   23.9061 N   0  0  0  0  0  0  0  0  0  0  0  0
  -24.6674  -31.0544   22.1178 N   0  0  0  0  0  0  0  0  0  0  0  0
  -23.4259  -28.8150   23.2971 O   0  0  0  0  0  0  0  0  0  0  0  0
  -28.3948  -26.7345   20.0089 O   0  0  0  0  0  0  0  0  0  0  0  0
  -26.5870  -34.9065   22.4671 O   0  0  0  0  0  0  0  0  0  0  0  0
  -23.5365  -32.1254   23.7833 O   0  0  0  0  0  0  0  0  0  0  0  0
  -29.0843  -20.8075   19.9964 C   0  0  0  0  0  0  0  0  0  0  0  0
  -29.3392  -18.7708   21.0046 C   0  0  0  0  0  0  0  0  0  0  0  0
  -28.1223  -21.1455   20.9226 C   0  0  0  0  0  0  0  0  0  0  0  0
  -28.3777  -19.1090   21.9312 C   0  0  0  0  0  0  0  0  0  0  0  0
  -27.0881  -18.3491   23.9520 C   0  0  0  0  0  0  0  0  0  0  0  0
  -27.7630  -23.4116   19.8882 C   0  0  0  0  0  0  0  0  0  0  0  0
  -27.0075  -17.1228   24.8262 C   0  0  0  0  0  0  0  0  0  0  0  0
  -30.0298  -17.4491   21.0343 C   0  0  0  0  0  0  0  0  0  0  0  0
  -26.8894  -24.6256   20.1443 C   0  0  0  0  0  0  0  0  0  0  0  0
  -29.7100  -19.6140   20.0207 N   0  0  0  0  0  0  0  0  0  0  0  0
  -27.7518  -20.3024   21.9066 N   0  0  0  0  0  0  0  0  0  0  0  0
  -27.5110  -22.4183   20.8284 N   0  0  0  0  0  0  0  0  0  0  0  0
  -28.0309  -18.1929   22.9308 N   0  0  0  0  0  0  0  0  0  0  0  0
  -29.1899  -16.3789   20.5444 N   0  0  0  0  0  0  0  0  0  0  0  0
  -26.3777  -19.3247   24.1716 O   0  0  0  0  0  0  0  0  0  0  0  0
  -28.5625  -23.3799   18.9585 O   0  0  0  0  0  0  0  0  0  0  0  0
  -31.4485  -12.4701   19.0860 H   0  0  0  0  0  0  0  0  0  0  0  0
  -30.3970  -11.2460   19.6950 H   0  0  0  0  0  0  0  0  0  0  0  0
  -29.6870  -11.8204   17.4226 H   0  0  0  0  0  0  0  0  0  0  0  0
  -29.6375  -13.5326   17.8649 H   0  0  0  0  0  0  0  0  0  0  0  0
  -27.7830  -11.3650   18.7904 H   0  0  0  0  0  0  0  0  0  0  0  0
  -27.4028  -12.7801   17.8021 H   0  0  0  0  0  0  0  0  0  0  0  0
  -27.7353  -14.2503   19.6136 H   0  0  0  0  0  0  0  0  0  0  0  0
  -28.5890  -11.9550   21.3832 H   0  0  0  0  0  0  0  0  0  0  0  0
  -28.5005  -13.6134   21.8562 H   0  0  0  0  0  0  0  0  0  0  0  0
  -25.2399   -9.5495   22.4318 H   0  0  0  0  0  0  0  0  0  0  0  0
  -23.9663   -7.5070   22.7297 H   0  0  0  0  0  0  0  0  0  0  0  0
  -21.1515   -8.8641   19.9162 H   0  0  0  0  0  0  0  0  0  0  0  0
  -22.4016  -10.9115   19.6476 H   0  0  0  0  0  0  0  0  0  0  0  0
  -21.2319   -7.5552   23.9750 H   0  0  0  0  0  0  0  0  0  0  0  0
  -21.1589   -6.0228   25.8556 H   0  0  0  0  0  0  0  0  0  0  0  0
  -22.0396   -2.8212   23.2809 H   0  0  0  0  0  0  0  0  0  0  0  0
  -22.4401  -11.9703   22.4008 H   0  0  0  0  0  0  0  0  0  0  0  0
  -21.1493  -13.0679   22.2082 H   0  0  0  0  0  0  0  0  0  0  0  0
  -24.6538  -15.7807   20.5848 H   0  0  0  0  0  0  0  0  0  0  0  0
  -26.2762  -15.5453   20.1156 H   0  0  0  0  0  0  0  0  0  0  0  0
  -26.6778  -32.4663   23.1464 H   0  0  0  0  0  0  0  0  0  0  0  0
  -25.0747  -34.0282   25.0566 H   0  0  0  0  0  0  0  0  0  0  0  0
  -22.7881  -31.3489   21.4131 H   0  0  0  0  0  0  0  0  0  0  0  0
  -23.3854  -35.9823   23.3648 H   0  0  0  0  0  0  0  0  0  0  0  0
  -24.3696  -36.8624   22.2204 H   0  0  0  0  0  0  0  0  0  0  0  0
  -23.7669  -37.6632   23.6516 H   0  0  0  0  0  0  0  0  0  0  0  0
  -25.9445  -31.6237   20.5691 H   0  0  0  0  0  0  0  0  0  0  0  0
  -26.7436  -31.0079   22.0108 H   0  0  0  0  0  0  0  0  0  0  0  0
  -28.0090  -29.1452   21.2057 H   0  0  0  0  0  0  0  0  0  0  0  0
  -26.1369  -26.0560   19.0719 H   0  0  0  0  0  0  0  0  0  0  0  0
  -24.0652  -27.2961   19.0997 H   0  0  0  0  0  0  0  0  0  0  0  0
  -23.6156  -30.5365   19.3930 H   0  0  0  0  0  0  0  0  0  0  0  0
  -22.7355  -29.1425   19.9945 H   0  0  0  0  0  0  0  0  0  0  0  0
  -25.1353  -36.2335   25.0565 H   0  0  0  0  0  0  0  0  0  0  0  0
  -21.0070  -28.3206   24.0793 H   0  0  0  0  0  0  0  0  0  0  0  0
  -20.5555  -26.2518   23.3550 H   0  0  0  0  0  0  0  0  0  0  0  0
  -21.5974  -26.8362   22.0454 H   0  0  0  0  0  0  0  0  0  0  0  0
  -19.6810  -25.6422   21.1488 H   0  0  0  0  0  0  0  0  0  0  0  0
  -19.6406  -27.3343   20.7034 H   0  0  0  0  0  0  0  0  0  0  0  0
  -17.4282  -26.6888   21.4113 H   0  0  0  0  0  0  0  0  0  0  0  0
  -18.0803  -26.0130   22.9049 H   0  0  0  0  0  0  0  0  0  0  0  0
  -19.7265  -30.6774   24.2204 H   0  0  0  0  0  0  0  0  0  0  0  0
  -17.5064  -31.5856   24.4483 H   0  0  0  0  0  0  0  0  0  0  0  0
  -15.5878  -30.2839   23.7407 H   0  0  0  0  0  0  0  0  0  0  0  0
  -15.9120  -28.0941   22.7766 H   0  0  0  0  0  0  0  0  0  0  0  0
  -24.5787  -30.7757   25.6817 H   0  0  0  0  0  0  0  0  0  0  0  0
  -25.0041  -32.2289   26.5536 H   0  0  0  0  0  0  0  0  0  0  0  0
  -25.8166  -30.7245   26.9138 H   0  0  0  0  0  0  0  0  0  0  0  0
  -26.2892  -29.7335   24.0803 H   0  0  0  0  0  0  0  0  0  0  0  0
  -27.4336  -29.7484   25.4006 H   0  0  0  0  0  0  0  0  0  0  0  0
  -27.8466  -30.4994   23.8779 H   0  0  0  0  0  0  0  0  0  0  0  0
  -27.2251  -33.3632   26.1242 H   0  0  0  0  0  0  0  0  0  0  0  0
  -28.3902  -32.6065   25.0645 H   0  0  0  0  0  0  0  0  0  0  0  0
  -27.9772  -31.8555   26.5872 H   0  0  0  0  0  0  0  0  0  0  0  0
  -28.2744  -38.0016   24.6863 H   0  0  0  0  0  0  0  0  0  0  0  0
  -28.0396  -36.2711   24.7461 H   0  0  0  0  0  0  0  0  0  0  0  0
  -27.1773  -37.3087   25.8564 H   0  0  0  0  0  0  0  0  0  0  0  0
  -20.9627  -29.9365   21.7352 H   0  0  0  0  0  0  0  0  0  0  0  0
  -26.0447  -38.2561   24.0273 H   0  0  0  0  0  0  0  0  0  0  0  0
  -29.3333  -21.4884   19.2620 H   0  0  0  0  0  0  0  0  0  0  0  0
  -27.7007  -16.3876   24.4742 H   0  0  0  0  0  0  0  0  0  0  0  0
  -26.0154  -16.7237   24.7902 H   0  0  0  0  0  0  0  0  0  0  0  0
  -27.2492  -17.3870   25.8345 H   0  0  0  0  0  0  0  0  0  0  0  0
  -30.3115  -17.2308   22.0432 H   0  0  0  0  0  0  0  0  0  0  0  0
  -30.8850  -17.5126   20.3943 H   0  0  0  0  0  0  0  0  0  0  0  0
  -26.4469  -24.5566   21.1161 H   0  0  0  0  0  0  0  0  0  0  0  0
  -26.1052  -24.6803   19.4184 H   0  0  0  0  0  0  0  0  0  0  0  0
  -26.8282  -22.6245   21.5070 H   0  0  0  0  0  0  0  0  0  0  0  0
  -28.5095  -17.3327   22.9129 H   0  0  0  0  0  0  0  0  0  0  0  0
  -28.2535  -16.4159   20.2426 H   0  0  0  0  0  0  0  0  0  0  0  0
  1 25  1  0  0  0  0
  1 30  2  0  0  0  0
  1 84  1  0  0  0  0
  2  3  1  0  0  0  0
  2 25  1  0  0  0  0
  2 87  1  0  0  0  0
  2 88  1  0  0  0  0
  3  4  1  0  0  0  0
  3 89  1  0  0  0  0
  3 90  1  0  0  0  0
  4  5  1  0  0  0  0
  4 91  1  0  0  0  0
  4 92  1  0  0  0  0
  5  6  1  0  0  0  0
  5 26  1  0  0  0  0
  5 93  1  6  0  0  0
  6 25  1  0  0  0  0
  6 94  1  0  0  0  0
  6 95  1  0  0  0  0
  7  8  2  0  0  0  0
  7 26  1  0  0  0  0
  7 29  1  0  0  0  0
  8  9  1  0  0  0  0
  8 22  1  0  0  0  0
  9 10  1  0  0  0  0
  9 27  2  0  0  0  0
 10 11  2  0  0  0  0
 10 15  1  0  0  0  0
 11 12  1  0  0  0  0
 11 96  1  0  0  0  0
 12 13  2  0  0  0  0
 12 97  1  0  0  0  0
 13 14  1  0  0  0  0
 13 31  1  0  0  0  0
 14 15  2  0  0  0  0
 14 98  1  0  0  0  0
 15 99  1  0  0  0  0
 16 17  2  0  0  0  0
 16 21  1  0  0  0  0
 16 31  1  0  0  0  0
 17 18  1  0  0  0  0
 17100  1  0  0  0  0
 18 19  2  0  0  0  0
 18101  1  0  0  0  0
 19 20  1  0  0  0  0
 19 24  1  0  0  0  0
 20 21  2  0  0  0  0
 20102  1  0  0  0  0
 21 23  1  0  0  0  0
 22 28  1  0  0  0  0
 22 32  2  0  0  0  0
 26 27  1  0  0  0  0
 28103  1  0  0  0  0
 28104  1  0  0  0  0
 29105  1  0  0  0  0
 29106  1  0  0  0  0
 33 34  1  0  0  0  0
 33 66  1  0  0  0  0
 33 70  2  0  0  0  0
 34 36  1  0  0  0  0
 34 59  1  0  0  0  0
 34107  1  6  0  0  0
 35 44  2  0  0  0  0
 35 45  1  0  0  0  0
 35 68  1  0  0  0  0
 36 56  1  0  0  0  0
 36108  1  0  0  0  0
 37 39  1  0  0  0  0
 37 47  1  0  0  0  0
 37 66  1  0  0  0  0
 37109  1  6  0  0  0
 38 43  2  0  0  0  0
 38 46  1  0  0  0  0
 38 47  1  0  0  0  0
 39 64  1  0  0  0  0
 39 67  2  0  0  0  0
 40 52  1  0  0  0  0
 40 53  2  0  0  0  0
 40 58  1  0  0  0  0
 41110  1  0  0  0  0
 41111  1  0  0  0  0
 41112  1  0  0  0  0
 42 43  1  0  0  0  0
 42 66  1  0  0  0  0
 42113  1  0  0  0  0
 42114  1  0  0  0  0
 43 44  1  0  0  0  0
 44115  1  0  0  0  0
 45 46  2  0  0  0  0
 45116  1  0  0  0  0
 46117  1  0  0  0  0
 47118  1  0  0  0  0
 47119  1  0  0  0  0
 48 41  1  0  0  0  0
 48 56  1  0  0  0  0
 48 65  1  0  0  0  0
 48120  1  1  0  0  0
 49 50  1  0  0  0  0
 49 53  1  0  0  0  0
 49 64  1  0  0  0  0
 49121  1  1  0  0  0
 50 51  1  0  0  0  0
 50122  1  0  0  0  0
 50123  1  0  0  0  0
 51 52  1  0  0  0  0
 51124  1  0  0  0  0
 51125  1  0  0  0  0
 52126  1  0  0  0  0
 52127  1  0  0  0  0
 53 54  1  0  0  0  0
 54 55  2  0  0  0  0
 54128  1  0  0  0  0
 55 57  1  0  0  0  0
 55129  1  0  0  0  0
 56 69  2  0  0  0  0
 57 58  2  0  0  0  0
 57130  1  0  0  0  0
 58131  1  0  0  0  0
 59 60  1  0  0  0  0
 59 61  1  0  0  0  0
 59 62  1  0  0  0  0
 60132  1  0  0  0  0
 60133  1  0  0  0  0
 60134  1  0  0  0  0
 61135  1  0  0  0  0
 61136  1  0  0  0  0
 61137  1  0  0  0  0
 62138  1  0  0  0  0
 62139  1  0  0  0  0
 62140  1  0  0  0  0
 63 65  1  0  0  0  0
 63141  1  0  0  0  0
 63142  1  0  0  0  0
 63143  1  0  0  0  0
 64144  1  0  0  0  0
 65145  1  0  0  0  0
 68 79  1  0  0  0  0
 71 73  2  0  0  0  0
 71 80  1  0  0  0  0
 71146  1  0  0  0  0
 72 74  1  0  0  0  0
 72 78  1  0  0  0  0
 72 80  2  0  0  0  0
 73 81  1  0  0  0  0
 73 82  1  0  0  0  0
 74 81  2  0  0  0  0
 74 83  1  0  0  0  0
 75 77  1  0  0  0  0
 75 83  1  0  0  0  0
 75 85  2  0  0  0  0
 76 79  1  0  0  0  0
 76 82  1  0  0  0  0
 76 86  2  0  0  0  0
 77147  1  0  0  0  0
 77148  1  0  0  0  0
 77149  1  0  0  0  0
 78 84  1  0  0  0  0
 78150  1  0  0  0  0
 78151  1  0  0  0  0
 79152  1  0  0  0  0
 79153  1  0  0  0  0
 82154  1  0  0  0  0
 83155  1  0  0  0  0
 84156  1  0  0  0  0
M  ISO  4   1 100  68 101  79 101  84 100
M  END
$$$$
85
 OpenBabel04052305473D

156164  0  0  0  0  0  0  0  0999 V2000
  -30.7652  -14.3608   20.6636 C   0  0  0  0  0  0  0  0  0  0  0  0
  -30.4392  -12.2669   19.3775 C   0  0  0  0  0  0  0  0  0  0  0  0
  -29.4791  -12.5281   18.1977 C   0  0  0  0  0  0  0  0  0  0  0  0
  -27.9985  -12.3963   18.6038 C   0  0  0  0  0  0  0  0  0  0  0  0
  -27.6639  -13.2170   19.8820 C   0  0  2  0  0  0  0  0  0  0  0  0
  -28.6795  -12.9602   21.0279 C   0  0  0  0  0  0  0  0  0  0  0  0
  -25.2633  -13.8245   20.5754 C   0  0  0  0  0  0  0  0  0  0  0  0
  -24.1645  -13.0409   20.9408 C   0  0  0  0  0  0  0  0  0  0  0  0
  -24.6400  -11.7009   20.8697 C   0  0  0  0  0  0  0  0  0  0  0  0
  -23.9005  -10.4085   21.0420 C   0  0  0  0  0  0  0  0  0  0  0  0
  -24.3588   -9.4123   21.9123 C   0  0  0  0  0  0  0  0  0  0  0  0
  -23.6296   -8.2350   22.0803 C   0  0  0  0  0  0  0  0  0  0  0  0
  -22.4385   -8.0419   21.3657 C   0  0  0  0  0  0  0  0  0  0  0  0
  -22.0103   -9.0167   20.4678 C   0  0  0  0  0  0  0  0  0  0  0  0
  -22.7317  -10.1925   20.3102 C   0  0  0  0  0  0  0  0  0  0  0  0
  -21.6857   -6.0709   22.5391 C   0  0  0  0  0  0  0  0  0  0  0  0
  -21.4064   -6.5490   23.8264 C   0  0  0  0  0  0  0  0  0  0  0  0
  -21.3635   -5.6677   24.9085 C   0  0  0  0  0  0  0  0  0  0  0  0
  -21.5973   -4.3067   24.7088 C   0  0  0  0  0  0  0  0  0  0  0  0
  -21.8700   -3.8284   23.4282 C   0  0  0  0  0  0  0  0  0  0  0  0
  -21.9144   -4.7056   22.3460 C   0  0  0  0  0  0  0  0  0  0  0  0
  -22.8194  -13.5263   21.1763 C   0  0  0  0  0  0  0  0  0  0  0  0
  -22.1559   -4.2206   21.1063 F   0  0  0  0  0  0  0  0  0  0  0  0
  -21.5628   -3.4510   25.7555 F   0  0  0  0  0  0  0  0  0  0  0  0
  -30.0261  -13.1803   20.4553 N   0  0  0  0  0  0  0  0  0  0  0  0
  -26.2911  -12.9356   20.3443 N   0  0  0  0  0  0  0  0  0  0  0  0
  -25.9236  -11.6675   20.5847 N   0  0  0  0  0  0  0  0  0  0  0  0
  -22.0708  -12.7905   22.0005 N   0  0  0  0  0  0  0  0  0  0  0  0
  -25.4117  -15.1773   20.4097 N   0  0  0  0  0  0  0  0  0  0  0  0
  -31.7916  -14.6724   20.0536 O   0  0  0  0  0  0  0  0  0  0  0  0
  -21.6670   -6.9022   21.4423 O   0  0  0  0  0  0  0  0  0  0  0  0
  -22.3946  -14.5564   20.6568 O   0  0  0  0  0  0  0  0  0  0  0  0
  -24.6048  -31.8614   23.2223 C   0  0  0  0  0  0  0  0  0  0  0  0
  -25.8822  -32.4841   23.8616 C   0  0  1  0  0  0  0  0  0  0  0  0
  -27.2536  -27.5042   20.1156 C   0  0  0  0  0  0  0  0  0  0  0  0
  -25.5726  -33.8762   24.2210 N   0  0  0  0  0  0  0  0  0  0  0  0
  -23.4066  -30.4859   21.5461 C   0  0  2  0  0  0  0  0  0  0  0  0
  -24.8467  -28.9636   20.1247 C   0  0  0  0  0  0  0  0  0  0  0  0
  -22.7412  -29.4652   22.5052 C   0  0  0  0  0  0  0  0  0  0  0  0
  -18.0167  -28.1302   22.8626 C   0  0  0  0  0  0  0  0  0  0  0  0
  -24.1342  -36.7390   23.2568 C   0  0  0  0  0  0  0  0  0  0  0  0
  -25.9141  -30.8882   21.3456 C   0  0  0  0  0  0  0  0  0  0  0  0
  -25.9930  -29.5029   20.7208 C   0  0  0  0  0  0  0  0  0  0  0  0
  -27.1758  -28.7612   20.7331 C   0  0  0  0  0  0  0  0  0  0  0  0
  -26.1032  -26.9836   19.5230 C   0  0  0  0  0  0  0  0  0  0  0  0
  -24.9097  -27.7011   19.5331 C   0  0  0  0  0  0  0  0  0  0  0  0
  -23.5715  -29.7899   20.1582 C   0  0  0  0  0  0  0  0  0  0  0  0
  -25.3990  -36.3212   24.0232 C   0  0  1  0  0  0  0  0  0  0  0  0
  -20.5793  -28.3813   23.1004 C   0  0  2  0  0  0  0  0  0  0  0  0
  -20.6548  -26.9392   22.5411 C   0  0  0  0  0  0  0  0  0  0  0  0
  -19.5615  -26.6407   21.5143 C   0  0  0  0  0  0  0  0  0  0  0  0
  -18.1797  -26.7818   22.1673 C   0  0  0  0  0  0  0  0  0  0  0  0
  -19.1385  -28.8769   23.2988 C   0  0  0  0  0  0  0  0  0  0  0  0
  -18.9183  -30.1286   23.8878 C   0  0  0  0  0  0  0  0  0  0  0  0
  -17.6396  -30.6493   24.0352 C   0  0  0  0  0  0  0  0  0  0  0  0
  -25.9153  -34.9582   23.4993 C   0  0  0  0  0  0  0  0  0  0  0  0
  -16.5415  -29.9068   23.6254 C   0  0  0  0  0  0  0  0  0  0  0  0
  -16.7331  -28.6521   23.0586 C   0  0  0  0  0  0  0  0  0  0  0  0
  -26.4583  -31.6439   25.0683 C   0  0  0  0  0  0  0  0  0  0  0  0
  -25.3807  -31.3179   26.1374 C   0  0  0  0  0  0  0  0  0  0  0  0
  -27.0530  -30.3024   24.5680 C   0  0  0  0  0  0  0  0  0  0  0  0
  -27.6014  -32.4281   25.7651 C   0  0  0  0  0  0  0  0  0  0  0  0
  -27.5629  -37.2220   24.8621 C   0  0  0  0  0  0  0  0  0  0  0  0
  -21.4133  -29.3375   22.3735 N   0  0  0  0  0  0  0  0  0  0  0  0
  -26.4706  -37.3372   23.9061 N   0  0  0  0  0  0  0  0  0  0  0  0
  -24.6674  -31.0544   22.1178 N   0  0  0  0  0  0  0  0  0  0  0  0
  -23.4259  -28.8150   23.2971 O   0  0  0  0  0  0  0  0  0  0  0  0
  -28.3948  -26.7345   20.0089 O   0  0  0  0  0  0  0  0  0  0  0  0
  -26.5870  -34.9065   22.4671 O   0  0  0  0  0  0  0  0  0  0  0  0
  -23.5365  -32.1254   23.7833 O   0  0  0  0  0  0  0  0  0  0  0  0
  -30.4569  -23.8208   20.4478 C   0  0  0  0  0  0  0  0  0  0  0  0
  -30.0116  -23.9219   19.1455 C   0  0  0  0  0  0  0  0  0  0  0  0
  -29.4684  -22.7722   18.6094 C   0  0  0  0  0  0  0  0  0  0  0  0
  -29.8326  -21.6373   20.5450 C   0  0  0  0  0  0  0  0  0  0  0  0
  -28.9533  -22.7597   17.2074 C   0  0  0  0  0  0  0  0  0  0  0  0
  -32.2009  -26.2076   18.9689 C   0  0  0  0  0  0  0  0  0  0  0  0
  -30.2089  -27.5340   18.1828 C   0  0  0  0  0  0  0  0  0  0  0  0
  -28.6961  -27.7249   18.2265 C   0  0  0  0  0  0  0  0  0  0  0  0
  -30.6799  -26.3209   18.9912 C   0  0  1  0  0  0  0  0  0  0  0  0
  -30.3826  -22.6899   21.1797 N   0  0  0  0  0  0  0  0  0  0  0  0
  -29.3630  -21.6080   19.2831 N   0  0  0  0  0  0  0  0  0  0  0  0
  -30.1122  -25.1079   18.4405 N   0  0  0  0  0  0  0  0  0  0  0  0
  -29.7381  -20.4317   21.2834 N   0  0  0  0  0  0  0  0  0  0  0  0
  -31.4485  -12.4701   19.0860 H   0  0  0  0  0  0  0  0  0  0  0  0
  -30.3970  -11.2460   19.6950 H   0  0  0  0  0  0  0  0  0  0  0  0
  -29.6870  -11.8204   17.4226 H   0  0  0  0  0  0  0  0  0  0  0  0
  -29.6375  -13.5326   17.8649 H   0  0  0  0  0  0  0  0  0  0  0  0
  -27.7830  -11.3650   18.7904 H   0  0  0  0  0  0  0  0  0  0  0  0
  -27.4028  -12.7801   17.8021 H   0  0  0  0  0  0  0  0  0  0  0  0
  -27.7353  -14.2503   19.6136 H   0  0  0  0  0  0  0  0  0  0  0  0
  -28.5890  -11.9550   21.3832 H   0  0  0  0  0  0  0  0  0  0  0  0
  -28.5005  -13.6134   21.8562 H   0  0  0  0  0  0  0  0  0  0  0  0
  -25.2399   -9.5495   22.4318 H   0  0  0  0  0  0  0  0  0  0  0  0
  -23.9663   -7.5070   22.7297 H   0  0  0  0  0  0  0  0  0  0  0  0
  -21.1515   -8.8641   19.9162 H   0  0  0  0  0  0  0  0  0  0  0  0
  -22.4016  -10.9115   19.6476 H   0  0  0  0  0  0  0  0  0  0  0  0
  -21.2319   -7.5552   23.9750 H   0  0  0  0  0  0  0  0  0  0  0  0
  -21.1589   -6.0228   25.8556 H   0  0  0  0  0  0  0  0  0  0  0  0
  -22.0396   -2.8212   23.2809 H   0  0  0  0  0  0  0  0  0  0  0  0
  -22.4401  -11.9703   22.4008 H   0  0  0  0  0  0  0  0  0  0  0  0
  -21.1493  -13.0679   22.2082 H   0  0  0  0  0  0  0  0  0  0  0  0
  -24.6538  -15.7807   20.5848 H   0  0  0  0  0  0  0  0  0  0  0  0
  -26.2762  -15.5453   20.1156 H   0  0  0  0  0  0  0  0  0  0  0  0
  -26.6778  -32.4663   23.1464 H   0  0  0  0  0  0  0  0  0  0  0  0
  -25.0747  -34.0282   25.0566 H   0  0  0  0  0  0  0  0  0  0  0  0
  -22.7881  -31.3489   21.4131 H   0  0  0  0  0  0  0  0  0  0  0  0
  -23.3854  -35.9823   23.3648 H   0  0  0  0  0  0  0  0  0  0  0  0
  -24.3696  -36.8624   22.2204 H   0  0  0  0  0  0  0  0  0  0  0  0
  -23.7669  -37.6632   23.6516 H   0  0  0  0  0  0  0  0  0  0  0  0
  -25.9445  -31.6237   20.5691 H   0  0  0  0  0  0  0  0  0  0  0  0
  -26.7436  -31.0079   22.0108 H   0  0  0  0  0  0  0  0  0  0  0  0
  -28.0090  -29.1452   21.2057 H   0  0  0  0  0  0  0  0  0  0  0  0
  -26.1369  -26.0560   19.0719 H   0  0  0  0  0  0  0  0  0  0  0  0
  -24.0652  -27.2961   19.0997 H   0  0  0  0  0  0  0  0  0  0  0  0
  -23.6156  -30.5365   19.3930 H   0  0  0  0  0  0  0  0  0  0  0  0
  -22.7355  -29.1425   19.9945 H   0  0  0  0  0  0  0  0  0  0  0  0
  -25.1353  -36.2335   25.0565 H   0  0  0  0  0  0  0  0  0  0  0  0
  -21.0070  -28.3206   24.0793 H   0  0  0  0  0  0  0  0  0  0  0  0
  -20.5555  -26.2518   23.3550 H   0  0  0  0  0  0  0  0  0  0  0  0
  -21.5974  -26.8362   22.0454 H   0  0  0  0  0  0  0  0  0  0  0  0
  -19.6810  -25.6422   21.1488 H   0  0  0  0  0  0  0  0  0  0  0  0
  -19.6406  -27.3343   20.7034 H   0  0  0  0  0  0  0  0  0  0  0  0
  -17.4282  -26.6888   21.4113 H   0  0  0  0  0  0  0  0  0  0  0  0
  -18.0803  -26.0130   22.9049 H   0  0  0  0  0  0  0  0  0  0  0  0
  -19.7265  -30.6774   24.2204 H   0  0  0  0  0  0  0  0  0  0  0  0
  -17.5064  -31.5856   24.4483 H   0  0  0  0  0  0  0  0  0  0  0  0
  -15.5878  -30.2839   23.7407 H   0  0  0  0  0  0  0  0  0  0  0  0
  -15.9120  -28.0941   22.7766 H   0  0  0  0  0  0  0  0  0  0  0  0
  -24.5787  -30.7757   25.6817 H   0  0  0  0  0  0  0  0  0  0  0  0
  -25.0041  -32.2289   26.5536 H   0  0  0  0  0  0  0  0  0  0  0  0
  -25.8166  -30.7245   26.9138 H   0  0  0  0  0  0  0  0  0  0  0  0
  -26.2892  -29.7335   24.0803 H   0  0  0  0  0  0  0  0  0  0  0  0
  -27.4336  -29.7484   25.4006 H   0  0  0  0  0  0  0  0  0  0  0  0
  -27.8466  -30.4994   23.8779 H   0  0  0  0  0  0  0  0  0  0  0  0
  -27.2251  -33.3632   26.1242 H   0  0  0  0  0  0  0  0  0  0  0  0
  -28.3902  -32.6065   25.0645 H   0  0  0  0  0  0  0  0  0  0  0  0
  -27.9772  -31.8555   26.5872 H   0  0  0  0  0  0  0  0  0  0  0  0
  -28.2744  -38.0016   24.6863 H   0  0  0  0  0  0  0  0  0  0  0  0
  -28.0396  -36.2711   24.7461 H   0  0  0  0  0  0  0  0  0  0  0  0
  -27.1773  -37.3087   25.8564 H   0  0  0  0  0  0  0  0  0  0  0  0
  -20.9627  -29.9365   21.7352 H   0  0  0  0  0  0  0  0  0  0  0  0
  -26.0447  -38.2561   24.0273 H   0  0  0  0  0  0  0  0  0  0  0  0
  -30.8704  -24.6582   20.8869 H   0  0  0  0  0  0  0  0  0  0  0  0
  -29.0856  -23.7273   16.7702 H   0  0  0  0  0  0  0  0  0  0  0  0
  -27.9130  -22.5096   17.2119 H   0  0  0  0  0  0  0  0  0  0  0  0
  -29.4923  -22.0333   16.6358 H   0  0  0  0  0  0  0  0  0  0  0  0
  -32.6310  -27.0996   19.3741 H   0  0  0  0  0  0  0  0  0  0  0  0
  -32.5341  -26.0772   17.9605 H   0  0  0  0  0  0  0  0  0  0  0  0
  -32.5046  -25.3665   19.5564 H   0  0  0  0  0  0  0  0  0  0  0  0
  -30.6754  -28.4112   18.5801 H   0  0  0  0  0  0  0  0  0  0  0  0
  -30.4821  -27.3656   17.1621 H   0  0  0  0  0  0  0  0  0  0  0  0
  -28.1975  -27.2552   17.4045 H   0  0  0  0  0  0  0  0  0  0  0  0
  -28.3314  -28.7287   18.1613 H   0  0  0  0  0  0  0  0  0  0  0  0
  -30.3539  -26.4524   20.0018 H   0  0  0  0  0  0  0  0  0  0  0  0
  -29.7798  -25.1284   17.5140 H   0  0  0  0  0  0  0  0  0  0  0  0
  -29.3993  -20.6212   22.1881 H   0  0  0  0  0  0  0  0  0  0  0  0
  1 25  1  0  0  0  0
  1 30  2  0  0  0  0
  1 83  1  0  0  0  0
  2  3  1  0  0  0  0
  2 25  1  0  0  0  0
  2 84  1  0  0  0  0
  2 85  1  0  0  0  0
  3  4  1  0  0  0  0
  3 86  1  0  0  0  0
  3 87  1  0  0  0  0
  4  5  1  0  0  0  0
  4 88  1  0  0  0  0
  4 89  1  0  0  0  0
  5  6  1  0  0  0  0
  5 26  1  0  0  0  0
  5 90  1  6  0  0  0
  6 25  1  0  0  0  0
  6 91  1  0  0  0  0
  6 92  1  0  0  0  0
  7  8  2  0  0  0  0
  7 26  1  0  0  0  0
  7 29  1  0  0  0  0
  8  9  1  0  0  0  0
  8 22  1  0  0  0  0
  9 10  1  0  0  0  0
  9 27  2  0  0  0  0
 10 11  2  0  0  0  0
 10 15  1  0  0  0  0
 11 12  1  0  0  0  0
 11 93  1  0  0  0  0
 12 13  2  0  0  0  0
 12 94  1  0  0  0  0
 13 14  1  0  0  0  0
 13 31  1  0  0  0  0
 14 15  2  0  0  0  0
 14 95  1  0  0  0  0
 15 96  1  0  0  0  0
 16 17  2  0  0  0  0
 16 21  1  0  0  0  0
 16 31  1  0  0  0  0
 17 18  1  0  0  0  0
 17 97  1  0  0  0  0
 18 19  2  0  0  0  0
 18 98  1  0  0  0  0
 19 20  1  0  0  0  0
 19 24  1  0  0  0  0
 20 21  2  0  0  0  0
 20 99  1  0  0  0  0
 21 23  1  0  0  0  0
 22 28  1  0  0  0  0
 22 32  2  0  0  0  0
 26 27  1  0  0  0  0
 28100  1  0  0  0  0
 28101  1  0  0  0  0
 29102  1  0  0  0  0
 29103  1  0  0  0  0
 33 34  1  0  0  0  0
 33 66  1  0  0  0  0
 33 70  2  0  0  0  0
 34 36  1  0  0  0  0
 34 59  1  0  0  0  0
 34104  1  6  0  0  0
 35 44  2  0  0  0  0
 35 45  1  0  0  0  0
 35 68  1  0  0  0  0
 36 56  1  0  0  0  0
 36105  1  0  0  0  0
 37 39  1  0  0  0  0
 37 47  1  0  0  0  0
 37 66  1  0  0  0  0
 37106  1  6  0  0  0
 38 43  2  0  0  0  0
 38 46  1  0  0  0  0
 38 47  1  0  0  0  0
 39 64  1  0  0  0  0
 39 67  2  0  0  0  0
 40 52  1  0  0  0  0
 40 53  2  0  0  0  0
 40 58  1  0  0  0  0
 41107  1  0  0  0  0
 41108  1  0  0  0  0
 41109  1  0  0  0  0
 42 43  1  0  0  0  0
 42 66  1  0  0  0  0
 42110  1  0  0  0  0
 42111  1  0  0  0  0
 43 44  1  0  0  0  0
 44112  1  0  0  0  0
 45 46  2  0  0  0  0
 45113  1  0  0  0  0
 46114  1  0  0  0  0
 47115  1  0  0  0  0
 47116  1  0  0  0  0
 48 41  1  0  0  0  0
 48 56  1  0  0  0  0
 48 65  1  0  0  0  0
 48117  1  1  0  0  0
 49 50  1  0  0  0  0
 49 53  1  0  0  0  0
 49 64  1  0  0  0  0
 49118  1  1  0  0  0
 50 51  1  0  0  0  0
 50119  1  0  0  0  0
 50120  1  0  0  0  0
 51 52  1  0  0  0  0
 51121  1  0  0  0  0
 51122  1  0  0  0  0
 52123  1  0  0  0  0
 52124  1  0  0  0  0
 53 54  1  0  0  0  0
 54 55  2  0  0  0  0
 54125  1  0  0  0  0
 55 57  1  0  0  0  0
 55126  1  0  0  0  0
 56 69  2  0  0  0  0
 57 58  2  0  0  0  0
 57127  1  0  0  0  0
 58128  1  0  0  0  0
 59 60  1  0  0  0  0
 59 61  1  0  0  0  0
 59 62  1  0  0  0  0
 60129  1  0  0  0  0
 60130  1  0  0  0  0
 60131  1  0  0  0  0
 61132  1  0  0  0  0
 61133  1  0  0  0  0
 61134  1  0  0  0  0
 62135  1  0  0  0  0
 62136  1  0  0  0  0
 62137  1  0  0  0  0
 63 65  1  0  0  0  0
 63138  1  0  0  0  0
 63139  1  0  0  0  0
 63140  1  0  0  0  0
 64141  1  0  0  0  0
 65142  1  0  0  0  0
 68 78  1  0  0  0  0
 71 72  2  0  0  0  0
 71 80  1  0  0  0  0
 71143  1  0  0  0  0
 72 73  1  0  0  0  0
 72 82  1  0  0  0  0
 73 75  1  0  0  0  0
 73 81  2  0  0  0  0
 74 80  2  0  0  0  0
 74 81  1  0  0  0  0
 74 83  1  0  0  0  0
 75144  1  0  0  0  0
 75145  1  0  0  0  0
 75146  1  0  0  0  0
 76147  1  0  0  0  0
 76148  1  0  0  0  0
 76149  1  0  0  0  0
 77 78  1  0  0  0  0
 77 79  1  0  0  0  0
 77150  1  0  0  0  0
 77151  1  0  0  0  0
 78152  1  0  0  0  0
 78153  1  0  0  0  0
 79 76  1  0  0  0  0
 79 82  1  0  0  0  0
 79154  1  1  0  0  0
 82155  1  0  0  0  0
 83156  1  0  0  0  0
M  ISO  4   1 100  68 101  78 101  83 100
M  END
$$$$
86
 OpenBabel04052305473D

156164  0  0  0  0  0  0  0  0999 V2000
  -30.7652  -14.3608   20.6636 C   0  0  0  0  0  0  0  0  0  0  0  0
  -30.4392  -12.2669   19.3775 C   0  0  0  0  0  0  0  0  0  0  0  0
  -29.4791  -12.5281   18.1977 C   0  0  0  0  0  0  0  0  0  0  0  0
  -27.9985  -12.3963   18.6038 C   0  0  0  0  0  0  0  0  0  0  0  0
  -27.6639  -13.2170   19.8820 C   0  0  2  0  0  0  0  0  0  0  0  0
  -28.6795  -12.9602   21.0279 C   0  0  0  0  0  0  0  0  0  0  0  0
  -25.2633  -13.8245   20.5754 C   0  0  0  0  0  0  0  0  0  0  0  0
  -24.1645  -13.0409   20.9408 C   0  0  0  0  0  0  0  0  0  0  0  0
  -24.6400  -11.7009   20.8697 C   0  0  0  0  0  0  0  0  0  0  0  0
  -23.9005  -10.4085   21.0420 C   0  0  0  0  0  0  0  0  0  0  0  0
  -24.3588   -9.4123   21.9123 C   0  0  0  0  0  0  0  0  0  0  0  0
  -23.6296   -8.2350   22.0803 C   0  0  0  0  0  0  0  0  0  0  0  0
  -22.4385   -8.0419   21.3657 C   0  0  0  0  0  0  0  0  0  0  0  0
  -22.0103   -9.0167   20.4678 C   0  0  0  0  0  0  0  0  0  0  0  0
  -22.7317  -10.1925   20.3102 C   0  0  0  0  0  0  0  0  0  0  0  0
  -21.6857   -6.0709   22.5391 C   0  0  0  0  0  0  0  0  0  0  0  0
  -21.4064   -6.5490   23.8264 C   0  0  0  0  0  0  0  0  0  0  0  0
  -21.3635   -5.6677   24.9085 C   0  0  0  0  0  0  0  0  0  0  0  0
  -21.5973   -4.3067   24.7088 C   0  0  0  0  0  0  0  0  0  0  0  0
  -21.8700   -3.8284   23.4282 C   0  0  0  0  0  0  0  0  0  0  0  0
  -21.9144   -4.7056   22.3460 C   0  0  0  0  0  0  0  0  0  0  0  0
  -22.8194  -13.5263   21.1763 C   0  0  0  0  0  0  0  0  0  0  0  0
  -22.1559   -4.2206   21.1063 F   0  0  0  0  0  0  0  0  0  0  0  0
  -21.5628   -3.4510   25.7555 F   0  0  0  0  0  0  0  0  0  0  0  0
  -30.0261  -13.1803   20.4553 N   0  0  0  0  0  0  0  0  0  0  0  0
  -26.2911  -12.9356   20.3443 N   0  0  0  0  0  0  0  0  0  0  0  0
  -25.9236  -11.6675   20.5847 N   0  0  0  0  0  0  0  0  0  0  0  0
  -22.0708  -12.7905   22.0005 N   0  0  0  0  0  0  0  0  0  0  0  0
  -25.4117  -15.1773   20.4097 N   0  0  0  0  0  0  0  0  0  0  0  0
  -31.7916  -14.6724   20.0536 O   0  0  0  0  0  0  0  0  0  0  0  0
  -21.6670   -6.9022   21.4423 O   0  0  0  0  0  0  0  0  0  0  0  0
  -22.3946  -14.5564   20.6568 O   0  0  0  0  0  0  0  0  0  0  0  0
  -24.6048  -31.8614   23.2223 C   0  0  0  0  0  0  0  0  0  0  0  0
  -25.8822  -32.4841   23.8616 C   0  0  1  0  0  0  0  0  0  0  0  0
  -27.2536  -27.5042   20.1156 C   0  0  0  0  0  0  0  0  0  0  0  0
  -25.5726  -33.8762   24.2210 N   0  0  0  0  0  0  0  0  0  0  0  0
  -23.4066  -30.4859   21.5461 C   0  0  2  0  0  0  0  0  0  0  0  0
  -24.8467  -28.9636   20.1247 C   0  0  0  0  0  0  0  0  0  0  0  0
  -22.7412  -29.4652   22.5052 C   0  0  0  0  0  0  0  0  0  0  0  0
  -18.0167  -28.1302   22.8626 C   0  0  0  0  0  0  0  0  0  0  0  0
  -24.1342  -36.7390   23.2568 C   0  0  0  0  0  0  0  0  0  0  0  0
  -25.9141  -30.8882   21.3456 C   0  0  0  0  0  0  0  0  0  0  0  0
  -25.9930  -29.5029   20.7208 C   0  0  0  0  0  0  0  0  0  0  0  0
  -27.1758  -28.7612   20.7331 C   0  0  0  0  0  0  0  0  0  0  0  0
  -26.1032  -26.9836   19.5230 C   0  0  0  0  0  0  0  0  0  0  0  0
  -24.9097  -27.7011   19.5331 C   0  0  0  0  0  0  0  0  0  0  0  0
  -23.5715  -29.7899   20.1582 C   0  0  0  0  0  0  0  0  0  0  0  0
  -25.3990  -36.3212   24.0232 C   0  0  1  0  0  0  0  0  0  0  0  0
  -20.5793  -28.3813   23.1004 C   0  0  2  0  0  0  0  0  0  0  0  0
  -20.6548  -26.9392   22.5411 C   0  0  0  0  0  0  0  0  0  0  0  0
  -19.5615  -26.6407   21.5143 C   0  0  0  0  0  0  0  0  0  0  0  0
  -18.1797  -26.7818   22.1673 C   0  0  0  0  0  0  0  0  0  0  0  0
  -19.1385  -28.8769   23.2988 C   0  0  0  0  0  0  0  0  0  0  0  0
  -18.9183  -30.1286   23.8878 C   0  0  0  0  0  0  0  0  0  0  0  0
  -17.6396  -30.6493   24.0352 C   0  0  0  0  0  0  0  0  0  0  0  0
  -25.9153  -34.9582   23.4993 C   0  0  0  0  0  0  0  0  0  0  0  0
  -16.5415  -29.9068   23.6254 C   0  0  0  0  0  0  0  0  0  0  0  0
  -16.7331  -28.6521   23.0586 C   0  0  0  0  0  0  0  0  0  0  0  0
  -26.4583  -31.6439   25.0683 C   0  0  0  0  0  0  0  0  0  0  0  0
  -25.3807  -31.3179   26.1374 C   0  0  0  0  0  0  0  0  0  0  0  0
  -27.0530  -30.3024   24.5680 C   0  0  0  0  0  0  0  0  0  0  0  0
  -27.6014  -32.4281   25.7651 C   0  0  0  0  0  0  0  0  0  0  0  0
  -27.5629  -37.2220   24.8621 C   0  0  0  0  0  0  0  0  0  0  0  0
  -21.4133  -29.3375   22.3735 N   0  0  0  0  0  0  0  0  0  0  0  0
  -26.4706  -37.3372   23.9061 N   0  0  0  0  0  0  0  0  0  0  0  0
  -24.6674  -31.0544   22.1178 N   0  0  0  0  0  0  0  0  0  0  0  0
  -23.4259  -28.8150   23.2971 O   0  0  0  0  0  0  0  0  0  0  0  0
  -28.3948  -26.7345   20.0089 O   0  0  0  0  0  0  0  0  0  0  0  0
  -26.5870  -34.9065   22.4671 O   0  0  0  0  0  0  0  0  0  0  0  0
  -23.5365  -32.1254   23.7833 O   0  0  0  0  0  0  0  0  0  0  0  0
  -28.6738  -18.6768   20.2523 C   0  0  0  0  0  0  0  0  0  0  0  0
  -30.1558  -20.3240   19.6869 C   0  0  0  0  0  0  0  0  0  0  0  0
  -29.6749  -17.7373   20.1394 C   0  0  0  0  0  0  0  0  0  0  0  0
  -31.1571  -19.3847   19.5747 C   0  0  0  0  0  0  0  0  0  0  0  0
  -30.1607  -22.1911   17.9820 C   0  0  0  0  0  0  0  0  0  0  0  0
  -30.1437  -22.8890   21.6628 C   0  0  0  0  0  0  0  0  0  0  0  0
  -29.2504  -23.8472   22.4256 C   0  0  0  0  0  0  0  0  0  0  0  0
  -30.4094  -21.7923   19.4344 C   0  0  1  0  0  0  0  0  0  0  0  0
  -28.8962  -19.9870   20.0279 N   0  0  0  0  0  0  0  0  0  0  0  0
  -30.9346  -18.0744   19.7987 N   0  0  0  0  0  0  0  0  0  0  0  0
  -32.4583  -19.8012   19.2147 N   0  0  0  0  0  0  0  0  0  0  0  0
  -29.3592  -16.3788   20.3898 N   0  0  0  0  0  0  0  0  0  0  0  0
  -29.5855  -22.6751   20.3038 N   0  3  0  0  0  0  0  0  0  0  0  0
  -31.4485  -12.4701   19.0860 H   0  0  0  0  0  0  0  0  0  0  0  0
  -30.3970  -11.2460   19.6950 H   0  0  0  0  0  0  0  0  0  0  0  0
  -29.6870  -11.8204   17.4226 H   0  0  0  0  0  0  0  0  0  0  0  0
  -29.6375  -13.5326   17.8649 H   0  0  0  0  0  0  0  0  0  0  0  0
  -27.7830  -11.3650   18.7904 H   0  0  0  0  0  0  0  0  0  0  0  0
  -27.4028  -12.7801   17.8021 H   0  0  0  0  0  0  0  0  0  0  0  0
  -27.7353  -14.2503   19.6136 H   0  0  0  0  0  0  0  0  0  0  0  0
  -28.5890  -11.9550   21.3832 H   0  0  0  0  0  0  0  0  0  0  0  0
  -28.5005  -13.6134   21.8562 H   0  0  0  0  0  0  0  0  0  0  0  0
  -25.2399   -9.5495   22.4318 H   0  0  0  0  0  0  0  0  0  0  0  0
  -23.9663   -7.5070   22.7297 H   0  0  0  0  0  0  0  0  0  0  0  0
  -21.1515   -8.8641   19.9162 H   0  0  0  0  0  0  0  0  0  0  0  0
  -22.4016  -10.9115   19.6476 H   0  0  0  0  0  0  0  0  0  0  0  0
  -21.2319   -7.5552   23.9750 H   0  0  0  0  0  0  0  0  0  0  0  0
  -21.1589   -6.0228   25.8556 H   0  0  0  0  0  0  0  0  0  0  0  0
  -22.0396   -2.8212   23.2809 H   0  0  0  0  0  0  0  0  0  0  0  0
  -22.4401  -11.9703   22.4008 H   0  0  0  0  0  0  0  0  0  0  0  0
  -21.1493  -13.0679   22.2082 H   0  0  0  0  0  0  0  0  0  0  0  0
  -24.6538  -15.7807   20.5848 H   0  0  0  0  0  0  0  0  0  0  0  0
  -26.2762  -15.5453   20.1156 H   0  0  0  0  0  0  0  0  0  0  0  0
  -26.6778  -32.4663   23.1464 H   0  0  0  0  0  0  0  0  0  0  0  0
  -25.0747  -34.0282   25.0566 H   0  0  0  0  0  0  0  0  0  0  0  0
  -22.7881  -31.3489   21.4131 H   0  0  0  0  0  0  0  0  0  0  0  0
  -23.3854  -35.9823   23.3648 H   0  0  0  0  0  0  0  0  0  0  0  0
  -24.3696  -36.8624   22.2204 H   0  0  0  0  0  0  0  0  0  0  0  0
  -23.7669  -37.6632   23.6516 H   0  0  0  0  0  0  0  0  0  0  0  0
  -25.9445  -31.6237   20.5691 H   0  0  0  0  0  0  0  0  0  0  0  0
  -26.7436  -31.0079   22.0108 H   0  0  0  0  0  0  0  0  0  0  0  0
  -28.0090  -29.1452   21.2057 H   0  0  0  0  0  0  0  0  0  0  0  0
  -26.1369  -26.0560   19.0719 H   0  0  0  0  0  0  0  0  0  0  0  0
  -24.0652  -27.2961   19.0997 H   0  0  0  0  0  0  0  0  0  0  0  0
  -23.6156  -30.5365   19.3930 H   0  0  0  0  0  0  0  0  0  0  0  0
  -22.7355  -29.1425   19.9945 H   0  0  0  0  0  0  0  0  0  0  0  0
  -25.1353  -36.2335   25.0565 H   0  0  0  0  0  0  0  0  0  0  0  0
  -21.0070  -28.3206   24.0793 H   0  0  0  0  0  0  0  0  0  0  0  0
  -20.5555  -26.2518   23.3550 H   0  0  0  0  0  0  0  0  0  0  0  0
  -21.5974  -26.8362   22.0454 H   0  0  0  0  0  0  0  0  0  0  0  0
  -19.6810  -25.6422   21.1488 H   0  0  0  0  0  0  0  0  0  0  0  0
  -19.6406  -27.3343   20.7034 H   0  0  0  0  0  0  0  0  0  0  0  0
  -17.4282  -26.6888   21.4113 H   0  0  0  0  0  0  0  0  0  0  0  0
  -18.0803  -26.0130   22.9049 H   0  0  0  0  0  0  0  0  0  0  0  0
  -19.7265  -30.6774   24.2204 H   0  0  0  0  0  0  0  0  0  0  0  0
  -17.5064  -31.5856   24.4483 H   0  0  0  0  0  0  0  0  0  0  0  0
  -15.5878  -30.2839   23.7407 H   0  0  0  0  0  0  0  0  0  0  0  0
  -15.9120  -28.0941   22.7766 H   0  0  0  0  0  0  0  0  0  0  0  0
  -24.5787  -30.7757   25.6817 H   0  0  0  0  0  0  0  0  0  0  0  0
  -25.0041  -32.2289   26.5536 H   0  0  0  0  0  0  0  0  0  0  0  0
  -25.8166  -30.7245   26.9138 H   0  0  0  0  0  0  0  0  0  0  0  0
  -26.2892  -29.7335   24.0803 H   0  0  0  0  0  0  0  0  0  0  0  0
  -27.4336  -29.7484   25.4006 H   0  0  0  0  0  0  0  0  0  0  0  0
  -27.8466  -30.4994   23.8779 H   0  0  0  0  0  0  0  0  0  0  0  0
  -27.2251  -33.3632   26.1242 H   0  0  0  0  0  0  0  0  0  0  0  0
  -28.3902  -32.6065   25.0645 H   0  0  0  0  0  0  0  0  0  0  0  0
  -27.9772  -31.8555   26.5872 H   0  0  0  0  0  0  0  0  0  0  0  0
  -28.2744  -38.0016   24.6863 H   0  0  0  0  0  0  0  0  0  0  0  0
  -28.0396  -36.2711   24.7461 H   0  0  0  0  0  0  0  0  0  0  0  0
  -27.1773  -37.3087   25.8564 H   0  0  0  0  0  0  0  0  0  0  0  0
  -20.9627  -29.9365   21.7352 H   0  0  0  0  0  0  0  0  0  0  0  0
  -26.0447  -38.2561   24.0273 H   0  0  0  0  0  0  0  0  0  0  0  0
  -27.7252  -18.3682   20.5166 H   0  0  0  0  0  0  0  0  0  0  0  0
  -30.7440  -21.5684   17.3363 H   0  0  0  0  0  0  0  0  0  0  0  0
  -30.4410  -23.2139   17.8400 H   0  0  0  0  0  0  0  0  0  0  0  0
  -29.1228  -22.0705   17.7517 H   0  0  0  0  0  0  0  0  0  0  0  0
  -30.1905  -21.9542   22.1813 H   0  0  0  0  0  0  0  0  0  0  0  0
  -31.1282  -23.3010   21.5854 H   0  0  0  0  0  0  0  0  0  0  0  0
  -29.7643  -24.2255   23.2845 H   0  0  0  0  0  0  0  0  0  0  0  0
  -28.3632  -23.3562   22.7671 H   0  0  0  0  0  0  0  0  0  0  0  0
  -31.4445  -21.9292   19.6685 H   0  0  0  0  0  0  0  0  0  0  0  0
  -32.6414  -20.7538   19.0468 H   0  0  0  0  0  0  0  0  0  0  0  0
  -33.1819  -19.1388   19.1317 H   0  0  0  0  0  0  0  0  0  0  0  0
  -28.3937  -16.2039   20.4705 H   0  0  0  0  0  0  0  0  0  0  0  0
  -29.5000  -23.5832   19.8472 H   0  0  0  0  0  0  0  0  0  0  0  0
  -28.6877  -22.2070   20.4275 H   0  0  0  0  0  0  0  0  0  0  0  0
  1 25  1  0  0  0  0
  1 30  2  0  0  0  0
  1 82  1  0  0  0  0
  2  3  1  0  0  0  0
  2 25  1  0  0  0  0
  2 84  1  0  0  0  0
  2 85  1  0  0  0  0
  3  4  1  0  0  0  0
  3 86  1  0  0  0  0
  3 87  1  0  0  0  0
  4  5  1  0  0  0  0
  4 88  1  0  0  0  0
  4 89  1  0  0  0  0
  5  6  1  0  0  0  0
  5 26  1  0  0  0  0
  5 90  1  6  0  0  0
  6 25  1  0  0  0  0
  6 91  1  0  0  0  0
  6 92  1  0  0  0  0
  7  8  2  0  0  0  0
  7 26  1  0  0  0  0
  7 29  1  0  0  0  0
  8  9  1  0  0  0  0
  8 22  1  0  0  0  0
  9 10  1  0  0  0  0
  9 27  2  0  0  0  0
 10 11  2  0  0  0  0
 10 15  1  0  0  0  0
 11 12  1  0  0  0  0
 11 93  1  0  0  0  0
 12 13  2  0  0  0  0
 12 94  1  0  0  0  0
 13 14  1  0  0  0  0
 13 31  1  0  0  0  0
 14 15  2  0  0  0  0
 14 95  1  0  0  0  0
 15 96  1  0  0  0  0
 16 17  2  0  0  0  0
 16 21  1  0  0  0  0
 16 31  1  0  0  0  0
 17 18  1  0  0  0  0
 17 97  1  0  0  0  0
 18 19  2  0  0  0  0
 18 98  1  0  0  0  0
 19 20  1  0  0  0  0
 19 24  1  0  0  0  0
 20 21  2  0  0  0  0
 20 99  1  0  0  0  0
 21 23  1  0  0  0  0
 22 28  1  0  0  0  0
 22 32  2  0  0  0  0
 26 27  1  0  0  0  0
 28100  1  0  0  0  0
 28101  1  0  0  0  0
 29102  1  0  0  0  0
 29103  1  0  0  0  0
 33 34  1  0  0  0  0
 33 66  1  0  0  0  0
 33 70  2  0  0  0  0
 34 36  1  0  0  0  0
 34 59  1  0  0  0  0
 34104  1  6  0  0  0
 35 44  2  0  0  0  0
 35 45  1  0  0  0  0
 35 68  1  0  0  0  0
 36 56  1  0  0  0  0
 36105  1  0  0  0  0
 37 39  1  0  0  0  0
 37 47  1  0  0  0  0
 37 66  1  0  0  0  0
 37106  1  6  0  0  0
 38 43  2  0  0  0  0
 38 46  1  0  0  0  0
 38 47  1  0  0  0  0
 39 64  1  0  0  0  0
 39 67  2  0  0  0  0
 40 52  1  0  0  0  0
 40 53  2  0  0  0  0
 40 58  1  0  0  0  0
 41107  1  0  0  0  0
 41108  1  0  0  0  0
 41109  1  0  0  0  0
 42 43  1  0  0  0  0
 42 66  1  0  0  0  0
 42110  1  0  0  0  0
 42111  1  0  0  0  0
 43 44  1  0  0  0  0
 44112  1  0  0  0  0
 45 46  2  0  0  0  0
 45113  1  0  0  0  0
 46114  1  0  0  0  0
 47115  1  0  0  0  0
 47116  1  0  0  0  0
 48 41  1  0  0  0  0
 48 56  1  0  0  0  0
 48 65  1  0  0  0  0
 48117  1  1  0  0  0
 49 50  1  0  0  0  0
 49 53  1  0  0  0  0
 49 64  1  0  0  0  0
 49118  1  1  0  0  0
 50 51  1  0  0  0  0
 50119  1  0  0  0  0
 50120  1  0  0  0  0
 51 52  1  0  0  0  0
 51121  1  0  0  0  0
 51122  1  0  0  0  0
 52123  1  0  0  0  0
 52124  1  0  0  0  0
 53 54  1  0  0  0  0
 54 55  2  0  0  0  0
 54125  1  0  0  0  0
 55 57  1  0  0  0  0
 55126  1  0  0  0  0
 56 69  2  0  0  0  0
 57 58  2  0  0  0  0
 57127  1  0  0  0  0
 58128  1  0  0  0  0
 59 60  1  0  0  0  0
 59 61  1  0  0  0  0
 59 62  1  0  0  0  0
 60129  1  0  0  0  0
 60130  1  0  0  0  0
 60131  1  0  0  0  0
 61132  1  0  0  0  0
 61133  1  0  0  0  0
 61134  1  0  0  0  0
 62135  1  0  0  0  0
 62136  1  0  0  0  0
 62137  1  0  0  0  0
 63 65  1  0  0  0  0
 63138  1  0  0  0  0
 63139  1  0  0  0  0
 63140  1  0  0  0  0
 64141  1  0  0  0  0
 65142  1  0  0  0  0
 68 77  1  0  0  0  0
 71 73  2  0  0  0  0
 71 79  1  0  0  0  0
 71143  1  0  0  0  0
 72 74  1  0  0  0  0
 72 78  1  0  0  0  0
 72 79  2  0  0  0  0
 73 80  1  0  0  0  0
 73 82  1  0  0  0  0
 74 80  2  0  0  0  0
 74 81  1  0  0  0  0
 75144  1  0  0  0  0
 75145  1  0  0  0  0
 75146  1  0  0  0  0
 76 77  1  0  0  0  0
 76 83  1  0  0  0  0
 76147  1  0  0  0  0
 76148  1  0  0  0  0
 77149  1  0  0  0  0
 77150  1  0  0  0  0
 78 75  1  0  0  0  0
 78 83  1  0  0  0  0
 78151  1  1  0  0  0
 81152  1  0  0  0  0
 81153  1  0  0  0  0
 82154  1  0  0  0  0
 83155  1  0  0  0  0
 83156  1  0  0  0  0
M  ISO  4   1 100  68 101  77 101  82 100
M  CHG  1  83   1
M  END
$$$$
87
 OpenBabel04052305473D

153161  0  0  0  0  0  0  0  0999 V2000
  -30.7652  -14.3608   20.6636 C   0  0  0  0  0  0  0  0  0  0  0  0
  -30.4392  -12.2669   19.3775 C   0  0  0  0  0  0  0  0  0  0  0  0
  -29.4791  -12.5281   18.1977 C   0  0  0  0  0  0  0  0  0  0  0  0
  -27.9985  -12.3963   18.6038 C   0  0  0  0  0  0  0  0  0  0  0  0
  -27.6639  -13.2170   19.8820 C   0  0  2  0  0  0  0  0  0  0  0  0
  -28.6795  -12.9602   21.0279 C   0  0  0  0  0  0  0  0  0  0  0  0
  -25.2633  -13.8245   20.5754 C   0  0  0  0  0  0  0  0  0  0  0  0
  -24.1645  -13.0409   20.9408 C   0  0  0  0  0  0  0  0  0  0  0  0
  -24.6400  -11.7009   20.8697 C   0  0  0  0  0  0  0  0  0  0  0  0
  -23.9005  -10.4085   21.0420 C   0  0  0  0  0  0  0  0  0  0  0  0
  -24.3588   -9.4123   21.9123 C   0  0  0  0  0  0  0  0  0  0  0  0
  -23.6296   -8.2350   22.0803 C   0  0  0  0  0  0  0  0  0  0  0  0
  -22.4385   -8.0419   21.3657 C   0  0  0  0  0  0  0  0  0  0  0  0
  -22.0103   -9.0167   20.4678 C   0  0  0  0  0  0  0  0  0  0  0  0
  -22.7317  -10.1925   20.3102 C   0  0  0  0  0  0  0  0  0  0  0  0
  -21.6857   -6.0709   22.5391 C   0  0  0  0  0  0  0  0  0  0  0  0
  -21.4064   -6.5490   23.8264 C   0  0  0  0  0  0  0  0  0  0  0  0
  -21.3635   -5.6677   24.9085 C   0  0  0  0  0  0  0  0  0  0  0  0
  -21.5973   -4.3067   24.7088 C   0  0  0  0  0  0  0  0  0  0  0  0
  -21.8700   -3.8284   23.4282 C   0  0  0  0  0  0  0  0  0  0  0  0
  -21.9144   -4.7056   22.3460 C   0  0  0  0  0  0  0  0  0  0  0  0
  -22.8194  -13.5263   21.1763 C   0  0  0  0  0  0  0  0  0  0  0  0
  -22.1559   -4.2206   21.1063 F   0  0  0  0  0  0  0  0  0  0  0  0
  -21.5628   -3.4510   25.7555 F   0  0  0  0  0  0  0  0  0  0  0  0
  -30.0261  -13.1803   20.4553 N   0  0  0  0  0  0  0  0  0  0  0  0
  -26.2911  -12.9356   20.3443 N   0  0  0  0  0  0  0  0  0  0  0  0
  -25.9236  -11.6675   20.5847 N   0  0  0  0  0  0  0  0  0  0  0  0
  -22.0708  -12.7905   22.0005 N   0  0  0  0  0  0  0  0  0  0  0  0
  -25.4117  -15.1773   20.4097 N   0  0  0  0  0  0  0  0  0  0  0  0
  -31.7916  -14.6724   20.0536 O   0  0  0  0  0  0  0  0  0  0  0  0
  -21.6670   -6.9022   21.4423 O   0  0  0  0  0  0  0  0  0  0  0  0
  -22.3946  -14.5564   20.6568 O   0  0  0  0  0  0  0  0  0  0  0  0
  -24.6048  -31.8614   23.2223 C   0  0  0  0  0  0  0  0  0  0  0  0
  -25.8822  -32.4841   23.8616 C   0  0  1  0  0  0  0  0  0  0  0  0
  -27.2536  -27.5042   20.1156 C   0  0  0  0  0  0  0  0  0  0  0  0
  -25.5726  -33.8762   24.2210 N   0  0  0  0  0  0  0  0  0  0  0  0
  -23.4066  -30.4859   21.5461 C   0  0  2  0  0  0  0  0  0  0  0  0
  -24.8467  -28.9636   20.1247 C   0  0  0  0  0  0  0  0  0  0  0  0
  -22.7412  -29.4652   22.5052 C   0  0  0  0  0  0  0  0  0  0  0  0
  -18.0167  -28.1302   22.8626 C   0  0  0  0  0  0  0  0  0  0  0  0
  -24.1342  -36.7390   23.2568 C   0  0  0  0  0  0  0  0  0  0  0  0
  -25.9141  -30.8882   21.3456 C   0  0  0  0  0  0  0  0  0  0  0  0
  -25.9930  -29.5029   20.7208 C   0  0  0  0  0  0  0  0  0  0  0  0
  -27.1758  -28.7612   20.7331 C   0  0  0  0  0  0  0  0  0  0  0  0
  -26.1032  -26.9836   19.5230 C   0  0  0  0  0  0  0  0  0  0  0  0
  -24.9097  -27.7011   19.5331 C   0  0  0  0  0  0  0  0  0  0  0  0
  -23.5715  -29.7899   20.1582 C   0  0  0  0  0  0  0  0  0  0  0  0
  -25.3990  -36.3212   24.0232 C   0  0  1  0  0  0  0  0  0  0  0  0
  -20.5793  -28.3813   23.1004 C   0  0  2  0  0  0  0  0  0  0  0  0
  -20.6548  -26.9392   22.5411 C   0  0  0  0  0  0  0  0  0  0  0  0
  -19.5615  -26.6407   21.5143 C   0  0  0  0  0  0  0  0  0  0  0  0
  -18.1797  -26.7818   22.1673 C   0  0  0  0  0  0  0  0  0  0  0  0
  -19.1385  -28.8769   23.2988 C   0  0  0  0  0  0  0  0  0  0  0  0
  -18.9183  -30.1286   23.8878 C   0  0  0  0  0  0  0  0  0  0  0  0
  -17.6396  -30.6493   24.0352 C   0  0  0  0  0  0  0  0  0  0  0  0
  -25.9153  -34.9582   23.4993 C   0  0  0  0  0  0  0  0  0  0  0  0
  -16.5415  -29.9068   23.6254 C   0  0  0  0  0  0  0  0  0  0  0  0
  -16.7331  -28.6521   23.0586 C   0  0  0  0  0  0  0  0  0  0  0  0
  -26.4583  -31.6439   25.0683 C   0  0  0  0  0  0  0  0  0  0  0  0
  -25.3807  -31.3179   26.1374 C   0  0  0  0  0  0  0  0  0  0  0  0
  -27.0530  -30.3024   24.5680 C   0  0  0  0  0  0  0  0  0  0  0  0
  -27.6014  -32.4281   25.7651 C   0  0  0  0  0  0  0  0  0  0  0  0
  -27.5629  -37.2220   24.8621 C   0  0  0  0  0  0  0  0  0  0  0  0
  -21.4133  -29.3375   22.3735 N   0  0  0  0  0  0  0  0  0  0  0  0
  -26.4706  -37.3372   23.9061 N   0  0  0  0  0  0  0  0  0  0  0  0
  -24.6674  -31.0544   22.1178 N   0  0  0  0  0  0  0  0  0  0  0  0
  -23.4259  -28.8150   23.2971 O   0  0  0  0  0  0  0  0  0  0  0  0
  -28.3948  -26.7345   20.0089 O   0  0  0  0  0  0  0  0  0  0  0  0
  -26.5870  -34.9065   22.4671 O   0  0  0  0  0  0  0  0  0  0  0  0
  -23.5365  -32.1254   23.7833 O   0  0  0  0  0  0  0  0  0  0  0  0
  -31.5762  -19.3499   21.6716 C   0  0  0  0  0  0  0  0  0  0  0  0
  -30.4098  -19.5567   22.3780 C   0  0  0  0  0  0  0  0  0  0  0  0
  -31.3237  -17.3307   22.4897 C   0  0  0  0  0  0  0  0  0  0  0  0
  -29.7809  -21.9658   22.0086 C   0  0  0  0  0  0  0  0  0  0  0  0
  -29.9255  -23.7040   24.5277 C   0  0  0  0  0  0  0  0  0  0  0  0
  -31.5653  -15.9026   22.7908 C   0  0  0  0  0  0  0  0  0  0  0  0
  -28.6311  -23.1405   23.9516 C   0  0  0  0  0  0  0  0  0  0  0  0
  -28.6732  -22.9290   22.4349 C   0  0  1  0  0  0  0  0  0  0  0  0
  -32.1019  -18.0742   21.7349 N   0  0  0  0  0  0  0  0  0  0  0  0
  -29.5927  -20.6991   22.5506 N   0  0  0  0  0  0  0  0  0  0  0  0
  -30.6924  -15.0188   22.0506 N   0  0  0  0  0  0  0  0  0  0  0  0
  -30.6851  -22.3286   21.2614 O   0  0  0  0  0  0  0  0  0  0  0  0
  -29.9422  -18.1011   23.1552 S   0  0  0  0  0  0  0  0  0  0  0  0
  -31.4485  -12.4701   19.0860 H   0  0  0  0  0  0  0  0  0  0  0  0
  -30.3970  -11.2460   19.6950 H   0  0  0  0  0  0  0  0  0  0  0  0
  -29.6870  -11.8204   17.4226 H   0  0  0  0  0  0  0  0  0  0  0  0
  -29.6375  -13.5326   17.8649 H   0  0  0  0  0  0  0  0  0  0  0  0
  -27.7830  -11.3650   18.7904 H   0  0  0  0  0  0  0  0  0  0  0  0
  -27.4028  -12.7801   17.8021 H   0  0  0  0  0  0  0  0  0  0  0  0
  -27.7353  -14.2503   19.6136 H   0  0  0  0  0  0  0  0  0  0  0  0
  -28.5890  -11.9550   21.3832 H   0  0  0  0  0  0  0  0  0  0  0  0
  -28.5005  -13.6134   21.8562 H   0  0  0  0  0  0  0  0  0  0  0  0
  -25.2399   -9.5495   22.4318 H   0  0  0  0  0  0  0  0  0  0  0  0
  -23.9663   -7.5070   22.7297 H   0  0  0  0  0  0  0  0  0  0  0  0
  -21.1515   -8.8641   19.9162 H   0  0  0  0  0  0  0  0  0  0  0  0
  -22.4016  -10.9115   19.6476 H   0  0  0  0  0  0  0  0  0  0  0  0
  -21.2319   -7.5552   23.9750 H   0  0  0  0  0  0  0  0  0  0  0  0
  -21.1589   -6.0228   25.8556 H   0  0  0  0  0  0  0  0  0  0  0  0
  -22.0396   -2.8212   23.2809 H   0  0  0  0  0  0  0  0  0  0  0  0
  -22.4401  -11.9703   22.4008 H   0  0  0  0  0  0  0  0  0  0  0  0
  -21.1493  -13.0679   22.2082 H   0  0  0  0  0  0  0  0  0  0  0  0
  -24.6538  -15.7807   20.5848 H   0  0  0  0  0  0  0  0  0  0  0  0
  -26.2762  -15.5453   20.1156 H   0  0  0  0  0  0  0  0  0  0  0  0
  -26.6778  -32.4663   23.1464 H   0  0  0  0  0  0  0  0  0  0  0  0
  -25.0747  -34.0282   25.0566 H   0  0  0  0  0  0  0  0  0  0  0  0
  -22.7881  -31.3489   21.4131 H   0  0  0  0  0  0  0  0  0  0  0  0
  -23.3854  -35.9823   23.3648 H   0  0  0  0  0  0  0  0  0  0  0  0
  -24.3696  -36.8624   22.2204 H   0  0  0  0  0  0  0  0  0  0  0  0
  -23.7669  -37.6632   23.6516 H   0  0  0  0  0  0  0  0  0  0  0  0
  -25.9445  -31.6237   20.5691 H   0  0  0  0  0  0  0  0  0  0  0  0
  -26.7436  -31.0079   22.0108 H   0  0  0  0  0  0  0  0  0  0  0  0
  -28.0090  -29.1452   21.2057 H   0  0  0  0  0  0  0  0  0  0  0  0
  -26.1369  -26.0560   19.0719 H   0  0  0  0  0  0  0  0  0  0  0  0
  -24.0652  -27.2961   19.0997 H   0  0  0  0  0  0  0  0  0  0  0  0
  -23.6156  -30.5365   19.3930 H   0  0  0  0  0  0  0  0  0  0  0  0
  -22.7355  -29.1425   19.9945 H   0  0  0  0  0  0  0  0  0  0  0  0
  -25.1353  -36.2335   25.0565 H   0  0  0  0  0  0  0  0  0  0  0  0
  -21.0070  -28.3206   24.0793 H   0  0  0  0  0  0  0  0  0  0  0  0
  -20.5555  -26.2518   23.3550 H   0  0  0  0  0  0  0  0  0  0  0  0
  -21.5974  -26.8362   22.0454 H   0  0  0  0  0  0  0  0  0  0  0  0
  -19.6810  -25.6422   21.1488 H   0  0  0  0  0  0  0  0  0  0  0  0
  -19.6406  -27.3343   20.7034 H   0  0  0  0  0  0  0  0  0  0  0  0
  -17.4282  -26.6888   21.4113 H   0  0  0  0  0  0  0  0  0  0  0  0
  -18.0803  -26.0130   22.9049 H   0  0  0  0  0  0  0  0  0  0  0  0
  -19.7265  -30.6774   24.2204 H   0  0  0  0  0  0  0  0  0  0  0  0
  -17.5064  -31.5856   24.4483 H   0  0  0  0  0  0  0  0  0  0  0  0
  -15.5878  -30.2839   23.7407 H   0  0  0  0  0  0  0  0  0  0  0  0
  -15.9120  -28.0941   22.7766 H   0  0  0  0  0  0  0  0  0  0  0  0
  -24.5787  -30.7757   25.6817 H   0  0  0  0  0  0  0  0  0  0  0  0
  -25.0041  -32.2289   26.5536 H   0  0  0  0  0  0  0  0  0  0  0  0
  -25.8166  -30.7245   26.9138 H   0  0  0  0  0  0  0  0  0  0  0  0
  -26.2892  -29.7335   24.0803 H   0  0  0  0  0  0  0  0  0  0  0  0
  -27.4336  -29.7484   25.4006 H   0  0  0  0  0  0  0  0  0  0  0  0
  -27.8466  -30.4994   23.8779 H   0  0  0  0  0  0  0  0  0  0  0  0
  -27.2251  -33.3632   26.1242 H   0  0  0  0  0  0  0  0  0  0  0  0
  -28.3902  -32.6065   25.0645 H   0  0  0  0  0  0  0  0  0  0  0  0
  -27.9772  -31.8555   26.5872 H   0  0  0  0  0  0  0  0  0  0  0  0
  -28.2744  -38.0016   24.6863 H   0  0  0  0  0  0  0  0  0  0  0  0
  -28.0396  -36.2711   24.7461 H   0  0  0  0  0  0  0  0  0  0  0  0
  -27.1773  -37.3087   25.8564 H   0  0  0  0  0  0  0  0  0  0  0  0
  -20.9627  -29.9365   21.7352 H   0  0  0  0  0  0  0  0  0  0  0  0
  -26.0447  -38.2561   24.0273 H   0  0  0  0  0  0  0  0  0  0  0  0
  -32.0285  -20.1022   21.1290 H   0  0  0  0  0  0  0  0  0  0  0  0
  -29.8223  -23.8243   25.5859 H   0  0  0  0  0  0  0  0  0  0  0  0
  -30.1320  -24.6533   24.0792 H   0  0  0  0  0  0  0  0  0  0  0  0
  -30.7306  -23.0298   24.3222 H   0  0  0  0  0  0  0  0  0  0  0  0
  -31.4072  -15.7422   23.8368 H   0  0  0  0  0  0  0  0  0  0  0  0
  -32.5710  -15.6781   22.5026 H   0  0  0  0  0  0  0  0  0  0  0  0
  -27.8368  -23.8215   24.1759 H   0  0  0  0  0  0  0  0  0  0  0  0
  -28.4826  -22.1792   24.3975 H   0  0  0  0  0  0  0  0  0  0  0  0
  -27.7617  -22.4277   22.1845 H   0  0  0  0  0  0  0  0  0  0  0  0
  -28.7985  -20.5836   23.1208 H   0  0  0  0  0  0  0  0  0  0  0  0
  -29.8717  -14.7880   22.5430 H   0  0  0  0  0  0  0  0  0  0  0  0
  1 25  1  0  0  0  0
  1 30  2  0  0  0  0
  1 81  1  0  0  0  0
  2  3  1  0  0  0  0
  2 25  1  0  0  0  0
  2 84  1  0  0  0  0
  2 85  1  0  0  0  0
  3  4  1  0  0  0  0
  3 86  1  0  0  0  0
  3 87  1  0  0  0  0
  4  5  1  0  0  0  0
  4 88  1  0  0  0  0
  4 89  1  0  0  0  0
  5  6  1  0  0  0  0
  5 26  1  0  0  0  0
  5 90  1  6  0  0  0
  6 25  1  0  0  0  0
  6 91  1  0  0  0  0
  6 92  1  0  0  0  0
  7  8  2  0  0  0  0
  7 26  1  0  0  0  0
  7 29  1  0  0  0  0
  8  9  1  0  0  0  0
  8 22  1  0  0  0  0
  9 10  1  0  0  0  0
  9 27  2  0  0  0  0
 10 11  2  0  0  0  0
 10 15  1  0  0  0  0
 11 12  1  0  0  0  0
 11 93  1  0  0  0  0
 12 13  2  0  0  0  0
 12 94  1  0  0  0  0
 13 14  1  0  0  0  0
 13 31  1  0  0  0  0
 14 15  2  0  0  0  0
 14 95  1  0  0  0  0
 15 96  1  0  0  0  0
 16 17  2  0  0  0  0
 16 21  1  0  0  0  0
 16 31  1  0  0  0  0
 17 18  1  0  0  0  0
 17 97  1  0  0  0  0
 18 19  2  0  0  0  0
 18 98  1  0  0  0  0
 19 20  1  0  0  0  0
 19 24  1  0  0  0  0
 20 21  2  0  0  0  0
 20 99  1  0  0  0  0
 21 23  1  0  0  0  0
 22 28  1  0  0  0  0
 22 32  2  0  0  0  0
 26 27  1  0  0  0  0
 28100  1  0  0  0  0
 28101  1  0  0  0  0
 29102  1  0  0  0  0
 29103  1  0  0  0  0
 33 34  1  0  0  0  0
 33 66  1  0  0  0  0
 33 70  2  0  0  0  0
 34 36  1  0  0  0  0
 34 59  1  0  0  0  0
 34104  1  6  0  0  0
 35 44  2  0  0  0  0
 35 45  1  0  0  0  0
 35 68  1  0  0  0  0
 36 56  1  0  0  0  0
 36105  1  0  0  0  0
 37 39  1  0  0  0  0
 37 47  1  0  0  0  0
 37 66  1  0  0  0  0
 37106  1  6  0  0  0
 38 43  2  0  0  0  0
 38 46  1  0  0  0  0
 38 47  1  0  0  0  0
 39 64  1  0  0  0  0
 39 67  2  0  0  0  0
 40 52  1  0  0  0  0
 40 53  2  0  0  0  0
 40 58  1  0  0  0  0
 41107  1  0  0  0  0
 41108  1  0  0  0  0
 41109  1  0  0  0  0
 42 43  1  0  0  0  0
 42 66  1  0  0  0  0
 42110  1  0  0  0  0
 42111  1  0  0  0  0
 43 44  1  0  0  0  0
 44112  1  0  0  0  0
 45 46  2  0  0  0  0
 45113  1  0  0  0  0
 46114  1  0  0  0  0
 47115  1  0  0  0  0
 47116  1  0  0  0  0
 48 41  1  0  0  0  0
 48 56  1  0  0  0  0
 48 65  1  0  0  0  0
 48117  1  1  0  0  0
 49 50  1  0  0  0  0
 49 53  1  0  0  0  0
 49 64  1  0  0  0  0
 49118  1  1  0  0  0
 50 51  1  0  0  0  0
 50119  1  0  0  0  0
 50120  1  0  0  0  0
 51 52  1  0  0  0  0
 51121  1  0  0  0  0
 51122  1  0  0  0  0
 52123  1  0  0  0  0
 52124  1  0  0  0  0
 53 54  1  0  0  0  0
 54 55  2  0  0  0  0
 54125  1  0  0  0  0
 55 57  1  0  0  0  0
 55126  1  0  0  0  0
 56 69  2  0  0  0  0
 57 58  2  0  0  0  0
 57127  1  0  0  0  0
 58128  1  0  0  0  0
 59 60  1  0  0  0  0
 59 61  1  0  0  0  0
 59 62  1  0  0  0  0
 60129  1  0  0  0  0
 60130  1  0  0  0  0
 60131  1  0  0  0  0
 61132  1  0  0  0  0
 61133  1  0  0  0  0
 61134  1  0  0  0  0
 62135  1  0  0  0  0
 62136  1  0  0  0  0
 62137  1  0  0  0  0
 63 65  1  0  0  0  0
 63138  1  0  0  0  0
 63139  1  0  0  0  0
 63140  1  0  0  0  0
 64141  1  0  0  0  0
 65142  1  0  0  0  0
 68 78  1  0  0  0  0
 71 72  2  0  0  0  0
 71 79  1  0  0  0  0
 71143  1  0  0  0  0
 72 80  1  0  0  0  0
 72 83  1  0  0  0  0
 73 76  1  0  0  0  0
 73 79  2  0  0  0  0
 73 83  1  0  0  0  0
 74 78  1  0  0  0  0
 74 80  1  0  0  0  0
 74 82  2  0  0  0  0
 75 77  1  0  0  0  0
 75144  1  0  0  0  0
 75145  1  0  0  0  0
 75146  1  0  0  0  0
 76 81  1  0  0  0  0
 76147  1  0  0  0  0
 76148  1  0  0  0  0
 77149  1  0  0  0  0
 77150  1  0  0  0  0
 78 77  1  0  0  0  0
 78151  1  6  0  0  0
 80152  1  0  0  0  0
 81153  1  0  0  0  0
M  ISO  4   1 100  68 101  78 101  81 100
M  END
$$$$
88
 OpenBabel04052305473D

151159  0  0  0  0  0  0  0  0999 V2000
  -30.7652  -14.3608   20.6636 C   0  0  0  0  0  0  0  0  0  0  0  0
  -30.4392  -12.2669   19.3775 C   0  0  0  0  0  0  0  0  0  0  0  0
  -29.4791  -12.5281   18.1977 C   0  0  0  0  0  0  0  0  0  0  0  0
  -27.9985  -12.3963   18.6038 C   0  0  0  0  0  0  0  0  0  0  0  0
  -27.6639  -13.2170   19.8820 C   0  0  2  0  0  0  0  0  0  0  0  0
  -28.6795  -12.9602   21.0279 C   0  0  0  0  0  0  0  0  0  0  0  0
  -25.2633  -13.8245   20.5754 C   0  0  0  0  0  0  0  0  0  0  0  0
  -24.1645  -13.0409   20.9408 C   0  0  0  0  0  0  0  0  0  0  0  0
  -24.6400  -11.7009   20.8697 C   0  0  0  0  0  0  0  0  0  0  0  0
  -23.9005  -10.4085   21.0420 C   0  0  0  0  0  0  0  0  0  0  0  0
  -24.3588   -9.4123   21.9123 C   0  0  0  0  0  0  0  0  0  0  0  0
  -23.6296   -8.2350   22.0803 C   0  0  0  0  0  0  0  0  0  0  0  0
  -22.4385   -8.0419   21.3657 C   0  0  0  0  0  0  0  0  0  0  0  0
  -22.0103   -9.0167   20.4678 C   0  0  0  0  0  0  0  0  0  0  0  0
  -22.7317  -10.1925   20.3102 C   0  0  0  0  0  0  0  0  0  0  0  0
  -21.6857   -6.0709   22.5391 C   0  0  0  0  0  0  0  0  0  0  0  0
  -21.4064   -6.5490   23.8264 C   0  0  0  0  0  0  0  0  0  0  0  0
  -21.3635   -5.6677   24.9085 C   0  0  0  0  0  0  0  0  0  0  0  0
  -21.5973   -4.3067   24.7088 C   0  0  0  0  0  0  0  0  0  0  0  0
  -21.8700   -3.8284   23.4282 C   0  0  0  0  0  0  0  0  0  0  0  0
  -21.9144   -4.7056   22.3460 C   0  0  0  0  0  0  0  0  0  0  0  0
  -22.8194  -13.5263   21.1763 C   0  0  0  0  0  0  0  0  0  0  0  0
  -22.1559   -4.2206   21.1063 F   0  0  0  0  0  0  0  0  0  0  0  0
  -21.5628   -3.4510   25.7555 F   0  0  0  0  0  0  0  0  0  0  0  0
  -30.0261  -13.1803   20.4553 N   0  0  0  0  0  0  0  0  0  0  0  0
  -26.2911  -12.9356   20.3443 N   0  0  0  0  0  0  0  0  0  0  0  0
  -25.9236  -11.6675   20.5847 N   0  0  0  0  0  0  0  0  0  0  0  0
  -22.0708  -12.7905   22.0005 N   0  0  0  0  0  0  0  0  0  0  0  0
  -25.4117  -15.1773   20.4097 N   0  0  0  0  0  0  0  0  0  0  0  0
  -31.7916  -14.6724   20.0536 O   0  0  0  0  0  0  0  0  0  0  0  0
  -21.6670   -6.9022   21.4423 O   0  0  0  0  0  0  0  0  0  0  0  0
  -22.3946  -14.5564   20.6568 O   0  0  0  0  0  0  0  0  0  0  0  0
  -24.6048  -31.8614   23.2223 C   0  0  0  0  0  0  0  0  0  0  0  0
  -25.8822  -32.4841   23.8616 C   0  0  1  0  0  0  0  0  0  0  0  0
  -27.2536  -27.5042   20.1156 C   0  0  0  0  0  0  0  0  0  0  0  0
  -25.5726  -33.8762   24.2210 N   0  0  0  0  0  0  0  0  0  0  0  0
  -23.4066  -30.4859   21.5461 C   0  0  2  0  0  0  0  0  0  0  0  0
  -24.8467  -28.9636   20.1247 C   0  0  0  0  0  0  0  0  0  0  0  0
  -22.7412  -29.4652   22.5052 C   0  0  0  0  0  0  0  0  0  0  0  0
  -18.0167  -28.1302   22.8626 C   0  0  0  0  0  0  0  0  0  0  0  0
  -24.1342  -36.7390   23.2568 C   0  0  0  0  0  0  0  0  0  0  0  0
  -25.9141  -30.8882   21.3456 C   0  0  0  0  0  0  0  0  0  0  0  0
  -25.9930  -29.5029   20.7208 C   0  0  0  0  0  0  0  0  0  0  0  0
  -27.1758  -28.7612   20.7331 C   0  0  0  0  0  0  0  0  0  0  0  0
  -26.1032  -26.9836   19.5230 C   0  0  0  0  0  0  0  0  0  0  0  0
  -24.9097  -27.7011   19.5331 C   0  0  0  0  0  0  0  0  0  0  0  0
  -23.5715  -29.7899   20.1582 C   0  0  0  0  0  0  0  0  0  0  0  0
  -25.3990  -36.3212   24.0232 C   0  0  1  0  0  0  0  0  0  0  0  0
  -20.5793  -28.3813   23.1004 C   0  0  2  0  0  0  0  0  0  0  0  0
  -20.6548  -26.9392   22.5411 C   0  0  0  0  0  0  0  0  0  0  0  0
  -19.5615  -26.6407   21.5143 C   0  0  0  0  0  0  0  0  0  0  0  0
  -18.1797  -26.7818   22.1673 C   0  0  0  0  0  0  0  0  0  0  0  0
  -19.1385  -28.8769   23.2988 C   0  0  0  0  0  0  0  0  0  0  0  0
  -18.9183  -30.1286   23.8878 C   0  0  0  0  0  0  0  0  0  0  0  0
  -17.6396  -30.6493   24.0352 C   0  0  0  0  0  0  0  0  0  0  0  0
  -25.9153  -34.9582   23.4993 C   0  0  0  0  0  0  0  0  0  0  0  0
  -16.5415  -29.9068   23.6254 C   0  0  0  0  0  0  0  0  0  0  0  0
  -16.7331  -28.6521   23.0586 C   0  0  0  0  0  0  0  0  0  0  0  0
  -26.4583  -31.6439   25.0683 C   0  0  0  0  0  0  0  0  0  0  0  0
  -25.3807  -31.3179   26.1374 C   0  0  0  0  0  0  0  0  0  0  0  0
  -27.0530  -30.3024   24.5680 C   0  0  0  0  0  0  0  0  0  0  0  0
  -27.6014  -32.4281   25.7651 C   0  0  0  0  0  0  0  0  0  0  0  0
  -27.5629  -37.2220   24.8621 C   0  0  0  0  0  0  0  0  0  0  0  0
  -21.4133  -29.3375   22.3735 N   0  0  0  0  0  0  0  0  0  0  0  0
  -26.4706  -37.3372   23.9061 N   0  0  0  0  0  0  0  0  0  0  0  0
  -24.6674  -31.0544   22.1178 N   0  0  0  0  0  0  0  0  0  0  0  0
  -23.4259  -28.8150   23.2971 O   0  0  0  0  0  0  0  0  0  0  0  0
  -28.3948  -26.7345   20.0089 O   0  0  0  0  0  0  0  0  0  0  0  0
  -26.5870  -34.9065   22.4671 O   0  0  0  0  0  0  0  0  0  0  0  0
  -23.5365  -32.1254   23.7833 O   0  0  0  0  0  0  0  0  0  0  0  0
  -20.4534  -24.8351   20.8850 C   0  0  0  0  0  0  0  0  0  0  0  0
  -22.1648  -23.4544   20.0294 C   0  0  0  0  0  0  0  0  0  0  0  0
  -24.1677  -22.3973   21.0913 C   0  0  0  0  0  0  0  0  0  0  0  0
  -18.4759  -26.3353   21.1387 C   0  0  0  0  0  0  0  0  0  0  0  0
  -19.4387  -28.4723   22.0589 C   0  0  0  0  0  0  0  0  0  0  0  0
  -18.2160  -27.5624   22.0103 C   0  0  1  0  0  0  0  0  0  0  0  0
  -20.3847  -24.7280   19.5751 N   0  0  0  0  0  0  0  0  0  0  0  0
  -21.3879  -23.9174   19.0734 N   0  0  0  0  0  0  0  0  0  0  0  0
  -19.5851  -25.5750   21.6696 N   0  0  0  0  0  0  0  0  0  0  0  0
  -23.3111  -22.5839   19.9156 N   0  0  0  0  0  0  0  0  0  0  0  0
  -17.1370  -28.3135   21.4500 O   0  0  0  0  0  0  0  0  0  0  0  0
  -21.7402  -23.9640   21.6110 S   0  0  0  0  0  0  0  0  0  0  0  0
  -31.4485  -12.4701   19.0860 H   0  0  0  0  0  0  0  0  0  0  0  0
  -30.3970  -11.2460   19.6950 H   0  0  0  0  0  0  0  0  0  0  0  0
  -29.6870  -11.8204   17.4226 H   0  0  0  0  0  0  0  0  0  0  0  0
  -29.6375  -13.5326   17.8649 H   0  0  0  0  0  0  0  0  0  0  0  0
  -27.7830  -11.3650   18.7904 H   0  0  0  0  0  0  0  0  0  0  0  0
  -27.4028  -12.7801   17.8021 H   0  0  0  0  0  0  0  0  0  0  0  0
  -27.7353  -14.2503   19.6136 H   0  0  0  0  0  0  0  0  0  0  0  0
  -28.5890  -11.9550   21.3832 H   0  0  0  0  0  0  0  0  0  0  0  0
  -28.5005  -13.6134   21.8562 H   0  0  0  0  0  0  0  0  0  0  0  0
  -25.2399   -9.5495   22.4318 H   0  0  0  0  0  0  0  0  0  0  0  0
  -23.9663   -7.5070   22.7297 H   0  0  0  0  0  0  0  0  0  0  0  0
  -21.1515   -8.8641   19.9162 H   0  0  0  0  0  0  0  0  0  0  0  0
  -22.4016  -10.9115   19.6476 H   0  0  0  0  0  0  0  0  0  0  0  0
  -21.2319   -7.5552   23.9750 H   0  0  0  0  0  0  0  0  0  0  0  0
  -21.1589   -6.0228   25.8556 H   0  0  0  0  0  0  0  0  0  0  0  0
  -22.0396   -2.8212   23.2809 H   0  0  0  0  0  0  0  0  0  0  0  0
  -22.4401  -11.9703   22.4008 H   0  0  0  0  0  0  0  0  0  0  0  0
  -21.1493  -13.0679   22.2082 H   0  0  0  0  0  0  0  0  0  0  0  0
  -24.6538  -15.7807   20.5848 H   0  0  0  0  0  0  0  0  0  0  0  0
  -26.2762  -15.5453   20.1156 H   0  0  0  0  0  0  0  0  0  0  0  0
  -26.6778  -32.4663   23.1464 H   0  0  0  0  0  0  0  0  0  0  0  0
  -25.0747  -34.0282   25.0566 H   0  0  0  0  0  0  0  0  0  0  0  0
  -22.7881  -31.3489   21.4131 H   0  0  0  0  0  0  0  0  0  0  0  0
  -23.3854  -35.9823   23.3648 H   0  0  0  0  0  0  0  0  0  0  0  0
  -24.3696  -36.8624   22.2204 H   0  0  0  0  0  0  0  0  0  0  0  0
  -23.7669  -37.6632   23.6516 H   0  0  0  0  0  0  0  0  0  0  0  0
  -25.9445  -31.6237   20.5691 H   0  0  0  0  0  0  0  0  0  0  0  0
  -26.7436  -31.0079   22.0108 H   0  0  0  0  0  0  0  0  0  0  0  0
  -28.0090  -29.1452   21.2057 H   0  0  0  0  0  0  0  0  0  0  0  0
  -26.1369  -26.0560   19.0719 H   0  0  0  0  0  0  0  0  0  0  0  0
  -24.0652  -27.2961   19.0997 H   0  0  0  0  0  0  0  0  0  0  0  0
  -23.6156  -30.5365   19.3930 H   0  0  0  0  0  0  0  0  0  0  0  0
  -22.7355  -29.1425   19.9945 H   0  0  0  0  0  0  0  0  0  0  0  0
  -25.1353  -36.2335   25.0565 H   0  0  0  0  0  0  0  0  0  0  0  0
  -21.0070  -28.3206   24.0793 H   0  0  0  0  0  0  0  0  0  0  0  0
  -20.5555  -26.2518   23.3550 H   0  0  0  0  0  0  0  0  0  0  0  0
  -21.5974  -26.8362   22.0454 H   0  0  0  0  0  0  0  0  0  0  0  0
  -19.6810  -25.6422   21.1488 H   0  0  0  0  0  0  0  0  0  0  0  0
  -19.6406  -27.3343   20.7034 H   0  0  0  0  0  0  0  0  0  0  0  0
  -17.4282  -26.6888   21.4113 H   0  0  0  0  0  0  0  0  0  0  0  0
  -18.0803  -26.0130   22.9049 H   0  0  0  0  0  0  0  0  0  0  0  0
  -19.7265  -30.6774   24.2204 H   0  0  0  0  0  0  0  0  0  0  0  0
  -17.5064  -31.5856   24.4483 H   0  0  0  0  0  0  0  0  0  0  0  0
  -15.5878  -30.2839   23.7407 H   0  0  0  0  0  0  0  0  0  0  0  0
  -15.9120  -28.0941   22.7766 H   0  0  0  0  0  0  0  0  0  0  0  0
  -24.5787  -30.7757   25.6817 H   0  0  0  0  0  0  0  0  0  0  0  0
  -25.0041  -32.2289   26.5536 H   0  0  0  0  0  0  0  0  0  0  0  0
  -25.8166  -30.7245   26.9138 H   0  0  0  0  0  0  0  0  0  0  0  0
  -26.2892  -29.7335   24.0803 H   0  0  0  0  0  0  0  0  0  0  0  0
  -27.4336  -29.7484   25.4006 H   0  0  0  0  0  0  0  0  0  0  0  0
  -27.8466  -30.4994   23.8779 H   0  0  0  0  0  0  0  0  0  0  0  0
  -27.2251  -33.3632   26.1242 H   0  0  0  0  0  0  0  0  0  0  0  0
  -28.3902  -32.6065   25.0645 H   0  0  0  0  0  0  0  0  0  0  0  0
  -27.9772  -31.8555   26.5872 H   0  0  0  0  0  0  0  0  0  0  0  0
  -28.2744  -38.0016   24.6863 H   0  0  0  0  0  0  0  0  0  0  0  0
  -28.0396  -36.2711   24.7461 H   0  0  0  0  0  0  0  0  0  0  0  0
  -27.1773  -37.3087   25.8564 H   0  0  0  0  0  0  0  0  0  0  0  0
  -20.9627  -29.9365   21.7352 H   0  0  0  0  0  0  0  0  0  0  0  0
  -26.0447  -38.2561   24.0273 H   0  0  0  0  0  0  0  0  0  0  0  0
  -23.9506  -23.1553   21.8146 H   0  0  0  0  0  0  0  0  0  0  0  0
  -25.1947  -22.4668   20.7990 H   0  0  0  0  0  0  0  0  0  0  0  0
  -23.9828  -21.4337   21.5180 H   0  0  0  0  0  0  0  0  0  0  0  0
  -18.7076  -26.6511   20.1430 H   0  0  0  0  0  0  0  0  0  0  0  0
  -17.6009  -25.7195   21.1309 H   0  0  0  0  0  0  0  0  0  0  0  0
  -19.4671  -28.8130   23.0728 H   0  0  0  0  0  0  0  0  0  0  0  0
  -19.2107  -29.0521   21.1890 H   0  0  0  0  0  0  0  0  0  0  0  0
  -17.9856  -27.2237   22.9988 H   0  0  0  0  0  0  0  0  0  0  0  0
  -19.7311  -25.5839   22.6432 H   0  0  0  0  0  0  0  0  0  0  0  0
  -17.3760  -28.6054   20.5564 H   0  0  0  0  0  0  0  0  0  0  0  0
  1 25  1  0  0  0  0
  1 30  2  0  0  0  0
  1 80  1  0  0  0  0
  2  3  1  0  0  0  0
  2 25  1  0  0  0  0
  2 83  1  0  0  0  0
  2 84  1  0  0  0  0
  3  4  1  0  0  0  0
  3 85  1  0  0  0  0
  3 86  1  0  0  0  0
  4  5  1  0  0  0  0
  4 87  1  0  0  0  0
  4 88  1  0  0  0  0
  5  6  1  0  0  0  0
  5 26  1  0  0  0  0
  5 89  1  6  0  0  0
  6 25  1  0  0  0  0
  6 90  1  0  0  0  0
  6 91  1  0  0  0  0
  7  8  2  0  0  0  0
  7 26  1  0  0  0  0
  7 29  1  0  0  0  0
  8  9  1  0  0  0  0
  8 22  1  0  0  0  0
  9 10  1  0  0  0  0
  9 27  2  0  0  0  0
 10 11  2  0  0  0  0
 10 15  1  0  0  0  0
 11 12  1  0  0  0  0
 11 92  1  0  0  0  0
 12 13  2  0  0  0  0
 12 93  1  0  0  0  0
 13 14  1  0  0  0  0
 13 31  1  0  0  0  0
 14 15  2  0  0  0  0
 14 94  1  0  0  0  0
 15 95  1  0  0  0  0
 16 17  2  0  0  0  0
 16 21  1  0  0  0  0
 16 31  1  0  0  0  0
 17 18  1  0  0  0  0
 17 96  1  0  0  0  0
 18 19  2  0  0  0  0
 18 97  1  0  0  0  0
 19 20  1  0  0  0  0
 19 24  1  0  0  0  0
 20 21  2  0  0  0  0
 20 98  1  0  0  0  0
 21 23  1  0  0  0  0
 22 28  1  0  0  0  0
 22 32  2  0  0  0  0
 26 27  1  0  0  0  0
 28 99  1  0  0  0  0
 28100  1  0  0  0  0
 29101  1  0  0  0  0
 29102  1  0  0  0  0
 33 34  1  0  0  0  0
 33 66  1  0  0  0  0
 33 70  2  0  0  0  0
 34 36  1  0  0  0  0
 34 59  1  0  0  0  0
 34103  1  6  0  0  0
 35 44  2  0  0  0  0
 35 45  1  0  0  0  0
 35 68  1  0  0  0  0
 36 56  1  0  0  0  0
 36104  1  0  0  0  0
 37 39  1  0  0  0  0
 37 47  1  0  0  0  0
 37 66  1  0  0  0  0
 37105  1  6  0  0  0
 38 43  2  0  0  0  0
 38 46  1  0  0  0  0
 38 47  1  0  0  0  0
 39 64  1  0  0  0  0
 39 67  2  0  0  0  0
 40 52  1  0  0  0  0
 40 53  2  0  0  0  0
 40 58  1  0  0  0  0
 41106  1  0  0  0  0
 41107  1  0  0  0  0
 41108  1  0  0  0  0
 42 43  1  0  0  0  0
 42 66  1  0  0  0  0
 42109  1  0  0  0  0
 42110  1  0  0  0  0
 43 44  1  0  0  0  0
 44111  1  0  0  0  0
 45 46  2  0  0  0  0
 45112  1  0  0  0  0
 46113  1  0  0  0  0
 47114  1  0  0  0  0
 47115  1  0  0  0  0
 48 41  1  0  0  0  0
 48 56  1  0  0  0  0
 48 65  1  0  0  0  0
 48116  1  1  0  0  0
 49 50  1  0  0  0  0
 49 53  1  0  0  0  0
 49 64  1  0  0  0  0
 49117  1  1  0  0  0
 50 51  1  0  0  0  0
 50118  1  0  0  0  0
 50119  1  0  0  0  0
 51 52  1  0  0  0  0
 51120  1  0  0  0  0
 51121  1  0  0  0  0
 52122  1  0  0  0  0
 52123  1  0  0  0  0
 53 54  1  0  0  0  0
 54 55  2  0  0  0  0
 54124  1  0  0  0  0
 55 57  1  0  0  0  0
 55125  1  0  0  0  0
 56 69  2  0  0  0  0
 57 58  2  0  0  0  0
 57126  1  0  0  0  0
 58127  1  0  0  0  0
 59 60  1  0  0  0  0
 59 61  1  0  0  0  0
 59 62  1  0  0  0  0
 60128  1  0  0  0  0
 60129  1  0  0  0  0
 60130  1  0  0  0  0
 61131  1  0  0  0  0
 61132  1  0  0  0  0
 61133  1  0  0  0  0
 62134  1  0  0  0  0
 62135  1  0  0  0  0
 62136  1  0  0  0  0
 63 65  1  0  0  0  0
 63137  1  0  0  0  0
 63138  1  0  0  0  0
 63139  1  0  0  0  0
 64140  1  0  0  0  0
 65141  1  0  0  0  0
 68 75  1  0  0  0  0
 71 77  2  0  0  0  0
 71 79  1  0  0  0  0
 71 82  1  0  0  0  0
 72 78  2  0  0  0  0
 72 80  1  0  0  0  0
 72 82  1  0  0  0  0
 73 80  1  0  0  0  0
 73142  1  0  0  0  0
 73143  1  0  0  0  0
 73144  1  0  0  0  0
 74 76  1  0  0  0  0
 74 79  1  0  0  0  0
 74145  1  0  0  0  0
 74146  1  0  0  0  0
 75 76  1  0  0  0  0
 75147  1  0  0  0  0
 75148  1  0  0  0  0
 76 81  1  0  0  0  0
 76149  1  1  0  0  0
 77 78  1  0  0  0  0
 79150  1  0  0  0  0
 81151  1  0  0  0  0
M  ISO  4   1 100  68 101  75 101  80 100
M  END
$$$$
89
 OpenBabel04052305473D

150158  0  0  0  0  0  0  0  0999 V2000
  -30.7652  -14.3608   20.6636 C   0  0  0  0  0  0  0  0  0  0  0  0
  -30.4392  -12.2669   19.3775 C   0  0  0  0  0  0  0  0  0  0  0  0
  -29.4791  -12.5281   18.1977 C   0  0  0  0  0  0  0  0  0  0  0  0
  -27.9985  -12.3963   18.6038 C   0  0  0  0  0  0  0  0  0  0  0  0
  -27.6639  -13.2170   19.8820 C   0  0  2  0  0  0  0  0  0  0  0  0
  -28.6795  -12.9602   21.0279 C   0  0  0  0  0  0  0  0  0  0  0  0
  -25.2633  -13.8245   20.5754 C   0  0  0  0  0  0  0  0  0  0  0  0
  -24.1645  -13.0409   20.9408 C   0  0  0  0  0  0  0  0  0  0  0  0
  -24.6400  -11.7009   20.8697 C   0  0  0  0  0  0  0  0  0  0  0  0
  -23.9005  -10.4085   21.0420 C   0  0  0  0  0  0  0  0  0  0  0  0
  -24.3588   -9.4123   21.9123 C   0  0  0  0  0  0  0  0  0  0  0  0
  -23.6296   -8.2350   22.0803 C   0  0  0  0  0  0  0  0  0  0  0  0
  -22.4385   -8.0419   21.3657 C   0  0  0  0  0  0  0  0  0  0  0  0
  -22.0103   -9.0167   20.4678 C   0  0  0  0  0  0  0  0  0  0  0  0
  -22.7317  -10.1925   20.3102 C   0  0  0  0  0  0  0  0  0  0  0  0
  -21.6857   -6.0709   22.5391 C   0  0  0  0  0  0  0  0  0  0  0  0
  -21.4064   -6.5490   23.8264 C   0  0  0  0  0  0  0  0  0  0  0  0
  -21.3635   -5.6677   24.9085 C   0  0  0  0  0  0  0  0  0  0  0  0
  -21.5973   -4.3067   24.7088 C   0  0  0  0  0  0  0  0  0  0  0  0
  -21.8700   -3.8284   23.4282 C   0  0  0  0  0  0  0  0  0  0  0  0
  -21.9144   -4.7056   22.3460 C   0  0  0  0  0  0  0  0  0  0  0  0
  -22.8194  -13.5263   21.1763 C   0  0  0  0  0  0  0  0  0  0  0  0
  -22.1559   -4.2206   21.1063 F   0  0  0  0  0  0  0  0  0  0  0  0
  -21.5628   -3.4510   25.7555 F   0  0  0  0  0  0  0  0  0  0  0  0
  -30.0261  -13.1803   20.4553 N   0  0  0  0  0  0  0  0  0  0  0  0
  -26.2911  -12.9356   20.3443 N   0  0  0  0  0  0  0  0  0  0  0  0
  -25.9236  -11.6675   20.5847 N   0  0  0  0  0  0  0  0  0  0  0  0
  -22.0708  -12.7905   22.0005 N   0  0  0  0  0  0  0  0  0  0  0  0
  -25.4117  -15.1773   20.4097 N   0  0  0  0  0  0  0  0  0  0  0  0
  -31.7916  -14.6724   20.0536 O   0  0  0  0  0  0  0  0  0  0  0  0
  -21.6670   -6.9022   21.4423 O   0  0  0  0  0  0  0  0  0  0  0  0
  -22.3946  -14.5564   20.6568 O   0  0  0  0  0  0  0  0  0  0  0  0
  -24.6048  -31.8614   23.2223 C   0  0  0  0  0  0  0  0  0  0  0  0
  -25.8822  -32.4841   23.8616 C   0  0  1  0  0  0  0  0  0  0  0  0
  -27.2536  -27.5042   20.1156 C   0  0  0  0  0  0  0  0  0  0  0  0
  -25.5726  -33.8762   24.2210 N   0  0  0  0  0  0  0  0  0  0  0  0
  -23.4066  -30.4859   21.5461 C   0  0  2  0  0  0  0  0  0  0  0  0
  -24.8467  -28.9636   20.1247 C   0  0  0  0  0  0  0  0  0  0  0  0
  -22.7412  -29.4652   22.5052 C   0  0  0  0  0  0  0  0  0  0  0  0
  -18.0167  -28.1302   22.8626 C   0  0  0  0  0  0  0  0  0  0  0  0
  -24.1342  -36.7390   23.2568 C   0  0  0  0  0  0  0  0  0  0  0  0
  -25.9141  -30.8882   21.3456 C   0  0  0  0  0  0  0  0  0  0  0  0
  -25.9930  -29.5029   20.7208 C   0  0  0  0  0  0  0  0  0  0  0  0
  -27.1758  -28.7612   20.7331 C   0  0  0  0  0  0  0  0  0  0  0  0
  -26.1032  -26.9836   19.5230 C   0  0  0  0  0  0  0  0  0  0  0  0
  -24.9097  -27.7011   19.5331 C   0  0  0  0  0  0  0  0  0  0  0  0
  -23.5715  -29.7899   20.1582 C   0  0  0  0  0  0  0  0  0  0  0  0
  -25.3990  -36.3212   24.0232 C   0  0  1  0  0  0  0  0  0  0  0  0
  -20.5793  -28.3813   23.1004 C   0  0  2  0  0  0  0  0  0  0  0  0
  -20.6548  -26.9392   22.5411 C   0  0  0  0  0  0  0  0  0  0  0  0
  -19.5615  -26.6407   21.5143 C   0  0  0  0  0  0  0  0  0  0  0  0
  -18.1797  -26.7818   22.1673 C   0  0  0  0  0  0  0  0  0  0  0  0
  -19.1385  -28.8769   23.2988 C   0  0  0  0  0  0  0  0  0  0  0  0
  -18.9183  -30.1286   23.8878 C   0  0  0  0  0  0  0  0  0  0  0  0
  -17.6396  -30.6493   24.0352 C   0  0  0  0  0  0  0  0  0  0  0  0
  -25.9153  -34.9582   23.4993 C   0  0  0  0  0  0  0  0  0  0  0  0
  -16.5415  -29.9068   23.6254 C   0  0  0  0  0  0  0  0  0  0  0  0
  -16.7331  -28.6521   23.0586 C   0  0  0  0  0  0  0  0  0  0  0  0
  -26.4583  -31.6439   25.0683 C   0  0  0  0  0  0  0  0  0  0  0  0
  -25.3807  -31.3179   26.1374 C   0  0  0  0  0  0  0  0  0  0  0  0
  -27.0530  -30.3024   24.5680 C   0  0  0  0  0  0  0  0  0  0  0  0
  -27.6014  -32.4281   25.7651 C   0  0  0  0  0  0  0  0  0  0  0  0
  -27.5629  -37.2220   24.8621 C   0  0  0  0  0  0  0  0  0  0  0  0
  -21.4133  -29.3375   22.3735 N   0  0  0  0  0  0  0  0  0  0  0  0
  -26.4706  -37.3372   23.9061 N   0  0  0  0  0  0  0  0  0  0  0  0
  -24.6674  -31.0544   22.1178 N   0  0  0  0  0  0  0  0  0  0  0  0
  -23.4259  -28.8150   23.2971 O   0  0  0  0  0  0  0  0  0  0  0  0
  -28.3948  -26.7345   20.0089 O   0  0  0  0  0  0  0  0  0  0  0  0
  -26.5870  -34.9065   22.4671 O   0  0  0  0  0  0  0  0  0  0  0  0
  -23.5365  -32.1254   23.7833 O   0  0  0  0  0  0  0  0  0  0  0  0
  -29.3367  -21.6888   19.6315 C   0  0  0  0  0  0  0  0  0  0  0  0
  -30.6555  -23.7925   20.6124 C   0  0  0  0  0  0  0  0  0  0  0  0
  -30.0464  -21.5971   20.8086 C   0  0  0  0  0  0  0  0  0  0  0  0
  -29.9465  -23.8841   19.4350 C   0  0  0  0  0  0  0  0  0  0  0  0
  -29.8292  -26.5287   16.8245 C   0  0  0  0  0  0  0  0  0  0  0  0
  -27.7409  -25.5234   17.8077 C   0  0  0  0  0  0  0  0  0  0  0  0
  -29.2270  -25.3167   17.5230 C   0  0  2  0  0  0  0  0  0  0  0  0
  -30.7182  -22.6474   21.3204 N   0  0  0  0  0  0  0  0  0  0  0  0
  -29.2743  -22.8339   18.9234 N   0  0  0  0  0  0  0  0  0  0  0  0
  -30.0640  -20.3562   21.4923 N   0  0  0  0  0  0  0  0  0  0  0  0
  -29.9335  -25.0957   18.7689 N   0  0  0  0  0  0  0  0  0  0  0  0
  -31.4485  -12.4701   19.0860 H   0  0  0  0  0  0  0  0  0  0  0  0
  -30.3970  -11.2460   19.6950 H   0  0  0  0  0  0  0  0  0  0  0  0
  -29.6870  -11.8204   17.4226 H   0  0  0  0  0  0  0  0  0  0  0  0
  -29.6375  -13.5326   17.8649 H   0  0  0  0  0  0  0  0  0  0  0  0
  -27.7830  -11.3650   18.7904 H   0  0  0  0  0  0  0  0  0  0  0  0
  -27.4028  -12.7801   17.8021 H   0  0  0  0  0  0  0  0  0  0  0  0
  -27.7353  -14.2503   19.6136 H   0  0  0  0  0  0  0  0  0  0  0  0
  -28.5890  -11.9550   21.3832 H   0  0  0  0  0  0  0  0  0  0  0  0
  -28.5005  -13.6134   21.8562 H   0  0  0  0  0  0  0  0  0  0  0  0
  -25.2399   -9.5495   22.4318 H   0  0  0  0  0  0  0  0  0  0  0  0
  -23.9663   -7.5070   22.7297 H   0  0  0  0  0  0  0  0  0  0  0  0
  -21.1515   -8.8641   19.9162 H   0  0  0  0  0  0  0  0  0  0  0  0
  -22.4016  -10.9115   19.6476 H   0  0  0  0  0  0  0  0  0  0  0  0
  -21.2319   -7.5552   23.9750 H   0  0  0  0  0  0  0  0  0  0  0  0
  -21.1589   -6.0228   25.8556 H   0  0  0  0  0  0  0  0  0  0  0  0
  -22.0396   -2.8212   23.2809 H   0  0  0  0  0  0  0  0  0  0  0  0
  -22.4401  -11.9703   22.4008 H   0  0  0  0  0  0  0  0  0  0  0  0
  -21.1493  -13.0679   22.2082 H   0  0  0  0  0  0  0  0  0  0  0  0
  -24.6538  -15.7807   20.5848 H   0  0  0  0  0  0  0  0  0  0  0  0
  -26.2762  -15.5453   20.1156 H   0  0  0  0  0  0  0  0  0  0  0  0
  -26.6778  -32.4663   23.1464 H   0  0  0  0  0  0  0  0  0  0  0  0
  -25.0747  -34.0282   25.0566 H   0  0  0  0  0  0  0  0  0  0  0  0
  -22.7881  -31.3489   21.4131 H   0  0  0  0  0  0  0  0  0  0  0  0
  -23.3854  -35.9823   23.3648 H   0  0  0  0  0  0  0  0  0  0  0  0
  -24.3696  -36.8624   22.2204 H   0  0  0  0  0  0  0  0  0  0  0  0
  -23.7669  -37.6632   23.6516 H   0  0  0  0  0  0  0  0  0  0  0  0
  -25.9445  -31.6237   20.5691 H   0  0  0  0  0  0  0  0  0  0  0  0
  -26.7436  -31.0079   22.0108 H   0  0  0  0  0  0  0  0  0  0  0  0
  -28.0090  -29.1452   21.2057 H   0  0  0  0  0  0  0  0  0  0  0  0
  -26.1369  -26.0560   19.0719 H   0  0  0  0  0  0  0  0  0  0  0  0
  -24.0652  -27.2961   19.0997 H   0  0  0  0  0  0  0  0  0  0  0  0
  -23.6156  -30.5365   19.3930 H   0  0  0  0  0  0  0  0  0  0  0  0
  -22.7355  -29.1425   19.9945 H   0  0  0  0  0  0  0  0  0  0  0  0
  -25.1353  -36.2335   25.0565 H   0  0  0  0  0  0  0  0  0  0  0  0
  -21.0070  -28.3206   24.0793 H   0  0  0  0  0  0  0  0  0  0  0  0
  -20.5555  -26.2518   23.3550 H   0  0  0  0  0  0  0  0  0  0  0  0
  -21.5974  -26.8362   22.0454 H   0  0  0  0  0  0  0  0  0  0  0  0
  -19.6810  -25.6422   21.1488 H   0  0  0  0  0  0  0  0  0  0  0  0
  -19.6406  -27.3343   20.7034 H   0  0  0  0  0  0  0  0  0  0  0  0
  -17.4282  -26.6888   21.4113 H   0  0  0  0  0  0  0  0  0  0  0  0
  -18.0803  -26.0130   22.9049 H   0  0  0  0  0  0  0  0  0  0  0  0
  -19.7265  -30.6774   24.2204 H   0  0  0  0  0  0  0  0  0  0  0  0
  -17.5064  -31.5856   24.4483 H   0  0  0  0  0  0  0  0  0  0  0  0
  -15.5878  -30.2839   23.7407 H   0  0  0  0  0  0  0  0  0  0  0  0
  -15.9120  -28.0941   22.7766 H   0  0  0  0  0  0  0  0  0  0  0  0
  -24.5787  -30.7757   25.6817 H   0  0  0  0  0  0  0  0  0  0  0  0
  -25.0041  -32.2289   26.5536 H   0  0  0  0  0  0  0  0  0  0  0  0
  -25.8166  -30.7245   26.9138 H   0  0  0  0  0  0  0  0  0  0  0  0
  -26.2892  -29.7335   24.0803 H   0  0  0  0  0  0  0  0  0  0  0  0
  -27.4336  -29.7484   25.4006 H   0  0  0  0  0  0  0  0  0  0  0  0
  -27.8466  -30.4994   23.8779 H   0  0  0  0  0  0  0  0  0  0  0  0
  -27.2251  -33.3632   26.1242 H   0  0  0  0  0  0  0  0  0  0  0  0
  -28.3902  -32.6065   25.0645 H   0  0  0  0  0  0  0  0  0  0  0  0
  -27.9772  -31.8555   26.5872 H   0  0  0  0  0  0  0  0  0  0  0  0
  -28.2744  -38.0016   24.6863 H   0  0  0  0  0  0  0  0  0  0  0  0
  -28.0396  -36.2711   24.7461 H   0  0  0  0  0  0  0  0  0  0  0  0
  -27.1773  -37.3087   25.8564 H   0  0  0  0  0  0  0  0  0  0  0  0
  -20.9627  -29.9365   21.7352 H   0  0  0  0  0  0  0  0  0  0  0  0
  -26.0447  -38.2561   24.0273 H   0  0  0  0  0  0  0  0  0  0  0  0
  -28.8380  -20.8559   19.2814 H   0  0  0  0  0  0  0  0  0  0  0  0
  -31.1536  -24.6256   20.9629 H   0  0  0  0  0  0  0  0  0  0  0  0
  -29.3145  -26.7012   15.9024 H   0  0  0  0  0  0  0  0  0  0  0  0
  -30.8651  -26.3480   16.6264 H   0  0  0  0  0  0  0  0  0  0  0  0
  -29.7311  -27.3884   17.4540 H   0  0  0  0  0  0  0  0  0  0  0  0
  -27.1878  -24.6184   17.9487 H   0  0  0  0  0  0  0  0  0  0  0  0
  -27.0995  -25.9896   17.0892 H   0  0  0  0  0  0  0  0  0  0  0  0
  -29.3255  -24.4662   16.8813 H   0  0  0  0  0  0  0  0  0  0  0  0
  -29.9052  -20.5236   22.4494 H   0  0  0  0  0  0  0  0  0  0  0  0
  -30.4310  -25.8488   19.1622 H   0  0  0  0  0  0  0  0  0  0  0  0
  1 25  1  0  0  0  0
  1 30  2  0  0  0  0
  1 80  1  0  0  0  0
  2  3  1  0  0  0  0
  2 25  1  0  0  0  0
  2 82  1  0  0  0  0
  2 83  1  0  0  0  0
  3  4  1  0  0  0  0
  3 84  1  0  0  0  0
  3 85  1  0  0  0  0
  4  5  1  0  0  0  0
  4 86  1  0  0  0  0
  4 87  1  0  0  0  0
  5  6  1  0  0  0  0
  5 26  1  0  0  0  0
  5 88  1  6  0  0  0
  6 25  1  0  0  0  0
  6 89  1  0  0  0  0
  6 90  1  0  0  0  0
  7  8  2  0  0  0  0
  7 26  1  0  0  0  0
  7 29  1  0  0  0  0
  8  9  1  0  0  0  0
  8 22  1  0  0  0  0
  9 10  1  0  0  0  0
  9 27  2  0  0  0  0
 10 11  2  0  0  0  0
 10 15  1  0  0  0  0
 11 12  1  0  0  0  0
 11 91  1  0  0  0  0
 12 13  2  0  0  0  0
 12 92  1  0  0  0  0
 13 14  1  0  0  0  0
 13 31  1  0  0  0  0
 14 15  2  0  0  0  0
 14 93  1  0  0  0  0
 15 94  1  0  0  0  0
 16 17  2  0  0  0  0
 16 21  1  0  0  0  0
 16 31  1  0  0  0  0
 17 18  1  0  0  0  0
 17 95  1  0  0  0  0
 18 19  2  0  0  0  0
 18 96  1  0  0  0  0
 19 20  1  0  0  0  0
 19 24  1  0  0  0  0
 20 21  2  0  0  0  0
 20 97  1  0  0  0  0
 21 23  1  0  0  0  0
 22 28  1  0  0  0  0
 22 32  2  0  0  0  0
 26 27  1  0  0  0  0
 28 98  1  0  0  0  0
 28 99  1  0  0  0  0
 29100  1  0  0  0  0
 29101  1  0  0  0  0
 33 34  1  0  0  0  0
 33 66  1  0  0  0  0
 33 70  2  0  0  0  0
 34 36  1  0  0  0  0
 34 59  1  0  0  0  0
 34102  1  6  0  0  0
 35 44  2  0  0  0  0
 35 45  1  0  0  0  0
 35 68  1  0  0  0  0
 36 56  1  0  0  0  0
 36103  1  0  0  0  0
 37 39  1  0  0  0  0
 37 47  1  0  0  0  0
 37 66  1  0  0  0  0
 37104  1  6  0  0  0
 38 43  2  0  0  0  0
 38 46  1  0  0  0  0
 38 47  1  0  0  0  0
 39 64  1  0  0  0  0
 39 67  2  0  0  0  0
 40 52  1  0  0  0  0
 40 53  2  0  0  0  0
 40 58  1  0  0  0  0
 41105  1  0  0  0  0
 41106  1  0  0  0  0
 41107  1  0  0  0  0
 42 43  1  0  0  0  0
 42 66  1  0  0  0  0
 42108  1  0  0  0  0
 42109  1  0  0  0  0
 43 44  1  0  0  0  0
 44110  1  0  0  0  0
 45 46  2  0  0  0  0
 45111  1  0  0  0  0
 46112  1  0  0  0  0
 47113  1  0  0  0  0
 47114  1  0  0  0  0
 48 41  1  0  0  0  0
 48 56  1  0  0  0  0
 48 65  1  0  0  0  0
 48115  1  1  0  0  0
 49 50  1  0  0  0  0
 49 53  1  0  0  0  0
 49 64  1  0  0  0  0
 49116  1  1  0  0  0
 50 51  1  0  0  0  0
 50117  1  0  0  0  0
 50118  1  0  0  0  0
 51 52  1  0  0  0  0
 51119  1  0  0  0  0
 51120  1  0  0  0  0
 52121  1  0  0  0  0
 52122  1  0  0  0  0
 53 54  1  0  0  0  0
 54 55  2  0  0  0  0
 54123  1  0  0  0  0
 55 57  1  0  0  0  0
 55124  1  0  0  0  0
 56 69  2  0  0  0  0
 57 58  2  0  0  0  0
 57125  1  0  0  0  0
 58126  1  0  0  0  0
 59 60  1  0  0  0  0
 59 61  1  0  0  0  0
 59 62  1  0  0  0  0
 60127  1  0  0  0  0
 60128  1  0  0  0  0
 60129  1  0  0  0  0
 61130  1  0  0  0  0
 61131  1  0  0  0  0
 61132  1  0  0  0  0
 62133  1  0  0  0  0
 62134  1  0  0  0  0
 62135  1  0  0  0  0
 63 65  1  0  0  0  0
 63136  1  0  0  0  0
 63137  1  0  0  0  0
 63138  1  0  0  0  0
 64139  1  0  0  0  0
 65140  1  0  0  0  0
 68 76  1  0  0  0  0
 71 73  2  0  0  0  0
 71 79  1  0  0  0  0
 71141  1  0  0  0  0
 72 74  1  0  0  0  0
 72 78  2  0  0  0  0
 72142  1  0  0  0  0
 73 78  1  0  0  0  0
 73 80  1  0  0  0  0
 74 79  2  0  0  0  0
 74 81  1  0  0  0  0
 75143  1  0  0  0  0
 75144  1  0  0  0  0
 75145  1  0  0  0  0
 76 77  1  0  0  0  0
 76146  1  0  0  0  0
 76147  1  0  0  0  0
 77 75  1  0  0  0  0
 77 81  1  0  0  0  0
 77148  1  6  0  0  0
 80149  1  0  0  0  0
 81150  1  0  0  0  0
M  ISO  4   1 100  68 101  76 101  80 100
M  END
$$$$
90
 OpenBabel04052305473D

145153  0  0  0  0  0  0  0  0999 V2000
  -30.7652  -14.3608   20.6636 C   0  0  0  0  0  0  0  0  0  0  0  0
  -30.4392  -12.2669   19.3775 C   0  0  0  0  0  0  0  0  0  0  0  0
  -29.4791  -12.5281   18.1977 C   0  0  0  0  0  0  0  0  0  0  0  0
  -27.9985  -12.3963   18.6038 C   0  0  0  0  0  0  0  0  0  0  0  0
  -27.6639  -13.2170   19.8820 C   0  0  2  0  0  0  0  0  0  0  0  0
  -28.6795  -12.9602   21.0279 C   0  0  0  0  0  0  0  0  0  0  0  0
  -25.2633  -13.8245   20.5754 C   0  0  0  0  0  0  0  0  0  0  0  0
  -24.1645  -13.0409   20.9408 C   0  0  0  0  0  0  0  0  0  0  0  0
  -24.6400  -11.7009   20.8697 C   0  0  0  0  0  0  0  0  0  0  0  0
  -23.9005  -10.4085   21.0420 C   0  0  0  0  0  0  0  0  0  0  0  0
  -24.3588   -9.4123   21.9123 C   0  0  0  0  0  0  0  0  0  0  0  0
  -23.6296   -8.2350   22.0803 C   0  0  0  0  0  0  0  0  0  0  0  0
  -22.4385   -8.0419   21.3657 C   0  0  0  0  0  0  0  0  0  0  0  0
  -22.0103   -9.0167   20.4678 C   0  0  0  0  0  0  0  0  0  0  0  0
  -22.7317  -10.1925   20.3102 C   0  0  0  0  0  0  0  0  0  0  0  0
  -21.6857   -6.0709   22.5391 C   0  0  0  0  0  0  0  0  0  0  0  0
  -21.4064   -6.5490   23.8264 C   0  0  0  0  0  0  0  0  0  0  0  0
  -21.3635   -5.6677   24.9085 C   0  0  0  0  0  0  0  0  0  0  0  0
  -21.5973   -4.3067   24.7088 C   0  0  0  0  0  0  0  0  0  0  0  0
  -21.8700   -3.8284   23.4282 C   0  0  0  0  0  0  0  0  0  0  0  0
  -21.9144   -4.7056   22.3460 C   0  0  0  0  0  0  0  0  0  0  0  0
  -22.8194  -13.5263   21.1763 C   0  0  0  0  0  0  0  0  0  0  0  0
  -22.1559   -4.2206   21.1063 F   0  0  0  0  0  0  0  0  0  0  0  0
  -21.5628   -3.4510   25.7555 F   0  0  0  0  0  0  0  0  0  0  0  0
  -30.0261  -13.1803   20.4553 N   0  0  0  0  0  0  0  0  0  0  0  0
  -26.2911  -12.9356   20.3443 N   0  0  0  0  0  0  0  0  0  0  0  0
  -25.9236  -11.6675   20.5847 N   0  0  0  0  0  0  0  0  0  0  0  0
  -22.0708  -12.7905   22.0005 N   0  0  0  0  0  0  0  0  0  0  0  0
  -25.4117  -15.1773   20.4097 N   0  0  0  0  0  0  0  0  0  0  0  0
  -31.7916  -14.6724   20.0536 O   0  0  0  0  0  0  0  0  0  0  0  0
  -21.6670   -6.9022   21.4423 O   0  0  0  0  0  0  0  0  0  0  0  0
  -22.3946  -14.5564   20.6568 O   0  0  0  0  0  0  0  0  0  0  0  0
  -24.6048  -31.8614   23.2223 C   0  0  0  0  0  0  0  0  0  0  0  0
  -25.8822  -32.4841   23.8616 C   0  0  1  0  0  0  0  0  0  0  0  0
  -27.2536  -27.5042   20.1156 C   0  0  0  0  0  0  0  0  0  0  0  0
  -25.5726  -33.8762   24.2210 N   0  0  0  0  0  0  0  0  0  0  0  0
  -23.4066  -30.4859   21.5461 C   0  0  2  0  0  0  0  0  0  0  0  0
  -24.8467  -28.9636   20.1247 C   0  0  0  0  0  0  0  0  0  0  0  0
  -22.7412  -29.4652   22.5052 C   0  0  0  0  0  0  0  0  0  0  0  0
  -18.0167  -28.1302   22.8626 C   0  0  0  0  0  0  0  0  0  0  0  0
  -24.1342  -36.7390   23.2568 C   0  0  0  0  0  0  0  0  0  0  0  0
  -25.9141  -30.8882   21.3456 C   0  0  0  0  0  0  0  0  0  0  0  0
  -25.9930  -29.5029   20.7208 C   0  0  0  0  0  0  0  0  0  0  0  0
  -27.1758  -28.7612   20.7331 C   0  0  0  0  0  0  0  0  0  0  0  0
  -26.1032  -26.9836   19.5230 C   0  0  0  0  0  0  0  0  0  0  0  0
  -24.9097  -27.7011   19.5331 C   0  0  0  0  0  0  0  0  0  0  0  0
  -23.5715  -29.7899   20.1582 C   0  0  0  0  0  0  0  0  0  0  0  0
  -25.3990  -36.3212   24.0232 C   0  0  1  0  0  0  0  0  0  0  0  0
  -20.5793  -28.3813   23.1004 C   0  0  2  0  0  0  0  0  0  0  0  0
  -20.6548  -26.9392   22.5411 C   0  0  0  0  0  0  0  0  0  0  0  0
  -19.5615  -26.6407   21.5143 C   0  0  0  0  0  0  0  0  0  0  0  0
  -18.1797  -26.7818   22.1673 C   0  0  0  0  0  0  0  0  0  0  0  0
  -19.1385  -28.8769   23.2988 C   0  0  0  0  0  0  0  0  0  0  0  0
  -18.9183  -30.1286   23.8878 C   0  0  0  0  0  0  0  0  0  0  0  0
  -17.6396  -30.6493   24.0352 C   0  0  0  0  0  0  0  0  0  0  0  0
  -25.9153  -34.9582   23.4993 C   0  0  0  0  0  0  0  0  0  0  0  0
  -16.5415  -29.9068   23.6254 C   0  0  0  0  0  0  0  0  0  0  0  0
  -16.7331  -28.6521   23.0586 C   0  0  0  0  0  0  0  0  0  0  0  0
  -26.4583  -31.6439   25.0683 C   0  0  0  0  0  0  0  0  0  0  0  0
  -25.3807  -31.3179   26.1374 C   0  0  0  0  0  0  0  0  0  0  0  0
  -27.0530  -30.3024   24.5680 C   0  0  0  0  0  0  0  0  0  0  0  0
  -27.6014  -32.4281   25.7651 C   0  0  0  0  0  0  0  0  0  0  0  0
  -27.5629  -37.2220   24.8621 C   0  0  0  0  0  0  0  0  0  0  0  0
  -21.4133  -29.3375   22.3735 N   0  0  0  0  0  0  0  0  0  0  0  0
  -26.4706  -37.3372   23.9061 N   0  0  0  0  0  0  0  0  0  0  0  0
  -24.6674  -31.0544   22.1178 N   0  0  0  0  0  0  0  0  0  0  0  0
  -23.4259  -28.8150   23.2971 O   0  0  0  0  0  0  0  0  0  0  0  0
  -28.3948  -26.7345   20.0089 O   0  0  0  0  0  0  0  0  0  0  0  0
  -26.5870  -34.9065   22.4671 O   0  0  0  0  0  0  0  0  0  0  0  0
  -23.5365  -32.1254   23.7833 O   0  0  0  0  0  0  0  0  0  0  0  0
  -18.2197  -23.2932   23.6918 C   0  0  0  0  0  0  0  0  0  0  0  0
  -17.1909  -23.5619   22.8135 C   0  0  0  0  0  0  0  0  0  0  0  0
  -18.8424  -21.9856   22.0449 C   0  0  0  0  0  0  0  0  0  0  0  0
  -18.3933  -23.8767   25.0392 C   0  0  0  0  0  0  0  0  0  0  0  0
  -19.6336  -20.9986   21.2380 C   0  0  0  0  0  0  0  0  0  0  0  0
  -19.1674  -22.3893   23.2530 N   0  0  0  0  0  0  0  0  0  0  0  0
  -16.1401  -24.3992   22.9886 N   0  0  0  0  0  0  0  0  0  0  0  0
  -19.4245  -24.8894   25.0831 N   0  0  0  0  0  0  0  0  0  0  0  0
  -17.4098  -22.6528   21.3758 S   0  0  0  0  0  0  0  0  0  0  0  0
  -31.4485  -12.4701   19.0860 H   0  0  0  0  0  0  0  0  0  0  0  0
  -30.3970  -11.2460   19.6950 H   0  0  0  0  0  0  0  0  0  0  0  0
  -29.6870  -11.8204   17.4226 H   0  0  0  0  0  0  0  0  0  0  0  0
  -29.6375  -13.5326   17.8649 H   0  0  0  0  0  0  0  0  0  0  0  0
  -27.7830  -11.3650   18.7904 H   0  0  0  0  0  0  0  0  0  0  0  0
  -27.4028  -12.7801   17.8021 H   0  0  0  0  0  0  0  0  0  0  0  0
  -27.7353  -14.2503   19.6136 H   0  0  0  0  0  0  0  0  0  0  0  0
  -28.5890  -11.9550   21.3832 H   0  0  0  0  0  0  0  0  0  0  0  0
  -28.5005  -13.6134   21.8562 H   0  0  0  0  0  0  0  0  0  0  0  0
  -25.2399   -9.5495   22.4318 H   0  0  0  0  0  0  0  0  0  0  0  0
  -23.9663   -7.5070   22.7297 H   0  0  0  0  0  0  0  0  0  0  0  0
  -21.1515   -8.8641   19.9162 H   0  0  0  0  0  0  0  0  0  0  0  0
  -22.4016  -10.9115   19.6476 H   0  0  0  0  0  0  0  0  0  0  0  0
  -21.2319   -7.5552   23.9750 H   0  0  0  0  0  0  0  0  0  0  0  0
  -21.1589   -6.0228   25.8556 H   0  0  0  0  0  0  0  0  0  0  0  0
  -22.0396   -2.8212   23.2809 H   0  0  0  0  0  0  0  0  0  0  0  0
  -22.4401  -11.9703   22.4008 H   0  0  0  0  0  0  0  0  0  0  0  0
  -21.1493  -13.0679   22.2082 H   0  0  0  0  0  0  0  0  0  0  0  0
  -24.6538  -15.7807   20.5848 H   0  0  0  0  0  0  0  0  0  0  0  0
  -26.2762  -15.5453   20.1156 H   0  0  0  0  0  0  0  0  0  0  0  0
  -26.6778  -32.4663   23.1464 H   0  0  0  0  0  0  0  0  0  0  0  0
  -25.0747  -34.0282   25.0566 H   0  0  0  0  0  0  0  0  0  0  0  0
  -22.7881  -31.3489   21.4131 H   0  0  0  0  0  0  0  0  0  0  0  0
  -23.3854  -35.9823   23.3648 H   0  0  0  0  0  0  0  0  0  0  0  0
  -24.3696  -36.8624   22.2204 H   0  0  0  0  0  0  0  0  0  0  0  0
  -23.7669  -37.6632   23.6516 H   0  0  0  0  0  0  0  0  0  0  0  0
  -25.9445  -31.6237   20.5691 H   0  0  0  0  0  0  0  0  0  0  0  0
  -26.7436  -31.0079   22.0108 H   0  0  0  0  0  0  0  0  0  0  0  0
  -28.0090  -29.1452   21.2057 H   0  0  0  0  0  0  0  0  0  0  0  0
  -26.1369  -26.0560   19.0719 H   0  0  0  0  0  0  0  0  0  0  0  0
  -24.0652  -27.2961   19.0997 H   0  0  0  0  0  0  0  0  0  0  0  0
  -23.6156  -30.5365   19.3930 H   0  0  0  0  0  0  0  0  0  0  0  0
  -22.7355  -29.1425   19.9945 H   0  0  0  0  0  0  0  0  0  0  0  0
  -25.1353  -36.2335   25.0565 H   0  0  0  0  0  0  0  0  0  0  0  0
  -21.0070  -28.3206   24.0793 H   0  0  0  0  0  0  0  0  0  0  0  0
  -20.5555  -26.2518   23.3550 H   0  0  0  0  0  0  0  0  0  0  0  0
  -21.5974  -26.8362   22.0454 H   0  0  0  0  0  0  0  0  0  0  0  0
  -19.6810  -25.6422   21.1488 H   0  0  0  0  0  0  0  0  0  0  0  0
  -19.6406  -27.3343   20.7034 H   0  0  0  0  0  0  0  0  0  0  0  0
  -17.4282  -26.6888   21.4113 H   0  0  0  0  0  0  0  0  0  0  0  0
  -18.0803  -26.0130   22.9049 H   0  0  0  0  0  0  0  0  0  0  0  0
  -19.7265  -30.6774   24.2204 H   0  0  0  0  0  0  0  0  0  0  0  0
  -17.5064  -31.5856   24.4483 H   0  0  0  0  0  0  0  0  0  0  0  0
  -15.5878  -30.2839   23.7407 H   0  0  0  0  0  0  0  0  0  0  0  0
  -15.9120  -28.0941   22.7766 H   0  0  0  0  0  0  0  0  0  0  0  0
  -24.5787  -30.7757   25.6817 H   0  0  0  0  0  0  0  0  0  0  0  0
  -25.0041  -32.2289   26.5536 H   0  0  0  0  0  0  0  0  0  0  0  0
  -25.8166  -30.7245   26.9138 H   0  0  0  0  0  0  0  0  0  0  0  0
  -26.2892  -29.7335   24.0803 H   0  0  0  0  0  0  0  0  0  0  0  0
  -27.4336  -29.7484   25.4006 H   0  0  0  0  0  0  0  0  0  0  0  0
  -27.8466  -30.4994   23.8779 H   0  0  0  0  0  0  0  0  0  0  0  0
  -27.2251  -33.3632   26.1242 H   0  0  0  0  0  0  0  0  0  0  0  0
  -28.3902  -32.6065   25.0645 H   0  0  0  0  0  0  0  0  0  0  0  0
  -27.9772  -31.8555   26.5872 H   0  0  0  0  0  0  0  0  0  0  0  0
  -28.2744  -38.0016   24.6863 H   0  0  0  0  0  0  0  0  0  0  0  0
  -28.0396  -36.2711   24.7461 H   0  0  0  0  0  0  0  0  0  0  0  0
  -27.1773  -37.3087   25.8564 H   0  0  0  0  0  0  0  0  0  0  0  0
  -20.9627  -29.9365   21.7352 H   0  0  0  0  0  0  0  0  0  0  0  0
  -26.0447  -38.2561   24.0273 H   0  0  0  0  0  0  0  0  0  0  0  0
  -18.6543  -23.0934   25.7198 H   0  0  0  0  0  0  0  0  0  0  0  0
  -17.4699  -24.3455   25.3084 H   0  0  0  0  0  0  0  0  0  0  0  0
  -19.1644  -20.7717   20.3035 H   0  0  0  0  0  0  0  0  0  0  0  0
  -19.7652  -20.0327   21.6792 H   0  0  0  0  0  0  0  0  0  0  0  0
  -16.0481  -24.9047   23.8284 H   0  0  0  0  0  0  0  0  0  0  0  0
  -15.4686  -24.5020   22.2761 H   0  0  0  0  0  0  0  0  0  0  0  0
  -19.4305  -25.8498   25.2993 H   0  0  0  0  0  0  0  0  0  0  0  0
  1 25  1  0  0  0  0
  1 30  2  0  0  0  0
  1 78  1  0  0  0  0
  2  3  1  0  0  0  0
  2 25  1  0  0  0  0
  2 80  1  0  0  0  0
  2 81  1  0  0  0  0
  3  4  1  0  0  0  0
  3 82  1  0  0  0  0
  3 83  1  0  0  0  0
  4  5  1  0  0  0  0
  4 84  1  0  0  0  0
  4 85  1  0  0  0  0
  5  6  1  0  0  0  0
  5 26  1  0  0  0  0
  5 86  1  6  0  0  0
  6 25  1  0  0  0  0
  6 87  1  0  0  0  0
  6 88  1  0  0  0  0
  7  8  2  0  0  0  0
  7 26  1  0  0  0  0
  7 29  1  0  0  0  0
  8  9  1  0  0  0  0
  8 22  1  0  0  0  0
  9 10  1  0  0  0  0
  9 27  2  0  0  0  0
 10 11  2  0  0  0  0
 10 15  1  0  0  0  0
 11 12  1  0  0  0  0
 11 89  1  0  0  0  0
 12 13  2  0  0  0  0
 12 90  1  0  0  0  0
 13 14  1  0  0  0  0
 13 31  1  0  0  0  0
 14 15  2  0  0  0  0
 14 91  1  0  0  0  0
 15 92  1  0  0  0  0
 16 17  2  0  0  0  0
 16 21  1  0  0  0  0
 16 31  1  0  0  0  0
 17 18  1  0  0  0  0
 17 93  1  0  0  0  0
 18 19  2  0  0  0  0
 18 94  1  0  0  0  0
 19 20  1  0  0  0  0
 19 24  1  0  0  0  0
 20 21  2  0  0  0  0
 20 95  1  0  0  0  0
 21 23  1  0  0  0  0
 22 28  1  0  0  0  0
 22 32  2  0  0  0  0
 26 27  1  0  0  0  0
 28 96  1  0  0  0  0
 28 97  1  0  0  0  0
 29 98  1  0  0  0  0
 29 99  1  0  0  0  0
 33 34  1  0  0  0  0
 33 66  1  0  0  0  0
 33 70  2  0  0  0  0
 34 36  1  0  0  0  0
 34 59  1  0  0  0  0
 34100  1  6  0  0  0
 35 44  2  0  0  0  0
 35 45  1  0  0  0  0
 35 68  1  0  0  0  0
 36 56  1  0  0  0  0
 36101  1  0  0  0  0
 37 39  1  0  0  0  0
 37 47  1  0  0  0  0
 37 66  1  0  0  0  0
 37102  1  6  0  0  0
 38 43  2  0  0  0  0
 38 46  1  0  0  0  0
 38 47  1  0  0  0  0
 39 64  1  0  0  0  0
 39 67  2  0  0  0  0
 40 52  1  0  0  0  0
 40 53  2  0  0  0  0
 40 58  1  0  0  0  0
 41103  1  0  0  0  0
 41104  1  0  0  0  0
 41105  1  0  0  0  0
 42 43  1  0  0  0  0
 42 66  1  0  0  0  0
 42106  1  0  0  0  0
 42107  1  0  0  0  0
 43 44  1  0  0  0  0
 44108  1  0  0  0  0
 45 46  2  0  0  0  0
 45109  1  0  0  0  0
 46110  1  0  0  0  0
 47111  1  0  0  0  0
 47112  1  0  0  0  0
 48 41  1  0  0  0  0
 48 56  1  0  0  0  0
 48 65  1  0  0  0  0
 48113  1  1  0  0  0
 49 50  1  0  0  0  0
 49 53  1  0  0  0  0
 49 64  1  0  0  0  0
 49114  1  1  0  0  0
 50 51  1  0  0  0  0
 50115  1  0  0  0  0
 50116  1  0  0  0  0
 51 52  1  0  0  0  0
 51117  1  0  0  0  0
 51118  1  0  0  0  0
 52119  1  0  0  0  0
 52120  1  0  0  0  0
 53 54  1  0  0  0  0
 54 55  2  0  0  0  0
 54121  1  0  0  0  0
 55 57  1  0  0  0  0
 55122  1  0  0  0  0
 56 69  2  0  0  0  0
 57 58  2  0  0  0  0
 57123  1  0  0  0  0
 58124  1  0  0  0  0
 59 60  1  0  0  0  0
 59 61  1  0  0  0  0
 59 62  1  0  0  0  0
 60125  1  0  0  0  0
 60126  1  0  0  0  0
 60127  1  0  0  0  0
 61128  1  0  0  0  0
 61129  1  0  0  0  0
 61130  1  0  0  0  0
 62131  1  0  0  0  0
 62132  1  0  0  0  0
 62133  1  0  0  0  0
 63 65  1  0  0  0  0
 63134  1  0  0  0  0
 63135  1  0  0  0  0
 63136  1  0  0  0  0
 64137  1  0  0  0  0
 65138  1  0  0  0  0
 68 75  1  0  0  0  0
 71 72  2  0  0  0  0
 71 74  1  0  0  0  0
 71 76  1  0  0  0  0
 72 77  1  0  0  0  0
 72 79  1  0  0  0  0
 73 75  1  0  0  0  0
 73 76  2  0  0  0  0
 73 79  1  0  0  0  0
 74 78  1  0  0  0  0
 74139  1  0  0  0  0
 74140  1  0  0  0  0
 75141  1  0  0  0  0
 75142  1  0  0  0  0
 77143  1  0  0  0  0
 77144  1  0  0  0  0
 78145  1  0  0  0  0
M  ISO  4   1 100  68 101  75 101  78 100
M  END
$$$$
91
 OpenBabel04052305473D

153161  0  0  0  0  0  0  0  0999 V2000
  -30.7652  -14.3608   20.6636 C   0  0  0  0  0  0  0  0  0  0  0  0
  -30.4392  -12.2669   19.3775 C   0  0  0  0  0  0  0  0  0  0  0  0
  -29.4791  -12.5281   18.1977 C   0  0  0  0  0  0  0  0  0  0  0  0
  -27.9985  -12.3963   18.6038 C   0  0  0  0  0  0  0  0  0  0  0  0
  -27.6639  -13.2170   19.8820 C   0  0  2  0  0  0  0  0  0  0  0  0
  -28.6795  -12.9602   21.0279 C   0  0  0  0  0  0  0  0  0  0  0  0
  -25.2633  -13.8245   20.5754 C   0  0  0  0  0  0  0  0  0  0  0  0
  -24.1645  -13.0409   20.9408 C   0  0  0  0  0  0  0  0  0  0  0  0
  -24.6400  -11.7009   20.8697 C   0  0  0  0  0  0  0  0  0  0  0  0
  -23.9005  -10.4085   21.0420 C   0  0  0  0  0  0  0  0  0  0  0  0
  -24.3588   -9.4123   21.9123 C   0  0  0  0  0  0  0  0  0  0  0  0
  -23.6296   -8.2350   22.0803 C   0  0  0  0  0  0  0  0  0  0  0  0
  -22.4385   -8.0419   21.3657 C   0  0  0  0  0  0  0  0  0  0  0  0
  -22.0103   -9.0167   20.4678 C   0  0  0  0  0  0  0  0  0  0  0  0
  -22.7317  -10.1925   20.3102 C   0  0  0  0  0  0  0  0  0  0  0  0
  -21.6857   -6.0709   22.5391 C   0  0  0  0  0  0  0  0  0  0  0  0
  -21.4064   -6.5490   23.8264 C   0  0  0  0  0  0  0  0  0  0  0  0
  -21.3635   -5.6677   24.9085 C   0  0  0  0  0  0  0  0  0  0  0  0
  -21.5973   -4.3067   24.7088 C   0  0  0  0  0  0  0  0  0  0  0  0
  -21.8700   -3.8284   23.4282 C   0  0  0  0  0  0  0  0  0  0  0  0
  -21.9144   -4.7056   22.3460 C   0  0  0  0  0  0  0  0  0  0  0  0
  -22.8194  -13.5263   21.1763 C   0  0  0  0  0  0  0  0  0  0  0  0
  -22.1559   -4.2206   21.1063 F   0  0  0  0  0  0  0  0  0  0  0  0
  -21.5628   -3.4510   25.7555 F   0  0  0  0  0  0  0  0  0  0  0  0
  -30.0261  -13.1803   20.4553 N   0  0  0  0  0  0  0  0  0  0  0  0
  -26.2911  -12.9356   20.3443 N   0  0  0  0  0  0  0  0  0  0  0  0
  -25.9236  -11.6675   20.5847 N   0  0  0  0  0  0  0  0  0  0  0  0
  -22.0708  -12.7905   22.0005 N   0  0  0  0  0  0  0  0  0  0  0  0
  -25.4117  -15.1773   20.4097 N   0  0  0  0  0  0  0  0  0  0  0  0
  -31.7916  -14.6724   20.0536 O   0  0  0  0  0  0  0  0  0  0  0  0
  -21.6670   -6.9022   21.4423 O   0  0  0  0  0  0  0  0  0  0  0  0
  -22.3946  -14.5564   20.6568 O   0  0  0  0  0  0  0  0  0  0  0  0
  -24.6048  -31.8614   23.2223 C   0  0  0  0  0  0  0  0  0  0  0  0
  -25.8822  -32.4841   23.8616 C   0  0  1  0  0  0  0  0  0  0  0  0
  -27.2536  -27.5042   20.1156 C   0  0  0  0  0  0  0  0  0  0  0  0
  -25.5726  -33.8762   24.2210 N   0  0  0  0  0  0  0  0  0  0  0  0
  -23.4066  -30.4859   21.5461 C   0  0  2  0  0  0  0  0  0  0  0  0
  -24.8467  -28.9636   20.1247 C   0  0  0  0  0  0  0  0  0  0  0  0
  -22.7412  -29.4652   22.5052 C   0  0  0  0  0  0  0  0  0  0  0  0
  -18.0167  -28.1302   22.8626 C   0  0  0  0  0  0  0  0  0  0  0  0
  -24.1342  -36.7390   23.2568 C   0  0  0  0  0  0  0  0  0  0  0  0
  -25.9141  -30.8882   21.3456 C   0  0  0  0  0  0  0  0  0  0  0  0
  -25.9930  -29.5029   20.7208 C   0  0  0  0  0  0  0  0  0  0  0  0
  -27.1758  -28.7612   20.7331 C   0  0  0  0  0  0  0  0  0  0  0  0
  -26.1032  -26.9836   19.5230 C   0  0  0  0  0  0  0  0  0  0  0  0
  -24.9097  -27.7011   19.5331 C   0  0  0  0  0  0  0  0  0  0  0  0
  -23.5715  -29.7899   20.1582 C   0  0  0  0  0  0  0  0  0  0  0  0
  -25.3990  -36.3212   24.0232 C   0  0  1  0  0  0  0  0  0  0  0  0
  -20.5793  -28.3813   23.1004 C   0  0  2  0  0  0  0  0  0  0  0  0
  -20.6548  -26.9392   22.5411 C   0  0  0  0  0  0  0  0  0  0  0  0
  -19.5615  -26.6407   21.5143 C   0  0  0  0  0  0  0  0  0  0  0  0
  -18.1797  -26.7818   22.1673 C   0  0  0  0  0  0  0  0  0  0  0  0
  -19.1385  -28.8769   23.2988 C   0  0  0  0  0  0  0  0  0  0  0  0
  -18.9183  -30.1286   23.8878 C   0  0  0  0  0  0  0  0  0  0  0  0
  -17.6396  -30.6493   24.0352 C   0  0  0  0  0  0  0  0  0  0  0  0
  -25.9153  -34.9582   23.4993 C   0  0  0  0  0  0  0  0  0  0  0  0
  -16.5415  -29.9068   23.6254 C   0  0  0  0  0  0  0  0  0  0  0  0
  -16.7331  -28.6521   23.0586 C   0  0  0  0  0  0  0  0  0  0  0  0
  -26.4583  -31.6439   25.0683 C   0  0  0  0  0  0  0  0  0  0  0  0
  -25.3807  -31.3179   26.1374 C   0  0  0  0  0  0  0  0  0  0  0  0
  -27.0530  -30.3024   24.5680 C   0  0  0  0  0  0  0  0  0  0  0  0
  -27.6014  -32.4281   25.7651 C   0  0  0  0  0  0  0  0  0  0  0  0
  -27.5629  -37.2220   24.8621 C   0  0  0  0  0  0  0  0  0  0  0  0
  -21.4133  -29.3375   22.3735 N   0  0  0  0  0  0  0  0  0  0  0  0
  -26.4706  -37.3372   23.9061 N   0  0  0  0  0  0  0  0  0  0  0  0
  -24.6674  -31.0544   22.1178 N   0  0  0  0  0  0  0  0  0  0  0  0
  -23.4259  -28.8150   23.2971 O   0  0  0  0  0  0  0  0  0  0  0  0
  -28.3948  -26.7345   20.0089 O   0  0  0  0  0  0  0  0  0  0  0  0
  -26.5870  -34.9065   22.4671 O   0  0  0  0  0  0  0  0  0  0  0  0
  -23.5365  -32.1254   23.7833 O   0  0  0  0  0  0  0  0  0  0  0  0
  -29.4271  -21.4272   19.8541 C   0  0  0  0  0  0  0  0  0  0  0  0
  -30.8265  -23.5096   20.9271 C   0  0  0  0  0  0  0  0  0  0  0  0
  -29.3976  -22.6659   19.2232 C   0  0  0  0  0  0  0  0  0  0  0  0
  -30.1079  -23.7321   19.7634 C   0  0  0  0  0  0  0  0  0  0  0  0
  -30.1762  -21.3078   21.0135 C   0  0  0  0  0  0  0  0  0  0  0  0
  -30.7668  -26.1576   19.5999 C   0  0  0  0  0  0  0  0  0  0  0  0
  -28.5977  -22.8236   17.9717 C   0  0  0  0  0  0  0  0  0  0  0  0
  -30.4967  -27.3238   18.6559 C   0  0  0  0  0  0  0  0  0  0  0  0
  -29.0206  -27.6748   18.5468 C   0  0  0  0  0  0  0  0  0  0  0  0
  -30.8791  -22.3206   21.5683 N   0  0  0  0  0  0  0  0  0  0  0  0
  -30.1063  -25.0130   19.1616 N   0  0  0  0  0  0  0  0  0  0  0  0
  -30.1983  -20.0426   21.6511 N   0  0  0  0  0  0  0  0  0  0  0  0
  -31.4765  -26.2729   20.5936 O   0  0  0  0  0  0  0  0  0  0  0  0
  -31.4485  -12.4701   19.0860 H   0  0  0  0  0  0  0  0  0  0  0  0
  -30.3970  -11.2460   19.6950 H   0  0  0  0  0  0  0  0  0  0  0  0
  -29.6870  -11.8204   17.4226 H   0  0  0  0  0  0  0  0  0  0  0  0
  -29.6375  -13.5326   17.8649 H   0  0  0  0  0  0  0  0  0  0  0  0
  -27.7830  -11.3650   18.7904 H   0  0  0  0  0  0  0  0  0  0  0  0
  -27.4028  -12.7801   17.8021 H   0  0  0  0  0  0  0  0  0  0  0  0
  -27.7353  -14.2503   19.6136 H   0  0  0  0  0  0  0  0  0  0  0  0
  -28.5890  -11.9550   21.3832 H   0  0  0  0  0  0  0  0  0  0  0  0
  -28.5005  -13.6134   21.8562 H   0  0  0  0  0  0  0  0  0  0  0  0
  -25.2399   -9.5495   22.4318 H   0  0  0  0  0  0  0  0  0  0  0  0
  -23.9663   -7.5070   22.7297 H   0  0  0  0  0  0  0  0  0  0  0  0
  -21.1515   -8.8641   19.9162 H   0  0  0  0  0  0  0  0  0  0  0  0
  -22.4016  -10.9115   19.6476 H   0  0  0  0  0  0  0  0  0  0  0  0
  -21.2319   -7.5552   23.9750 H   0  0  0  0  0  0  0  0  0  0  0  0
  -21.1589   -6.0228   25.8556 H   0  0  0  0  0  0  0  0  0  0  0  0
  -22.0396   -2.8212   23.2809 H   0  0  0  0  0  0  0  0  0  0  0  0
  -22.4401  -11.9703   22.4008 H   0  0  0  0  0  0  0  0  0  0  0  0
  -21.1493  -13.0679   22.2082 H   0  0  0  0  0  0  0  0  0  0  0  0
  -24.6538  -15.7807   20.5848 H   0  0  0  0  0  0  0  0  0  0  0  0
  -26.2762  -15.5453   20.1156 H   0  0  0  0  0  0  0  0  0  0  0  0
  -26.6778  -32.4663   23.1464 H   0  0  0  0  0  0  0  0  0  0  0  0
  -25.0747  -34.0282   25.0566 H   0  0  0  0  0  0  0  0  0  0  0  0
  -22.7881  -31.3489   21.4131 H   0  0  0  0  0  0  0  0  0  0  0  0
  -23.3854  -35.9823   23.3648 H   0  0  0  0  0  0  0  0  0  0  0  0
  -24.3696  -36.8624   22.2204 H   0  0  0  0  0  0  0  0  0  0  0  0
  -23.7669  -37.6632   23.6516 H   0  0  0  0  0  0  0  0  0  0  0  0
  -25.9445  -31.6237   20.5691 H   0  0  0  0  0  0  0  0  0  0  0  0
  -26.7436  -31.0079   22.0108 H   0  0  0  0  0  0  0  0  0  0  0  0
  -28.0090  -29.1452   21.2057 H   0  0  0  0  0  0  0  0  0  0  0  0
  -26.1369  -26.0560   19.0719 H   0  0  0  0  0  0  0  0  0  0  0  0
  -24.0652  -27.2961   19.0997 H   0  0  0  0  0  0  0  0  0  0  0  0
  -23.6156  -30.5365   19.3930 H   0  0  0  0  0  0  0  0  0  0  0  0
  -22.7355  -29.1425   19.9945 H   0  0  0  0  0  0  0  0  0  0  0  0
  -25.1353  -36.2335   25.0565 H   0  0  0  0  0  0  0  0  0  0  0  0
  -21.0070  -28.3206   24.0793 H   0  0  0  0  0  0  0  0  0  0  0  0
  -20.5555  -26.2518   23.3550 H   0  0  0  0  0  0  0  0  0  0  0  0
  -21.5974  -26.8362   22.0454 H   0  0  0  0  0  0  0  0  0  0  0  0
  -19.6810  -25.6422   21.1488 H   0  0  0  0  0  0  0  0  0  0  0  0
  -19.6406  -27.3343   20.7034 H   0  0  0  0  0  0  0  0  0  0  0  0
  -17.4282  -26.6888   21.4113 H   0  0  0  0  0  0  0  0  0  0  0  0
  -18.0803  -26.0130   22.9049 H   0  0  0  0  0  0  0  0  0  0  0  0
  -19.7265  -30.6774   24.2204 H   0  0  0  0  0  0  0  0  0  0  0  0
  -17.5064  -31.5856   24.4483 H   0  0  0  0  0  0  0  0  0  0  0  0
  -15.5878  -30.2839   23.7407 H   0  0  0  0  0  0  0  0  0  0  0  0
  -15.9120  -28.0941   22.7766 H   0  0  0  0  0  0  0  0  0  0  0  0
  -24.5787  -30.7757   25.6817 H   0  0  0  0  0  0  0  0  0  0  0  0
  -25.0041  -32.2289   26.5536 H   0  0  0  0  0  0  0  0  0  0  0  0
  -25.8166  -30.7245   26.9138 H   0  0  0  0  0  0  0  0  0  0  0  0
  -26.2892  -29.7335   24.0803 H   0  0  0  0  0  0  0  0  0  0  0  0
  -27.4336  -29.7484   25.4006 H   0  0  0  0  0  0  0  0  0  0  0  0
  -27.8466  -30.4994   23.8779 H   0  0  0  0  0  0  0  0  0  0  0  0
  -27.2251  -33.3632   26.1242 H   0  0  0  0  0  0  0  0  0  0  0  0
  -28.3902  -32.6065   25.0645 H   0  0  0  0  0  0  0  0  0  0  0  0
  -27.9772  -31.8555   26.5872 H   0  0  0  0  0  0  0  0  0  0  0  0
  -28.2744  -38.0016   24.6863 H   0  0  0  0  0  0  0  0  0  0  0  0
  -28.0396  -36.2711   24.7461 H   0  0  0  0  0  0  0  0  0  0  0  0
  -27.1773  -37.3087   25.8564 H   0  0  0  0  0  0  0  0  0  0  0  0
  -20.9627  -29.9365   21.7352 H   0  0  0  0  0  0  0  0  0  0  0  0
  -26.0447  -38.2561   24.0273 H   0  0  0  0  0  0  0  0  0  0  0  0
  -28.9074  -20.6222   19.4709 H   0  0  0  0  0  0  0  0  0  0  0  0
  -31.3540  -24.3003   21.3291 H   0  0  0  0  0  0  0  0  0  0  0  0
  -28.1314  -21.8922   17.7267 H   0  0  0  0  0  0  0  0  0  0  0  0
  -29.2426  -23.1211   17.1713 H   0  0  0  0  0  0  0  0  0  0  0  0
  -27.8461  -23.5705   18.1205 H   0  0  0  0  0  0  0  0  0  0  0  0
  -30.8578  -27.0645   17.6826 H   0  0  0  0  0  0  0  0  0  0  0  0
  -30.9992  -28.1800   19.0552 H   0  0  0  0  0  0  0  0  0  0  0  0
  -28.5913  -27.3257   17.6310 H   0  0  0  0  0  0  0  0  0  0  0  0
  -28.7945  -28.7206   18.5398 H   0  0  0  0  0  0  0  0  0  0  0  0
  -29.5764  -25.1055   18.3370 H   0  0  0  0  0  0  0  0  0  0  0  0
  -30.0702  -20.1791   22.6176 H   0  0  0  0  0  0  0  0  0  0  0  0
  1 25  1  0  0  0  0
  1 30  2  0  0  0  0
  1 82  1  0  0  0  0
  2  3  1  0  0  0  0
  2 25  1  0  0  0  0
  2 84  1  0  0  0  0
  2 85  1  0  0  0  0
  3  4  1  0  0  0  0
  3 86  1  0  0  0  0
  3 87  1  0  0  0  0
  4  5  1  0  0  0  0
  4 88  1  0  0  0  0
  4 89  1  0  0  0  0
  5  6  1  0  0  0  0
  5 26  1  0  0  0  0
  5 90  1  6  0  0  0
  6 25  1  0  0  0  0
  6 91  1  0  0  0  0
  6 92  1  0  0  0  0
  7  8  2  0  0  0  0
  7 26  1  0  0  0  0
  7 29  1  0  0  0  0
  8  9  1  0  0  0  0
  8 22  1  0  0  0  0
  9 10  1  0  0  0  0
  9 27  2  0  0  0  0
 10 11  2  0  0  0  0
 10 15  1  0  0  0  0
 11 12  1  0  0  0  0
 11 93  1  0  0  0  0
 12 13  2  0  0  0  0
 12 94  1  0  0  0  0
 13 14  1  0  0  0  0
 13 31  1  0  0  0  0
 14 15  2  0  0  0  0
 14 95  1  0  0  0  0
 15 96  1  0  0  0  0
 16 17  2  0  0  0  0
 16 21  1  0  0  0  0
 16 31  1  0  0  0  0
 17 18  1  0  0  0  0
 17 97  1  0  0  0  0
 18 19  2  0  0  0  0
 18 98  1  0  0  0  0
 19 20  1  0  0  0  0
 19 24  1  0  0  0  0
 20 21  2  0  0  0  0
 20 99  1  0  0  0  0
 21 23  1  0  0  0  0
 22 28  1  0  0  0  0
 22 32  2  0  0  0  0
 26 27  1  0  0  0  0
 28100  1  0  0  0  0
 28101  1  0  0  0  0
 29102  1  0  0  0  0
 29103  1  0  0  0  0
 33 34  1  0  0  0  0
 33 66  1  0  0  0  0
 33 70  2  0  0  0  0
 34 36  1  0  0  0  0
 34 59  1  0  0  0  0
 34104  1  6  0  0  0
 35 44  2  0  0  0  0
 35 45  1  0  0  0  0
 35 68  1  0  0  0  0
 36 56  1  0  0  0  0
 36105  1  0  0  0  0
 37 39  1  0  0  0  0
 37 47  1  0  0  0  0
 37 66  1  0  0  0  0
 37106  1  6  0  0  0
 38 43  2  0  0  0  0
 38 46  1  0  0  0  0
 38 47  1  0  0  0  0
 39 64  1  0  0  0  0
 39 67  2  0  0  0  0
 40 52  1  0  0  0  0
 40 53  2  0  0  0  0
 40 58  1  0  0  0  0
 41107  1  0  0  0  0
 41108  1  0  0  0  0
 41109  1  0  0  0  0
 42 43  1  0  0  0  0
 42 66  1  0  0  0  0
 42110  1  0  0  0  0
 42111  1  0  0  0  0
 43 44  1  0  0  0  0
 44112  1  0  0  0  0
 45 46  2  0  0  0  0
 45113  1  0  0  0  0
 46114  1  0  0  0  0
 47115  1  0  0  0  0
 47116  1  0  0  0  0
 48 41  1  0  0  0  0
 48 56  1  0  0  0  0
 48 65  1  0  0  0  0
 48117  1  1  0  0  0
 49 50  1  0  0  0  0
 49 53  1  0  0  0  0
 49 64  1  0  0  0  0
 49118  1  1  0  0  0
 50 51  1  0  0  0  0
 50119  1  0  0  0  0
 50120  1  0  0  0  0
 51 52  1  0  0  0  0
 51121  1  0  0  0  0
 51122  1  0  0  0  0
 52123  1  0  0  0  0
 52124  1  0  0  0  0
 53 54  1  0  0  0  0
 54 55  2  0  0  0  0
 54125  1  0  0  0  0
 55 57  1  0  0  0  0
 55126  1  0  0  0  0
 56 69  2  0  0  0  0
 57 58  2  0  0  0  0
 57127  1  0  0  0  0
 58128  1  0  0  0  0
 59 60  1  0  0  0  0
 59 61  1  0  0  0  0
 59 62  1  0  0  0  0
 60129  1  0  0  0  0
 60130  1  0  0  0  0
 60131  1  0  0  0  0
 61132  1  0  0  0  0
 61133  1  0  0  0  0
 61134  1  0  0  0  0
 62135  1  0  0  0  0
 62136  1  0  0  0  0
 62137  1  0  0  0  0
 63 65  1  0  0  0  0
 63138  1  0  0  0  0
 63139  1  0  0  0  0
 63140  1  0  0  0  0
 64141  1  0  0  0  0
 65142  1  0  0  0  0
 68 79  1  0  0  0  0
 71 73  2  0  0  0  0
 71 75  1  0  0  0  0
 71143  1  0  0  0  0
 72 74  2  0  0  0  0
 72 80  1  0  0  0  0
 72144  1  0  0  0  0
 73 74  1  0  0  0  0
 73 77  1  0  0  0  0
 74 81  1  0  0  0  0
 75 80  2  0  0  0  0
 75 82  1  0  0  0  0
 76 78  1  0  0  0  0
 76 81  1  0  0  0  0
 76 83  2  0  0  0  0
 77145  1  0  0  0  0
 77146  1  0  0  0  0
 77147  1  0  0  0  0
 78 79  1  0  0  0  0
 78148  1  0  0  0  0
 78149  1  0  0  0  0
 79150  1  0  0  0  0
 79151  1  0  0  0  0
 81152  1  0  0  0  0
 82153  1  0  0  0  0
M  ISO  4   1 100  68 101  79 101  82 100
M  END
$$$$
92
 OpenBabel04052305473D

156164  0  0  0  0  0  0  0  0999 V2000
  -30.7652  -14.3608   20.6636 C   0  0  0  0  0  0  0  0  0  0  0  0
  -30.4392  -12.2669   19.3775 C   0  0  0  0  0  0  0  0  0  0  0  0
  -29.4791  -12.5281   18.1977 C   0  0  0  0  0  0  0  0  0  0  0  0
  -27.9985  -12.3963   18.6038 C   0  0  0  0  0  0  0  0  0  0  0  0
  -27.6639  -13.2170   19.8820 C   0  0  2  0  0  0  0  0  0  0  0  0
  -28.6795  -12.9602   21.0279 C   0  0  0  0  0  0  0  0  0  0  0  0
  -25.2633  -13.8245   20.5754 C   0  0  0  0  0  0  0  0  0  0  0  0
  -24.1645  -13.0409   20.9408 C   0  0  0  0  0  0  0  0  0  0  0  0
  -24.6400  -11.7009   20.8697 C   0  0  0  0  0  0  0  0  0  0  0  0
  -23.9005  -10.4085   21.0420 C   0  0  0  0  0  0  0  0  0  0  0  0
  -24.3588   -9.4123   21.9123 C   0  0  0  0  0  0  0  0  0  0  0  0
  -23.6296   -8.2350   22.0803 C   0  0  0  0  0  0  0  0  0  0  0  0
  -22.4385   -8.0419   21.3657 C   0  0  0  0  0  0  0  0  0  0  0  0
  -22.0103   -9.0167   20.4678 C   0  0  0  0  0  0  0  0  0  0  0  0
  -22.7317  -10.1925   20.3102 C   0  0  0  0  0  0  0  0  0  0  0  0
  -21.6857   -6.0709   22.5391 C   0  0  0  0  0  0  0  0  0  0  0  0
  -21.4064   -6.5490   23.8264 C   0  0  0  0  0  0  0  0  0  0  0  0
  -21.3635   -5.6677   24.9085 C   0  0  0  0  0  0  0  0  0  0  0  0
  -21.5973   -4.3067   24.7088 C   0  0  0  0  0  0  0  0  0  0  0  0
  -21.8700   -3.8284   23.4282 C   0  0  0  0  0  0  0  0  0  0  0  0
  -21.9144   -4.7056   22.3460 C   0  0  0  0  0  0  0  0  0  0  0  0
  -22.8194  -13.5263   21.1763 C   0  0  0  0  0  0  0  0  0  0  0  0
  -22.1559   -4.2206   21.1063 F   0  0  0  0  0  0  0  0  0  0  0  0
  -21.5628   -3.4510   25.7555 F   0  0  0  0  0  0  0  0  0  0  0  0
  -30.0261  -13.1803   20.4553 N   0  0  0  0  0  0  0  0  0  0  0  0
  -26.2911  -12.9356   20.3443 N   0  0  0  0  0  0  0  0  0  0  0  0
  -25.9236  -11.6675   20.5847 N   0  0  0  0  0  0  0  0  0  0  0  0
  -22.0708  -12.7905   22.0005 N   0  0  0  0  0  0  0  0  0  0  0  0
  -25.4117  -15.1773   20.4097 N   0  0  0  0  0  0  0  0  0  0  0  0
  -31.7916  -14.6724   20.0536 O   0  0  0  0  0  0  0  0  0  0  0  0
  -21.6670   -6.9022   21.4423 O   0  0  0  0  0  0  0  0  0  0  0  0
  -22.3946  -14.5564   20.6568 O   0  0  0  0  0  0  0  0  0  0  0  0
  -24.6048  -31.8614   23.2223 C   0  0  0  0  0  0  0  0  0  0  0  0
  -25.8822  -32.4841   23.8616 C   0  0  1  0  0  0  0  0  0  0  0  0
  -27.2536  -27.5042   20.1156 C   0  0  0  0  0  0  0  0  0  0  0  0
  -25.5726  -33.8762   24.2210 N   0  0  0  0  0  0  0  0  0  0  0  0
  -23.4066  -30.4859   21.5461 C   0  0  2  0  0  0  0  0  0  0  0  0
  -24.8467  -28.9636   20.1247 C   0  0  0  0  0  0  0  0  0  0  0  0
  -22.7412  -29.4652   22.5052 C   0  0  0  0  0  0  0  0  0  0  0  0
  -18.0167  -28.1302   22.8626 C   0  0  0  0  0  0  0  0  0  0  0  0
  -24.1342  -36.7390   23.2568 C   0  0  0  0  0  0  0  0  0  0  0  0
  -25.9141  -30.8882   21.3456 C   0  0  0  0  0  0  0  0  0  0  0  0
  -25.9930  -29.5029   20.7208 C   0  0  0  0  0  0  0  0  0  0  0  0
  -27.1758  -28.7612   20.7331 C   0  0  0  0  0  0  0  0  0  0  0  0
  -26.1032  -26.9836   19.5230 C   0  0  0  0  0  0  0  0  0  0  0  0
  -24.9097  -27.7011   19.5331 C   0  0  0  0  0  0  0  0  0  0  0  0
  -23.5715  -29.7899   20.1582 C   0  0  0  0  0  0  0  0  0  0  0  0
  -25.3990  -36.3212   24.0232 C   0  0  1  0  0  0  0  0  0  0  0  0
  -20.5793  -28.3813   23.1004 C   0  0  2  0  0  0  0  0  0  0  0  0
  -20.6548  -26.9392   22.5411 C   0  0  0  0  0  0  0  0  0  0  0  0
  -19.5615  -26.6407   21.5143 C   0  0  0  0  0  0  0  0  0  0  0  0
  -18.1797  -26.7818   22.1673 C   0  0  0  0  0  0  0  0  0  0  0  0
  -19.1385  -28.8769   23.2988 C   0  0  0  0  0  0  0  0  0  0  0  0
  -18.9183  -30.1286   23.8878 C   0  0  0  0  0  0  0  0  0  0  0  0
  -17.6396  -30.6493   24.0352 C   0  0  0  0  0  0  0  0  0  0  0  0
  -25.9153  -34.9582   23.4993 C   0  0  0  0  0  0  0  0  0  0  0  0
  -16.5415  -29.9068   23.6254 C   0  0  0  0  0  0  0  0  0  0  0  0
  -16.7331  -28.6521   23.0586 C   0  0  0  0  0  0  0  0  0  0  0  0
  -26.4583  -31.6439   25.0683 C   0  0  0  0  0  0  0  0  0  0  0  0
  -25.3807  -31.3179   26.1374 C   0  0  0  0  0  0  0  0  0  0  0  0
  -27.0530  -30.3024   24.5680 C   0  0  0  0  0  0  0  0  0  0  0  0
  -27.6014  -32.4281   25.7651 C   0  0  0  0  0  0  0  0  0  0  0  0
  -27.5629  -37.2220   24.8621 C   0  0  0  0  0  0  0  0  0  0  0  0
  -21.4133  -29.3375   22.3735 N   0  0  0  0  0  0  0  0  0  0  0  0
  -26.4706  -37.3372   23.9061 N   0  0  0  0  0  0  0  0  0  0  0  0
  -24.6674  -31.0544   22.1178 N   0  0  0  0  0  0  0  0  0  0  0  0
  -23.4259  -28.8150   23.2971 O   0  0  0  0  0  0  0  0  0  0  0  0
  -28.3948  -26.7345   20.0089 O   0  0  0  0  0  0  0  0  0  0  0  0
  -26.5870  -34.9065   22.4671 O   0  0  0  0  0  0  0  0  0  0  0  0
  -23.5365  -32.1254   23.7833 O   0  0  0  0  0  0  0  0  0  0  0  0
  -18.3477  -26.6826   22.4511 C   0  0  0  0  0  0  0  0  0  0  0  0
  -20.6966  -27.0389   22.0525 C   0  0  0  0  0  0  0  0  0  0  0  0
  -19.5938  -26.1904   22.0752 C   0  0  0  0  0  0  0  0  0  0  0  0
  -18.2348  -28.0215   22.7976 C   0  0  0  0  0  0  0  0  0  0  0  0
  -20.5242  -28.3688   22.4090 C   0  0  0  0  0  0  0  0  0  0  0  0
  -16.9786  -28.6216   23.2014 C   0  0  0  0  0  0  0  0  0  0  0  0
  -20.9915  -24.2657   21.3220 C   0  0  0  0  0  0  0  0  0  0  0  0
  -22.1004  -22.1405   20.5508 C   0  0  0  0  0  0  0  0  0  0  0  0
  -20.7891  -22.7914   20.9775 C   0  0  1  0  0  0  0  0  0  0  0  0
  -16.8512  -29.8756   23.5303 N   0  0  0  0  0  0  0  0  0  0  0  0
  -19.3130  -28.8165   22.7670 N   0  3  0  0  0  0  0  0  0  0  0  0
  -19.7358  -24.8585   21.7242 N   0  0  0  0  0  0  0  0  0  0  0  0
  -21.6438  -29.2370   22.3870 N   0  0  0  0  0  0  0  0  0  0  0  0
  -20.3181  -22.1012   22.1369 O   0  0  0  0  0  0  0  0  0  0  0  0
  -31.4485  -12.4701   19.0860 H   0  0  0  0  0  0  0  0  0  0  0  0
  -30.3970  -11.2460   19.6950 H   0  0  0  0  0  0  0  0  0  0  0  0
  -29.6870  -11.8204   17.4226 H   0  0  0  0  0  0  0  0  0  0  0  0
  -29.6375  -13.5326   17.8649 H   0  0  0  0  0  0  0  0  0  0  0  0
  -27.7830  -11.3650   18.7904 H   0  0  0  0  0  0  0  0  0  0  0  0
  -27.4028  -12.7801   17.8021 H   0  0  0  0  0  0  0  0  0  0  0  0
  -27.7353  -14.2503   19.6136 H   0  0  0  0  0  0  0  0  0  0  0  0
  -28.5890  -11.9550   21.3832 H   0  0  0  0  0  0  0  0  0  0  0  0
  -28.5005  -13.6134   21.8562 H   0  0  0  0  0  0  0  0  0  0  0  0
  -25.2399   -9.5495   22.4318 H   0  0  0  0  0  0  0  0  0  0  0  0
  -23.9663   -7.5070   22.7297 H   0  0  0  0  0  0  0  0  0  0  0  0
  -21.1515   -8.8641   19.9162 H   0  0  0  0  0  0  0  0  0  0  0  0
  -22.4016  -10.9115   19.6476 H   0  0  0  0  0  0  0  0  0  0  0  0
  -21.2319   -7.5552   23.9750 H   0  0  0  0  0  0  0  0  0  0  0  0
  -21.1589   -6.0228   25.8556 H   0  0  0  0  0  0  0  0  0  0  0  0
  -22.0396   -2.8212   23.2809 H   0  0  0  0  0  0  0  0  0  0  0  0
  -22.4401  -11.9703   22.4008 H   0  0  0  0  0  0  0  0  0  0  0  0
  -21.1493  -13.0679   22.2082 H   0  0  0  0  0  0  0  0  0  0  0  0
  -24.6538  -15.7807   20.5848 H   0  0  0  0  0  0  0  0  0  0  0  0
  -26.2762  -15.5453   20.1156 H   0  0  0  0  0  0  0  0  0  0  0  0
  -26.6778  -32.4663   23.1464 H   0  0  0  0  0  0  0  0  0  0  0  0
  -25.0747  -34.0282   25.0566 H   0  0  0  0  0  0  0  0  0  0  0  0
  -22.7881  -31.3489   21.4131 H   0  0  0  0  0  0  0  0  0  0  0  0
  -23.3854  -35.9823   23.3648 H   0  0  0  0  0  0  0  0  0  0  0  0
  -24.3696  -36.8624   22.2204 H   0  0  0  0  0  0  0  0  0  0  0  0
  -23.7669  -37.6632   23.6516 H   0  0  0  0  0  0  0  0  0  0  0  0
  -25.9445  -31.6237   20.5691 H   0  0  0  0  0  0  0  0  0  0  0  0
  -26.7436  -31.0079   22.0108 H   0  0  0  0  0  0  0  0  0  0  0  0
  -28.0090  -29.1452   21.2057 H   0  0  0  0  0  0  0  0  0  0  0  0
  -26.1369  -26.0560   19.0719 H   0  0  0  0  0  0  0  0  0  0  0  0
  -24.0652  -27.2961   19.0997 H   0  0  0  0  0  0  0  0  0  0  0  0
  -23.6156  -30.5365   19.3930 H   0  0  0  0  0  0  0  0  0  0  0  0
  -22.7355  -29.1425   19.9945 H   0  0  0  0  0  0  0  0  0  0  0  0
  -25.1353  -36.2335   25.0565 H   0  0  0  0  0  0  0  0  0  0  0  0
  -21.0070  -28.3206   24.0793 H   0  0  0  0  0  0  0  0  0  0  0  0
  -20.5555  -26.2518   23.3550 H   0  0  0  0  0  0  0  0  0  0  0  0
  -21.5974  -26.8362   22.0454 H   0  0  0  0  0  0  0  0  0  0  0  0
  -19.6810  -25.6422   21.1488 H   0  0  0  0  0  0  0  0  0  0  0  0
  -19.6406  -27.3343   20.7034 H   0  0  0  0  0  0  0  0  0  0  0  0
  -17.4282  -26.6888   21.4113 H   0  0  0  0  0  0  0  0  0  0  0  0
  -18.0803  -26.0130   22.9049 H   0  0  0  0  0  0  0  0  0  0  0  0
  -19.7265  -30.6774   24.2204 H   0  0  0  0  0  0  0  0  0  0  0  0
  -17.5064  -31.5856   24.4483 H   0  0  0  0  0  0  0  0  0  0  0  0
  -15.5878  -30.2839   23.7407 H   0  0  0  0  0  0  0  0  0  0  0  0
  -15.9120  -28.0941   22.7766 H   0  0  0  0  0  0  0  0  0  0  0  0
  -24.5787  -30.7757   25.6817 H   0  0  0  0  0  0  0  0  0  0  0  0
  -25.0041  -32.2289   26.5536 H   0  0  0  0  0  0  0  0  0  0  0  0
  -25.8166  -30.7245   26.9138 H   0  0  0  0  0  0  0  0  0  0  0  0
  -26.2892  -29.7335   24.0803 H   0  0  0  0  0  0  0  0  0  0  0  0
  -27.4336  -29.7484   25.4006 H   0  0  0  0  0  0  0  0  0  0  0  0
  -27.8466  -30.4994   23.8779 H   0  0  0  0  0  0  0  0  0  0  0  0
  -27.2251  -33.3632   26.1242 H   0  0  0  0  0  0  0  0  0  0  0  0
  -28.3902  -32.6065   25.0645 H   0  0  0  0  0  0  0  0  0  0  0  0
  -27.9772  -31.8555   26.5872 H   0  0  0  0  0  0  0  0  0  0  0  0
  -28.2744  -38.0016   24.6863 H   0  0  0  0  0  0  0  0  0  0  0  0
  -28.0396  -36.2711   24.7461 H   0  0  0  0  0  0  0  0  0  0  0  0
  -27.1773  -37.3087   25.8564 H   0  0  0  0  0  0  0  0  0  0  0  0
  -20.9627  -29.9365   21.7352 H   0  0  0  0  0  0  0  0  0  0  0  0
  -26.0447  -38.2561   24.0273 H   0  0  0  0  0  0  0  0  0  0  0  0
  -17.5225  -26.0631   22.4718 H   0  0  0  0  0  0  0  0  0  0  0  0
  -21.6258  -26.6854   21.7755 H   0  0  0  0  0  0  0  0  0  0  0  0
  -16.1389  -28.0223   23.2299 H   0  0  0  0  0  0  0  0  0  0  0  0
  -21.3674  -24.7815   20.4632 H   0  0  0  0  0  0  0  0  0  0  0  0
  -21.6903  -24.3443   22.1285 H   0  0  0  0  0  0  0  0  0  0  0  0
  -21.9414  -21.6997   19.5889 H   0  0  0  0  0  0  0  0  0  0  0  0
  -22.3318  -21.4522   21.3367 H   0  0  0  0  0  0  0  0  0  0  0  0
  -20.0852  -22.7326   20.1737 H   0  0  0  0  0  0  0  0  0  0  0  0
  -17.6349  -30.4712   23.5125 H   0  0  0  0  0  0  0  0  0  0  0  0
  -19.2117  -29.7635   23.0165 H   0  0  0  0  0  0  0  0  0  0  0  0
  -18.9373  -24.2833   21.7500 H   0  0  0  0  0  0  0  0  0  0  0  0
  -21.8224  -30.2036   22.4417 H   0  0  0  0  0  0  0  0  0  0  0  0
  -20.9766  -22.1728   22.8456 H   0  0  0  0  0  0  0  0  0  0  0  0
  1 25  1  0  0  0  0
  1 30  2  0  0  0  0
  1 83  1  0  0  0  0
  2  3  1  0  0  0  0
  2 25  1  0  0  0  0
  2 85  1  0  0  0  0
  2 86  1  0  0  0  0
  3  4  1  0  0  0  0
  3 87  1  0  0  0  0
  3 88  1  0  0  0  0
  4  5  1  0  0  0  0
  4 89  1  0  0  0  0
  4 90  1  0  0  0  0
  5  6  1  0  0  0  0
  5 26  1  0  0  0  0
  5 91  1  6  0  0  0
  6 25  1  0  0  0  0
  6 92  1  0  0  0  0
  6 93  1  0  0  0  0
  7  8  2  0  0  0  0
  7 26  1  0  0  0  0
  7 29  1  0  0  0  0
  8  9  1  0  0  0  0
  8 22  1  0  0  0  0
  9 10  1  0  0  0  0
  9 27  2  0  0  0  0
 10 11  2  0  0  0  0
 10 15  1  0  0  0  0
 11 12  1  0  0  0  0
 11 94  1  0  0  0  0
 12 13  2  0  0  0  0
 12 95  1  0  0  0  0
 13 14  1  0  0  0  0
 13 31  1  0  0  0  0
 14 15  2  0  0  0  0
 14 96  1  0  0  0  0
 15 97  1  0  0  0  0
 16 17  2  0  0  0  0
 16 21  1  0  0  0  0
 16 31  1  0  0  0  0
 17 18  1  0  0  0  0
 17 98  1  0  0  0  0
 18 19  2  0  0  0  0
 18 99  1  0  0  0  0
 19 20  1  0  0  0  0
 19 24  1  0  0  0  0
 20 21  2  0  0  0  0
 20100  1  0  0  0  0
 21 23  1  0  0  0  0
 22 28  1  0  0  0  0
 22 32  2  0  0  0  0
 26 27  1  0  0  0  0
 28101  1  0  0  0  0
 28102  1  0  0  0  0
 29103  1  0  0  0  0
 29104  1  0  0  0  0
 33 34  1  0  0  0  0
 33 66  1  0  0  0  0
 33 70  2  0  0  0  0
 34 36  1  0  0  0  0
 34 59  1  0  0  0  0
 34105  1  6  0  0  0
 35 44  2  0  0  0  0
 35 45  1  0  0  0  0
 35 68  1  0  0  0  0
 36 56  1  0  0  0  0
 36106  1  0  0  0  0
 37 39  1  0  0  0  0
 37 47  1  0  0  0  0
 37 66  1  0  0  0  0
 37107  1  6  0  0  0
 38 43  2  0  0  0  0
 38 46  1  0  0  0  0
 38 47  1  0  0  0  0
 39 64  1  0  0  0  0
 39 67  2  0  0  0  0
 40 52  1  0  0  0  0
 40 53  2  0  0  0  0
 40 58  1  0  0  0  0
 41108  1  0  0  0  0
 41109  1  0  0  0  0
 41110  1  0  0  0  0
 42 43  1  0  0  0  0
 42 66  1  0  0  0  0
 42111  1  0  0  0  0
 42112  1  0  0  0  0
 43 44  1  0  0  0  0
 44113  1  0  0  0  0
 45 46  2  0  0  0  0
 45114  1  0  0  0  0
 46115  1  0  0  0  0
 47116  1  0  0  0  0
 47117  1  0  0  0  0
 48 41  1  0  0  0  0
 48 56  1  0  0  0  0
 48 65  1  0  0  0  0
 48118  1  1  0  0  0
 49 50  1  0  0  0  0
 49 53  1  0  0  0  0
 49 64  1  0  0  0  0
 49119  1  1  0  0  0
 50 51  1  0  0  0  0
 50120  1  0  0  0  0
 50121  1  0  0  0  0
 51 52  1  0  0  0  0
 51122  1  0  0  0  0
 51123  1  0  0  0  0
 52124  1  0  0  0  0
 52125  1  0  0  0  0
 53 54  1  0  0  0  0
 54 55  2  0  0  0  0
 54126  1  0  0  0  0
 55 57  1  0  0  0  0
 55127  1  0  0  0  0
 56 69  2  0  0  0  0
 57 58  2  0  0  0  0
 57128  1  0  0  0  0
 58129  1  0  0  0  0
 59 60  1  0  0  0  0
 59 61  1  0  0  0  0
 59 62  1  0  0  0  0
 60130  1  0  0  0  0
 60131  1  0  0  0  0
 60132  1  0  0  0  0
 61133  1  0  0  0  0
 61134  1  0  0  0  0
 61135  1  0  0  0  0
 62136  1  0  0  0  0
 62137  1  0  0  0  0
 62138  1  0  0  0  0
 63 65  1  0  0  0  0
 63139  1  0  0  0  0
 63140  1  0  0  0  0
 63141  1  0  0  0  0
 64142  1  0  0  0  0
 65143  1  0  0  0  0
 68 78  1  0  0  0  0
 71 73  2  0  0  0  0
 71 74  1  0  0  0  0
 71144  1  0  0  0  0
 72 73  1  0  0  0  0
 72 75  2  0  0  0  0
 72145  1  0  0  0  0
 73 82  1  0  0  0  0
 74 76  1  0  0  0  0
 74 81  2  0  0  0  0
 75 81  1  0  0  0  0
 75 83  1  0  0  0  0
 76 80  2  0  0  0  0
 76146  1  0  0  0  0
 77 79  1  0  0  0  0
 77 82  1  0  0  0  0
 77147  1  0  0  0  0
 77148  1  0  0  0  0
 78 79  1  0  0  0  0
 78149  1  0  0  0  0
 78150  1  0  0  0  0
 79 84  1  0  0  0  0
 79151  1  6  0  0  0
 80152  1  0  0  0  0
 81153  1  0  0  0  0
 82154  1  0  0  0  0
 83155  1  0  0  0  0
 84156  1  0  0  0  0
M  ISO  4   1 100  68 101  78 101  83 100
M  CHG  1  81   1
M  END
$$$$
93
 OpenBabel04052305473D

170178  0  0  0  0  0  0  0  0999 V2000
  -30.7652  -14.3608   20.6636 C   0  0  0  0  0  0  0  0  0  0  0  0
  -30.4392  -12.2669   19.3775 C   0  0  0  0  0  0  0  0  0  0  0  0
  -29.4791  -12.5281   18.1977 C   0  0  0  0  0  0  0  0  0  0  0  0
  -27.9985  -12.3963   18.6038 C   0  0  0  0  0  0  0  0  0  0  0  0
  -27.6639  -13.2170   19.8820 C   0  0  2  0  0  0  0  0  0  0  0  0
  -28.6795  -12.9602   21.0279 C   0  0  0  0  0  0  0  0  0  0  0  0
  -25.2633  -13.8245   20.5754 C   0  0  0  0  0  0  0  0  0  0  0  0
  -24.1645  -13.0409   20.9408 C   0  0  0  0  0  0  0  0  0  0  0  0
  -24.6400  -11.7009   20.8697 C   0  0  0  0  0  0  0  0  0  0  0  0
  -23.9005  -10.4085   21.0420 C   0  0  0  0  0  0  0  0  0  0  0  0
  -24.3588   -9.4123   21.9123 C   0  0  0  0  0  0  0  0  0  0  0  0
  -23.6296   -8.2350   22.0803 C   0  0  0  0  0  0  0  0  0  0  0  0
  -22.4385   -8.0419   21.3657 C   0  0  0  0  0  0  0  0  0  0  0  0
  -22.0103   -9.0167   20.4678 C   0  0  0  0  0  0  0  0  0  0  0  0
  -22.7317  -10.1925   20.3102 C   0  0  0  0  0  0  0  0  0  0  0  0
  -21.6857   -6.0709   22.5391 C   0  0  0  0  0  0  0  0  0  0  0  0
  -21.4064   -6.5490   23.8264 C   0  0  0  0  0  0  0  0  0  0  0  0
  -21.3635   -5.6677   24.9085 C   0  0  0  0  0  0  0  0  0  0  0  0
  -21.5973   -4.3067   24.7088 C   0  0  0  0  0  0  0  0  0  0  0  0
  -21.8700   -3.8284   23.4282 C   0  0  0  0  0  0  0  0  0  0  0  0
  -21.9144   -4.7056   22.3460 C   0  0  0  0  0  0  0  0  0  0  0  0
  -22.8194  -13.5263   21.1763 C   0  0  0  0  0  0  0  0  0  0  0  0
  -22.1559   -4.2206   21.1063 F   0  0  0  0  0  0  0  0  0  0  0  0
  -21.5628   -3.4510   25.7555 F   0  0  0  0  0  0  0  0  0  0  0  0
  -30.0261  -13.1803   20.4553 N   0  0  0  0  0  0  0  0  0  0  0  0
  -26.2911  -12.9356   20.3443 N   0  0  0  0  0  0  0  0  0  0  0  0
  -25.9236  -11.6675   20.5847 N   0  0  0  0  0  0  0  0  0  0  0  0
  -22.0708  -12.7905   22.0005 N   0  0  0  0  0  0  0  0  0  0  0  0
  -25.4117  -15.1773   20.4097 N   0  0  0  0  0  0  0  0  0  0  0  0
  -31.7916  -14.6724   20.0536 O   0  0  0  0  0  0  0  0  0  0  0  0
  -21.6670   -6.9022   21.4423 O   0  0  0  0  0  0  0  0  0  0  0  0
  -22.3946  -14.5564   20.6568 O   0  0  0  0  0  0  0  0  0  0  0  0
  -24.6048  -31.8614   23.2223 C   0  0  0  0  0  0  0  0  0  0  0  0
  -25.8822  -32.4841   23.8616 C   0  0  1  0  0  0  0  0  0  0  0  0
  -27.2536  -27.5042   20.1156 C   0  0  0  0  0  0  0  0  0  0  0  0
  -25.5726  -33.8762   24.2210 N   0  0  0  0  0  0  0  0  0  0  0  0
  -23.4066  -30.4859   21.5461 C   0  0  2  0  0  0  0  0  0  0  0  0
  -24.8467  -28.9636   20.1247 C   0  0  0  0  0  0  0  0  0  0  0  0
  -22.7412  -29.4652   22.5052 C   0  0  0  0  0  0  0  0  0  0  0  0
  -18.0167  -28.1302   22.8626 C   0  0  0  0  0  0  0  0  0  0  0  0
  -24.1342  -36.7390   23.2568 C   0  0  0  0  0  0  0  0  0  0  0  0
  -25.9141  -30.8882   21.3456 C   0  0  0  0  0  0  0  0  0  0  0  0
  -25.9930  -29.5029   20.7208 C   0  0  0  0  0  0  0  0  0  0  0  0
  -27.1758  -28.7612   20.7331 C   0  0  0  0  0  0  0  0  0  0  0  0
  -26.1032  -26.9836   19.5230 C   0  0  0  0  0  0  0  0  0  0  0  0
  -24.9097  -27.7011   19.5331 C   0  0  0  0  0  0  0  0  0  0  0  0
  -23.5715  -29.7899   20.1582 C   0  0  0  0  0  0  0  0  0  0  0  0
  -25.3990  -36.3212   24.0232 C   0  0  1  0  0  0  0  0  0  0  0  0
  -20.5793  -28.3813   23.1004 C   0  0  2  0  0  0  0  0  0  0  0  0
  -20.6548  -26.9392   22.5411 C   0  0  0  0  0  0  0  0  0  0  0  0
  -19.5615  -26.6407   21.5143 C   0  0  0  0  0  0  0  0  0  0  0  0
  -18.1797  -26.7818   22.1673 C   0  0  0  0  0  0  0  0  0  0  0  0
  -19.1385  -28.8769   23.2988 C   0  0  0  0  0  0  0  0  0  0  0  0
  -18.9183  -30.1286   23.8878 C   0  0  0  0  0  0  0  0  0  0  0  0
  -17.6396  -30.6493   24.0352 C   0  0  0  0  0  0  0  0  0  0  0  0
  -25.9153  -34.9582   23.4993 C   0  0  0  0  0  0  0  0  0  0  0  0
  -16.5415  -29.9068   23.6254 C   0  0  0  0  0  0  0  0  0  0  0  0
  -16.7331  -28.6521   23.0586 C   0  0  0  0  0  0  0  0  0  0  0  0
  -26.4583  -31.6439   25.0683 C   0  0  0  0  0  0  0  0  0  0  0  0
  -25.3807  -31.3179   26.1374 C   0  0  0  0  0  0  0  0  0  0  0  0
  -27.0530  -30.3024   24.5680 C   0  0  0  0  0  0  0  0  0  0  0  0
  -27.6014  -32.4281   25.7651 C   0  0  0  0  0  0  0  0  0  0  0  0
  -27.5629  -37.2220   24.8621 C   0  0  0  0  0  0  0  0  0  0  0  0
  -21.4133  -29.3375   22.3735 N   0  0  0  0  0  0  0  0  0  0  0  0
  -26.4706  -37.3372   23.9061 N   0  0  0  0  0  0  0  0  0  0  0  0
  -24.6674  -31.0544   22.1178 N   0  0  0  0  0  0  0  0  0  0  0  0
  -23.4259  -28.8150   23.2971 O   0  0  0  0  0  0  0  0  0  0  0  0
  -28.3948  -26.7345   20.0089 O   0  0  0  0  0  0  0  0  0  0  0  0
  -26.5870  -34.9065   22.4671 O   0  0  0  0  0  0  0  0  0  0  0  0
  -23.5365  -32.1254   23.7833 O   0  0  0  0  0  0  0  0  0  0  0  0
  -27.5462  -18.8734   23.6376 C   0  0  0  0  0  0  0  0  0  0  0  0
  -27.2650  -19.8816   24.5370 C   0  0  0  0  0  0  0  0  0  0  0  0
  -28.3621  -19.2257   22.5819 C   0  0  0  0  0  0  0  0  0  0  0  0
  -28.5230  -21.3582   23.3522 C   0  0  0  0  0  0  0  0  0  0  0  0
  -28.5774  -26.1831   26.3925 C   0  0  0  0  0  0  0  0  0  0  0  0
  -26.7735  -26.5804   24.7045 C   0  0  0  0  0  0  0  0  0  0  0  0
  -29.0698  -22.7464   23.1938 C   0  0  0  0  0  0  0  0  0  0  0  0
  -29.0255  -25.6088   23.9876 C   0  0  0  0  0  0  0  0  0  0  0  0
  -29.7115  -25.1642   21.5944 C   0  0  0  0  0  0  0  0  0  0  0  0
  -28.2374  -25.5950   19.5412 C   0  0  0  0  0  0  0  0  0  0  0  0
  -27.9476  -25.6800   25.0897 C   0  0  0  0  0  0  0  0  0  0  0  0
  -28.5560  -25.1191   22.6063 C   0  0  1  0  0  0  0  0  0  0  0  0
  -29.3682  -24.7702   20.1506 C   0  0  1  0  0  0  0  0  0  0  0  0
  -27.7383  -21.1400   24.4245 N   0  0  0  0  0  0  0  0  0  0  0  0
  -28.8700  -20.4634   22.4075 N   0  0  0  0  0  0  0  0  0  0  0  0
  -28.6798  -18.2213   21.6342 N   0  0  0  0  0  0  0  0  0  0  0  0
  -28.0536  -23.7219   22.7203 N   0  3  0  0  0  0  0  0  0  0  0  0
  -30.5437  -24.9574   19.3535 O   0  0  0  0  0  0  0  0  0  0  0  0
  -31.4485  -12.4701   19.0860 H   0  0  0  0  0  0  0  0  0  0  0  0
  -30.3970  -11.2460   19.6950 H   0  0  0  0  0  0  0  0  0  0  0  0
  -29.6870  -11.8204   17.4226 H   0  0  0  0  0  0  0  0  0  0  0  0
  -29.6375  -13.5326   17.8649 H   0  0  0  0  0  0  0  0  0  0  0  0
  -27.7830  -11.3650   18.7904 H   0  0  0  0  0  0  0  0  0  0  0  0
  -27.4028  -12.7801   17.8021 H   0  0  0  0  0  0  0  0  0  0  0  0
  -27.7353  -14.2503   19.6136 H   0  0  0  0  0  0  0  0  0  0  0  0
  -28.5890  -11.9550   21.3832 H   0  0  0  0  0  0  0  0  0  0  0  0
  -28.5005  -13.6134   21.8562 H   0  0  0  0  0  0  0  0  0  0  0  0
  -25.2399   -9.5495   22.4318 H   0  0  0  0  0  0  0  0  0  0  0  0
  -23.9663   -7.5070   22.7297 H   0  0  0  0  0  0  0  0  0  0  0  0
  -21.1515   -8.8641   19.9162 H   0  0  0  0  0  0  0  0  0  0  0  0
  -22.4016  -10.9115   19.6476 H   0  0  0  0  0  0  0  0  0  0  0  0
  -21.2319   -7.5552   23.9750 H   0  0  0  0  0  0  0  0  0  0  0  0
  -21.1589   -6.0228   25.8556 H   0  0  0  0  0  0  0  0  0  0  0  0
  -22.0396   -2.8212   23.2809 H   0  0  0  0  0  0  0  0  0  0  0  0
  -22.4401  -11.9703   22.4008 H   0  0  0  0  0  0  0  0  0  0  0  0
  -21.1493  -13.0679   22.2082 H   0  0  0  0  0  0  0  0  0  0  0  0
  -24.6538  -15.7807   20.5848 H   0  0  0  0  0  0  0  0  0  0  0  0
  -26.2762  -15.5453   20.1156 H   0  0  0  0  0  0  0  0  0  0  0  0
  -26.6778  -32.4663   23.1464 H   0  0  0  0  0  0  0  0  0  0  0  0
  -25.0747  -34.0282   25.0566 H   0  0  0  0  0  0  0  0  0  0  0  0
  -22.7881  -31.3489   21.4131 H   0  0  0  0  0  0  0  0  0  0  0  0
  -23.3854  -35.9823   23.3648 H   0  0  0  0  0  0  0  0  0  0  0  0
  -24.3696  -36.8624   22.2204 H   0  0  0  0  0  0  0  0  0  0  0  0
  -23.7669  -37.6632   23.6516 H   0  0  0  0  0  0  0  0  0  0  0  0
  -25.9445  -31.6237   20.5691 H   0  0  0  0  0  0  0  0  0  0  0  0
  -26.7436  -31.0079   22.0108 H   0  0  0  0  0  0  0  0  0  0  0  0
  -28.0090  -29.1452   21.2057 H   0  0  0  0  0  0  0  0  0  0  0  0
  -26.1369  -26.0560   19.0719 H   0  0  0  0  0  0  0  0  0  0  0  0
  -24.0652  -27.2961   19.0997 H   0  0  0  0  0  0  0  0  0  0  0  0
  -23.6156  -30.5365   19.3930 H   0  0  0  0  0  0  0  0  0  0  0  0
  -22.7355  -29.1425   19.9945 H   0  0  0  0  0  0  0  0  0  0  0  0
  -25.1353  -36.2335   25.0565 H   0  0  0  0  0  0  0  0  0  0  0  0
  -21.0070  -28.3206   24.0793 H   0  0  0  0  0  0  0  0  0  0  0  0
  -20.5555  -26.2518   23.3550 H   0  0  0  0  0  0  0  0  0  0  0  0
  -21.5974  -26.8362   22.0454 H   0  0  0  0  0  0  0  0  0  0  0  0
  -19.6810  -25.6422   21.1488 H   0  0  0  0  0  0  0  0  0  0  0  0
  -19.6406  -27.3343   20.7034 H   0  0  0  0  0  0  0  0  0  0  0  0
  -17.4282  -26.6888   21.4113 H   0  0  0  0  0  0  0  0  0  0  0  0
  -18.0803  -26.0130   22.9049 H   0  0  0  0  0  0  0  0  0  0  0  0
  -19.7265  -30.6774   24.2204 H   0  0  0  0  0  0  0  0  0  0  0  0
  -17.5064  -31.5856   24.4483 H   0  0  0  0  0  0  0  0  0  0  0  0
  -15.5878  -30.2839   23.7407 H   0  0  0  0  0  0  0  0  0  0  0  0
  -15.9120  -28.0941   22.7766 H   0  0  0  0  0  0  0  0  0  0  0  0
  -24.5787  -30.7757   25.6817 H   0  0  0  0  0  0  0  0  0  0  0  0
  -25.0041  -32.2289   26.5536 H   0  0  0  0  0  0  0  0  0  0  0  0
  -25.8166  -30.7245   26.9138 H   0  0  0  0  0  0  0  0  0  0  0  0
  -26.2892  -29.7335   24.0803 H   0  0  0  0  0  0  0  0  0  0  0  0
  -27.4336  -29.7484   25.4006 H   0  0  0  0  0  0  0  0  0  0  0  0
  -27.8466  -30.4994   23.8779 H   0  0  0  0  0  0  0  0  0  0  0  0
  -27.2251  -33.3632   26.1242 H   0  0  0  0  0  0  0  0  0  0  0  0
  -28.3902  -32.6065   25.0645 H   0  0  0  0  0  0  0  0  0  0  0  0
  -27.9772  -31.8555   26.5872 H   0  0  0  0  0  0  0  0  0  0  0  0
  -28.2744  -38.0016   24.6863 H   0  0  0  0  0  0  0  0  0  0  0  0
  -28.0396  -36.2711   24.7461 H   0  0  0  0  0  0  0  0  0  0  0  0
  -27.1773  -37.3087   25.8564 H   0  0  0  0  0  0  0  0  0  0  0  0
  -20.9627  -29.9365   21.7352 H   0  0  0  0  0  0  0  0  0  0  0  0
  -26.0447  -38.2561   24.0273 H   0  0  0  0  0  0  0  0  0  0  0  0
  -27.1708  -17.9184   23.7473 H   0  0  0  0  0  0  0  0  0  0  0  0
  -26.6579  -19.6603   25.3417 H   0  0  0  0  0  0  0  0  0  0  0  0
  -27.8285  -26.2317   27.1552 H   0  0  0  0  0  0  0  0  0  0  0  0
  -28.9907  -27.1575   26.2358 H   0  0  0  0  0  0  0  0  0  0  0  0
  -29.3529  -25.5114   26.6964 H   0  0  0  0  0  0  0  0  0  0  0  0
  -26.0584  -26.5941   25.5003 H   0  0  0  0  0  0  0  0  0  0  0  0
  -26.3113  -26.2033   23.8162 H   0  0  0  0  0  0  0  0  0  0  0  0
  -27.1291  -27.5739   24.5274 H   0  0  0  0  0  0  0  0  0  0  0  0
  -29.8711  -22.7182   22.4852 H   0  0  0  0  0  0  0  0  0  0  0  0
  -29.3997  -23.0717   24.1583 H   0  0  0  0  0  0  0  0  0  0  0  0
  -29.7937  -24.9449   24.3252 H   0  0  0  0  0  0  0  0  0  0  0  0
  -29.3484  -26.6179   23.8383 H   0  0  0  0  0  0  0  0  0  0  0  0
  -30.4744  -24.4989   21.9411 H   0  0  0  0  0  0  0  0  0  0  0  0
  -30.0085  -26.1910   21.5466 H   0  0  0  0  0  0  0  0  0  0  0  0
  -27.2850  -25.1983   19.8249 H   0  0  0  0  0  0  0  0  0  0  0  0
  -28.2606  -25.5882   18.4715 H   0  0  0  0  0  0  0  0  0  0  0  0
  -27.5599  -24.6914   25.2210 H   0  0  0  0  0  0  0  0  0  0  0  0
  -27.7727  -25.7620   22.2628 H   0  0  0  0  0  0  0  0  0  0  0  0
  -29.0356  -23.7533   20.1674 H   0  0  0  0  0  0  0  0  0  0  0  0
  -28.2376  -18.4983   20.7994 H   0  0  0  0  0  0  0  0  0  0  0  0
  -27.2732  -23.7151   23.3770 H   0  0  0  0  0  0  0  0  0  0  0  0
  -27.7822  -23.4303   21.7813 H   0  0  0  0  0  0  0  0  0  0  0  0
  -30.8015  -25.8923   19.3722 H   0  0  0  0  0  0  0  0  0  0  0  0
  1 25  1  0  0  0  0
  1 30  2  0  0  0  0
  1 86  1  0  0  0  0
  2  3  1  0  0  0  0
  2 25  1  0  0  0  0
  2 89  1  0  0  0  0
  2 90  1  0  0  0  0
  3  4  1  0  0  0  0
  3 91  1  0  0  0  0
  3 92  1  0  0  0  0
  4  5  1  0  0  0  0
  4 93  1  0  0  0  0
  4 94  1  0  0  0  0
  5  6  1  0  0  0  0
  5 26  1  0  0  0  0
  5 95  1  6  0  0  0
  6 25  1  0  0  0  0
  6 96  1  0  0  0  0
  6 97  1  0  0  0  0
  7  8  2  0  0  0  0
  7 26  1  0  0  0  0
  7 29  1  0  0  0  0
  8  9  1  0  0  0  0
  8 22  1  0  0  0  0
  9 10  1  0  0  0  0
  9 27  2  0  0  0  0
 10 11  2  0  0  0  0
 10 15  1  0  0  0  0
 11 12  1  0  0  0  0
 11 98  1  0  0  0  0
 12 13  2  0  0  0  0
 12 99  1  0  0  0  0
 13 14  1  0  0  0  0
 13 31  1  0  0  0  0
 14 15  2  0  0  0  0
 14100  1  0  0  0  0
 15101  1  0  0  0  0
 16 17  2  0  0  0  0
 16 21  1  0  0  0  0
 16 31  1  0  0  0  0
 17 18  1  0  0  0  0
 17102  1  0  0  0  0
 18 19  2  0  0  0  0
 18103  1  0  0  0  0
 19 20  1  0  0  0  0
 19 24  1  0  0  0  0
 20 21  2  0  0  0  0
 20104  1  0  0  0  0
 21 23  1  0  0  0  0
 22 28  1  0  0  0  0
 22 32  2  0  0  0  0
 26 27  1  0  0  0  0
 28105  1  0  0  0  0
 28106  1  0  0  0  0
 29107  1  0  0  0  0
 29108  1  0  0  0  0
 33 34  1  0  0  0  0
 33 66  1  0  0  0  0
 33 70  2  0  0  0  0
 34 36  1  0  0  0  0
 34 59  1  0  0  0  0
 34109  1  6  0  0  0
 35 44  2  0  0  0  0
 35 45  1  0  0  0  0
 35 68  1  0  0  0  0
 36 56  1  0  0  0  0
 36110  1  0  0  0  0
 37 39  1  0  0  0  0
 37 47  1  0  0  0  0
 37 66  1  0  0  0  0
 37111  1  6  0  0  0
 38 43  2  0  0  0  0
 38 46  1  0  0  0  0
 38 47  1  0  0  0  0
 39 64  1  0  0  0  0
 39 67  2  0  0  0  0
 40 52  1  0  0  0  0
 40 53  2  0  0  0  0
 40 58  1  0  0  0  0
 41112  1  0  0  0  0
 41113  1  0  0  0  0
 41114  1  0  0  0  0
 42 43  1  0  0  0  0
 42 66  1  0  0  0  0
 42115  1  0  0  0  0
 42116  1  0  0  0  0
 43 44  1  0  0  0  0
 44117  1  0  0  0  0
 45 46  2  0  0  0  0
 45118  1  0  0  0  0
 46119  1  0  0  0  0
 47120  1  0  0  0  0
 47121  1  0  0  0  0
 48 41  1  0  0  0  0
 48 56  1  0  0  0  0
 48 65  1  0  0  0  0
 48122  1  1  0  0  0
 49 50  1  0  0  0  0
 49 53  1  0  0  0  0
 49 64  1  0  0  0  0
 49123  1  1  0  0  0
 50 51  1  0  0  0  0
 50124  1  0  0  0  0
 50125  1  0  0  0  0
 51 52  1  0  0  0  0
 51126  1  0  0  0  0
 51127  1  0  0  0  0
 52128  1  0  0  0  0
 52129  1  0  0  0  0
 53 54  1  0  0  0  0
 54 55  2  0  0  0  0
 54130  1  0  0  0  0
 55 57  1  0  0  0  0
 55131  1  0  0  0  0
 56 69  2  0  0  0  0
 57 58  2  0  0  0  0
 57132  1  0  0  0  0
 58133  1  0  0  0  0
 59 60  1  0  0  0  0
 59 61  1  0  0  0  0
 59 62  1  0  0  0  0
 60134  1  0  0  0  0
 60135  1  0  0  0  0
 60136  1  0  0  0  0
 61137  1  0  0  0  0
 61138  1  0  0  0  0
 61139  1  0  0  0  0
 62140  1  0  0  0  0
 62141  1  0  0  0  0
 62142  1  0  0  0  0
 63 65  1  0  0  0  0
 63143  1  0  0  0  0
 63144  1  0  0  0  0
 63145  1  0  0  0  0
 64146  1  0  0  0  0
 65147  1  0  0  0  0
 68 80  1  0  0  0  0
 71 72  2  0  0  0  0
 71 73  1  0  0  0  0
 71148  1  0  0  0  0
 72 84  1  0  0  0  0
 72149  1  0  0  0  0
 73 85  2  0  0  0  0
 73 86  1  0  0  0  0
 74 77  1  0  0  0  0
 74 84  2  0  0  0  0
 74 85  1  0  0  0  0
 75150  1  0  0  0  0
 75151  1  0  0  0  0
 75152  1  0  0  0  0
 76 81  1  0  0  0  0
 76153  1  0  0  0  0
 76154  1  0  0  0  0
 76155  1  0  0  0  0
 77 87  1  0  0  0  0
 77156  1  0  0  0  0
 77157  1  0  0  0  0
 78 81  1  0  0  0  0
 78158  1  0  0  0  0
 78159  1  0  0  0  0
 79 82  1  0  0  0  0
 79 83  1  0  0  0  0
 79160  1  0  0  0  0
 79161  1  0  0  0  0
 80 83  1  0  0  0  0
 80162  1  0  0  0  0
 80163  1  0  0  0  0
 81 75  1  0  0  0  0
 81164  1  0  0  0  0
 82 78  1  0  0  0  0
 82 87  1  0  0  0  0
 82165  1  6  0  0  0
 83 88  1  0  0  0  0
 83166  1  6  0  0  0
 86167  1  0  0  0  0
 87168  1  0  0  0  0
 87169  1  0  0  0  0
 88170  1  0  0  0  0
M  ISO  4   1 100  68 101  80 101  86 100
M  CHG  1  87   1
M  END
$$$$
94
 OpenBabel04052305473D

152160  0  0  0  0  0  0  0  0999 V2000
  -30.7652  -14.3608   20.6636 C   0  0  0  0  0  0  0  0  0  0  0  0
  -30.4392  -12.2669   19.3775 C   0  0  0  0  0  0  0  0  0  0  0  0
  -29.4791  -12.5281   18.1977 C   0  0  0  0  0  0  0  0  0  0  0  0
  -27.9985  -12.3963   18.6038 C   0  0  0  0  0  0  0  0  0  0  0  0
  -27.6639  -13.2170   19.8820 C   0  0  2  0  0  0  0  0  0  0  0  0
  -28.6795  -12.9602   21.0279 C   0  0  0  0  0  0  0  0  0  0  0  0
  -25.2633  -13.8245   20.5754 C   0  0  0  0  0  0  0  0  0  0  0  0
  -24.1645  -13.0409   20.9408 C   0  0  0  0  0  0  0  0  0  0  0  0
  -24.6400  -11.7009   20.8697 C   0  0  0  0  0  0  0  0  0  0  0  0
  -23.9005  -10.4085   21.0420 C   0  0  0  0  0  0  0  0  0  0  0  0
  -24.3588   -9.4123   21.9123 C   0  0  0  0  0  0  0  0  0  0  0  0
  -23.6296   -8.2350   22.0803 C   0  0  0  0  0  0  0  0  0  0  0  0
  -22.4385   -8.0419   21.3657 C   0  0  0  0  0  0  0  0  0  0  0  0
  -22.0103   -9.0167   20.4678 C   0  0  0  0  0  0  0  0  0  0  0  0
  -22.7317  -10.1925   20.3102 C   0  0  0  0  0  0  0  0  0  0  0  0
  -21.6857   -6.0709   22.5391 C   0  0  0  0  0  0  0  0  0  0  0  0
  -21.4064   -6.5490   23.8264 C   0  0  0  0  0  0  0  0  0  0  0  0
  -21.3635   -5.6677   24.9085 C   0  0  0  0  0  0  0  0  0  0  0  0
  -21.5973   -4.3067   24.7088 C   0  0  0  0  0  0  0  0  0  0  0  0
  -21.8700   -3.8284   23.4282 C   0  0  0  0  0  0  0  0  0  0  0  0
  -21.9144   -4.7056   22.3460 C   0  0  0  0  0  0  0  0  0  0  0  0
  -22.8194  -13.5263   21.1763 C   0  0  0  0  0  0  0  0  0  0  0  0
  -22.1559   -4.2206   21.1063 F   0  0  0  0  0  0  0  0  0  0  0  0
  -21.5628   -3.4510   25.7555 F   0  0  0  0  0  0  0  0  0  0  0  0
  -30.0261  -13.1803   20.4553 N   0  0  0  0  0  0  0  0  0  0  0  0
  -26.2911  -12.9356   20.3443 N   0  0  0  0  0  0  0  0  0  0  0  0
  -25.9236  -11.6675   20.5847 N   0  0  0  0  0  0  0  0  0  0  0  0
  -22.0708  -12.7905   22.0005 N   0  0  0  0  0  0  0  0  0  0  0  0
  -25.4117  -15.1773   20.4097 N   0  0  0  0  0  0  0  0  0  0  0  0
  -31.7916  -14.6724   20.0536 O   0  0  0  0  0  0  0  0  0  0  0  0
  -21.6670   -6.9022   21.4423 O   0  0  0  0  0  0  0  0  0  0  0  0
  -22.3946  -14.5564   20.6568 O   0  0  0  0  0  0  0  0  0  0  0  0
  -24.6048  -31.8614   23.2223 C   0  0  0  0  0  0  0  0  0  0  0  0
  -25.8822  -32.4841   23.8616 C   0  0  1  0  0  0  0  0  0  0  0  0
  -27.2536  -27.5042   20.1156 C   0  0  0  0  0  0  0  0  0  0  0  0
  -25.5726  -33.8762   24.2210 N   0  0  0  0  0  0  0  0  0  0  0  0
  -23.4066  -30.4859   21.5461 C   0  0  2  0  0  0  0  0  0  0  0  0
  -24.8467  -28.9636   20.1247 C   0  0  0  0  0  0  0  0  0  0  0  0
  -22.7412  -29.4652   22.5052 C   0  0  0  0  0  0  0  0  0  0  0  0
  -18.0167  -28.1302   22.8626 C   0  0  0  0  0  0  0  0  0  0  0  0
  -24.1342  -36.7390   23.2568 C   0  0  0  0  0  0  0  0  0  0  0  0
  -25.9141  -30.8882   21.3456 C   0  0  0  0  0  0  0  0  0  0  0  0
  -25.9930  -29.5029   20.7208 C   0  0  0  0  0  0  0  0  0  0  0  0
  -27.1758  -28.7612   20.7331 C   0  0  0  0  0  0  0  0  0  0  0  0
  -26.1032  -26.9836   19.5230 C   0  0  0  0  0  0  0  0  0  0  0  0
  -24.9097  -27.7011   19.5331 C   0  0  0  0  0  0  0  0  0  0  0  0
  -23.5715  -29.7899   20.1582 C   0  0  0  0  0  0  0  0  0  0  0  0
  -25.3990  -36.3212   24.0232 C   0  0  1  0  0  0  0  0  0  0  0  0
  -20.5793  -28.3813   23.1004 C   0  0  2  0  0  0  0  0  0  0  0  0
  -20.6548  -26.9392   22.5411 C   0  0  0  0  0  0  0  0  0  0  0  0
  -19.5615  -26.6407   21.5143 C   0  0  0  0  0  0  0  0  0  0  0  0
  -18.1797  -26.7818   22.1673 C   0  0  0  0  0  0  0  0  0  0  0  0
  -19.1385  -28.8769   23.2988 C   0  0  0  0  0  0  0  0  0  0  0  0
  -18.9183  -30.1286   23.8878 C   0  0  0  0  0  0  0  0  0  0  0  0
  -17.6396  -30.6493   24.0352 C   0  0  0  0  0  0  0  0  0  0  0  0
  -25.9153  -34.9582   23.4993 C   0  0  0  0  0  0  0  0  0  0  0  0
  -16.5415  -29.9068   23.6254 C   0  0  0  0  0  0  0  0  0  0  0  0
  -16.7331  -28.6521   23.0586 C   0  0  0  0  0  0  0  0  0  0  0  0
  -26.4583  -31.6439   25.0683 C   0  0  0  0  0  0  0  0  0  0  0  0
  -25.3807  -31.3179   26.1374 C   0  0  0  0  0  0  0  0  0  0  0  0
  -27.0530  -30.3024   24.5680 C   0  0  0  0  0  0  0  0  0  0  0  0
  -27.6014  -32.4281   25.7651 C   0  0  0  0  0  0  0  0  0  0  0  0
  -27.5629  -37.2220   24.8621 C   0  0  0  0  0  0  0  0  0  0  0  0
  -21.4133  -29.3375   22.3735 N   0  0  0  0  0  0  0  0  0  0  0  0
  -26.4706  -37.3372   23.9061 N   0  0  0  0  0  0  0  0  0  0  0  0
  -24.6674  -31.0544   22.1178 N   0  0  0  0  0  0  0  0  0  0  0  0
  -23.4259  -28.8150   23.2971 O   0  0  0  0  0  0  0  0  0  0  0  0
  -28.3948  -26.7345   20.0089 O   0  0  0  0  0  0  0  0  0  0  0  0
  -26.5870  -34.9065   22.4671 O   0  0  0  0  0  0  0  0  0  0  0  0
  -23.5365  -32.1254   23.7833 O   0  0  0  0  0  0  0  0  0  0  0  0
  -21.2348  -21.1137   27.5226 C   0  0  0  0  0  0  0  0  0  0  0  0
  -20.3695  -22.1875   27.5733 C   0  0  0  0  0  0  0  0  0  0  0  0
  -20.3419  -22.9856   26.4479 C   0  0  0  0  0  0  0  0  0  0  0  0
  -21.8993  -21.6837   25.4249 C   0  0  0  0  0  0  0  0  0  0  0  0
  -19.4441  -24.1778   26.3857 C   0  0  0  0  0  0  0  0  0  0  0  0
  -22.6848  -22.2372   23.1222 C   0  0  0  0  0  0  0  0  0  0  0  0
  -23.6742  -21.6890   22.1076 C   0  0  0  0  0  0  0  0  0  0  0  0
  -22.0173  -20.8310   26.4605 N   0  0  0  0  0  0  0  0  0  0  0  0
  -21.0963  -22.7623   25.3518 N   0  0  0  0  0  0  0  0  0  0  0  0
  -19.5791  -22.4336   28.7022 N   0  0  0  0  0  0  0  0  0  0  0  0
  -22.6882  -21.4238   24.3165 N   0  0  0  0  0  0  0  0  0  0  0  0
  -19.7867  -25.0653   25.2968 N   0  0  0  0  0  0  0  0  0  0  0  0
  -31.4485  -12.4701   19.0860 H   0  0  0  0  0  0  0  0  0  0  0  0
  -30.3970  -11.2460   19.6950 H   0  0  0  0  0  0  0  0  0  0  0  0
  -29.6870  -11.8204   17.4226 H   0  0  0  0  0  0  0  0  0  0  0  0
  -29.6375  -13.5326   17.8649 H   0  0  0  0  0  0  0  0  0  0  0  0
  -27.7830  -11.3650   18.7904 H   0  0  0  0  0  0  0  0  0  0  0  0
  -27.4028  -12.7801   17.8021 H   0  0  0  0  0  0  0  0  0  0  0  0
  -27.7353  -14.2503   19.6136 H   0  0  0  0  0  0  0  0  0  0  0  0
  -28.5890  -11.9550   21.3832 H   0  0  0  0  0  0  0  0  0  0  0  0
  -28.5005  -13.6134   21.8562 H   0  0  0  0  0  0  0  0  0  0  0  0
  -25.2399   -9.5495   22.4318 H   0  0  0  0  0  0  0  0  0  0  0  0
  -23.9663   -7.5070   22.7297 H   0  0  0  0  0  0  0  0  0  0  0  0
  -21.1515   -8.8641   19.9162 H   0  0  0  0  0  0  0  0  0  0  0  0
  -22.4016  -10.9115   19.6476 H   0  0  0  0  0  0  0  0  0  0  0  0
  -21.2319   -7.5552   23.9750 H   0  0  0  0  0  0  0  0  0  0  0  0
  -21.1589   -6.0228   25.8556 H   0  0  0  0  0  0  0  0  0  0  0  0
  -22.0396   -2.8212   23.2809 H   0  0  0  0  0  0  0  0  0  0  0  0
  -22.4401  -11.9703   22.4008 H   0  0  0  0  0  0  0  0  0  0  0  0
  -21.1493  -13.0679   22.2082 H   0  0  0  0  0  0  0  0  0  0  0  0
  -24.6538  -15.7807   20.5848 H   0  0  0  0  0  0  0  0  0  0  0  0
  -26.2762  -15.5453   20.1156 H   0  0  0  0  0  0  0  0  0  0  0  0
  -26.6778  -32.4663   23.1464 H   0  0  0  0  0  0  0  0  0  0  0  0
  -25.0747  -34.0282   25.0566 H   0  0  0  0  0  0  0  0  0  0  0  0
  -22.7881  -31.3489   21.4131 H   0  0  0  0  0  0  0  0  0  0  0  0
  -23.3854  -35.9823   23.3648 H   0  0  0  0  0  0  0  0  0  0  0  0
  -24.3696  -36.8624   22.2204 H   0  0  0  0  0  0  0  0  0  0  0  0
  -23.7669  -37.6632   23.6516 H   0  0  0  0  0  0  0  0  0  0  0  0
  -25.9445  -31.6237   20.5691 H   0  0  0  0  0  0  0  0  0  0  0  0
  -26.7436  -31.0079   22.0108 H   0  0  0  0  0  0  0  0  0  0  0  0
  -28.0090  -29.1452   21.2057 H   0  0  0  0  0  0  0  0  0  0  0  0
  -26.1369  -26.0560   19.0719 H   0  0  0  0  0  0  0  0  0  0  0  0
  -24.0652  -27.2961   19.0997 H   0  0  0  0  0  0  0  0  0  0  0  0
  -23.6156  -30.5365   19.3930 H   0  0  0  0  0  0  0  0  0  0  0  0
  -22.7355  -29.1425   19.9945 H   0  0  0  0  0  0  0  0  0  0  0  0
  -25.1353  -36.2335   25.0565 H   0  0  0  0  0  0  0  0  0  0  0  0
  -21.0070  -28.3206   24.0793 H   0  0  0  0  0  0  0  0  0  0  0  0
  -20.5555  -26.2518   23.3550 H   0  0  0  0  0  0  0  0  0  0  0  0
  -21.5974  -26.8362   22.0454 H   0  0  0  0  0  0  0  0  0  0  0  0
  -19.6810  -25.6422   21.1488 H   0  0  0  0  0  0  0  0  0  0  0  0
  -19.6406  -27.3343   20.7034 H   0  0  0  0  0  0  0  0  0  0  0  0
  -17.4282  -26.6888   21.4113 H   0  0  0  0  0  0  0  0  0  0  0  0
  -18.0803  -26.0130   22.9049 H   0  0  0  0  0  0  0  0  0  0  0  0
  -19.7265  -30.6774   24.2204 H   0  0  0  0  0  0  0  0  0  0  0  0
  -17.5064  -31.5856   24.4483 H   0  0  0  0  0  0  0  0  0  0  0  0
  -15.5878  -30.2839   23.7407 H   0  0  0  0  0  0  0  0  0  0  0  0
  -15.9120  -28.0941   22.7766 H   0  0  0  0  0  0  0  0  0  0  0  0
  -24.5787  -30.7757   25.6817 H   0  0  0  0  0  0  0  0  0  0  0  0
  -25.0041  -32.2289   26.5536 H   0  0  0  0  0  0  0  0  0  0  0  0
  -25.8166  -30.7245   26.9138 H   0  0  0  0  0  0  0  0  0  0  0  0
  -26.2892  -29.7335   24.0803 H   0  0  0  0  0  0  0  0  0  0  0  0
  -27.4336  -29.7484   25.4006 H   0  0  0  0  0  0  0  0  0  0  0  0
  -27.8466  -30.4994   23.8779 H   0  0  0  0  0  0  0  0  0  0  0  0
  -27.2251  -33.3632   26.1242 H   0  0  0  0  0  0  0  0  0  0  0  0
  -28.3902  -32.6065   25.0645 H   0  0  0  0  0  0  0  0  0  0  0  0
  -27.9772  -31.8555   26.5872 H   0  0  0  0  0  0  0  0  0  0  0  0
  -28.2744  -38.0016   24.6863 H   0  0  0  0  0  0  0  0  0  0  0  0
  -28.0396  -36.2711   24.7461 H   0  0  0  0  0  0  0  0  0  0  0  0
  -27.1773  -37.3087   25.8564 H   0  0  0  0  0  0  0  0  0  0  0  0
  -20.9627  -29.9365   21.7352 H   0  0  0  0  0  0  0  0  0  0  0  0
  -26.0447  -38.2561   24.0273 H   0  0  0  0  0  0  0  0  0  0  0  0
  -21.2863  -20.4913   28.3442 H   0  0  0  0  0  0  0  0  0  0  0  0
  -19.5229  -24.7166   27.3068 H   0  0  0  0  0  0  0  0  0  0  0  0
  -18.4461  -23.8284   26.2221 H   0  0  0  0  0  0  0  0  0  0  0  0
  -21.7035  -22.2338   22.6957 H   0  0  0  0  0  0  0  0  0  0  0  0
  -22.9688  -23.2359   23.3806 H   0  0  0  0  0  0  0  0  0  0  0  0
  -23.1360  -21.3393   21.2515 H   0  0  0  0  0  0  0  0  0  0  0  0
  -24.2190  -20.8914   22.5681 H   0  0  0  0  0  0  0  0  0  0  0  0
  -19.6342  -21.8348   29.4817 H   0  0  0  0  0  0  0  0  0  0  0  0
  -18.9682  -23.2055   28.7166 H   0  0  0  0  0  0  0  0  0  0  0  0
  -23.2847  -20.6410   24.3439 H   0  0  0  0  0  0  0  0  0  0  0  0
  -19.4791  -25.9447   24.9786 H   0  0  0  0  0  0  0  0  0  0  0  0
  1 25  1  0  0  0  0
  1 30  2  0  0  0  0
  1 82  1  0  0  0  0
  2  3  1  0  0  0  0
  2 25  1  0  0  0  0
  2 83  1  0  0  0  0
  2 84  1  0  0  0  0
  3  4  1  0  0  0  0
  3 85  1  0  0  0  0
  3 86  1  0  0  0  0
  4  5  1  0  0  0  0
  4 87  1  0  0  0  0
  4 88  1  0  0  0  0
  5  6  1  0  0  0  0
  5 26  1  0  0  0  0
  5 89  1  6  0  0  0
  6 25  1  0  0  0  0
  6 90  1  0  0  0  0
  6 91  1  0  0  0  0
  7  8  2  0  0  0  0
  7 26  1  0  0  0  0
  7 29  1  0  0  0  0
  8  9  1  0  0  0  0
  8 22  1  0  0  0  0
  9 10  1  0  0  0  0
  9 27  2  0  0  0  0
 10 11  2  0  0  0  0
 10 15  1  0  0  0  0
 11 12  1  0  0  0  0
 11 92  1  0  0  0  0
 12 13  2  0  0  0  0
 12 93  1  0  0  0  0
 13 14  1  0  0  0  0
 13 31  1  0  0  0  0
 14 15  2  0  0  0  0
 14 94  1  0  0  0  0
 15 95  1  0  0  0  0
 16 17  2  0  0  0  0
 16 21  1  0  0  0  0
 16 31  1  0  0  0  0
 17 18  1  0  0  0  0
 17 96  1  0  0  0  0
 18 19  2  0  0  0  0
 18 97  1  0  0  0  0
 19 20  1  0  0  0  0
 19 24  1  0  0  0  0
 20 21  2  0  0  0  0
 20 98  1  0  0  0  0
 21 23  1  0  0  0  0
 22 28  1  0  0  0  0
 22 32  2  0  0  0  0
 26 27  1  0  0  0  0
 28 99  1  0  0  0  0
 28100  1  0  0  0  0
 29101  1  0  0  0  0
 29102  1  0  0  0  0
 33 34  1  0  0  0  0
 33 66  1  0  0  0  0
 33 70  2  0  0  0  0
 34 36  1  0  0  0  0
 34 59  1  0  0  0  0
 34103  1  6  0  0  0
 35 44  2  0  0  0  0
 35 45  1  0  0  0  0
 35 68  1  0  0  0  0
 36 56  1  0  0  0  0
 36104  1  0  0  0  0
 37 39  1  0  0  0  0
 37 47  1  0  0  0  0
 37 66  1  0  0  0  0
 37105  1  6  0  0  0
 38 43  2  0  0  0  0
 38 46  1  0  0  0  0
 38 47  1  0  0  0  0
 39 64  1  0  0  0  0
 39 67  2  0  0  0  0
 40 52  1  0  0  0  0
 40 53  2  0  0  0  0
 40 58  1  0  0  0  0
 41106  1  0  0  0  0
 41107  1  0  0  0  0
 41108  1  0  0  0  0
 42 43  1  0  0  0  0
 42 66  1  0  0  0  0
 42109  1  0  0  0  0
 42110  1  0  0  0  0
 43 44  1  0  0  0  0
 44111  1  0  0  0  0
 45 46  2  0  0  0  0
 45112  1  0  0  0  0
 46113  1  0  0  0  0
 47114  1  0  0  0  0
 47115  1  0  0  0  0
 48 41  1  0  0  0  0
 48 56  1  0  0  0  0
 48 65  1  0  0  0  0
 48116  1  1  0  0  0
 49 50  1  0  0  0  0
 49 53  1  0  0  0  0
 49 64  1  0  0  0  0
 49117  1  1  0  0  0
 50 51  1  0  0  0  0
 50118  1  0  0  0  0
 50119  1  0  0  0  0
 51 52  1  0  0  0  0
 51120  1  0  0  0  0
 51121  1  0  0  0  0
 52122  1  0  0  0  0
 52123  1  0  0  0  0
 53 54  1  0  0  0  0
 54 55  2  0  0  0  0
 54124  1  0  0  0  0
 55 57  1  0  0  0  0
 55125  1  0  0  0  0
 56 69  2  0  0  0  0
 57 58  2  0  0  0  0
 57126  1  0  0  0  0
 58127  1  0  0  0  0
 59 60  1  0  0  0  0
 59 61  1  0  0  0  0
 59 62  1  0  0  0  0
 60128  1  0  0  0  0
 60129  1  0  0  0  0
 60130  1  0  0  0  0
 61131  1  0  0  0  0
 61132  1  0  0  0  0
 61133  1  0  0  0  0
 62134  1  0  0  0  0
 62135  1  0  0  0  0
 62136  1  0  0  0  0
 63 65  1  0  0  0  0
 63137  1  0  0  0  0
 63138  1  0  0  0  0
 63139  1  0  0  0  0
 64140  1  0  0  0  0
 65141  1  0  0  0  0
 68 77  1  0  0  0  0
 71 72  2  0  0  0  0
 71 78  1  0  0  0  0
 71142  1  0  0  0  0
 72 73  1  0  0  0  0
 72 80  1  0  0  0  0
 73 75  1  0  0  0  0
 73 79  2  0  0  0  0
 74 78  2  0  0  0  0
 74 79  1  0  0  0  0
 74 81  1  0  0  0  0
 75 82  1  0  0  0  0
 75143  1  0  0  0  0
 75144  1  0  0  0  0
 76 77  1  0  0  0  0
 76 81  1  0  0  0  0
 76145  1  0  0  0  0
 76146  1  0  0  0  0
 77147  1  0  0  0  0
 77148  1  0  0  0  0
 80149  1  0  0  0  0
 80150  1  0  0  0  0
 81151  1  0  0  0  0
 82152  1  0  0  0  0
M  ISO  4   1 100  68 101  77 101  82 100
M  END
$$$$
