0
                    3D
 Structure written by MMmdl.
148155  0  0  1  0            999 V2000
  -30.4014  -15.3777   20.3652 C   0  0  0  0  0  0
  -30.4362  -12.8974   19.5070 C   0  0  0  0  0  0
  -29.5328  -12.5860   18.2862 C   0  0  0  0  0  0
  -28.0937  -12.2817   18.7349 C   0  0  0  0  0  0
  -27.6038  -13.2792   19.8116 C   0  0  2  0  0  0
  -28.6389  -13.5152   20.9309 C   0  0  0  0  0  0
  -25.2380  -13.8243   20.5775 C   0  0  0  0  0  0
  -24.1740  -13.0426   20.9282 C   0  0  0  0  0  0
  -24.6403  -11.6929   20.8784 C   0  0  0  0  0  0
  -23.9102  -10.4287   21.0419 C   0  0  0  0  0  0
  -24.3641   -9.4196   21.9198 C   0  0  0  0  0  0
  -23.6304   -8.2235   22.0761 C   0  0  0  0  0  0
  -22.4286   -8.0282   21.3545 C   0  0  0  0  0  0
  -21.9930   -9.0264   20.4650 C   0  0  0  0  0  0
  -22.7271  -10.2137   20.3066 C   0  0  0  0  0  0
  -21.6854   -6.0745   22.5283 C   0  0  0  0  0  0
  -21.4010   -6.5648   23.8216 C   0  0  0  0  0  0
  -21.3659   -5.6800   24.9178 C   0  0  0  0  0  0
  -21.6043   -4.3063   24.7227 C   0  0  0  0  0  0
  -21.8818   -3.8155   23.4348 C   0  0  0  0  0  0
  -21.9188   -4.6972   22.3404 C   0  0  0  0  0  0
  -22.7758  -13.5177   21.1920 C   0  0  0  0  0  0
  -22.1661   -4.2156   21.0983 F   0  0  0  0  0  0
  -21.5627   -3.4544   25.7739 F   0  0  0  0  0  0
  -29.8414  -14.0593   20.2735 N   0  0  0  0  0  0
  -26.2802  -12.9523   20.3225 N   0  0  0  0  0  0
  -25.9337  -11.6627   20.5726 N   0  0  0  0  0  0
  -22.0411  -12.8157   22.0466 N   0  0  0  0  0  0
  -25.4000  -15.1981   20.4211 N   0  0  0  0  0  0
  -31.6385  -15.3341   20.2741 O   0  0  0  0  0  0
  -21.6641   -6.8886   21.4242 O   0  0  0  0  0  0
  -22.3444  -14.5482   20.6759 O   0  0  0  0  0  0
  -24.6693  -31.8166   23.1642 C   0  0  0  0  0  0
  -25.9340  -32.4553   23.8138 C   0  0  1  0  0  0
  -27.2203  -26.8566   20.2074 C   0  0  0  0  0  0
  -25.5979  -33.8369   24.2040 N   0  0  0  0  0  0
  -23.4880  -30.4244   21.5155 C   0  0  2  0  0  0
  -24.9413  -28.7908   20.1245 C   0  0  0  0  0  0
  -22.7700  -29.4404   22.4767 C   0  0  0  0  0  0
  -18.0329  -28.1412   22.8463 C   0  0  0  0  0  0
  -24.1495  -36.7195   23.2652 C   0  0  0  0  0  0
  -26.0608  -30.6012   21.4036 C   0  0  0  0  0  0
  -26.1290  -29.1802   20.7568 C   0  0  0  0  0  0
  -27.2649  -28.2391   20.7629 C   0  0  0  0  0  0
  -25.9989  -26.6320   19.5327 C   0  0  0  0  0  0
  -24.9048  -27.5380   19.4911 C   0  0  0  0  0  0
  -23.7333  -29.7307   20.1471 C   0  0  0  0  0  0
  -25.4139  -36.2949   24.0294 C   0  0  1  0  0  0
  -20.5959  -28.3764   23.1170 C   0  0  2  0  0  0
  -20.6801  -26.9440   22.5395 C   0  0  0  0  0  0
  -19.5774  -26.6377   21.5209 C   0  0  0  0  0  0
  -18.1959  -26.7942   22.1623 C   0  0  0  0  0  0
  -19.1593  -28.8910   23.2801 C   0  0  0  0  0  0
  -18.9500  -30.1497   23.8843 C   0  0  0  0  0  0
  -17.6491  -30.6601   24.0553 C   0  0  0  0  0  0
  -25.9102  -34.9331   23.4995 C   0  0  0  0  0  0
  -16.5381  -29.9085   23.6343 C   0  0  0  0  0  0
  -16.7309  -28.6504   23.0361 C   0  0  0  0  0  0
  -26.4573  -31.6517   25.0687 C   0  0  0  0  0  0
  -25.3682  -31.3780   26.1333 C   0  0  0  0  0  0
  -27.0481  -30.2877   24.6455 C   0  0  0  0  0  0
  -27.6054  -32.4341   25.7495 C   0  0  0  0  0  0
  -27.5562  -37.1765   24.8477 C   0  0  0  0  0  0
  -21.4364  -29.3039   22.3512 N   0  0  0  0  0  0
  -26.4288  -37.3682   23.9393 N   0  0  0  0  0  0
  -24.7614  -30.9766   22.0812 N   0  0  0  0  0  0
  -23.4214  -28.7984   23.3045 O   0  0  0  0  0  0
  -28.2300  -25.7350   20.1828 O   0  0  0  0  0  0
  -26.5723  -34.8877   22.4598 O   0  0  0  0  0  0
  -23.5744  -32.1165   23.6687 O   0  0  0  0  0  0
  -28.5447  -22.4948   19.9806 C   0  0  0  0  0  0
  -29.8821  -18.1504   20.4735 C   0  0  0  0  0  0
  -28.2984  -22.6104   18.4929 C   0  0  0  0  0  0
  -29.4463  -19.6755   18.3938 C   0  0  0  0  0  0
  -28.0926  -24.1291   20.6673 C   0  0  0  0  0  0
  -29.0112  -19.5954   19.8695 C   0  0  2  0  0  0
  -28.9385  -21.2006   20.4951 N   0  0  0  0  0  0
  -29.6337  -16.6746   20.3009 N   0  0  0  0  0  0
  -30.9025  -18.4498   21.0977 O   0  0  0  0  0  0
  -31.4424  -13.1307   19.1556 H   0  0  0  0  0  0
  -30.5444  -12.0184   20.1449 H   0  0  0  0  0  0
  -29.9347  -11.7469   17.7174 H   0  0  0  0  0  0
  -29.5280  -13.4431   17.6113 H   0  0  0  0  0  0
  -28.0863  -11.2731   19.1505 H   0  0  0  0  0  0
  -27.4159  -12.2663   17.8810 H   0  0  0  0  0  0
  -27.4964  -14.2252   19.2798 H   0  0  0  0  0  0
  -28.8452  -12.6024   21.4912 H   0  0  0  0  0  0
  -28.2593  -14.2433   21.6496 H   0  0  0  0  0  0
  -25.2778   -9.5670   22.4788 H   0  0  0  0  0  0
  -24.0002   -7.4626   22.7489 H   0  0  0  0  0  0
  -21.0858   -8.8800   19.8958 H   0  0  0  0  0  0
  -22.3733  -10.9691   19.6186 H   0  0  0  0  0  0
  -21.2001   -7.6157   23.9720 H   0  0  0  0  0  0
  -21.1485   -6.0533   25.9082 H   0  0  0  0  0  0
  -22.0593   -2.7616   23.2850 H   0  0  0  0  0  0
  -22.4037  -11.9817   22.4846 H   0  0  0  0  0  0
  -21.1029  -13.1185   22.2680 H   0  0  0  0  0  0
  -24.6288  -15.8459   20.5409 H   0  0  0  0  0  0
  -26.2419  -15.6437   20.0832 H   0  0  0  0  0  0
  -26.7412  -32.5080   23.0853 H   0  0  0  0  0  0
  -25.0067  -33.9436   25.0151 H   0  0  0  0  0  0
  -22.8050  -31.2574   21.3363 H   0  0  0  0  0  0
  -23.3755  -35.9532   23.3314 H   0  0  0  0  0  0
  -24.3555  -36.8842   22.2066 H   0  0  0  0  0  0
  -23.7267  -37.6388   23.6709 H   0  0  0  0  0  0
  -26.2439  -31.3331   20.6158 H   0  0  0  0  0  0
  -26.9203  -30.6674   22.0590 H   0  0  0  0  0  0
  -28.1722  -28.5446   21.2639 H   0  0  0  0  0  0
  -25.8677  -25.6785   19.0403 H   0  0  0  0  0  0
  -24.0050  -27.2333   18.9743 H   0  0  0  0  0  0
  -23.8998  -30.4939   19.3859 H   0  0  0  0  0  0
  -22.8414  -29.1900   19.8259 H   0  0  0  0  0  0
  -25.1346  -36.1745   25.0787 H   0  0  0  0  0  0
  -21.0041  -28.3372   24.1294 H   0  0  0  0  0  0
  -20.5674  -26.2385   23.3642 H   0  0  0  0  0  0
  -21.6664  -26.7401   22.1208 H   0  0  0  0  0  0
  -19.6931  -25.6274   21.1275 H   0  0  0  0  0  0
  -19.6712  -27.3157   20.6715 H   0  0  0  0  0  0
  -17.4224  -26.6679   21.4029 H   0  0  0  0  0  0
  -18.0361  -26.0100   22.9039 H   0  0  0  0  0  0
  -19.7976  -30.7329   24.2185 H   0  0  0  0  0  0
  -17.5041  -31.6273   24.5172 H   0  0  0  0  0  0
  -15.5378  -30.2968   23.7695 H   0  0  0  0  0  0
  -15.8711  -28.0802   22.7103 H   0  0  0  0  0  0
  -24.5889  -30.7105   25.7634 H   0  0  0  0  0  0
  -24.8847  -32.2985   26.4615 H   0  0  0  0  0  0
  -25.7904  -30.9044   27.0206 H   0  0  0  0  0  0
  -26.3160  -29.6537   24.1444 H   0  0  0  0  0  0
  -27.3974  -29.7261   25.5130 H   0  0  0  0  0  0
  -27.9116  -30.4047   23.9904 H   0  0  0  0  0  0
  -27.2617  -33.3697   26.1921 H   0  0  0  0  0  0
  -28.3945  -32.6814   25.0378 H   0  0  0  0  0  0
  -28.0636  -31.8568   26.5538 H   0  0  0  0  0  0
  -28.2597  -38.0039   24.7460 H   0  0  0  0  0  0
  -28.1040  -36.2562   24.6397 H   0  0  0  0  0  0
  -27.2265  -37.1519   25.8877 H   0  0  0  0  0  0
  -20.9631  -29.8725   21.6630 H   0  0  0  0  0  0
  -26.0135  -38.2748   24.1361 H   0  0  0  0  0  0
  -27.9981  -23.6239   18.2271 H   0  0  0  0  0  0
  -27.4944  -21.9413   18.1902 H   0  0  0  0  0  0
  -29.2031  -22.3843   17.9305 H   0  0  0  0  0  0
  -29.7025  -18.6962   17.9872 H   0  0  0  0  0  0
  -30.3278  -20.3055   18.2747 H   0  0  0  0  0  0
  -28.6524  -20.0578   17.7560 H   0  0  0  0  0  0
  -28.5469  -24.1361   21.6578 H   0  0  0  0  0  0
  -27.0284  -24.0324   20.8825 H   0  0  0  0  0  0
  -27.9812  -19.2363   19.8664 H   0  0  0  0  0  0
  -28.6803  -16.5092   20.0229 H   0  0  0  0  0  0
  1 25  1  0  0  0
  1 30  2  0  0  0
  1 78  1  0  0  0
  2  3  1  0  0  0
  2 25  1  0  0  0
  2 80  1  0  0  0
  2 81  1  0  0  0
  3  4  1  0  0  0
  3 82  1  0  0  0
  3 83  1  0  0  0
  4  5  1  0  0  0
  4 84  1  0  0  0
  4 85  1  0  0  0
  5  6  1  0  0  0
  5 26  1  0  0  0
  5 86  1  0  0  0
  6 25  1  0  0  0
  6 87  1  0  0  0
  6 88  1  0  0  0
  7  8  2  0  0  0
  7 26  1  0  0  0
  7 29  1  0  0  0
  8  9  1  0  0  0
  8 22  1  0  0  0
  9 10  1  0  0  0
  9 27  2  0  0  0
 10 11  2  0  0  0
 10 15  1  0  0  0
 11 12  1  0  0  0
 11 89  1  0  0  0
 12 13  2  0  0  0
 12 90  1  0  0  0
 13 14  1  0  0  0
 13 31  1  0  0  0
 14 15  2  0  0  0
 14 91  1  0  0  0
 15 92  1  0  0  0
 16 17  2  0  0  0
 16 21  1  0  0  0
 16 31  1  0  0  0
 17 18  1  0  0  0
 17 93  1  0  0  0
 18 19  2  0  0  0
 18 94  1  0  0  0
 19 20  1  0  0  0
 19 24  1  0  0  0
 20 21  2  0  0  0
 20 95  1  0  0  0
 21 23  1  0  0  0
 22 28  1  0  0  0
 22 32  2  0  0  0
 26 27  1  0  0  0
 28 96  1  0  0  0
 28 97  1  0  0  0
 29 98  1  0  0  0
 29 99  1  0  0  0
 33 34  1  0  0  0
 33 66  1  0  0  0
 33 70  2  0  0  0
 34 36  1  0  0  0
 34 59  1  0  0  0
 34100  1  0  0  0
 35 44  2  0  0  0
 35 45  1  0  0  0
 35 68  1  0  0  0
 36 56  1  0  0  0
 36101  1  0  0  0
 37 39  1  0  0  0
 37 47  1  0  0  0
 37 66  1  0  0  0
 37102  1  0  0  0
 38 43  2  0  0  0
 38 46  1  0  0  0
 38 47  1  0  0  0
 39 64  1  0  0  0
 39 67  2  0  0  0
 40 52  1  0  0  0
 40 53  2  0  0  0
 40 58  1  0  0  0
 41103  1  0  0  0
 41104  1  0  0  0
 41105  1  0  0  0
 41 48  1  0  0  0
 42 43  1  0  0  0
 42 66  1  0  0  0
 42106  1  0  0  0
 42107  1  0  0  0
 43 44  1  0  0  0
 44108  1  0  0  0
 45 46  2  0  0  0
 45109  1  0  0  0
 46110  1  0  0  0
 47111  1  0  0  0
 47112  1  0  0  0
 48 56  1  0  0  0
 48 65  1  0  0  0
 48113  1  0  0  0
 49 50  1  0  0  0
 49 53  1  0  0  0
 49 64  1  0  0  0
 49114  1  0  0  0
 50 51  1  0  0  0
 50115  1  0  0  0
 50116  1  0  0  0
 51 52  1  0  0  0
 51117  1  0  0  0
 51118  1  0  0  0
 52119  1  0  0  0
 52120  1  0  0  0
 53 54  1  0  0  0
 54 55  2  0  0  0
 54121  1  0  0  0
 55 57  1  0  0  0
 55122  1  0  0  0
 56 69  2  0  0  0
 57 58  2  0  0  0
 57123  1  0  0  0
 58124  1  0  0  0
 59 60  1  0  0  0
 59 61  1  0  0  0
 59 62  1  0  0  0
 60125  1  0  0  0
 60126  1  0  0  0
 60127  1  0  0  0
 61128  1  0  0  0
 61129  1  0  0  0
 61130  1  0  0  0
 62131  1  0  0  0
 62132  1  0  0  0
 62133  1  0  0  0
 63 65  1  0  0  0
 63134  1  0  0  0
 63135  1  0  0  0
 63136  1  0  0  0
 64137  1  0  0  0
 65138  1  0  0  0
 68 75  1  0  0  0
 71 73  1  0  0  0
 71 75  1  0  0  0
 71 77  2  0  0  0
 72 76  1  0  0  0
 72 78  1  0  0  0
 72 79  2  0  0  0
 73139  1  0  0  0
 73140  1  0  0  0
 73141  1  0  0  0
 74142  1  0  0  0
 74143  1  0  0  0
 74144  1  0  0  0
 74 76  1  0  0  0
 75145  1  0  0  0
 75146  1  0  0  0
 76 77  1  0  0  0
 76147  1  0  0  0
 78148  1  0  0  0
M  ISO  4   1 100  68 101  75 101  78 100
M  END
> <chiral flag>
0

> <version>
0

> <s_m_source_file>
/data/baiqing/PycharmProjects/Reinvent-master-3.2/result/LINK_invent/BTK/process_docking_weight1_custom_product_contain_oxygen_bond_distance_aromatic_linkinvent_7_9_3/rearranged_h_0094.sdf

> <i_m_source_file_index>
1

> <r_mmod_Potential_Energy-OPLS-2005>
1538.30017089844

> <r_mmod_Stretch_Energy-OPLS-2005>
750.604614257812

> <r_mmod_Bend_Energy-OPLS-2005>
507.549621582031

> <r_mmod_Torsional_Energy-OPLS-2005>
250.620025634766

> <r_mmod_Improper_Torsional_Energy-OPLS-2005>
7.2024188041687

> <r_mmod_Van_der_Waal_Energy-OPLS-2005>
111.017440795898

> <r_mmod_Electrostatic_Energy-OPLS-2005>
-418.662902832031

> <r_mmod_Solvation_Energy-OPLS-2005>
-244.087799072266

> <b_mmod_Minimization_Converged-OPLS-2005>
0

> <r_mmod_RMS_Derivative-OPLS-2005>
1.22404789924622

$$$$
1
                    3D
 Structure written by MMmdl.
153161  0  0  1  0            999 V2000
  -30.4569  -14.9870   20.3595 C   0  0  0  0  0  0
  -30.4779  -12.5868   19.4949 C   0  0  0  0  0  0
  -29.5494  -12.5022   18.2556 C   0  0  0  0  0  0
  -28.0647  -12.3268   18.6559 C   0  0  0  0  0  0
  -27.6465  -13.2181   19.8566 C   0  0  2  0  0  0
  -28.7014  -13.1911   20.9753 C   0  0  0  0  0  0
  -25.2621  -13.8072   20.5756 C   0  0  0  0  0  0
  -24.1902  -13.0381   20.9184 C   0  0  0  0  0  0
  -24.6436  -11.6816   20.8759 C   0  0  0  0  0  0
  -23.9068  -10.4261   21.0414 C   0  0  0  0  0  0
  -24.3624   -9.4184   21.9204 C   0  0  0  0  0  0
  -23.6306   -8.2209   22.0764 C   0  0  0  0  0  0
  -22.4300   -8.0259   21.3524 C   0  0  0  0  0  0
  -21.9919   -9.0233   20.4655 C   0  0  0  0  0  0
  -22.7222  -10.2121   20.3066 C   0  0  0  0  0  0
  -21.6840   -6.0770   22.5269 C   0  0  0  0  0  0
  -21.3964   -6.5651   23.8205 C   0  0  0  0  0  0
  -21.3623   -5.6784   24.9148 C   0  0  0  0  0  0
  -21.6030   -4.3050   24.7199 C   0  0  0  0  0  0
  -21.8837   -3.8190   23.4310 C   0  0  0  0  0  0
  -21.9206   -4.7014   22.3391 C   0  0  0  0  0  0
  -22.7902  -13.5189   21.1752 C   0  0  0  0  0  0
  -22.1703   -4.2220   21.0970 F   0  0  0  0  0  0
  -21.5643   -3.4529   25.7704 F   0  0  0  0  0  0
  -29.9648  -13.6688   20.3905 N   0  0  0  0  0  0
  -26.3026  -12.9244   20.3359 N   0  0  0  0  0  0
  -25.9381  -11.6415   20.5801 N   0  0  0  0  0  0
  -22.0480  -12.8311   22.0310 N   0  0  0  0  0  0
  -25.4388  -15.1812   20.4153 N   0  0  0  0  0  0
  -31.6807  -15.0905   20.2025 O   0  0  0  0  0  0
  -21.6604   -6.8891   21.4224 O   0  0  0  0  0  0
  -22.3635  -14.5472   20.6495 O   0  0  0  0  0  0
  -24.6549  -31.8338   23.1884 C   0  0  0  0  0  0
  -25.9269  -32.4641   23.8333 C   0  0  1  0  0  0
  -27.2319  -27.0437   20.1834 C   0  0  0  0  0  0
  -25.6007  -33.8464   24.2216 N   0  0  0  0  0  0
  -23.4682  -30.4417   21.5300 C   0  0  2  0  0  0
  -24.9268  -28.8548   20.1176 C   0  0  0  0  0  0
  -22.7664  -29.4410   22.4855 C   0  0  0  0  0  0
  -18.0272  -28.1373   22.8507 C   0  0  0  0  0  0
  -24.1475  -36.7235   23.2647 C   0  0  0  0  0  0
  -26.0312  -30.6705   21.4147 C   0  0  0  0  0  0
  -26.1025  -29.2741   20.7574 C   0  0  0  0  0  0
  -27.2546  -28.3858   20.7737 C   0  0  0  0  0  0
  -26.0447  -26.7629   19.4762 C   0  0  0  0  0  0
  -24.9194  -27.6164   19.4554 C   0  0  0  0  0  0
  -23.7059  -29.7625   20.1551 C   0  0  0  0  0  0
  -25.4113  -36.3001   24.0312 C   0  0  1  0  0  0
  -20.5921  -28.3696   23.1251 C   0  0  2  0  0  0
  -20.6737  -26.9414   22.5409 C   0  0  0  0  0  0
  -19.5721  -26.6418   21.5212 C   0  0  0  0  0  0
  -18.1881  -26.7943   22.1603 C   0  0  0  0  0  0
  -19.1560  -28.8873   23.2823 C   0  0  0  0  0  0
  -18.9477  -30.1464   23.8856 C   0  0  0  0  0  0
  -17.6491  -30.6599   24.0507 C   0  0  0  0  0  0
  -25.9076  -34.9368   23.5057 C   0  0  0  0  0  0
  -16.5381  -29.9107   23.6302 C   0  0  0  0  0  0
  -16.7273  -28.6503   23.0405 C   0  0  0  0  0  0
  -26.4559  -31.6583   25.0828 C   0  0  0  0  0  0
  -25.3724  -31.3806   26.1522 C   0  0  0  0  0  0
  -27.0486  -30.2948   24.6565 C   0  0  0  0  0  0
  -27.6075  -32.4412   25.7635 C   0  0  0  0  0  0
  -27.5558  -37.1772   24.8455 C   0  0  0  0  0  0
  -21.4329  -29.3064   22.3734 N   0  0  0  0  0  0
  -26.4262  -37.3713   23.9398 N   0  0  0  0  0  0
  -24.7368  -31.0069   22.0984 N   0  0  0  0  0  0
  -23.4291  -28.7886   23.2978 O   0  0  0  0  0  0
  -28.2444  -25.9882   20.2164 O   0  0  0  0  0  0
  -26.5641  -34.8865   22.4606 O   0  0  0  0  0  0
  -23.5612  -32.1324   23.6948 O   0  0  0  0  0  0
  -29.0421  -19.2006   19.9361 C   0  0  0  0  0  0
  -29.3121  -20.4197   20.7441 C   0  0  0  0  0  0
  -29.6182  -17.9858   20.4624 C   0  0  0  0  0  0
  -30.0562  -19.7997   21.7326 C   0  0  0  0  0  0
  -28.6734  -22.9916   20.0653 C   0  0  0  0  0  0
  -29.1217  -22.9959   18.6045 C   0  0  0  0  0  0
  -29.0536  -16.3035   18.6462 C   0  0  0  0  0  0
  -27.8858  -24.4582   20.5092 C   0  0  0  0  0  0
  -29.4697  -16.3501   20.1362 C   0  0  1  0  0  0
  -28.7899  -21.8600   20.8306 N   0  0  0  0  0  0
  -30.5269  -20.4231   22.8738 N   0  0  0  0  0  0
  -30.2506  -18.4194   21.6019 O   0  0  0  0  0  0
  -31.5050  -12.7779   19.1807 H   0  0  0  0  0  0
  -30.5084  -11.6217   20.0079 H   0  0  0  0  0  0
  -29.8670  -11.6949   17.5959 H   0  0  0  0  0  0
  -29.6823  -13.4066   17.6654 H   0  0  0  0  0  0
  -27.9171  -11.2771   18.9145 H   0  0  0  0  0  0
  -27.4181  -12.5186   17.7984 H   0  0  0  0  0  0
  -27.6056  -14.2328   19.4870 H   0  0  0  0  0  0
  -28.8043  -12.1710   21.3490 H   0  0  0  0  0  0
  -28.4124  -13.8009   21.8315 H   0  0  0  0  0  0
  -25.2785   -9.5656   22.4767 H   0  0  0  0  0  0
  -24.0035   -7.4566   22.7443 H   0  0  0  0  0  0
  -21.0873   -8.8701   19.8952 H   0  0  0  0  0  0
  -22.3672  -10.9644   19.6178 H   0  0  0  0  0  0
  -21.1890   -7.6152   23.9713 H   0  0  0  0  0  0
  -21.1437   -6.0517   25.9040 H   0  0  0  0  0  0
  -22.0675   -2.7683   23.2783 H   0  0  0  0  0  0
  -22.4045  -12.0030   22.4863 H   0  0  0  0  0  0
  -21.1027  -13.1339   22.2204 H   0  0  0  0  0  0
  -24.6863  -15.8458   20.5497 H   0  0  0  0  0  0
  -26.2855  -15.6117   20.0691 H   0  0  0  0  0  0
  -26.7331  -32.5185   23.1069 H   0  0  0  0  0  0
  -25.0221  -33.9610   25.0421 H   0  0  0  0  0  0
  -22.7737  -31.2682   21.3639 H   0  0  0  0  0  0
  -23.3740  -35.9561   23.3299 H   0  0  0  0  0  0
  -24.3537  -36.8897   22.2055 H   0  0  0  0  0  0
  -23.7243  -37.6413   23.6723 H   0  0  0  0  0  0
  -26.2153  -31.4159   20.6384 H   0  0  0  0  0  0
  -26.8909  -30.7174   22.0720 H   0  0  0  0  0  0
  -28.1464  -28.7025   21.2969 H   0  0  0  0  0  0
  -25.9773  -25.8319   18.9348 H   0  0  0  0  0  0
  -24.0396  -27.2932   18.9168 H   0  0  0  0  0  0
  -23.8659  -30.5358   19.4048 H   0  0  0  0  0  0
  -22.8219  -29.2097   19.8280 H   0  0  0  0  0  0
  -25.1300  -36.1799   25.0797 H   0  0  0  0  0  0
  -20.9901  -28.3133   24.1428 H   0  0  0  0  0  0
  -20.5576  -26.2334   23.3653 H   0  0  0  0  0  0
  -21.6602  -26.7328   22.1235 H   0  0  0  0  0  0
  -19.6931  -25.6387   21.1138 H   0  0  0  0  0  0
  -19.6707  -27.3255   20.6790 H   0  0  0  0  0  0
  -18.0250  -26.0036   22.8969 H   0  0  0  0  0  0
  -17.4149  -26.6779   21.3997 H   0  0  0  0  0  0
  -19.7956  -30.7304   24.2142 H   0  0  0  0  0  0
  -17.5080  -31.6310   24.5022 H   0  0  0  0  0  0
  -15.5382  -30.3041   23.7612 H   0  0  0  0  0  0
  -15.8661  -28.0841   22.7166 H   0  0  0  0  0  0
  -24.5928  -30.7110   25.7866 H   0  0  0  0  0  0
  -24.8893  -32.2982   26.4866 H   0  0  0  0  0  0
  -25.7999  -30.9058   27.0367 H   0  0  0  0  0  0
  -26.3187  -29.6645   24.1457 H   0  0  0  0  0  0
  -27.3897  -29.7281   25.5249 H   0  0  0  0  0  0
  -27.9174  -30.4165   24.0106 H   0  0  0  0  0  0
  -27.2646  -33.3765   26.2097 H   0  0  0  0  0  0
  -28.3951  -32.6906   25.0511 H   0  0  0  0  0  0
  -28.0695  -31.8652   26.5675 H   0  0  0  0  0  0
  -28.2527  -38.0114   24.7502 H   0  0  0  0  0  0
  -28.1110  -36.2626   24.6270 H   0  0  0  0  0  0
  -27.2285  -37.1390   25.8868 H   0  0  0  0  0  0
  -20.9494  -29.9107   21.7253 H   0  0  0  0  0  0
  -26.0122  -38.2769   24.1404 H   0  0  0  0  0  0
  -28.3924  -19.1982   19.0721 H   0  0  0  0  0  0
  -29.8076  -22.1814   18.3751 H   0  0  0  0  0  0
  -28.2579  -22.8911   17.9421 H   0  0  0  0  0  0
  -29.6216  -23.9361   18.3620 H   0  0  0  0  0  0
  -28.1068  -16.8102   18.4553 H   0  0  0  0  0  0
  -28.9592  -15.3015   18.2436 H   0  0  0  0  0  0
  -29.8102  -16.7927   18.0371 H   0  0  0  0  0  0
  -27.7984  -24.4085   21.5948 H   0  0  0  0  0  0
  -26.8576  -24.3051   20.1789 H   0  0  0  0  0  0
  -28.5943  -16.0432   20.7076 H   0  0  0  0  0  0
  -30.2187  -21.3640   23.0957 H   0  0  0  0  0  0
  -30.8729  -19.9083   23.6791 H   0  0  0  0  0  0
  1 25  1  0  0  0
  1 30  2  0  0  0
  1 79  1  0  0  0
  2  3  1  0  0  0
  2 25  1  0  0  0
  2 83  1  0  0  0
  2 84  1  0  0  0
  3  4  1  0  0  0
  3 85  1  0  0  0
  3 86  1  0  0  0
  4  5  1  0  0  0
  4 87  1  0  0  0
  4 88  1  0  0  0
  5  6  1  0  0  0
  5 26  1  0  0  0
  5 89  1  0  0  0
  6 25  1  0  0  0
  6 90  1  0  0  0
  6 91  1  0  0  0
  7  8  2  0  0  0
  7 26  1  0  0  0
  7 29  1  0  0  0
  8  9  1  0  0  0
  8 22  1  0  0  0
  9 10  1  0  0  0
  9 27  2  0  0  0
 10 11  2  0  0  0
 10 15  1  0  0  0
 11 12  1  0  0  0
 11 92  1  0  0  0
 12 13  2  0  0  0
 12 93  1  0  0  0
 13 14  1  0  0  0
 13 31  1  0  0  0
 14 15  2  0  0  0
 14 94  1  0  0  0
 15 95  1  0  0  0
 16 17  2  0  0  0
 16 21  1  0  0  0
 16 31  1  0  0  0
 17 18  1  0  0  0
 17 96  1  0  0  0
 18 19  2  0  0  0
 18 97  1  0  0  0
 19 20  1  0  0  0
 19 24  1  0  0  0
 20 21  2  0  0  0
 20 98  1  0  0  0
 21 23  1  0  0  0
 22 28  1  0  0  0
 22 32  2  0  0  0
 26 27  1  0  0  0
 28 99  1  0  0  0
 28100  1  0  0  0
 29101  1  0  0  0
 29102  1  0  0  0
 33 34  1  0  0  0
 33 66  1  0  0  0
 33 70  2  0  0  0
 34 36  1  0  0  0
 34 59  1  0  0  0
 34103  1  0  0  0
 35 44  2  0  0  0
 35 45  1  0  0  0
 35 68  1  0  0  0
 36 56  1  0  0  0
 36104  1  0  0  0
 37 39  1  0  0  0
 37 47  1  0  0  0
 37 66  1  0  0  0
 37105  1  0  0  0
 38 43  2  0  0  0
 38 46  1  0  0  0
 38 47  1  0  0  0
 39 64  1  0  0  0
 39 67  2  0  0  0
 40 52  1  0  0  0
 40 53  2  0  0  0
 40 58  1  0  0  0
 41106  1  0  0  0
 41107  1  0  0  0
 41108  1  0  0  0
 41 48  1  0  0  0
 42 43  1  0  0  0
 42 66  1  0  0  0
 42109  1  0  0  0
 42110  1  0  0  0
 43 44  1  0  0  0
 44111  1  0  0  0
 45 46  2  0  0  0
 45112  1  0  0  0
 46113  1  0  0  0
 47114  1  0  0  0
 47115  1  0  0  0
 48 56  1  0  0  0
 48 65  1  0  0  0
 48116  1  0  0  0
 49 50  1  0  0  0
 49 53  1  0  0  0
 49 64  1  0  0  0
 49117  1  0  0  0
 50 51  1  0  0  0
 50118  1  0  0  0
 50119  1  0  0  0
 51 52  1  0  0  0
 51120  1  0  0  0
 51121  1  0  0  0
 52122  1  0  0  0
 52123  1  0  0  0
 53 54  1  0  0  0
 54 55  2  0  0  0
 54124  1  0  0  0
 55 57  1  0  0  0
 55125  1  0  0  0
 56 69  2  0  0  0
 57 58  2  0  0  0
 57126  1  0  0  0
 58127  1  0  0  0
 59 60  1  0  0  0
 59 61  1  0  0  0
 59 62  1  0  0  0
 60128  1  0  0  0
 60129  1  0  0  0
 60130  1  0  0  0
 61131  1  0  0  0
 61132  1  0  0  0
 61133  1  0  0  0
 62134  1  0  0  0
 62135  1  0  0  0
 62136  1  0  0  0
 63 65  1  0  0  0
 63137  1  0  0  0
 63138  1  0  0  0
 63139  1  0  0  0
 64140  1  0  0  0
 65141  1  0  0  0
 68 78  1  0  0  0
 71 72  1  0  0  0
 71 73  2  0  0  0
 71142  1  0  0  0
 72 74  2  0  0  0
 72 80  1  0  0  0
 73 79  1  0  0  0
 73 82  1  0  0  0
 74 81  1  0  0  0
 74 82  1  0  0  0
 75 76  1  0  0  0
 75 78  1  0  0  0
 75 80  2  0  0  0
 76143  1  0  0  0
 76144  1  0  0  0
 76145  1  0  0  0
 77146  1  0  0  0
 77147  1  0  0  0
 77148  1  0  0  0
 77 79  1  0  0  0
 78149  1  0  0  0
 78150  1  0  0  0
 79151  1  0  0  0
 81152  1  0  0  0
 81153  1  0  0  0
M  ISO  4   1 100  68 101  78 101  79 100
M  END
> <chiral flag>
0

> <version>
0

> <s_m_source_file>
/data/baiqing/PycharmProjects/Reinvent-master-3.2/result/LINK_invent/BTK/process_docking_weight1_custom_product_contain_oxygen_bond_distance_aromatic_linkinvent_7_9_3/rearranged_h_0094.sdf

> <i_m_source_file_index>
2

> <r_mmod_Potential_Energy-OPLS-2005>
735.547729492188

> <r_mmod_Stretch_Energy-OPLS-2005>
351.841857910156

> <r_mmod_Bend_Energy-OPLS-2005>
379.908996582031

> <r_mmod_Torsional_Energy-OPLS-2005>
235.868743896484

> <r_mmod_Improper_Torsional_Energy-OPLS-2005>
15.4505376815796

> <r_mmod_Van_der_Waal_Energy-OPLS-2005>
108.788375854492

> <r_mmod_Electrostatic_Energy-OPLS-2005>
-389.503051757812

> <r_mmod_Solvation_Energy-OPLS-2005>
-219.959075927734

> <b_mmod_Minimization_Converged-OPLS-2005>
0

> <r_mmod_RMS_Derivative-OPLS-2005>
8.87409019470215

$$$$
2
                    3D
 Structure written by MMmdl.
161169  0  0  1  0            999 V2000
  -30.7577  -14.3857   20.6854 C   0  0  0  0  0  0
  -30.4219  -12.3023   19.3891 C   0  0  0  0  0  0
  -29.4812  -12.5157   18.1882 C   0  0  0  0  0  0
  -28.0069  -12.3710   18.6108 C   0  0  0  0  0  0
  -27.6659  -13.2005   19.8764 C   0  0  2  0  0  0
  -28.7092  -12.9559   20.9907 C   0  0  0  0  0  0
  -25.2612  -13.8152   20.5673 C   0  0  0  0  0  0
  -24.1850  -13.0436   20.9162 C   0  0  0  0  0  0
  -24.6393  -11.6903   20.8728 C   0  0  0  0  0  0
  -23.9053  -10.4287   21.0400 C   0  0  0  0  0  0
  -24.3603   -9.4210   21.9185 C   0  0  0  0  0  0
  -23.6279   -8.2243   22.0762 C   0  0  0  0  0  0
  -22.4265   -8.0278   21.3543 C   0  0  0  0  0  0
  -21.9904   -9.0248   20.4641 C   0  0  0  0  0  0
  -22.7230  -10.2126   20.3047 C   0  0  0  0  0  0
  -21.6849   -6.0731   22.5275 C   0  0  0  0  0  0
  -21.4002   -6.5634   23.8206 C   0  0  0  0  0  0
  -21.3651   -5.6790   24.9169 C   0  0  0  0  0  0
  -21.6044   -4.3057   24.7223 C   0  0  0  0  0  0
  -21.8824   -3.8146   23.4347 C   0  0  0  0  0  0
  -21.9193   -4.6959   22.3399 C   0  0  0  0  0  0
  -22.7869  -13.5240   21.1822 C   0  0  0  0  0  0
  -22.1664   -4.2145   21.0979 F   0  0  0  0  0  0
  -21.5633   -3.4538   25.7738 F   0  0  0  0  0  0
  -30.0448  -13.2521   20.4465 N   0  0  0  0  0  0
  -26.3052  -12.9313   20.3379 N   0  0  0  0  0  0
  -25.9325  -11.6481   20.5770 N   0  0  0  0  0  0
  -22.0497  -12.8232   22.0368 N   0  0  0  0  0  0
  -25.4353  -15.1865   20.4068 N   0  0  0  0  0  0
  -31.7904  -14.6537   20.0627 O   0  0  0  0  0  0
  -21.6634   -6.8875   21.4238 O   0  0  0  0  0  0
  -22.3559  -14.5557   20.6676 O   0  0  0  0  0  0
  -24.6128  -31.8700   23.2112 C   0  0  0  0  0  0
  -25.9030  -32.4836   23.8400 C   0  0  1  0  0  0
  -27.2383  -27.4444   20.0754 C   0  0  0  0  0  0
  -25.5896  -33.8642   24.2324 N   0  0  0  0  0  0
  -23.3992  -30.4926   21.5537 C   0  0  2  0  0  0
  -24.8438  -28.9591   20.1157 C   0  0  0  0  0  0
  -22.7398  -29.4653   22.5008 C   0  0  0  0  0  0
  -18.0267  -28.1360   22.8494 C   0  0  0  0  0  0
  -24.1487  -36.7305   23.2637 C   0  0  0  0  0  0
  -25.9274  -30.8324   21.3660 C   0  0  0  0  0  0
  -26.0016  -29.4655   20.7170 C   0  0  0  0  0  0
  -27.1943  -28.7097   20.7040 C   0  0  0  0  0  0
  -26.0537  -26.9434   19.4851 C   0  0  0  0  0  0
  -24.8634  -27.6948   19.5020 C   0  0  0  0  0  0
  -23.6059  -29.8256   20.1669 C   0  0  0  0  0  0
  -25.4114  -36.3109   24.0324 C   0  0  1  0  0  0
  -20.5856  -28.3644   23.1316 C   0  0  2  0  0  0
  -20.6773  -26.9390   22.5393 C   0  0  0  0  0  0
  -19.5742  -26.6376   21.5204 C   0  0  0  0  0  0
  -18.1921  -26.7907   22.1618 C   0  0  0  0  0  0
  -19.1516  -28.8820   23.2903 C   0  0  0  0  0  0
  -18.9459  -30.1439   23.8901 C   0  0  0  0  0  0
  -17.6467  -30.6574   24.0573 C   0  0  0  0  0  0
  -25.9041  -34.9484   23.5111 C   0  0  0  0  0  0
  -16.5356  -29.9075   23.6345 C   0  0  0  0  0  0
  -16.7261  -28.6499   23.0340 C   0  0  0  0  0  0
  -26.4443  -31.6618   25.0736 C   0  0  0  0  0  0
  -25.3676  -31.3696   26.1452 C   0  0  0  0  0  0
  -27.0308  -30.3091   24.6087 C   0  0  0  0  0  0
  -27.6016  -32.4346   25.7503 C   0  0  0  0  0  0
  -27.5575  -37.1812   24.8464 C   0  0  0  0  0  0
  -21.4132  -29.3024   22.3743 N   0  0  0  0  0  0
  -26.4289  -37.3801   23.9403 N   0  0  0  0  0  0
  -24.6650  -31.0791   22.1019 N   0  0  0  0  0  0
  -23.4175  -28.8190   23.3034 O   0  0  0  0  0  0
  -28.4389  -26.7604   20.0655 O   0  0  0  0  0  0
  -26.5609  -34.8937   22.4673 O   0  0  0  0  0  0
  -23.5320  -32.1458   23.7499 O   0  0  0  0  0  0
  -30.6460  -20.5614   19.9985 C   0  0  0  0  0  0
  -29.9597  -21.7845   19.8327 C   0  0  0  0  0  0
  -30.9201  -21.0310   22.3724 C   0  0  0  0  0  0
  -31.1393  -20.1846   21.2658 C   0  0  0  0  0  0
  -29.7536  -22.6446   20.9374 C   0  0  0  0  0  0
  -30.2271  -22.2472   22.2107 C   0  0  0  0  0  0
  -31.2675  -16.4996   21.9814 C   0  0  0  0  0  0
  -31.9178  -18.8900   21.4447 C   0  0  0  0  0  0
  -30.2732  -15.3801   21.7591 C   0  0  0  0  0  0
  -28.2291  -24.3091   19.7722 C   0  0  0  0  0  0
  -28.6259  -25.6678   19.1566 C   0  0  0  0  0  0
  -29.9935  -23.0642   23.3178 N   0  0  0  0  0  0
  -32.3059  -16.3096   22.8250 N   0  0  0  0  0  0
  -29.1377  -23.9052   20.8438 N   0  0  0  0  0  0
  -31.0656  -17.6922   21.3723 N   0  3  0  0  0  0
  -31.4612  -12.4148   19.0747 H   0  0  0  0  0  0
  -30.3366  -11.2812   19.7640 H   0  0  0  0  0  0
  -29.7128  -11.7973   17.4003 H   0  0  0  0  0  0
  -29.6460  -13.5048   17.7593 H   0  0  0  0  0  0
  -27.8169  -11.3135   18.7986 H   0  0  0  0  0  0
  -27.3494  -12.6537   17.7873 H   0  0  0  0  0  0
  -27.7200  -14.2520   19.5945 H   0  0  0  0  0  0
  -28.6767  -11.9147   21.3143 H   0  0  0  0  0  0
  -28.4579  -13.5405   21.8746 H   0  0  0  0  0  0
  -25.2748   -9.5688   22.4760 H   0  0  0  0  0  0
  -23.9986   -7.4643   22.7486 H   0  0  0  0  0  0
  -21.0839   -8.8759   19.8942 H   0  0  0  0  0  0
  -22.3698  -10.9658   19.6145 H   0  0  0  0  0  0
  -21.1983   -7.6142   23.9706 H   0  0  0  0  0  0
  -21.1465   -6.0520   25.9068 H   0  0  0  0  0  0
  -22.0611   -2.7607   23.2849 H   0  0  0  0  0  0
  -22.4101  -11.9883   22.4751 H   0  0  0  0  0  0
  -21.1107  -13.1249   22.2555 H   0  0  0  0  0  0
  -24.6698  -15.8441   20.5104 H   0  0  0  0  0  0
  -26.2894  -15.6237   20.0840 H   0  0  0  0  0  0
  -26.7105  -32.5534   23.1168 H   0  0  0  0  0  0
  -25.0075  -33.9834   25.0480 H   0  0  0  0  0  0
  -22.6880  -31.3091   21.4168 H   0  0  0  0  0  0
  -23.3768  -35.9620   23.3308 H   0  0  0  0  0  0
  -24.3574  -36.8916   22.2054 H   0  0  0  0  0  0
  -23.7239  -37.6502   23.6667 H   0  0  0  0  0  0
  -26.0374  -31.5948   20.5931 H   0  0  0  0  0  0
  -26.8169  -30.8889   21.9810 H   0  0  0  0  0  0
  -28.0906  -29.1017   21.1657 H   0  0  0  0  0  0
  -26.0251  -25.9758   19.0071 H   0  0  0  0  0  0
  -23.9712  -27.2974   19.0383 H   0  0  0  0  0  0
  -23.7098  -30.6030   19.4092 H   0  0  0  0  0  0
  -22.7304  -29.2439   19.8723 H   0  0  0  0  0  0
  -25.1293  -36.1964   25.0819 H   0  0  0  0  0  0
  -20.9954  -28.3200   24.1430 H   0  0  0  0  0  0
  -20.5702  -26.2243   23.3565 H   0  0  0  0  0  0
  -21.6641  -26.7443   22.1167 H   0  0  0  0  0  0
  -19.6910  -25.6284   21.1226 H   0  0  0  0  0  0
  -19.6679  -27.3202   20.6747 H   0  0  0  0  0  0
  -17.4189  -26.6661   21.4022 H   0  0  0  0  0  0
  -18.0328  -26.0020   22.8991 H   0  0  0  0  0  0
  -19.7935  -30.7258   24.2245 H   0  0  0  0  0  0
  -17.5022  -31.6257   24.5163 H   0  0  0  0  0  0
  -15.5358  -30.2988   23.7659 H   0  0  0  0  0  0
  -15.8662  -28.0842   22.7017 H   0  0  0  0  0  0
  -24.5848  -30.7070   25.7736 H   0  0  0  0  0  0
  -24.8863  -32.2839   26.4935 H   0  0  0  0  0  0
  -25.7968  -30.8804   27.0200 H   0  0  0  0  0  0
  -26.2875  -29.6848   24.1113 H   0  0  0  0  0  0
  -27.4108  -29.7313   25.4521 H   0  0  0  0  0  0
  -27.8671  -30.4478   23.9230 H   0  0  0  0  0  0
  -27.2651  -33.3662   26.2060 H   0  0  0  0  0  0
  -28.3830  -32.6871   25.0325 H   0  0  0  0  0  0
  -28.0678  -31.8476   26.5421 H   0  0  0  0  0  0
  -28.2571  -38.0130   24.7553 H   0  0  0  0  0  0
  -28.1093  -36.2663   24.6257 H   0  0  0  0  0  0
  -27.2286  -37.1421   25.8861 H   0  0  0  0  0  0
  -20.9312  -29.8728   21.6937 H   0  0  0  0  0  0
  -26.0167  -38.2866   24.1422 H   0  0  0  0  0  0
  -30.8109  -19.9257   19.1397 H   0  0  0  0  0  0
  -29.6316  -22.0505   18.8392 H   0  0  0  0  0  0
  -31.2895  -20.7433   23.3474 H   0  0  0  0  0  0
  -32.4358  -18.9176   22.4024 H   0  0  0  0  0  0
  -32.6925  -18.8258   20.6793 H   0  0  0  0  0  0
  -29.3134  -15.7962   21.4520 H   0  0  0  0  0  0
  -30.1129  -14.8577   22.7020 H   0  0  0  0  0  0
  -28.1865  -23.5628   18.9811 H   0  0  0  0  0  0
  -27.2178  -24.3620   20.1767 H   0  0  0  0  0  0
  -28.0951  -25.8392   18.2192 H   0  0  0  0  0  0
  -29.6785  -25.6407   18.8721 H   0  0  0  0  0  0
  -30.1117  -22.6331   24.2273 H   0  0  0  0  0  0
  -29.1199  -23.5769   23.2714 H   0  0  0  0  0  0
  -32.4449  -15.4210   23.2899 H   0  0  0  0  0  0
  -32.9979  -17.0159   23.0279 H   0  0  0  0  0  0
  -29.2281  -24.5139   21.6520 H   0  0  0  0  0  0
  -30.2488  -17.8025   20.7866 H   0  0  0  0  0  0
  1 25  1  0  0  0
  1 30  2  0  0  0
  1 79  1  0  0  0
  2  3  1  0  0  0
  2 25  1  0  0  0
  2 86  1  0  0  0
  2 87  1  0  0  0
  3  4  1  0  0  0
  3 88  1  0  0  0
  3 89  1  0  0  0
  4  5  1  0  0  0
  4 90  1  0  0  0
  4 91  1  0  0  0
  5  6  1  0  0  0
  5 26  1  0  0  0
  5 92  1  0  0  0
  6 25  1  0  0  0
  6 93  1  0  0  0
  6 94  1  0  0  0
  7  8  2  0  0  0
  7 26  1  0  0  0
  7 29  1  0  0  0
  8  9  1  0  0  0
  8 22  1  0  0  0
  9 10  1  0  0  0
  9 27  2  0  0  0
 10 11  2  0  0  0
 10 15  1  0  0  0
 11 12  1  0  0  0
 11 95  1  0  0  0
 12 13  2  0  0  0
 12 96  1  0  0  0
 13 14  1  0  0  0
 13 31  1  0  0  0
 14 15  2  0  0  0
 14 97  1  0  0  0
 15 98  1  0  0  0
 16 17  2  0  0  0
 16 21  1  0  0  0
 16 31  1  0  0  0
 17 18  1  0  0  0
 17 99  1  0  0  0
 18 19  2  0  0  0
 18100  1  0  0  0
 19 20  1  0  0  0
 19 24  1  0  0  0
 20 21  2  0  0  0
 20101  1  0  0  0
 21 23  1  0  0  0
 22 28  1  0  0  0
 22 32  2  0  0  0
 26 27  1  0  0  0
 28102  1  0  0  0
 28103  1  0  0  0
 29104  1  0  0  0
 29105  1  0  0  0
 33 34  1  0  0  0
 33 66  1  0  0  0
 33 70  2  0  0  0
 34 36  1  0  0  0
 34 59  1  0  0  0
 34106  1  0  0  0
 35 44  2  0  0  0
 35 45  1  0  0  0
 35 68  1  0  0  0
 36 56  1  0  0  0
 36107  1  0  0  0
 37 39  1  0  0  0
 37 47  1  0  0  0
 37 66  1  0  0  0
 37108  1  0  0  0
 38 43  2  0  0  0
 38 46  1  0  0  0
 38 47  1  0  0  0
 39 64  1  0  0  0
 39 67  2  0  0  0
 40 52  1  0  0  0
 40 53  2  0  0  0
 40 58  1  0  0  0
 41109  1  0  0  0
 41110  1  0  0  0
 41111  1  0  0  0
 41 48  1  0  0  0
 42 43  1  0  0  0
 42 66  1  0  0  0
 42112  1  0  0  0
 42113  1  0  0  0
 43 44  1  0  0  0
 44114  1  0  0  0
 45 46  2  0  0  0
 45115  1  0  0  0
 46116  1  0  0  0
 47117  1  0  0  0
 47118  1  0  0  0
 48 56  1  0  0  0
 48 65  1  0  0  0
 48119  1  0  0  0
 49 50  1  0  0  0
 49 53  1  0  0  0
 49 64  1  0  0  0
 49120  1  0  0  0
 50 51  1  0  0  0
 50121  1  0  0  0
 50122  1  0  0  0
 51 52  1  0  0  0
 51123  1  0  0  0
 51124  1  0  0  0
 52125  1  0  0  0
 52126  1  0  0  0
 53 54  1  0  0  0
 54 55  2  0  0  0
 54127  1  0  0  0
 55 57  1  0  0  0
 55128  1  0  0  0
 56 69  2  0  0  0
 57 58  2  0  0  0
 57129  1  0  0  0
 58130  1  0  0  0
 59 60  1  0  0  0
 59 61  1  0  0  0
 59 62  1  0  0  0
 60131  1  0  0  0
 60132  1  0  0  0
 60133  1  0  0  0
 61134  1  0  0  0
 61135  1  0  0  0
 61136  1  0  0  0
 62137  1  0  0  0
 62138  1  0  0  0
 62139  1  0  0  0
 63 65  1  0  0  0
 63140  1  0  0  0
 63141  1  0  0  0
 63142  1  0  0  0
 64143  1  0  0  0
 65144  1  0  0  0
 68 81  1  0  0  0
 71 72  2  0  0  0
 71 74  1  0  0  0
 71145  1  0  0  0
 72 75  1  0  0  0
 72146  1  0  0  0
 73 74  2  0  0  0
 73 76  1  0  0  0
 73147  1  0  0  0
 74 78  1  0  0  0
 75 76  2  0  0  0
 75 84  1  0  0  0
 76 82  1  0  0  0
 77 79  1  0  0  0
 77 83  1  0  0  0
 77 85  2  0  0  0
 78 85  1  0  0  0
 78148  1  0  0  0
 78149  1  0  0  0
 79150  1  0  0  0
 79151  1  0  0  0
 80 81  1  0  0  0
 80 84  1  0  0  0
 80152  1  0  0  0
 80153  1  0  0  0
 81154  1  0  0  0
 81155  1  0  0  0
 82156  1  0  0  0
 82157  1  0  0  0
 83158  1  0  0  0
 83159  1  0  0  0
 84160  1  0  0  0
 85161  1  0  0  0
M  CHG  1  85   1
M  ISO  4   1 100  68 101  79 100  81 101
M  END
> <chiral flag>
0

> <version>
0

> <s_m_source_file>
/data/baiqing/PycharmProjects/Reinvent-master-3.2/result/LINK_invent/BTK/process_docking_weight1_custom_product_contain_oxygen_bond_distance_aromatic_linkinvent_7_9_3/rearranged_h_0094.sdf

> <i_m_source_file_index>
3

> <r_mmod_Potential_Energy-OPLS-2005>
-152.153305053711

> <r_mmod_Stretch_Energy-OPLS-2005>
35.2570037841797

> <r_mmod_Bend_Energy-OPLS-2005>
109.382225036621

> <r_mmod_Torsional_Energy-OPLS-2005>
176.065048217773

> <r_mmod_Improper_Torsional_Energy-OPLS-2005>
6.8901948928833

> <r_mmod_Van_der_Waal_Energy-OPLS-2005>
158.931701660156

> <r_mmod_Electrostatic_Energy-OPLS-2005>
-184.119888305664

> <r_mmod_Solvation_Energy-OPLS-2005>
-462.795715332031

> <b_mmod_Minimization_Converged-OPLS-2005>
0

> <r_mmod_RMS_Derivative-OPLS-2005>
1.91283273696899

$$$$
3
                    3D
 Structure written by MMmdl.
160169  0  0  1  0            999 V2000
  -30.5988  -14.6893   20.5320 C   0  0  0  0  0  0
  -30.4444  -12.4299   19.4884 C   0  0  0  0  0  0
  -29.5304  -12.5290   18.2475 C   0  0  0  0  0  0
  -28.0506  -12.3447   18.6411 C   0  0  0  0  0  0
  -27.6557  -13.2157   19.8644 C   0  0  2  0  0  0
  -28.6884  -13.0812   21.0042 C   0  0  0  0  0  0
  -25.2571  -13.8139   20.5578 C   0  0  0  0  0  0
  -24.1851  -13.0415   20.9127 C   0  0  0  0  0  0
  -24.6415  -11.6887   20.8691 C   0  0  0  0  0  0
  -23.9054  -10.4289   21.0359 C   0  0  0  0  0  0
  -24.3620   -9.4219   21.9146 C   0  0  0  0  0  0
  -23.6310   -8.2250   22.0729 C   0  0  0  0  0  0
  -22.4285   -8.0284   21.3535 C   0  0  0  0  0  0
  -21.9905   -9.0232   20.4623 C   0  0  0  0  0  0
  -22.7213  -10.2116   20.3023 C   0  0  0  0  0  0
  -21.6858   -6.0728   22.5269 C   0  0  0  0  0  0
  -21.4018   -6.5619   23.8207 C   0  0  0  0  0  0
  -21.3673   -5.6768   24.9167 C   0  0  0  0  0  0
  -21.6053   -4.3034   24.7205 C   0  0  0  0  0  0
  -21.8831   -3.8131   23.4324 C   0  0  0  0  0  0
  -21.9197   -4.6958   22.3388 C   0  0  0  0  0  0
  -22.7879  -13.5221   21.1795 C   0  0  0  0  0  0
  -22.1662   -4.2141   21.0964 F   0  0  0  0  0  0
  -21.5639   -3.4522   25.7720 F   0  0  0  0  0  0
  -30.0063  -13.4510   20.4669 N   0  0  0  0  0  0
  -26.2992  -12.9308   20.3233 N   0  0  0  0  0  0
  -25.9340  -11.6465   20.5699 N   0  0  0  0  0  0
  -22.0515  -12.8256   22.0379 N   0  0  0  0  0  0
  -25.4292  -15.1858   20.3919 N   0  0  0  0  0  0
  -31.7267  -14.8681   20.0603 O   0  0  0  0  0  0
  -21.6658   -6.8875   21.4231 O   0  0  0  0  0  0
  -22.3583  -14.5526   20.6641 O   0  0  0  0  0  0
  -24.6231  -31.8592   23.2031 C   0  0  0  0  0  0
  -25.9052  -32.4790   23.8363 C   0  0  1  0  0  0
  -27.2307  -27.3163   20.1113 C   0  0  0  0  0  0
  -25.5869  -33.8592   24.2262 N   0  0  0  0  0  0
  -23.4179  -30.4801   21.5436 C   0  0  2  0  0  0
  -24.8643  -28.9247   20.1121 C   0  0  0  0  0  0
  -22.7445  -29.4616   22.4936 C   0  0  0  0  0  0
  -18.0278  -28.1385   22.8489 C   0  0  0  0  0  0
  -24.1470  -36.7324   23.2649 C   0  0  0  0  0  0
  -25.9568  -30.7839   21.3773 C   0  0  0  0  0  0
  -26.0282  -29.4088   20.7221 C   0  0  0  0  0  0
  -27.2074  -28.6078   20.7196 C   0  0  0  0  0  0
  -26.0436  -26.8775   19.4841 C   0  0  0  0  0  0
  -24.8713  -27.6624   19.4920 C   0  0  0  0  0  0
  -23.6342  -29.8116   20.1573 C   0  0  0  0  0  0
  -25.4098  -36.3106   24.0336 C   0  0  1  0  0  0
  -20.5859  -28.3691   23.1284 C   0  0  2  0  0  0
  -20.6764  -26.9421   22.5420 C   0  0  0  0  0  0
  -19.5744  -26.6382   21.5214 C   0  0  0  0  0  0
  -18.1927  -26.7933   22.1618 C   0  0  0  0  0  0
  -19.1527  -28.8847   23.2882 C   0  0  0  0  0  0
  -18.9466  -30.1458   23.8911 C   0  0  0  0  0  0
  -17.6466  -30.6588   24.0568 C   0  0  0  0  0  0
  -25.9027  -34.9468   23.5109 C   0  0  0  0  0  0
  -16.5346  -29.9097   23.6335 C   0  0  0  0  0  0
  -16.7268  -28.6500   23.0360 C   0  0  0  0  0  0
  -26.4456  -31.6644   25.0760 C   0  0  0  0  0  0
  -25.3683  -31.3792   26.1498 C   0  0  0  0  0  0
  -27.0309  -30.3053   24.6256 C   0  0  0  0  0  0
  -27.5981  -32.4413   25.7530 C   0  0  0  0  0  0
  -27.5582  -37.1814   24.8442 C   0  0  0  0  0  0
  -21.4149  -29.3048   22.3675 N   0  0  0  0  0  0
  -26.4284  -37.3800   23.9407 N   0  0  0  0  0  0
  -24.6855  -31.0578   22.0997 N   0  0  0  0  0  0
  -23.4164  -28.8161   23.3015 O   0  0  0  0  0  0
  -28.3721  -26.5072   20.1987 O   0  0  0  0  0  0
  -26.5634  -34.8941   22.4700 O   0  0  0  0  0  0
  -23.5397  -32.1395   23.7341 O   0  0  0  0  0  0
  -29.6754  -18.1769   21.7570 C   0  0  0  0  0  0
  -29.7325  -17.6673   19.4349 C   0  0  0  0  0  0
  -29.4190  -20.0900   20.1279 C   0  0  0  0  0  0
  -29.8135  -17.1723   20.7556 C   0  0  0  0  0  0
  -29.5056  -19.5781   21.4684 C   0  0  0  0  0  0
  -29.5214  -19.0493   19.1318 C   0  0  0  0  0  0
  -28.3211  -22.5142   17.7133 C   0  0  0  0  0  0
  -27.2696  -23.1750   18.6187 C   0  0  0  0  0  0
  -29.5778  -21.9867   18.4273 C   0  0  0  0  0  0
  -28.8111  -22.6993   20.6126 C   0  0  0  0  0  0
  -27.9280  -23.8324   19.8629 C   0  0  1  0  0  0
  -28.5602  -25.2516   19.4452 C   0  0  0  0  0  0
  -29.2475  -21.5131   19.7793 N   0  0  0  0  0  0
  -29.4273  -20.4505   22.5593 N   0  0  0  0  0  0
  -29.8729  -15.7266   21.0784 N   0  0  0  0  0  0
  -28.1699  -22.4227   16.4926 O   0  0  0  0  0  0
  -29.3800  -19.3319   17.8143 F   0  0  0  0  0  0
  -31.4903  -12.5554   19.2047 H   0  0  0  0  0  0
  -30.3831  -11.4354   19.9309 H   0  0  0  0  0  0
  -29.8225  -11.7839   17.5066 H   0  0  0  0  0  0
  -29.6666  -13.4998   17.7702 H   0  0  0  0  0  0
  -27.8997  -11.2895   18.8729 H   0  0  0  0  0  0
  -27.4040  -12.5650   17.7908 H   0  0  0  0  0  0
  -27.6747  -14.2510   19.5231 H   0  0  0  0  0  0
  -28.7128  -12.0526   21.3694 H   0  0  0  0  0  0
  -28.4082  -13.6972   21.8592 H   0  0  0  0  0  0
  -25.2755   -9.5718   22.4725 H   0  0  0  0  0  0
  -24.0020   -7.4645   22.7453 H   0  0  0  0  0  0
  -21.0827   -8.8747   19.8953 H   0  0  0  0  0  0
  -22.3645  -10.9660   19.6156 H   0  0  0  0  0  0
  -21.2022   -7.6128   23.9713 H   0  0  0  0  0  0
  -21.1483   -6.0489   25.9069 H   0  0  0  0  0  0
  -22.0612   -2.7591   23.2821 H   0  0  0  0  0  0
  -22.4079  -11.9953   22.4866 H   0  0  0  0  0  0
  -21.1129  -13.1303   22.2507 H   0  0  0  0  0  0
  -24.6572  -15.8384   20.4653 H   0  0  0  0  0  0
  -26.2744  -15.6138   20.0339 H   0  0  0  0  0  0
  -26.7107  -32.5438   23.1110 H   0  0  0  0  0  0
  -24.9959  -33.9763   25.0360 H   0  0  0  0  0  0
  -22.7098  -31.2997   21.3975 H   0  0  0  0  0  0
  -23.3755  -35.9630   23.3289 H   0  0  0  0  0  0
  -24.3562  -36.8984   22.2063 H   0  0  0  0  0  0
  -23.7192  -37.6509   23.6693 H   0  0  0  0  0  0
  -26.0900  -31.5455   20.6068 H   0  0  0  0  0  0
  -26.8364  -30.8305   22.0100 H   0  0  0  0  0  0
  -28.0967  -28.9720   21.2143 H   0  0  0  0  0  0
  -25.9937  -25.9104   19.0097 H   0  0  0  0  0  0
  -23.9741  -27.2809   19.0229 H   0  0  0  0  0  0
  -23.7615  -30.5895   19.4027 H   0  0  0  0  0  0
  -22.7528  -29.2453   19.8515 H   0  0  0  0  0  0
  -25.1282  -36.1988   25.0837 H   0  0  0  0  0  0
  -20.9957  -28.3284   24.1399 H   0  0  0  0  0  0
  -20.5632  -26.2323   23.3625 H   0  0  0  0  0  0
  -21.6639  -26.7442   22.1224 H   0  0  0  0  0  0
  -19.6905  -25.6287   21.1268 H   0  0  0  0  0  0
  -19.6697  -27.3170   20.6718 H   0  0  0  0  0  0
  -17.4199  -26.6698   21.4010 H   0  0  0  0  0  0
  -18.0326  -26.0053   22.8983 H   0  0  0  0  0  0
  -19.7939  -30.7259   24.2291 H   0  0  0  0  0  0
  -17.5023  -31.6274   24.5176 H   0  0  0  0  0  0
  -15.5354  -30.3008   23.7640 H   0  0  0  0  0  0
  -15.8658  -28.0813   22.7094 H   0  0  0  0  0  0
  -24.5783  -30.7237   25.7823 H   0  0  0  0  0  0
  -24.8979  -32.2975   26.5011 H   0  0  0  0  0  0
  -25.7998  -30.8883   27.0230 H   0  0  0  0  0  0
  -26.2900  -29.6806   24.1250 H   0  0  0  0  0  0
  -27.3940  -29.7326   25.4804 H   0  0  0  0  0  0
  -27.8806  -30.4334   23.9543 H   0  0  0  0  0  0
  -27.2526  -33.3655   26.2185 H   0  0  0  0  0  0
  -28.3755  -32.7103   25.0356 H   0  0  0  0  0  0
  -28.0716  -31.8533   26.5411 H   0  0  0  0  0  0
  -28.2590  -38.0121   24.7527 H   0  0  0  0  0  0
  -28.1107  -36.2671   24.6224 H   0  0  0  0  0  0
  -27.2329  -37.1397   25.8852 H   0  0  0  0  0  0
  -20.9331  -29.8819   21.6933 H   0  0  0  0  0  0
  -26.0192  -38.2890   24.1420 H   0  0  0  0  0  0
  -29.7015  -17.8644   22.7908 H   0  0  0  0  0  0
  -29.7800  -16.9683   18.6149 H   0  0  0  0  0  0
  -26.5822  -22.3951   18.9438 H   0  0  0  0  0  0
  -26.6752  -23.8909   18.0509 H   0  0  0  0  0  0
  -30.2521  -22.8393   18.5282 H   0  0  0  0  0  0
  -30.1450  -21.2957   17.8071 H   0  0  0  0  0  0
  -28.2001  -22.3444   21.4426 H   0  0  0  0  0  0
  -29.6907  -23.1719   21.0553 H   0  0  0  0  0  0
  -27.1152  -24.0910   20.5416 H   0  0  0  0  0  0
  -28.2717  -25.4873   18.4208 H   0  0  0  0  0  0
  -29.6374  -25.1110   19.3799 H   0  0  0  0  0  0
  -29.5599  -20.1263   23.5106 H   0  0  0  0  0  0
  -29.6528  -21.4272   22.4046 H   0  0  0  0  0  0
  -29.1495  -15.4111   21.7100 H   0  0  0  0  0  0
  1 25  1  0  0  0
  1 30  2  0  0  0
  1 85  1  0  0  0
  2  3  1  0  0  0
  2 25  1  0  0  0
  2 88  1  0  0  0
  2 89  1  0  0  0
  3  4  1  0  0  0
  3 90  1  0  0  0
  3 91  1  0  0  0
  4  5  1  0  0  0
  4 92  1  0  0  0
  4 93  1  0  0  0
  5  6  1  0  0  0
  5 26  1  0  0  0
  5 94  1  0  0  0
  6 25  1  0  0  0
  6 95  1  0  0  0
  6 96  1  0  0  0
  7  8  2  0  0  0
  7 26  1  0  0  0
  7 29  1  0  0  0
  8  9  1  0  0  0
  8 22  1  0  0  0
  9 10  1  0  0  0
  9 27  2  0  0  0
 10 11  2  0  0  0
 10 15  1  0  0  0
 11 12  1  0  0  0
 11 97  1  0  0  0
 12 13  2  0  0  0
 12 98  1  0  0  0
 13 14  1  0  0  0
 13 31  1  0  0  0
 14 15  2  0  0  0
 14 99  1  0  0  0
 15100  1  0  0  0
 16 17  2  0  0  0
 16 21  1  0  0  0
 16 31  1  0  0  0
 17 18  1  0  0  0
 17101  1  0  0  0
 18 19  2  0  0  0
 18102  1  0  0  0
 19 20  1  0  0  0
 19 24  1  0  0  0
 20 21  2  0  0  0
 20103  1  0  0  0
 21 23  1  0  0  0
 22 28  1  0  0  0
 22 32  2  0  0  0
 26 27  1  0  0  0
 28104  1  0  0  0
 28105  1  0  0  0
 29106  1  0  0  0
 29107  1  0  0  0
 33 34  1  0  0  0
 33 66  1  0  0  0
 33 70  2  0  0  0
 34 36  1  0  0  0
 34 59  1  0  0  0
 34108  1  0  0  0
 35 44  2  0  0  0
 35 45  1  0  0  0
 35 68  1  0  0  0
 36 56  1  0  0  0
 36109  1  0  0  0
 37 39  1  0  0  0
 37 47  1  0  0  0
 37 66  1  0  0  0
 37110  1  0  0  0
 38 43  2  0  0  0
 38 46  1  0  0  0
 38 47  1  0  0  0
 39 64  1  0  0  0
 39 67  2  0  0  0
 40 52  1  0  0  0
 40 53  2  0  0  0
 40 58  1  0  0  0
 41111  1  0  0  0
 41112  1  0  0  0
 41113  1  0  0  0
 41 48  1  0  0  0
 42 43  1  0  0  0
 42 66  1  0  0  0
 42114  1  0  0  0
 42115  1  0  0  0
 43 44  1  0  0  0
 44116  1  0  0  0
 45 46  2  0  0  0
 45117  1  0  0  0
 46118  1  0  0  0
 47119  1  0  0  0
 47120  1  0  0  0
 48 56  1  0  0  0
 48 65  1  0  0  0
 48121  1  0  0  0
 49 50  1  0  0  0
 49 53  1  0  0  0
 49 64  1  0  0  0
 49122  1  0  0  0
 50 51  1  0  0  0
 50123  1  0  0  0
 50124  1  0  0  0
 51 52  1  0  0  0
 51125  1  0  0  0
 51126  1  0  0  0
 52127  1  0  0  0
 52128  1  0  0  0
 53 54  1  0  0  0
 54 55  2  0  0  0
 54129  1  0  0  0
 55 57  1  0  0  0
 55130  1  0  0  0
 56 69  2  0  0  0
 57 58  2  0  0  0
 57131  1  0  0  0
 58132  1  0  0  0
 59 60  1  0  0  0
 59 61  1  0  0  0
 59 62  1  0  0  0
 60133  1  0  0  0
 60134  1  0  0  0
 60135  1  0  0  0
 61136  1  0  0  0
 61137  1  0  0  0
 61138  1  0  0  0
 62139  1  0  0  0
 62140  1  0  0  0
 62141  1  0  0  0
 63 65  1  0  0  0
 63142  1  0  0  0
 63143  1  0  0  0
 63144  1  0  0  0
 64145  1  0  0  0
 65146  1  0  0  0
 68 82  1  0  0  0
 71 74  2  0  0  0
 71 75  1  0  0  0
 71147  1  0  0  0
 72 74  1  0  0  0
 72 76  2  0  0  0
 72148  1  0  0  0
 73 75  2  0  0  0
 73 76  1  0  0  0
 73 83  1  0  0  0
 74 85  1  0  0  0
 75 84  1  0  0  0
 76 87  1  0  0  0
 77 78  1  0  0  0
 77 79  1  0  0  0
 77 86  2  0  0  0
 78 81  1  0  0  0
 78149  1  0  0  0
 78150  1  0  0  0
 79 83  1  0  0  0
 79151  1  0  0  0
 79152  1  0  0  0
 80 81  1  0  0  0
 80 83  1  0  0  0
 80153  1  0  0  0
 80154  1  0  0  0
 81 82  1  0  0  0
 81155  1  0  0  0
 82156  1  0  0  0
 82157  1  0  0  0
 84158  1  0  0  0
 84159  1  0  0  0
 85160  1  0  0  0
M  ISO  4   1 100  68 101  82 101  85 100
M  END
> <chiral flag>
0

> <version>
0

> <s_m_source_file>
/data/baiqing/PycharmProjects/Reinvent-master-3.2/result/LINK_invent/BTK/process_docking_weight1_custom_product_contain_oxygen_bond_distance_aromatic_linkinvent_7_9_3/rearranged_h_0094.sdf

> <i_m_source_file_index>
4

> <r_mmod_Potential_Energy-OPLS-2005>
267.083099365234

> <r_mmod_Stretch_Energy-OPLS-2005>
109.376846313477

> <r_mmod_Bend_Energy-OPLS-2005>
213.574234008789

> <r_mmod_Torsional_Energy-OPLS-2005>
256.111145019531

> <r_mmod_Improper_Torsional_Energy-OPLS-2005>
5.42569875717163

> <r_mmod_Van_der_Waal_Energy-OPLS-2005>
159.412780761719

> <r_mmod_Electrostatic_Energy-OPLS-2005>
-290.157745361328

> <r_mmod_Solvation_Energy-OPLS-2005>
-244.59358215332

> <b_mmod_Minimization_Converged-OPLS-2005>
0

> <r_mmod_RMS_Derivative-OPLS-2005>
4.77193641662598

$$$$
4
                    3D
 Structure written by MMmdl.
154162  0  0  1  0            999 V2000
  -30.6914  -14.6332   20.5903 C   0  0  0  0  0  0
  -30.4348  -12.4185   19.4543 C   0  0  0  0  0  0
  -29.5081  -12.5202   18.2246 C   0  0  0  0  0  0
  -28.0341  -12.3444   18.6359 C   0  0  0  0  0  0
  -27.6527  -13.2181   19.8580 C   0  0  2  0  0  0
  -28.6921  -13.0775   20.9875 C   0  0  0  0  0  0
  -25.2587  -13.8173   20.5670 C   0  0  0  0  0  0
  -24.1837  -13.0434   20.9176 C   0  0  0  0  0  0
  -24.6401  -11.6912   20.8713 C   0  0  0  0  0  0
  -23.9063  -10.4297   21.0406 C   0  0  0  0  0  0
  -24.3622   -9.4216   21.9184 C   0  0  0  0  0  0
  -23.6304   -8.2250   22.0747 C   0  0  0  0  0  0
  -22.4280   -8.0284   21.3542 C   0  0  0  0  0  0
  -21.9918   -9.0252   20.4637 C   0  0  0  0  0  0
  -22.7237  -10.2137   20.3051 C   0  0  0  0  0  0
  -21.6850   -6.0756   22.5286 C   0  0  0  0  0  0
  -21.4011   -6.5655   23.8216 C   0  0  0  0  0  0
  -21.3658   -5.6796   24.9172 C   0  0  0  0  0  0
  -21.6031   -4.3062   24.7219 C   0  0  0  0  0  0
  -21.8813   -3.8159   23.4341 C   0  0  0  0  0  0
  -21.9197   -4.6987   22.3402 C   0  0  0  0  0  0
  -22.7867  -13.5242   21.1850 C   0  0  0  0  0  0
  -22.1659   -4.2172   21.0982 F   0  0  0  0  0  0
  -21.5628   -3.4539   25.7729 F   0  0  0  0  0  0
  -30.0125  -13.4396   20.4432 N   0  0  0  0  0  0
  -26.2994  -12.9337   20.3273 N   0  0  0  0  0  0
  -25.9330  -11.6498   20.5720 N   0  0  0  0  0  0
  -22.0518  -12.8217   22.0408 N   0  0  0  0  0  0
  -25.4314  -15.1885   20.4097 N   0  0  0  0  0  0
  -31.7724  -14.8024   20.0135 O   0  0  0  0  0  0
  -21.6628   -6.8896   21.4240 O   0  0  0  0  0  0
  -22.3563  -14.5562   20.6723 O   0  0  0  0  0  0
  -24.6253  -31.8613   23.2004 C   0  0  0  0  0  0
  -25.9098  -32.4783   23.8346 C   0  0  1  0  0  0
  -27.2219  -27.3088   20.1211 C   0  0  0  0  0  0
  -25.5940  -33.8587   24.2296 N   0  0  0  0  0  0
  -23.4193  -30.4815   21.5439 C   0  0  2  0  0  0
  -24.8667  -28.9248   20.1192 C   0  0  0  0  0  0
  -22.7474  -29.4644   22.4957 C   0  0  0  0  0  0
  -18.0306  -28.1356   22.8523 C   0  0  0  0  0  0
  -24.1504  -36.7276   23.2655 C   0  0  0  0  0  0
  -25.9620  -30.7856   21.3728 C   0  0  0  0  0  0
  -26.0353  -29.4086   20.7213 C   0  0  0  0  0  0
  -27.2191  -28.6111   20.7122 C   0  0  0  0  0  0
  -26.0322  -26.8717   19.5045 C   0  0  0  0  0  0
  -24.8650  -27.6609   19.5060 C   0  0  0  0  0  0
  -23.6347  -29.8056   20.1645 C   0  0  0  0  0  0
  -25.4124  -36.3074   24.0356 C   0  0  1  0  0  0
  -20.5904  -28.3680   23.1295 C   0  0  2  0  0  0
  -20.6796  -26.9406   22.5417 C   0  0  0  0  0  0
  -19.5767  -26.6380   21.5227 C   0  0  0  0  0  0
  -18.1940  -26.7920   22.1617 C   0  0  0  0  0  0
  -19.1557  -28.8830   23.2912 C   0  0  0  0  0  0
  -18.9469  -30.1441   23.8915 C   0  0  0  0  0  0
  -17.6461  -30.6580   24.0551 C   0  0  0  0  0  0
  -25.9064  -34.9455   23.5122 C   0  0  0  0  0  0
  -16.5358  -29.9068   23.6320 C   0  0  0  0  0  0
  -16.7289  -28.6467   23.0388 C   0  0  0  0  0  0
  -26.4489  -31.6575   25.0704 C   0  0  0  0  0  0
  -25.3725  -31.3654   26.1428 C   0  0  0  0  0  0
  -27.0345  -30.3006   24.6147 C   0  0  0  0  0  0
  -27.6072  -32.4306   25.7441 C   0  0  0  0  0  0
  -27.5584  -37.1805   24.8492 C   0  0  0  0  0  0
  -21.4196  -29.3052   22.3695 N   0  0  0  0  0  0
  -26.4295  -37.3769   23.9435 N   0  0  0  0  0  0
  -24.6877  -31.0619   22.0945 N   0  0  0  0  0  0
  -23.4190  -28.8214   23.3064 O   0  0  0  0  0  0
  -28.3352  -26.4601   20.0831 O   0  0  0  0  0  0
  -26.5628  -34.8916   22.4688 O   0  0  0  0  0  0
  -23.5420  -32.1405   23.7348 O   0  0  0  0  0  0
  -29.6358  -18.3564   22.0332 C   0  0  0  0  0  0
  -29.3840  -19.7120   21.6880 C   0  0  0  0  0  0
  -29.8127  -17.7637   19.7316 C   0  0  0  0  0  0
  -29.8715  -17.3082   21.0851 C   0  0  0  0  0  0
  -29.3337  -20.1532   20.3438 C   0  0  0  0  0  0
  -29.5497  -19.1371   19.3584 C   0  0  0  0  0  0
  -28.2220  -25.1362   20.5646 C   0  0  0  0  0  0
  -30.1783  -15.8462   21.5484 C   0  0  0  0  0  0
  -28.7530  -23.9945   20.0019 C   0  0  0  0  0  0
  -28.6529  -22.6497   20.6647 C   0  0  0  0  0  0
  -29.5502  -18.5791   17.0090 C   0  0  0  0  0  0
  -29.1314  -21.5662   19.9594 N   0  0  0  0  0  0
  -28.1637  -22.5082   21.7868 O   0  0  0  0  0  0
  -29.3958  -24.0933   18.8289 O   0  0  0  0  0  0
  -29.4904  -19.5573   18.0432 O   0  0  0  0  0  0
  -30.2066  -15.4541   23.1867 S   0  0  0  0  0  0
  -31.4752  -12.5366   19.1457 H   0  0  0  0  0  0
  -30.3771  -11.4221   19.8968 H   0  0  0  0  0  0
  -29.7807  -11.7682   17.4819 H   0  0  0  0  0  0
  -29.6402  -13.4880   17.7404 H   0  0  0  0  0  0
  -27.8808  -11.2903   18.8748 H   0  0  0  0  0  0
  -27.3770  -12.5649   17.7942 H   0  0  0  0  0  0
  -27.6702  -14.2537   19.5202 H   0  0  0  0  0  0
  -28.7151  -12.0516   21.3619 H   0  0  0  0  0  0
  -28.3889  -13.6911   21.8320 H   0  0  0  0  0  0
  -25.2769   -9.5695   22.4747 H   0  0  0  0  0  0
  -24.0005   -7.4649   22.7473 H   0  0  0  0  0  0
  -21.0845   -8.8774   19.8958 H   0  0  0  0  0  0
  -22.3692  -10.9674   19.6155 H   0  0  0  0  0  0
  -21.1990   -7.6161   23.9722 H   0  0  0  0  0  0
  -21.1475   -6.0527   25.9068 H   0  0  0  0  0  0
  -22.0591   -2.7622   23.2825 H   0  0  0  0  0  0
  -22.4142  -11.9867   22.4756 H   0  0  0  0  0  0
  -21.1139  -13.1234   22.2612 H   0  0  0  0  0  0
  -24.6737  -15.8518   20.5345 H   0  0  0  0  0  0
  -26.2909  -15.6254   20.1003 H   0  0  0  0  0  0
  -26.7152  -32.5431   23.1085 H   0  0  0  0  0  0
  -25.0145  -33.9769   25.0476 H   0  0  0  0  0  0
  -22.7112  -31.2995   21.3928 H   0  0  0  0  0  0
  -23.3803  -35.9580   23.3294 H   0  0  0  0  0  0
  -24.3595  -36.8893   22.2072 H   0  0  0  0  0  0
  -23.7215  -37.6465   23.6663 H   0  0  0  0  0  0
  -26.0984  -31.5429   20.6009 H   0  0  0  0  0  0
  -26.8422  -30.8348   22.0006 H   0  0  0  0  0  0
  -28.1213  -28.9831   21.1783 H   0  0  0  0  0  0
  -26.0098  -25.9020   19.0268 H   0  0  0  0  0  0
  -23.9676  -27.2850   19.0360 H   0  0  0  0  0  0
  -23.7459  -30.5744   19.4005 H   0  0  0  0  0  0
  -22.7556  -29.2315   19.8667 H   0  0  0  0  0  0
  -25.1292  -36.1921   25.0853 H   0  0  0  0  0  0
  -21.0002  -28.3239   24.1411 H   0  0  0  0  0  0
  -20.5711  -26.2304   23.3635 H   0  0  0  0  0  0
  -21.6649  -26.7444   22.1167 H   0  0  0  0  0  0
  -19.6941  -25.6302   21.1251 H   0  0  0  0  0  0
  -19.6671  -27.3194   20.6764 H   0  0  0  0  0  0
  -17.4219  -26.6741   21.3999 H   0  0  0  0  0  0
  -18.0281  -26.0020   22.8950 H   0  0  0  0  0  0
  -19.7941  -30.7283   24.2276 H   0  0  0  0  0  0
  -17.5003  -31.6265   24.5152 H   0  0  0  0  0  0
  -15.5357  -30.2970   23.7649 H   0  0  0  0  0  0
  -15.8682  -28.0780   22.7128 H   0  0  0  0  0  0
  -24.6003  -30.6874   25.7754 H   0  0  0  0  0  0
  -24.8790  -32.2765   26.4815 H   0  0  0  0  0  0
  -25.8088  -30.8889   27.0214 H   0  0  0  0  0  0
  -26.2894  -29.6734   24.1236 H   0  0  0  0  0  0
  -27.4122  -29.7273   25.4633 H   0  0  0  0  0  0
  -27.8717  -30.4325   23.9291 H   0  0  0  0  0  0
  -27.2745  -33.3690   26.1897 H   0  0  0  0  0  0
  -28.3903  -32.6739   25.0237 H   0  0  0  0  0  0
  -28.0703  -31.8491   26.5426 H   0  0  0  0  0  0
  -28.2599  -38.0109   24.7512 H   0  0  0  0  0  0
  -28.1060  -36.2631   24.6297 H   0  0  0  0  0  0
  -27.2307  -37.1391   25.8898 H   0  0  0  0  0  0
  -20.9408  -29.8718   21.6841 H   0  0  0  0  0  0
  -26.0182  -38.2857   24.1393 H   0  0  0  0  0  0
  -29.6533  -18.1514   23.0928 H   0  0  0  0  0  0
  -29.2479  -20.4194   22.4931 H   0  0  0  0  0  0
  -29.9884  -17.0241   18.9650 H   0  0  0  0  0  0
  -27.6702  -25.1065   21.4960 H   0  0  0  0  0  0
  -29.3600  -19.0587   16.0482 H   0  0  0  0  0  0
  -28.7945  -17.8020   17.1346 H   0  0  0  0  0  0
  -30.5375  -18.1187   16.9536 H   0  0  0  0  0  0
  -29.3819  -21.7886   19.0045 H   0  0  0  0  0  0
  -29.3601  -25.0079   18.5771 H   0  0  0  0  0  0
  1 25  1  0  0  0
  1 30  2  0  0  0
  1 78  1  0  0  0
  2  3  1  0  0  0
  2 25  1  0  0  0
  2 87  1  0  0  0
  2 88  1  0  0  0
  3  4  1  0  0  0
  3 89  1  0  0  0
  3 90  1  0  0  0
  4  5  1  0  0  0
  4 91  1  0  0  0
  4 92  1  0  0  0
  5  6  1  0  0  0
  5 26  1  0  0  0
  5 93  1  0  0  0
  6 25  1  0  0  0
  6 94  1  0  0  0
  6 95  1  0  0  0
  7  8  2  0  0  0
  7 26  1  0  0  0
  7 29  1  0  0  0
  8  9  1  0  0  0
  8 22  1  0  0  0
  9 10  1  0  0  0
  9 27  2  0  0  0
 10 11  2  0  0  0
 10 15  1  0  0  0
 11 12  1  0  0  0
 11 96  1  0  0  0
 12 13  2  0  0  0
 12 97  1  0  0  0
 13 14  1  0  0  0
 13 31  1  0  0  0
 14 15  2  0  0  0
 14 98  1  0  0  0
 15 99  1  0  0  0
 16 17  2  0  0  0
 16 21  1  0  0  0
 16 31  1  0  0  0
 17 18  1  0  0  0
 17100  1  0  0  0
 18 19  2  0  0  0
 18101  1  0  0  0
 19 20  1  0  0  0
 19 24  1  0  0  0
 20 21  2  0  0  0
 20102  1  0  0  0
 21 23  1  0  0  0
 22 28  1  0  0  0
 22 32  2  0  0  0
 26 27  1  0  0  0
 28103  1  0  0  0
 28104  1  0  0  0
 29105  1  0  0  0
 29106  1  0  0  0
 33 34  1  0  0  0
 33 66  1  0  0  0
 33 70  2  0  0  0
 34 36  1  0  0  0
 34 59  1  0  0  0
 34107  1  0  0  0
 35 44  2  0  0  0
 35 45  1  0  0  0
 35 68  1  0  0  0
 36 56  1  0  0  0
 36108  1  0  0  0
 37 39  1  0  0  0
 37 47  1  0  0  0
 37 66  1  0  0  0
 37109  1  0  0  0
 38 43  2  0  0  0
 38 46  1  0  0  0
 38 47  1  0  0  0
 39 64  1  0  0  0
 39 67  2  0  0  0
 40 52  1  0  0  0
 40 53  2  0  0  0
 40 58  1  0  0  0
 41110  1  0  0  0
 41111  1  0  0  0
 41112  1  0  0  0
 41 48  1  0  0  0
 42 43  1  0  0  0
 42 66  1  0  0  0
 42113  1  0  0  0
 42114  1  0  0  0
 43 44  1  0  0  0
 44115  1  0  0  0
 45 46  2  0  0  0
 45116  1  0  0  0
 46117  1  0  0  0
 47118  1  0  0  0
 47119  1  0  0  0
 48 56  1  0  0  0
 48 65  1  0  0  0
 48120  1  0  0  0
 49 50  1  0  0  0
 49 53  1  0  0  0
 49 64  1  0  0  0
 49121  1  0  0  0
 50 51  1  0  0  0
 50122  1  0  0  0
 50123  1  0  0  0
 51 52  1  0  0  0
 51124  1  0  0  0
 51125  1  0  0  0
 52126  1  0  0  0
 52127  1  0  0  0
 53 54  1  0  0  0
 54 55  2  0  0  0
 54128  1  0  0  0
 55 57  1  0  0  0
 55129  1  0  0  0
 56 69  2  0  0  0
 57 58  2  0  0  0
 57130  1  0  0  0
 58131  1  0  0  0
 59 60  1  0  0  0
 59 61  1  0  0  0
 59 62  1  0  0  0
 60132  1  0  0  0
 60133  1  0  0  0
 60134  1  0  0  0
 61135  1  0  0  0
 61136  1  0  0  0
 61137  1  0  0  0
 62138  1  0  0  0
 62139  1  0  0  0
 62140  1  0  0  0
 63 65  1  0  0  0
 63141  1  0  0  0
 63142  1  0  0  0
 63143  1  0  0  0
 64144  1  0  0  0
 65145  1  0  0  0
 68 77  1  0  0  0
 71 72  2  0  0  0
 71 74  1  0  0  0
 71146  1  0  0  0
 72 75  1  0  0  0
 72147  1  0  0  0
 73 74  2  0  0  0
 73 76  1  0  0  0
 73148  1  0  0  0
 74 78  1  0  0  0
 75 76  2  0  0  0
 75 82  1  0  0  0
 76 85  1  0  0  0
 77 79  2  0  0  0
 77149  1  0  0  0
 78 86  2  0  0  0
 79 80  1  0  0  0
 79 84  1  0  0  0
 80 82  1  0  0  0
 80 83  2  0  0  0
 81 85  1  0  0  0
 81150  1  0  0  0
 81151  1  0  0  0
 81152  1  0  0  0
 82153  1  0  0  0
 84154  1  0  0  0
M  ISO  4   1 100  68 101  77 101  78 100
M  END
> <chiral flag>
0

> <version>
0

> <s_m_source_file>
/data/baiqing/PycharmProjects/Reinvent-master-3.2/result/LINK_invent/BTK/process_docking_weight1_custom_product_contain_oxygen_bond_distance_aromatic_linkinvent_7_9_3/rearranged_h_0094.sdf

> <i_m_source_file_index>
5

> <r_mmod_Potential_Energy-OPLS-2005>
128.699996948242

> <r_mmod_Stretch_Energy-OPLS-2005>
103.80200958252

> <r_mmod_Bend_Energy-OPLS-2005>
152.426162719727

> <r_mmod_Torsional_Energy-OPLS-2005>
184.478378295898

> <r_mmod_Improper_Torsional_Energy-OPLS-2005>
4.08779716491699

> <r_mmod_Van_der_Waal_Energy-OPLS-2005>
161.022125244141

> <r_mmod_Electrostatic_Energy-OPLS-2005>
-309.048706054688

> <r_mmod_Solvation_Energy-OPLS-2005>
-214.599136352539

> <b_mmod_Minimization_Converged-OPLS-2005>
0

> <r_mmod_RMS_Derivative-OPLS-2005>
3.05411982536316

$$$$
5
                    3D
 Structure written by MMmdl.
156165  0  0  1  0            999 V2000
  -30.6649  -14.7566   20.5044 C   0  0  0  0  0  0
  -30.4383  -12.4990   19.4567 C   0  0  0  0  0  0
  -29.4919  -12.5196   18.2342 C   0  0  0  0  0  0
  -28.0260  -12.3155   18.6587 C   0  0  0  0  0  0
  -27.6399  -13.2267   19.8476 C   0  0  2  0  0  0
  -28.6861  -13.1487   20.9739 C   0  0  0  0  0  0
  -25.2513  -13.8198   20.5752 C   0  0  0  0  0  0
  -24.1774  -13.0460   20.9189 C   0  0  0  0  0  0
  -24.6371  -11.6958   20.8776 C   0  0  0  0  0  0
  -23.9024  -10.4342   21.0434 C   0  0  0  0  0  0
  -24.3596   -9.4244   21.9206 C   0  0  0  0  0  0
  -23.6295   -8.2265   22.0788 C   0  0  0  0  0  0
  -22.4283   -8.0295   21.3550 C   0  0  0  0  0  0
  -21.9893   -9.0262   20.4645 C   0  0  0  0  0  0
  -22.7200  -10.2157   20.3052 C   0  0  0  0  0  0
  -21.6866   -6.0731   22.5287 C   0  0  0  0  0  0
  -21.4000   -6.5628   23.8216 C   0  0  0  0  0  0
  -21.3656   -5.6787   24.9186 C   0  0  0  0  0  0
  -21.6034   -4.3056   24.7229 C   0  0  0  0  0  0
  -21.8816   -3.8145   23.4367 C   0  0  0  0  0  0
  -21.9195   -4.6954   22.3422 C   0  0  0  0  0  0
  -22.7790  -13.5268   21.1843 C   0  0  0  0  0  0
  -22.1682   -4.2122   21.1008 F   0  0  0  0  0  0
  -21.5625   -3.4569   25.7753 F   0  0  0  0  0  0
  -29.9938  -13.5460   20.4111 N   0  0  0  0  0  0
  -26.2927  -12.9398   20.3305 N   0  0  0  0  0  0
  -25.9289  -11.6566   20.5826 N   0  0  0  0  0  0
  -22.0437  -12.8249   22.0394 N   0  0  0  0  0  0
  -25.4271  -15.1919   20.4192 N   0  0  0  0  0  0
  -31.8115  -14.8411   20.0466 O   0  0  0  0  0  0
  -21.6660   -6.8877   21.4239 O   0  0  0  0  0  0
  -22.3504  -14.5635   20.6771 O   0  0  0  0  0  0
  -24.6317  -31.8561   23.2095 C   0  0  0  0  0  0
  -25.9170  -32.4741   23.8400 C   0  0  1  0  0  0
  -27.1841  -27.2419   20.1304 C   0  0  0  0  0  0
  -25.5978  -33.8554   24.2258 N   0  0  0  0  0  0
  -23.4220  -30.4936   21.5505 C   0  0  2  0  0  0
  -24.8577  -28.9507   20.1072 C   0  0  0  0  0  0
  -22.7461  -29.4639   22.4901 C   0  0  0  0  0  0
  -18.0290  -28.1397   22.8500 C   0  0  0  0  0  0
  -24.1503  -36.7248   23.2637 C   0  0  0  0  0  0
  -25.9748  -30.7641   21.3990 C   0  0  0  0  0  0
  -26.0367  -29.3995   20.7167 C   0  0  0  0  0  0
  -27.1978  -28.5569   20.7218 C   0  0  0  0  0  0
  -25.9702  -26.8655   19.5097 C   0  0  0  0  0  0
  -24.8315  -27.6907   19.4980 C   0  0  0  0  0  0
  -23.6387  -29.8496   20.1598 C   0  0  0  0  0  0
  -25.4143  -36.3041   24.0321 C   0  0  1  0  0  0
  -20.5900  -28.3727   23.1232 C   0  0  2  0  0  0
  -20.6839  -26.9447   22.5365 C   0  0  0  0  0  0
  -19.5780  -26.6373   21.5198 C   0  0  0  0  0  0
  -18.1974  -26.7926   22.1654 C   0  0  0  0  0  0
  -19.1554  -28.8877   23.2846 C   0  0  0  0  0  0
  -18.9462  -30.1499   23.8854 C   0  0  0  0  0  0
  -17.6459  -30.6586   24.0567 C   0  0  0  0  0  0
  -25.9112  -34.9431   23.5103 C   0  0  0  0  0  0
  -16.5371  -29.9077   23.6346 C   0  0  0  0  0  0
  -16.7271  -28.6515   23.0345 C   0  0  0  0  0  0
  -26.4505  -31.6631   25.0851 C   0  0  0  0  0  0
  -25.3702  -31.3849   26.1583 C   0  0  0  0  0  0
  -27.0383  -30.2997   24.6514 C   0  0  0  0  0  0
  -27.6023  -32.4423   25.7632 C   0  0  0  0  0  0
  -27.5584  -37.1811   24.8466 C   0  0  0  0  0  0
  -21.4166  -29.3066   22.3590 N   0  0  0  0  0  0
  -26.4293  -37.3753   23.9407 N   0  0  0  0  0  0
  -24.6943  -31.0564   22.1056 N   0  0  0  0  0  0
  -23.4174  -28.8186   23.2992 O   0  0  0  0  0  0
  -28.2701  -26.3280   20.2201 O   0  0  0  0  0  0
  -26.5634  -34.8890   22.4648 O   0  0  0  0  0  0
  -23.5488  -32.1382   23.7446 O   0  0  0  0  0  0
  -27.7877  -23.0364   21.2789 C   0  0  0  0  0  0
  -30.6779  -19.4518   19.8578 C   0  0  0  0  0  0
  -28.4721  -23.5640   20.1381 C   0  0  0  0  0  0
  -31.0105  -18.0353   20.0027 C   0  0  0  0  0  0
  -28.0931  -21.7005   21.4260 C   0  0  0  0  0  0
  -29.1625  -22.4316   19.6634 C   0  0  0  0  0  0
  -29.4296  -19.8297   20.3199 C   0  0  0  0  0  0
  -30.0257  -17.2265   20.5683 C   0  0  0  0  0  0
  -29.6347  -15.7947   22.4430 C   0  0  0  0  0  0
  -28.3225  -25.0150   19.4712 C   0  0  0  0  0  0
  -28.9467  -21.2367   20.4288 N   0  0  0  0  0  0
  -32.3013  -17.6043   19.6555 N   0  0  0  0  0  0
  -30.0303  -15.8908   21.0316 N   0  0  0  0  0  0
  -27.6437  -20.8498   22.3875 O   0  0  0  0  0  0
  -29.9427  -22.3870   18.5493 O   0  0  0  0  0  0
  -28.6328  -18.3208   20.8550 S   0  0  0  0  0  0
  -31.4659  -12.6419   19.1206 H   0  0  0  0  0  0
  -30.4342  -11.5262   19.9522 H   0  0  0  0  0  0
  -29.7876  -11.7488   17.5208 H   0  0  0  0  0  0
  -29.5750  -13.4760   17.7165 H   0  0  0  0  0  0
  -27.9121  -11.2699   18.9518 H   0  0  0  0  0  0
  -27.3438  -12.4650   17.8200 H   0  0  0  0  0  0
  -27.6396  -14.2494   19.4681 H   0  0  0  0  0  0
  -28.7476  -12.1433   21.3840 H   0  0  0  0  0  0
  -28.3570  -13.7651   21.8041 H   0  0  0  0  0  0
  -25.2712   -9.5747   22.4792 H   0  0  0  0  0  0
  -23.9996   -7.4675   22.7559 H   0  0  0  0  0  0
  -21.0797   -8.8757   19.8986 H   0  0  0  0  0  0
  -22.3646  -10.9677   19.6177 H   0  0  0  0  0  0
  -21.2012   -7.6149   23.9697 H   0  0  0  0  0  0
  -21.1462   -6.0563   25.9097 H   0  0  0  0  0  0
  -22.0603   -2.7606   23.2901 H   0  0  0  0  0  0
  -22.4040  -11.9796   22.4559 H   0  0  0  0  0  0
  -21.1097  -13.1323   22.2723 H   0  0  0  0  0  0
  -24.6797  -15.8623   20.5629 H   0  0  0  0  0  0
  -26.3038  -15.6224   20.1482 H   0  0  0  0  0  0
  -26.7258  -32.5305   23.1155 H   0  0  0  0  0  0
  -25.0167  -33.9698   25.0440 H   0  0  0  0  0  0
  -22.7167  -31.3196   21.4225 H   0  0  0  0  0  0
  -23.3776  -35.9581   23.3312 H   0  0  0  0  0  0
  -24.3560  -36.8852   22.2044 H   0  0  0  0  0  0
  -23.7279  -37.6459   23.6658 H   0  0  0  0  0  0
  -26.1557  -31.5474   20.6624 H   0  0  0  0  0  0
  -26.8308  -30.7666   22.0645 H   0  0  0  0  0  0
  -28.0916  -28.8979   21.2257 H   0  0  0  0  0  0
  -25.8083  -25.8902   19.0806 H   0  0  0  0  0  0
  -23.9239  -27.3281   19.0343 H   0  0  0  0  0  0
  -23.7747  -30.6420   19.4237 H   0  0  0  0  0  0
  -22.7469  -29.3036   19.8417 H   0  0  0  0  0  0
  -25.1333  -36.1877   25.0807 H   0  0  0  0  0  0
  -21.0018  -28.3347   24.1334 H   0  0  0  0  0  0
  -20.5785  -26.2366   23.3598 H   0  0  0  0  0  0
  -21.6684  -26.7524   22.1146 H   0  0  0  0  0  0
  -19.6924  -25.6295   21.1252 H   0  0  0  0  0  0
  -19.6670  -27.3151   20.6699 H   0  0  0  0  0  0
  -17.4222  -26.6660   21.4044 H   0  0  0  0  0  0
  -18.0372  -26.0076   22.9073 H   0  0  0  0  0  0
  -19.7926  -30.7322   24.2182 H   0  0  0  0  0  0
  -17.5001  -31.6259   24.5171 H   0  0  0  0  0  0
  -15.5358  -30.2943   23.7698 H   0  0  0  0  0  0
  -15.8689  -28.0799   22.7056 H   0  0  0  0  0  0
  -24.5851  -30.7218   25.7939 H   0  0  0  0  0  0
  -24.8951  -32.3062   26.4957 H   0  0  0  0  0  0
  -25.8004  -30.9062   27.0408 H   0  0  0  0  0  0
  -26.3062  -29.6730   24.1405 H   0  0  0  0  0  0
  -27.3785  -29.7305   25.5191 H   0  0  0  0  0  0
  -27.9058  -30.4166   24.0017 H   0  0  0  0  0  0
  -27.2573  -33.3702   26.2223 H   0  0  0  0  0  0
  -28.3851  -32.7056   25.0498 H   0  0  0  0  0  0
  -28.0718  -31.8594   26.5575 H   0  0  0  0  0  0
  -28.2596  -38.0088   24.7488 H   0  0  0  0  0  0
  -28.1080  -36.2646   24.6347 H   0  0  0  0  0  0
  -27.2298  -37.1521   25.8850 H   0  0  0  0  0  0
  -20.9379  -29.8778   21.6765 H   0  0  0  0  0  0
  -26.0166  -38.2828   24.1383 H   0  0  0  0  0  0
  -27.1016  -23.5760   21.9174 H   0  0  0  0  0  0
  -31.3987  -20.1649   19.4864 H   0  0  0  0  0  0
  -29.9505  -16.6800   22.9944 H   0  0  0  0  0  0
  -30.0935  -14.9422   22.9542 H   0  0  0  0  0  0
  -28.5488  -15.7352   22.5412 H   0  0  0  0  0  0
  -27.4985  -24.8894   18.7796 H   0  0  0  0  0  0
  -29.1789  -25.1293   18.8060 H   0  0  0  0  0  0
  -32.5832  -16.6529   19.9020 H   0  0  0  0  0  0
  -33.0722  -18.2574   19.5446 H   0  0  0  0  0  0
  -26.9708  -21.3010   22.8840 H   0  0  0  0  0  0
  -30.1753  -21.4823   18.3818 H   0  0  0  0  0  0
  1 25  1  0  0  0
  1 30  2  0  0  0
  1 83  1  0  0  0
  2  3  1  0  0  0
  2 25  1  0  0  0
  2 87  1  0  0  0
  2 88  1  0  0  0
  3  4  1  0  0  0
  3 89  1  0  0  0
  3 90  1  0  0  0
  4  5  1  0  0  0
  4 91  1  0  0  0
  4 92  1  0  0  0
  5  6  1  0  0  0
  5 26  1  0  0  0
  5 93  1  0  0  0
  6 25  1  0  0  0
  6 94  1  0  0  0
  6 95  1  0  0  0
  7  8  2  0  0  0
  7 26  1  0  0  0
  7 29  1  0  0  0
  8  9  1  0  0  0
  8 22  1  0  0  0
  9 10  1  0  0  0
  9 27  2  0  0  0
 10 11  2  0  0  0
 10 15  1  0  0  0
 11 12  1  0  0  0
 11 96  1  0  0  0
 12 13  2  0  0  0
 12 97  1  0  0  0
 13 14  1  0  0  0
 13 31  1  0  0  0
 14 15  2  0  0  0
 14 98  1  0  0  0
 15 99  1  0  0  0
 16 17  2  0  0  0
 16 21  1  0  0  0
 16 31  1  0  0  0
 17 18  1  0  0  0
 17100  1  0  0  0
 18 19  2  0  0  0
 18101  1  0  0  0
 19 20  1  0  0  0
 19 24  1  0  0  0
 20 21  2  0  0  0
 20102  1  0  0  0
 21 23  1  0  0  0
 22 28  1  0  0  0
 22 32  2  0  0  0
 26 27  1  0  0  0
 28103  1  0  0  0
 28104  1  0  0  0
 29105  1  0  0  0
 29106  1  0  0  0
 33 34  1  0  0  0
 33 66  1  0  0  0
 33 70  2  0  0  0
 34 36  1  0  0  0
 34 59  1  0  0  0
 34107  1  0  0  0
 35 44  2  0  0  0
 35 45  1  0  0  0
 35 68  1  0  0  0
 36 56  1  0  0  0
 36108  1  0  0  0
 37 39  1  0  0  0
 37 47  1  0  0  0
 37 66  1  0  0  0
 37109  1  0  0  0
 38 43  2  0  0  0
 38 46  1  0  0  0
 38 47  1  0  0  0
 39 64  1  0  0  0
 39 67  2  0  0  0
 40 52  1  0  0  0
 40 53  2  0  0  0
 40 58  1  0  0  0
 41110  1  0  0  0
 41111  1  0  0  0
 41112  1  0  0  0
 41 48  1  0  0  0
 42 43  1  0  0  0
 42 66  1  0  0  0
 42113  1  0  0  0
 42114  1  0  0  0
 43 44  1  0  0  0
 44115  1  0  0  0
 45 46  2  0  0  0
 45116  1  0  0  0
 46117  1  0  0  0
 47118  1  0  0  0
 47119  1  0  0  0
 48 56  1  0  0  0
 48 65  1  0  0  0
 48120  1  0  0  0
 49 50  1  0  0  0
 49 53  1  0  0  0
 49 64  1  0  0  0
 49121  1  0  0  0
 50 51  1  0  0  0
 50122  1  0  0  0
 50123  1  0  0  0
 51 52  1  0  0  0
 51124  1  0  0  0
 51125  1  0  0  0
 52126  1  0  0  0
 52127  1  0  0  0
 53 54  1  0  0  0
 54 55  2  0  0  0
 54128  1  0  0  0
 55 57  1  0  0  0
 55129  1  0  0  0
 56 69  2  0  0  0
 57 58  2  0  0  0
 57130  1  0  0  0
 58131  1  0  0  0
 59 60  1  0  0  0
 59 61  1  0  0  0
 59 62  1  0  0  0
 60132  1  0  0  0
 60133  1  0  0  0
 60134  1  0  0  0
 61135  1  0  0  0
 61136  1  0  0  0
 61137  1  0  0  0
 62138  1  0  0  0
 62139  1  0  0  0
 62140  1  0  0  0
 63 65  1  0  0  0
 63141  1  0  0  0
 63142  1  0  0  0
 63143  1  0  0  0
 64144  1  0  0  0
 65145  1  0  0  0
 68 80  1  0  0  0
 71 73  1  0  0  0
 71 75  2  0  0  0
 71146  1  0  0  0
 72 74  1  0  0  0
 72 77  2  0  0  0
 72147  1  0  0  0
 73 76  2  0  0  0
 73 80  1  0  0  0
 74 78  2  0  0  0
 74 82  1  0  0  0
 75 81  1  0  0  0
 75 84  1  0  0  0
 76 81  1  0  0  0
 76 85  1  0  0  0
 77 81  1  0  0  0
 77 86  1  0  0  0
 78 83  1  0  0  0
 78 86  1  0  0  0
 79 83  1  0  0  0
 79148  1  0  0  0
 79149  1  0  0  0
 79150  1  0  0  0
 80151  1  0  0  0
 80152  1  0  0  0
 82153  1  0  0  0
 82154  1  0  0  0
 84155  1  0  0  0
 85156  1  0  0  0
M  ISO  4   1 100  68 101  80 101  83 100
M  END
> <chiral flag>
0

> <version>
0

> <s_m_source_file>
/data/baiqing/PycharmProjects/Reinvent-master-3.2/result/LINK_invent/BTK/process_docking_weight1_custom_product_contain_oxygen_bond_distance_aromatic_linkinvent_7_9_3/rearranged_h_0094.sdf

> <i_m_source_file_index>
6

> <r_mmod_Potential_Energy-OPLS-2005>
283.718414306641

> <r_mmod_Stretch_Energy-OPLS-2005>
125.539756774902

> <r_mmod_Bend_Energy-OPLS-2005>
206.619323730469

> <r_mmod_Torsional_Energy-OPLS-2005>
297.488250732422

> <r_mmod_Improper_Torsional_Energy-OPLS-2005>
6.80011701583862

> <r_mmod_Van_der_Waal_Energy-OPLS-2005>
134.25309753418

> <r_mmod_Electrostatic_Energy-OPLS-2005>
-360.991485595703

> <r_mmod_Solvation_Energy-OPLS-2005>
-220.46044921875

> <b_mmod_Minimization_Converged-OPLS-2005>
0

> <r_mmod_RMS_Derivative-OPLS-2005>
8.80805587768555

$$$$
6
                    3D
 Structure written by MMmdl.
160169  0  0  1  0            999 V2000
  -30.6929  -14.6931   20.5355 C   0  0  0  0  0  0
  -30.4346  -12.4385   19.4668 C   0  0  0  0  0  0
  -29.5140  -12.5485   18.2279 C   0  0  0  0  0  0
  -28.0298  -12.3967   18.6279 C   0  0  0  0  0  0
  -27.6507  -13.2457   19.8720 C   0  0  2  0  0  0
  -28.7024  -13.1082   20.9939 C   0  0  0  0  0  0
  -25.2490  -13.8220   20.5766 C   0  0  0  0  0  0
  -24.1820  -13.0438   20.9242 C   0  0  0  0  0  0
  -24.6435  -11.6943   20.8717 C   0  0  0  0  0  0
  -23.9091  -10.4333   21.0388 C   0  0  0  0  0  0
  -24.3628   -9.4234   21.9173 C   0  0  0  0  0  0
  -23.6297   -8.2241   22.0740 C   0  0  0  0  0  0
  -22.4286   -8.0273   21.3545 C   0  0  0  0  0  0
  -21.9954   -9.0210   20.4616 C   0  0  0  0  0  0
  -22.7267  -10.2122   20.3024 C   0  0  0  0  0  0
  -21.6846   -6.0755   22.5328 C   0  0  0  0  0  0
  -21.4012   -6.5640   23.8297 C   0  0  0  0  0  0
  -21.3668   -5.6763   24.9236 C   0  0  0  0  0  0
  -21.6063   -4.3028   24.7263 C   0  0  0  0  0  0
  -21.8800   -3.8139   23.4372 C   0  0  0  0  0  0
  -21.9220   -4.6973   22.3458 C   0  0  0  0  0  0
  -22.7848  -13.5166   21.1929 C   0  0  0  0  0  0
  -22.1651   -4.2141   21.1020 F   0  0  0  0  0  0
  -21.5631   -3.4529   25.7779 F   0  0  0  0  0  0
  -30.0179  -13.4846   20.4312 N   0  0  0  0  0  0
  -26.2983  -12.9499   20.3328 N   0  0  0  0  0  0
  -25.9392  -11.6625   20.5717 N   0  0  0  0  0  0
  -22.0402  -12.8156   22.0372 N   0  0  0  0  0  0
  -25.3934  -15.2000   20.4372 N   0  0  0  0  0  0
  -31.7989  -14.8239   19.9947 O   0  0  0  0  0  0
  -21.6645   -6.8869   21.4254 O   0  0  0  0  0  0
  -22.3611  -14.5542   20.6838 O   0  0  0  0  0  0
  -24.6274  -31.8574   23.1923 C   0  0  0  0  0  0
  -25.9117  -32.4717   23.8277 C   0  0  1  0  0  0
  -27.2832  -27.3130   20.0983 C   0  0  0  0  0  0
  -25.5928  -33.8510   24.2184 N   0  0  0  0  0  0
  -23.4330  -30.4656   21.5300 C   0  0  2  0  0  0
  -24.9019  -28.9154   20.1200 C   0  0  0  0  0  0
  -22.7460  -29.4604   22.4835 C   0  0  0  0  0  0
  -18.0305  -28.1438   22.8473 C   0  0  0  0  0  0
  -24.1523  -36.7227   23.2640 C   0  0  0  0  0  0
  -25.9758  -30.7697   21.3848 C   0  0  0  0  0  0
  -26.0632  -29.3939   20.7348 C   0  0  0  0  0  0
  -27.2512  -28.5978   20.7331 C   0  0  0  0  0  0
  -26.1036  -26.9190   19.4185 C   0  0  0  0  0  0
  -24.9234  -27.6844   19.4568 C   0  0  0  0  0  0
  -23.6622  -29.7811   20.1554 C   0  0  0  0  0  0
  -25.4148  -36.3008   24.0305 C   0  0  1  0  0  0
  -20.5878  -28.3748   23.1257 C   0  0  2  0  0  0
  -20.6787  -26.9474   22.5395 C   0  0  0  0  0  0
  -19.5763  -26.6416   21.5185 C   0  0  0  0  0  0
  -18.1934  -26.7957   22.1626 C   0  0  0  0  0  0
  -19.1544  -28.8920   23.2859 C   0  0  0  0  0  0
  -18.9453  -30.1503   23.8914 C   0  0  0  0  0  0
  -17.6467  -30.6655   24.0589 C   0  0  0  0  0  0
  -25.9102  -34.9390   23.5045 C   0  0  0  0  0  0
  -16.5376  -29.9146   23.6367 C   0  0  0  0  0  0
  -16.7305  -28.6574   23.0369 C   0  0  0  0  0  0
  -26.4524  -31.6547   25.0648 C   0  0  0  0  0  0
  -25.3701  -31.3592   26.1300 C   0  0  0  0  0  0
  -27.0456  -30.2977   24.6158 C   0  0  0  0  0  0
  -27.6078  -32.4290   25.7435 C   0  0  0  0  0  0
  -27.5582  -37.1765   24.8465 C   0  0  0  0  0  0
  -21.4152  -29.3072   22.3599 N   0  0  0  0  0  0
  -26.4294  -37.3722   23.9418 N   0  0  0  0  0  0
  -24.6943  -31.0508   22.0932 N   0  0  0  0  0  0
  -23.4129  -28.8136   23.2958 O   0  0  0  0  0  0
  -28.4027  -26.4466   20.1566 O   0  0  0  0  0  0
  -26.5688  -34.8887   22.4613 O   0  0  0  0  0  0
  -23.5443  -32.1378   23.7190 O   0  0  0  0  0  0
  -29.7830  -19.2046   19.3577 C   0  0  0  0  0  0
  -30.6488  -23.8400   19.9983 C   0  0  0  0  0  0
  -30.3837  -18.2248   21.8677 C   0  0  0  0  0  0
  -29.8142  -17.7752   19.5903 C   0  0  0  0  0  0
  -29.2169  -23.8452   19.9418 C   0  0  0  0  0  0
  -30.0755  -20.1769   20.3627 C   0  0  0  0  0  0
  -30.1374  -17.2156   20.8723 C   0  0  0  0  0  0
  -30.3888  -19.6284   21.6252 C   0  0  0  0  0  0
  -31.0913  -22.5396   20.1116 C   0  0  0  0  0  0
  -28.8856  -22.4925   20.0656 C   0  0  0  0  0  0
  -29.3981  -16.8706   18.4386 C   0  0  0  0  0  0
  -30.0722  -15.4660   22.6968 C   0  0  0  0  0  0
  -28.2417  -25.0565   19.6461 C   0  0  0  0  0  0
  -30.0158  -21.6429   20.1754 N   0  0  0  0  0  0
  -30.1413  -15.7534   21.2462 N   0  0  0  0  0  0
  -32.3802  -22.0918   20.1621 O   0  0  0  0  0  0
  -27.6439  -21.9107   20.0397 O   0  0  0  0  0  0
  -30.6673  -20.4714   22.6542 F   0  0  0  0  0  0
  -31.4751  -12.5536   19.1669 H   0  0  0  0  0  0
  -30.3643  -11.4462   19.9174 H   0  0  0  0  0  0
  -29.7876  -11.7952   17.4894 H   0  0  0  0  0  0
  -29.6603  -13.5174   17.7551 H   0  0  0  0  0  0
  -27.8289  -11.3433   18.8182 H   0  0  0  0  0  0
  -27.3930  -12.6715   17.7858 H   0  0  0  0  0  0
  -27.6578  -14.2881   19.5597 H   0  0  0  0  0  0
  -28.7378  -12.0835   21.3672 H   0  0  0  0  0  0
  -28.4048  -13.7270   21.8330 H   0  0  0  0  0  0
  -25.2723   -9.5783   22.4870 H   0  0  0  0  0  0
  -24.0015   -7.4677   22.7516 H   0  0  0  0  0  0
  -21.0884   -8.8792   19.8903 H   0  0  0  0  0  0
  -22.3692  -10.9732   19.6183 H   0  0  0  0  0  0
  -21.1923   -7.6146   23.9797 H   0  0  0  0  0  0
  -21.1512   -6.0501   25.9174 H   0  0  0  0  0  0
  -22.0544   -2.7572   23.2926 H   0  0  0  0  0  0
  -22.3989  -11.9831   22.4856 H   0  0  0  0  0  0
  -21.0989  -13.1249   22.2462 H   0  0  0  0  0  0
  -24.5903  -15.8078   20.5650 H   0  0  0  0  0  0
  -26.2271  -15.6971   20.1452 H   0  0  0  0  0  0
  -26.7161  -32.5405   23.1017 H   0  0  0  0  0  0
  -25.0041  -33.9703   25.0302 H   0  0  0  0  0  0
  -22.7352  -31.2821   21.3615 H   0  0  0  0  0  0
  -23.3836  -35.9500   23.3230 H   0  0  0  0  0  0
  -24.3627  -36.8979   22.2076 H   0  0  0  0  0  0
  -23.7233  -37.6359   23.6776 H   0  0  0  0  0  0
  -26.1152  -31.5247   20.6070 H   0  0  0  0  0  0
  -26.8553  -30.8226   22.0187 H   0  0  0  0  0  0
  -28.1313  -28.9576   21.2455 H   0  0  0  0  0  0
  -26.0781  -26.0061   18.8357 H   0  0  0  0  0  0
  -24.0459  -27.3278   18.9394 H   0  0  0  0  0  0
  -23.7796  -30.5341   19.3774 H   0  0  0  0  0  0
  -22.7955  -29.1827   19.8637 H   0  0  0  0  0  0
  -25.1295  -36.1850   25.0786 H   0  0  0  0  0  0
  -20.9983  -28.3417   24.1364 H   0  0  0  0  0  0
  -20.5777  -26.2323   23.3554 H   0  0  0  0  0  0
  -21.6669  -26.7521   22.1232 H   0  0  0  0  0  0
  -19.6993  -25.6340   21.1168 H   0  0  0  0  0  0
  -19.6704  -27.3210   20.6691 H   0  0  0  0  0  0
  -17.4159  -26.6748   21.4070 H   0  0  0  0  0  0
  -18.0386  -26.0133   22.9069 H   0  0  0  0  0  0
  -19.7932  -30.7319   24.2332 H   0  0  0  0  0  0
  -17.5031  -31.6330   24.5181 H   0  0  0  0  0  0
  -15.5377  -30.3061   23.7699 H   0  0  0  0  0  0
  -15.8699  -28.0898   22.7048 H   0  0  0  0  0  0
  -24.5933  -30.6941   25.7498 H   0  0  0  0  0  0
  -24.8802  -32.2686   26.4775 H   0  0  0  0  0  0
  -25.7988  -30.8669   27.0029 H   0  0  0  0  0  0
  -26.3110  -29.6583   24.1248 H   0  0  0  0  0  0
  -27.4239  -29.7340   25.4697 H   0  0  0  0  0  0
  -27.8889  -30.4255   23.9360 H   0  0  0  0  0  0
  -27.2786  -33.3683   26.1882 H   0  0  0  0  0  0
  -28.3997  -32.6697   25.0322 H   0  0  0  0  0  0
  -28.0618  -31.8443   26.5458 H   0  0  0  0  0  0
  -28.2483  -38.0171   24.7629 H   0  0  0  0  0  0
  -28.1207  -36.2691   24.6195 H   0  0  0  0  0  0
  -27.2278  -37.1272   25.8855 H   0  0  0  0  0  0
  -20.9336  -29.8742   21.6742 H   0  0  0  0  0  0
  -26.0145  -38.2742   24.1548 H   0  0  0  0  0  0
  -29.5092  -19.5820   18.3817 H   0  0  0  0  0  0
  -31.2916  -24.7048   19.9275 H   0  0  0  0  0  0
  -30.5891  -17.9538   22.8856 H   0  0  0  0  0  0
  -29.1190  -17.4643   17.5704 H   0  0  0  0  0  0
  -28.5251  -16.2905   18.7112 H   0  0  0  0  0  0
  -30.1804  -16.1790   18.1234 H   0  0  0  0  0  0
  -30.8894  -15.9365   23.2499 H   0  0  0  0  0  0
  -30.1820  -14.4133   22.9481 H   0  0  0  0  0  0
  -29.1277  -15.8025   23.1147 H   0  0  0  0  0  0
  -27.2778  -24.6715   19.9648 H   0  0  0  0  0  0
  -28.2128  -25.1423   18.5609 H   0  0  0  0  0  0
  -32.9590  -22.8443   20.2134 H   0  0  0  0  0  0
  -26.9730  -22.5740   20.1721 H   0  0  0  0  0  0
  1 25  1  0  0  0
  1 30  2  0  0  0
  1 85  1  0  0  0
  2  3  1  0  0  0
  2 25  1  0  0  0
  2 89  1  0  0  0
  2 90  1  0  0  0
  3  4  1  0  0  0
  3 91  1  0  0  0
  3 92  1  0  0  0
  4  5  1  0  0  0
  4 93  1  0  0  0
  4 94  1  0  0  0
  5  6  1  0  0  0
  5 26  1  0  0  0
  5 95  1  0  0  0
  6 25  1  0  0  0
  6 96  1  0  0  0
  6 97  1  0  0  0
  7  8  2  0  0  0
  7 26  1  0  0  0
  7 29  1  0  0  0
  8  9  1  0  0  0
  8 22  1  0  0  0
  9 10  1  0  0  0
  9 27  2  0  0  0
 10 11  2  0  0  0
 10 15  1  0  0  0
 11 12  1  0  0  0
 11 98  1  0  0  0
 12 13  2  0  0  0
 12 99  1  0  0  0
 13 14  1  0  0  0
 13 31  1  0  0  0
 14 15  2  0  0  0
 14100  1  0  0  0
 15101  1  0  0  0
 16 17  2  0  0  0
 16 21  1  0  0  0
 16 31  1  0  0  0
 17 18  1  0  0  0
 17102  1  0  0  0
 18 19  2  0  0  0
 18103  1  0  0  0
 19 20  1  0  0  0
 19 24  1  0  0  0
 20 21  2  0  0  0
 20104  1  0  0  0
 21 23  1  0  0  0
 22 28  1  0  0  0
 22 32  2  0  0  0
 26 27  1  0  0  0
 28105  1  0  0  0
 28106  1  0  0  0
 29107  1  0  0  0
 29108  1  0  0  0
 33 34  1  0  0  0
 33 66  1  0  0  0
 33 70  2  0  0  0
 34 36  1  0  0  0
 34 59  1  0  0  0
 34109  1  0  0  0
 35 44  2  0  0  0
 35 45  1  0  0  0
 35 68  1  0  0  0
 36 56  1  0  0  0
 36110  1  0  0  0
 37 39  1  0  0  0
 37 47  1  0  0  0
 37 66  1  0  0  0
 37111  1  0  0  0
 38 43  2  0  0  0
 38 46  1  0  0  0
 38 47  1  0  0  0
 39 64  1  0  0  0
 39 67  2  0  0  0
 40 52  1  0  0  0
 40 53  2  0  0  0
 40 58  1  0  0  0
 41112  1  0  0  0
 41113  1  0  0  0
 41114  1  0  0  0
 41 48  1  0  0  0
 42 43  1  0  0  0
 42 66  1  0  0  0
 42115  1  0  0  0
 42116  1  0  0  0
 43 44  1  0  0  0
 44117  1  0  0  0
 45 46  2  0  0  0
 45118  1  0  0  0
 46119  1  0  0  0
 47120  1  0  0  0
 47121  1  0  0  0
 48 56  1  0  0  0
 48 65  1  0  0  0
 48122  1  0  0  0
 49 50  1  0  0  0
 49 53  1  0  0  0
 49 64  1  0  0  0
 49123  1  0  0  0
 50 51  1  0  0  0
 50124  1  0  0  0
 50125  1  0  0  0
 51 52  1  0  0  0
 51126  1  0  0  0
 51127  1  0  0  0
 52128  1  0  0  0
 52129  1  0  0  0
 53 54  1  0  0  0
 54 55  2  0  0  0
 54130  1  0  0  0
 55 57  1  0  0  0
 55131  1  0  0  0
 56 69  2  0  0  0
 57 58  2  0  0  0
 57132  1  0  0  0
 58133  1  0  0  0
 59 60  1  0  0  0
 59 61  1  0  0  0
 59 62  1  0  0  0
 60134  1  0  0  0
 60135  1  0  0  0
 60136  1  0  0  0
 61137  1  0  0  0
 61138  1  0  0  0
 61139  1  0  0  0
 62140  1  0  0  0
 62141  1  0  0  0
 62142  1  0  0  0
 63 65  1  0  0  0
 63143  1  0  0  0
 63144  1  0  0  0
 63145  1  0  0  0
 64146  1  0  0  0
 65147  1  0  0  0
 68 83  1  0  0  0
 71 74  2  0  0  0
 71 76  1  0  0  0
 71148  1  0  0  0
 72 75  1  0  0  0
 72 79  2  0  0  0
 72149  1  0  0  0
 73 77  2  0  0  0
 73 78  1  0  0  0
 73150  1  0  0  0
 74 77  1  0  0  0
 74 81  1  0  0  0
 75 80  2  0  0  0
 75 83  1  0  0  0
 76 78  2  0  0  0
 76 84  1  0  0  0
 77 85  1  0  0  0
 78 88  1  0  0  0
 79 84  1  0  0  0
 79 86  1  0  0  0
 80 84  1  0  0  0
 80 87  1  0  0  0
 81151  1  0  0  0
 81152  1  0  0  0
 81153  1  0  0  0
 82 85  1  0  0  0
 82154  1  0  0  0
 82155  1  0  0  0
 82156  1  0  0  0
 83157  1  0  0  0
 83158  1  0  0  0
 86159  1  0  0  0
 87160  1  0  0  0
M  ISO  4   1 100  68 101  83 101  85 100
M  END
> <chiral flag>
0

> <version>
0

> <s_m_source_file>
/data/baiqing/PycharmProjects/Reinvent-master-3.2/result/LINK_invent/BTK/process_docking_weight1_custom_product_contain_oxygen_bond_distance_aromatic_linkinvent_7_9_3/rearranged_h_0094.sdf

> <i_m_source_file_index>
7

> <r_mmod_Potential_Energy-OPLS-2005>
306.979705810547

> <r_mmod_Stretch_Energy-OPLS-2005>
116.1103515625

> <r_mmod_Bend_Energy-OPLS-2005>
175.722274780273

> <r_mmod_Torsional_Energy-OPLS-2005>
298.149749755859

> <r_mmod_Improper_Torsional_Energy-OPLS-2005>
4.50398874282837

> <r_mmod_Van_der_Waal_Energy-OPLS-2005>
151.856887817383

> <r_mmod_Electrostatic_Energy-OPLS-2005>
-280.572479248047

> <r_mmod_Solvation_Energy-OPLS-2005>
-220.044250488281

> <b_mmod_Minimization_Converged-OPLS-2005>
0

> <r_mmod_RMS_Derivative-OPLS-2005>
11.5925598144531

$$$$
7
                    3D
 Structure written by MMmdl.
157165  0  0  1  0            999 V2000
  -30.5852  -14.7698   20.3791 C   0  0  0  0  0  0
  -30.4374  -12.4550   19.4310 C   0  0  0  0  0  0
  -29.4829  -12.3901   18.2166 C   0  0  0  0  0  0
  -28.0003  -12.3013   18.6388 C   0  0  0  0  0  0
  -27.6256  -13.2197   19.8318 C   0  0  2  0  0  0
  -28.6929  -13.1653   20.9385 C   0  0  0  0  0  0
  -25.2423  -13.8210   20.5652 C   0  0  0  0  0  0
  -24.1746  -13.0459   20.9240 C   0  0  0  0  0  0
  -24.6343  -11.6925   20.8845 C   0  0  0  0  0  0
  -23.9036  -10.4307   21.0470 C   0  0  0  0  0  0
  -24.3603   -9.4201   21.9207 C   0  0  0  0  0  0
  -23.6301   -8.2223   22.0748 C   0  0  0  0  0  0
  -22.4276   -8.0269   21.3548 C   0  0  0  0  0  0
  -21.9922   -9.0253   20.4646 C   0  0  0  0  0  0
  -22.7235  -10.2141   20.3085 C   0  0  0  0  0  0
  -21.6866   -6.0736   22.5265 C   0  0  0  0  0  0
  -21.4029   -6.5639   23.8199 C   0  0  0  0  0  0
  -21.3662   -5.6784   24.9158 C   0  0  0  0  0  0
  -21.6045   -4.3050   24.7217 C   0  0  0  0  0  0
  -21.8817   -3.8150   23.4339 C   0  0  0  0  0  0
  -21.9195   -4.6971   22.3394 C   0  0  0  0  0  0
  -22.7744  -13.5233   21.1853 C   0  0  0  0  0  0
  -22.1647   -4.2162   21.0976 F   0  0  0  0  0  0
  -21.5611   -3.4516   25.7726 F   0  0  0  0  0  0
  -29.9635  -13.5406   20.3098 N   0  0  0  0  0  0
  -26.2863  -12.9368   20.3308 N   0  0  0  0  0  0
  -25.9269  -11.6541   20.5865 N   0  0  0  0  0  0
  -22.0394  -12.8245   22.0416 N   0  0  0  0  0  0
  -25.4062  -15.1933   20.3904 N   0  0  0  0  0  0
  -31.8180  -14.8163   20.3459 O   0  0  0  0  0  0
  -21.6646   -6.8865   21.4217 O   0  0  0  0  0  0
  -22.3433  -14.5520   20.6664 O   0  0  0  0  0  0
  -24.6290  -31.8611   23.2037 C   0  0  0  0  0  0
  -25.9118  -32.4777   23.8386 C   0  0  1  0  0  0
  -27.1979  -27.2675   20.1325 C   0  0  0  0  0  0
  -25.5915  -33.8588   24.2285 N   0  0  0  0  0  0
  -23.4247  -30.4873   21.5482 C   0  0  2  0  0  0
  -24.8696  -28.9427   20.1091 C   0  0  0  0  0  0
  -22.7502  -29.4621   22.4926 C   0  0  0  0  0  0
  -18.0307  -28.1390   22.8513 C   0  0  0  0  0  0
  -24.1486  -36.7281   23.2639 C   0  0  0  0  0  0
  -25.9719  -30.7735   21.3888 C   0  0  0  0  0  0
  -26.0418  -29.4003   20.7250 C   0  0  0  0  0  0
  -27.2133  -28.5756   20.7267 C   0  0  0  0  0  0
  -26.0140  -26.8943   19.4599 C   0  0  0  0  0  0
  -24.8606  -27.6987   19.4651 C   0  0  0  0  0  0
  -23.6429  -29.8321   20.1618 C   0  0  0  0  0  0
  -25.4108  -36.3082   24.0341 C   0  0  1  0  0  0
  -20.5905  -28.3689   23.1286 C   0  0  2  0  0  0
  -20.6800  -26.9418   22.5411 C   0  0  0  0  0  0
  -19.5758  -26.6382   21.5232 C   0  0  0  0  0  0
  -18.1933  -26.7934   22.1647 C   0  0  0  0  0  0
  -19.1552  -28.8860   23.2895 C   0  0  0  0  0  0
  -18.9471  -30.1469   23.8911 C   0  0  0  0  0  0
  -17.6459  -30.6603   24.0558 C   0  0  0  0  0  0
  -25.9051  -34.9454   23.5113 C   0  0  0  0  0  0
  -16.5356  -29.9098   23.6324 C   0  0  0  0  0  0
  -16.7286  -28.6503   23.0374 C   0  0  0  0  0  0
  -26.4464  -31.6602   25.0780 C   0  0  0  0  0  0
  -25.3661  -31.3805   26.1484 C   0  0  0  0  0  0
  -27.0311  -30.3006   24.6296 C   0  0  0  0  0  0
  -27.6010  -32.4357   25.7547 C   0  0  0  0  0  0
  -27.5576  -37.1806   24.8460 C   0  0  0  0  0  0
  -21.4202  -29.3030   22.3670 N   0  0  0  0  0  0
  -26.4285  -37.3774   23.9414 N   0  0  0  0  0  0
  -24.6943  -31.0594   22.1014 N   0  0  0  0  0  0
  -23.4200  -28.8189   23.3040 O   0  0  0  0  0  0
  -28.2642  -26.3427   20.1885 O   0  0  0  0  0  0
  -26.5628  -34.8915   22.4679 O   0  0  0  0  0  0
  -23.5439  -32.1442   23.7316 O   0  0  0  0  0  0
  -28.7080  -16.9119   21.8745 C   0  0  0  0  0  0
  -29.6177  -18.4877   20.2656 C   0  0  0  0  0  0
  -29.4635  -17.1002   20.7039 C   0  0  0  0  0  0
  -28.1313  -18.0058   22.5483 C   0  0  0  0  0  0
  -28.3014  -19.3457   22.1076 C   0  0  0  0  0  0
  -29.0553  -19.6536   20.9354 C   0  0  0  0  0  0
  -29.6257  -16.0002   18.6062 C   0  0  0  0  0  0
  -28.9201  -23.6751   20.2501 C   0  0  0  0  0  0
  -27.9410  -24.9190   20.5654 C   0  0  0  0  0  0
  -28.5607  -22.2190   20.8676 C   0  0  0  0  0  0
  -27.3273  -17.7574   23.6630 N   0  0  0  0  0  0
  -27.6882  -20.3068   22.9124 N   0  0  0  0  0  0
  -29.8723  -15.8940   19.9321 N   0  0  0  0  0  0
  -30.3632  -15.6022   17.6968 O   0  0  0  0  0  0
  -29.2710  -20.9773   20.4193 O   0  0  0  0  0  0
  -31.4580  -12.6287   19.0840 H   0  0  0  0  0  0
  -30.4485  -11.5054   19.9697 H   0  0  0  0  0  0
  -29.7299  -11.5162   17.6107 H   0  0  0  0  0  0
  -29.6273  -13.2423   17.5602 H   0  0  0  0  0  0
  -27.8061  -11.2601   18.9023 H   0  0  0  0  0  0
  -27.3501  -12.5069   17.7865 H   0  0  0  0  0  0
  -27.5970  -14.2329   19.4411 H   0  0  0  0  0  0
  -28.7544  -12.1650   21.3673 H   0  0  0  0  0  0
  -28.4497  -13.8303   21.7655 H   0  0  0  0  0  0
  -25.2735   -9.5697   22.4801 H   0  0  0  0  0  0
  -24.0015   -7.4637   22.7490 H   0  0  0  0  0  0
  -21.0821   -8.8796   19.8985 H   0  0  0  0  0  0
  -22.3684  -10.9688   19.6236 H   0  0  0  0  0  0
  -21.2034   -7.6155   23.9703 H   0  0  0  0  0  0
  -21.1476   -6.0515   25.9059 H   0  0  0  0  0  0
  -22.0612   -2.7618   23.2816 H   0  0  0  0  0  0
  -22.3966  -11.9931   22.4872 H   0  0  0  0  0  0
  -21.1017  -13.1292   22.2602 H   0  0  0  0  0  0
  -24.6133  -15.8238   20.4432 H   0  0  0  0  0  0
  -26.2368  -15.6384   20.0267 H   0  0  0  0  0  0
  -26.7176  -32.5419   23.1131 H   0  0  0  0  0  0
  -25.0012  -33.9731   25.0392 H   0  0  0  0  0  0
  -22.7185  -31.3103   21.4126 H   0  0  0  0  0  0
  -23.3757  -35.9596   23.3290 H   0  0  0  0  0  0
  -24.3577  -36.8913   22.2050 H   0  0  0  0  0  0
  -23.7222  -37.6481   23.6661 H   0  0  0  0  0  0
  -26.1180  -31.5410   20.6265 H   0  0  0  0  0  0
  -26.8429  -30.8073   22.0319 H   0  0  0  0  0  0
  -28.1074  -28.9194   21.2297 H   0  0  0  0  0  0
  -25.9527  -25.9598   18.9222 H   0  0  0  0  0  0
  -23.9636  -27.3549   18.9685 H   0  0  0  0  0  0
  -23.7744  -30.6176   19.4155 H   0  0  0  0  0  0
  -22.7573  -29.2768   19.8498 H   0  0  0  0  0  0
  -25.1279  -36.1938   25.0837 H   0  0  0  0  0  0
  -20.9997  -28.3270   24.1410 H   0  0  0  0  0  0
  -20.5750  -26.2294   23.3623 H   0  0  0  0  0  0
  -21.6654  -26.7503   22.1164 H   0  0  0  0  0  0
  -19.6911  -25.6295   21.1266 H   0  0  0  0  0  0
  -19.6673  -27.3208   20.6784 H   0  0  0  0  0  0
  -17.4219  -26.6713   21.4043 H   0  0  0  0  0  0
  -18.0313  -26.0072   22.9039 H   0  0  0  0  0  0
  -19.7942  -30.7289   24.2271 H   0  0  0  0  0  0
  -17.5021  -31.6287   24.5163 H   0  0  0  0  0  0
  -15.5352  -30.3004   23.7642 H   0  0  0  0  0  0
  -15.8691  -28.0825   22.7085 H   0  0  0  0  0  0
  -24.5791  -30.7208   25.7812 H   0  0  0  0  0  0
  -24.8894  -32.3009   26.4878 H   0  0  0  0  0  0
  -25.7912  -30.8991   27.0296 H   0  0  0  0  0  0
  -26.2948  -29.6785   24.1192 H   0  0  0  0  0  0
  -27.3835  -29.7234   25.4851 H   0  0  0  0  0  0
  -27.8880  -30.4264   23.9668 H   0  0  0  0  0  0
  -27.2594  -33.3651   26.2122 H   0  0  0  0  0  0
  -28.3804  -32.6943   25.0366 H   0  0  0  0  0  0
  -28.0689  -31.8502   26.5474 H   0  0  0  0  0  0
  -28.2587  -38.0109   24.7519 H   0  0  0  0  0  0
  -28.1092  -36.2651   24.6272 H   0  0  0  0  0  0
  -27.2315  -37.1438   25.8869 H   0  0  0  0  0  0
  -20.9406  -29.8727   21.6845 H   0  0  0  0  0  0
  -26.0171  -38.2850   24.1415 H   0  0  0  0  0  0
  -28.5042  -15.9151   22.2321 H   0  0  0  0  0  0
  -30.1646  -18.6830   19.3557 H   0  0  0  0  0  0
  -28.6898  -16.5548   18.4267 H   0  0  0  0  0  0
  -29.9147  -23.9416   20.6040 H   0  0  0  0  0  0
  -29.0069  -23.5877   19.1671 H   0  0  0  0  0  0
  -27.7751  -24.9254   21.6423 H   0  0  0  0  0  0
  -26.9758  -24.6149   20.1648 H   0  0  0  0  0  0
  -27.4919  -22.0451   20.7345 H   0  0  0  0  0  0
  -28.7230  -22.3392   21.9389 H   0  0  0  0  0  0
  -26.9921  -16.8034   23.7446 H   0  0  0  0  0  0
  -26.5434  -18.3963   23.7103 H   0  0  0  0  0  0
  -27.4336  -19.8946   23.8040 H   0  0  0  0  0  0
  -28.2482  -21.1379   23.0633 H   0  0  0  0  0  0
  1 25  1  0  0  0
  1 30  2  0  0  0
  1 83  1  0  0  0
  2  3  1  0  0  0
  2 25  1  0  0  0
  2 86  1  0  0  0
  2 87  1  0  0  0
  3  4  1  0  0  0
  3 88  1  0  0  0
  3 89  1  0  0  0
  4  5  1  0  0  0
  4 90  1  0  0  0
  4 91  1  0  0  0
  5  6  1  0  0  0
  5 26  1  0  0  0
  5 92  1  0  0  0
  6 25  1  0  0  0
  6 93  1  0  0  0
  6 94  1  0  0  0
  7  8  2  0  0  0
  7 26  1  0  0  0
  7 29  1  0  0  0
  8  9  1  0  0  0
  8 22  1  0  0  0
  9 10  1  0  0  0
  9 27  2  0  0  0
 10 11  2  0  0  0
 10 15  1  0  0  0
 11 12  1  0  0  0
 11 95  1  0  0  0
 12 13  2  0  0  0
 12 96  1  0  0  0
 13 14  1  0  0  0
 13 31  1  0  0  0
 14 15  2  0  0  0
 14 97  1  0  0  0
 15 98  1  0  0  0
 16 17  2  0  0  0
 16 21  1  0  0  0
 16 31  1  0  0  0
 17 18  1  0  0  0
 17 99  1  0  0  0
 18 19  2  0  0  0
 18100  1  0  0  0
 19 20  1  0  0  0
 19 24  1  0  0  0
 20 21  2  0  0  0
 20101  1  0  0  0
 21 23  1  0  0  0
 22 28  1  0  0  0
 22 32  2  0  0  0
 26 27  1  0  0  0
 28102  1  0  0  0
 28103  1  0  0  0
 29104  1  0  0  0
 29105  1  0  0  0
 33 34  1  0  0  0
 33 66  1  0  0  0
 33 70  2  0  0  0
 34 36  1  0  0  0
 34 59  1  0  0  0
 34106  1  0  0  0
 35 44  2  0  0  0
 35 45  1  0  0  0
 35 68  1  0  0  0
 36 56  1  0  0  0
 36107  1  0  0  0
 37 39  1  0  0  0
 37 47  1  0  0  0
 37 66  1  0  0  0
 37108  1  0  0  0
 38 43  2  0  0  0
 38 46  1  0  0  0
 38 47  1  0  0  0
 39 64  1  0  0  0
 39 67  2  0  0  0
 40 52  1  0  0  0
 40 53  2  0  0  0
 40 58  1  0  0  0
 41109  1  0  0  0
 41110  1  0  0  0
 41111  1  0  0  0
 41 48  1  0  0  0
 42 43  1  0  0  0
 42 66  1  0  0  0
 42112  1  0  0  0
 42113  1  0  0  0
 43 44  1  0  0  0
 44114  1  0  0  0
 45 46  2  0  0  0
 45115  1  0  0  0
 46116  1  0  0  0
 47117  1  0  0  0
 47118  1  0  0  0
 48 56  1  0  0  0
 48 65  1  0  0  0
 48119  1  0  0  0
 49 50  1  0  0  0
 49 53  1  0  0  0
 49 64  1  0  0  0
 49120  1  0  0  0
 50 51  1  0  0  0
 50121  1  0  0  0
 50122  1  0  0  0
 51 52  1  0  0  0
 51123  1  0  0  0
 51124  1  0  0  0
 52125  1  0  0  0
 52126  1  0  0  0
 53 54  1  0  0  0
 54 55  2  0  0  0
 54127  1  0  0  0
 55 57  1  0  0  0
 55128  1  0  0  0
 56 69  2  0  0  0
 57 58  2  0  0  0
 57129  1  0  0  0
 58130  1  0  0  0
 59 60  1  0  0  0
 59 61  1  0  0  0
 59 62  1  0  0  0
 60131  1  0  0  0
 60132  1  0  0  0
 60133  1  0  0  0
 61134  1  0  0  0
 61135  1  0  0  0
 61136  1  0  0  0
 62137  1  0  0  0
 62138  1  0  0  0
 62139  1  0  0  0
 63 65  1  0  0  0
 63140  1  0  0  0
 63141  1  0  0  0
 63142  1  0  0  0
 64143  1  0  0  0
 65144  1  0  0  0
 68 79  1  0  0  0
 71 73  2  0  0  0
 71 74  1  0  0  0
 71145  1  0  0  0
 72 73  1  0  0  0
 72 76  2  0  0  0
 72146  1  0  0  0
 73 83  1  0  0  0
 74 75  2  0  0  0
 74 81  1  0  0  0
 75 76  1  0  0  0
 75 82  1  0  0  0
 76 85  1  0  0  0
 77 83  1  0  0  0
 77 84  2  0  0  0
 77147  1  0  0  0
 78 79  1  0  0  0
 78 80  1  0  0  0
 78148  1  0  0  0
 78149  1  0  0  0
 79150  1  0  0  0
 79151  1  0  0  0
 80 85  1  0  0  0
 80152  1  0  0  0
 80153  1  0  0  0
 81154  1  0  0  0
 81155  1  0  0  0
 82156  1  0  0  0
 82157  1  0  0  0
M  ISO  4   1 100  68 101  79 101  83 100
M  END
> <chiral flag>
0

> <version>
0

> <s_m_source_file>
/data/baiqing/PycharmProjects/Reinvent-master-3.2/result/LINK_invent/BTK/process_docking_weight1_custom_product_contain_oxygen_bond_distance_aromatic_linkinvent_7_9_3/rearranged_h_0094.sdf

> <i_m_source_file_index>
8

> <r_mmod_Potential_Energy-OPLS-2005>
287.934204101562

> <r_mmod_Stretch_Energy-OPLS-2005>
130.905426025391

> <r_mmod_Bend_Energy-OPLS-2005>
179.485122680664

> <r_mmod_Torsional_Energy-OPLS-2005>
347.558288574219

> <r_mmod_Improper_Torsional_Energy-OPLS-2005>
31.253734588623

> <r_mmod_Van_der_Waal_Energy-OPLS-2005>
163.747528076172

> <r_mmod_Electrostatic_Energy-OPLS-2005>
-445.659423828125

> <r_mmod_Solvation_Energy-OPLS-2005>
-227.090286254883

> <b_mmod_Minimization_Converged-OPLS-2005>
0

> <r_mmod_RMS_Derivative-OPLS-2005>
4.69759464263916

$$$$
8
                    3D
 Structure written by MMmdl.
157166  0  0  1  0            999 V2000
  -30.6011  -14.7638   20.4693 C   0  0  0  0  0  0
  -30.4312  -12.4537   19.5392 C   0  0  0  0  0  0
  -29.5510  -12.5245   18.2728 C   0  0  0  0  0  0
  -28.0620  -12.3605   18.6410 C   0  0  0  0  0  0
  -27.6414  -13.2456   19.8505 C   0  0  2  0  0  0
  -28.6636  -13.2018   21.0078 C   0  0  0  0  0  0
  -25.2482  -13.8248   20.5639 C   0  0  0  0  0  0
  -24.1758  -13.0465   20.9097 C   0  0  0  0  0  0
  -24.6361  -11.6939   20.8698 C   0  0  0  0  0  0
  -23.9015  -10.4339   21.0427 C   0  0  0  0  0  0
  -24.3590   -9.4258   21.9187 C   0  0  0  0  0  0
  -23.6282   -8.2269   22.0723 C   0  0  0  0  0  0
  -22.4273   -8.0285   21.3510 C   0  0  0  0  0  0
  -21.9921   -9.0243   20.4606 C   0  0  0  0  0  0
  -22.7216  -10.2149   20.3043 C   0  0  0  0  0  0
  -21.6845   -6.0735   22.5255 C   0  0  0  0  0  0
  -21.4016   -6.5616   23.8206 C   0  0  0  0  0  0
  -21.3669   -5.6742   24.9147 C   0  0  0  0  0  0
  -21.6024   -4.3002   24.7168 C   0  0  0  0  0  0
  -21.8808   -3.8118   23.4277 C   0  0  0  0  0  0
  -21.9201   -4.6968   22.3366 C   0  0  0  0  0  0
  -22.7796  -13.5295   21.1788 C   0  0  0  0  0  0
  -22.1657   -4.2146   21.0941 F   0  0  0  0  0  0
  -21.5642   -3.4500   25.7687 F   0  0  0  0  0  0
  -29.9788  -13.5345   20.4493 N   0  0  0  0  0  0
  -26.2901  -12.9462   20.3181 N   0  0  0  0  0  0
  -25.9296  -11.6578   20.5657 N   0  0  0  0  0  0
  -22.0481  -12.8286   22.0410 N   0  0  0  0  0  0
  -25.4136  -15.1970   20.4155 N   0  0  0  0  0  0
  -31.7861  -14.8376   20.1345 O   0  0  0  0  0  0
  -21.6616   -6.8890   21.4223 O   0  0  0  0  0  0
  -22.3479  -14.5621   20.6678 O   0  0  0  0  0  0
  -24.6300  -31.8525   23.1912 C   0  0  0  0  0  0
  -25.9114  -32.4750   23.8261 C   0  0  1  0  0  0
  -27.2293  -27.2723   20.1214 C   0  0  0  0  0  0
  -25.5905  -33.8538   24.2211 N   0  0  0  0  0  0
  -23.4281  -30.4700   21.5390 C   0  0  2  0  0  0
  -24.8711  -28.9009   20.1235 C   0  0  0  0  0  0
  -22.7563  -29.4556   22.4965 C   0  0  0  0  0  0
  -18.0349  -28.1341   22.8549 C   0  0  0  0  0  0
  -24.1473  -36.7308   23.2632 C   0  0  0  0  0  0
  -25.9670  -30.7738   21.3539 C   0  0  0  0  0  0
  -26.0442  -29.3859   20.7187 C   0  0  0  0  0  0
  -27.2277  -28.5825   20.7046 C   0  0  0  0  0  0
  -26.0345  -26.8414   19.5142 C   0  0  0  0  0  0
  -24.8693  -27.6353   19.5142 C   0  0  0  0  0  0
  -23.6433  -29.7893   20.1604 C   0  0  0  0  0  0
  -25.4103  -36.3067   24.0309 C   0  0  1  0  0  0
  -20.5939  -28.3652   23.1332 C   0  0  2  0  0  0
  -20.6844  -26.9407   22.5366 C   0  0  0  0  0  0
  -19.5765  -26.6383   21.5212 C   0  0  0  0  0  0
  -18.1983  -26.7877   22.1679 C   0  0  0  0  0  0
  -19.1603  -28.8809   23.2953 C   0  0  0  0  0  0
  -18.9475  -30.1394   23.8970 C   0  0  0  0  0  0
  -17.6476  -30.6518   24.0598 C   0  0  0  0  0  0
  -25.9050  -34.9431   23.5096 C   0  0  0  0  0  0
  -16.5361  -29.9050   23.6302 C   0  0  0  0  0  0
  -16.7340  -28.6481   23.0306 C   0  0  0  0  0  0
  -26.4447  -31.6551   25.0647 C   0  0  0  0  0  0
  -25.3695  -31.3702   26.1394 C   0  0  0  0  0  0
  -27.0247  -30.2979   24.6041 C   0  0  0  0  0  0
  -27.6007  -32.4248   25.7455 C   0  0  0  0  0  0
  -27.5570  -37.1811   24.8458 C   0  0  0  0  0  0
  -21.4252  -29.3047   22.3783 N   0  0  0  0  0  0
  -26.4276  -37.3764   23.9416 N   0  0  0  0  0  0
  -24.6979  -31.0479   22.0888 N   0  0  0  0  0  0
  -23.4303  -28.8075   23.3017 O   0  0  0  0  0  0
  -28.3517  -26.4241   20.0618 O   0  0  0  0  0  0
  -26.5629  -34.8930   22.4654 O   0  0  0  0  0  0
  -23.5436  -32.1312   23.7185 O   0  0  0  0  0  0
  -30.6268  -17.3856   18.8689 C   0  0  0  0  0  0
  -30.6636  -18.5821   18.1386 C   0  0  0  0  0  0
  -29.3540  -18.5405   20.5846 C   0  0  0  0  0  0
  -29.4048  -19.8269   19.8594 C   0  0  0  0  0  0
  -29.9502  -17.2849   20.1018 C   0  0  0  0  0  0
  -30.0295  -19.7555   18.5828 C   0  0  0  0  0  0
  -27.6434  -21.2986   20.9532 C   0  0  0  0  0  0
  -27.2604  -22.7734   21.2023 C   0  0  0  0  0  0
  -29.3070  -22.5724   20.0482 C   0  0  0  0  0  0
  -28.1263  -23.6339   20.2613 C   0  0  2  0  0  0
  -28.3802  -25.1402   20.8277 C   0  0  0  0  0  0
  -28.8166  -21.1481   20.3087 N   0  0  0  0  0  0
  -29.9677  -20.7945   17.6552 N   0  0  0  0  0  0
  -29.8416  -15.9156   20.7092 N   0  0  0  0  0  0
  -26.9048  -20.3783   21.3164 O   0  0  0  0  0  0
  -31.4896  -12.5369   19.2829 H   0  0  0  0  0  0
  -30.3229  -11.4847   20.0332 H   0  0  0  0  0  0
  -29.8634  -11.7643   17.5536 H   0  0  0  0  0  0
  -29.7112  -13.4848   17.7827 H   0  0  0  0  0  0
  -27.9033  -11.3064   18.8694 H   0  0  0  0  0  0
  -27.4387  -12.5831   17.7769 H   0  0  0  0  0  0
  -27.6319  -14.2681   19.4730 H   0  0  0  0  0  0
  -28.6893  -12.2255   21.4917 H   0  0  0  0  0  0
  -28.3724  -13.9089   21.7880 H   0  0  0  0  0  0
  -25.2753   -9.5684   22.4747 H   0  0  0  0  0  0
  -23.9970   -7.4633   22.7402 H   0  0  0  0  0  0
  -21.0869   -8.8723   19.8883 H   0  0  0  0  0  0
  -22.3694  -10.9653   19.6098 H   0  0  0  0  0  0
  -21.2048   -7.6117   23.9722 H   0  0  0  0  0  0
  -21.1503   -6.0448   25.9054 H   0  0  0  0  0  0
  -22.0623   -2.7602   23.2733 H   0  0  0  0  0  0
  -22.4219  -12.0022   22.4826 H   0  0  0  0  0  0
  -21.1063  -13.1217   22.2645 H   0  0  0  0  0  0
  -24.6361  -15.8389   20.5252 H   0  0  0  0  0  0
  -26.2476  -15.6591   20.0770 H   0  0  0  0  0  0
  -26.7230  -32.5416   23.1044 H   0  0  0  0  0  0
  -25.0037  -33.9643   25.0348 H   0  0  0  0  0  0
  -22.7236  -31.2875   21.3870 H   0  0  0  0  0  0
  -23.3711  -35.9663   23.3261 H   0  0  0  0  0  0
  -24.3602  -36.8952   22.2065 H   0  0  0  0  0  0
  -23.7219  -37.6505   23.6671 H   0  0  0  0  0  0
  -26.0659  -31.5165   20.5597 H   0  0  0  0  0  0
  -26.8597  -30.8608   21.9600 H   0  0  0  0  0  0
  -28.1390  -28.9549   21.1510 H   0  0  0  0  0  0
  -26.0053  -25.8740   19.0378 H   0  0  0  0  0  0
  -23.9736  -27.2580   19.0375 H   0  0  0  0  0  0
  -23.7619  -30.5489   19.3865 H   0  0  0  0  0  0
  -22.7635  -29.2124   19.8705 H   0  0  0  0  0  0
  -25.1267  -36.1923   25.0797 H   0  0  0  0  0  0
  -21.0068  -28.3111   24.1429 H   0  0  0  0  0  0
  -20.5794  -26.2214   23.3524 H   0  0  0  0  0  0
  -21.6710  -26.7458   22.1129 H   0  0  0  0  0  0
  -19.6918  -25.6306   21.1200 H   0  0  0  0  0  0
  -19.6709  -27.3220   20.6766 H   0  0  0  0  0  0
  -17.4263  -26.6674   21.4080 H   0  0  0  0  0  0
  -18.0402  -25.9989   22.9030 H   0  0  0  0  0  0
  -19.7934  -30.7195   24.2366 H   0  0  0  0  0  0
  -17.5021  -31.6209   24.5203 H   0  0  0  0  0  0
  -15.5356  -30.2944   23.7581 H   0  0  0  0  0  0
  -15.8790  -28.0836   22.6900 H   0  0  0  0  0  0
  -24.5931  -30.6942   25.7769 H   0  0  0  0  0  0
  -24.8799  -32.2862   26.4731 H   0  0  0  0  0  0
  -25.8051  -30.9005   27.0219 H   0  0  0  0  0  0
  -26.2784  -29.6811   24.1023 H   0  0  0  0  0  0
  -27.3918  -29.7147   25.4484 H   0  0  0  0  0  0
  -27.8652  -30.4270   23.9221 H   0  0  0  0  0  0
  -27.2640  -33.3578   26.1987 H   0  0  0  0  0  0
  -28.3878  -32.6731   25.0331 H   0  0  0  0  0  0
  -28.0592  -31.8374   26.5424 H   0  0  0  0  0  0
  -28.2559  -38.0134   24.7517 H   0  0  0  0  0  0
  -28.1078  -36.2658   24.6242 H   0  0  0  0  0  0
  -27.2312  -37.1435   25.8865 H   0  0  0  0  0  0
  -20.9372  -29.8914   21.7156 H   0  0  0  0  0  0
  -26.0140  -38.2823   24.1432 H   0  0  0  0  0  0
  -31.0875  -16.5206   18.4112 H   0  0  0  0  0  0
  -31.1535  -18.5662   17.1772 H   0  0  0  0  0  0
  -28.8349  -18.5248   21.5353 H   0  0  0  0  0  0
  -27.5002  -23.0024   22.2413 H   0  0  0  0  0  0
  -26.1921  -22.9577   21.0541 H   0  0  0  0  0  0
  -30.1242  -22.7736   20.7448 H   0  0  0  0  0  0
  -29.7265  -22.7480   19.0619 H   0  0  0  0  0  0
  -27.5665  -23.7324   19.3272 H   0  0  0  0  0  0
  -29.3605  -25.1264   21.3068 H   0  0  0  0  0  0
  -27.6798  -25.2903   21.6518 H   0  0  0  0  0  0
  -30.1035  -20.5615   16.6763 H   0  0  0  0  0  0
  -29.2106  -21.4588   17.7738 H   0  0  0  0  0  0
  -28.9812  -15.7350   21.2031 H   0  0  0  0  0  0
  1 25  1  0  0  0
  1 30  2  0  0  0
  1 84  1  0  0  0
  2  3  1  0  0  0
  2 25  1  0  0  0
  2 86  1  0  0  0
  2 87  1  0  0  0
  3  4  1  0  0  0
  3 88  1  0  0  0
  3 89  1  0  0  0
  4  5  1  0  0  0
  4 90  1  0  0  0
  4 91  1  0  0  0
  5  6  1  0  0  0
  5 26  1  0  0  0
  5 92  1  0  0  0
  6 25  1  0  0  0
  6 93  1  0  0  0
  6 94  1  0  0  0
  7  8  2  0  0  0
  7 26  1  0  0  0
  7 29  1  0  0  0
  8  9  1  0  0  0
  8 22  1  0  0  0
  9 10  1  0  0  0
  9 27  2  0  0  0
 10 11  2  0  0  0
 10 15  1  0  0  0
 11 12  1  0  0  0
 11 95  1  0  0  0
 12 13  2  0  0  0
 12 96  1  0  0  0
 13 14  1  0  0  0
 13 31  1  0  0  0
 14 15  2  0  0  0
 14 97  1  0  0  0
 15 98  1  0  0  0
 16 17  2  0  0  0
 16 21  1  0  0  0
 16 31  1  0  0  0
 17 18  1  0  0  0
 17 99  1  0  0  0
 18 19  2  0  0  0
 18100  1  0  0  0
 19 20  1  0  0  0
 19 24  1  0  0  0
 20 21  2  0  0  0
 20101  1  0  0  0
 21 23  1  0  0  0
 22 28  1  0  0  0
 22 32  2  0  0  0
 26 27  1  0  0  0
 28102  1  0  0  0
 28103  1  0  0  0
 29104  1  0  0  0
 29105  1  0  0  0
 33 34  1  0  0  0
 33 66  1  0  0  0
 33 70  2  0  0  0
 34 36  1  0  0  0
 34 59  1  0  0  0
 34106  1  0  0  0
 35 44  2  0  0  0
 35 45  1  0  0  0
 35 68  1  0  0  0
 36 56  1  0  0  0
 36107  1  0  0  0
 37 39  1  0  0  0
 37 47  1  0  0  0
 37 66  1  0  0  0
 37108  1  0  0  0
 38 43  2  0  0  0
 38 46  1  0  0  0
 38 47  1  0  0  0
 39 64  1  0  0  0
 39 67  2  0  0  0
 40 52  1  0  0  0
 40 53  2  0  0  0
 40 58  1  0  0  0
 41109  1  0  0  0
 41110  1  0  0  0
 41111  1  0  0  0
 41 48  1  0  0  0
 42 43  1  0  0  0
 42 66  1  0  0  0
 42112  1  0  0  0
 42113  1  0  0  0
 43 44  1  0  0  0
 44114  1  0  0  0
 45 46  2  0  0  0
 45115  1  0  0  0
 46116  1  0  0  0
 47117  1  0  0  0
 47118  1  0  0  0
 48 56  1  0  0  0
 48 65  1  0  0  0
 48119  1  0  0  0
 49 50  1  0  0  0
 49 53  1  0  0  0
 49 64  1  0  0  0
 49120  1  0  0  0
 50 51  1  0  0  0
 50121  1  0  0  0
 50122  1  0  0  0
 51 52  1  0  0  0
 51123  1  0  0  0
 51124  1  0  0  0
 52125  1  0  0  0
 52126  1  0  0  0
 53 54  1  0  0  0
 54 55  2  0  0  0
 54127  1  0  0  0
 55 57  1  0  0  0
 55128  1  0  0  0
 56 69  2  0  0  0
 57 58  2  0  0  0
 57129  1  0  0  0
 58130  1  0  0  0
 59 60  1  0  0  0
 59 61  1  0  0  0
 59 62  1  0  0  0
 60131  1  0  0  0
 60132  1  0  0  0
 60133  1  0  0  0
 61134  1  0  0  0
 61135  1  0  0  0
 61136  1  0  0  0
 62137  1  0  0  0
 62138  1  0  0  0
 62139  1  0  0  0
 63 65  1  0  0  0
 63140  1  0  0  0
 63141  1  0  0  0
 63142  1  0  0  0
 64143  1  0  0  0
 65144  1  0  0  0
 68 81  1  0  0  0
 71 72  2  0  0  0
 71 75  1  0  0  0
 71145  1  0  0  0
 72 76  1  0  0  0
 72146  1  0  0  0
 73 74  1  0  0  0
 73 75  2  0  0  0
 73147  1  0  0  0
 74 76  2  0  0  0
 74 82  1  0  0  0
 75 84  1  0  0  0
 76 83  1  0  0  0
 77 78  1  0  0  0
 77 82  1  0  0  0
 77 85  2  0  0  0
 78 80  1  0  0  0
 78148  1  0  0  0
 78149  1  0  0  0
 79 80  1  0  0  0
 79 82  1  0  0  0
 79150  1  0  0  0
 79151  1  0  0  0
 80 81  1  0  0  0
 80152  1  0  0  0
 81153  1  0  0  0
 81154  1  0  0  0
 83155  1  0  0  0
 83156  1  0  0  0
 84157  1  0  0  0
M  ISO  4   1 100  68 101  81 101  84 100
M  END
> <chiral flag>
0

> <version>
0

> <s_m_source_file>
/data/baiqing/PycharmProjects/Reinvent-master-3.2/result/LINK_invent/BTK/process_docking_weight1_custom_product_contain_oxygen_bond_distance_aromatic_linkinvent_7_9_3/rearranged_h_0094.sdf

> <i_m_source_file_index>
9

> <r_mmod_Potential_Energy-OPLS-2005>
250.18620300293

> <r_mmod_Stretch_Energy-OPLS-2005>
143.677200317383

> <r_mmod_Bend_Energy-OPLS-2005>
217.197082519531

> <r_mmod_Torsional_Energy-OPLS-2005>
321.737518310547

> <r_mmod_Improper_Torsional_Energy-OPLS-2005>
8.97492599487305

> <r_mmod_Van_der_Waal_Energy-OPLS-2005>
140.747055053711

> <r_mmod_Electrostatic_Energy-OPLS-2005>
-437.962097167969

> <r_mmod_Solvation_Energy-OPLS-2005>
-228.44255065918

> <b_mmod_Minimization_Converged-OPLS-2005>
0

> <r_mmod_RMS_Derivative-OPLS-2005>
6.38845491409302

$$$$
9
                    3D
 Structure written by MMmdl.
162171  0  0  1  0            999 V2000
  -30.7148  -14.4821   20.6578 C   0  0  0  0  0  0
  -30.4241  -12.3411   19.4223 C   0  0  0  0  0  0
  -29.4937  -12.5404   18.2107 C   0  0  0  0  0  0
  -28.0137  -12.4065   18.6187 C   0  0  0  0  0  0
  -27.6644  -13.2198   19.8926 C   0  0  2  0  0  0
  -28.7032  -12.9654   21.0039 C   0  0  0  0  0  0
  -25.2551  -13.8221   20.5688 C   0  0  0  0  0  0
  -24.1795  -13.0423   20.9146 C   0  0  0  0  0  0
  -24.6410  -11.6926   20.8724 C   0  0  0  0  0  0
  -23.9106  -10.4284   21.0401 C   0  0  0  0  0  0
  -24.3638   -9.4199   21.9188 C   0  0  0  0  0  0
  -23.6293   -8.2245   22.0773 C   0  0  0  0  0  0
  -22.4278   -8.0293   21.3560 C   0  0  0  0  0  0
  -21.9929   -9.0268   20.4645 C   0  0  0  0  0  0
  -22.7283  -10.2136   20.3034 C   0  0  0  0  0  0
  -21.6849   -6.0748   22.5300 C   0  0  0  0  0  0
  -21.4027   -6.5645   23.8237 C   0  0  0  0  0  0
  -21.3639   -5.6802   24.9182 C   0  0  0  0  0  0
  -21.6035   -4.3062   24.7232 C   0  0  0  0  0  0
  -21.8824   -3.8156   23.4355 C   0  0  0  0  0  0
  -21.9200   -4.6979   22.3412 C   0  0  0  0  0  0
  -22.7829  -13.5233   21.1812 C   0  0  0  0  0  0
  -22.1677   -4.2168   21.0989 F   0  0  0  0  0  0
  -21.5603   -3.4530   25.7731 F   0  0  0  0  0  0
  -30.0353  -13.3034   20.4726 N   0  0  0  0  0  0
  -26.3042  -12.9411   20.3503 N   0  0  0  0  0  0
  -25.9361  -11.6548   20.5821 N   0  0  0  0  0  0
  -22.0478  -12.8166   22.0342 N   0  0  0  0  0  0
  -25.4244  -15.1929   20.4120 N   0  0  0  0  0  0
  -31.7234  -14.7748   20.0069 O   0  0  0  0  0  0
  -21.6633   -6.8895   21.4269 O   0  0  0  0  0  0
  -22.3503  -14.5523   20.6709 O   0  0  0  0  0  0
  -24.6178  -31.8624   23.2102 C   0  0  0  0  0  0
  -25.9035  -32.4823   23.8437 C   0  0  1  0  0  0
  -27.2481  -27.3867   20.0886 C   0  0  0  0  0  0
  -25.5867  -33.8645   24.2330 N   0  0  0  0  0  0
  -23.4132  -30.4820   21.5500 C   0  0  2  0  0  0
  -24.8627  -28.9400   20.1186 C   0  0  0  0  0  0
  -22.7399  -29.4643   22.5004 C   0  0  0  0  0  0
  -18.0264  -28.1400   22.8522 C   0  0  0  0  0  0
  -24.1475  -36.7307   23.2641 C   0  0  0  0  0  0
  -25.9464  -30.8078   21.3762 C   0  0  0  0  0  0
  -26.0257  -29.4396   20.7198 C   0  0  0  0  0  0
  -27.2154  -28.6657   20.7059 C   0  0  0  0  0  0
  -26.0589  -26.9055   19.4985 C   0  0  0  0  0  0
  -24.8771  -27.6734   19.5082 C   0  0  0  0  0  0
  -23.6252  -29.8071   20.1706 C   0  0  0  0  0  0
  -25.4112  -36.3101   24.0313 C   0  0  1  0  0  0
  -20.5853  -28.3692   23.1344 C   0  0  2  0  0  0
  -20.6764  -26.9424   22.5449 C   0  0  0  0  0  0
  -19.5748  -26.6380   21.5254 C   0  0  0  0  0  0
  -18.1907  -26.7966   22.1614 C   0  0  0  0  0  0
  -19.1511  -28.8881   23.2915 C   0  0  0  0  0  0
  -18.9421  -30.1489   23.8897 C   0  0  0  0  0  0
  -17.6426  -30.6603   24.0618 C   0  0  0  0  0  0
  -25.9025  -34.9470   23.5096 C   0  0  0  0  0  0
  -16.5315  -29.9104   23.6372 C   0  0  0  0  0  0
  -16.7244  -28.6521   23.0370 C   0  0  0  0  0  0
  -26.4432  -31.6675   25.0814 C   0  0  0  0  0  0
  -25.3646  -31.3799   26.1515 C   0  0  0  0  0  0
  -27.0362  -30.3128   24.6313 C   0  0  0  0  0  0
  -27.6011  -32.4456   25.7539 C   0  0  0  0  0  0
  -27.5586  -37.1796   24.8426 C   0  0  0  0  0  0
  -21.4110  -29.3041   22.3714 N   0  0  0  0  0  0
  -26.4302  -37.3783   23.9364 N   0  0  0  0  0  0
  -24.6774  -31.0681   22.1026 N   0  0  0  0  0  0
  -23.4117  -28.8152   23.3054 O   0  0  0  0  0  0
  -28.4153  -26.6296   20.1255 O   0  0  0  0  0  0
  -26.5571  -34.8914   22.4642 O   0  0  0  0  0  0
  -23.5331  -32.1459   23.7385 O   0  0  0  0  0  0
  -30.4278  -17.8204   21.0203 C   0  0  0  0  0  0
  -27.8714  -18.4059   21.9485 C   0  0  0  0  0  0
  -28.0819  -23.0878   18.5556 C   0  0  0  0  0  0
  -29.6858  -16.7471   21.5817 C   0  0  0  0  0  0
  -28.6412  -19.4941   21.4375 C   0  0  0  0  0  0
  -28.4393  -24.0958   19.5070 C   0  0  0  0  0  0
  -29.9215  -19.1525   20.9223 C   0  0  0  0  0  0
  -28.3651  -17.0686   22.0121 C   0  0  0  0  0  0
  -27.9435  -21.8862   19.1975 C   0  0  0  0  0  0
  -28.5766  -23.3875   20.6886 C   0  0  0  0  0  0
  -30.3020  -15.3719   21.8418 C   0  0  0  0  0  0
  -28.1294  -20.9791   21.6142 C   0  0  0  0  0  0
  -28.6723  -25.5913   19.1391 C   0  0  0  0  0  0
  -30.4701  -14.9327   23.0259 N   0  0  0  0  0  0
  -28.2624  -22.0161   20.5378 N   0  0  0  0  0  0
  -30.7338  -20.1343   20.3533 N   0  0  0  0  0  0
  -27.5450  -16.0669   22.5485 N   0  0  0  0  0  0
  -27.5266  -20.6911   18.6977 O   0  0  0  0  0  0
  -28.9303  -23.8738   21.9125 O   0  0  0  0  0  0
  -31.4651  -12.4559   19.1188 H   0  0  0  0  0  0
  -30.3391  -11.3211   19.8002 H   0  0  0  0  0  0
  -29.7255  -11.8123   17.4325 H   0  0  0  0  0  0
  -29.6740  -13.5225   17.7719 H   0  0  0  0  0  0
  -27.7951  -11.3499   18.7800 H   0  0  0  0  0  0
  -27.3763  -12.7290   17.7939 H   0  0  0  0  0  0
  -27.7198  -14.2762   19.6340 H   0  0  0  0  0  0
  -28.6808  -11.9156   21.2994 H   0  0  0  0  0  0
  -28.4315  -13.5140   21.9030 H   0  0  0  0  0  0
  -25.2777   -9.5642   22.4750 H   0  0  0  0  0  0
  -23.9971   -7.4633   22.7499 H   0  0  0  0  0  0
  -21.0880   -8.8806   19.8924 H   0  0  0  0  0  0
  -22.3785  -10.9670   19.6117 H   0  0  0  0  0  0
  -21.2030   -7.6157   23.9724 H   0  0  0  0  0  0
  -21.1455   -6.0537   25.9084 H   0  0  0  0  0  0
  -22.0612   -2.7620   23.2871 H   0  0  0  0  0  0
  -22.4085  -11.9819   22.4704 H   0  0  0  0  0  0
  -21.1106  -13.1183   22.2531 H   0  0  0  0  0  0
  -24.6859  -15.8414   20.6611 H   0  0  0  0  0  0
  -26.3460  -15.6000   20.5419 H   0  0  0  0  0  0
  -26.7097  -32.5530   23.1199 H   0  0  0  0  0  0
  -25.0102  -33.9878   25.0530 H   0  0  0  0  0  0
  -22.7081  -31.3015   21.4002 H   0  0  0  0  0  0
  -23.3781  -35.9598   23.3256 H   0  0  0  0  0  0
  -24.3544  -36.9002   22.2058 H   0  0  0  0  0  0
  -23.7216  -37.6468   23.6739 H   0  0  0  0  0  0
  -26.0652  -31.5728   20.6055 H   0  0  0  0  0  0
  -26.8324  -30.8631   22.0011 H   0  0  0  0  0  0
  -28.1116  -29.0436   21.1804 H   0  0  0  0  0  0
  -26.0281  -25.9209   19.0556 H   0  0  0  0  0  0
  -23.9783  -27.2718   19.0605 H   0  0  0  0  0  0
  -23.7195  -30.5751   19.4036 H   0  0  0  0  0  0
  -22.7550  -29.2129   19.8868 H   0  0  0  0  0  0
  -25.1295  -36.1954   25.0815 H   0  0  0  0  0  0
  -20.9953  -28.3257   24.1464 H   0  0  0  0  0  0
  -20.5718  -26.2249   23.3626 H   0  0  0  0  0  0
  -21.6628  -26.7491   22.1222 H   0  0  0  0  0  0
  -19.6907  -25.6270   21.1307 H   0  0  0  0  0  0
  -19.6748  -27.3162   20.6774 H   0  0  0  0  0  0
  -17.4210  -26.6804   21.3962 H   0  0  0  0  0  0
  -18.0211  -26.0120   22.8974 H   0  0  0  0  0  0
  -19.7888  -30.7328   24.2251 H   0  0  0  0  0  0
  -17.4964  -31.6294   24.5184 H   0  0  0  0  0  0
  -15.5293  -30.2987   23.7745 H   0  0  0  0  0  0
  -15.8640  -28.0844   22.7098 H   0  0  0  0  0  0
  -24.5884  -30.7071   25.7827 H   0  0  0  0  0  0
  -24.8741  -32.2949   26.4854 H   0  0  0  0  0  0
  -25.7948  -30.9065   27.0350 H   0  0  0  0  0  0
  -26.3021  -29.6817   24.1295 H   0  0  0  0  0  0
  -27.4005  -29.7435   25.4871 H   0  0  0  0  0  0
  -27.8849  -30.4435   23.9617 H   0  0  0  0  0  0
  -27.2663  -33.3812   26.2022 H   0  0  0  0  0  0
  -28.3826  -32.6929   25.0358 H   0  0  0  0  0  0
  -28.0664  -31.8667   26.5515 H   0  0  0  0  0  0
  -28.2538  -38.0157   24.7552 H   0  0  0  0  0  0
  -28.1166  -36.2672   24.6181 H   0  0  0  0  0  0
  -27.2293  -37.1353   25.8833 H   0  0  0  0  0  0
  -20.9231  -29.8712   21.6926 H   0  0  0  0  0  0
  -26.0171  -38.2833   24.1455 H   0  0  0  0  0  0
  -31.4423  -17.6265   20.7071 H   0  0  0  0  0  0
  -26.8829  -18.6013   22.3466 H   0  0  0  0  0  0
  -27.9111  -23.2428   17.4972 H   0  0  0  0  0  0
  -28.6014  -21.3757   22.5182 H   0  0  0  0  0  0
  -27.0618  -20.9464   21.8559 H   0  0  0  0  0  0
  -28.1648  -25.8293   18.2015 H   0  0  0  0  0  0
  -29.7254  -25.6956   18.8810 H   0  0  0  0  0  0
  -30.1471  -15.5829   23.7321 H   0  0  0  0  0  0
  -31.5664  -19.8638   19.8435 H   0  0  0  0  0  0
  -30.2835  -20.9518   19.9453 H   0  0  0  0  0  0
  -26.6575  -16.2780   22.9918 H   0  0  0  0  0  0
  -27.9391  -15.1757   22.8425 H   0  0  0  0  0  0
  -27.2353  -20.8370   17.8034 H   0  0  0  0  0  0
  -29.1043  -24.8096   21.8172 H   0  0  0  0  0  0
  1 25  1  0  0  0
  1 30  2  0  0  0
  1 81  1  0  0  0
  2  3  1  0  0  0
  2 25  1  0  0  0
  2 90  1  0  0  0
  2 91  1  0  0  0
  3  4  1  0  0  0
  3 92  1  0  0  0
  3 93  1  0  0  0
  4  5  1  0  0  0
  4 94  1  0  0  0
  4 95  1  0  0  0
  5  6  1  0  0  0
  5 26  1  0  0  0
  5 96  1  0  0  0
  6 25  1  0  0  0
  6 97  1  0  0  0
  6 98  1  0  0  0
  7  8  2  0  0  0
  7 26  1  0  0  0
  7 29  1  0  0  0
  8  9  1  0  0  0
  8 22  1  0  0  0
  9 10  1  0  0  0
  9 27  2  0  0  0
 10 11  2  0  0  0
 10 15  1  0  0  0
 11 12  1  0  0  0
 11 99  1  0  0  0
 12 13  2  0  0  0
 12100  1  0  0  0
 13 14  1  0  0  0
 13 31  1  0  0  0
 14 15  2  0  0  0
 14101  1  0  0  0
 15102  1  0  0  0
 16 17  2  0  0  0
 16 21  1  0  0  0
 16 31  1  0  0  0
 17 18  1  0  0  0
 17103  1  0  0  0
 18 19  2  0  0  0
 18104  1  0  0  0
 19 20  1  0  0  0
 19 24  1  0  0  0
 20 21  2  0  0  0
 20105  1  0  0  0
 21 23  1  0  0  0
 22 28  1  0  0  0
 22 32  2  0  0  0
 26 27  1  0  0  0
 28106  1  0  0  0
 28107  1  0  0  0
 29108  1  0  0  0
 29109  1  0  0  0
 33 34  1  0  0  0
 33 66  1  0  0  0
 33 70  2  0  0  0
 34 36  1  0  0  0
 34 59  1  0  0  0
 34110  1  0  0  0
 35 44  2  0  0  0
 35 45  1  0  0  0
 35 68  1  0  0  0
 36 56  1  0  0  0
 36111  1  0  0  0
 37 39  1  0  0  0
 37 47  1  0  0  0
 37 66  1  0  0  0
 37112  1  0  0  0
 38 43  2  0  0  0
 38 46  1  0  0  0
 38 47  1  0  0  0
 39 64  1  0  0  0
 39 67  2  0  0  0
 40 52  1  0  0  0
 40 53  2  0  0  0
 40 58  1  0  0  0
 41113  1  0  0  0
 41114  1  0  0  0
 41115  1  0  0  0
 41 48  1  0  0  0
 42 43  1  0  0  0
 42 66  1  0  0  0
 42116  1  0  0  0
 42117  1  0  0  0
 43 44  1  0  0  0
 44118  1  0  0  0
 45 46  2  0  0  0
 45119  1  0  0  0
 46120  1  0  0  0
 47121  1  0  0  0
 47122  1  0  0  0
 48 56  1  0  0  0
 48 65  1  0  0  0
 48123  1  0  0  0
 49 50  1  0  0  0
 49 53  1  0  0  0
 49 64  1  0  0  0
 49124  1  0  0  0
 50 51  1  0  0  0
 50125  1  0  0  0
 50126  1  0  0  0
 51 52  1  0  0  0
 51127  1  0  0  0
 51128  1  0  0  0
 52129  1  0  0  0
 52130  1  0  0  0
 53 54  1  0  0  0
 54 55  2  0  0  0
 54131  1  0  0  0
 55 57  1  0  0  0
 55132  1  0  0  0
 56 69  2  0  0  0
 57 58  2  0  0  0
 57133  1  0  0  0
 58134  1  0  0  0
 59 60  1  0  0  0
 59 61  1  0  0  0
 59 62  1  0  0  0
 60135  1  0  0  0
 60136  1  0  0  0
 60137  1  0  0  0
 61138  1  0  0  0
 61139  1  0  0  0
 61140  1  0  0  0
 62141  1  0  0  0
 62142  1  0  0  0
 62143  1  0  0  0
 63 65  1  0  0  0
 63144  1  0  0  0
 63145  1  0  0  0
 63146  1  0  0  0
 64147  1  0  0  0
 65148  1  0  0  0
 68 83  1  0  0  0
 71 74  2  0  0  0
 71 77  1  0  0  0
 71149  1  0  0  0
 72 75  1  0  0  0
 72 78  2  0  0  0
 72150  1  0  0  0
 73 76  1  0  0  0
 73 79  2  0  0  0
 73151  1  0  0  0
 74 78  1  0  0  0
 74 81  1  0  0  0
 75 77  2  0  0  0
 75 82  1  0  0  0
 76 80  2  0  0  0
 76 83  1  0  0  0
 77 86  1  0  0  0
 78 87  1  0  0  0
 79 85  1  0  0  0
 79 88  1  0  0  0
 80 85  1  0  0  0
 80 89  1  0  0  0
 81 84  2  0  0  0
 82 85  1  0  0  0
 82152  1  0  0  0
 82153  1  0  0  0
 83154  1  0  0  0
 83155  1  0  0  0
 84156  1  0  0  0
 86157  1  0  0  0
 86158  1  0  0  0
 87159  1  0  0  0
 87160  1  0  0  0
 88161  1  0  0  0
 89162  1  0  0  0
M  ISO  4   1 100  68 101  81 100  83 101
M  END
> <chiral flag>
0

> <version>
0

> <s_m_source_file>
/data/baiqing/PycharmProjects/Reinvent-master-3.2/result/LINK_invent/BTK/process_docking_weight1_custom_product_contain_oxygen_bond_distance_aromatic_linkinvent_7_9_3/rearranged_h_0094.sdf

> <i_m_source_file_index>
10

> <r_mmod_Potential_Energy-OPLS-2005>
154.281173706055

> <r_mmod_Stretch_Energy-OPLS-2005>
71.4497680664062

> <r_mmod_Bend_Energy-OPLS-2005>
150.714157104492

> <r_mmod_Torsional_Energy-OPLS-2005>
255.906219482422

> <r_mmod_Improper_Torsional_Energy-OPLS-2005>
12.5428304672241

> <r_mmod_Van_der_Waal_Energy-OPLS-2005>
134.760513305664

> <r_mmod_Electrostatic_Energy-OPLS-2005>
-262.434509277344

> <r_mmod_Solvation_Energy-OPLS-2005>
-226.940673828125

> <b_mmod_Minimization_Converged-OPLS-2005>
0

> <r_mmod_RMS_Derivative-OPLS-2005>
7.62428045272827

$$$$
10
                    3D
 Structure written by MMmdl.
158166  0  0  1  0            999 V2000
  -30.7084  -14.5307   20.3405 C   0  0  0  0  0  0
  -30.3817  -12.2790   19.4179 C   0  0  0  0  0  0
  -29.4613  -12.4220   18.1862 C   0  0  0  0  0  0
  -27.9908  -12.3215   18.6294 C   0  0  0  0  0  0
  -27.6417  -13.2259   19.8445 C   0  0  2  0  0  0
  -28.7035  -13.1141   20.9577 C   0  0  0  0  0  0
  -25.2493  -13.8071   20.5782 C   0  0  0  0  0  0
  -24.1820  -13.0316   20.9280 C   0  0  0  0  0  0
  -24.6420  -11.6800   20.8814 C   0  0  0  0  0  0
  -23.9037  -10.4225   21.0468 C   0  0  0  0  0  0
  -24.3533   -9.4167   21.9286 C   0  0  0  0  0  0
  -23.6267   -8.2165   22.0743 C   0  0  0  0  0  0
  -22.4268   -8.0204   21.3511 C   0  0  0  0  0  0
  -21.9884   -9.0196   20.4629 C   0  0  0  0  0  0
  -22.7170  -10.2111   20.3161 C   0  0  0  0  0  0
  -21.6848   -6.0739   22.5304 C   0  0  0  0  0  0
  -21.4001   -6.5667   23.8243 C   0  0  0  0  0  0
  -21.3674   -5.6818   24.9207 C   0  0  0  0  0  0
  -21.6042   -4.3097   24.7232 C   0  0  0  0  0  0
  -21.8813   -3.8168   23.4375 C   0  0  0  0  0  0
  -21.9225   -4.6970   22.3428 C   0  0  0  0  0  0
  -22.7843  -13.5117   21.1880 C   0  0  0  0  0  0
  -22.1699   -4.2144   21.1011 F   0  0  0  0  0  0
  -21.5623   -3.4596   25.7768 F   0  0  0  0  0  0
  -30.0098  -13.3608   20.3393 N   0  0  0  0  0  0
  -26.2965  -12.9348   20.3364 N   0  0  0  0  0  0
  -25.9352  -11.6456   20.5759 N   0  0  0  0  0  0
  -22.0477  -12.8191   22.0451 N   0  0  0  0  0  0
  -25.3972  -15.1796   20.4209 N   0  0  0  0  0  0
  -31.9302  -14.5536   20.4778 O   0  0  0  0  0  0
  -21.6602   -6.8836   21.4251 O   0  0  0  0  0  0
  -22.3584  -14.5408   20.6649 O   0  0  0  0  0  0
  -24.6199  -31.8617   23.1999 C   0  0  0  0  0  0
  -25.9022  -32.4823   23.8336 C   0  0  1  0  0  0
  -27.2431  -27.3679   20.0972 C   0  0  0  0  0  0
  -25.5811  -33.8629   24.2266 N   0  0  0  0  0  0
  -23.4165  -30.4704   21.5497 C   0  0  2  0  0  0
  -24.8678  -28.9369   20.1050 C   0  0  0  0  0  0
  -22.7485  -29.4520   22.5052 C   0  0  0  0  0  0
  -18.0318  -28.1304   22.8426 C   0  0  0  0  0  0
  -24.1458  -36.7305   23.2627 C   0  0  0  0  0  0
  -25.9470  -30.8093   21.3566 C   0  0  0  0  0  0
  -26.0263  -29.4363   20.7074 C   0  0  0  0  0  0
  -27.2147  -28.6595   20.6961 C   0  0  0  0  0  0
  -26.0609  -26.9000   19.4793 C   0  0  0  0  0  0
  -24.8825  -27.6750   19.4843 C   0  0  0  0  0  0
  -23.6261  -29.7964   20.1676 C   0  0  0  0  0  0
  -25.4094  -36.3125   24.0315 C   0  0  1  0  0  0
  -20.5875  -28.3583   23.1361 C   0  0  2  0  0  0
  -20.6836  -26.9348   22.5371 C   0  0  0  0  0  0
  -19.5796  -26.6291   21.5241 C   0  0  0  0  0  0
  -18.1968  -26.7826   22.1659 C   0  0  0  0  0  0
  -19.1540  -28.8799   23.2859 C   0  0  0  0  0  0
  -18.9416  -30.1415   23.8829 C   0  0  0  0  0  0
  -17.6392  -30.6493   24.0435 C   0  0  0  0  0  0
  -25.9022  -34.9490   23.5110 C   0  0  0  0  0  0
  -16.5315  -29.8942   23.6254 C   0  0  0  0  0  0
  -16.7290  -28.6384   23.0268 C   0  0  0  0  0  0
  -26.4408  -31.6668   25.0724 C   0  0  0  0  0  0
  -25.3631  -31.3827   26.1439 C   0  0  0  0  0  0
  -27.0236  -30.3095   24.6176 C   0  0  0  0  0  0
  -27.5949  -32.4436   25.7509 C   0  0  0  0  0  0
  -27.5561  -37.1812   24.8458 C   0  0  0  0  0  0
  -21.4199  -29.2974   22.3853 N   0  0  0  0  0  0
  -26.4284  -37.3816   23.9392 N   0  0  0  0  0  0
  -24.6810  -31.0605   22.0936 N   0  0  0  0  0  0
  -23.4241  -28.8052   23.3130 O   0  0  0  0  0  0
  -28.4105  -26.6131   20.1442 O   0  0  0  0  0  0
  -26.5620  -34.8945   22.4692 O   0  0  0  0  0  0
  -23.5358  -32.1374   23.7321 O   0  0  0  0  0  0
  -29.0395  -18.4100   21.7606 C   0  0  0  0  0  0
  -29.5507  -17.1459   21.3939 C   0  0  0  0  0  0
  -28.0483  -18.6831   19.5721 C   0  0  0  0  0  0
  -28.3402  -19.2338   20.8428 C   0  0  0  0  0  0
  -29.3770  -16.6415   20.0834 C   0  0  0  0  0  0
  -28.5385  -17.4014   19.2026 C   0  0  0  0  0  0
  -31.6061  -15.0892   17.5762 C   0  0  0  0  0  0
  -30.8270  -15.8669   18.3547 C   0  0  0  0  0  0
  -27.2679  -21.5472   20.6861 C   0  0  0  0  0  0
  -28.0010  -22.6249   19.8349 C   0  0  0  0  0  0
  -27.9878  -24.0756   20.4570 C   0  0  0  0  0  0
  -28.4982  -25.2747   19.5739 C   0  0  0  0  0  0
  -27.9408  -20.5419   21.3028 N   0  0  0  0  0  0
  -30.1600  -15.5305   19.5723 N   0  0  0  0  0  0
  -26.0658  -21.7036   20.9013 O   0  0  0  0  0  0
  -28.2795  -16.9460   17.9490 F   0  0  0  0  0  0
  -31.4382  -12.2825   19.1539 H   0  0  0  0  0  0
  -30.1942  -11.3089   19.8805 H   0  0  0  0  0  0
  -29.6755  -11.6430   17.4506 H   0  0  0  0  0  0
  -29.6222  -13.3679   17.6738 H   0  0  0  0  0  0
  -27.8250  -11.2816   18.8965 H   0  0  0  0  0  0
  -27.3147  -12.5316   17.7982 H   0  0  0  0  0  0
  -27.6482  -14.2522   19.4749 H   0  0  0  0  0  0
  -28.6786  -12.1219   21.4081 H   0  0  0  0  0  0
  -28.5124  -13.8245   21.7650 H   0  0  0  0  0  0
  -25.2585   -9.5730   22.4995 H   0  0  0  0  0  0
  -24.0013   -7.4511   22.7403 H   0  0  0  0  0  0
  -21.0872   -8.8711   19.8827 H   0  0  0  0  0  0
  -22.3572  -10.9729   19.6393 H   0  0  0  0  0  0
  -21.1950   -7.6169   23.9753 H   0  0  0  0  0  0
  -21.1506   -6.0556   25.9116 H   0  0  0  0  0  0
  -22.0553   -2.7627   23.2904 H   0  0  0  0  0  0
  -22.4118  -11.9893   22.4939 H   0  0  0  0  0  0
  -21.1074  -13.1215   22.2606 H   0  0  0  0  0  0
  -24.6021  -15.7955   20.5492 H   0  0  0  0  0  0
  -26.2325  -15.6544   20.1124 H   0  0  0  0  0  0
  -26.7101  -32.5574   23.1113 H   0  0  0  0  0  0
  -24.9936  -33.9789   25.0407 H   0  0  0  0  0  0
  -22.6978  -31.2780   21.4097 H   0  0  0  0  0  0
  -23.3743  -35.9619   23.3331 H   0  0  0  0  0  0
  -24.3526  -36.8903   22.2030 H   0  0  0  0  0  0
  -23.7198  -37.6500   23.6664 H   0  0  0  0  0  0
  -26.0500  -31.5654   20.5751 H   0  0  0  0  0  0
  -26.8363  -30.8779   21.9735 H   0  0  0  0  0  0
  -28.1095  -29.0416   21.1703 H   0  0  0  0  0  0
  -26.0309  -25.9357   18.9933 H   0  0  0  0  0  0
  -23.9852  -27.2926   19.0140 H   0  0  0  0  0  0
  -23.6946  -30.5556   19.3876 H   0  0  0  0  0  0
  -22.7654  -29.1838   19.9062 H   0  0  0  0  0  0
  -25.1295  -36.1963   25.0817 H   0  0  0  0  0  0
  -20.9858  -28.3035   24.1506 H   0  0  0  0  0  0
  -20.5939  -26.2064   23.3462 H   0  0  0  0  0  0
  -21.6662  -26.7547   22.0942 H   0  0  0  0  0  0
  -19.6712  -27.3188   20.6824 H   0  0  0  0  0  0
  -19.7043  -25.6231   21.1281 H   0  0  0  0  0  0
  -17.4196  -26.6526   21.4096 H   0  0  0  0  0  0
  -18.0356  -25.9981   22.9049 H   0  0  0  0  0  0
  -19.7892  -30.7262   24.2175 H   0  0  0  0  0  0
  -17.4870  -31.6149   24.5040 H   0  0  0  0  0  0
  -15.5298  -30.2755   23.7574 H   0  0  0  0  0  0
  -15.8699  -28.0646   22.7080 H   0  0  0  0  0  0
  -24.5777  -30.7203   25.7752 H   0  0  0  0  0  0
  -24.8847  -32.3032   26.4821 H   0  0  0  0  0  0
  -25.7893  -30.9020   27.0254 H   0  0  0  0  0  0
  -26.2821  -29.6897   24.1108 H   0  0  0  0  0  0
  -27.3805  -29.7267   25.4671 H   0  0  0  0  0  0
  -27.8726  -30.4351   23.9444 H   0  0  0  0  0  0
  -27.2501  -33.3710   26.2078 H   0  0  0  0  0  0
  -28.3751  -32.7045   25.0364 H   0  0  0  0  0  0
  -28.0628  -31.8619   26.5455 H   0  0  0  0  0  0
  -28.2611  -38.0075   24.7515 H   0  0  0  0  0  0
  -28.1012  -36.2616   24.6306 H   0  0  0  0  0  0
  -27.2265  -37.1490   25.8852 H   0  0  0  0  0  0
  -20.9403  -29.8524   21.6923 H   0  0  0  0  0  0
  -26.0153  -38.2876   24.1462 H   0  0  0  0  0  0
  -29.2365  -18.7507   22.7665 H   0  0  0  0  0  0
  -30.1398  -16.6089   22.1242 H   0  0  0  0  0  0
  -27.4518  -19.2412   18.8613 H   0  0  0  0  0  0
  -31.8500  -14.0652   17.8119 H   0  0  0  0  0  0
  -32.0219  -15.4822   16.6597 H   0  0  0  0  0  0
  -30.6840  -16.8896   18.0327 H   0  0  0  0  0  0
  -27.4885  -22.6351   18.8740 H   0  0  0  0  0  0
  -29.0152  -22.2893   19.6272 H   0  0  0  0  0  0
  -28.6120  -24.0405   21.3476 H   0  0  0  0  0  0
  -26.9877  -24.3028   20.8260 H   0  0  0  0  0  0
  -29.5685  -25.1231   19.4225 H   0  0  0  0  0  0
  -28.0904  -25.2630   18.5617 H   0  0  0  0  0  0
  -27.7222  -20.5294   22.2878 H   0  0  0  0  0  0
  1 25  1  0  0  0
  1 30  2  0  0  0
  1 84  1  0  0  0
  2  3  1  0  0  0
  2 25  1  0  0  0
  2 87  1  0  0  0
  2 88  1  0  0  0
  3  4  1  0  0  0
  3 89  1  0  0  0
  3 90  1  0  0  0
  4  5  1  0  0  0
  4 91  1  0  0  0
  4 92  1  0  0  0
  5  6  1  0  0  0
  5 26  1  0  0  0
  5 93  1  0  0  0
  6 25  1  0  0  0
  6 94  1  0  0  0
  6 95  1  0  0  0
  7  8  2  0  0  0
  7 26  1  0  0  0
  7 29  1  0  0  0
  8  9  1  0  0  0
  8 22  1  0  0  0
  9 10  1  0  0  0
  9 27  2  0  0  0
 10 11  2  0  0  0
 10 15  1  0  0  0
 11 12  1  0  0  0
 11 96  1  0  0  0
 12 13  2  0  0  0
 12 97  1  0  0  0
 13 14  1  0  0  0
 13 31  1  0  0  0
 14 15  2  0  0  0
 14 98  1  0  0  0
 15 99  1  0  0  0
 16 17  2  0  0  0
 16 21  1  0  0  0
 16 31  1  0  0  0
 17 18  1  0  0  0
 17100  1  0  0  0
 18 19  2  0  0  0
 18101  1  0  0  0
 19 20  1  0  0  0
 19 24  1  0  0  0
 20 21  2  0  0  0
 20102  1  0  0  0
 21 23  1  0  0  0
 22 28  1  0  0  0
 22 32  2  0  0  0
 26 27  1  0  0  0
 28103  1  0  0  0
 28104  1  0  0  0
 29105  1  0  0  0
 29106  1  0  0  0
 33 34  1  0  0  0
 33 66  1  0  0  0
 33 70  2  0  0  0
 34 36  1  0  0  0
 34 59  1  0  0  0
 34107  1  0  0  0
 35 44  2  0  0  0
 35 45  1  0  0  0
 35 68  1  0  0  0
 36 56  1  0  0  0
 36108  1  0  0  0
 37 39  1  0  0  0
 37 47  1  0  0  0
 37 66  1  0  0  0
 37109  1  0  0  0
 38 43  2  0  0  0
 38 46  1  0  0  0
 38 47  1  0  0  0
 39 64  1  0  0  0
 39 67  2  0  0  0
 40 52  1  0  0  0
 40 53  2  0  0  0
 40 58  1  0  0  0
 41110  1  0  0  0
 41111  1  0  0  0
 41112  1  0  0  0
 41 48  1  0  0  0
 42 43  1  0  0  0
 42 66  1  0  0  0
 42113  1  0  0  0
 42114  1  0  0  0
 43 44  1  0  0  0
 44115  1  0  0  0
 45 46  2  0  0  0
 45116  1  0  0  0
 46117  1  0  0  0
 47118  1  0  0  0
 47119  1  0  0  0
 48 56  1  0  0  0
 48 65  1  0  0  0
 48120  1  0  0  0
 49 50  1  0  0  0
 49 53  1  0  0  0
 49 64  1  0  0  0
 49121  1  0  0  0
 50 51  1  0  0  0
 50122  1  0  0  0
 50123  1  0  0  0
 51 52  1  0  0  0
 51124  1  0  0  0
 51125  1  0  0  0
 52126  1  0  0  0
 52127  1  0  0  0
 53 54  1  0  0  0
 54 55  2  0  0  0
 54128  1  0  0  0
 55 57  1  0  0  0
 55129  1  0  0  0
 56 69  2  0  0  0
 57 58  2  0  0  0
 57130  1  0  0  0
 58131  1  0  0  0
 59 60  1  0  0  0
 59 61  1  0  0  0
 59 62  1  0  0  0
 60132  1  0  0  0
 60133  1  0  0  0
 60134  1  0  0  0
 61135  1  0  0  0
 61136  1  0  0  0
 61137  1  0  0  0
 62138  1  0  0  0
 62139  1  0  0  0
 62140  1  0  0  0
 63 65  1  0  0  0
 63141  1  0  0  0
 63142  1  0  0  0
 63143  1  0  0  0
 64144  1  0  0  0
 65145  1  0  0  0
 68 82  1  0  0  0
 71 72  2  0  0  0
 71 74  1  0  0  0
 71146  1  0  0  0
 72 75  1  0  0  0
 72147  1  0  0  0
 73 74  2  0  0  0
 73 76  1  0  0  0
 73148  1  0  0  0
 74 83  1  0  0  0
 75 76  2  0  0  0
 75 84  1  0  0  0
 76 86  1  0  0  0
 77 78  2  0  0  0
 77149  1  0  0  0
 77150  1  0  0  0
 78 84  1  0  0  0
 78151  1  0  0  0
 79 80  1  0  0  0
 79 83  1  0  0  0
 79 85  2  0  0  0
 80 81  1  0  0  0
 80152  1  0  0  0
 80153  1  0  0  0
 81 82  1  0  0  0
 81154  1  0  0  0
 81155  1  0  0  0
 82156  1  0  0  0
 82157  1  0  0  0
 83158  1  0  0  0
M  ISO  4   1 100  68 101  82 101  84 100
M  END
> <chiral flag>
0

> <version>
0

> <s_m_source_file>
/data/baiqing/PycharmProjects/Reinvent-master-3.2/result/LINK_invent/BTK/process_docking_weight1_custom_product_contain_oxygen_bond_distance_aromatic_linkinvent_7_9_3/rearranged_h_0094.sdf

> <i_m_source_file_index>
11

> <r_mmod_Potential_Energy-OPLS-2005>
266.336486816406

> <r_mmod_Stretch_Energy-OPLS-2005>
60.6176872253418

> <r_mmod_Bend_Energy-OPLS-2005>
151.135635375977

> <r_mmod_Torsional_Energy-OPLS-2005>
384.024505615234

> <r_mmod_Improper_Torsional_Energy-OPLS-2005>
29.3931694030762

> <r_mmod_Van_der_Waal_Energy-OPLS-2005>
154.847183227539

> <r_mmod_Electrostatic_Energy-OPLS-2005>
-360.913177490234

> <r_mmod_Solvation_Energy-OPLS-2005>
-212.42333984375

> <b_mmod_Minimization_Converged-OPLS-2005>
0

> <r_mmod_RMS_Derivative-OPLS-2005>
9.26926422119141

$$$$
11
                    3D
 Structure written by MMmdl.
154162  0  0  1  0            999 V2000
  -30.6736  -14.6031   20.5885 C   0  0  0  0  0  0
  -30.4358  -12.3939   19.4560 C   0  0  0  0  0  0
  -29.5117  -12.5372   18.2261 C   0  0  0  0  0  0
  -28.0321  -12.3657   18.6239 C   0  0  0  0  0  0
  -27.6580  -13.2134   19.8673 C   0  0  2  0  0  0
  -28.6930  -13.0152   20.9928 C   0  0  0  0  0  0
  -25.2581  -13.8164   20.5663 C   0  0  0  0  0  0
  -24.1840  -13.0433   20.9170 C   0  0  0  0  0  0
  -24.6405  -11.6903   20.8717 C   0  0  0  0  0  0
  -23.9073  -10.4289   21.0392 C   0  0  0  0  0  0
  -24.3625   -9.4209   21.9175 C   0  0  0  0  0  0
  -23.6297   -8.2246   22.0749 C   0  0  0  0  0  0
  -22.4277   -8.0284   21.3542 C   0  0  0  0  0  0
  -21.9913   -9.0257   20.4644 C   0  0  0  0  0  0
  -22.7243  -10.2133   20.3047 C   0  0  0  0  0  0
  -21.6857   -6.0740   22.5282 C   0  0  0  0  0  0
  -21.4017   -6.5643   23.8217 C   0  0  0  0  0  0
  -21.3658   -5.6794   24.9176 C   0  0  0  0  0  0
  -21.6043   -4.3057   24.7226 C   0  0  0  0  0  0
  -21.8820   -3.8150   23.4346 C   0  0  0  0  0  0
  -21.9194   -4.6967   22.3404 C   0  0  0  0  0  0
  -22.7864  -13.5232   21.1842 C   0  0  0  0  0  0
  -22.1660   -4.2155   21.0981 F   0  0  0  0  0  0
  -21.5627   -3.4539   25.7738 F   0  0  0  0  0  0
  -30.0207  -13.3927   20.4688 N   0  0  0  0  0  0
  -26.3006  -12.9337   20.3289 N   0  0  0  0  0  0
  -25.9330  -11.6493   20.5709 N   0  0  0  0  0  0
  -22.0503  -12.8226   22.0403 N   0  0  0  0  0  0
  -25.4301  -15.1887   20.4098 N   0  0  0  0  0  0
  -31.7559  -14.7941   20.0221 O   0  0  0  0  0  0
  -21.6640   -6.8882   21.4243 O   0  0  0  0  0  0
  -22.3544  -14.5534   20.6691 O   0  0  0  0  0  0
  -24.6249  -31.8611   23.2036 C   0  0  0  0  0  0
  -25.9103  -32.4787   23.8364 C   0  0  1  0  0  0
  -27.2316  -27.3415   20.1152 C   0  0  0  0  0  0
  -25.5924  -33.8586   24.2290 N   0  0  0  0  0  0
  -23.4183  -30.4840   21.5454 C   0  0  2  0  0  0
  -24.8670  -28.9412   20.1125 C   0  0  0  0  0  0
  -22.7472  -29.4629   22.4943 C   0  0  0  0  0  0
  -18.0289  -28.1384   22.8482 C   0  0  0  0  0  0
  -24.1491  -36.7301   23.2635 C   0  0  0  0  0  0
  -25.9576  -30.7987   21.3721 C   0  0  0  0  0  0
  -26.0342  -29.4275   20.7155 C   0  0  0  0  0  0
  -27.2217  -28.6397   20.7054 C   0  0  0  0  0  0
  -26.0465  -26.9078   19.4798 C   0  0  0  0  0  0
  -24.8739  -27.6859   19.4853 C   0  0  0  0  0  0
  -23.6326  -29.8171   20.1614 C   0  0  0  0  0  0
  -25.4113  -36.3089   24.0328 C   0  0  1  0  0  0
  -20.5886  -28.3686   23.1282 C   0  0  2  0  0  0
  -20.6778  -26.9411   22.5404 C   0  0  0  0  0  0
  -19.5754  -26.6385   21.5206 C   0  0  0  0  0  0
  -18.1933  -26.7928   22.1619 C   0  0  0  0  0  0
  -19.1540  -28.8853   23.2879 C   0  0  0  0  0  0
  -18.9462  -30.1455   23.8893 C   0  0  0  0  0  0
  -17.6460  -30.6583   24.0564 C   0  0  0  0  0  0
  -25.9048  -34.9456   23.5109 C   0  0  0  0  0  0
  -16.5352  -29.9079   23.6330 C   0  0  0  0  0  0
  -16.7276  -28.6500   23.0347 C   0  0  0  0  0  0
  -26.4493  -31.6590   25.0726 C   0  0  0  0  0  0
  -25.3734  -31.3716   26.1457 C   0  0  0  0  0  0
  -27.0331  -30.3017   24.6165 C   0  0  0  0  0  0
  -27.6059  -32.4316   25.7494 C   0  0  0  0  0  0
  -27.5583  -37.1802   24.8461 C   0  0  0  0  0  0
  -21.4188  -29.3045   22.3683 N   0  0  0  0  0  0
  -26.4294  -37.3781   23.9407 N   0  0  0  0  0  0
  -24.6854  -31.0641   22.0977 N   0  0  0  0  0  0
  -23.4201  -28.8170   23.3021 O   0  0  0  0  0  0
  -28.3556  -26.5072   20.1334 O   0  0  0  0  0  0
  -26.5613  -34.8921   22.4674 O   0  0  0  0  0  0
  -23.5416  -32.1397   23.7376 O   0  0  0  0  0  0
  -30.9148  -17.8914   20.2169 C   0  0  0  0  0  0
  -30.8063  -19.2872   19.9389 C   0  0  0  0  0  0
  -28.8542  -18.0112   21.4259 C   0  0  0  0  0  0
  -29.9459  -17.2022   20.9917 C   0  0  0  0  0  0
  -28.7334  -19.4053   21.1466 C   0  0  0  0  0  0
  -29.7366  -20.1000   20.4040 C   0  0  0  0  0  0
  -30.0538  -15.7429   21.4798 C   0  0  0  0  0  0
  -29.1806  -23.9944   20.1080 C   0  0  0  0  0  0
  -28.1492  -25.1086   20.5628 C   0  0  0  0  0  0
  -28.8626  -22.5009   20.5558 C   0  0  0  0  0  0
  -29.6596  -15.4923   22.6603 N   0  0  0  0  0  0
  -27.5959  -20.0512   21.6269 N   0  0  0  0  0  0
  -29.7896  -21.4767   20.0757 O   0  0  0  0  0  0
  -31.4794  -12.5088   19.1576 H   0  0  0  0  0  0
  -30.3655  -11.3860   19.8690 H   0  0  0  0  0  0
  -29.7829  -11.8074   17.4619 H   0  0  0  0  0  0
  -29.6568  -13.5199   17.7750 H   0  0  0  0  0  0
  -27.8645  -11.3085   18.8328 H   0  0  0  0  0  0
  -27.3830  -12.6159   17.7843 H   0  0  0  0  0  0
  -27.6945  -14.2592   19.5620 H   0  0  0  0  0  0
  -28.7053  -11.9706   21.3070 H   0  0  0  0  0  0
  -28.3844  -13.5596   21.8797 H   0  0  0  0  0  0
  -25.2768   -9.5693   22.4751 H   0  0  0  0  0  0
  -24.0011   -7.4642   22.7470 H   0  0  0  0  0  0
  -21.0841   -8.8775   19.8956 H   0  0  0  0  0  0
  -22.3694  -10.9674   19.6159 H   0  0  0  0  0  0
  -21.2007   -7.6151   23.9723 H   0  0  0  0  0  0
  -21.1479   -6.0521   25.9079 H   0  0  0  0  0  0
  -22.0598   -2.7613   23.2846 H   0  0  0  0  0  0
  -22.4109  -11.9889   22.4804 H   0  0  0  0  0  0
  -21.1125  -13.1259   22.2604 H   0  0  0  0  0  0
  -24.6664  -15.8458   20.5245 H   0  0  0  0  0  0
  -26.2888  -15.6285   20.1035 H   0  0  0  0  0  0
  -26.7176  -32.5464   23.1120 H   0  0  0  0  0  0
  -25.0080  -33.9735   25.0439 H   0  0  0  0  0  0
  -22.7112  -31.3036   21.4014 H   0  0  0  0  0  0
  -23.3752  -35.9634   23.3293 H   0  0  0  0  0  0
  -24.3584  -36.8926   22.2051 H   0  0  0  0  0  0
  -23.7243  -37.6503   23.6659 H   0  0  0  0  0  0
  -26.0869  -31.5632   20.6047 H   0  0  0  0  0  0
  -26.8391  -30.8476   22.0001 H   0  0  0  0  0  0
  -28.1208  -29.0115   21.1768 H   0  0  0  0  0  0
  -26.0144  -25.9577   18.9668 H   0  0  0  0  0  0
  -23.9830  -27.3117   18.9996 H   0  0  0  0  0  0
  -23.7482  -30.5916   19.4025 H   0  0  0  0  0  0
  -22.7545  -29.2420   19.8619 H   0  0  0  0  0  0
  -25.1293  -36.1944   25.0821 H   0  0  0  0  0  0
  -20.9979  -28.3259   24.1403 H   0  0  0  0  0  0
  -20.5678  -26.2296   23.3604 H   0  0  0  0  0  0
  -21.6647  -26.7440   22.1198 H   0  0  0  0  0  0
  -19.6916  -25.6295   21.1238 H   0  0  0  0  0  0
  -19.6694  -27.3195   20.6737 H   0  0  0  0  0  0
  -17.4204  -26.6672   21.4022 H   0  0  0  0  0  0
  -18.0338  -26.0069   22.9015 H   0  0  0  0  0  0
  -19.7937  -30.7274   24.2258 H   0  0  0  0  0  0
  -17.5013  -31.6262   24.5168 H   0  0  0  0  0  0
  -15.5351  -30.2979   23.7656 H   0  0  0  0  0  0
  -15.8678  -28.0819   22.7059 H   0  0  0  0  0  0
  -24.5912  -30.7063   25.7784 H   0  0  0  0  0  0
  -24.8923  -32.2877   26.4895 H   0  0  0  0  0  0
  -25.8068  -30.8885   27.0224 H   0  0  0  0  0  0
  -26.2896  -29.6768   24.1204 H   0  0  0  0  0  0
  -27.4052  -29.7272   25.4658 H   0  0  0  0  0  0
  -27.8758  -30.4308   23.9367 H   0  0  0  0  0  0
  -27.2680  -33.3612   26.2086 H   0  0  0  0  0  0
  -28.3866  -32.6882   25.0319 H   0  0  0  0  0  0
  -28.0737  -31.8431   26.5399 H   0  0  0  0  0  0
  -28.2593  -38.0107   24.7522 H   0  0  0  0  0  0
  -28.1088  -36.2640   24.6270 H   0  0  0  0  0  0
  -27.2302  -37.1430   25.8864 H   0  0  0  0  0  0
  -20.9367  -29.8765   21.6888 H   0  0  0  0  0  0
  -26.0178  -38.2856   24.1413 H   0  0  0  0  0  0
  -31.7853  -17.3625   19.8558 H   0  0  0  0  0  0
  -31.5900  -19.7559   19.3611 H   0  0  0  0  0  0
  -28.0770  -17.5429   22.0138 H   0  0  0  0  0  0
  -30.1715  -24.2650   20.4743 H   0  0  0  0  0  0
  -29.2485  -24.0174   19.0204 H   0  0  0  0  0  0
  -28.1367  -25.1250   21.6532 H   0  0  0  0  0  0
  -27.1631  -24.7448   20.2823 H   0  0  0  0  0  0
  -27.8652  -22.2550   20.1928 H   0  0  0  0  0  0
  -28.8323  -22.4633   21.6451 H   0  0  0  0  0  0
  -29.3195  -16.3316   23.1135 H   0  0  0  0  0  0
  -26.7930  -19.4794   21.8669 H   0  0  0  0  0  0
  -27.3280  -20.9118   21.1657 H   0  0  0  0  0  0
  1 25  1  0  0  0
  1 30  2  0  0  0
  1 77  1  0  0  0
  2  3  1  0  0  0
  2 25  1  0  0  0
  2 84  1  0  0  0
  2 85  1  0  0  0
  3  4  1  0  0  0
  3 86  1  0  0  0
  3 87  1  0  0  0
  4  5  1  0  0  0
  4 88  1  0  0  0
  4 89  1  0  0  0
  5  6  1  0  0  0
  5 26  1  0  0  0
  5 90  1  0  0  0
  6 25  1  0  0  0
  6 91  1  0  0  0
  6 92  1  0  0  0
  7  8  2  0  0  0
  7 26  1  0  0  0
  7 29  1  0  0  0
  8  9  1  0  0  0
  8 22  1  0  0  0
  9 10  1  0  0  0
  9 27  2  0  0  0
 10 11  2  0  0  0
 10 15  1  0  0  0
 11 12  1  0  0  0
 11 93  1  0  0  0
 12 13  2  0  0  0
 12 94  1  0  0  0
 13 14  1  0  0  0
 13 31  1  0  0  0
 14 15  2  0  0  0
 14 95  1  0  0  0
 15 96  1  0  0  0
 16 17  2  0  0  0
 16 21  1  0  0  0
 16 31  1  0  0  0
 17 18  1  0  0  0
 17 97  1  0  0  0
 18 19  2  0  0  0
 18 98  1  0  0  0
 19 20  1  0  0  0
 19 24  1  0  0  0
 20 21  2  0  0  0
 20 99  1  0  0  0
 21 23  1  0  0  0
 22 28  1  0  0  0
 22 32  2  0  0  0
 26 27  1  0  0  0
 28100  1  0  0  0
 28101  1  0  0  0
 29102  1  0  0  0
 29103  1  0  0  0
 33 34  1  0  0  0
 33 66  1  0  0  0
 33 70  2  0  0  0
 34 36  1  0  0  0
 34 59  1  0  0  0
 34104  1  0  0  0
 35 44  2  0  0  0
 35 45  1  0  0  0
 35 68  1  0  0  0
 36 56  1  0  0  0
 36105  1  0  0  0
 37 39  1  0  0  0
 37 47  1  0  0  0
 37 66  1  0  0  0
 37106  1  0  0  0
 38 43  2  0  0  0
 38 46  1  0  0  0
 38 47  1  0  0  0
 39 64  1  0  0  0
 39 67  2  0  0  0
 40 52  1  0  0  0
 40 53  2  0  0  0
 40 58  1  0  0  0
 41107  1  0  0  0
 41108  1  0  0  0
 41109  1  0  0  0
 41 48  1  0  0  0
 42 43  1  0  0  0
 42 66  1  0  0  0
 42110  1  0  0  0
 42111  1  0  0  0
 43 44  1  0  0  0
 44112  1  0  0  0
 45 46  2  0  0  0
 45113  1  0  0  0
 46114  1  0  0  0
 47115  1  0  0  0
 47116  1  0  0  0
 48 56  1  0  0  0
 48 65  1  0  0  0
 48117  1  0  0  0
 49 50  1  0  0  0
 49 53  1  0  0  0
 49 64  1  0  0  0
 49118  1  0  0  0
 50 51  1  0  0  0
 50119  1  0  0  0
 50120  1  0  0  0
 51 52  1  0  0  0
 51121  1  0  0  0
 51122  1  0  0  0
 52123  1  0  0  0
 52124  1  0  0  0
 53 54  1  0  0  0
 54 55  2  0  0  0
 54125  1  0  0  0
 55 57  1  0  0  0
 55126  1  0  0  0
 56 69  2  0  0  0
 57 58  2  0  0  0
 57127  1  0  0  0
 58128  1  0  0  0
 59 60  1  0  0  0
 59 61  1  0  0  0
 59 62  1  0  0  0
 60129  1  0  0  0
 60130  1  0  0  0
 60131  1  0  0  0
 61132  1  0  0  0
 61133  1  0  0  0
 61134  1  0  0  0
 62135  1  0  0  0
 62136  1  0  0  0
 62137  1  0  0  0
 63 65  1  0  0  0
 63138  1  0  0  0
 63139  1  0  0  0
 63140  1  0  0  0
 64141  1  0  0  0
 65142  1  0  0  0
 68 79  1  0  0  0
 71 72  2  0  0  0
 71 74  1  0  0  0
 71143  1  0  0  0
 72 76  1  0  0  0
 72144  1  0  0  0
 73 74  2  0  0  0
 73 75  1  0  0  0
 73145  1  0  0  0
 74 77  1  0  0  0
 75 76  2  0  0  0
 75 82  1  0  0  0
 76 83  1  0  0  0
 77 81  2  0  0  0
 78 79  1  0  0  0
 78 80  1  0  0  0
 78146  1  0  0  0
 78147  1  0  0  0
 79148  1  0  0  0
 79149  1  0  0  0
 80 83  1  0  0  0
 80150  1  0  0  0
 80151  1  0  0  0
 81152  1  0  0  0
 82153  1  0  0  0
 82154  1  0  0  0
M  ISO  4   1 100  68 101  77 100  79 101
M  END
> <chiral flag>
0

> <version>
0

> <s_m_source_file>
/data/baiqing/PycharmProjects/Reinvent-master-3.2/result/LINK_invent/BTK/process_docking_weight1_custom_product_contain_oxygen_bond_distance_aromatic_linkinvent_7_9_3/rearranged_h_0094.sdf

> <i_m_source_file_index>
12

> <r_mmod_Potential_Energy-OPLS-2005>
169.4521484375

> <r_mmod_Stretch_Energy-OPLS-2005>
85.0642166137695

> <r_mmod_Bend_Energy-OPLS-2005>
160.605255126953

> <r_mmod_Torsional_Energy-OPLS-2005>
215.386123657227

> <r_mmod_Improper_Torsional_Energy-OPLS-2005>
6.12695217132568

> <r_mmod_Van_der_Waal_Energy-OPLS-2005>
156.264205932617

> <r_mmod_Electrostatic_Energy-OPLS-2005>
-280.941955566406

> <r_mmod_Solvation_Energy-OPLS-2005>
-208.973754882812

> <b_mmod_Minimization_Converged-OPLS-2005>
0

> <r_mmod_RMS_Derivative-OPLS-2005>
0.904738128185272

$$$$
12
                    3D
 Structure written by MMmdl.
157165  0  0  1  0            999 V2000
  -30.6937  -15.0681   20.4335 C   0  0  0  0  0  0
  -30.3817  -12.6944   19.5274 C   0  0  0  0  0  0
  -29.4977  -12.5755   18.2705 C   0  0  0  0  0  0
  -28.0648  -12.2875   18.7299 C   0  0  0  0  0  0
  -27.6099  -13.2807   19.8348 C   0  0  2  0  0  0
  -28.6512  -13.4738   20.9707 C   0  0  0  0  0  0
  -25.2260  -13.8238   20.5654 C   0  0  0  0  0  0
  -24.1713  -13.0409   20.9293 C   0  0  0  0  0  0
  -24.6410  -11.6920   20.8830 C   0  0  0  0  0  0
  -23.9105  -10.4237   21.0409 C   0  0  0  0  0  0
  -24.3635   -9.4161   21.9213 C   0  0  0  0  0  0
  -23.6291   -8.2200   22.0748 C   0  0  0  0  0  0
  -22.4285   -8.0242   21.3520 C   0  0  0  0  0  0
  -21.9922   -9.0227   20.4654 C   0  0  0  0  0  0
  -22.7251  -10.2104   20.3057 C   0  0  0  0  0  0
  -21.6814   -6.0760   22.5285 C   0  0  0  0  0  0
  -21.4011   -6.5676   23.8215 C   0  0  0  0  0  0
  -21.3645   -5.6812   24.9180 C   0  0  0  0  0  0
  -21.6015   -4.3065   24.7208 C   0  0  0  0  0  0
  -21.8814   -3.8174   23.4332 C   0  0  0  0  0  0
  -21.9182   -4.7000   22.3415 C   0  0  0  0  0  0
  -22.7729  -13.5153   21.1871 C   0  0  0  0  0  0
  -22.1665   -4.2200   21.0961 F   0  0  0  0  0  0
  -21.5574   -3.4537   25.7720 F   0  0  0  0  0  0
  -29.9164  -13.8848   20.3410 N   0  0  0  0  0  0
  -26.2817  -12.9585   20.3376 N   0  0  0  0  0  0
  -25.9360  -11.6659   20.5925 N   0  0  0  0  0  0
  -22.0367  -12.8170   22.0411 N   0  0  0  0  0  0
  -25.3387  -15.1945   20.3512 N   0  0  0  0  0  0
  -31.8472  -14.8510   20.0245 O   0  0  0  0  0  0
  -21.6587   -6.8899   21.4243 O   0  0  0  0  0  0
  -22.3456  -14.5462   20.6693 O   0  0  0  0  0  0
  -24.6524  -31.8436   23.1862 C   0  0  0  0  0  0
  -25.9281  -32.4687   23.8250 C   0  0  1  0  0  0
  -27.1896  -27.0694   20.1594 C   0  0  0  0  0  0
  -25.6049  -33.8472   24.2206 N   0  0  0  0  0  0
  -23.4484  -30.4704   21.5322 C   0  0  2  0  0  0
  -24.8938  -28.8870   20.1073 C   0  0  0  0  0  0
  -22.7549  -29.4598   22.4819 C   0  0  0  0  0  0
  -18.0321  -28.1417   22.8435 C   0  0  0  0  0  0
  -24.1485  -36.7186   23.2617 C   0  0  0  0  0  0
  -26.0106  -30.6900   21.3984 C   0  0  0  0  0  0
  -26.0747  -29.2987   20.7356 C   0  0  0  0  0  0
  -27.2192  -28.4053   20.7524 C   0  0  0  0  0  0
  -25.9896  -26.7859   19.4717 C   0  0  0  0  0  0
  -24.8683  -27.6425   19.4613 C   0  0  0  0  0  0
  -23.6793  -29.8083   20.1482 C   0  0  0  0  0  0
  -25.4124  -36.3007   24.0329 C   0  0  1  0  0  0
  -20.5929  -28.3761   23.1223 C   0  0  2  0  0  0
  -20.6827  -26.9478   22.5378 C   0  0  0  0  0  0
  -19.5826  -26.6417   21.5191 C   0  0  0  0  0  0
  -18.1982  -26.7958   22.1600 C   0  0  0  0  0  0
  -19.1561  -28.8902   23.2823 C   0  0  0  0  0  0
  -18.9503  -30.1475   23.8878 C   0  0  0  0  0  0
  -17.6507  -30.6614   24.0556 C   0  0  0  0  0  0
  -25.9102  -34.9397   23.5080 C   0  0  0  0  0  0
  -16.5390  -29.9091   23.6333 C   0  0  0  0  0  0
  -16.7296  -28.6504   23.0335 C   0  0  0  0  0  0
  -26.4595  -31.6564   25.0696 C   0  0  0  0  0  0
  -25.3750  -31.3745   26.1377 C   0  0  0  0  0  0
  -27.0459  -30.2935   24.6324 C   0  0  0  0  0  0
  -27.6107  -32.4315   25.7475 C   0  0  0  0  0  0
  -27.5575  -37.1779   24.8495 C   0  0  0  0  0  0
  -21.4227  -29.3105   22.3584 N   0  0  0  0  0  0
  -26.4276  -37.3743   23.9440 N   0  0  0  0  0  0
  -24.7236  -31.0241   22.0925 N   0  0  0  0  0  0
  -23.4152  -28.8130   23.2999 O   0  0  0  0  0  0
  -28.2117  -26.0367   20.2684 O   0  0  0  0  0  0
  -26.5638  -34.8964   22.4618 O   0  0  0  0  0  0
  -23.5651  -32.1340   23.7081 O   0  0  0  0  0  0
  -28.0108  -17.3712   20.5639 C   0  0  0  0  0  0
  -29.6824  -19.1095   20.3449 C   0  0  0  0  0  0
  -29.3992  -17.6270   20.5111 C   0  0  0  0  0  0
  -27.0384  -18.4120   20.5033 C   0  0  0  0  0  0
  -27.3739  -19.7919   20.3717 C   0  0  0  0  0  0
  -28.7140  -20.2560   20.2966 C   0  0  0  0  0  0
  -31.4882  -17.0075   21.4632 C   0  0  0  0  0  0
  -31.7931  -16.6454   22.9151 C   0  0  0  0  0  0
  -28.0934  -24.5145   19.8195 C   0  0  0  0  0  0
  -28.3861  -23.0177   20.6155 C   0  0  0  0  0  0
  -25.6774  -18.0839   20.5676 N   0  0  0  0  0  0
  -26.2958  -20.6596   20.1942 N   0  0  0  0  0  0
  -30.4005  -16.4562   20.8472 N   0  0  0  0  0  0
  -32.3050  -17.7356   20.8730 O   0  0  0  0  0  0
  -29.0228  -21.6897   20.0459 O   0  0  0  0  0  0
  -31.4238  -12.7372   19.2044 H   0  0  0  0  0  0
  -30.3159  -11.7802   20.1228 H   0  0  0  0  0  0
  -29.8629  -11.7761   17.6202 H   0  0  0  0  0  0
  -29.5381  -13.5018   17.6883 H   0  0  0  0  0  0
  -28.0557  -11.2740   19.1352 H   0  0  0  0  0  0
  -27.3738  -12.2797   17.8903 H   0  0  0  0  0  0
  -27.5236  -14.2422   19.3334 H   0  0  0  0  0  0
  -28.7785  -12.5663   21.5587 H   0  0  0  0  0  0
  -28.3153  -14.2489   21.6610 H   0  0  0  0  0  0
  -25.2770   -9.5608   22.4828 H   0  0  0  0  0  0
  -23.9964   -7.4555   22.7478 H   0  0  0  0  0  0
  -21.0827   -8.8741   19.8996 H   0  0  0  0  0  0
  -22.3681  -10.9652   19.6166 H   0  0  0  0  0  0
  -21.2024   -7.6177   23.9767 H   0  0  0  0  0  0
  -21.1455   -6.0517   25.9086 H   0  0  0  0  0  0
  -22.0609   -2.7639   23.2792 H   0  0  0  0  0  0
  -22.3947  -11.9877   22.4922 H   0  0  0  0  0  0
  -21.0981  -13.1260   22.2568 H   0  0  0  0  0  0
  -24.4525  -15.6393   20.1224 H   0  0  0  0  0  0
  -26.0797  -15.5688   19.7688 H   0  0  0  0  0  0
  -26.7311  -32.5298   23.0929 H   0  0  0  0  0  0
  -25.0274  -33.9616   25.0419 H   0  0  0  0  0  0
  -22.7519  -31.2979   21.3833 H   0  0  0  0  0  0
  -23.3807  -35.9460   23.3289 H   0  0  0  0  0  0
  -24.3498  -36.8769   22.2014 H   0  0  0  0  0  0
  -23.7214  -37.6375   23.6638 H   0  0  0  0  0  0
  -26.1925  -31.4523   20.6370 H   0  0  0  0  0  0
  -26.8673  -30.7208   22.0530 H   0  0  0  0  0  0
  -28.1093  -28.7107   21.2875 H   0  0  0  0  0  0
  -25.8535  -25.8604   18.9407 H   0  0  0  0  0  0
  -23.9700  -27.3198   18.9517 H   0  0  0  0  0  0
  -23.8422  -30.5935   19.4115 H   0  0  0  0  0  0
  -22.7839  -29.2815   19.8146 H   0  0  0  0  0  0
  -25.1315  -36.1753   25.0820 H   0  0  0  0  0  0
  -21.0013  -28.3343   24.1378 H   0  0  0  0  0  0
  -20.5726  -26.2364   23.3581 H   0  0  0  0  0  0
  -21.6714  -26.7522   22.1214 H   0  0  0  0  0  0
  -19.6992  -25.6293   21.1293 H   0  0  0  0  0  0
  -19.6787  -27.3152   20.6662 H   0  0  0  0  0  0
  -17.4262  -26.6678   21.4002 H   0  0  0  0  0  0
  -18.0403  -26.0110   22.9015 H   0  0  0  0  0  0
  -19.7976  -30.7246   24.2281 H   0  0  0  0  0  0
  -17.5095  -31.6324   24.5140 H   0  0  0  0  0  0
  -15.5405  -30.3010   23.7738 H   0  0  0  0  0  0
  -15.8673  -28.0849   22.7097 H   0  0  0  0  0  0
  -24.5963  -30.7041   25.7735 H   0  0  0  0  0  0
  -24.8926  -32.2936   26.4727 H   0  0  0  0  0  0
  -25.8093  -30.8985   27.0172 H   0  0  0  0  0  0
  -26.3117  -29.6617   24.1307 H   0  0  0  0  0  0
  -27.4010  -29.7289   25.4964 H   0  0  0  0  0  0
  -27.9077  -30.4155   23.9721 H   0  0  0  0  0  0
  -27.2710  -33.3646   26.1985 H   0  0  0  0  0  0
  -28.3992  -32.6797   25.0341 H   0  0  0  0  0  0
  -28.0683  -31.8408   26.5425 H   0  0  0  0  0  0
  -28.2667  -38.0011   24.7518 H   0  0  0  0  0  0
  -28.1037  -36.2573   24.6387 H   0  0  0  0  0  0
  -27.2295  -37.1472   25.8898 H   0  0  0  0  0  0
  -20.9382  -29.8748   21.6743 H   0  0  0  0  0  0
  -26.0138  -38.2801   24.1415 H   0  0  0  0  0  0
  -27.6761  -16.3575   20.7190 H   0  0  0  0  0  0
  -30.7149  -19.4201   20.2523 H   0  0  0  0  0  0
  -32.1786  -17.5221   23.4463 H   0  0  0  0  0  0
  -30.8986  -16.2929   23.4218 H   0  0  0  0  0  0
  -32.5547  -15.8648   22.9818 H   0  0  0  0  0  0
  -28.7484  -24.4744   18.9533 H   0  0  0  0  0  0
  -27.1118  -24.3571   19.3833 H   0  0  0  0  0  0
  -29.0580  -23.2696   21.4363 H   0  0  0  0  0  0
  -27.4661  -22.7517   21.1267 H   0  0  0  0  0  0
  -25.4324  -17.1051   20.7283 H   0  0  0  0  0  0
  -25.1385  -18.6861   21.1828 H   0  0  0  0  0  0
  -26.4718  -21.4264   19.5569 H   0  0  0  0  0  0
  -25.4969  -20.1111   19.8818 H   0  0  0  0  0  0
  1 25  1  0  0  0
  1 30  2  0  0  0
  1 83  1  0  0  0
  2  3  1  0  0  0
  2 25  1  0  0  0
  2 86  1  0  0  0
  2 87  1  0  0  0
  3  4  1  0  0  0
  3 88  1  0  0  0
  3 89  1  0  0  0
  4  5  1  0  0  0
  4 90  1  0  0  0
  4 91  1  0  0  0
  5  6  1  0  0  0
  5 26  1  0  0  0
  5 92  1  0  0  0
  6 25  1  0  0  0
  6 93  1  0  0  0
  6 94  1  0  0  0
  7  8  2  0  0  0
  7 26  1  0  0  0
  7 29  1  0  0  0
  8  9  1  0  0  0
  8 22  1  0  0  0
  9 10  1  0  0  0
  9 27  2  0  0  0
 10 11  2  0  0  0
 10 15  1  0  0  0
 11 12  1  0  0  0
 11 95  1  0  0  0
 12 13  2  0  0  0
 12 96  1  0  0  0
 13 14  1  0  0  0
 13 31  1  0  0  0
 14 15  2  0  0  0
 14 97  1  0  0  0
 15 98  1  0  0  0
 16 17  2  0  0  0
 16 21  1  0  0  0
 16 31  1  0  0  0
 17 18  1  0  0  0
 17 99  1  0  0  0
 18 19  2  0  0  0
 18100  1  0  0  0
 19 20  1  0  0  0
 19 24  1  0  0  0
 20 21  2  0  0  0
 20101  1  0  0  0
 21 23  1  0  0  0
 22 28  1  0  0  0
 22 32  2  0  0  0
 26 27  1  0  0  0
 28102  1  0  0  0
 28103  1  0  0  0
 29104  1  0  0  0
 29105  1  0  0  0
 33 34  1  0  0  0
 33 66  1  0  0  0
 33 70  2  0  0  0
 34 36  1  0  0  0
 34 59  1  0  0  0
 34106  1  0  0  0
 35 44  2  0  0  0
 35 45  1  0  0  0
 35 68  1  0  0  0
 36 56  1  0  0  0
 36107  1  0  0  0
 37 39  1  0  0  0
 37 47  1  0  0  0
 37 66  1  0  0  0
 37108  1  0  0  0
 38 43  2  0  0  0
 38 46  1  0  0  0
 38 47  1  0  0  0
 39 64  1  0  0  0
 39 67  2  0  0  0
 40 52  1  0  0  0
 40 53  2  0  0  0
 40 58  1  0  0  0
 41109  1  0  0  0
 41110  1  0  0  0
 41111  1  0  0  0
 41 48  1  0  0  0
 42 43  1  0  0  0
 42 66  1  0  0  0
 42112  1  0  0  0
 42113  1  0  0  0
 43 44  1  0  0  0
 44114  1  0  0  0
 45 46  2  0  0  0
 45115  1  0  0  0
 46116  1  0  0  0
 47117  1  0  0  0
 47118  1  0  0  0
 48 56  1  0  0  0
 48 65  1  0  0  0
 48119  1  0  0  0
 49 50  1  0  0  0
 49 53  1  0  0  0
 49 64  1  0  0  0
 49120  1  0  0  0
 50 51  1  0  0  0
 50121  1  0  0  0
 50122  1  0  0  0
 51 52  1  0  0  0
 51123  1  0  0  0
 51124  1  0  0  0
 52125  1  0  0  0
 52126  1  0  0  0
 53 54  1  0  0  0
 54 55  2  0  0  0
 54127  1  0  0  0
 55 57  1  0  0  0
 55128  1  0  0  0
 56 69  2  0  0  0
 57 58  2  0  0  0
 57129  1  0  0  0
 58130  1  0  0  0
 59 60  1  0  0  0
 59 61  1  0  0  0
 59 62  1  0  0  0
 60131  1  0  0  0
 60132  1  0  0  0
 60133  1  0  0  0
 61134  1  0  0  0
 61135  1  0  0  0
 61136  1  0  0  0
 62137  1  0  0  0
 62138  1  0  0  0
 62139  1  0  0  0
 63 65  1  0  0  0
 63140  1  0  0  0
 63141  1  0  0  0
 63142  1  0  0  0
 64143  1  0  0  0
 65144  1  0  0  0
 68 79  1  0  0  0
 71 73  2  0  0  0
 71 74  1  0  0  0
 71145  1  0  0  0
 72 73  1  0  0  0
 72 76  2  0  0  0
 72146  1  0  0  0
 73 83  1  0  0  0
 74 75  2  0  0  0
 74 81  1  0  0  0
 75 76  1  0  0  0
 75 82  1  0  0  0
 76 85  1  0  0  0
 77 78  1  0  0  0
 77 83  1  0  0  0
 77 84  2  0  0  0
 78147  1  0  0  0
 78148  1  0  0  0
 78149  1  0  0  0
 79 80  1  0  0  0
 79150  1  0  0  0
 79151  1  0  0  0
 80 85  1  0  0  0
 80152  1  0  0  0
 80153  1  0  0  0
 81154  1  0  0  0
 81155  1  0  0  0
 82156  1  0  0  0
 82157  1  0  0  0
M  ISO  4   1 100  68 101  79 101  83 100
M  END
> <chiral flag>
0

> <version>
0

> <s_m_source_file>
/data/baiqing/PycharmProjects/Reinvent-master-3.2/result/LINK_invent/BTK/process_docking_weight1_custom_product_contain_oxygen_bond_distance_aromatic_linkinvent_7_9_3/rearranged_h_0094.sdf

> <i_m_source_file_index>
13

> <r_mmod_Potential_Energy-OPLS-2005>
956.938537597656

> <r_mmod_Stretch_Energy-OPLS-2005>
375.928436279297

> <r_mmod_Bend_Energy-OPLS-2005>
420.501556396484

> <r_mmod_Torsional_Energy-OPLS-2005>
361.237579345703

> <r_mmod_Improper_Torsional_Energy-OPLS-2005>
20.5776462554932

> <r_mmod_Van_der_Waal_Energy-OPLS-2005>
178.917404174805

> <r_mmod_Electrostatic_Energy-OPLS-2005>
-474.569580078125

> <r_mmod_Solvation_Energy-OPLS-2005>
-206.876098632812

> <b_mmod_Minimization_Converged-OPLS-2005>
0

> <r_mmod_RMS_Derivative-OPLS-2005>
8.54084300994873

$$$$
13
                    3D
 Structure written by MMmdl.
159168  0  0  1  0            999 V2000
  -30.6388  -14.6880   20.5856 C   0  0  0  0  0  0
  -30.4311  -12.4481   19.4691 C   0  0  0  0  0  0
  -29.5084  -12.5328   18.2334 C   0  0  0  0  0  0
  -28.0351  -12.3454   18.6388 C   0  0  0  0  0  0
  -27.6451  -13.2238   19.8541 C   0  0  2  0  0  0
  -28.6758  -13.1045   20.9909 C   0  0  0  0  0  0
  -25.2526  -13.8180   20.5660 C   0  0  0  0  0  0
  -24.1805  -13.0439   20.9169 C   0  0  0  0  0  0
  -24.6388  -11.6917   20.8723 C   0  0  0  0  0  0
  -23.9063  -10.4300   21.0397 C   0  0  0  0  0  0
  -24.3623   -9.4218   21.9175 C   0  0  0  0  0  0
  -23.6306   -8.2249   22.0755 C   0  0  0  0  0  0
  -22.4286   -8.0283   21.3543 C   0  0  0  0  0  0
  -21.9915   -9.0255   20.4646 C   0  0  0  0  0  0
  -22.7238  -10.2137   20.3050 C   0  0  0  0  0  0
  -21.6855   -6.0738   22.5279 C   0  0  0  0  0  0
  -21.4013   -6.5639   23.8211 C   0  0  0  0  0  0
  -21.3658   -5.6793   24.9176 C   0  0  0  0  0  0
  -21.6049   -4.3057   24.7228 C   0  0  0  0  0  0
  -21.8818   -3.8152   23.4344 C   0  0  0  0  0  0
  -21.9196   -4.6967   22.3400 C   0  0  0  0  0  0
  -22.7833  -13.5225   21.1857 C   0  0  0  0  0  0
  -22.1660   -4.2151   21.0977 F   0  0  0  0  0  0
  -21.5637   -3.4544   25.7738 F   0  0  0  0  0  0
  -29.9943  -13.4736   20.4474 N   0  0  0  0  0  0
  -26.2934  -12.9370   20.3238 N   0  0  0  0  0  0
  -25.9304  -11.6517   20.5700 N   0  0  0  0  0  0
  -22.0485  -12.8203   22.0419 N   0  0  0  0  0  0
  -25.4267  -15.1906   20.4124 N   0  0  0  0  0  0
  -31.7348  -14.8662   20.0421 O   0  0  0  0  0  0
  -21.6645   -6.8884   21.4241 O   0  0  0  0  0  0
  -22.3509  -14.5544   20.6737 O   0  0  0  0  0  0
  -24.6298  -31.8559   23.1991 C   0  0  0  0  0  0
  -25.9132  -32.4749   23.8325 C   0  0  1  0  0  0
  -27.2156  -27.2770   20.1136 C   0  0  0  0  0  0
  -25.5943  -33.8561   24.2250 N   0  0  0  0  0  0
  -23.4233  -30.4793   21.5428 C   0  0  2  0  0  0
  -24.8664  -28.9269   20.1073 C   0  0  0  0  0  0
  -22.7471  -29.4612   22.4930 C   0  0  0  0  0  0
  -18.0269  -28.1382   22.8495 C   0  0  0  0  0  0
  -24.1482  -36.7273   23.2633 C   0  0  0  0  0  0
  -25.9672  -30.7727   21.3739 C   0  0  0  0  0  0
  -26.0359  -29.3966   20.7163 C   0  0  0  0  0  0
  -27.2098  -28.5812   20.7119 C   0  0  0  0  0  0
  -26.0161  -26.8622   19.4925 C   0  0  0  0  0  0
  -24.8610  -27.6676   19.4882 C   0  0  0  0  0  0
  -23.6366  -29.8121   20.1582 C   0  0  0  0  0  0
  -25.4103  -36.3063   24.0324 C   0  0  1  0  0  0
  -20.5873  -28.3698   23.1287 C   0  0  2  0  0  0
  -20.6766  -26.9412   22.5430 C   0  0  0  0  0  0
  -19.5745  -26.6385   21.5229 C   0  0  0  0  0  0
  -18.1918  -26.7932   22.1617 C   0  0  0  0  0  0
  -19.1520  -28.8858   23.2893 C   0  0  0  0  0  0
  -18.9448  -30.1456   23.8917 C   0  0  0  0  0  0
  -17.6451  -30.6595   24.0569 C   0  0  0  0  0  0
  -25.9062  -34.9437   23.5086 C   0  0  0  0  0  0
  -16.5343  -29.9088   23.6335 C   0  0  0  0  0  0
  -16.7263  -28.6496   23.0375 C   0  0  0  0  0  0
  -26.4492  -31.6579   25.0714 C   0  0  0  0  0  0
  -25.3712  -31.3741   26.1441 C   0  0  0  0  0  0
  -27.0319  -30.2980   24.6211 C   0  0  0  0  0  0
  -27.6071  -32.4301   25.7471 C   0  0  0  0  0  0
  -27.5592  -37.1748   24.8425 C   0  0  0  0  0  0
  -21.4182  -29.3048   22.3674 N   0  0  0  0  0  0
  -26.4257  -37.3793   23.9457 N   0  0  0  0  0  0
  -24.6926  -31.0538   22.0952 N   0  0  0  0  0  0
  -23.4179  -28.8158   23.3035 O   0  0  0  0  0  0
  -28.3357  -26.4242   20.1917 O   0  0  0  0  0  0
  -26.5641  -34.8917   22.4662 O   0  0  0  0  0  0
  -23.5454  -32.1378   23.7304 O   0  0  0  0  0  0
  -29.8056  -19.5166   21.8556 C   0  0  0  0  0  0
  -28.9007  -19.0317   19.6999 C   0  0  0  0  0  0
  -30.1361  -18.1391   22.0225 C   0  0  0  0  0  0
  -29.2415  -17.6369   19.8650 C   0  0  0  0  0  0
  -27.6164  -23.3439   21.2879 C   0  0  0  0  0  0
  -28.4133  -23.7158   20.1655 C   0  0  0  0  0  0
  -29.1505  -20.0186   20.7032 C   0  0  0  0  0  0
  -29.8510  -17.1266   21.0534 C   0  0  0  0  0  0
  -29.0601  -22.5171   19.8083 C   0  0  0  0  0  0
  -27.8021  -22.0087   21.5496 C   0  0  0  0  0  0
  -30.0228  -22.2765   18.6892 C   0  0  0  0  0  0
  -30.1519  -15.3688   22.8136 C   0  0  0  0  0  0
  -28.4572  -25.1357   19.4475 C   0  0  0  0  0  0
  -28.7034  -21.4326   20.6598 N   0  0  0  0  0  0
  -30.0682  -15.6802   21.3740 N   0  0  0  0  0  0
  -27.2154  -21.2583   22.5202 O   0  0  0  0  0  0
  -31.4720  -12.5799   19.1704 H   0  0  0  0  0  0
  -30.3782  -11.4558   19.9192 H   0  0  0  0  0  0
  -29.7930  -11.7817   17.4967 H   0  0  0  0  0  0
  -29.6340  -13.5009   17.7481 H   0  0  0  0  0  0
  -27.8896  -11.2920   18.8825 H   0  0  0  0  0  0
  -27.3775  -12.5549   17.7942 H   0  0  0  0  0  0
  -27.6595  -14.2567   19.5052 H   0  0  0  0  0  0
  -28.7002  -12.0896   21.3894 H   0  0  0  0  0  0
  -28.3598  -13.7406   21.8157 H   0  0  0  0  0  0
  -25.2770   -9.5695   22.4742 H   0  0  0  0  0  0
  -24.0021   -7.4639   22.7473 H   0  0  0  0  0  0
  -21.0848   -8.8771   19.8945 H   0  0  0  0  0  0
  -22.3698  -10.9677   19.6161 H   0  0  0  0  0  0
  -21.1996   -7.6142   23.9717 H   0  0  0  0  0  0
  -21.1479   -6.0522   25.9081 H   0  0  0  0  0  0
  -22.0598   -2.7612   23.2850 H   0  0  0  0  0  0
  -22.4117  -11.9852   22.4767 H   0  0  0  0  0  0
  -21.1114  -13.1219   22.2659 H   0  0  0  0  0  0
  -24.6706  -15.8534   20.5442 H   0  0  0  0  0  0
  -26.2931  -15.6292   20.1270 H   0  0  0  0  0  0
  -26.7204  -32.5394   23.1071 H   0  0  0  0  0  0
  -25.0098  -33.9704   25.0404 H   0  0  0  0  0  0
  -22.7203  -31.3020   21.3993 H   0  0  0  0  0  0
  -23.3776  -35.9557   23.3198 H   0  0  0  0  0  0
  -24.3614  -36.8999   22.2072 H   0  0  0  0  0  0
  -23.7175  -37.6415   23.6724 H   0  0  0  0  0  0
  -26.1031  -31.5327   20.6028 H   0  0  0  0  0  0
  -26.8468  -30.8222   22.0032 H   0  0  0  0  0  0
  -28.1062  -28.9361   21.2002 H   0  0  0  0  0  0
  -25.9253  -25.8891   19.0363 H   0  0  0  0  0  0
  -23.9606  -27.2993   19.0157 H   0  0  0  0  0  0
  -23.7526  -30.5884   19.4007 H   0  0  0  0  0  0
  -22.7543  -29.2425   19.8606 H   0  0  0  0  0  0
  -25.1271  -36.1883   25.0805 H   0  0  0  0  0  0
  -20.9975  -28.3288   24.1399 H   0  0  0  0  0  0
  -20.5667  -26.2314   23.3639 H   0  0  0  0  0  0
  -21.6642  -26.7438   22.1231 H   0  0  0  0  0  0
  -19.6920  -25.6299   21.1258 H   0  0  0  0  0  0
  -19.6690  -27.3204   20.6768 H   0  0  0  0  0  0
  -17.4199  -26.6711   21.3998 H   0  0  0  0  0  0
  -18.0280  -26.0055   22.8982 H   0  0  0  0  0  0
  -19.7929  -30.7269   24.2303 H   0  0  0  0  0  0
  -17.5001  -31.6271   24.5162 H   0  0  0  0  0  0
  -15.5349  -30.3000   23.7654 H   0  0  0  0  0  0
  -15.8653  -28.0823   22.7106 H   0  0  0  0  0  0
  -24.5982  -30.6953   25.7814 H   0  0  0  0  0  0
  -24.8775  -32.2893   26.4721 H   0  0  0  0  0  0
  -25.8047  -30.9087   27.0301 H   0  0  0  0  0  0
  -26.2887  -29.6745   24.1227 H   0  0  0  0  0  0
  -27.3970  -29.7242   25.4742 H   0  0  0  0  0  0
  -27.8780  -30.4243   23.9453 H   0  0  0  0  0  0
  -27.2731  -33.3649   26.1989 H   0  0  0  0  0  0
  -28.3900  -32.6783   25.0288 H   0  0  0  0  0  0
  -28.0704  -31.8449   26.5423 H   0  0  0  0  0  0
  -28.2487  -38.0164   24.7664 H   0  0  0  0  0  0
  -28.1204  -36.2719   24.5980 H   0  0  0  0  0  0
  -27.2364  -37.1083   25.8826 H   0  0  0  0  0  0
  -20.9359  -29.8768   21.6882 H   0  0  0  0  0  0
  -26.0107  -38.2815   24.1594 H   0  0  0  0  0  0
  -30.0220  -20.1998   22.6635 H   0  0  0  0  0  0
  -28.3888  -19.3346   18.7977 H   0  0  0  0  0  0
  -30.6011  -17.8800   22.9616 H   0  0  0  0  0  0
  -28.9720  -16.9484   19.0768 H   0  0  0  0  0  0
  -26.9544  -23.9988   21.8373 H   0  0  0  0  0  0
  -30.5178  -23.1967   18.3812 H   0  0  0  0  0  0
  -29.5100  -21.8632   17.8205 H   0  0  0  0  0  0
  -30.8033  -21.5733   18.9824 H   0  0  0  0  0  0
  -31.0830  -15.7493   23.2355 H   0  0  0  0  0  0
  -30.1332  -14.3018   23.0436 H   0  0  0  0  0  0
  -29.3165  -15.8183   23.3528 H   0  0  0  0  0  0
  -27.7931  -25.1000   18.5857 H   0  0  0  0  0  0
  -29.4447  -25.1926   18.9912 H   0  0  0  0  0  0
  -26.5608  -21.8006   22.9475 H   0  0  0  0  0  0
  1 25  1  0  0  0
  1 30  2  0  0  0
  1 85  1  0  0  0
  2  3  1  0  0  0
  2 25  1  0  0  0
  2 87  1  0  0  0
  2 88  1  0  0  0
  3  4  1  0  0  0
  3 89  1  0  0  0
  3 90  1  0  0  0
  4  5  1  0  0  0
  4 91  1  0  0  0
  4 92  1  0  0  0
  5  6  1  0  0  0
  5 26  1  0  0  0
  5 93  1  0  0  0
  6 25  1  0  0  0
  6 94  1  0  0  0
  6 95  1  0  0  0
  7  8  2  0  0  0
  7 26  1  0  0  0
  7 29  1  0  0  0
  8  9  1  0  0  0
  8 22  1  0  0  0
  9 10  1  0  0  0
  9 27  2  0  0  0
 10 11  2  0  0  0
 10 15  1  0  0  0
 11 12  1  0  0  0
 11 96  1  0  0  0
 12 13  2  0  0  0
 12 97  1  0  0  0
 13 14  1  0  0  0
 13 31  1  0  0  0
 14 15  2  0  0  0
 14 98  1  0  0  0
 15 99  1  0  0  0
 16 17  2  0  0  0
 16 21  1  0  0  0
 16 31  1  0  0  0
 17 18  1  0  0  0
 17100  1  0  0  0
 18 19  2  0  0  0
 18101  1  0  0  0
 19 20  1  0  0  0
 19 24  1  0  0  0
 20 21  2  0  0  0
 20102  1  0  0  0
 21 23  1  0  0  0
 22 28  1  0  0  0
 22 32  2  0  0  0
 26 27  1  0  0  0
 28103  1  0  0  0
 28104  1  0  0  0
 29105  1  0  0  0
 29106  1  0  0  0
 33 34  1  0  0  0
 33 66  1  0  0  0
 33 70  2  0  0  0
 34 36  1  0  0  0
 34 59  1  0  0  0
 34107  1  0  0  0
 35 44  2  0  0  0
 35 45  1  0  0  0
 35 68  1  0  0  0
 36 56  1  0  0  0
 36108  1  0  0  0
 37 39  1  0  0  0
 37 47  1  0  0  0
 37 66  1  0  0  0
 37109  1  0  0  0
 38 43  2  0  0  0
 38 46  1  0  0  0
 38 47  1  0  0  0
 39 64  1  0  0  0
 39 67  2  0  0  0
 40 52  1  0  0  0
 40 53  2  0  0  0
 40 58  1  0  0  0
 41110  1  0  0  0
 41111  1  0  0  0
 41112  1  0  0  0
 41 48  1  0  0  0
 42 43  1  0  0  0
 42 66  1  0  0  0
 42113  1  0  0  0
 42114  1  0  0  0
 43 44  1  0  0  0
 44115  1  0  0  0
 45 46  2  0  0  0
 45116  1  0  0  0
 46117  1  0  0  0
 47118  1  0  0  0
 47119  1  0  0  0
 48 56  1  0  0  0
 48 65  1  0  0  0
 48120  1  0  0  0
 49 50  1  0  0  0
 49 53  1  0  0  0
 49 64  1  0  0  0
 49121  1  0  0  0
 50 51  1  0  0  0
 50122  1  0  0  0
 50123  1  0  0  0
 51 52  1  0  0  0
 51124  1  0  0  0
 51125  1  0  0  0
 52126  1  0  0  0
 52127  1  0  0  0
 53 54  1  0  0  0
 54 55  2  0  0  0
 54128  1  0  0  0
 55 57  1  0  0  0
 55129  1  0  0  0
 56 69  2  0  0  0
 57 58  2  0  0  0
 57130  1  0  0  0
 58131  1  0  0  0
 59 60  1  0  0  0
 59 61  1  0  0  0
 59 62  1  0  0  0
 60132  1  0  0  0
 60133  1  0  0  0
 60134  1  0  0  0
 61135  1  0  0  0
 61136  1  0  0  0
 61137  1  0  0  0
 62138  1  0  0  0
 62139  1  0  0  0
 62140  1  0  0  0
 63 65  1  0  0  0
 63141  1  0  0  0
 63142  1  0  0  0
 63143  1  0  0  0
 64144  1  0  0  0
 65145  1  0  0  0
 68 83  1  0  0  0
 71 73  2  0  0  0
 71 77  1  0  0  0
 71146  1  0  0  0
 72 74  1  0  0  0
 72 77  2  0  0  0
 72147  1  0  0  0
 73 78  1  0  0  0
 73148  1  0  0  0
 74 78  2  0  0  0
 74149  1  0  0  0
 75 76  1  0  0  0
 75 80  2  0  0  0
 75150  1  0  0  0
 76 79  2  0  0  0
 76 83  1  0  0  0
 77 84  1  0  0  0
 78 85  1  0  0  0
 79 81  1  0  0  0
 79 84  1  0  0  0
 80 84  1  0  0  0
 80 86  1  0  0  0
 81151  1  0  0  0
 81152  1  0  0  0
 81153  1  0  0  0
 82 85  1  0  0  0
 82154  1  0  0  0
 82155  1  0  0  0
 82156  1  0  0  0
 83157  1  0  0  0
 83158  1  0  0  0
 86159  1  0  0  0
M  ISO  4   1 100  68 101  83 101  85 100
M  END
> <chiral flag>
0

> <version>
0

> <s_m_source_file>
/data/baiqing/PycharmProjects/Reinvent-master-3.2/result/LINK_invent/BTK/process_docking_weight1_custom_product_contain_oxygen_bond_distance_aromatic_linkinvent_7_9_3/rearranged_h_0094.sdf

> <i_m_source_file_index>
14

> <r_mmod_Potential_Energy-OPLS-2005>
290.719909667969

> <r_mmod_Stretch_Energy-OPLS-2005>
110.587257385254

> <r_mmod_Bend_Energy-OPLS-2005>
170.592681884766

> <r_mmod_Torsional_Energy-OPLS-2005>
300.396850585938

> <r_mmod_Improper_Torsional_Energy-OPLS-2005>
4.17449951171875

> <r_mmod_Van_der_Waal_Energy-OPLS-2005>
141.488342285156

> <r_mmod_Electrostatic_Energy-OPLS-2005>
-298.264099121094

> <r_mmod_Solvation_Energy-OPLS-2005>
-204.348617553711

> <b_mmod_Minimization_Converged-OPLS-2005>
0

> <r_mmod_RMS_Derivative-OPLS-2005>
2.00538682937622

$$$$
14
                    3D
 Structure written by MMmdl.
156164  0  0  1  0            999 V2000
  -30.6740  -14.7046   20.5544 C   0  0  0  0  0  0
  -30.4112  -12.4477   19.4952 C   0  0  0  0  0  0
  -29.4985  -12.5338   18.2529 C   0  0  0  0  0  0
  -28.0289  -12.3392   18.6602 C   0  0  0  0  0  0
  -27.6396  -13.2298   19.8703 C   0  0  2  0  0  0
  -28.6790  -13.1501   21.0157 C   0  0  0  0  0  0
  -25.2351  -13.8083   20.5523 C   0  0  0  0  0  0
  -24.1689  -13.0339   20.9168 C   0  0  0  0  0  0
  -24.6353  -11.6860   20.8782 C   0  0  0  0  0  0
  -23.9053  -10.4243   21.0445 C   0  0  0  0  0  0
  -24.3604   -9.4166   21.9213 C   0  0  0  0  0  0
  -23.6274   -8.2204   22.0765 C   0  0  0  0  0  0
  -22.4253   -8.0256   21.3553 C   0  0  0  0  0  0
  -21.9898   -9.0227   20.4651 C   0  0  0  0  0  0
  -22.7237  -10.2100   20.3071 C   0  0  0  0  0  0
  -21.6839   -6.0731   22.5290 C   0  0  0  0  0  0
  -21.4010   -6.5641   23.8224 C   0  0  0  0  0  0
  -21.3655   -5.6797   24.9187 C   0  0  0  0  0  0
  -21.6034   -4.3057   24.7234 C   0  0  0  0  0  0
  -21.8814   -3.8149   23.4353 C   0  0  0  0  0  0
  -21.9184   -4.6962   22.3412 C   0  0  0  0  0  0
  -22.7727  -13.5155   21.1833 C   0  0  0  0  0  0
  -22.1654   -4.2164   21.0984 F   0  0  0  0  0  0
  -21.5622   -3.4535   25.7744 F   0  0  0  0  0  0
  -29.9940  -13.5003   20.4590 N   0  0  0  0  0  0
  -26.2888  -12.9359   20.3380 N   0  0  0  0  0  0
  -25.9312  -11.6503   20.5891 N   0  0  0  0  0  0
  -22.0385  -12.8176   22.0434 N   0  0  0  0  0  0
  -25.3781  -15.1716   20.3578 N   0  0  0  0  0  0
  -31.7555  -14.8393   19.9724 O   0  0  0  0  0  0
  -21.6616   -6.8860   21.4241 O   0  0  0  0  0  0
  -22.3417  -14.5457   20.6672 O   0  0  0  0  0  0
  -24.6319  -31.8531   23.1983 C   0  0  0  0  0  0
  -25.9143  -32.4737   23.8329 C   0  0  1  0  0  0
  -27.2310  -27.2618   20.1348 C   0  0  0  0  0  0
  -25.5921  -33.8540   24.2256 N   0  0  0  0  0  0
  -23.4316  -30.4782   21.5392 C   0  0  2  0  0  0
  -24.8822  -28.9224   20.1108 C   0  0  0  0  0  0
  -22.7499  -29.4611   22.4861 C   0  0  0  0  0  0
  -18.0294  -28.1369   22.8461 C   0  0  0  0  0  0
  -24.1513  -36.7309   23.2640 C   0  0  0  0  0  0
  -25.9778  -30.7618   21.3889 C   0  0  0  0  0  0
  -26.0502  -29.3848   20.7318 C   0  0  0  0  0  0
  -27.2232  -28.5631   20.7420 C   0  0  0  0  0  0
  -26.0454  -26.8815   19.4629 C   0  0  0  0  0  0
  -24.8846  -27.6788   19.4645 C   0  0  0  0  0  0
  -23.6549  -29.8112   20.1572 C   0  0  0  0  0  0
  -25.4136  -36.3068   24.0314 C   0  0  1  0  0  0
  -20.5912  -28.3722   23.1190 C   0  0  2  0  0  0
  -20.6789  -26.9433   22.5375 C   0  0  0  0  0  0
  -19.5778  -26.6384   21.5167 C   0  0  0  0  0  0
  -18.1954  -26.7911   22.1591 C   0  0  0  0  0  0
  -19.1549  -28.8849   23.2836 C   0  0  0  0  0  0
  -18.9473  -30.1435   23.8887 C   0  0  0  0  0  0
  -17.6475  -30.6568   24.0541 C   0  0  0  0  0  0
  -25.9056  -34.9428   23.5099 C   0  0  0  0  0  0
  -16.5366  -29.9075   23.6304 C   0  0  0  0  0  0
  -16.7284  -28.6495   23.0323 C   0  0  0  0  0  0
  -26.4518  -31.6556   25.0722 C   0  0  0  0  0  0
  -25.3705  -31.3640   26.1394 C   0  0  0  0  0  0
  -27.0384  -30.2975   24.6232 C   0  0  0  0  0  0
  -27.6093  -32.4286   25.7479 C   0  0  0  0  0  0
  -27.5613  -37.1807   24.8454 C   0  0  0  0  0  0
  -21.4206  -29.3082   22.3579 N   0  0  0  0  0  0
  -26.4320  -37.3766   23.9389 N   0  0  0  0  0  0
  -24.6995  -31.0483   22.0988 N   0  0  0  0  0  0
  -23.4167  -28.8149   23.2987 O   0  0  0  0  0  0
  -28.3174  -26.3569   20.2191 O   0  0  0  0  0  0
  -26.5626  -34.8896   22.4669 O   0  0  0  0  0  0
  -23.5467  -32.1364   23.7254 O   0  0  0  0  0  0
  -28.0093  -17.0050   21.2052 C   0  0  0  0  0  0
  -29.8878  -18.5212   20.9575 C   0  0  0  0  0  0
  -29.4065  -17.1493   21.1089 C   0  0  0  0  0  0
  -27.1448  -18.1146   21.2410 C   0  0  0  0  0  0
  -29.0228  -19.7000   20.9124 C   0  0  0  0  0  0
  -27.6384  -19.4331   21.1029 C   0  0  0  0  0  0
  -30.2190  -15.8850   21.5206 C   0  0  0  0  0  0
  -28.9991  -23.7705   20.5578 C   0  0  0  0  0  0
  -28.8475  -22.2424   20.0810 C   0  0  0  0  0  0
  -28.0602  -24.9038   19.9222 C   0  0  0  0  0  0
  -30.5724  -15.8124   22.7363 N   0  0  0  0  0  0
  -25.7917  -17.9131   21.5259 N   0  0  0  0  0  0
  -26.7453  -20.4803   21.3269 N   0  0  0  0  0  0
  -29.4869  -21.0852   20.8488 N   0  0  0  0  0  0
  -29.8380  -24.0648   21.4170 O   0  0  0  0  0  0
  -31.4567  -12.5389   19.1999 H   0  0  0  0  0  0
  -30.3285  -11.4641   19.9593 H   0  0  0  0  0  0
  -29.7863  -11.7853   17.5129 H   0  0  0  0  0  0
  -29.6170  -13.5059   17.7721 H   0  0  0  0  0  0
  -27.8893  -11.2868   18.9117 H   0  0  0  0  0  0
  -27.3690  -12.5366   17.8141 H   0  0  0  0  0  0
  -27.6400  -14.2550   19.4995 H   0  0  0  0  0  0
  -28.7018  -12.1471   21.4446 H   0  0  0  0  0  0
  -28.3941  -13.8127   21.8336 H   0  0  0  0  0  0
  -25.2739   -9.5645   22.4801 H   0  0  0  0  0  0
  -23.9976   -7.4596   22.7486 H   0  0  0  0  0  0
  -21.0822   -8.8744   19.8964 H   0  0  0  0  0  0
  -22.3695  -10.9638   19.6177 H   0  0  0  0  0  0
  -21.2017   -7.6157   23.9733 H   0  0  0  0  0  0
  -21.1482   -6.0531   25.9092 H   0  0  0  0  0  0
  -22.0604   -2.7616   23.2854 H   0  0  0  0  0  0
  -22.3986  -11.9821   22.4813 H   0  0  0  0  0  0
  -21.1050  -13.1278   22.2721 H   0  0  0  0  0  0
  -24.5774  -15.7957   20.3512 H   0  0  0  0  0  0
  -26.2203  -15.6311   20.0384 H   0  0  0  0  0  0
  -26.7203  -32.5397   23.1068 H   0  0  0  0  0  0
  -24.9989  -33.9643   25.0343 H   0  0  0  0  0  0
  -22.7342  -31.3047   21.3912 H   0  0  0  0  0  0
  -23.3765  -35.9652   23.3282 H   0  0  0  0  0  0
  -24.3611  -36.8975   22.2072 H   0  0  0  0  0  0
  -23.7314  -37.6519   23.6675 H   0  0  0  0  0  0
  -26.1186  -31.5188   20.6167 H   0  0  0  0  0  0
  -26.8513  -30.8099   22.0261 H   0  0  0  0  0  0
  -28.1112  -28.9008   21.2596 H   0  0  0  0  0  0
  -25.9804  -25.9429   18.9326 H   0  0  0  0  0  0
  -23.9975  -27.3187   18.9597 H   0  0  0  0  0  0
  -23.7893  -30.5873   19.4032 H   0  0  0  0  0  0
  -22.7728  -29.2488   19.8467 H   0  0  0  0  0  0
  -25.1336  -36.1931   25.0809 H   0  0  0  0  0  0
  -21.0000  -28.3361   24.1309 H   0  0  0  0  0  0
  -20.5675  -26.2359   23.3620 H   0  0  0  0  0  0
  -21.6654  -26.7442   22.1194 H   0  0  0  0  0  0
  -19.6947  -25.6283   21.1236 H   0  0  0  0  0  0
  -19.6699  -27.3138   20.6655 H   0  0  0  0  0  0
  -17.4222  -26.6604   21.4007 H   0  0  0  0  0  0
  -18.0387  -26.0040   22.8987 H   0  0  0  0  0  0
  -19.7961  -30.7207   24.2306 H   0  0  0  0  0  0
  -17.5050  -31.6250   24.5136 H   0  0  0  0  0  0
  -15.5368  -30.2965   23.7632 H   0  0  0  0  0  0
  -15.8692  -28.0806   22.7031 H   0  0  0  0  0  0
  -24.5909  -30.6992   25.7652 H   0  0  0  0  0  0
  -24.8825  -32.2752   26.4850 H   0  0  0  0  0  0
  -25.7976  -30.8768   27.0165 H   0  0  0  0  0  0
  -26.2966  -29.6671   24.1299 H   0  0  0  0  0  0
  -27.4111  -29.7290   25.4768 H   0  0  0  0  0  0
  -27.8829  -30.4262   23.9449 H   0  0  0  0  0  0
  -27.2755  -33.3608   26.2030 H   0  0  0  0  0  0
  -28.3887  -32.6800   25.0274 H   0  0  0  0  0  0
  -28.0749  -31.8411   26.5396 H   0  0  0  0  0  0
  -28.2585  -38.0147   24.7517 H   0  0  0  0  0  0
  -28.1160  -36.2669   24.6267 H   0  0  0  0  0  0
  -27.2282  -37.1429   25.8838 H   0  0  0  0  0  0
  -20.9389  -29.8902   21.6858 H   0  0  0  0  0  0
  -26.0209  -38.2849   24.1360 H   0  0  0  0  0  0
  -27.6043  -16.0229   21.3933 H   0  0  0  0  0  0
  -30.9559  -18.6732   20.9534 H   0  0  0  0  0  0
  -29.2778  -22.2094   19.0783 H   0  0  0  0  0  0
  -27.7914  -22.0660   19.9012 H   0  0  0  0  0  0
  -27.0544  -24.6488   20.2565 H   0  0  0  0  0  0
  -28.0710  -24.7743   18.8401 H   0  0  0  0  0  0
  -30.2410  -16.6138   23.2592 H   0  0  0  0  0  0
  -25.4178  -16.9884   21.7201 H   0  0  0  0  0  0
  -25.1318  -18.6802   21.5493 H   0  0  0  0  0  0
  -26.0393  -20.2353   22.0087 H   0  0  0  0  0  0
  -27.2700  -21.2958   21.6229 H   0  0  0  0  0  0
  -30.4816  -21.2215   21.0060 H   0  0  0  0  0  0
  1 25  1  0  0  0
  1 30  2  0  0  0
  1 77  1  0  0  0
  2  3  1  0  0  0
  2 25  1  0  0  0
  2 86  1  0  0  0
  2 87  1  0  0  0
  3  4  1  0  0  0
  3 88  1  0  0  0
  3 89  1  0  0  0
  4  5  1  0  0  0
  4 90  1  0  0  0
  4 91  1  0  0  0
  5  6  1  0  0  0
  5 26  1  0  0  0
  5 92  1  0  0  0
  6 25  1  0  0  0
  6 93  1  0  0  0
  6 94  1  0  0  0
  7  8  2  0  0  0
  7 26  1  0  0  0
  7 29  1  0  0  0
  8  9  1  0  0  0
  8 22  1  0  0  0
  9 10  1  0  0  0
  9 27  2  0  0  0
 10 11  2  0  0  0
 10 15  1  0  0  0
 11 12  1  0  0  0
 11 95  1  0  0  0
 12 13  2  0  0  0
 12 96  1  0  0  0
 13 14  1  0  0  0
 13 31  1  0  0  0
 14 15  2  0  0  0
 14 97  1  0  0  0
 15 98  1  0  0  0
 16 17  2  0  0  0
 16 21  1  0  0  0
 16 31  1  0  0  0
 17 18  1  0  0  0
 17 99  1  0  0  0
 18 19  2  0  0  0
 18100  1  0  0  0
 19 20  1  0  0  0
 19 24  1  0  0  0
 20 21  2  0  0  0
 20101  1  0  0  0
 21 23  1  0  0  0
 22 28  1  0  0  0
 22 32  2  0  0  0
 26 27  1  0  0  0
 28102  1  0  0  0
 28103  1  0  0  0
 29104  1  0  0  0
 29105  1  0  0  0
 33 34  1  0  0  0
 33 66  1  0  0  0
 33 70  2  0  0  0
 34 36  1  0  0  0
 34 59  1  0  0  0
 34106  1  0  0  0
 35 44  2  0  0  0
 35 45  1  0  0  0
 35 68  1  0  0  0
 36 56  1  0  0  0
 36107  1  0  0  0
 37 39  1  0  0  0
 37 47  1  0  0  0
 37 66  1  0  0  0
 37108  1  0  0  0
 38 43  2  0  0  0
 38 46  1  0  0  0
 38 47  1  0  0  0
 39 64  1  0  0  0
 39 67  2  0  0  0
 40 52  1  0  0  0
 40 53  2  0  0  0
 40 58  1  0  0  0
 41109  1  0  0  0
 41110  1  0  0  0
 41111  1  0  0  0
 41 48  1  0  0  0
 42 43  1  0  0  0
 42 66  1  0  0  0
 42112  1  0  0  0
 42113  1  0  0  0
 43 44  1  0  0  0
 44114  1  0  0  0
 45 46  2  0  0  0
 45115  1  0  0  0
 46116  1  0  0  0
 47117  1  0  0  0
 47118  1  0  0  0
 48 56  1  0  0  0
 48 65  1  0  0  0
 48119  1  0  0  0
 49 50  1  0  0  0
 49 53  1  0  0  0
 49 64  1  0  0  0
 49120  1  0  0  0
 50 51  1  0  0  0
 50121  1  0  0  0
 50122  1  0  0  0
 51 52  1  0  0  0
 51123  1  0  0  0
 51124  1  0  0  0
 52125  1  0  0  0
 52126  1  0  0  0
 53 54  1  0  0  0
 54 55  2  0  0  0
 54127  1  0  0  0
 55 57  1  0  0  0
 55128  1  0  0  0
 56 69  2  0  0  0
 57 58  2  0  0  0
 57129  1  0  0  0
 58130  1  0  0  0
 59 60  1  0  0  0
 59 61  1  0  0  0
 59 62  1  0  0  0
 60131  1  0  0  0
 60132  1  0  0  0
 60133  1  0  0  0
 61134  1  0  0  0
 61135  1  0  0  0
 61136  1  0  0  0
 62137  1  0  0  0
 62138  1  0  0  0
 62139  1  0  0  0
 63 65  1  0  0  0
 63140  1  0  0  0
 63141  1  0  0  0
 63142  1  0  0  0
 64143  1  0  0  0
 65144  1  0  0  0
 68 80  1  0  0  0
 71 73  2  0  0  0
 71 74  1  0  0  0
 71145  1  0  0  0
 72 73  1  0  0  0
 72 75  2  0  0  0
 72146  1  0  0  0
 73 77  1  0  0  0
 74 76  2  0  0  0
 74 82  1  0  0  0
 75 76  1  0  0  0
 75 84  1  0  0  0
 76 83  1  0  0  0
 77 81  2  0  0  0
 78 79  1  0  0  0
 78 80  1  0  0  0
 78 85  2  0  0  0
 79 84  1  0  0  0
 79147  1  0  0  0
 79148  1  0  0  0
 80149  1  0  0  0
 80150  1  0  0  0
 81151  1  0  0  0
 82152  1  0  0  0
 82153  1  0  0  0
 83154  1  0  0  0
 83155  1  0  0  0
 84156  1  0  0  0
M  ISO  4   1 100  68 101  77 100  80 101
M  END
> <chiral flag>
0

> <version>
0

> <s_m_source_file>
/data/baiqing/PycharmProjects/Reinvent-master-3.2/result/LINK_invent/BTK/process_docking_weight1_custom_product_contain_oxygen_bond_distance_aromatic_linkinvent_7_9_3/rearranged_h_0094.sdf

> <i_m_source_file_index>
15

> <r_mmod_Potential_Energy-OPLS-2005>
230.580078125

> <r_mmod_Stretch_Energy-OPLS-2005>
136.522872924805

> <r_mmod_Bend_Energy-OPLS-2005>
206.411010742188

> <r_mmod_Torsional_Energy-OPLS-2005>
248.445617675781

> <r_mmod_Improper_Torsional_Energy-OPLS-2005>
15.3790798187256

> <r_mmod_Van_der_Waal_Energy-OPLS-2005>
154.261383056641

> <r_mmod_Electrostatic_Energy-OPLS-2005>
-366.285369873047

> <r_mmod_Solvation_Energy-OPLS-2005>
-243.307357788086

> <b_mmod_Minimization_Converged-OPLS-2005>
0

> <r_mmod_RMS_Derivative-OPLS-2005>
3.97411751747131

$$$$
15
                    3D
 Structure written by MMmdl.
149157  0  0  1  0            999 V2000
  -30.5941  -14.6845   20.4789 C   0  0  0  0  0  0
  -30.4437  -12.4152   19.4592 C   0  0  0  0  0  0
  -29.5127  -12.5071   18.2286 C   0  0  0  0  0  0
  -28.0353  -12.3405   18.6378 C   0  0  0  0  0  0
  -27.6510  -13.2164   19.8597 C   0  0  2  0  0  0
  -28.6961  -13.0868   20.9907 C   0  0  0  0  0  0
  -25.2555  -13.8167   20.5683 C   0  0  0  0  0  0
  -24.1823  -13.0433   20.9198 C   0  0  0  0  0  0
  -24.6387  -11.6905   20.8734 C   0  0  0  0  0  0
  -23.9053  -10.4288   21.0399 C   0  0  0  0  0  0
  -24.3608   -9.4207   21.9177 C   0  0  0  0  0  0
  -23.6283   -8.2244   22.0751 C   0  0  0  0  0  0
  -22.4268   -8.0279   21.3543 C   0  0  0  0  0  0
  -21.9896   -9.0254   20.4645 C   0  0  0  0  0  0
  -22.7223  -10.2132   20.3054 C   0  0  0  0  0  0
  -21.6855   -6.0729   22.5273 C   0  0  0  0  0  0
  -21.4020   -6.5635   23.8208 C   0  0  0  0  0  0
  -21.3659   -5.6786   24.9168 C   0  0  0  0  0  0
  -21.6041   -4.3049   24.7219 C   0  0  0  0  0  0
  -21.8821   -3.8141   23.4342 C   0  0  0  0  0  0
  -21.9195   -4.6956   22.3396 C   0  0  0  0  0  0
  -22.7845  -13.5228   21.1858 C   0  0  0  0  0  0
  -22.1660   -4.2143   21.0971 F   0  0  0  0  0  0
  -21.5626   -3.4532   25.7734 F   0  0  0  0  0  0
  -30.0072  -13.4436   20.4263 N   0  0  0  0  0  0
  -26.2975  -12.9343   20.3289 N   0  0  0  0  0  0
  -25.9315  -11.6501   20.5742 N   0  0  0  0  0  0
  -22.0484  -12.8234   22.0418 N   0  0  0  0  0  0
  -25.4261  -15.1888   20.4085 N   0  0  0  0  0  0
  -31.7637  -14.8490   20.1189 O   0  0  0  0  0  0
  -21.6639   -6.8873   21.4237 O   0  0  0  0  0  0
  -22.3532  -14.5531   20.6698 O   0  0  0  0  0  0
  -24.6276  -31.8581   23.2004 C   0  0  0  0  0  0
  -25.9111  -32.4768   23.8348 C   0  0  1  0  0  0
  -27.2274  -27.3038   20.1261 C   0  0  0  0  0  0
  -25.5920  -33.8567   24.2274 N   0  0  0  0  0  0
  -23.4235  -30.4793   21.5433 C   0  0  2  0  0  0
  -24.8721  -28.9288   20.1138 C   0  0  0  0  0  0
  -22.7486  -29.4610   22.4934 C   0  0  0  0  0  0
  -18.0290  -28.1385   22.8491 C   0  0  0  0  0  0
  -24.1491  -36.7294   23.2642 C   0  0  0  0  0  0
  -25.9652  -30.7839   21.3737 C   0  0  0  0  0  0
  -26.0414  -29.4083   20.7191 C   0  0  0  0  0  0
  -27.2247  -28.6083   20.7131 C   0  0  0  0  0  0
  -26.0391  -26.8814   19.4924 C   0  0  0  0  0  0
  -24.8730  -27.6707   19.4912 C   0  0  0  0  0  0
  -23.6402  -29.8106   20.1603 C   0  0  0  0  0  0
  -25.4114  -36.3077   24.0330 C   0  0  1  0  0  0
  -20.5890  -28.3692   23.1280 C   0  0  2  0  0  0
  -20.6779  -26.9416   22.5402 C   0  0  0  0  0  0
  -19.5745  -26.6383   21.5214 C   0  0  0  0  0  0
  -18.1933  -26.7923   22.1641 C   0  0  0  0  0  0
  -19.1541  -28.8857   23.2879 C   0  0  0  0  0  0
  -18.9463  -30.1460   23.8895 C   0  0  0  0  0  0
  -17.6462  -30.6588   24.0563 C   0  0  0  0  0  0
  -25.9048  -34.9445   23.5105 C   0  0  0  0  0  0
  -16.5354  -29.9087   23.6325 C   0  0  0  0  0  0
  -16.7278  -28.6502   23.0353 C   0  0  0  0  0  0
  -26.4487  -31.6584   25.0726 C   0  0  0  0  0  0
  -25.3722  -31.3743   26.1463 C   0  0  0  0  0  0
  -27.0323  -30.3003   24.6190 C   0  0  0  0  0  0
  -27.6056  -32.4316   25.7486 C   0  0  0  0  0  0
  -27.5568  -37.1815   24.8474 C   0  0  0  0  0  0
  -21.4197  -29.3045   22.3676 N   0  0  0  0  0  0
  -26.4298  -37.3763   23.9392 N   0  0  0  0  0  0
  -24.6910  -31.0575   22.0964 N   0  0  0  0  0  0
  -23.4199  -28.8154   23.3023 O   0  0  0  0  0  0
  -28.3340  -26.4383   20.1398 O   0  0  0  0  0  0
  -26.5621  -34.8912   22.4674 O   0  0  0  0  0  0
  -23.5434  -32.1386   23.7319 O   0  0  0  0  0  0
  -28.5234  -19.3504   20.3931 C   0  0  0  0  0  0
  -28.5843  -17.9388   20.6237 C   0  0  0  0  0  0
  -30.9601  -17.9630   20.3069 C   0  0  0  0  0  0
  -29.6821  -20.1192   20.1061 C   0  0  0  0  0  0
  -29.7955  -17.1893   20.5638 C   0  0  0  0  0  0
  -30.9066  -19.3787   20.0898 C   0  0  0  0  0  0
  -28.9109  -23.8443   19.9983 C   0  0  0  0  0  0
  -29.6199  -21.6060   19.6585 C   0  0  0  0  0  0
  -28.1161  -25.0512   20.6448 C   0  0  0  0  0  0
  -28.8952  -22.5883   20.3969 N   0  0  0  0  0  0
  -29.7492  -15.7304   20.7791 N   0  0  0  0  0  0
  -30.2659  -21.8653   18.6389 O   0  0  0  0  0  0
  -32.0716  -20.0215   19.8292 F   0  0  0  0  0  0
  -31.4832  -12.5518   19.1559 H   0  0  0  0  0  0
  -30.3913  -11.4233   19.9104 H   0  0  0  0  0  0
  -29.7837  -11.7483   17.4933 H   0  0  0  0  0  0
  -29.6498  -13.4715   17.7363 H   0  0  0  0  0  0
  -27.8757  -11.2881   18.8738 H   0  0  0  0  0  0
  -27.3824  -12.5646   17.7937 H   0  0  0  0  0  0
  -27.6621  -14.2481   19.5092 H   0  0  0  0  0  0
  -28.7166  -12.0670   21.3776 H   0  0  0  0  0  0
  -28.4352  -13.7213   21.8395 H   0  0  0  0  0  0
  -25.2757   -9.5684   22.4748 H   0  0  0  0  0  0
  -23.9991   -7.4638   22.7475 H   0  0  0  0  0  0
  -21.0823   -8.8772   19.8955 H   0  0  0  0  0  0
  -22.3678  -10.9673   19.6165 H   0  0  0  0  0  0
  -21.2020   -7.6147   23.9710 H   0  0  0  0  0  0
  -21.1475   -6.0516   25.9069 H   0  0  0  0  0  0
  -22.0602   -2.7603   23.2845 H   0  0  0  0  0  0
  -22.4097  -11.9901   22.4822 H   0  0  0  0  0  0
  -21.1104  -13.1274   22.2618 H   0  0  0  0  0  0
  -24.6535  -15.8385   20.5101 H   0  0  0  0  0  0
  -26.2566  -15.6209   20.0263 H   0  0  0  0  0  0
  -26.7183  -32.5434   23.1102 H   0  0  0  0  0  0
  -25.0055  -33.9708   25.0412 H   0  0  0  0  0  0
  -22.7180  -31.2999   21.3972 H   0  0  0  0  0  0
  -23.3728  -35.9656   23.3347 H   0  0  0  0  0  0
  -24.3573  -36.8866   22.2047 H   0  0  0  0  0  0
  -23.7279  -37.6526   23.6633 H   0  0  0  0  0  0
  -26.0961  -31.5447   20.6030 H   0  0  0  0  0  0
  -26.8455  -30.8359   22.0028 H   0  0  0  0  0  0
  -28.1231  -28.9713   21.1927 H   0  0  0  0  0  0
  -26.0029  -25.9208   18.9989 H   0  0  0  0  0  0
  -23.9787  -27.2987   19.0100 H   0  0  0  0  0  0
  -23.7612  -30.5849   19.4018 H   0  0  0  0  0  0
  -22.7600  -29.2403   19.8581 H   0  0  0  0  0  0
  -25.1296  -36.1941   25.0824 H   0  0  0  0  0  0
  -20.9981  -28.3268   24.1401 H   0  0  0  0  0  0
  -20.5691  -26.2301   23.3601 H   0  0  0  0  0  0
  -21.6646  -26.7450   22.1186 H   0  0  0  0  0  0
  -19.6904  -25.6295   21.1243 H   0  0  0  0  0  0
  -19.6667  -27.3192   20.6742 H   0  0  0  0  0  0
  -17.4189  -26.6653   21.4062 H   0  0  0  0  0  0
  -18.0354  -26.0074   22.9050 H   0  0  0  0  0  0
  -19.7938  -30.7280   24.2261 H   0  0  0  0  0  0
  -17.5014  -31.6266   24.5167 H   0  0  0  0  0  0
  -15.5355  -30.2991   23.7643 H   0  0  0  0  0  0
  -15.8679  -28.0819   22.7072 H   0  0  0  0  0  0
  -24.5835  -30.7172   25.7782 H   0  0  0  0  0  0
  -24.8996  -32.2929   26.4954 H   0  0  0  0  0  0
  -25.8032  -30.8842   27.0202 H   0  0  0  0  0  0
  -26.2898  -29.6758   24.1209 H   0  0  0  0  0  0
  -27.4009  -29.7259   25.4699 H   0  0  0  0  0  0
  -27.8772  -30.4283   23.9419 H   0  0  0  0  0  0
  -27.2680  -33.3630   26.2043 H   0  0  0  0  0  0
  -28.3871  -32.6850   25.0309 H   0  0  0  0  0  0
  -28.0713  -31.8450   26.5416 H   0  0  0  0  0  0
  -28.2628  -38.0068   24.7452 H   0  0  0  0  0  0
  -28.1022  -36.2598   24.6394 H   0  0  0  0  0  0
  -27.2273  -37.1574   25.8876 H   0  0  0  0  0  0
  -20.9385  -29.8773   21.6884 H   0  0  0  0  0  0
  -26.0184  -38.2849   24.1345 H   0  0  0  0  0  0
  -27.5601  -19.8410   20.4037 H   0  0  0  0  0  0
  -27.6554  -17.4232   20.8242 H   0  0  0  0  0  0
  -31.9231  -17.4766   20.2614 H   0  0  0  0  0  0
  -29.4997  -24.1698   19.1352 H   0  0  0  0  0  0
  -28.3725  -25.0696   21.7041 H   0  0  0  0  0  0
  -27.0609  -24.7818   20.6244 H   0  0  0  0  0  0
  -28.8445  -15.3927   21.0675 H   0  0  0  0  0  0
  1 25  1  0  0  0
  1 30  2  0  0  0
  1 81  1  0  0  0
  2  3  1  0  0  0
  2 25  1  0  0  0
  2 84  1  0  0  0
  2 85  1  0  0  0
  3  4  1  0  0  0
  3 86  1  0  0  0
  3 87  1  0  0  0
  4  5  1  0  0  0
  4 88  1  0  0  0
  4 89  1  0  0  0
  5  6  1  0  0  0
  5 26  1  0  0  0
  5 90  1  0  0  0
  6 25  1  0  0  0
  6 91  1  0  0  0
  6 92  1  0  0  0
  7  8  2  0  0  0
  7 26  1  0  0  0
  7 29  1  0  0  0
  8  9  1  0  0  0
  8 22  1  0  0  0
  9 10  1  0  0  0
  9 27  2  0  0  0
 10 11  2  0  0  0
 10 15  1  0  0  0
 11 12  1  0  0  0
 11 93  1  0  0  0
 12 13  2  0  0  0
 12 94  1  0  0  0
 13 14  1  0  0  0
 13 31  1  0  0  0
 14 15  2  0  0  0
 14 95  1  0  0  0
 15 96  1  0  0  0
 16 17  2  0  0  0
 16 21  1  0  0  0
 16 31  1  0  0  0
 17 18  1  0  0  0
 17 97  1  0  0  0
 18 19  2  0  0  0
 18 98  1  0  0  0
 19 20  1  0  0  0
 19 24  1  0  0  0
 20 21  2  0  0  0
 20 99  1  0  0  0
 21 23  1  0  0  0
 22 28  1  0  0  0
 22 32  2  0  0  0
 26 27  1  0  0  0
 28100  1  0  0  0
 28101  1  0  0  0
 29102  1  0  0  0
 29103  1  0  0  0
 33 34  1  0  0  0
 33 66  1  0  0  0
 33 70  2  0  0  0
 34 36  1  0  0  0
 34 59  1  0  0  0
 34104  1  0  0  0
 35 44  2  0  0  0
 35 45  1  0  0  0
 35 68  1  0  0  0
 36 56  1  0  0  0
 36105  1  0  0  0
 37 39  1  0  0  0
 37 47  1  0  0  0
 37 66  1  0  0  0
 37106  1  0  0  0
 38 43  2  0  0  0
 38 46  1  0  0  0
 38 47  1  0  0  0
 39 64  1  0  0  0
 39 67  2  0  0  0
 40 52  1  0  0  0
 40 53  2  0  0  0
 40 58  1  0  0  0
 41107  1  0  0  0
 41108  1  0  0  0
 41109  1  0  0  0
 41 48  1  0  0  0
 42 43  1  0  0  0
 42 66  1  0  0  0
 42110  1  0  0  0
 42111  1  0  0  0
 43 44  1  0  0  0
 44112  1  0  0  0
 45 46  2  0  0  0
 45113  1  0  0  0
 46114  1  0  0  0
 47115  1  0  0  0
 47116  1  0  0  0
 48 56  1  0  0  0
 48 65  1  0  0  0
 48117  1  0  0  0
 49 50  1  0  0  0
 49 53  1  0  0  0
 49 64  1  0  0  0
 49118  1  0  0  0
 50 51  1  0  0  0
 50119  1  0  0  0
 50120  1  0  0  0
 51 52  1  0  0  0
 51121  1  0  0  0
 51122  1  0  0  0
 52123  1  0  0  0
 52124  1  0  0  0
 53 54  1  0  0  0
 54 55  2  0  0  0
 54125  1  0  0  0
 55 57  1  0  0  0
 55126  1  0  0  0
 56 69  2  0  0  0
 57 58  2  0  0  0
 57127  1  0  0  0
 58128  1  0  0  0
 59 60  1  0  0  0
 59 61  1  0  0  0
 59 62  1  0  0  0
 60129  1  0  0  0
 60130  1  0  0  0
 60131  1  0  0  0
 61132  1  0  0  0
 61133  1  0  0  0
 61134  1  0  0  0
 62135  1  0  0  0
 62136  1  0  0  0
 62137  1  0  0  0
 63 65  1  0  0  0
 63138  1  0  0  0
 63139  1  0  0  0
 63140  1  0  0  0
 64141  1  0  0  0
 65142  1  0  0  0
 68 79  1  0  0  0
 71 72  2  0  0  0
 71 74  1  0  0  0
 71143  1  0  0  0
 72 75  1  0  0  0
 72144  1  0  0  0
 73 75  2  0  0  0
 73 76  1  0  0  0
 73145  1  0  0  0
 74 76  2  0  0  0
 74 78  1  0  0  0
 75 81  1  0  0  0
 76 83  1  0  0  0
 77 79  1  0  0  0
 77 80  2  0  0  0
 77146  1  0  0  0
 78 80  1  0  0  0
 78 82  2  0  0  0
 79147  1  0  0  0
 79148  1  0  0  0
 81149  1  0  0  0
M  ISO  4   1 100  68 101  79 101  81 100
M  END
> <chiral flag>
0

> <version>
0

> <s_m_source_file>
/data/baiqing/PycharmProjects/Reinvent-master-3.2/result/LINK_invent/BTK/process_docking_weight1_custom_product_contain_oxygen_bond_distance_aromatic_linkinvent_7_9_3/rearranged_h_0094.sdf

> <i_m_source_file_index>
16

> <r_mmod_Potential_Energy-OPLS-2005>
117.288688659668

> <r_mmod_Stretch_Energy-OPLS-2005>
93.9881362915039

> <r_mmod_Bend_Energy-OPLS-2005>
143.158737182617

> <r_mmod_Torsional_Energy-OPLS-2005>
230.474792480469

> <r_mmod_Improper_Torsional_Energy-OPLS-2005>
5.39532899856567

> <r_mmod_Van_der_Waal_Energy-OPLS-2005>
147.806732177734

> <r_mmod_Electrostatic_Energy-OPLS-2005>
-354.025787353516

> <r_mmod_Solvation_Energy-OPLS-2005>
-209.601470947266

> <b_mmod_Minimization_Converged-OPLS-2005>
0

> <r_mmod_RMS_Derivative-OPLS-2005>
0.876761496067047

$$$$
16
                    3D
 Structure written by MMmdl.
162170  0  0  1  0            999 V2000
  -30.6764  -14.5225   20.5112 C   0  0  0  0  0  0
  -30.4274  -12.3295   19.4441 C   0  0  0  0  0  0
  -29.5022  -12.4948   18.2193 C   0  0  0  0  0  0
  -28.0218  -12.3600   18.6279 C   0  0  0  0  0  0
  -27.6579  -13.2114   19.8737 C   0  0  2  0  0  0
  -28.6984  -13.0281   21.0003 C   0  0  0  0  0  0
  -25.2585  -13.8116   20.5757 C   0  0  0  0  0  0
  -24.1818  -13.0420   20.9205 C   0  0  0  0  0  0
  -24.6391  -11.6878   20.8744 C   0  0  0  0  0  0
  -23.9086  -10.4256   21.0402 C   0  0  0  0  0  0
  -24.3605   -9.4166   21.9186 C   0  0  0  0  0  0
  -23.6277   -8.2195   22.0726 C   0  0  0  0  0  0
  -22.4239   -8.0229   21.3510 C   0  0  0  0  0  0
  -21.9892   -9.0224   20.4639 C   0  0  0  0  0  0
  -22.7247  -10.2098   20.3081 C   0  0  0  0  0  0
  -21.6828   -6.0722   22.5277 C   0  0  0  0  0  0
  -21.3983   -6.5622   23.8221 C   0  0  0  0  0  0
  -21.3677   -5.6762   24.9165 C   0  0  0  0  0  0
  -21.6060   -4.3031   24.7208 C   0  0  0  0  0  0
  -21.8818   -3.8144   23.4316 C   0  0  0  0  0  0
  -21.9183   -4.6974   22.3395 C   0  0  0  0  0  0
  -22.7848  -13.5235   21.1884 C   0  0  0  0  0  0
  -22.1668   -4.2180   21.0960 F   0  0  0  0  0  0
  -21.5648   -3.4487   25.7709 F   0  0  0  0  0  0
  -30.0248  -13.3309   20.4428 N   0  0  0  0  0  0
  -26.2995  -12.9316   20.3374 N   0  0  0  0  0  0
  -25.9316  -11.6472   20.5773 N   0  0  0  0  0  0
  -22.0462  -12.8250   22.0441 N   0  0  0  0  0  0
  -25.4409  -15.1821   20.4279 N   0  0  0  0  0  0
  -31.8480  -14.6492   20.1359 O   0  0  0  0  0  0
  -21.6600   -6.8836   21.4215 O   0  0  0  0  0  0
  -22.3574  -14.5579   20.6776 O   0  0  0  0  0  0
  -24.6181  -31.8691   23.2093 C   0  0  0  0  0  0
  -25.9082  -32.4818   23.8396 C   0  0  1  0  0  0
  -27.2336  -27.4133   20.0815 C   0  0  0  0  0  0
  -25.5921  -33.8614   24.2326 N   0  0  0  0  0  0
  -23.4016  -30.4931   21.5531 C   0  0  2  0  0  0
  -24.8432  -28.9541   20.1168 C   0  0  0  0  0  0
  -22.7440  -29.4658   22.5016 C   0  0  0  0  0  0
  -18.0282  -28.1367   22.8491 C   0  0  0  0  0  0
  -24.1489  -36.7308   23.2638 C   0  0  0  0  0  0
  -25.9335  -30.8234   21.3659 C   0  0  0  0  0  0
  -26.0061  -29.4550   20.7141 C   0  0  0  0  0  0
  -27.1966  -28.6911   20.6944 C   0  0  0  0  0  0
  -26.0397  -26.9304   19.4891 C   0  0  0  0  0  0
  -24.8576  -27.6912   19.5055 C   0  0  0  0  0  0
  -23.6094  -29.8257   20.1667 C   0  0  0  0  0  0
  -25.4112  -36.3113   24.0340 C   0  0  1  0  0  0
  -20.5874  -28.3660   23.1312 C   0  0  2  0  0  0
  -20.6773  -26.9400   22.5410 C   0  0  0  0  0  0
  -19.5742  -26.6380   21.5212 C   0  0  0  0  0  0
  -18.1922  -26.7920   22.1620 C   0  0  0  0  0  0
  -19.1539  -28.8845   23.2889 C   0  0  0  0  0  0
  -18.9467  -30.1454   23.8884 C   0  0  0  0  0  0
  -17.6468  -30.6573   24.0564 C   0  0  0  0  0  0
  -25.9041  -34.9475   23.5130 C   0  0  0  0  0  0
  -16.5353  -29.9069   23.6315 C   0  0  0  0  0  0
  -16.7281  -28.6492   23.0332 C   0  0  0  0  0  0
  -26.4480  -31.6590   25.0731 C   0  0  0  0  0  0
  -25.3749  -31.3716   26.1495 C   0  0  0  0  0  0
  -27.0289  -30.3034   24.6099 C   0  0  0  0  0  0
  -27.6062  -32.4300   25.7475 C   0  0  0  0  0  0
  -27.5591  -37.1806   24.8471 C   0  0  0  0  0  0
  -21.4181  -29.3023   22.3746 N   0  0  0  0  0  0
  -26.4292  -37.3801   23.9425 N   0  0  0  0  0  0
  -24.6690  -31.0792   22.0990 N   0  0  0  0  0  0
  -23.4229  -28.8210   23.3061 O   0  0  0  0  0  0
  -28.4318  -26.7136   20.0906 O   0  0  0  0  0  0
  -26.5612  -34.8927   22.4688 O   0  0  0  0  0  0
  -23.5372  -32.1436   23.7486 O   0  0  0  0  0  0
  -30.3279  -19.6153   19.3771 C   0  0  0  0  0  0
  -29.5444  -18.0557   21.0849 C   0  0  0  0  0  0
  -30.6838  -17.2145   19.1093 C   0  0  0  0  0  0
  -29.6753  -19.3995   20.6149 C   0  0  0  0  0  0
  -30.8196  -18.5294   18.6283 C   0  0  0  0  0  0
  -30.0709  -16.9505   20.3586 C   0  0  0  0  0  0
  -28.6634  -22.9104   20.5005 C   0  0  0  0  0  0
  -28.2551  -19.9301   23.7906 C   0  0  0  0  0  0
  -29.1416  -24.3822   20.5977 C   0  0  0  0  0  0
  -29.3957  -20.5045   22.9306 C   0  0  0  0  0  0
  -28.5605  -25.3769   19.5496 C   0  0  0  0  0  0
  -29.0835  -20.5920   21.4118 C   0  0  1  0  0  0
  -31.4305  -18.7422   17.3959 N   0  0  0  0  0  0
  -29.9215  -15.5999   20.8466 N   0  0  0  0  0  0
  -29.4859  -21.9434   20.9601 N   0  0  0  0  0  0
  -27.5360  -22.6553   20.0783 O   0  0  0  0  0  0
  -31.4724  -12.4360   19.1445 H   0  0  0  0  0  0
  -30.3453  -11.3287   19.8660 H   0  0  0  0  0  0
  -29.7435  -11.7486   17.4616 H   0  0  0  0  0  0
  -29.6659  -13.4687   17.7551 H   0  0  0  0  0  0
  -27.8291  -11.3056   18.8275 H   0  0  0  0  0  0
  -27.3761  -12.6337   17.7904 H   0  0  0  0  0  0
  -27.6918  -14.2572   19.5641 H   0  0  0  0  0  0
  -28.6707  -12.0054   21.3804 H   0  0  0  0  0  0
  -28.4583  -13.6575   21.8580 H   0  0  0  0  0  0
  -25.2717   -9.5602   22.4800 H   0  0  0  0  0  0
  -23.9976   -7.4525   22.7403 H   0  0  0  0  0  0
  -21.0838   -8.8777   19.8890 H   0  0  0  0  0  0
  -22.3725  -10.9655   19.6210 H   0  0  0  0  0  0
  -21.1944   -7.6120   23.9734 H   0  0  0  0  0  0
  -21.1533   -6.0474   25.9092 H   0  0  0  0  0  0
  -22.0603   -2.7626   23.2787 H   0  0  0  0  0  0
  -22.4053  -11.9900   22.4812 H   0  0  0  0  0  0
  -21.1077  -13.1254   22.2679 H   0  0  0  0  0  0
  -24.6904  -15.8500   20.5688 H   0  0  0  0  0  0
  -26.3127  -15.6135   20.1458 H   0  0  0  0  0  0
  -26.7148  -32.5520   23.1151 H   0  0  0  0  0  0
  -25.0101  -33.9754   25.0498 H   0  0  0  0  0  0
  -22.6887  -31.3080   21.4187 H   0  0  0  0  0  0
  -23.3735  -35.9647   23.3296 H   0  0  0  0  0  0
  -24.3589  -36.8930   22.2049 H   0  0  0  0  0  0
  -23.7236  -37.6517   23.6646 H   0  0  0  0  0  0
  -26.0538  -31.5848   20.5942 H   0  0  0  0  0  0
  -26.8203  -30.8762   21.9847 H   0  0  0  0  0  0
  -28.0950  -29.0819   21.1533 H   0  0  0  0  0  0
  -25.9672  -25.9744   18.9989 H   0  0  0  0  0  0
  -23.9629  -27.2995   19.0399 H   0  0  0  0  0  0
  -23.7228  -30.6008   19.4068 H   0  0  0  0  0  0
  -22.7296  -29.2521   19.8717 H   0  0  0  0  0  0
  -25.1267  -36.1967   25.0821 H   0  0  0  0  0  0
  -20.9951  -28.3229   24.1445 H   0  0  0  0  0  0
  -20.5674  -26.2285   23.3611 H   0  0  0  0  0  0
  -21.6652  -26.7432   22.1220 H   0  0  0  0  0  0
  -19.6901  -25.6291   21.1239 H   0  0  0  0  0  0
  -19.6670  -27.3196   20.6745 H   0  0  0  0  0  0
  -17.4201  -26.6682   21.4012 H   0  0  0  0  0  0
  -18.0303  -26.0060   22.9008 H   0  0  0  0  0  0
  -19.7944  -30.7273   24.2238 H   0  0  0  0  0  0
  -17.5014  -31.6244   24.5187 H   0  0  0  0  0  0
  -15.5349  -30.2957   23.7646 H   0  0  0  0  0  0
  -15.8687  -28.0806   22.7024 H   0  0  0  0  0  0
  -24.5897  -30.7086   25.7850 H   0  0  0  0  0  0
  -24.8959  -32.2882   26.4951 H   0  0  0  0  0  0
  -25.8108  -30.8887   27.0247 H   0  0  0  0  0  0
  -26.2825  -29.6819   24.1151 H   0  0  0  0  0  0
  -27.4063  -29.7253   25.4533 H   0  0  0  0  0  0
  -27.8652  -30.4343   23.9233 H   0  0  0  0  0  0
  -27.2696  -33.3581   26.2095 H   0  0  0  0  0  0
  -28.3840  -32.6895   25.0285 H   0  0  0  0  0  0
  -28.0772  -31.8409   26.5358 H   0  0  0  0  0  0
  -28.2611  -38.0106   24.7519 H   0  0  0  0  0  0
  -28.1082  -36.2631   24.6264 H   0  0  0  0  0  0
  -27.2328  -37.1443   25.8885 H   0  0  0  0  0  0
  -20.9370  -29.8773   21.6973 H   0  0  0  0  0  0
  -26.0178  -38.2879   24.1399 H   0  0  0  0  0  0
  -30.4278  -20.6135   18.9729 H   0  0  0  0  0  0
  -29.0315  -17.8670   22.0169 H   0  0  0  0  0  0
  -31.0466  -16.4017   18.4973 H   0  0  0  0  0  0
  -28.6469  -19.2599   24.5564 H   0  0  0  0  0  0
  -27.5295  -19.3649   23.2029 H   0  0  0  0  0  0
  -27.7148  -20.7244   24.3095 H   0  0  0  0  0  0
  -30.2317  -24.4272   20.5773 H   0  0  0  0  0  0
  -28.8476  -24.7245   21.5892 H   0  0  0  0  0  0
  -30.3161  -19.9406   23.0934 H   0  0  0  0  0  0
  -29.6088  -21.4982   23.3337 H   0  0  0  0  0  0
  -27.6688  -24.9674   19.0941 H   0  0  0  0  0  0
  -29.2708  -25.4495   18.7255 H   0  0  0  0  0  0
  -28.0014  -20.5036   21.2864 H   0  0  0  0  0  0
  -31.9203  -19.6183   17.2393 H   0  0  0  0  0  0
  -31.8853  -17.9439   16.9594 H   0  0  0  0  0  0
  -29.0529  -15.3992   21.3209 H   0  0  0  0  0  0
  -30.4055  -22.2419   21.2566 H   0  0  0  0  0  0
  1 25  1  0  0  0
  1 30  2  0  0  0
  1 84  1  0  0  0
  2  3  1  0  0  0
  2 25  1  0  0  0
  2 87  1  0  0  0
  2 88  1  0  0  0
  3  4  1  0  0  0
  3 89  1  0  0  0
  3 90  1  0  0  0
  4  5  1  0  0  0
  4 91  1  0  0  0
  4 92  1  0  0  0
  5  6  1  0  0  0
  5 26  1  0  0  0
  5 93  1  0  0  0
  6 25  1  0  0  0
  6 94  1  0  0  0
  6 95  1  0  0  0
  7  8  2  0  0  0
  7 26  1  0  0  0
  7 29  1  0  0  0
  8  9  1  0  0  0
  8 22  1  0  0  0
  9 10  1  0  0  0
  9 27  2  0  0  0
 10 11  2  0  0  0
 10 15  1  0  0  0
 11 12  1  0  0  0
 11 96  1  0  0  0
 12 13  2  0  0  0
 12 97  1  0  0  0
 13 14  1  0  0  0
 13 31  1  0  0  0
 14 15  2  0  0  0
 14 98  1  0  0  0
 15 99  1  0  0  0
 16 17  2  0  0  0
 16 21  1  0  0  0
 16 31  1  0  0  0
 17 18  1  0  0  0
 17100  1  0  0  0
 18 19  2  0  0  0
 18101  1  0  0  0
 19 20  1  0  0  0
 19 24  1  0  0  0
 20 21  2  0  0  0
 20102  1  0  0  0
 21 23  1  0  0  0
 22 28  1  0  0  0
 22 32  2  0  0  0
 26 27  1  0  0  0
 28103  1  0  0  0
 28104  1  0  0  0
 29105  1  0  0  0
 29106  1  0  0  0
 33 34  1  0  0  0
 33 66  1  0  0  0
 33 70  2  0  0  0
 34 36  1  0  0  0
 34 59  1  0  0  0
 34107  1  0  0  0
 35 44  2  0  0  0
 35 45  1  0  0  0
 35 68  1  0  0  0
 36 56  1  0  0  0
 36108  1  0  0  0
 37 39  1  0  0  0
 37 47  1  0  0  0
 37 66  1  0  0  0
 37109  1  0  0  0
 38 43  2  0  0  0
 38 46  1  0  0  0
 38 47  1  0  0  0
 39 64  1  0  0  0
 39 67  2  0  0  0
 40 52  1  0  0  0
 40 53  2  0  0  0
 40 58  1  0  0  0
 41110  1  0  0  0
 41111  1  0  0  0
 41112  1  0  0  0
 41 48  1  0  0  0
 42 43  1  0  0  0
 42 66  1  0  0  0
 42113  1  0  0  0
 42114  1  0  0  0
 43 44  1  0  0  0
 44115  1  0  0  0
 45 46  2  0  0  0
 45116  1  0  0  0
 46117  1  0  0  0
 47118  1  0  0  0
 47119  1  0  0  0
 48 56  1  0  0  0
 48 65  1  0  0  0
 48120  1  0  0  0
 49 50  1  0  0  0
 49 53  1  0  0  0
 49 64  1  0  0  0
 49121  1  0  0  0
 50 51  1  0  0  0
 50122  1  0  0  0
 50123  1  0  0  0
 51 52  1  0  0  0
 51124  1  0  0  0
 51125  1  0  0  0
 52126  1  0  0  0
 52127  1  0  0  0
 53 54  1  0  0  0
 54 55  2  0  0  0
 54128  1  0  0  0
 55 57  1  0  0  0
 55129  1  0  0  0
 56 69  2  0  0  0
 57 58  2  0  0  0
 57130  1  0  0  0
 58131  1  0  0  0
 59 60  1  0  0  0
 59 61  1  0  0  0
 59 62  1  0  0  0
 60132  1  0  0  0
 60133  1  0  0  0
 60134  1  0  0  0
 61135  1  0  0  0
 61136  1  0  0  0
 61137  1  0  0  0
 62138  1  0  0  0
 62139  1  0  0  0
 62140  1  0  0  0
 63 65  1  0  0  0
 63141  1  0  0  0
 63142  1  0  0  0
 63143  1  0  0  0
 64144  1  0  0  0
 65145  1  0  0  0
 68 81  1  0  0  0
 71 74  2  0  0  0
 71 75  1  0  0  0
 71146  1  0  0  0
 72 74  1  0  0  0
 72 76  2  0  0  0
 72147  1  0  0  0
 73 75  2  0  0  0
 73 76  1  0  0  0
 73148  1  0  0  0
 74 82  1  0  0  0
 75 83  1  0  0  0
 76 84  1  0  0  0
 77 79  1  0  0  0
 77 85  1  0  0  0
 77 86  2  0  0  0
 78 80  1  0  0  0
 78149  1  0  0  0
 78150  1  0  0  0
 78151  1  0  0  0
 79 81  1  0  0  0
 79152  1  0  0  0
 79153  1  0  0  0
 80154  1  0  0  0
 80155  1  0  0  0
 80 82  1  0  0  0
 81156  1  0  0  0
 81157  1  0  0  0
 82 85  1  0  0  0
 82158  1  0  0  0
 83159  1  0  0  0
 83160  1  0  0  0
 84161  1  0  0  0
 85162  1  0  0  0
M  ISO  4   1 100  68 101  81 101  84 100
M  END
> <chiral flag>
0

> <version>
0

> <s_m_source_file>
/data/baiqing/PycharmProjects/Reinvent-master-3.2/result/LINK_invent/BTK/process_docking_weight1_custom_product_contain_oxygen_bond_distance_aromatic_linkinvent_7_9_3/rearranged_h_0094.sdf

> <i_m_source_file_index>
17

> <r_mmod_Potential_Energy-OPLS-2005>
-83.3367156982422

> <r_mmod_Stretch_Energy-OPLS-2005>
47.2891426086426

> <r_mmod_Bend_Energy-OPLS-2005>
118.208435058594

> <r_mmod_Torsional_Energy-OPLS-2005>
249.040496826172

> <r_mmod_Improper_Torsional_Energy-OPLS-2005>
8.75790977478027

> <r_mmod_Van_der_Waal_Energy-OPLS-2005>
161.928329467773

> <r_mmod_Electrostatic_Energy-OPLS-2005>
-446.958374023438

> <r_mmod_Solvation_Energy-OPLS-2005>
-241.417526245117

> <b_mmod_Minimization_Converged-OPLS-2005>
0

> <r_mmod_RMS_Derivative-OPLS-2005>
4.85595321655273

$$$$
17
                    3D
 Structure written by MMmdl.
162171  0  0  1  0            999 V2000
  -30.6202  -14.7515   20.3392 C   0  0  0  0  0  0
  -30.4345  -12.4354   19.4491 C   0  0  0  0  0  0
  -29.4968  -12.4029   18.2230 C   0  0  0  0  0  0
  -28.0216  -12.2835   18.6534 C   0  0  0  0  0  0
  -27.6361  -13.2162   19.8344 C   0  0  2  0  0  0
  -28.6965  -13.2097   20.9512 C   0  0  0  0  0  0
  -25.2542  -13.8178   20.5733 C   0  0  0  0  0  0
  -24.1808  -13.0443   20.9221 C   0  0  0  0  0  0
  -24.6375  -11.6915   20.8781 C   0  0  0  0  0  0
  -23.9052  -10.4294   21.0427 C   0  0  0  0  0  0
  -24.3609   -9.4205   21.9195 C   0  0  0  0  0  0
  -23.6289   -8.2237   22.0754 C   0  0  0  0  0  0
  -22.4273   -8.0275   21.3543 C   0  0  0  0  0  0
  -21.9908   -9.0251   20.4648 C   0  0  0  0  0  0
  -22.7231  -10.2135   20.3067 C   0  0  0  0  0  0
  -21.6851   -6.0734   22.5279 C   0  0  0  0  0  0
  -21.4011   -6.5640   23.8212 C   0  0  0  0  0  0
  -21.3656   -5.6794   24.9174 C   0  0  0  0  0  0
  -21.6043   -4.3057   24.7227 C   0  0  0  0  0  0
  -21.8819   -3.8147   23.4349 C   0  0  0  0  0  0
  -21.9191   -4.6962   22.3405 C   0  0  0  0  0  0
  -22.7829  -13.5232   21.1865 C   0  0  0  0  0  0
  -22.1662   -4.2146   21.0983 F   0  0  0  0  0  0
  -21.5628   -3.4543   25.7742 F   0  0  0  0  0  0
  -29.9755  -13.5380   20.3150 N   0  0  0  0  0  0
  -26.2940  -12.9347   20.3318 N   0  0  0  0  0  0
  -25.9305  -11.6511   20.5828 N   0  0  0  0  0  0
  -22.0470  -12.8223   22.0418 N   0  0  0  0  0  0
  -25.4281  -15.1896   20.4179 N   0  0  0  0  0  0
  -31.8539  -14.7705   20.3937 O   0  0  0  0  0  0
  -21.6638   -6.8873   21.4239 O   0  0  0  0  0  0
  -22.3516  -14.5537   20.6706 O   0  0  0  0  0  0
  -24.6274  -31.8584   23.1989 C   0  0  0  0  0  0
  -25.9116  -32.4772   23.8327 C   0  0  1  0  0  0
  -27.2254  -27.2936   20.1423 C   0  0  0  0  0  0
  -25.5931  -33.8573   24.2261 N   0  0  0  0  0  0
  -23.4227  -30.4778   21.5421 C   0  0  2  0  0  0
  -24.8718  -28.9177   20.1224 C   0  0  0  0  0  0
  -22.7475  -29.4612   22.4934 C   0  0  0  0  0  0
  -18.0284  -28.1385   22.8490 C   0  0  0  0  0  0
  -24.1485  -36.7286   23.2639 C   0  0  0  0  0  0
  -25.9636  -30.7804   21.3730 C   0  0  0  0  0  0
  -26.0396  -29.3995   20.7295 C   0  0  0  0  0  0
  -27.2225  -28.5993   20.7283 C   0  0  0  0  0  0
  -26.0406  -26.8617   19.5169 C   0  0  0  0  0  0
  -24.8746  -27.6541   19.5076 C   0  0  0  0  0  0
  -23.6414  -29.8032   20.1613 C   0  0  0  0  0  0
  -25.4111  -36.3082   24.0328 C   0  0  1  0  0  0
  -20.5885  -28.3692   23.1282 C   0  0  2  0  0  0
  -20.6772  -26.9411   22.5411 C   0  0  0  0  0  0
  -19.5747  -26.6386   21.5214 C   0  0  0  0  0  0
  -18.1929  -26.7930   22.1626 C   0  0  0  0  0  0
  -19.1535  -28.8856   23.2883 C   0  0  0  0  0  0
  -18.9456  -30.1459   23.8898 C   0  0  0  0  0  0
  -17.6455  -30.6588   24.0567 C   0  0  0  0  0  0
  -25.9048  -34.9453   23.5093 C   0  0  0  0  0  0
  -16.5349  -29.9087   23.6330 C   0  0  0  0  0  0
  -16.7271  -28.6505   23.0353 C   0  0  0  0  0  0
  -26.4494  -31.6585   25.0703 C   0  0  0  0  0  0
  -25.3718  -31.3734   26.1422 C   0  0  0  0  0  0
  -27.0332  -30.3007   24.6153 C   0  0  0  0  0  0
  -27.6052  -32.4318   25.7478 C   0  0  0  0  0  0
  -27.5576  -37.1801   24.8465 C   0  0  0  0  0  0
  -21.4186  -29.3043   22.3673 N   0  0  0  0  0  0
  -26.4289  -37.3778   23.9408 N   0  0  0  0  0  0
  -24.6900  -31.0565   22.0953 N   0  0  0  0  0  0
  -23.4185  -28.8159   23.3029 O   0  0  0  0  0  0
  -28.3471  -26.4572   20.0650 O   0  0  0  0  0  0
  -26.5616  -34.8926   22.4658 O   0  0  0  0  0  0
  -23.5434  -32.1397   23.7304 O   0  0  0  0  0  0
  -28.2379  -19.1732   19.2814 C   0  0  0  0  0  0
  -26.9512  -23.2594   20.2856 C   0  0  0  0  0  0
  -29.7492  -19.3778   21.1071 C   0  0  0  0  0  0
  -28.5514  -17.7895   19.1466 C   0  0  0  0  0  0
  -28.2326  -23.8055   20.5828 C   0  0  0  0  0  0
  -28.8060  -20.0313   20.2543 C   0  0  0  0  0  0
  -30.1209  -17.9874   20.9612 C   0  0  0  0  0  0
  -29.5441  -17.1361   19.9575 C   0  0  0  0  0  0
  -27.0459  -21.8949   20.1813 C   0  0  0  0  0  0
  -29.0616  -22.6713   20.5851 C   0  0  0  0  0  0
  -27.7684  -17.0636   18.0618 C   0  0  0  0  0  0
  -30.5235  -15.7542   18.1906 C   0  0  0  0  0  0
  -28.5066  -25.3130   20.9944 C   0  0  0  0  0  0
  -28.3632  -21.4505   20.3432 N   0  0  0  0  0  0
  -31.1168  -17.4873   21.8016 N   0  0  0  0  0  0
  -30.0241  -15.7670   19.5888 N   0  0  0  0  0  0
  -26.0200  -21.0203   19.9855 O   0  0  0  0  0  0
  -30.4027  -22.6388   20.8213 O   0  0  0  0  0  0
  -31.4682  -12.5740   19.1266 H   0  0  0  0  0  0
  -30.4047  -11.4884   19.9896 H   0  0  0  0  0  0
  -29.7591  -11.5602   17.5822 H   0  0  0  0  0  0
  -29.6310  -13.2856   17.6052 H   0  0  0  0  0  0
  -27.8629  -11.2445   18.9441 H   0  0  0  0  0  0
  -27.3632  -12.4591   17.8018 H   0  0  0  0  0  0
  -27.6139  -14.2211   19.4265 H   0  0  0  0  0  0
  -28.7450  -12.2395   21.4471 H   0  0  0  0  0  0
  -28.4519  -13.9484   21.7164 H   0  0  0  0  0  0
  -25.2752   -9.5681   22.4773 H   0  0  0  0  0  0
  -24.0000   -7.4625   22.7472 H   0  0  0  0  0  0
  -21.0839   -8.8768   19.8952 H   0  0  0  0  0  0
  -22.3688  -10.9676   19.6180 H   0  0  0  0  0  0
  -21.2006   -7.6149   23.9713 H   0  0  0  0  0  0
  -21.1476   -6.0527   25.9076 H   0  0  0  0  0  0
  -22.0601   -2.7609   23.2854 H   0  0  0  0  0  0
  -22.4086  -11.9885   22.4810 H   0  0  0  0  0  0
  -21.1085  -13.1243   22.2621 H   0  0  0  0  0  0
  -24.6692  -15.8494   20.5472 H   0  0  0  0  0  0
  -26.2985  -15.6335   20.1544 H   0  0  0  0  0  0
  -26.7187  -32.5444   23.1079 H   0  0  0  0  0  0
  -25.0104  -33.9710   25.0425 H   0  0  0  0  0  0
  -22.7176  -31.2983   21.3933 H   0  0  0  0  0  0
  -23.3755  -35.9612   23.3307 H   0  0  0  0  0  0
  -24.3577  -36.8899   22.2054 H   0  0  0  0  0  0
  -23.7231  -37.6488   23.6651 H   0  0  0  0  0  0
  -26.0896  -31.5346   20.5950 H   0  0  0  0  0  0
  -26.8460  -30.8402   21.9983 H   0  0  0  0  0  0
  -28.1264  -28.9732   21.1887 H   0  0  0  0  0  0
  -26.0212  -25.8979   19.0283 H   0  0  0  0  0  0
  -23.9815  -27.2810   19.0256 H   0  0  0  0  0  0
  -23.7660  -30.5742   19.3998 H   0  0  0  0  0  0
  -22.7605  -29.2334   19.8593 H   0  0  0  0  0  0
  -25.1294  -36.1934   25.0822 H   0  0  0  0  0  0
  -20.9985  -28.3275   24.1400 H   0  0  0  0  0  0
  -20.5674  -26.2297   23.3610 H   0  0  0  0  0  0
  -21.6639  -26.7440   22.1204 H   0  0  0  0  0  0
  -19.6903  -25.6297   21.1243 H   0  0  0  0  0  0
  -19.6689  -27.3195   20.6743 H   0  0  0  0  0  0
  -17.4198  -26.6683   21.4030 H   0  0  0  0  0  0
  -18.0333  -26.0067   22.9017 H   0  0  0  0  0  0
  -19.7928  -30.7281   24.2264 H   0  0  0  0  0  0
  -17.5004  -31.6268   24.5171 H   0  0  0  0  0  0
  -15.5348  -30.2992   23.7644 H   0  0  0  0  0  0
  -15.8671  -28.0827   22.7064 H   0  0  0  0  0  0
  -24.5895  -30.7084   25.7747 H   0  0  0  0  0  0
  -24.8907  -32.2908   26.4827 H   0  0  0  0  0  0
  -25.8034  -30.8925   27.0208 H   0  0  0  0  0  0
  -26.2908  -29.6771   24.1159 H   0  0  0  0  0  0
  -27.4016  -29.7251   25.4654 H   0  0  0  0  0  0
  -27.8780  -30.4298   23.9383 H   0  0  0  0  0  0
  -27.2665  -33.3622   26.2049 H   0  0  0  0  0  0
  -28.3866  -32.6873   25.0308 H   0  0  0  0  0  0
  -28.0709  -31.8443   26.5401 H   0  0  0  0  0  0
  -28.2603  -38.0090   24.7513 H   0  0  0  0  0  0
  -28.1064  -36.2624   24.6294 H   0  0  0  0  0  0
  -27.2291  -37.1458   25.8867 H   0  0  0  0  0  0
  -20.9362  -29.8766   21.6884 H   0  0  0  0  0  0
  -26.0173  -38.2853   24.1412 H   0  0  0  0  0  0
  -27.5132  -19.5921   18.5982 H   0  0  0  0  0  0
  -26.0286  -23.8187   20.2241 H   0  0  0  0  0  0
  -30.2082  -19.9635   21.8900 H   0  0  0  0  0  0
  -26.7530  -17.4547   17.9914 H   0  0  0  0  0  0
  -27.6769  -15.9993   18.2514 H   0  0  0  0  0  0
  -28.2430  -17.2060   17.0907 H   0  0  0  0  0  0
  -29.7449  -15.4582   17.4928 H   0  0  0  0  0  0
  -31.3601  -15.0777   18.0009 H   0  0  0  0  0  0
  -30.8738  -16.7423   17.8881 H   0  0  0  0  0  0
  -29.5389  -25.3527   21.3433 H   0  0  0  0  0  0
  -27.9058  -25.5118   21.8832 H   0  0  0  0  0  0
  -31.6778  -18.1608   22.3132 H   0  0  0  0  0  0
  -31.6860  -16.7271   21.4371 H   0  0  0  0  0  0
  -25.2118  -21.5219   19.9465 H   0  0  0  0  0  0
  -30.7149  -21.7629   20.6192 H   0  0  0  0  0  0
  1 25  1  0  0  0
  1 30  2  0  0  0
  1 86  1  0  0  0
  2  3  1  0  0  0
  2 25  1  0  0  0
  2 89  1  0  0  0
  2 90  1  0  0  0
  3  4  1  0  0  0
  3 91  1  0  0  0
  3 92  1  0  0  0
  4  5  1  0  0  0
  4 93  1  0  0  0
  4 94  1  0  0  0
  5  6  1  0  0  0
  5 26  1  0  0  0
  5 95  1  0  0  0
  6 25  1  0  0  0
  6 96  1  0  0  0
  6 97  1  0  0  0
  7  8  2  0  0  0
  7 26  1  0  0  0
  7 29  1  0  0  0
  8  9  1  0  0  0
  8 22  1  0  0  0
  9 10  1  0  0  0
  9 27  2  0  0  0
 10 11  2  0  0  0
 10 15  1  0  0  0
 11 12  1  0  0  0
 11 98  1  0  0  0
 12 13  2  0  0  0
 12 99  1  0  0  0
 13 14  1  0  0  0
 13 31  1  0  0  0
 14 15  2  0  0  0
 14100  1  0  0  0
 15101  1  0  0  0
 16 17  2  0  0  0
 16 21  1  0  0  0
 16 31  1  0  0  0
 17 18  1  0  0  0
 17102  1  0  0  0
 18 19  2  0  0  0
 18103  1  0  0  0
 19 20  1  0  0  0
 19 24  1  0  0  0
 20 21  2  0  0  0
 20104  1  0  0  0
 21 23  1  0  0  0
 22 28  1  0  0  0
 22 32  2  0  0  0
 26 27  1  0  0  0
 28105  1  0  0  0
 28106  1  0  0  0
 29107  1  0  0  0
 29108  1  0  0  0
 33 34  1  0  0  0
 33 66  1  0  0  0
 33 70  2  0  0  0
 34 36  1  0  0  0
 34 59  1  0  0  0
 34109  1  0  0  0
 35 44  2  0  0  0
 35 45  1  0  0  0
 35 68  1  0  0  0
 36 56  1  0  0  0
 36110  1  0  0  0
 37 39  1  0  0  0
 37 47  1  0  0  0
 37 66  1  0  0  0
 37111  1  0  0  0
 38 43  2  0  0  0
 38 46  1  0  0  0
 38 47  1  0  0  0
 39 64  1  0  0  0
 39 67  2  0  0  0
 40 52  1  0  0  0
 40 53  2  0  0  0
 40 58  1  0  0  0
 41112  1  0  0  0
 41113  1  0  0  0
 41114  1  0  0  0
 41 48  1  0  0  0
 42 43  1  0  0  0
 42 66  1  0  0  0
 42115  1  0  0  0
 42116  1  0  0  0
 43 44  1  0  0  0
 44117  1  0  0  0
 45 46  2  0  0  0
 45118  1  0  0  0
 46119  1  0  0  0
 47120  1  0  0  0
 47121  1  0  0  0
 48 56  1  0  0  0
 48 65  1  0  0  0
 48122  1  0  0  0
 49 50  1  0  0  0
 49 53  1  0  0  0
 49 64  1  0  0  0
 49123  1  0  0  0
 50 51  1  0  0  0
 50124  1  0  0  0
 50125  1  0  0  0
 51 52  1  0  0  0
 51126  1  0  0  0
 51127  1  0  0  0
 52128  1  0  0  0
 52129  1  0  0  0
 53 54  1  0  0  0
 54 55  2  0  0  0
 54130  1  0  0  0
 55 57  1  0  0  0
 55131  1  0  0  0
 56 69  2  0  0  0
 57 58  2  0  0  0
 57132  1  0  0  0
 58133  1  0  0  0
 59 60  1  0  0  0
 59 61  1  0  0  0
 59 62  1  0  0  0
 60134  1  0  0  0
 60135  1  0  0  0
 60136  1  0  0  0
 61137  1  0  0  0
 61138  1  0  0  0
 61139  1  0  0  0
 62140  1  0  0  0
 62141  1  0  0  0
 62142  1  0  0  0
 63 65  1  0  0  0
 63143  1  0  0  0
 63144  1  0  0  0
 63145  1  0  0  0
 64146  1  0  0  0
 65147  1  0  0  0
 68 83  1  0  0  0
 71 74  2  0  0  0
 71 76  1  0  0  0
 71148  1  0  0  0
 72 75  1  0  0  0
 72 79  2  0  0  0
 72149  1  0  0  0
 73 76  2  0  0  0
 73 77  1  0  0  0
 73150  1  0  0  0
 74 78  1  0  0  0
 74 81  1  0  0  0
 75 80  2  0  0  0
 75 83  1  0  0  0
 76 84  1  0  0  0
 77 78  2  0  0  0
 77 85  1  0  0  0
 78 86  1  0  0  0
 79 84  1  0  0  0
 79 87  1  0  0  0
 80 84  1  0  0  0
 80 88  1  0  0  0
 81151  1  0  0  0
 81152  1  0  0  0
 81153  1  0  0  0
 82 86  1  0  0  0
 82154  1  0  0  0
 82155  1  0  0  0
 82156  1  0  0  0
 83157  1  0  0  0
 83158  1  0  0  0
 85159  1  0  0  0
 85160  1  0  0  0
 87161  1  0  0  0
 88162  1  0  0  0
M  ISO  4   1 100  68 101  83 101  86 100
M  END
> <chiral flag>
0

> <version>
0

> <s_m_source_file>
/data/baiqing/PycharmProjects/Reinvent-master-3.2/result/LINK_invent/BTK/process_docking_weight1_custom_product_contain_oxygen_bond_distance_aromatic_linkinvent_7_9_3/rearranged_h_0094.sdf

> <i_m_source_file_index>
18

> <r_mmod_Potential_Energy-OPLS-2005>
378.043029785156

> <r_mmod_Stretch_Energy-OPLS-2005>
109.462059020996

> <r_mmod_Bend_Energy-OPLS-2005>
188.128433227539

> <r_mmod_Torsional_Energy-OPLS-2005>
366.036102294922

> <r_mmod_Improper_Torsional_Energy-OPLS-2005>
37.3575782775879

> <r_mmod_Van_der_Waal_Energy-OPLS-2005>
143.289840698242

> <r_mmod_Electrostatic_Energy-OPLS-2005>
-343.960388183594

> <r_mmod_Solvation_Energy-OPLS-2005>
-217.656356811523

> <b_mmod_Minimization_Converged-OPLS-2005>
0

> <r_mmod_RMS_Derivative-OPLS-2005>
0.687436640262604

$$$$
18
                    3D
 Structure written by MMmdl.
152160  0  0  1  0            999 V2000
  -30.6898  -14.6367   20.4774 C   0  0  0  0  0  0
  -30.4125  -12.3940   19.4419 C   0  0  0  0  0  0
  -29.4905  -12.4849   18.2107 C   0  0  0  0  0  0
  -28.0193  -12.3236   18.6363 C   0  0  0  0  0  0
  -27.6406  -13.2235   19.8449 C   0  0  2  0  0  0
  -28.6913  -13.1414   20.9724 C   0  0  0  0  0  0
  -25.2523  -13.8184   20.5699 C   0  0  0  0  0  0
  -24.1805  -13.0442   20.9211 C   0  0  0  0  0  0
  -24.6384  -11.6912   20.8752 C   0  0  0  0  0  0
  -23.9066  -10.4287   21.0412 C   0  0  0  0  0  0
  -24.3618   -9.4208   21.9187 C   0  0  0  0  0  0
  -23.6288   -8.2243   22.0755 C   0  0  0  0  0  0
  -22.4275   -8.0278   21.3545 C   0  0  0  0  0  0
  -21.9917   -9.0257   20.4655 C   0  0  0  0  0  0
  -22.7240  -10.2132   20.3062 C   0  0  0  0  0  0
  -21.6853   -6.0734   22.5281 C   0  0  0  0  0  0
  -21.4009   -6.5641   23.8214 C   0  0  0  0  0  0
  -21.3652   -5.6796   24.9175 C   0  0  0  0  0  0
  -21.6044   -4.3058   24.7226 C   0  0  0  0  0  0
  -21.8818   -3.8151   23.4351 C   0  0  0  0  0  0
  -21.9194   -4.6968   22.3406 C   0  0  0  0  0  0
  -22.7829  -13.5234   21.1861 C   0  0  0  0  0  0
  -22.1659   -4.2152   21.0986 F   0  0  0  0  0  0
  -21.5629   -3.4545   25.7739 F   0  0  0  0  0  0
  -29.9917  -13.4608   20.3753 N   0  0  0  0  0  0
  -26.2932  -12.9376   20.3285 N   0  0  0  0  0  0
  -25.9309  -11.6527   20.5759 N   0  0  0  0  0  0
  -22.0475  -12.8217   22.0412 N   0  0  0  0  0  0
  -25.4254  -15.1898   20.4079 N   0  0  0  0  0  0
  -31.8872  -14.6403   20.1812 O   0  0  0  0  0  0
  -21.6640   -6.8874   21.4240 O   0  0  0  0  0  0
  -22.3519  -14.5547   20.6715 O   0  0  0  0  0  0
  -24.6298  -31.8612   23.2044 C   0  0  0  0  0  0
  -25.9142  -32.4786   23.8363 C   0  0  1  0  0  0
  -27.1992  -27.3052   20.1124 C   0  0  0  0  0  0
  -25.5953  -33.8584   24.2281 N   0  0  0  0  0  0
  -23.4197  -30.4890   21.5501 C   0  0  2  0  0  0
  -24.8586  -28.9542   20.1088 C   0  0  0  0  0  0
  -22.7491  -29.4627   22.4954 C   0  0  0  0  0  0
  -18.0283  -28.1399   22.8470 C   0  0  0  0  0  0
  -24.1487  -36.7289   23.2635 C   0  0  0  0  0  0
  -25.9648  -30.7912   21.3734 C   0  0  0  0  0  0
  -26.0344  -29.4201   20.7117 C   0  0  0  0  0  0
  -27.2103  -28.6096   20.7022 C   0  0  0  0  0  0
  -25.9955  -26.9046   19.4830 C   0  0  0  0  0  0
  -24.8420  -27.7017   19.4875 C   0  0  0  0  0  0
  -23.6307  -29.8359   20.1622 C   0  0  0  0  0  0
  -25.4104  -36.3085   24.0330 C   0  0  1  0  0  0
  -20.5881  -28.3694   23.1293 C   0  0  2  0  0  0
  -20.6780  -26.9420   22.5414 C   0  0  0  0  0  0
  -19.5754  -26.6386   21.5223 C   0  0  0  0  0  0
  -18.1922  -26.7934   22.1619 C   0  0  0  0  0  0
  -19.1537  -28.8862   23.2874 C   0  0  0  0  0  0
  -18.9465  -30.1460   23.8890 C   0  0  0  0  0  0
  -17.6465  -30.6600   24.0553 C   0  0  0  0  0  0
  -25.9061  -34.9455   23.5101 C   0  0  0  0  0  0
  -16.5348  -29.9092   23.6342 C   0  0  0  0  0  0
  -16.7268  -28.6510   23.0345 C   0  0  0  0  0  0
  -26.4497  -31.6601   25.0742 C   0  0  0  0  0  0
  -25.3715  -31.3768   26.1464 C   0  0  0  0  0  0
  -27.0334  -30.3022   24.6205 C   0  0  0  0  0  0
  -27.6071  -32.4310   25.7505 C   0  0  0  0  0  0
  -27.5576  -37.1784   24.8453 C   0  0  0  0  0  0
  -21.4200  -29.3047   22.3693 N   0  0  0  0  0  0
  -26.4276  -37.3787   23.9432 N   0  0  0  0  0  0
  -24.6911  -31.0635   22.0992 N   0  0  0  0  0  0
  -23.4222  -28.8138   23.3005 O   0  0  0  0  0  0
  -28.2870  -26.4120   20.1709 O   0  0  0  0  0  0
  -26.5625  -34.8918   22.4664 O   0  0  0  0  0  0
  -23.5456  -32.1398   23.7370 O   0  0  0  0  0  0
  -28.5449  -18.7392   20.8115 C   0  0  0  0  0  0
  -28.0732  -20.0850   20.6679 C   0  0  0  0  0  0
  -30.7239  -19.4972   20.1577 C   0  0  0  0  0  0
  -29.9041  -18.4118   20.5754 C   0  0  0  0  0  0
  -30.2585  -20.8344   20.0075 C   0  0  0  0  0  0
  -28.9072  -21.1814   20.2934 C   0  0  0  0  0  0
  -30.5755  -17.0511   20.8752 C   0  0  0  0  0  0
  -27.9596  -24.9665   20.0202 C   0  0  0  0  0  0
  -28.9738  -23.7721   20.2938 C   0  0  0  0  0  0
  -31.1655  -21.7754   19.5293 N   0  0  0  0  0  0
  -29.9982  -15.8207   20.6487 N   0  0  0  0  0  0
  -31.7269  -17.1424   21.3202 O   0  0  0  0  0  0
  -28.3081  -22.4604   20.1726 O   0  0  0  0  0  0
  -31.4554  -12.4798   19.1316 H   0  0  0  0  0  0
  -30.3247  -11.4147   19.9155 H   0  0  0  0  0  0
  -29.7553  -11.7168   17.4826 H   0  0  0  0  0  0
  -29.6292  -13.4433   17.7080 H   0  0  0  0  0  0
  -27.8698  -11.2745   18.8954 H   0  0  0  0  0  0
  -27.3564  -12.5216   17.7928 H   0  0  0  0  0  0
  -27.6414  -14.2471   19.4697 H   0  0  0  0  0  0
  -28.7104  -12.1415   21.4096 H   0  0  0  0  0  0
  -28.4489  -13.8291   21.7840 H   0  0  0  0  0  0
  -25.2769   -9.5676   22.4758 H   0  0  0  0  0  0
  -24.0005   -7.4632   22.7465 H   0  0  0  0  0  0
  -21.0858   -8.8771   19.8954 H   0  0  0  0  0  0
  -22.3708  -10.9670   19.6167 H   0  0  0  0  0  0
  -21.1997   -7.6143   23.9712 H   0  0  0  0  0  0
  -21.1470   -6.0528   25.9076 H   0  0  0  0  0  0
  -22.0606   -2.7613   23.2855 H   0  0  0  0  0  0
  -22.4107  -11.9891   22.4808 H   0  0  0  0  0  0
  -21.1082  -13.1231   22.2599 H   0  0  0  0  0  0
  -24.6607  -15.8466   20.5139 H   0  0  0  0  0  0
  -26.2669  -15.6211   20.0493 H   0  0  0  0  0  0
  -26.7206  -32.5433   23.1102 H   0  0  0  0  0  0
  -25.0102  -33.9736   25.0427 H   0  0  0  0  0  0
  -22.7127  -31.3102   21.4135 H   0  0  0  0  0  0
  -23.3770  -35.9607   23.3273 H   0  0  0  0  0  0
  -24.3585  -36.8943   22.2062 H   0  0  0  0  0  0
  -23.7216  -37.6469   23.6666 H   0  0  0  0  0  0
  -26.0982  -31.5564   20.6076 H   0  0  0  0  0  0
  -26.8468  -30.8374   22.0006 H   0  0  0  0  0  0
  -28.1094  -28.9615   21.1867 H   0  0  0  0  0  0
  -25.8899  -25.9501   18.9913 H   0  0  0  0  0  0
  -23.9402  -27.3359   19.0172 H   0  0  0  0  0  0
  -23.7470  -30.6170   19.4112 H   0  0  0  0  0  0
  -22.7479  -29.2713   19.8556 H   0  0  0  0  0  0
  -25.1277  -36.1928   25.0823 H   0  0  0  0  0  0
  -20.9945  -28.3257   24.1428 H   0  0  0  0  0  0
  -20.5719  -26.2293   23.3612 H   0  0  0  0  0  0
  -21.6637  -26.7467   22.1176 H   0  0  0  0  0  0
  -19.6929  -25.6301   21.1246 H   0  0  0  0  0  0
  -19.6705  -27.3200   20.6762 H   0  0  0  0  0  0
  -17.4198  -26.6681   21.4012 H   0  0  0  0  0  0
  -18.0305  -26.0093   22.9030 H   0  0  0  0  0  0
  -19.7944  -30.7266   24.2254 H   0  0  0  0  0  0
  -17.5028  -31.6280   24.5155 H   0  0  0  0  0  0
  -15.5350  -30.2990   23.7700 H   0  0  0  0  0  0
  -15.8656  -28.0837   22.7071 H   0  0  0  0  0  0
  -24.5895  -30.7098   25.7800 H   0  0  0  0  0  0
  -24.8892  -32.2949   26.4832 H   0  0  0  0  0  0
  -25.8024  -30.8984   27.0273 H   0  0  0  0  0  0
  -26.2909  -29.6787   24.1204 H   0  0  0  0  0  0
  -27.4013  -29.7264   25.4715 H   0  0  0  0  0  0
  -27.8787  -30.4320   23.9440 H   0  0  0  0  0  0
  -27.2717  -33.3636   26.2048 H   0  0  0  0  0  0
  -28.3900  -32.6825   25.0337 H   0  0  0  0  0  0
  -28.0709  -31.8446   26.5450 H   0  0  0  0  0  0
  -28.2558  -38.0120   24.7553 H   0  0  0  0  0  0
  -28.1111  -36.2647   24.6191 H   0  0  0  0  0  0
  -27.2308  -37.1326   25.8862 H   0  0  0  0  0  0
  -20.9381  -29.8801   21.6931 H   0  0  0  0  0  0
  -26.0154  -38.2859   24.1477 H   0  0  0  0  0  0
  -27.8558  -17.9728   21.1391 H   0  0  0  0  0  0
  -27.0300  -20.2829   20.8724 H   0  0  0  0  0  0
  -31.7653  -19.2906   19.9535 H   0  0  0  0  0  0
  -27.0903  -24.7636   20.6474 H   0  0  0  0  0  0
  -27.6440  -24.8141   18.9889 H   0  0  0  0  0  0
  -29.3959  -23.8593   21.2965 H   0  0  0  0  0  0
  -29.7888  -23.8754   19.5818 H   0  0  0  0  0  0
  -32.0025  -21.4242   19.0770 H   0  0  0  0  0  0
  -30.7652  -22.5568   19.0232 H   0  0  0  0  0  0
  -29.0011  -15.7947   20.5274 H   0  0  0  0  0  0
  1 25  1  0  0  0
  1 30  2  0  0  0
  1 81  1  0  0  0
  2  3  1  0  0  0
  2 25  1  0  0  0
  2 84  1  0  0  0
  2 85  1  0  0  0
  3  4  1  0  0  0
  3 86  1  0  0  0
  3 87  1  0  0  0
  4  5  1  0  0  0
  4 88  1  0  0  0
  4 89  1  0  0  0
  5  6  1  0  0  0
  5 26  1  0  0  0
  5 90  1  0  0  0
  6 25  1  0  0  0
  6 91  1  0  0  0
  6 92  1  0  0  0
  7  8  2  0  0  0
  7 26  1  0  0  0
  7 29  1  0  0  0
  8  9  1  0  0  0
  8 22  1  0  0  0
  9 10  1  0  0  0
  9 27  2  0  0  0
 10 11  2  0  0  0
 10 15  1  0  0  0
 11 12  1  0  0  0
 11 93  1  0  0  0
 12 13  2  0  0  0
 12 94  1  0  0  0
 13 14  1  0  0  0
 13 31  1  0  0  0
 14 15  2  0  0  0
 14 95  1  0  0  0
 15 96  1  0  0  0
 16 17  2  0  0  0
 16 21  1  0  0  0
 16 31  1  0  0  0
 17 18  1  0  0  0
 17 97  1  0  0  0
 18 19  2  0  0  0
 18 98  1  0  0  0
 19 20  1  0  0  0
 19 24  1  0  0  0
 20 21  2  0  0  0
 20 99  1  0  0  0
 21 23  1  0  0  0
 22 28  1  0  0  0
 22 32  2  0  0  0
 26 27  1  0  0  0
 28100  1  0  0  0
 28101  1  0  0  0
 29102  1  0  0  0
 29103  1  0  0  0
 33 34  1  0  0  0
 33 66  1  0  0  0
 33 70  2  0  0  0
 34 36  1  0  0  0
 34 59  1  0  0  0
 34104  1  0  0  0
 35 44  2  0  0  0
 35 45  1  0  0  0
 35 68  1  0  0  0
 36 56  1  0  0  0
 36105  1  0  0  0
 37 39  1  0  0  0
 37 47  1  0  0  0
 37 66  1  0  0  0
 37106  1  0  0  0
 38 43  2  0  0  0
 38 46  1  0  0  0
 38 47  1  0  0  0
 39 64  1  0  0  0
 39 67  2  0  0  0
 40 52  1  0  0  0
 40 53  2  0  0  0
 40 58  1  0  0  0
 41107  1  0  0  0
 41108  1  0  0  0
 41109  1  0  0  0
 41 48  1  0  0  0
 42 43  1  0  0  0
 42 66  1  0  0  0
 42110  1  0  0  0
 42111  1  0  0  0
 43 44  1  0  0  0
 44112  1  0  0  0
 45 46  2  0  0  0
 45113  1  0  0  0
 46114  1  0  0  0
 47115  1  0  0  0
 47116  1  0  0  0
 48 56  1  0  0  0
 48 65  1  0  0  0
 48117  1  0  0  0
 49 50  1  0  0  0
 49 53  1  0  0  0
 49 64  1  0  0  0
 49118  1  0  0  0
 50 51  1  0  0  0
 50119  1  0  0  0
 50120  1  0  0  0
 51 52  1  0  0  0
 51121  1  0  0  0
 51122  1  0  0  0
 52123  1  0  0  0
 52124  1  0  0  0
 53 54  1  0  0  0
 54 55  2  0  0  0
 54125  1  0  0  0
 55 57  1  0  0  0
 55126  1  0  0  0
 56 69  2  0  0  0
 57 58  2  0  0  0
 57127  1  0  0  0
 58128  1  0  0  0
 59 60  1  0  0  0
 59 61  1  0  0  0
 59 62  1  0  0  0
 60129  1  0  0  0
 60130  1  0  0  0
 60131  1  0  0  0
 61132  1  0  0  0
 61133  1  0  0  0
 61134  1  0  0  0
 62135  1  0  0  0
 62136  1  0  0  0
 62137  1  0  0  0
 63 65  1  0  0  0
 63138  1  0  0  0
 63139  1  0  0  0
 63140  1  0  0  0
 64141  1  0  0  0
 65142  1  0  0  0
 68 78  1  0  0  0
 71 72  2  0  0  0
 71 74  1  0  0  0
 71143  1  0  0  0
 72 76  1  0  0  0
 72144  1  0  0  0
 73 74  2  0  0  0
 73 75  1  0  0  0
 73145  1  0  0  0
 74 77  1  0  0  0
 75 76  2  0  0  0
 75 80  1  0  0  0
 76 83  1  0  0  0
 77 81  1  0  0  0
 77 82  2  0  0  0
 78 79  1  0  0  0
 78146  1  0  0  0
 78147  1  0  0  0
 79 83  1  0  0  0
 79148  1  0  0  0
 79149  1  0  0  0
 80150  1  0  0  0
 80151  1  0  0  0
 81152  1  0  0  0
M  ISO  4   1 100  68 101  78 101  81 100
M  END
> <chiral flag>
0

> <version>
0

> <s_m_source_file>
/data/baiqing/PycharmProjects/Reinvent-master-3.2/result/LINK_invent/BTK/process_docking_weight1_custom_product_contain_oxygen_bond_distance_aromatic_linkinvent_7_9_3/rearranged_h_0094.sdf

> <i_m_source_file_index>
19

> <r_mmod_Potential_Energy-OPLS-2005>
5.63725662231445

> <r_mmod_Stretch_Energy-OPLS-2005>
83.6613159179688

> <r_mmod_Bend_Energy-OPLS-2005>
172.836929321289

> <r_mmod_Torsional_Energy-OPLS-2005>
238.247604370117

> <r_mmod_Improper_Torsional_Energy-OPLS-2005>
11.0228090286255

> <r_mmod_Van_der_Waal_Energy-OPLS-2005>
166.725143432617

> <r_mmod_Electrostatic_Energy-OPLS-2005>
-487.866424560547

> <r_mmod_Solvation_Energy-OPLS-2005>
-239.389755249023

> <b_mmod_Minimization_Converged-OPLS-2005>
0

> <r_mmod_RMS_Derivative-OPLS-2005>
2.30067896842957

$$$$
19
                    3D
 Structure written by MMmdl.
160169  0  0  1  0            999 V2000
  -30.6194  -14.6725   20.4989 C   0  0  0  0  0  0
  -30.4387  -12.4128   19.4618 C   0  0  0  0  0  0
  -29.5092  -12.5101   18.2311 C   0  0  0  0  0  0
  -28.0327  -12.3434   18.6431 C   0  0  0  0  0  0
  -27.6516  -13.2220   19.8649 C   0  0  2  0  0  0
  -28.6961  -13.0956   20.9969 C   0  0  0  0  0  0
  -25.2549  -13.8180   20.5699 C   0  0  0  0  0  0
  -24.1819  -13.0438   20.9186 C   0  0  0  0  0  0
  -24.6393  -11.6913   20.8732 C   0  0  0  0  0  0
  -23.9060  -10.4294   21.0396 C   0  0  0  0  0  0
  -24.3614   -9.4213   21.9177 C   0  0  0  0  0  0
  -23.6295   -8.2242   22.0751 C   0  0  0  0  0  0
  -22.4276   -8.0276   21.3541 C   0  0  0  0  0  0
  -21.9909   -9.0247   20.4639 C   0  0  0  0  0  0
  -22.7234  -10.2128   20.3047 C   0  0  0  0  0  0
  -21.6853   -6.0734   22.5279 C   0  0  0  0  0  0
  -21.4011   -6.5637   23.8212 C   0  0  0  0  0  0
  -21.3659   -5.6787   24.9174 C   0  0  0  0  0  0
  -21.6044   -4.3051   24.7221 C   0  0  0  0  0  0
  -21.8820   -3.8143   23.4341 C   0  0  0  0  0  0
  -21.9196   -4.6961   22.3401 C   0  0  0  0  0  0
  -22.7845  -13.5229   21.1861 C   0  0  0  0  0  0
  -22.1666   -4.2148   21.0975 F   0  0  0  0  0  0
  -21.5630   -3.4528   25.7733 F   0  0  0  0  0  0
  -30.0090  -13.4436   20.4317 N   0  0  0  0  0  0
  -26.2985  -12.9372   20.3341 N   0  0  0  0  0  0
  -25.9326  -11.6520   20.5767 N   0  0  0  0  0  0
  -22.0488  -12.8208   22.0410 N   0  0  0  0  0  0
  -25.4240  -15.1901   20.4136 N   0  0  0  0  0  0
  -31.7842  -14.8170   20.1163 O   0  0  0  0  0  0
  -21.6643   -6.8872   21.4239 O   0  0  0  0  0  0
  -22.3527  -14.5538   20.6720 O   0  0  0  0  0  0
  -24.6276  -31.8595   23.2027 C   0  0  0  0  0  0
  -25.9117  -32.4781   23.8363 C   0  0  1  0  0  0
  -27.2217  -27.3022   20.1192 C   0  0  0  0  0  0
  -25.5931  -33.8583   24.2284 N   0  0  0  0  0  0
  -23.4225  -30.4835   21.5461 C   0  0  2  0  0  0
  -24.8681  -28.9386   20.1121 C   0  0  0  0  0  0
  -22.7487  -29.4622   22.4938 C   0  0  0  0  0  0
  -18.0289  -28.1389   22.8498 C   0  0  0  0  0  0
  -24.1477  -36.7271   23.2643 C   0  0  0  0  0  0
  -25.9659  -30.7845   21.3774 C   0  0  0  0  0  0
  -26.0393  -29.4116   20.7173 C   0  0  0  0  0  0
  -27.2193  -28.6061   20.7101 C   0  0  0  0  0  0
  -26.0239  -26.8894   19.4885 C   0  0  0  0  0  0
  -24.8632  -27.6833   19.4889 C   0  0  0  0  0  0
  -23.6374  -29.8199   20.1610 C   0  0  0  0  0  0
  -25.4109  -36.3083   24.0334 C   0  0  1  0  0  0
  -20.5891  -28.3688   23.1284 C   0  0  2  0  0  0
  -20.6776  -26.9409   22.5414 C   0  0  0  0  0  0
  -19.5748  -26.6385   21.5220 C   0  0  0  0  0  0
  -18.1927  -26.7940   22.1625 C   0  0  0  0  0  0
  -19.1544  -28.8857   23.2885 C   0  0  0  0  0  0
  -18.9466  -30.1462   23.8895 C   0  0  0  0  0  0
  -17.6469  -30.6597   24.0561 C   0  0  0  0  0  0
  -25.9051  -34.9455   23.5105 C   0  0  0  0  0  0
  -16.5359  -29.9092   23.6343 C   0  0  0  0  0  0
  -16.7276  -28.6506   23.0371 C   0  0  0  0  0  0
  -26.4500  -31.6599   25.0738 C   0  0  0  0  0  0
  -25.3730  -31.3739   26.1462 C   0  0  0  0  0  0
  -27.0355  -30.3031   24.6191 C   0  0  0  0  0  0
  -27.6049  -32.4349   25.7521 C   0  0  0  0  0  0
  -27.5575  -37.1788   24.8466 C   0  0  0  0  0  0
  -21.4199  -29.3041   22.3682 N   0  0  0  0  0  0
  -26.4279  -37.3783   23.9423 N   0  0  0  0  0  0
  -24.6909  -31.0595   22.0985 N   0  0  0  0  0  0
  -23.4207  -28.8165   23.3021 O   0  0  0  0  0  0
  -28.3315  -26.4353   20.1755 O   0  0  0  0  0  0
  -26.5605  -34.8924   22.4662 O   0  0  0  0  0  0
  -23.5433  -32.1395   23.7343 O   0  0  0  0  0  0
  -31.0721  -19.2984   20.0299 C   0  0  0  0  0  0
  -31.0283  -17.8754   20.1132 C   0  0  0  0  0  0
  -28.9501  -19.4650   21.1322 C   0  0  0  0  0  0
  -30.0549  -20.1526   20.5586 C   0  0  0  0  0  0
  -29.9455  -17.1962   20.7266 C   0  0  0  0  0  0
  -28.8927  -18.0251   21.2225 C   0  0  0  0  0  0
  -29.1391  -22.5705   20.2855 C   0  0  0  0  0  0
  -29.2369  -23.9523   20.3227 C   0  0  0  0  0  0
  -31.4214  -22.1623   20.9070 C   0  0  0  0  0  0
  -30.5617  -24.5841   20.6937 C   0  0  0  0  0  0
  -31.7355  -23.6110   20.5015 C   0  0  0  0  0  0
  -26.7522  -18.1057   22.3236 C   0  0  0  0  0  0
  -28.0853  -24.9754   20.0069 C   0  0  0  0  0  0
  -30.2104  -21.6346   20.5605 N   0  0  0  0  0  0
  -29.8230  -15.7341   20.8601 N   0  0  0  0  0  0
  -32.2958  -21.5405   21.5232 O   0  0  0  0  0  0
  -27.8357  -17.3491   21.7981 O   0  0  0  0  0  0
  -31.4792  -12.5404   19.1585 H   0  0  0  0  0  0
  -30.3800  -11.4208   19.9120 H   0  0  0  0  0  0
  -29.7787  -11.7521   17.4942 H   0  0  0  0  0  0
  -29.6465  -13.4750   17.7407 H   0  0  0  0  0  0
  -27.8743  -11.2911   18.8823 H   0  0  0  0  0  0
  -27.3767  -12.5629   17.8001 H   0  0  0  0  0  0
  -27.6644  -14.2550   19.5159 H   0  0  0  0  0  0
  -28.7146  -12.0786   21.3919 H   0  0  0  0  0  0
  -28.4361  -13.7372   21.8407 H   0  0  0  0  0  0
  -25.2757   -9.5694   22.4750 H   0  0  0  0  0  0
  -24.0009   -7.4633   22.7464 H   0  0  0  0  0  0
  -21.0842   -8.8750   19.8940 H   0  0  0  0  0  0
  -22.3684  -10.9658   19.6148 H   0  0  0  0  0  0
  -21.1994   -7.6145   23.9716 H   0  0  0  0  0  0
  -21.1480   -6.0514   25.9078 H   0  0  0  0  0  0
  -22.0596   -2.7606   23.2835 H   0  0  0  0  0  0
  -22.4111  -11.9860   22.4781 H   0  0  0  0  0  0
  -21.1105  -13.1216   22.2618 H   0  0  0  0  0  0
  -24.6557  -15.8409   20.5300 H   0  0  0  0  0  0
  -26.2851  -15.6398   20.1292 H   0  0  0  0  0  0
  -26.7184  -32.5441   23.1111 H   0  0  0  0  0  0
  -25.0114  -33.9734   25.0455 H   0  0  0  0  0  0
  -22.7171  -31.3047   21.4038 H   0  0  0  0  0  0
  -23.3766  -35.9572   23.3294 H   0  0  0  0  0  0
  -24.3575  -36.8899   22.2059 H   0  0  0  0  0  0
  -23.7189  -37.6455   23.6666 H   0  0  0  0  0  0
  -26.1028  -31.5498   20.6123 H   0  0  0  0  0  0
  -26.8440  -30.8293   22.0097 H   0  0  0  0  0  0
  -28.1167  -28.9637   21.1954 H   0  0  0  0  0  0
  -25.9464  -25.9321   18.9964 H   0  0  0  0  0  0
  -23.9654  -27.3146   19.0120 H   0  0  0  0  0  0
  -23.7589  -30.5969   19.4054 H   0  0  0  0  0  0
  -22.7565  -29.2510   19.8572 H   0  0  0  0  0  0
  -25.1290  -36.1927   25.0825 H   0  0  0  0  0  0
  -20.9984  -28.3250   24.1403 H   0  0  0  0  0  0
  -20.5687  -26.2297   23.3617 H   0  0  0  0  0  0
  -21.6640  -26.7446   22.1193 H   0  0  0  0  0  0
  -19.6905  -25.6293   21.1252 H   0  0  0  0  0  0
  -19.6690  -27.3194   20.6749 H   0  0  0  0  0  0
  -17.4209  -26.6719   21.4010 H   0  0  0  0  0  0
  -18.0299  -26.0076   22.9006 H   0  0  0  0  0  0
  -19.7945  -30.7282   24.2254 H   0  0  0  0  0  0
  -17.5030  -31.6280   24.5158 H   0  0  0  0  0  0
  -15.5358  -30.2993   23.7681 H   0  0  0  0  0  0
  -15.8673  -28.0824   22.7089 H   0  0  0  0  0  0
  -24.5902  -30.7087   25.7796 H   0  0  0  0  0  0
  -24.8922  -32.2905   26.4883 H   0  0  0  0  0  0
  -25.8054  -30.8927   27.0241 H   0  0  0  0  0  0
  -26.2934  -29.6784   24.1203 H   0  0  0  0  0  0
  -27.4059  -29.7279   25.4685 H   0  0  0  0  0  0
  -27.8801  -30.4345   23.9424 H   0  0  0  0  0  0
  -27.2643  -33.3657   26.2071 H   0  0  0  0  0  0
  -28.3875  -32.6894   25.0361 H   0  0  0  0  0  0
  -28.0697  -31.8492   26.5462 H   0  0  0  0  0  0
  -28.2575  -38.0104   24.7549 H   0  0  0  0  0  0
  -28.1086  -36.2636   24.6246 H   0  0  0  0  0  0
  -27.2304  -37.1371   25.8871 H   0  0  0  0  0  0
  -20.9380  -29.8779   21.6904 H   0  0  0  0  0  0
  -26.0159  -38.2849   24.1456 H   0  0  0  0  0  0
  -31.9403  -19.7403   19.5615 H   0  0  0  0  0  0
  -31.8533  -17.3141   19.7001 H   0  0  0  0  0  0
  -28.1602  -20.0747   21.5444 H   0  0  0  0  0  0
  -28.2148  -22.0769   20.0230 H   0  0  0  0  0  0
  -30.5080  -24.9295   21.7269 H   0  0  0  0  0  0
  -30.7307  -25.4657   20.0736 H   0  0  0  0  0  0
  -32.0101  -23.5860   19.4468 H   0  0  0  0  0  0
  -32.6139  -23.9710   21.0375 H   0  0  0  0  0  0
  -26.0006  -17.4264   22.7257 H   0  0  0  0  0  0
  -26.2695  -18.7056   21.5510 H   0  0  0  0  0  0
  -27.0747  -18.7564   23.1376 H   0  0  0  0  0  0
  -27.2293  -24.6824   20.6170 H   0  0  0  0  0  0
  -27.8117  -24.7958   18.9669 H   0  0  0  0  0  0
  -28.9229  -15.4474   21.2156 H   0  0  0  0  0  0
  1 25  1  0  0  0
  1 30  2  0  0  0
  1 85  1  0  0  0
  2  3  1  0  0  0
  2 25  1  0  0  0
  2 88  1  0  0  0
  2 89  1  0  0  0
  3  4  1  0  0  0
  3 90  1  0  0  0
  3 91  1  0  0  0
  4  5  1  0  0  0
  4 92  1  0  0  0
  4 93  1  0  0  0
  5  6  1  0  0  0
  5 26  1  0  0  0
  5 94  1  0  0  0
  6 25  1  0  0  0
  6 95  1  0  0  0
  6 96  1  0  0  0
  7  8  2  0  0  0
  7 26  1  0  0  0
  7 29  1  0  0  0
  8  9  1  0  0  0
  8 22  1  0  0  0
  9 10  1  0  0  0
  9 27  2  0  0  0
 10 11  2  0  0  0
 10 15  1  0  0  0
 11 12  1  0  0  0
 11 97  1  0  0  0
 12 13  2  0  0  0
 12 98  1  0  0  0
 13 14  1  0  0  0
 13 31  1  0  0  0
 14 15  2  0  0  0
 14 99  1  0  0  0
 15100  1  0  0  0
 16 17  2  0  0  0
 16 21  1  0  0  0
 16 31  1  0  0  0
 17 18  1  0  0  0
 17101  1  0  0  0
 18 19  2  0  0  0
 18102  1  0  0  0
 19 20  1  0  0  0
 19 24  1  0  0  0
 20 21  2  0  0  0
 20103  1  0  0  0
 21 23  1  0  0  0
 22 28  1  0  0  0
 22 32  2  0  0  0
 26 27  1  0  0  0
 28104  1  0  0  0
 28105  1  0  0  0
 29106  1  0  0  0
 29107  1  0  0  0
 33 34  1  0  0  0
 33 66  1  0  0  0
 33 70  2  0  0  0
 34 36  1  0  0  0
 34 59  1  0  0  0
 34108  1  0  0  0
 35 44  2  0  0  0
 35 45  1  0  0  0
 35 68  1  0  0  0
 36 56  1  0  0  0
 36109  1  0  0  0
 37 39  1  0  0  0
 37 47  1  0  0  0
 37 66  1  0  0  0
 37110  1  0  0  0
 38 43  2  0  0  0
 38 46  1  0  0  0
 38 47  1  0  0  0
 39 64  1  0  0  0
 39 67  2  0  0  0
 40 52  1  0  0  0
 40 53  2  0  0  0
 40 58  1  0  0  0
 41111  1  0  0  0
 41112  1  0  0  0
 41113  1  0  0  0
 41 48  1  0  0  0
 42 43  1  0  0  0
 42 66  1  0  0  0
 42114  1  0  0  0
 42115  1  0  0  0
 43 44  1  0  0  0
 44116  1  0  0  0
 45 46  2  0  0  0
 45117  1  0  0  0
 46118  1  0  0  0
 47119  1  0  0  0
 47120  1  0  0  0
 48 56  1  0  0  0
 48 65  1  0  0  0
 48121  1  0  0  0
 49 50  1  0  0  0
 49 53  1  0  0  0
 49 64  1  0  0  0
 49122  1  0  0  0
 50 51  1  0  0  0
 50123  1  0  0  0
 50124  1  0  0  0
 51 52  1  0  0  0
 51125  1  0  0  0
 51126  1  0  0  0
 52127  1  0  0  0
 52128  1  0  0  0
 53 54  1  0  0  0
 54 55  2  0  0  0
 54129  1  0  0  0
 55 57  1  0  0  0
 55130  1  0  0  0
 56 69  2  0  0  0
 57 58  2  0  0  0
 57131  1  0  0  0
 58132  1  0  0  0
 59 60  1  0  0  0
 59 61  1  0  0  0
 59 62  1  0  0  0
 60133  1  0  0  0
 60134  1  0  0  0
 60135  1  0  0  0
 61136  1  0  0  0
 61137  1  0  0  0
 61138  1  0  0  0
 62139  1  0  0  0
 62140  1  0  0  0
 62141  1  0  0  0
 63 65  1  0  0  0
 63142  1  0  0  0
 63143  1  0  0  0
 63144  1  0  0  0
 64145  1  0  0  0
 65146  1  0  0  0
 68 83  1  0  0  0
 71 72  2  0  0  0
 71 74  1  0  0  0
 71147  1  0  0  0
 72 75  1  0  0  0
 72148  1  0  0  0
 73 74  2  0  0  0
 73 76  1  0  0  0
 73149  1  0  0  0
 74 84  1  0  0  0
 75 76  2  0  0  0
 75 85  1  0  0  0
 76 87  1  0  0  0
 77 78  2  0  0  0
 77 84  1  0  0  0
 77150  1  0  0  0
 78 80  1  0  0  0
 78 83  1  0  0  0
 79 81  1  0  0  0
 79 84  1  0  0  0
 79 86  2  0  0  0
 80 81  1  0  0  0
 80151  1  0  0  0
 80152  1  0  0  0
 81153  1  0  0  0
 81154  1  0  0  0
 82 87  1  0  0  0
 82155  1  0  0  0
 82156  1  0  0  0
 82157  1  0  0  0
 83158  1  0  0  0
 83159  1  0  0  0
 85160  1  0  0  0
M  ISO  4   1 100  68 101  83 101  85 100
M  END
> <chiral flag>
0

> <version>
0

> <s_m_source_file>
/data/baiqing/PycharmProjects/Reinvent-master-3.2/result/LINK_invent/BTK/process_docking_weight1_custom_product_contain_oxygen_bond_distance_aromatic_linkinvent_7_9_3/rearranged_h_0094.sdf

> <i_m_source_file_index>
20

> <r_mmod_Potential_Energy-OPLS-2005>
151.139877319336

> <r_mmod_Stretch_Energy-OPLS-2005>
100.173164367676

> <r_mmod_Bend_Energy-OPLS-2005>
146.418670654297

> <r_mmod_Torsional_Energy-OPLS-2005>
261.179748535156

> <r_mmod_Improper_Torsional_Energy-OPLS-2005>
3.63639354705811

> <r_mmod_Van_der_Waal_Energy-OPLS-2005>
169.719604492188

> <r_mmod_Electrostatic_Energy-OPLS-2005>
-368.963500976562

> <r_mmod_Solvation_Energy-OPLS-2005>
-219.151504516602

> <b_mmod_Minimization_Converged-OPLS-2005>
0

> <r_mmod_RMS_Derivative-OPLS-2005>
1.09195399284363

$$$$
20
                    3D
 Structure written by MMmdl.
158167  0  0  1  0            999 V2000
  -30.6718  -14.5801   20.4730 C   0  0  0  0  0  0
  -30.4239  -12.3520   19.4408 C   0  0  0  0  0  0
  -29.4995  -12.4668   18.2127 C   0  0  0  0  0  0
  -28.0193  -12.3276   18.6273 C   0  0  0  0  0  0
  -27.6433  -13.2162   19.8441 C   0  0  2  0  0  0
  -28.6903  -13.0976   20.9746 C   0  0  0  0  0  0
  -25.2496  -13.8173   20.5638 C   0  0  0  0  0  0
  -24.1788  -13.0430   20.9200 C   0  0  0  0  0  0
  -24.6363  -11.6912   20.8751 C   0  0  0  0  0  0
  -23.9037  -10.4292   21.0411 C   0  0  0  0  0  0
  -24.3604   -9.4208   21.9196 C   0  0  0  0  0  0
  -23.6288   -8.2239   22.0765 C   0  0  0  0  0  0
  -22.4270   -8.0270   21.3541 C   0  0  0  0  0  0
  -21.9904   -9.0231   20.4638 C   0  0  0  0  0  0
  -22.7226  -10.2118   20.3042 C   0  0  0  0  0  0
  -21.6843   -6.0731   22.5290 C   0  0  0  0  0  0
  -21.4009   -6.5635   23.8227 C   0  0  0  0  0  0
  -21.3658   -5.6786   24.9186 C   0  0  0  0  0  0
  -21.6050   -4.3043   24.7226 C   0  0  0  0  0  0
  -21.8820   -3.8139   23.4344 C   0  0  0  0  0  0
  -21.9196   -4.6964   22.3403 C   0  0  0  0  0  0
  -22.7809  -13.5216   21.1861 C   0  0  0  0  0  0
  -22.1660   -4.2146   21.0973 F   0  0  0  0  0  0
  -21.5636   -3.4519   25.7740 F   0  0  0  0  0  0
  -30.0095  -13.3922   20.3945 N   0  0  0  0  0  0
  -26.2925  -12.9360   20.3232 N   0  0  0  0  0  0
  -25.9279  -11.6516   20.5728 N   0  0  0  0  0  0
  -22.0428  -12.8231   22.0417 N   0  0  0  0  0  0
  -25.4122  -15.1894   20.4058 N   0  0  0  0  0  0
  -31.8659  -14.6806   20.1798 O   0  0  0  0  0  0
  -21.6632   -6.8871   21.4246 O   0  0  0  0  0  0
  -22.3504  -14.5520   20.6696 O   0  0  0  0  0  0
  -24.6238  -31.8593   23.2044 C   0  0  0  0  0  0
  -25.9096  -32.4769   23.8372 C   0  0  1  0  0  0
  -27.2092  -27.3612   20.1171 C   0  0  0  0  0  0
  -25.5933  -33.8581   24.2306 N   0  0  0  0  0  0
  -23.4155  -30.4873   21.5417 C   0  0  2  0  0  0
  -24.8558  -28.9394   20.1125 C   0  0  0  0  0  0
  -22.7444  -29.4652   22.4906 C   0  0  0  0  0  0
  -18.0269  -28.1441   22.8536 C   0  0  0  0  0  0
  -24.1475  -36.7296   23.2647 C   0  0  0  0  0  0
  -25.9509  -30.8033   21.3647 C   0  0  0  0  0  0
  -26.0214  -29.4313   20.7187 C   0  0  0  0  0  0
  -27.2056  -28.6488   20.7198 C   0  0  0  0  0  0
  -26.0318  -26.8998   19.4981 C   0  0  0  0  0  0
  -24.8591  -27.6750   19.4975 C   0  0  0  0  0  0
  -23.6271  -29.8207   20.1571 C   0  0  0  0  0  0
  -25.4096  -36.3091   24.0349 C   0  0  1  0  0  0
  -20.5874  -28.3724   23.1285 C   0  0  2  0  0  0
  -20.6775  -26.9452   22.5402 C   0  0  0  0  0  0
  -19.5714  -26.6411   21.5239 C   0  0  0  0  0  0
  -18.1897  -26.7996   22.1656 C   0  0  0  0  0  0
  -19.1531  -28.8900   23.2911 C   0  0  0  0  0  0
  -18.9455  -30.1522   23.8904 C   0  0  0  0  0  0
  -17.6458  -30.6641   24.0604 C   0  0  0  0  0  0
  -25.9035  -34.9461   23.5113 C   0  0  0  0  0  0
  -16.5348  -29.9142   23.6371 C   0  0  0  0  0  0
  -16.7256  -28.6565   23.0370 C   0  0  0  0  0  0
  -26.4512  -31.6574   25.0715 C   0  0  0  0  0  0
  -25.3783  -31.3645   26.1441 C   0  0  0  0  0  0
  -27.0364  -30.3042   24.6080 C   0  0  0  0  0  0
  -27.6069  -32.4308   25.7498 C   0  0  0  0  0  0
  -27.5558  -37.1815   24.8474 C   0  0  0  0  0  0
  -21.4152  -29.3100   22.3691 N   0  0  0  0  0  0
  -26.4266  -37.3786   23.9425 N   0  0  0  0  0  0
  -24.6827  -31.0673   22.0952 N   0  0  0  0  0  0
  -23.4178  -28.8163   23.2951 O   0  0  0  0  0  0
  -28.3193  -26.5366   20.1089 O   0  0  0  0  0  0
  -26.5556  -34.8929   22.4657 O   0  0  0  0  0  0
  -23.5415  -32.1338   23.7409 O   0  0  0  0  0  0
  -31.7510  -18.6695   21.9640 C   0  0  0  0  0  0
  -31.1324  -19.7386   21.2911 C   0  0  0  0  0  0
  -31.3559  -17.3424   21.7115 C   0  0  0  0  0  0
  -29.6965  -18.1550   20.1141 C   0  0  0  0  0  0
  -30.0998  -19.5069   20.3562 C   0  0  0  0  0  0
  -30.3231  -17.0575   20.7877 C   0  0  0  0  0  0
  -29.5711  -20.6928   19.5570 C   0  0  0  0  0  0
  -27.8470  -23.0402   21.8691 C   0  0  0  0  0  0
  -28.3816  -21.6480   21.5159 C   0  0  0  0  0  0
  -28.9372  -23.1566   19.7172 C   0  0  0  0  0  0
  -27.9428  -23.9424   20.6207 C   0  0  2  0  0  0
  -28.2815  -25.4262   21.0497 C   0  0  0  0  0  0
  -29.0465  -21.7618   20.2251 N   0  0  0  0  0  0
  -29.8951  -15.6912   20.5982 N   0  0  0  0  0  0
  -29.7494  -20.7048   18.3360 O   0  0  0  0  0  0
  -31.4634  -12.4672   19.1357 H   0  0  0  0  0  0
  -30.3499  -11.3652   19.8986 H   0  0  0  0  0  0
  -29.7600  -11.7023   17.4766 H   0  0  0  0  0  0
  -29.6547  -13.4271   17.7181 H   0  0  0  0  0  0
  -27.8506  -11.2777   18.8738 H   0  0  0  0  0  0
  -27.3675  -12.5463   17.7800 H   0  0  0  0  0  0
  -27.6540  -14.2447   19.4839 H   0  0  0  0  0  0
  -28.6795  -12.0973   21.4079 H   0  0  0  0  0  0
  -28.4538  -13.7846   21.7896 H   0  0  0  0  0  0
  -25.2751   -9.5701   22.4775 H   0  0  0  0  0  0
  -24.0009   -7.4627   22.7481 H   0  0  0  0  0  0
  -21.0846   -8.8713   19.8935 H   0  0  0  0  0  0
  -22.3670  -10.9637   19.6128 H   0  0  0  0  0  0
  -21.1981   -7.6147   23.9730 H   0  0  0  0  0  0
  -21.1484   -6.0509   25.9094 H   0  0  0  0  0  0
  -22.0598   -2.7604   23.2833 H   0  0  0  0  0  0
  -22.4019  -11.9891   22.4819 H   0  0  0  0  0  0
  -21.1025  -13.1259   22.2554 H   0  0  0  0  0  0
  -24.6281  -15.8262   20.5119 H   0  0  0  0  0  0
  -26.2469  -15.6461   20.0620 H   0  0  0  0  0  0
  -26.7159  -32.5427   23.1123 H   0  0  0  0  0  0
  -25.0265  -33.9758   25.0573 H   0  0  0  0  0  0
  -22.7113  -31.3083   21.3994 H   0  0  0  0  0  0
  -23.3741  -35.9623   23.3296 H   0  0  0  0  0  0
  -24.3600  -36.8893   22.2067 H   0  0  0  0  0  0
  -23.7215  -37.6505   23.6642 H   0  0  0  0  0  0
  -26.0660  -31.5548   20.5842 H   0  0  0  0  0  0
  -26.8442  -30.8641   21.9741 H   0  0  0  0  0  0
  -28.1031  -29.0208   21.1943 H   0  0  0  0  0  0
  -26.0208  -25.9297   19.0192 H   0  0  0  0  0  0
  -23.9650  -27.2888   19.0241 H   0  0  0  0  0  0
  -23.7453  -30.5929   19.3964 H   0  0  0  0  0  0
  -22.7489  -29.2462   19.8578 H   0  0  0  0  0  0
  -25.1283  -36.1937   25.0841 H   0  0  0  0  0  0
  -21.0004  -28.3256   24.1390 H   0  0  0  0  0  0
  -20.5719  -26.2333   23.3604 H   0  0  0  0  0  0
  -21.6625  -26.7497   22.1156 H   0  0  0  0  0  0
  -19.6827  -25.6299   21.1297 H   0  0  0  0  0  0
  -19.6638  -27.3217   20.6760 H   0  0  0  0  0  0
  -17.4188  -26.6819   21.4024 H   0  0  0  0  0  0
  -18.0226  -26.0129   22.9027 H   0  0  0  0  0  0
  -19.7917  -30.7379   24.2223 H   0  0  0  0  0  0
  -17.4997  -31.6310   24.5219 H   0  0  0  0  0  0
  -15.5350  -30.3054   23.7702 H   0  0  0  0  0  0
  -15.8651  -28.0911   22.7045 H   0  0  0  0  0  0
  -24.5985  -30.6943   25.7785 H   0  0  0  0  0  0
  -24.8955  -32.2792   26.4895 H   0  0  0  0  0  0
  -25.8184  -30.8827   27.0183 H   0  0  0  0  0  0
  -26.2891  -29.6756   24.1216 H   0  0  0  0  0  0
  -27.4258  -29.7304   25.4498 H   0  0  0  0  0  0
  -27.8672  -30.4419   23.9159 H   0  0  0  0  0  0
  -27.2660  -33.3626   26.2045 H   0  0  0  0  0  0
  -28.3917  -32.6814   25.0340 H   0  0  0  0  0  0
  -28.0688  -31.8422   26.5440 H   0  0  0  0  0  0
  -28.2576  -38.0114   24.7543 H   0  0  0  0  0  0
  -28.1051  -36.2651   24.6276 H   0  0  0  0  0  0
  -27.2296  -37.1440   25.8881 H   0  0  0  0  0  0
  -20.9265  -29.8921   21.7035 H   0  0  0  0  0  0
  -26.0123  -38.2841   24.1456 H   0  0  0  0  0  0
  -32.5408  -18.8702   22.6752 H   0  0  0  0  0  0
  -31.4770  -20.7496   21.4739 H   0  0  0  0  0  0
  -31.8490  -16.5447   22.2494 H   0  0  0  0  0  0
  -28.9173  -17.9641   19.3877 H   0  0  0  0  0  0
  -28.4699  -23.4383   22.6722 H   0  0  0  0  0  0
  -26.8291  -22.9861   22.2591 H   0  0  0  0  0  0
  -27.5688  -20.9231   21.4450 H   0  0  0  0  0  0
  -29.0714  -21.2951   22.2853 H   0  0  0  0  0  0
  -29.9252  -23.6169   19.7453 H   0  0  0  0  0  0
  -28.6047  -23.1776   18.6770 H   0  0  0  0  0  0
  -26.9661  -23.9244   20.1345 H   0  0  0  0  0  0
  -29.2523  -25.4201   21.5432 H   0  0  0  0  0  0
  -27.5756  -25.6820   21.8440 H   0  0  0  0  0  0
  -28.9005  -15.5348   20.5338 H   0  0  0  0  0  0
  1 25  1  0  0  0
  1 30  2  0  0  0
  1 84  1  0  0  0
  2  3  1  0  0  0
  2 25  1  0  0  0
  2 86  1  0  0  0
  2 87  1  0  0  0
  3  4  1  0  0  0
  3 88  1  0  0  0
  3 89  1  0  0  0
  4  5  1  0  0  0
  4 90  1  0  0  0
  4 91  1  0  0  0
  5  6  1  0  0  0
  5 26  1  0  0  0
  5 92  1  0  0  0
  6 25  1  0  0  0
  6 93  1  0  0  0
  6 94  1  0  0  0
  7  8  2  0  0  0
  7 26  1  0  0  0
  7 29  1  0  0  0
  8  9  1  0  0  0
  8 22  1  0  0  0
  9 10  1  0  0  0
  9 27  2  0  0  0
 10 11  2  0  0  0
 10 15  1  0  0  0
 11 12  1  0  0  0
 11 95  1  0  0  0
 12 13  2  0  0  0
 12 96  1  0  0  0
 13 14  1  0  0  0
 13 31  1  0  0  0
 14 15  2  0  0  0
 14 97  1  0  0  0
 15 98  1  0  0  0
 16 17  2  0  0  0
 16 21  1  0  0  0
 16 31  1  0  0  0
 17 18  1  0  0  0
 17 99  1  0  0  0
 18 19  2  0  0  0
 18100  1  0  0  0
 19 20  1  0  0  0
 19 24  1  0  0  0
 20 21  2  0  0  0
 20101  1  0  0  0
 21 23  1  0  0  0
 22 28  1  0  0  0
 22 32  2  0  0  0
 26 27  1  0  0  0
 28102  1  0  0  0
 28103  1  0  0  0
 29104  1  0  0  0
 29105  1  0  0  0
 33 34  1  0  0  0
 33 66  1  0  0  0
 33 70  2  0  0  0
 34 36  1  0  0  0
 34 59  1  0  0  0
 34106  1  0  0  0
 35 44  2  0  0  0
 35 45  1  0  0  0
 35 68  1  0  0  0
 36 56  1  0  0  0
 36107  1  0  0  0
 37 39  1  0  0  0
 37 47  1  0  0  0
 37 66  1  0  0  0
 37108  1  0  0  0
 38 43  2  0  0  0
 38 46  1  0  0  0
 38 47  1  0  0  0
 39 64  1  0  0  0
 39 67  2  0  0  0
 40 52  1  0  0  0
 40 53  2  0  0  0
 40 58  1  0  0  0
 41109  1  0  0  0
 41110  1  0  0  0
 41111  1  0  0  0
 41 48  1  0  0  0
 42 43  1  0  0  0
 42 66  1  0  0  0
 42112  1  0  0  0
 42113  1  0  0  0
 43 44  1  0  0  0
 44114  1  0  0  0
 45 46  2  0  0  0
 45115  1  0  0  0
 46116  1  0  0  0
 47117  1  0  0  0
 47118  1  0  0  0
 48 56  1  0  0  0
 48 65  1  0  0  0
 48119  1  0  0  0
 49 50  1  0  0  0
 49 53  1  0  0  0
 49 64  1  0  0  0
 49120  1  0  0  0
 50 51  1  0  0  0
 50121  1  0  0  0
 50122  1  0  0  0
 51 52  1  0  0  0
 51123  1  0  0  0
 51124  1  0  0  0
 52125  1  0  0  0
 52126  1  0  0  0
 53 54  1  0  0  0
 54 55  2  0  0  0
 54127  1  0  0  0
 55 57  1  0  0  0
 55128  1  0  0  0
 56 69  2  0  0  0
 57 58  2  0  0  0
 57129  1  0  0  0
 58130  1  0  0  0
 59 60  1  0  0  0
 59 61  1  0  0  0
 59 62  1  0  0  0
 60131  1  0  0  0
 60132  1  0  0  0
 60133  1  0  0  0
 61134  1  0  0  0
 61135  1  0  0  0
 61136  1  0  0  0
 62137  1  0  0  0
 62138  1  0  0  0
 62139  1  0  0  0
 63 65  1  0  0  0
 63140  1  0  0  0
 63141  1  0  0  0
 63142  1  0  0  0
 64143  1  0  0  0
 65144  1  0  0  0
 68 82  1  0  0  0
 71 72  2  0  0  0
 71 73  1  0  0  0
 71145  1  0  0  0
 72 75  1  0  0  0
 72146  1  0  0  0
 73 76  2  0  0  0
 73147  1  0  0  0
 74 75  2  0  0  0
 74 76  1  0  0  0
 74148  1  0  0  0
 75 77  1  0  0  0
 76 84  1  0  0  0
 77 83  1  0  0  0
 77 85  2  0  0  0
 78 79  1  0  0  0
 78 81  1  0  0  0
 78149  1  0  0  0
 78150  1  0  0  0
 79 83  1  0  0  0
 79151  1  0  0  0
 79152  1  0  0  0
 80 81  1  0  0  0
 80 83  1  0  0  0
 80153  1  0  0  0
 80154  1  0  0  0
 81 82  1  0  0  0
 81155  1  0  0  0
 82156  1  0  0  0
 82157  1  0  0  0
 84158  1  0  0  0
M  ISO  4   1 100  68 101  82 101  84 100
M  END
> <chiral flag>
0

> <version>
0

> <s_m_source_file>
/data/baiqing/PycharmProjects/Reinvent-master-3.2/result/LINK_invent/BTK/process_docking_weight1_custom_product_contain_oxygen_bond_distance_aromatic_linkinvent_7_9_3/rearranged_h_0094.sdf

> <i_m_source_file_index>
21

> <r_mmod_Potential_Energy-OPLS-2005>
169.051147460938

> <r_mmod_Stretch_Energy-OPLS-2005>
53.4390640258789

> <r_mmod_Bend_Energy-OPLS-2005>
127.432281494141

> <r_mmod_Torsional_Energy-OPLS-2005>
373.084411621094

> <r_mmod_Improper_Torsional_Energy-OPLS-2005>
8.83628559112549

> <r_mmod_Van_der_Waal_Energy-OPLS-2005>
138.704925537109

> <r_mmod_Electrostatic_Energy-OPLS-2005>
-337.401184082031

> <r_mmod_Solvation_Energy-OPLS-2005>
-232.789245605469

> <b_mmod_Minimization_Converged-OPLS-2005>
0

> <r_mmod_RMS_Derivative-OPLS-2005>
4.11057090759277

$$$$
21
                    3D
 Structure written by MMmdl.
161169  0  0  1  0            999 V2000
  -30.7036  -14.4844   20.5158 C   0  0  0  0  0  0
  -30.4179  -12.3022   19.4203 C   0  0  0  0  0  0
  -29.4905  -12.4814   18.2005 C   0  0  0  0  0  0
  -28.0096  -12.3553   18.6156 C   0  0  0  0  0  0
  -27.6529  -13.2081   19.8638 C   0  0  2  0  0  0
  -28.7013  -13.0036   20.9787 C   0  0  0  0  0  0
  -25.2523  -13.8091   20.5722 C   0  0  0  0  0  0
  -24.1806  -13.0357   20.9221 C   0  0  0  0  0  0
  -24.6401  -11.6849   20.8759 C   0  0  0  0  0  0
  -23.9092  -10.4240   21.0407 C   0  0  0  0  0  0
  -24.3635   -9.4151   21.9188 C   0  0  0  0  0  0
  -23.6281   -8.2204   22.0757 C   0  0  0  0  0  0
  -22.4259   -8.0270   21.3543 C   0  0  0  0  0  0
  -21.9907   -9.0252   20.4645 C   0  0  0  0  0  0
  -22.7268  -10.2108   20.3049 C   0  0  0  0  0  0
  -21.6833   -6.0732   22.5285 C   0  0  0  0  0  0
  -21.4006   -6.5631   23.8227 C   0  0  0  0  0  0
  -21.3655   -5.6781   24.9185 C   0  0  0  0  0  0
  -21.6033   -4.3047   24.7225 C   0  0  0  0  0  0
  -21.8819   -3.8145   23.4346 C   0  0  0  0  0  0
  -21.9181   -4.6960   22.3400 C   0  0  0  0  0  0
  -22.7820  -13.5153   21.1876 C   0  0  0  0  0  0
  -22.1652   -4.2149   21.0974 F   0  0  0  0  0  0
  -21.5635   -3.4530   25.7740 F   0  0  0  0  0  0
  -30.0197  -13.3113   20.4120 N   0  0  0  0  0  0
  -26.2989  -12.9316   20.3354 N   0  0  0  0  0  0
  -25.9329  -11.6470   20.5783 N   0  0  0  0  0  0
  -22.0434  -12.8167   22.0431 N   0  0  0  0  0  0
  -25.4021  -15.1799   20.4168 N   0  0  0  0  0  0
  -31.8991  -14.5624   20.2077 O   0  0  0  0  0  0
  -21.6606   -6.8881   21.4251 O   0  0  0  0  0  0
  -22.3504  -14.5465   20.6734 O   0  0  0  0  0  0
  -24.6122  -31.8697   23.2119 C   0  0  0  0  0  0
  -25.9027  -32.4828   23.8414 C   0  0  1  0  0  0
  -27.2327  -27.4588   20.1020 C   0  0  0  0  0  0
  -25.5892  -33.8627   24.2347 N   0  0  0  0  0  0
  -23.3987  -30.4913   21.5510 C   0  0  2  0  0  0
  -24.8461  -28.9566   20.1179 C   0  0  0  0  0  0
  -22.7401  -29.4681   22.5035 C   0  0  0  0  0  0
  -18.0287  -28.1359   22.8465 C   0  0  0  0  0  0
  -24.1494  -36.7318   23.2632 C   0  0  0  0  0  0
  -25.9236  -30.8438   21.3589 C   0  0  0  0  0  0
  -26.0028  -29.4785   20.7098 C   0  0  0  0  0  0
  -27.2021  -28.7372   20.6970 C   0  0  0  0  0  0
  -26.0648  -26.9414   19.5042 C   0  0  0  0  0  0
  -24.8700  -27.6870   19.5120 C   0  0  0  0  0  0
  -23.6059  -29.8177   20.1663 C   0  0  0  0  0  0
  -25.4104  -36.3115   24.0349 C   0  0  1  0  0  0
  -20.5853  -28.3673   23.1339 C   0  0  2  0  0  0
  -20.6784  -26.9424   22.5414 C   0  0  0  0  0  0
  -19.5812  -26.6482   21.5131 C   0  0  0  0  0  0
  -18.1970  -26.7949   22.1521 C   0  0  0  0  0  0
  -19.1513  -28.8829   23.2911 C   0  0  0  0  0  0
  -18.9423  -30.1426   23.8928 C   0  0  0  0  0  0
  -17.6418  -30.6554   24.0577 C   0  0  0  0  0  0
  -25.9017  -34.9480   23.5143 C   0  0  0  0  0  0
  -16.5334  -29.9038   23.6311 C   0  0  0  0  0  0
  -16.7275  -28.6469   23.0313 C   0  0  0  0  0  0
  -26.4471  -31.6594   25.0724 C   0  0  0  0  0  0
  -25.3746  -31.3708   26.1480 C   0  0  0  0  0  0
  -27.0295  -30.3045   24.6071 C   0  0  0  0  0  0
  -27.6070  -32.4310   25.7460 C   0  0  0  0  0  0
  -27.5590  -37.1814   24.8467 C   0  0  0  0  0  0
  -21.4129  -29.3071   22.3788 N   0  0  0  0  0  0
  -26.4307  -37.3782   23.9404 N   0  0  0  0  0  0
  -24.6627  -31.0825   22.0993 N   0  0  0  0  0  0
  -23.4198  -28.8205   23.3043 O   0  0  0  0  0  0
  -28.3973  -26.7347   20.0950 O   0  0  0  0  0  0
  -26.5578  -34.8935   22.4700 O   0  0  0  0  0  0
  -23.5322  -32.1453   23.7517 O   0  0  0  0  0  0
  -29.6823  -18.7255   21.9492 C   0  0  0  0  0  0
  -29.4420  -20.1006   21.7354 C   0  0  0  0  0  0
  -27.5533  -19.5413   20.3151 C   0  0  0  0  0  0
  -28.8690  -17.7401   21.3396 C   0  0  0  0  0  0
  -28.3796  -20.5223   20.8997 C   0  0  0  0  0  0
  -27.7963  -18.1719   20.5278 C   0  0  0  0  0  0
  -29.0466  -15.3617   23.8978 C   0  0  0  0  0  0
  -29.7329  -15.9181   22.8861 C   0  0  0  0  0  0
  -28.5995  -23.0241   21.0509 C   0  0  0  0  0  0
  -30.2506  -16.4772   19.2473 C   0  0  0  0  0  0
  -28.3438  -24.2848   20.2078 C   0  0  0  0  0  0
  -28.4094  -25.6138   20.9862 C   0  0  0  0  0  0
  -29.1539  -16.2312   21.5083 C   0  0  2  0  0  0
  -28.1404  -21.8762   20.5220 N   0  0  0  0  0  0
  -29.9453  -15.6105   20.4036 N   0  0  0  0  0  0
  -29.1707  -23.0980   22.1405 O   0  0  0  0  0  0
  -27.0242  -17.2662   19.8875 F   0  0  0  0  0  0
  -31.4620  -12.3911   19.1160 H   0  0  0  0  0  0
  -30.3187  -11.3011   19.8421 H   0  0  0  0  0  0
  -29.7277  -11.7389   17.4370 H   0  0  0  0  0  0
  -29.6644  -13.4563   17.7442 H   0  0  0  0  0  0
  -27.8193  -11.3023   18.8273 H   0  0  0  0  0  0
  -27.3607  -12.6188   17.7789 H   0  0  0  0  0  0
  -27.6831  -14.2516   19.5511 H   0  0  0  0  0  0
  -28.6840  -11.9719   21.3294 H   0  0  0  0  0  0
  -28.4776  -13.6044   21.8545 H   0  0  0  0  0  0
  -25.2770   -9.5595   22.4787 H   0  0  0  0  0  0
  -23.9959   -7.4581   22.7477 H   0  0  0  0  0  0
  -21.0835   -8.8808   19.8944 H   0  0  0  0  0  0
  -22.3762  -10.9672   19.6169 H   0  0  0  0  0  0
  -21.2010   -7.6138   23.9742 H   0  0  0  0  0  0
  -21.1466   -6.0498   25.9089 H   0  0  0  0  0  0
  -22.0601   -2.7607   23.2849 H   0  0  0  0  0  0
  -22.4025  -11.9830   22.4845 H   0  0  0  0  0  0
  -21.1069  -13.1250   22.2655 H   0  0  0  0  0  0
  -24.6173  -15.8090   20.5356 H   0  0  0  0  0  0
  -26.2341  -15.6651   20.0946 H   0  0  0  0  0  0
  -26.7102  -32.5538   23.1187 H   0  0  0  0  0  0
  -25.0079  -33.9799   25.0517 H   0  0  0  0  0  0
  -22.6846  -31.3054   21.4092 H   0  0  0  0  0  0
  -23.3747  -35.9659   23.3311 H   0  0  0  0  0  0
  -24.3585  -36.8909   22.2041 H   0  0  0  0  0  0
  -23.7276  -37.6548   23.6624 H   0  0  0  0  0  0
  -26.0292  -31.6091   20.5877 H   0  0  0  0  0  0
  -26.8144  -30.9015   21.9736 H   0  0  0  0  0  0
  -28.0977  -29.1351   21.1532 H   0  0  0  0  0  0
  -26.0772  -25.9705   19.0314 H   0  0  0  0  0  0
  -23.9804  -27.2808   19.0506 H   0  0  0  0  0  0
  -23.7064  -30.5863   19.3980 H   0  0  0  0  0  0
  -22.7332  -29.2284   19.8796 H   0  0  0  0  0  0
  -25.1282  -36.1989   25.0847 H   0  0  0  0  0  0
  -20.9909  -28.3260   24.1472 H   0  0  0  0  0  0
  -20.5682  -26.2226   23.3547 H   0  0  0  0  0  0
  -21.6671  -26.7520   22.1218 H   0  0  0  0  0  0
  -19.7019  -25.6469   21.1010 H   0  0  0  0  0  0
  -19.6793  -27.3402   20.6767 H   0  0  0  0  0  0
  -17.4282  -26.6800   21.3863 H   0  0  0  0  0  0
  -18.0329  -26.0001   22.8819 H   0  0  0  0  0  0
  -19.7871  -30.7254   24.2330 H   0  0  0  0  0  0
  -17.4971  -31.6229   24.5192 H   0  0  0  0  0  0
  -15.5329  -30.2924   23.7628 H   0  0  0  0  0  0
  -15.8697  -28.0786   22.6977 H   0  0  0  0  0  0
  -24.5896  -30.7076   25.7836 H   0  0  0  0  0  0
  -24.8941  -32.2857   26.4965 H   0  0  0  0  0  0
  -25.8089  -30.8861   27.0222 H   0  0  0  0  0  0
  -26.2828  -29.6807   24.1137 H   0  0  0  0  0  0
  -27.4110  -29.7296   25.4519 H   0  0  0  0  0  0
  -27.8647  -30.4404   23.9186 H   0  0  0  0  0  0
  -27.2711  -33.3590   26.2102 H   0  0  0  0  0  0
  -28.3819  -32.6898   25.0231 H   0  0  0  0  0  0
  -28.0796  -31.8382   26.5306 H   0  0  0  0  0  0
  -28.2623  -38.0094   24.7474 H   0  0  0  0  0  0
  -28.1067  -36.2624   24.6326 H   0  0  0  0  0  0
  -27.2296  -37.1512   25.8868 H   0  0  0  0  0  0
  -20.9305  -29.8818   21.7021 H   0  0  0  0  0  0
  -26.0205  -38.2874   24.1362 H   0  0  0  0  0  0
  -30.5204  -18.4417   22.5681 H   0  0  0  0  0  0
  -30.1122  -20.8145   22.1940 H   0  0  0  0  0  0
  -26.7383  -19.8290   19.6682 H   0  0  0  0  0  0
  -29.5208  -15.1738   24.8506 H   0  0  0  0  0  0
  -28.0058  -15.0879   23.7960 H   0  0  0  0  0  0
  -30.7702  -16.1762   23.0439 H   0  0  0  0  0  0
  -29.3507  -16.9159   18.8211 H   0  0  0  0  0  0
  -30.7155  -15.9301   18.4246 H   0  0  0  0  0  0
  -30.9357  -17.2764   19.5321 H   0  0  0  0  0  0
  -27.3793  -24.1961   19.7080 H   0  0  0  0  0  0
  -29.0978  -24.3005   19.4213 H   0  0  0  0  0  0
  -27.5964  -25.6640   21.7139 H   0  0  0  0  0  0
  -29.3348  -25.6741   21.5608 H   0  0  0  0  0  0
  -28.1703  -15.7633   21.4728 H   0  0  0  0  0  0
  -27.5777  -21.9926   19.6911 H   0  0  0  0  0  0
  1 25  1  0  0  0
  1 30  2  0  0  0
  1 85  1  0  0  0
  2  3  1  0  0  0
  2 25  1  0  0  0
  2 88  1  0  0  0
  2 89  1  0  0  0
  3  4  1  0  0  0
  3 90  1  0  0  0
  3 91  1  0  0  0
  4  5  1  0  0  0
  4 92  1  0  0  0
  4 93  1  0  0  0
  5  6  1  0  0  0
  5 26  1  0  0  0
  5 94  1  0  0  0
  6 25  1  0  0  0
  6 95  1  0  0  0
  6 96  1  0  0  0
  7  8  2  0  0  0
  7 26  1  0  0  0
  7 29  1  0  0  0
  8  9  1  0  0  0
  8 22  1  0  0  0
  9 10  1  0  0  0
  9 27  2  0  0  0
 10 11  2  0  0  0
 10 15  1  0  0  0
 11 12  1  0  0  0
 11 97  1  0  0  0
 12 13  2  0  0  0
 12 98  1  0  0  0
 13 14  1  0  0  0
 13 31  1  0  0  0
 14 15  2  0  0  0
 14 99  1  0  0  0
 15100  1  0  0  0
 16 17  2  0  0  0
 16 21  1  0  0  0
 16 31  1  0  0  0
 17 18  1  0  0  0
 17101  1  0  0  0
 18 19  2  0  0  0
 18102  1  0  0  0
 19 20  1  0  0  0
 19 24  1  0  0  0
 20 21  2  0  0  0
 20103  1  0  0  0
 21 23  1  0  0  0
 22 28  1  0  0  0
 22 32  2  0  0  0
 26 27  1  0  0  0
 28104  1  0  0  0
 28105  1  0  0  0
 29106  1  0  0  0
 29107  1  0  0  0
 33 34  1  0  0  0
 33 66  1  0  0  0
 33 70  2  0  0  0
 34 36  1  0  0  0
 34 59  1  0  0  0
 34108  1  0  0  0
 35 44  2  0  0  0
 35 45  1  0  0  0
 35 68  1  0  0  0
 36 56  1  0  0  0
 36109  1  0  0  0
 37 39  1  0  0  0
 37 47  1  0  0  0
 37 66  1  0  0  0
 37110  1  0  0  0
 38 43  2  0  0  0
 38 46  1  0  0  0
 38 47  1  0  0  0
 39 64  1  0  0  0
 39 67  2  0  0  0
 40 52  1  0  0  0
 40 53  2  0  0  0
 40 58  1  0  0  0
 41111  1  0  0  0
 41112  1  0  0  0
 41113  1  0  0  0
 41 48  1  0  0  0
 42 43  1  0  0  0
 42 66  1  0  0  0
 42114  1  0  0  0
 42115  1  0  0  0
 43 44  1  0  0  0
 44116  1  0  0  0
 45 46  2  0  0  0
 45117  1  0  0  0
 46118  1  0  0  0
 47119  1  0  0  0
 47120  1  0  0  0
 48 56  1  0  0  0
 48 65  1  0  0  0
 48121  1  0  0  0
 49 50  1  0  0  0
 49 53  1  0  0  0
 49 64  1  0  0  0
 49122  1  0  0  0
 50 51  1  0  0  0
 50123  1  0  0  0
 50124  1  0  0  0
 51 52  1  0  0  0
 51125  1  0  0  0
 51126  1  0  0  0
 52127  1  0  0  0
 52128  1  0  0  0
 53 54  1  0  0  0
 54 55  2  0  0  0
 54129  1  0  0  0
 55 57  1  0  0  0
 55130  1  0  0  0
 56 69  2  0  0  0
 57 58  2  0  0  0
 57131  1  0  0  0
 58132  1  0  0  0
 59 60  1  0  0  0
 59 61  1  0  0  0
 59 62  1  0  0  0
 60133  1  0  0  0
 60134  1  0  0  0
 60135  1  0  0  0
 61136  1  0  0  0
 61137  1  0  0  0
 61138  1  0  0  0
 62139  1  0  0  0
 62140  1  0  0  0
 62141  1  0  0  0
 63 65  1  0  0  0
 63142  1  0  0  0
 63143  1  0  0  0
 63144  1  0  0  0
 64145  1  0  0  0
 65146  1  0  0  0
 68 82  1  0  0  0
 71 72  2  0  0  0
 71 74  1  0  0  0
 71147  1  0  0  0
 72 75  1  0  0  0
 72148  1  0  0  0
 73 75  2  0  0  0
 73 76  1  0  0  0
 73149  1  0  0  0
 74 76  2  0  0  0
 74 83  1  0  0  0
 75 84  1  0  0  0
 76 87  1  0  0  0
 77 78  2  0  0  0
 77150  1  0  0  0
 77151  1  0  0  0
 78 83  1  0  0  0
 78152  1  0  0  0
 79 81  1  0  0  0
 79 84  1  0  0  0
 79 86  2  0  0  0
 80 85  1  0  0  0
 80153  1  0  0  0
 80154  1  0  0  0
 80155  1  0  0  0
 81 82  1  0  0  0
 81156  1  0  0  0
 81157  1  0  0  0
 82158  1  0  0  0
 82159  1  0  0  0
 83 85  1  0  0  0
 83160  1  0  0  0
 84161  1  0  0  0
M  ISO  4   1 100  68 101  82 101  85 100
M  END
> <chiral flag>
0

> <version>
0

> <s_m_source_file>
/data/baiqing/PycharmProjects/Reinvent-master-3.2/result/LINK_invent/BTK/process_docking_weight1_custom_product_contain_oxygen_bond_distance_aromatic_linkinvent_7_9_3/rearranged_h_0094.sdf

> <i_m_source_file_index>
22

> <r_mmod_Potential_Energy-OPLS-2005>
123.692947387695

> <r_mmod_Stretch_Energy-OPLS-2005>
39.900074005127

> <r_mmod_Bend_Energy-OPLS-2005>
105.231895446777

> <r_mmod_Torsional_Energy-OPLS-2005>
314.191986083984

> <r_mmod_Improper_Torsional_Energy-OPLS-2005>
20.1840667724609

> <r_mmod_Van_der_Waal_Energy-OPLS-2005>
165.500091552734

> <r_mmod_Electrostatic_Energy-OPLS-2005>
-335.632263183594

> <r_mmod_Solvation_Energy-OPLS-2005>
-204.071136474609

> <b_mmod_Minimization_Converged-OPLS-2005>
0

> <r_mmod_RMS_Derivative-OPLS-2005>
2.50053906440735

$$$$
22
                    3D
 Structure written by MMmdl.
156165  0  0  1  0            999 V2000
  -30.5668  -14.7305   20.4848 C   0  0  0  0  0  0
  -30.4520  -12.4497   19.4599 C   0  0  0  0  0  0
  -29.5150  -12.5127   18.2311 C   0  0  0  0  0  0
  -28.0391  -12.3320   18.6435 C   0  0  0  0  0  0
  -27.6484  -13.2160   19.8564 C   0  0  2  0  0  0
  -28.6946  -13.1009   20.9876 C   0  0  0  0  0  0
  -25.2539  -13.8155   20.5666 C   0  0  0  0  0  0
  -24.1815  -13.0434   20.9216 C   0  0  0  0  0  0
  -24.6386  -11.6901   20.8750 C   0  0  0  0  0  0
  -23.9050  -10.4288   21.0407 C   0  0  0  0  0  0
  -24.3600   -9.4203   21.9180 C   0  0  0  0  0  0
  -23.6281   -8.2237   22.0748 C   0  0  0  0  0  0
  -22.4260   -8.0274   21.3543 C   0  0  0  0  0  0
  -21.9895   -9.0251   20.4650 C   0  0  0  0  0  0
  -22.7223  -10.2134   20.3058 C   0  0  0  0  0  0
  -21.6854   -6.0721   22.5275 C   0  0  0  0  0  0
  -21.4011   -6.5621   23.8210 C   0  0  0  0  0  0
  -21.3664   -5.6782   24.9175 C   0  0  0  0  0  0
  -21.6048   -4.3046   24.7229 C   0  0  0  0  0  0
  -21.8817   -3.8135   23.4351 C   0  0  0  0  0  0
  -21.9196   -4.6947   22.3404 C   0  0  0  0  0  0
  -22.7841  -13.5235   21.1874 C   0  0  0  0  0  0
  -22.1664   -4.2130   21.0983 F   0  0  0  0  0  0
  -21.5636   -3.4532   25.7745 F   0  0  0  0  0  0
  -29.9991  -13.4782   20.4214 N   0  0  0  0  0  0
  -26.2957  -12.9331   20.3275 N   0  0  0  0  0  0
  -25.9308  -11.6493   20.5738 N   0  0  0  0  0  0
  -22.0467  -12.8234   22.0429 N   0  0  0  0  0  0
  -25.4245  -15.1872   20.3997 N   0  0  0  0  0  0
  -31.7407  -14.9072   20.1416 O   0  0  0  0  0  0
  -21.6635   -6.8862   21.4237 O   0  0  0  0  0  0
  -22.3534  -14.5542   20.6717 O   0  0  0  0  0  0
  -24.6299  -31.8560   23.1995 C   0  0  0  0  0  0
  -25.9131  -32.4756   23.8334 C   0  0  1  0  0  0
  -27.2229  -27.2908   20.1214 C   0  0  0  0  0  0
  -25.5937  -33.8554   24.2265 N   0  0  0  0  0  0
  -23.4268  -30.4778   21.5423 C   0  0  2  0  0  0
  -24.8759  -28.9284   20.1086 C   0  0  0  0  0  0
  -22.7511  -29.4592   22.4920 C   0  0  0  0  0  0
  -18.0301  -28.1380   22.8484 C   0  0  0  0  0  0
  -24.1496  -36.7287   23.2637 C   0  0  0  0  0  0
  -25.9705  -30.7774   21.3756 C   0  0  0  0  0  0
  -26.0468  -29.4017   20.7179 C   0  0  0  0  0  0
  -27.2274  -28.5933   20.7169 C   0  0  0  0  0  0
  -26.0350  -26.8752   19.4897 C   0  0  0  0  0  0
  -24.8729  -27.6709   19.4838 C   0  0  0  0  0  0
  -23.6441  -29.8111   20.1579 C   0  0  0  0  0  0
  -25.4116  -36.3068   24.0329 C   0  0  1  0  0  0
  -20.5905  -28.3685   23.1275 C   0  0  2  0  0  0
  -20.6780  -26.9399   22.5415 C   0  0  0  0  0  0
  -19.5757  -26.6380   21.5211 C   0  0  0  0  0  0
  -18.1938  -26.7927   22.1619 C   0  0  0  0  0  0
  -19.1554  -28.8853   23.2876 C   0  0  0  0  0  0
  -18.9470  -30.1459   23.8886 C   0  0  0  0  0  0
  -17.6464  -30.6574   24.0560 C   0  0  0  0  0  0
  -25.9054  -34.9439   23.5100 C   0  0  0  0  0  0
  -16.5357  -29.9069   23.6322 C   0  0  0  0  0  0
  -16.7287  -28.6490   23.0340 C   0  0  0  0  0  0
  -26.4502  -31.6575   25.0717 C   0  0  0  0  0  0
  -25.3730  -31.3738   26.1449 C   0  0  0  0  0  0
  -27.0327  -30.2986   24.6191 C   0  0  0  0  0  0
  -27.6067  -32.4303   25.7481 C   0  0  0  0  0  0
  -27.5587  -37.1795   24.8456 C   0  0  0  0  0  0
  -21.4220  -29.3028   22.3663 N   0  0  0  0  0  0
  -26.4290  -37.3767   23.9412 N   0  0  0  0  0  0
  -24.6948  -31.0549   22.0955 N   0  0  0  0  0  0
  -23.4222  -28.8124   23.3003 O   0  0  0  0  0  0
  -28.2740  -26.3567   20.1558 O   0  0  0  0  0  0
  -26.5617  -34.8911   22.4664 O   0  0  0  0  0  0
  -23.5455  -32.1363   23.7312 O   0  0  0  0  0  0
  -28.3314  -19.3672   20.7166 C   0  0  0  0  0  0
  -28.4510  -17.9393   20.6967 C   0  0  0  0  0  0
  -30.8382  -18.1072   20.6675 C   0  0  0  0  0  0
  -29.4600  -20.2279   20.7411 C   0  0  0  0  0  0
  -29.6997  -17.2484   20.6835 C   0  0  0  0  0  0
  -30.7174  -19.5440   20.7073 C   0  0  0  0  0  0
  -28.3806  -23.9405   21.1224 C   0  0  0  0  0  0
  -28.1202  -25.3071   21.0862 C   0  0  0  0  0  0
  -28.0904  -23.1768   22.3958 C   0  0  0  0  0  0
  -28.9575  -22.8304   20.1787 C   0  0  0  0  0  0
  -29.0268  -21.9594   22.4116 C   0  0  0  0  0  0
  -29.3734  -21.6525   21.0274 N   0  0  0  0  0  0
  -31.8661  -20.3310   20.7814 N   0  0  0  0  0  0
  -29.6882  -15.7647   20.7578 N   0  0  0  0  0  0
  -31.4868  -12.6076   19.1513 H   0  0  0  0  0  0
  -30.4237  -11.4612   19.9210 H   0  0  0  0  0  0
  -29.7963  -11.7511   17.5027 H   0  0  0  0  0  0
  -29.6366  -13.4748   17.7309 H   0  0  0  0  0  0
  -27.8929  -11.2803   18.8934 H   0  0  0  0  0  0
  -27.3837  -12.5376   17.7964 H   0  0  0  0  0  0
  -27.6557  -14.2433   19.4923 H   0  0  0  0  0  0
  -28.7303  -12.0816   21.3760 H   0  0  0  0  0  0
  -28.4265  -13.7334   21.8353 H   0  0  0  0  0  0
  -25.2744   -9.5685   22.4752 H   0  0  0  0  0  0
  -23.9999   -7.4624   22.7461 H   0  0  0  0  0  0
  -21.0828   -8.8770   19.8958 H   0  0  0  0  0  0
  -22.3677  -10.9667   19.6168 H   0  0  0  0  0  0
  -21.1988   -7.6126   23.9702 H   0  0  0  0  0  0
  -21.1494   -6.0514   25.9078 H   0  0  0  0  0  0
  -22.0593   -2.7597   23.2860 H   0  0  0  0  0  0
  -22.4064  -11.9896   22.4839 H   0  0  0  0  0  0
  -21.1085  -13.1272   22.2609 H   0  0  0  0  0  0
  -24.6452  -15.8319   20.4757 H   0  0  0  0  0  0
  -26.2382  -15.6051   19.9694 H   0  0  0  0  0  0
  -26.7202  -32.5412   23.1081 H   0  0  0  0  0  0
  -25.0103  -33.9686   25.0425 H   0  0  0  0  0  0
  -22.7217  -31.2987   21.3969 H   0  0  0  0  0  0
  -23.3748  -35.9629   23.3299 H   0  0  0  0  0  0
  -24.3597  -36.8902   22.2054 H   0  0  0  0  0  0
  -23.7258  -37.6497   23.6652 H   0  0  0  0  0  0
  -26.1073  -31.5390   20.6066 H   0  0  0  0  0  0
  -26.8490  -30.8270   22.0077 H   0  0  0  0  0  0
  -28.1241  -28.9446   21.2077 H   0  0  0  0  0  0
  -26.0005  -25.8998   19.0252 H   0  0  0  0  0  0
  -23.9759  -27.3000   19.0074 H   0  0  0  0  0  0
  -23.7640  -30.5855   19.3992 H   0  0  0  0  0  0
  -22.7636  -29.2407   19.8561 H   0  0  0  0  0  0
  -25.1292  -36.1921   25.0820 H   0  0  0  0  0  0
  -21.0002  -28.3260   24.1395 H   0  0  0  0  0  0
  -20.5665  -26.2293   23.3621 H   0  0  0  0  0  0
  -21.6651  -26.7410   22.1218 H   0  0  0  0  0  0
  -19.6910  -25.6292   21.1237 H   0  0  0  0  0  0
  -19.6691  -27.3190   20.6739 H   0  0  0  0  0  0
  -17.4213  -26.6693   21.4014 H   0  0  0  0  0  0
  -18.0318  -26.0066   22.9008 H   0  0  0  0  0  0
  -19.7945  -30.7291   24.2239 H   0  0  0  0  0  0
  -17.5008  -31.6245   24.5176 H   0  0  0  0  0  0
  -15.5352  -30.2957   23.7647 H   0  0  0  0  0  0
  -15.8694  -28.0799   22.7047 H   0  0  0  0  0  0
  -24.5909  -30.7072   25.7798 H   0  0  0  0  0  0
  -24.8916  -32.2913   26.4844 H   0  0  0  0  0  0
  -25.8065  -30.8951   27.0241 H   0  0  0  0  0  0
  -26.2896  -29.6747   24.1211 H   0  0  0  0  0  0
  -27.3999  -29.7241   25.4705 H   0  0  0  0  0  0
  -27.8783  -30.4251   23.9426 H   0  0  0  0  0  0
  -27.2684  -33.3604   26.2061 H   0  0  0  0  0  0
  -28.3874  -32.6861   25.0304 H   0  0  0  0  0  0
  -28.0734  -31.8419   26.5394 H   0  0  0  0  0  0
  -28.2593  -38.0102   24.7513 H   0  0  0  0  0  0
  -28.1093  -36.2637   24.6255 H   0  0  0  0  0  0
  -27.2318  -37.1422   25.8861 H   0  0  0  0  0  0
  -20.9413  -29.8769   21.6877 H   0  0  0  0  0  0
  -26.0169  -38.2842   24.1411 H   0  0  0  0  0  0
  -27.3426  -19.7984   20.7779 H   0  0  0  0  0  0
  -27.5366  -17.3650   20.7248 H   0  0  0  0  0  0
  -31.8215  -17.6605   20.6713 H   0  0  0  0  0  0
  -27.6956  -25.7327   21.9862 H   0  0  0  0  0  0
  -27.0550  -22.8362   22.3512 H   0  0  0  0  0  0
  -28.1959  -23.7935   23.2894 H   0  0  0  0  0  0
  -29.7977  -23.2216   19.6033 H   0  0  0  0  0  0
  -28.1837  -22.5198   19.4744 H   0  0  0  0  0  0
  -28.5641  -21.1187   22.9321 H   0  0  0  0  0  0
  -29.9441  -22.2068   22.9488 H   0  0  0  0  0  0
  -32.6282  -19.9599   21.3379 H   0  0  0  0  0  0
  -31.6305  -21.2829   21.0530 H   0  0  0  0  0  0
  -28.7773  -15.3902   20.9716 H   0  0  0  0  0  0
  1 25  1  0  0  0
  1 30  2  0  0  0
  1 84  1  0  0  0
  2  3  1  0  0  0
  2 25  1  0  0  0
  2 85  1  0  0  0
  2 86  1  0  0  0
  3  4  1  0  0  0
  3 87  1  0  0  0
  3 88  1  0  0  0
  4  5  1  0  0  0
  4 89  1  0  0  0
  4 90  1  0  0  0
  5  6  1  0  0  0
  5 26  1  0  0  0
  5 91  1  0  0  0
  6 25  1  0  0  0
  6 92  1  0  0  0
  6 93  1  0  0  0
  7  8  2  0  0  0
  7 26  1  0  0  0
  7 29  1  0  0  0
  8  9  1  0  0  0
  8 22  1  0  0  0
  9 10  1  0  0  0
  9 27  2  0  0  0
 10 11  2  0  0  0
 10 15  1  0  0  0
 11 12  1  0  0  0
 11 94  1  0  0  0
 12 13  2  0  0  0
 12 95  1  0  0  0
 13 14  1  0  0  0
 13 31  1  0  0  0
 14 15  2  0  0  0
 14 96  1  0  0  0
 15 97  1  0  0  0
 16 17  2  0  0  0
 16 21  1  0  0  0
 16 31  1  0  0  0
 17 18  1  0  0  0
 17 98  1  0  0  0
 18 19  2  0  0  0
 18 99  1  0  0  0
 19 20  1  0  0  0
 19 24  1  0  0  0
 20 21  2  0  0  0
 20100  1  0  0  0
 21 23  1  0  0  0
 22 28  1  0  0  0
 22 32  2  0  0  0
 26 27  1  0  0  0
 28101  1  0  0  0
 28102  1  0  0  0
 29103  1  0  0  0
 29104  1  0  0  0
 33 34  1  0  0  0
 33 66  1  0  0  0
 33 70  2  0  0  0
 34 36  1  0  0  0
 34 59  1  0  0  0
 34105  1  0  0  0
 35 44  2  0  0  0
 35 45  1  0  0  0
 35 68  1  0  0  0
 36 56  1  0  0  0
 36106  1  0  0  0
 37 39  1  0  0  0
 37 47  1  0  0  0
 37 66  1  0  0  0
 37107  1  0  0  0
 38 43  2  0  0  0
 38 46  1  0  0  0
 38 47  1  0  0  0
 39 64  1  0  0  0
 39 67  2  0  0  0
 40 52  1  0  0  0
 40 53  2  0  0  0
 40 58  1  0  0  0
 41108  1  0  0  0
 41109  1  0  0  0
 41110  1  0  0  0
 41 48  1  0  0  0
 42 43  1  0  0  0
 42 66  1  0  0  0
 42111  1  0  0  0
 42112  1  0  0  0
 43 44  1  0  0  0
 44113  1  0  0  0
 45 46  2  0  0  0
 45114  1  0  0  0
 46115  1  0  0  0
 47116  1  0  0  0
 47117  1  0  0  0
 48 56  1  0  0  0
 48 65  1  0  0  0
 48118  1  0  0  0
 49 50  1  0  0  0
 49 53  1  0  0  0
 49 64  1  0  0  0
 49119  1  0  0  0
 50 51  1  0  0  0
 50120  1  0  0  0
 50121  1  0  0  0
 51 52  1  0  0  0
 51122  1  0  0  0
 51123  1  0  0  0
 52124  1  0  0  0
 52125  1  0  0  0
 53 54  1  0  0  0
 54 55  2  0  0  0
 54126  1  0  0  0
 55 57  1  0  0  0
 55127  1  0  0  0
 56 69  2  0  0  0
 57 58  2  0  0  0
 57128  1  0  0  0
 58129  1  0  0  0
 59 60  1  0  0  0
 59 61  1  0  0  0
 59 62  1  0  0  0
 60130  1  0  0  0
 60131  1  0  0  0
 60132  1  0  0  0
 61133  1  0  0  0
 61134  1  0  0  0
 61135  1  0  0  0
 62136  1  0  0  0
 62137  1  0  0  0
 62138  1  0  0  0
 63 65  1  0  0  0
 63139  1  0  0  0
 63140  1  0  0  0
 63141  1  0  0  0
 64142  1  0  0  0
 65143  1  0  0  0
 68 78  1  0  0  0
 71 72  2  0  0  0
 71 74  1  0  0  0
 71144  1  0  0  0
 72 75  1  0  0  0
 72145  1  0  0  0
 73 75  2  0  0  0
 73 76  1  0  0  0
 73146  1  0  0  0
 74 76  2  0  0  0
 74 82  1  0  0  0
 75 84  1  0  0  0
 76 83  1  0  0  0
 77 78  2  0  0  0
 77 79  1  0  0  0
 77 80  1  0  0  0
 78147  1  0  0  0
 79 81  1  0  0  0
 79148  1  0  0  0
 79149  1  0  0  0
 80 82  1  0  0  0
 80150  1  0  0  0
 80151  1  0  0  0
 81 82  1  0  0  0
 81152  1  0  0  0
 81153  1  0  0  0
 83154  1  0  0  0
 83155  1  0  0  0
 84156  1  0  0  0
M  ISO  4   1 100  68 101  78 101  84 100
M  END
> <chiral flag>
0

> <version>
0

> <s_m_source_file>
/data/baiqing/PycharmProjects/Reinvent-master-3.2/result/LINK_invent/BTK/process_docking_weight1_custom_product_contain_oxygen_bond_distance_aromatic_linkinvent_7_9_3/rearranged_h_0094.sdf

> <i_m_source_file_index>
23

> <r_mmod_Potential_Energy-OPLS-2005>
213.25862121582

> <r_mmod_Stretch_Energy-OPLS-2005>
95.9671249389648

> <r_mmod_Bend_Energy-OPLS-2005>
238.227554321289

> <r_mmod_Torsional_Energy-OPLS-2005>
282.329956054688

> <r_mmod_Improper_Torsional_Energy-OPLS-2005>
14.3499193191528

> <r_mmod_Van_der_Waal_Energy-OPLS-2005>
132.625930786133

> <r_mmod_Electrostatic_Energy-OPLS-2005>
-405.390258789062

> <r_mmod_Solvation_Energy-OPLS-2005>
-224.701232910156

> <b_mmod_Minimization_Converged-OPLS-2005>
0

> <r_mmod_RMS_Derivative-OPLS-2005>
1.24459683895111

$$$$
23
                    3D
 Structure written by MMmdl.
160169  0  0  1  0            999 V2000
  -30.7315  -14.4443   20.6911 C   0  0  0  0  0  0
  -30.4196  -12.3360   19.4208 C   0  0  0  0  0  0
  -29.4889  -12.5321   18.2071 C   0  0  0  0  0  0
  -28.0105  -12.3856   18.6146 C   0  0  0  0  0  0
  -27.6596  -13.2093   19.8813 C   0  0  2  0  0  0
  -28.6959  -12.9757   21.0010 C   0  0  0  0  0  0
  -25.2567  -13.8167   20.5684 C   0  0  0  0  0  0
  -24.1819  -13.0443   20.9178 C   0  0  0  0  0  0
  -24.6384  -11.6910   20.8720 C   0  0  0  0  0  0
  -23.9072  -10.4282   21.0384 C   0  0  0  0  0  0
  -24.3622   -9.4218   21.9199 C   0  0  0  0  0  0
  -23.6294   -8.2255   22.0780 C   0  0  0  0  0  0
  -22.4275   -8.0283   21.3554 C   0  0  0  0  0  0
  -21.9920   -9.0244   20.4633 C   0  0  0  0  0  0
  -22.7239  -10.2126   20.3041 C   0  0  0  0  0  0
  -21.6847   -6.0734   22.5278 C   0  0  0  0  0  0
  -21.4011   -6.5631   23.8211 C   0  0  0  0  0  0
  -21.3649   -5.6795   24.9177 C   0  0  0  0  0  0
  -21.6029   -4.3061   24.7223 C   0  0  0  0  0  0
  -21.8818   -3.8159   23.4347 C   0  0  0  0  0  0
  -21.9197   -4.6971   22.3395 C   0  0  0  0  0  0
  -22.7832  -13.5236   21.1831 C   0  0  0  0  0  0
  -22.1653   -4.2168   21.0968 F   0  0  0  0  0  0
  -21.5643   -3.4545   25.7745 F   0  0  0  0  0  0
  -30.0293  -13.2987   20.4640 N   0  0  0  0  0  0
  -26.3001  -12.9333   20.3388 N   0  0  0  0  0  0
  -25.9312  -11.6483   20.5775 N   0  0  0  0  0  0
  -22.0442  -12.8191   22.0334 N   0  0  0  0  0  0
  -25.4275  -15.1896   20.4121 N   0  0  0  0  0  0
  -31.8001  -14.6889   20.1202 O   0  0  0  0  0  0
  -21.6638   -6.8879   21.4249 O   0  0  0  0  0  0
  -22.3520  -14.5555   20.6707 O   0  0  0  0  0  0
  -24.6143  -31.8670   23.2125 C   0  0  0  0  0  0
  -25.9058  -32.4815   23.8397 C   0  0  1  0  0  0
  -27.2347  -27.4444   20.1044 C   0  0  0  0  0  0
  -25.5944  -33.8613   24.2334 N   0  0  0  0  0  0
  -23.3991  -30.4895   21.5537 C   0  0  2  0  0  0
  -24.8473  -28.9556   20.1181 C   0  0  0  0  0  0
  -22.7376  -29.4648   22.5032 C   0  0  0  0  0  0
  -18.0250  -28.1413   22.8501 C   0  0  0  0  0  0
  -24.1473  -36.7259   23.2632 C   0  0  0  0  0  0
  -25.9248  -30.8369   21.3632 C   0  0  0  0  0  0
  -26.0057  -29.4701   20.7173 C   0  0  0  0  0  0
  -27.2043  -28.7205   20.7125 C   0  0  0  0  0  0
  -26.0652  -26.9417   19.5016 C   0  0  0  0  0  0
  -24.8724  -27.6894   19.5082 C   0  0  0  0  0  0
  -23.6047  -29.8167   20.1693 C   0  0  0  0  0  0
  -25.4112  -36.3084   24.0318 C   0  0  1  0  0  0
  -20.5847  -28.3656   23.1352 C   0  0  2  0  0  0
  -20.6756  -26.9400   22.5447 C   0  0  0  0  0  0
  -19.5734  -26.6425   21.5241 C   0  0  0  0  0  0
  -18.1885  -26.7983   22.1581 C   0  0  0  0  0  0
  -19.1515  -28.8857   23.2925 C   0  0  0  0  0  0
  -18.9433  -30.1476   23.8924 C   0  0  0  0  0  0
  -17.6440  -30.6605   24.0603 C   0  0  0  0  0  0
  -25.9047  -34.9463   23.5109 C   0  0  0  0  0  0
  -16.5333  -29.9102   23.6376 C   0  0  0  0  0  0
  -16.7248  -28.6537   23.0360 C   0  0  0  0  0  0
  -26.4486  -31.6581   25.0720 C   0  0  0  0  0  0
  -25.3742  -31.3652   26.1447 C   0  0  0  0  0  0
  -27.0333  -30.3027   24.6115 C   0  0  0  0  0  0
  -27.6083  -32.4278   25.7458 C   0  0  0  0  0  0
  -27.5589  -37.1769   24.8441 C   0  0  0  0  0  0
  -21.4106  -29.3021   22.3738 N   0  0  0  0  0  0
  -26.4264  -37.3803   23.9442 N   0  0  0  0  0  0
  -24.6648  -31.0770   22.1034 N   0  0  0  0  0  0
  -23.4133  -28.8224   23.3113 O   0  0  0  0  0  0
  -28.3730  -26.6753   20.0683 O   0  0  0  0  0  0
  -26.5595  -34.8915   22.4660 O   0  0  0  0  0  0
  -23.5346  -32.1423   23.7540 O   0  0  0  0  0  0
  -29.3526  -18.3208   23.0316 C   0  0  0  0  0  0
  -28.8960  -19.6621   22.9600 C   0  0  0  0  0  0
  -30.2693  -20.0217   20.9968 C   0  0  0  0  0  0
  -30.2851  -17.8213   22.0911 C   0  0  0  0  0  0
  -29.3484  -20.5359   21.9430 C   0  0  0  0  0  0
  -30.7337  -18.6889   21.0716 C   0  0  0  0  0  0
  -28.5836  -24.7764   21.5329 C   0  0  0  0  0  0
  -28.7441  -26.0896   21.2510 C   0  0  0  0  0  0
  -28.9468  -24.1887   22.8919 C   0  0  0  0  0  0
  -27.9491  -23.7810   20.5717 C   0  0  0  0  0  0
  -29.5857  -22.7776   22.8235 C   0  0  0  0  0  0
  -28.6785  -22.4236   20.5519 C   0  0  0  0  0  0
  -30.9012  -16.4199   22.2429 C   0  0  0  0  0  0
  -28.8882  -21.8776   21.8962 N   0  0  0  0  0  0
  -30.2035  -15.2925   21.5974 N   0  0  0  0  0  0
  -31.6439  -18.2582   20.1666 F   0  0  0  0  0  0
  -31.4618  -12.4500   19.1189 H   0  0  0  0  0  0
  -30.3375  -11.3194   19.8076 H   0  0  0  0  0  0
  -29.7345  -11.8134   17.4243 H   0  0  0  0  0  0
  -29.6506  -13.5210   17.7763 H   0  0  0  0  0  0
  -27.8135  -11.3279   18.7936 H   0  0  0  0  0  0
  -27.3658  -12.6796   17.7849 H   0  0  0  0  0  0
  -27.7084  -14.2606   19.5981 H   0  0  0  0  0  0
  -28.6789  -11.9297   21.3133 H   0  0  0  0  0  0
  -28.4346  -13.5461   21.8926 H   0  0  0  0  0  0
  -25.2766   -9.5704   22.4779 H   0  0  0  0  0  0
  -24.0002   -7.4646   22.7520 H   0  0  0  0  0  0
  -21.0870   -8.8735   19.8919 H   0  0  0  0  0  0
  -22.3715  -10.9654   19.6135 H   0  0  0  0  0  0
  -21.1984   -7.6130   23.9721 H   0  0  0  0  0  0
  -21.1466   -6.0523   25.9077 H   0  0  0  0  0  0
  -22.0606   -2.7635   23.2847 H   0  0  0  0  0  0
  -22.4029  -11.9827   22.4677 H   0  0  0  0  0  0
  -21.1045  -13.1196   22.2505 H   0  0  0  0  0  0
  -24.6648  -15.8495   20.5214 H   0  0  0  0  0  0
  -26.2884  -15.6288   20.1116 H   0  0  0  0  0  0
  -26.7132  -32.5515   23.1164 H   0  0  0  0  0  0
  -25.0141  -33.9792   25.0513 H   0  0  0  0  0  0
  -22.6890  -31.3074   21.4149 H   0  0  0  0  0  0
  -23.3804  -35.9508   23.3168 H   0  0  0  0  0  0
  -24.3602  -36.9033   22.2076 H   0  0  0  0  0  0
  -23.7108  -37.6366   23.6745 H   0  0  0  0  0  0
  -26.0298  -31.6033   20.5949 H   0  0  0  0  0  0
  -26.8139  -30.8936   21.9778 H   0  0  0  0  0  0
  -28.1012  -29.1159   21.1677 H   0  0  0  0  0  0
  -26.0762  -25.9669   19.0363 H   0  0  0  0  0  0
  -23.9814  -27.2870   19.0447 H   0  0  0  0  0  0
  -23.6950  -30.5871   19.4018 H   0  0  0  0  0  0
  -22.7312  -29.2259   19.8867 H   0  0  0  0  0  0
  -25.1288  -36.1913   25.0800 H   0  0  0  0  0  0
  -20.9922  -28.3247   24.1480 H   0  0  0  0  0  0
  -20.5667  -26.2270   23.3639 H   0  0  0  0  0  0
  -21.6632  -26.7448   22.1252 H   0  0  0  0  0  0
  -19.6881  -25.6336   21.1272 H   0  0  0  0  0  0
  -19.6731  -27.3251   20.6787 H   0  0  0  0  0  0
  -17.4202  -26.6841   21.3919 H   0  0  0  0  0  0
  -18.0162  -26.0095   22.8912 H   0  0  0  0  0  0
  -19.7907  -30.7323   24.2269 H   0  0  0  0  0  0
  -17.4973  -31.6286   24.5194 H   0  0  0  0  0  0
  -15.5328  -30.3001   23.7696 H   0  0  0  0  0  0
  -15.8649  -28.0873   22.7046 H   0  0  0  0  0  0
  -24.6036  -30.6856   25.7761 H   0  0  0  0  0  0
  -24.8780  -32.2769   26.4776 H   0  0  0  0  0  0
  -25.8112  -30.8928   27.0255 H   0  0  0  0  0  0
  -26.2880  -29.6750   24.1212 H   0  0  0  0  0  0
  -27.4137  -29.7307   25.4583 H   0  0  0  0  0  0
  -27.8692  -30.4337   23.9244 H   0  0  0  0  0  0
  -27.2798  -33.3660   26.1930 H   0  0  0  0  0  0
  -28.3949  -32.6675   25.0293 H   0  0  0  0  0  0
  -28.0669  -31.8435   26.5443 H   0  0  0  0  0  0
  -28.2510  -38.0157   24.7646 H   0  0  0  0  0  0
  -28.1190  -36.2704   24.6071 H   0  0  0  0  0  0
  -27.2338  -37.1196   25.8844 H   0  0  0  0  0  0
  -20.9257  -29.8700   21.6925 H   0  0  0  0  0  0
  -26.0120  -38.2830   24.1611 H   0  0  0  0  0  0
  -29.0021  -17.6838   23.8326 H   0  0  0  0  0  0
  -28.1893  -20.0177   23.6983 H   0  0  0  0  0  0
  -30.6611  -20.6419   20.2068 H   0  0  0  0  0  0
  -29.1655  -26.8077   21.9407 H   0  0  0  0  0  0
  -28.0311  -24.1462   23.4825 H   0  0  0  0  0  0
  -29.6110  -24.8710   23.4264 H   0  0  0  0  0  0
  -27.9196  -24.1930   19.5632 H   0  0  0  0  0  0
  -26.9122  -23.6382   20.8733 H   0  0  0  0  0  0
  -29.6123  -22.3472   23.8272 H   0  0  0  0  0  0
  -30.6256  -22.8709   22.5092 H   0  0  0  0  0  0
  -29.6408  -22.5573   20.0561 H   0  0  0  0  0  0
  -28.1110  -21.7103   19.9511 H   0  0  0  0  0  0
  -30.9689  -16.1927   23.3082 H   0  0  0  0  0  0
  -31.9392  -16.4728   21.9130 H   0  0  0  0  0  0
  -29.3113  -15.0309   21.9886 H   0  0  0  0  0  0
  1 25  1  0  0  0
  1 30  2  0  0  0
  1 85  1  0  0  0
  2  3  1  0  0  0
  2 25  1  0  0  0
  2 87  1  0  0  0
  2 88  1  0  0  0
  3  4  1  0  0  0
  3 89  1  0  0  0
  3 90  1  0  0  0
  4  5  1  0  0  0
  4 91  1  0  0  0
  4 92  1  0  0  0
  5  6  1  0  0  0
  5 26  1  0  0  0
  5 93  1  0  0  0
  6 25  1  0  0  0
  6 94  1  0  0  0
  6 95  1  0  0  0
  7  8  2  0  0  0
  7 26  1  0  0  0
  7 29  1  0  0  0
  8  9  1  0  0  0
  8 22  1  0  0  0
  9 10  1  0  0  0
  9 27  2  0  0  0
 10 11  2  0  0  0
 10 15  1  0  0  0
 11 12  1  0  0  0
 11 96  1  0  0  0
 12 13  2  0  0  0
 12 97  1  0  0  0
 13 14  1  0  0  0
 13 31  1  0  0  0
 14 15  2  0  0  0
 14 98  1  0  0  0
 15 99  1  0  0  0
 16 17  2  0  0  0
 16 21  1  0  0  0
 16 31  1  0  0  0
 17 18  1  0  0  0
 17100  1  0  0  0
 18 19  2  0  0  0
 18101  1  0  0  0
 19 20  1  0  0  0
 19 24  1  0  0  0
 20 21  2  0  0  0
 20102  1  0  0  0
 21 23  1  0  0  0
 22 28  1  0  0  0
 22 32  2  0  0  0
 26 27  1  0  0  0
 28103  1  0  0  0
 28104  1  0  0  0
 29105  1  0  0  0
 29106  1  0  0  0
 33 34  1  0  0  0
 33 66  1  0  0  0
 33 70  2  0  0  0
 34 36  1  0  0  0
 34 59  1  0  0  0
 34107  1  0  0  0
 35 44  2  0  0  0
 35 45  1  0  0  0
 35 68  1  0  0  0
 36 56  1  0  0  0
 36108  1  0  0  0
 37 39  1  0  0  0
 37 47  1  0  0  0
 37 66  1  0  0  0
 37109  1  0  0  0
 38 43  2  0  0  0
 38 46  1  0  0  0
 38 47  1  0  0  0
 39 64  1  0  0  0
 39 67  2  0  0  0
 40 52  1  0  0  0
 40 53  2  0  0  0
 40 58  1  0  0  0
 41110  1  0  0  0
 41111  1  0  0  0
 41112  1  0  0  0
 41 48  1  0  0  0
 42 43  1  0  0  0
 42 66  1  0  0  0
 42113  1  0  0  0
 42114  1  0  0  0
 43 44  1  0  0  0
 44115  1  0  0  0
 45 46  2  0  0  0
 45116  1  0  0  0
 46117  1  0  0  0
 47118  1  0  0  0
 47119  1  0  0  0
 48 56  1  0  0  0
 48 65  1  0  0  0
 48120  1  0  0  0
 49 50  1  0  0  0
 49 53  1  0  0  0
 49 64  1  0  0  0
 49121  1  0  0  0
 50 51  1  0  0  0
 50122  1  0  0  0
 50123  1  0  0  0
 51 52  1  0  0  0
 51124  1  0  0  0
 51125  1  0  0  0
 52126  1  0  0  0
 52127  1  0  0  0
 53 54  1  0  0  0
 54 55  2  0  0  0
 54128  1  0  0  0
 55 57  1  0  0  0
 55129  1  0  0  0
 56 69  2  0  0  0
 57 58  2  0  0  0
 57130  1  0  0  0
 58131  1  0  0  0
 59 60  1  0  0  0
 59 61  1  0  0  0
 59 62  1  0  0  0
 60132  1  0  0  0
 60133  1  0  0  0
 60134  1  0  0  0
 61135  1  0  0  0
 61136  1  0  0  0
 61137  1  0  0  0
 62138  1  0  0  0
 62139  1  0  0  0
 62140  1  0  0  0
 63 65  1  0  0  0
 63141  1  0  0  0
 63142  1  0  0  0
 63143  1  0  0  0
 64144  1  0  0  0
 65145  1  0  0  0
 68 78  1  0  0  0
 71 72  2  0  0  0
 71 74  1  0  0  0
 71146  1  0  0  0
 72 75  1  0  0  0
 72147  1  0  0  0
 73 75  2  0  0  0
 73 76  1  0  0  0
 73148  1  0  0  0
 74 76  2  0  0  0
 74 83  1  0  0  0
 75 84  1  0  0  0
 76 86  1  0  0  0
 77 78  2  0  0  0
 77 79  1  0  0  0
 77 80  1  0  0  0
 78149  1  0  0  0
 79 81  1  0  0  0
 79150  1  0  0  0
 79151  1  0  0  0
 80 82  1  0  0  0
 80152  1  0  0  0
 80153  1  0  0  0
 81 84  1  0  0  0
 81154  1  0  0  0
 81155  1  0  0  0
 82 84  1  0  0  0
 82156  1  0  0  0
 82157  1  0  0  0
 83 85  1  0  0  0
 83158  1  0  0  0
 83159  1  0  0  0
 85160  1  0  0  0
M  ISO  4   1 100  68 101  78 101  85 100
M  END
> <chiral flag>
0

> <version>
0

> <s_m_source_file>
/data/baiqing/PycharmProjects/Reinvent-master-3.2/result/LINK_invent/BTK/process_docking_weight1_custom_product_contain_oxygen_bond_distance_aromatic_linkinvent_7_9_3/rearranged_h_0094.sdf

> <i_m_source_file_index>
24

> <r_mmod_Potential_Energy-OPLS-2005>
-57.7088203430176

> <r_mmod_Stretch_Energy-OPLS-2005>
38.886100769043

> <r_mmod_Bend_Energy-OPLS-2005>
95.1743698120117

> <r_mmod_Torsional_Energy-OPLS-2005>
249.322235107422

> <r_mmod_Improper_Torsional_Energy-OPLS-2005>
6.3768835067749

> <r_mmod_Van_der_Waal_Energy-OPLS-2005>
152.110321044922

> <r_mmod_Electrostatic_Energy-OPLS-2005>
-390.096893310547

> <r_mmod_Solvation_Energy-OPLS-2005>
-219.739227294922

> <b_mmod_Minimization_Converged-OPLS-2005>
0

> <r_mmod_RMS_Derivative-OPLS-2005>
3.25727391242981

$$$$
24
                    3D
 Structure written by MMmdl.
152160  0  0  1  0            999 V2000
  -30.5171  -14.9223   20.4360 C   0  0  0  0  0  0
  -30.4520  -12.5703   19.4897 C   0  0  0  0  0  0
  -29.5266  -12.5391   18.2496 C   0  0  0  0  0  0
  -28.0565  -12.3240   18.6615 C   0  0  0  0  0  0
  -27.6363  -13.2399   19.8408 C   0  0  2  0  0  0
  -28.6799  -13.2263   20.9797 C   0  0  0  0  0  0
  -25.2494  -13.8208   20.5690 C   0  0  0  0  0  0
  -24.1794  -13.0447   20.9215 C   0  0  0  0  0  0
  -24.6388  -11.6930   20.8728 C   0  0  0  0  0  0
  -23.9060  -10.4304   21.0395 C   0  0  0  0  0  0
  -24.3604   -9.4225   21.9181 C   0  0  0  0  0  0
  -23.6274   -8.2263   22.0763 C   0  0  0  0  0  0
  -22.4262   -8.0289   21.3547 C   0  0  0  0  0  0
  -21.9887   -9.0262   20.4656 C   0  0  0  0  0  0
  -22.7220  -10.2140   20.3057 C   0  0  0  0  0  0
  -21.6858   -6.0721   22.5267 C   0  0  0  0  0  0
  -21.4019   -6.5624   23.8198 C   0  0  0  0  0  0
  -21.3657   -5.6782   24.9162 C   0  0  0  0  0  0
  -21.6045   -4.3043   24.7223 C   0  0  0  0  0  0
  -21.8820   -3.8131   23.4342 C   0  0  0  0  0  0
  -21.9193   -4.6946   22.3394 C   0  0  0  0  0  0
  -22.7814  -13.5243   21.1866 C   0  0  0  0  0  0
  -22.1663   -4.2129   21.0972 F   0  0  0  0  0  0
  -21.5627   -3.4534   25.7739 F   0  0  0  0  0  0
  -29.9661  -13.6437   20.4000 N   0  0  0  0  0  0
  -26.2908  -12.9414   20.3207 N   0  0  0  0  0  0
  -25.9315  -11.6554   20.5689 N   0  0  0  0  0  0
  -22.0427  -12.8262   22.0414 N   0  0  0  0  0  0
  -25.4177  -15.1939   20.4103 N   0  0  0  0  0  0
  -31.7032  -15.0559   20.1129 O   0  0  0  0  0  0
  -21.6642   -6.8870   21.4235 O   0  0  0  0  0  0
  -22.3522  -14.5544   20.6697 O   0  0  0  0  0  0
  -24.6443  -31.8445   23.1907 C   0  0  0  0  0  0
  -25.9226  -32.4694   23.8288 C   0  0  1  0  0  0
  -27.2184  -27.1380   20.1482 C   0  0  0  0  0  0
  -25.5992  -33.8497   24.2222 N   0  0  0  0  0  0
  -23.4468  -30.4646   21.5375 C   0  0  2  0  0  0
  -24.8975  -28.8972   20.1107 C   0  0  0  0  0  0
  -22.7572  -29.4534   22.4878 C   0  0  0  0  0  0
  -18.0313  -28.1374   22.8486 C   0  0  0  0  0  0
  -24.1490  -36.7239   23.2636 C   0  0  0  0  0  0
  -26.0030  -30.7171   21.3907 C   0  0  0  0  0  0
  -26.0751  -29.3290   20.7340 C   0  0  0  0  0  0
  -27.2354  -28.4653   20.7408 C   0  0  0  0  0  0
  -26.0160  -26.8169   19.4762 C   0  0  0  0  0  0
  -24.8818  -27.6542   19.4654 C   0  0  0  0  0  0
  -23.6734  -29.7975   20.1554 C   0  0  0  0  0  0
  -25.4121  -36.3023   24.0318 C   0  0  1  0  0  0
  -20.5927  -28.3696   23.1244 C   0  0  2  0  0  0
  -20.6794  -26.9401   22.5401 C   0  0  0  0  0  0
  -19.5755  -26.6365   21.5216 C   0  0  0  0  0  0
  -18.1944  -26.7909   22.1631 C   0  0  0  0  0  0
  -19.1573  -28.8855   23.2849 C   0  0  0  0  0  0
  -18.9483  -30.1457   23.8855 C   0  0  0  0  0  0
  -17.6478  -30.6571   24.0554 C   0  0  0  0  0  0
  -25.9079  -34.9402   23.5075 C   0  0  0  0  0  0
  -16.5369  -29.9055   23.6333 C   0  0  0  0  0  0
  -16.7302  -28.6479   23.0349 C   0  0  0  0  0  0
  -26.4555  -31.6535   25.0707 C   0  0  0  0  0  0
  -25.3753  -31.3722   26.1409 C   0  0  0  0  0  0
  -27.0420  -30.2933   24.6263 C   0  0  0  0  0  0
  -27.6094  -32.4292   25.7497 C   0  0  0  0  0  0
  -27.5576  -37.1776   24.8469 C   0  0  0  0  0  0
  -21.4271  -29.3030   22.3620 N   0  0  0  0  0  0
  -26.4282  -37.3737   23.9416 N   0  0  0  0  0  0
  -24.7175  -31.0300   22.0948 N   0  0  0  0  0  0
  -23.4230  -28.8079   23.3018 O   0  0  0  0  0  0
  -28.2612  -26.1389   20.2145 O   0  0  0  0  0  0
  -26.5643  -34.8901   22.4638 O   0  0  0  0  0  0
  -23.5564  -32.1339   23.7123 O   0  0  0  0  0  0
  -30.4998  -18.5344   20.1306 C   0  0  0  0  0  0
  -30.2184  -19.9741   20.0783 C   0  0  0  0  0  0
  -28.3552  -18.1689   21.0376 C   0  0  0  0  0  0
  -29.5658  -17.5413   20.6035 C   0  0  0  0  0  0
  -28.9785  -20.5796   20.5054 C   0  0  0  0  0  0
  -28.0716  -19.5948   21.0173 C   0  0  0  0  0  0
  -28.9402  -23.3555   20.2736 C   0  0  0  0  0  0
  -26.0460  -19.2801   22.2961 C   0  0  0  0  0  0
  -27.8822  -24.6275   20.1619 C   0  0  0  0  0  0
  -28.4762  -22.0273   20.4336 N   0  0  0  0  0  0
  -29.6463  -16.0096   20.6877 N   0  0  0  0  0  0
  -30.1498  -23.5854   20.1945 O   0  0  0  0  0  0
  -26.8831  -20.1110   21.4978 O   0  0  0  0  0  0
  -31.4836  -12.7392   19.1817 H   0  0  0  0  0  0
  -30.4456  -11.6063   19.9999 H   0  0  0  0  0  0
  -29.8410  -11.7551   17.5588 H   0  0  0  0  0  0
  -29.6171  -13.4800   17.7047 H   0  0  0  0  0  0
  -27.9426  -11.2770   18.9470 H   0  0  0  0  0  0
  -27.3985  -12.4783   17.8059 H   0  0  0  0  0  0
  -27.6091  -14.2502   19.4312 H   0  0  0  0  0  0
  -28.7553  -12.2340   21.4270 H   0  0  0  0  0  0
  -28.3766  -13.8982   21.7834 H   0  0  0  0  0  0
  -25.2741   -9.5706   22.4761 H   0  0  0  0  0  0
  -23.9971   -7.4665   22.7503 H   0  0  0  0  0  0
  -21.0802   -8.8780   19.8979 H   0  0  0  0  0  0
  -22.3659  -10.9673   19.6172 H   0  0  0  0  0  0
  -21.2015   -7.6132   23.9687 H   0  0  0  0  0  0
  -21.1477   -6.0518   25.9058 H   0  0  0  0  0  0
  -22.0597   -2.7596   23.2855 H   0  0  0  0  0  0
  -22.3995  -11.9925   22.4843 H   0  0  0  0  0  0
  -21.1051  -13.1334   22.2580 H   0  0  0  0  0  0
  -24.6387  -15.8359   20.5053 H   0  0  0  0  0  0
  -26.2333  -15.6225   19.9945 H   0  0  0  0  0  0
  -26.7281  -32.5308   23.1007 H   0  0  0  0  0  0
  -25.0171  -33.9619   25.0391 H   0  0  0  0  0  0
  -22.7485  -31.2902   21.3864 H   0  0  0  0  0  0
  -23.3759  -35.9564   23.3294 H   0  0  0  0  0  0
  -24.3577  -36.8867   22.2050 H   0  0  0  0  0  0
  -23.7245  -37.6438   23.6667 H   0  0  0  0  0  0
  -26.1565  -31.4703   20.6168 H   0  0  0  0  0  0
  -26.8740  -30.7701   22.0315 H   0  0  0  0  0  0
  -28.1260  -28.7879   21.2607 H   0  0  0  0  0  0
  -25.9059  -25.8808   18.9537 H   0  0  0  0  0  0
  -23.9884  -27.3229   18.9550 H   0  0  0  0  0  0
  -23.8075  -30.5744   19.4014 H   0  0  0  0  0  0
  -22.7880  -29.2398   19.8452 H   0  0  0  0  0  0
  -25.1300  -36.1847   25.0808 H   0  0  0  0  0  0
  -21.0025  -28.3274   24.1362 H   0  0  0  0  0  0
  -20.5690  -26.2306   23.3615 H   0  0  0  0  0  0
  -21.6656  -26.7395   22.1194 H   0  0  0  0  0  0
  -19.6908  -25.6276   21.1239 H   0  0  0  0  0  0
  -19.6673  -27.3180   20.6749 H   0  0  0  0  0  0
  -17.4213  -26.6668   21.4038 H   0  0  0  0  0  0
  -18.0331  -26.0050   22.9023 H   0  0  0  0  0  0
  -19.7958  -30.7297   24.2197 H   0  0  0  0  0  0
  -17.5022  -31.6249   24.5149 H   0  0  0  0  0  0
  -15.5365  -30.2934   23.7666 H   0  0  0  0  0  0
  -15.8709  -28.0778   22.7066 H   0  0  0  0  0  0
  -24.5935  -30.7061   25.7738 H   0  0  0  0  0  0
  -24.8945  -32.2903   26.4789 H   0  0  0  0  0  0
  -25.8049  -30.8928   27.0212 H   0  0  0  0  0  0
  -26.3032  -29.6654   24.1266 H   0  0  0  0  0  0
  -27.4049  -29.7218   25.4817 H   0  0  0  0  0  0
  -27.8934  -30.4175   23.9569 H   0  0  0  0  0  0
  -27.2691  -33.3602   26.2038 H   0  0  0  0  0  0
  -28.3930  -32.6827   25.0346 H   0  0  0  0  0  0
  -28.0729  -31.8435   26.5445 H   0  0  0  0  0  0
  -28.2577  -38.0085   24.7532 H   0  0  0  0  0  0
  -28.1089  -36.2625   24.6271 H   0  0  0  0  0  0
  -27.2302  -37.1390   25.8871 H   0  0  0  0  0  0
  -20.9477  -29.8755   21.6808 H   0  0  0  0  0  0
  -26.0146  -38.2804   24.1421 H   0  0  0  0  0  0
  -31.4625  -18.1965   19.7748 H   0  0  0  0  0  0
  -30.9856  -20.6221   19.6790 H   0  0  0  0  0  0
  -27.5930  -17.4977   21.4000 H   0  0  0  0  0  0
  -25.4001  -19.9122   22.9060 H   0  0  0  0  0  0
  -26.6019  -18.6467   22.9901 H   0  0  0  0  0  0
  -25.4068  -18.6543   21.6730 H   0  0  0  0  0  0
  -27.1225  -24.4648   20.9269 H   0  0  0  0  0  0
  -27.3915  -24.4452   19.2081 H   0  0  0  0  0  0
  -27.4736  -22.0431   20.5729 H   0  0  0  0  0  0
  -28.7618  -15.6196   20.9720 H   0  0  0  0  0  0
  1 25  1  0  0  0
  1 30  2  0  0  0
  1 81  1  0  0  0
  2  3  1  0  0  0
  2 25  1  0  0  0
  2 84  1  0  0  0
  2 85  1  0  0  0
  3  4  1  0  0  0
  3 86  1  0  0  0
  3 87  1  0  0  0
  4  5  1  0  0  0
  4 88  1  0  0  0
  4 89  1  0  0  0
  5  6  1  0  0  0
  5 26  1  0  0  0
  5 90  1  0  0  0
  6 25  1  0  0  0
  6 91  1  0  0  0
  6 92  1  0  0  0
  7  8  2  0  0  0
  7 26  1  0  0  0
  7 29  1  0  0  0
  8  9  1  0  0  0
  8 22  1  0  0  0
  9 10  1  0  0  0
  9 27  2  0  0  0
 10 11  2  0  0  0
 10 15  1  0  0  0
 11 12  1  0  0  0
 11 93  1  0  0  0
 12 13  2  0  0  0
 12 94  1  0  0  0
 13 14  1  0  0  0
 13 31  1  0  0  0
 14 15  2  0  0  0
 14 95  1  0  0  0
 15 96  1  0  0  0
 16 17  2  0  0  0
 16 21  1  0  0  0
 16 31  1  0  0  0
 17 18  1  0  0  0
 17 97  1  0  0  0
 18 19  2  0  0  0
 18 98  1  0  0  0
 19 20  1  0  0  0
 19 24  1  0  0  0
 20 21  2  0  0  0
 20 99  1  0  0  0
 21 23  1  0  0  0
 22 28  1  0  0  0
 22 32  2  0  0  0
 26 27  1  0  0  0
 28100  1  0  0  0
 28101  1  0  0  0
 29102  1  0  0  0
 29103  1  0  0  0
 33 34  1  0  0  0
 33 66  1  0  0  0
 33 70  2  0  0  0
 34 36  1  0  0  0
 34 59  1  0  0  0
 34104  1  0  0  0
 35 44  2  0  0  0
 35 45  1  0  0  0
 35 68  1  0  0  0
 36 56  1  0  0  0
 36105  1  0  0  0
 37 39  1  0  0  0
 37 47  1  0  0  0
 37 66  1  0  0  0
 37106  1  0  0  0
 38 43  2  0  0  0
 38 46  1  0  0  0
 38 47  1  0  0  0
 39 64  1  0  0  0
 39 67  2  0  0  0
 40 52  1  0  0  0
 40 53  2  0  0  0
 40 58  1  0  0  0
 41107  1  0  0  0
 41108  1  0  0  0
 41109  1  0  0  0
 41 48  1  0  0  0
 42 43  1  0  0  0
 42 66  1  0  0  0
 42110  1  0  0  0
 42111  1  0  0  0
 43 44  1  0  0  0
 44112  1  0  0  0
 45 46  2  0  0  0
 45113  1  0  0  0
 46114  1  0  0  0
 47115  1  0  0  0
 47116  1  0  0  0
 48 56  1  0  0  0
 48 65  1  0  0  0
 48117  1  0  0  0
 49 50  1  0  0  0
 49 53  1  0  0  0
 49 64  1  0  0  0
 49118  1  0  0  0
 50 51  1  0  0  0
 50119  1  0  0  0
 50120  1  0  0  0
 51 52  1  0  0  0
 51121  1  0  0  0
 51122  1  0  0  0
 52123  1  0  0  0
 52124  1  0  0  0
 53 54  1  0  0  0
 54 55  2  0  0  0
 54125  1  0  0  0
 55 57  1  0  0  0
 55126  1  0  0  0
 56 69  2  0  0  0
 57 58  2  0  0  0
 57127  1  0  0  0
 58128  1  0  0  0
 59 60  1  0  0  0
 59 61  1  0  0  0
 59 62  1  0  0  0
 60129  1  0  0  0
 60130  1  0  0  0
 60131  1  0  0  0
 61132  1  0  0  0
 61133  1  0  0  0
 61134  1  0  0  0
 62135  1  0  0  0
 62136  1  0  0  0
 62137  1  0  0  0
 63 65  1  0  0  0
 63138  1  0  0  0
 63139  1  0  0  0
 63140  1  0  0  0
 64141  1  0  0  0
 65142  1  0  0  0
 68 79  1  0  0  0
 71 72  2  0  0  0
 71 74  1  0  0  0
 71143  1  0  0  0
 72 75  1  0  0  0
 72144  1  0  0  0
 73 74  2  0  0  0
 73 76  1  0  0  0
 73145  1  0  0  0
 74 81  1  0  0  0
 75 76  2  0  0  0
 75 80  1  0  0  0
 76 83  1  0  0  0
 77 79  1  0  0  0
 77 80  1  0  0  0
 77 82  2  0  0  0
 78 83  1  0  0  0
 78146  1  0  0  0
 78147  1  0  0  0
 78148  1  0  0  0
 79149  1  0  0  0
 79150  1  0  0  0
 80151  1  0  0  0
 81152  1  0  0  0
M  ISO  4   1 100  68 101  79 101  81 100
M  END
> <chiral flag>
0

> <version>
0

> <s_m_source_file>
/data/baiqing/PycharmProjects/Reinvent-master-3.2/result/LINK_invent/BTK/process_docking_weight1_custom_product_contain_oxygen_bond_distance_aromatic_linkinvent_7_9_3/rearranged_h_0094.sdf

> <i_m_source_file_index>
25

> <r_mmod_Potential_Energy-OPLS-2005>
413.437133789062

> <r_mmod_Stretch_Energy-OPLS-2005>
222.322525024414

> <r_mmod_Bend_Energy-OPLS-2005>
291.070159912109

> <r_mmod_Torsional_Energy-OPLS-2005>
225.746246337891

> <r_mmod_Improper_Torsional_Energy-OPLS-2005>
4.11361169815063

> <r_mmod_Van_der_Waal_Energy-OPLS-2005>
137.370330810547

> <r_mmod_Electrostatic_Energy-OPLS-2005>
-402.479919433594

> <r_mmod_Solvation_Energy-OPLS-2005>
-249.173736572266

> <b_mmod_Minimization_Converged-OPLS-2005>
0

> <r_mmod_RMS_Derivative-OPLS-2005>
1.95702016353607

$$$$
25
                    3D
 Structure written by MMmdl.
160169  0  0  1  0            999 V2000
  -30.7033  -14.4830   20.5589 C   0  0  0  0  0  0
  -30.4225  -12.3090   19.4299 C   0  0  0  0  0  0
  -29.4955  -12.5047   18.2124 C   0  0  0  0  0  0
  -28.0161  -12.3697   18.6243 C   0  0  0  0  0  0
  -27.6622  -13.2134   19.8792 C   0  0  2  0  0  0
  -28.7047  -12.9992   21.0001 C   0  0  0  0  0  0
  -25.2560  -13.8169   20.5663 C   0  0  0  0  0  0
  -24.1811  -13.0420   20.9101 C   0  0  0  0  0  0
  -24.6403  -11.6900   20.8697 C   0  0  0  0  0  0
  -23.9073  -10.4280   21.0387 C   0  0  0  0  0  0
  -24.3623   -9.4201   21.9176 C   0  0  0  0  0  0
  -23.6293   -8.2238   22.0755 C   0  0  0  0  0  0
  -22.4276   -8.0275   21.3542 C   0  0  0  0  0  0
  -21.9908   -9.0246   20.4642 C   0  0  0  0  0  0
  -22.7238  -10.2123   20.3044 C   0  0  0  0  0  0
  -21.6853   -6.0732   22.5278 C   0  0  0  0  0  0
  -21.4011   -6.5639   23.8208 C   0  0  0  0  0  0
  -21.3664   -5.6795   24.9172 C   0  0  0  0  0  0
  -21.6047   -4.3055   24.7219 C   0  0  0  0  0  0
  -21.8822   -3.8145   23.4340 C   0  0  0  0  0  0
  -21.9193   -4.6961   22.3398 C   0  0  0  0  0  0
  -22.7837  -13.5211   21.1801 C   0  0  0  0  0  0
  -22.1663   -4.2147   21.0978 F   0  0  0  0  0  0
  -21.5634   -3.4541   25.7734 F   0  0  0  0  0  0
  -30.0381  -13.2995   20.4484 N   0  0  0  0  0  0
  -26.3033  -12.9368   20.3416 N   0  0  0  0  0  0
  -25.9343  -11.6513   20.5787 N   0  0  0  0  0  0
  -22.0508  -12.8201   22.0386 N   0  0  0  0  0  0
  -25.4242  -15.1884   20.4152 N   0  0  0  0  0  0
  -31.8369  -14.6472   20.0999 O   0  0  0  0  0  0
  -21.6636   -6.8872   21.4239 O   0  0  0  0  0  0
  -22.3500  -14.5517   20.6675 O   0  0  0  0  0  0
  -24.6155  -31.8680   23.2098 C   0  0  0  0  0  0
  -25.9045  -32.4825   23.8394 C   0  0  1  0  0  0
  -27.2294  -27.4245   20.1007 C   0  0  0  0  0  0
  -25.5894  -33.8624   24.2312 N   0  0  0  0  0  0
  -23.4038  -30.4917   21.5510 C   0  0  2  0  0  0
  -24.8505  -28.9605   20.1114 C   0  0  0  0  0  0
  -22.7416  -29.4659   22.4993 C   0  0  0  0  0  0
  -18.0266  -28.1383   22.8501 C   0  0  0  0  0  0
  -24.1482  -36.7315   23.2621 C   0  0  0  0  0  0
  -25.9339  -30.8302   21.3657 C   0  0  0  0  0  0
  -26.0117  -29.4647   20.7121 C   0  0  0  0  0  0
  -27.2055  -28.7032   20.7062 C   0  0  0  0  0  0
  -26.0549  -26.9491   19.4739 C   0  0  0  0  0  0
  -24.8675  -27.7022   19.4875 C   0  0  0  0  0  0
  -23.6120  -29.8262   20.1650 C   0  0  0  0  0  0
  -25.4095  -36.3110   24.0333 C   0  0  1  0  0  0
  -20.5857  -28.3666   23.1325 C   0  0  2  0  0  0
  -20.6758  -26.9405   22.5426 C   0  0  0  0  0  0
  -19.5739  -26.6392   21.5219 C   0  0  0  0  0  0
  -18.1915  -26.7930   22.1626 C   0  0  0  0  0  0
  -19.1516  -28.8844   23.2907 C   0  0  0  0  0  0
  -18.9443  -30.1449   23.8921 C   0  0  0  0  0  0
  -17.6446  -30.6591   24.0570 C   0  0  0  0  0  0
  -25.9049  -34.9483   23.5124 C   0  0  0  0  0  0
  -16.5339  -29.9095   23.6330 C   0  0  0  0  0  0
  -16.7255  -28.6508   23.0360 C   0  0  0  0  0  0
  -26.4470  -31.6607   25.0726 C   0  0  0  0  0  0
  -25.3735  -31.3714   26.1477 C   0  0  0  0  0  0
  -27.0291  -30.3044   24.6110 C   0  0  0  0  0  0
  -27.6049  -32.4326   25.7480 C   0  0  0  0  0  0
  -27.5615  -37.1750   24.8416 C   0  0  0  0  0  0
  -21.4141  -29.3031   22.3732 N   0  0  0  0  0  0
  -26.4254  -37.3830   23.9476 N   0  0  0  0  0  0
  -24.6693  -31.0771   22.1007 N   0  0  0  0  0  0
  -23.4185  -28.8208   23.3040 O   0  0  0  0  0  0
  -28.3668  -26.6393   20.1261 O   0  0  0  0  0  0
  -26.5625  -34.8942   22.4692 O   0  0  0  0  0  0
  -23.5342  -32.1436   23.7489 O   0  0  0  0  0  0
  -31.0236  -18.9054   19.7902 C   0  0  0  0  0  0
  -31.1389  -17.5671   20.2309 C   0  0  0  0  0  0
  -28.6874  -18.9279   20.4503 C   0  0  0  0  0  0
  -29.7883  -19.5897   19.8625 C   0  0  0  0  0  0
  -30.0151  -16.8781   20.7509 C   0  0  0  0  0  0
  -28.8036  -17.5914   20.8985 C   0  0  0  0  0  0
  -29.1365  -24.3512   20.3786 C   0  0  0  0  0  0
  -28.1967  -25.3146   20.4901 C   0  0  0  0  0  0
  -30.5261  -24.5214   19.8403 C   0  0  0  0  0  0
  -28.9398  -22.8742   20.7031 C   0  0  0  0  0  0
  -30.8114  -23.1500   19.2205 C   0  0  0  0  0  0
  -29.6173  -20.9601   19.1901 C   0  0  0  0  0  0
  -27.6989  -16.9578   21.4660 N   0  0  0  0  0  0
  -30.0006  -15.4906   21.1108 N   0  0  0  0  0  0
  -30.0341  -22.1453   19.9970 N   0  3  2  0  0  0
  -31.4671  -12.4012   19.1288 H   0  0  0  0  0  0
  -30.3187  -11.3006   19.8336 H   0  0  0  0  0  0
  -29.7332  -11.7757   17.4368 H   0  0  0  0  0  0
  -29.6662  -13.4879   17.7712 H   0  0  0  0  0  0
  -27.8235  -11.3145   18.8222 H   0  0  0  0  0  0
  -27.3669  -12.6455   17.7931 H   0  0  0  0  0  0
  -27.7030  -14.2614   19.5805 H   0  0  0  0  0  0
  -28.6800  -11.9649   21.3467 H   0  0  0  0  0  0
  -28.4651  -13.6039   21.8754 H   0  0  0  0  0  0
  -25.2773   -9.5675   22.4739 H   0  0  0  0  0  0
  -24.0001   -7.4636   22.7489 H   0  0  0  0  0  0
  -21.0835   -8.8766   19.8953 H   0  0  0  0  0  0
  -22.3704  -10.9658   19.6145 H   0  0  0  0  0  0
  -21.2006   -7.6147   23.9712 H   0  0  0  0  0  0
  -21.1484   -6.0523   25.9080 H   0  0  0  0  0  0
  -22.0599   -2.7605   23.2842 H   0  0  0  0  0  0
  -22.4146  -11.9864   22.4754 H   0  0  0  0  0  0
  -21.1130  -13.1219   22.2608 H   0  0  0  0  0  0
  -24.6696  -15.8387   20.5981 H   0  0  0  0  0  0
  -26.3352  -15.6467   20.4111 H   0  0  0  0  0  0
  -26.7114  -32.5543   23.1160 H   0  0  0  0  0  0
  -25.0016  -33.9788   25.0437 H   0  0  0  0  0  0
  -22.6923  -31.3084   21.4126 H   0  0  0  0  0  0
  -23.3794  -35.9587   23.3159 H   0  0  0  0  0  0
  -24.3617  -36.9071   22.2064 H   0  0  0  0  0  0
  -23.7148  -37.6441   23.6726 H   0  0  0  0  0  0
  -26.0465  -31.5960   20.5971 H   0  0  0  0  0  0
  -26.8215  -30.8834   21.9842 H   0  0  0  0  0  0
  -28.1000  -29.0826   21.1802 H   0  0  0  0  0  0
  -26.0510  -25.9853   18.9845 H   0  0  0  0  0  0
  -23.9779  -27.3113   19.0127 H   0  0  0  0  0  0
  -23.7174  -30.6018   19.4057 H   0  0  0  0  0  0
  -22.7366  -29.2449   19.8702 H   0  0  0  0  0  0
  -25.1245  -36.1945   25.0816 H   0  0  0  0  0  0
  -20.9939  -28.3233   24.1450 H   0  0  0  0  0  0
  -20.5666  -26.2277   23.3609 H   0  0  0  0  0  0
  -21.6632  -26.7456   22.1218 H   0  0  0  0  0  0
  -19.6904  -25.6311   21.1239 H   0  0  0  0  0  0
  -19.6682  -27.3216   20.6762 H   0  0  0  0  0  0
  -17.4187  -26.6691   21.4018 H   0  0  0  0  0  0
  -18.0303  -26.0065   22.9011 H   0  0  0  0  0  0
  -19.7920  -30.7255   24.2309 H   0  0  0  0  0  0
  -17.5004  -31.6276   24.5164 H   0  0  0  0  0  0
  -15.5342  -30.3005   23.7646 H   0  0  0  0  0  0
  -15.8651  -28.0832   22.7074 H   0  0  0  0  0  0
  -24.5901  -30.7070   25.7815 H   0  0  0  0  0  0
  -24.8933  -32.2867   26.4943 H   0  0  0  0  0  0
  -25.8091  -30.8868   27.0226 H   0  0  0  0  0  0
  -26.2827  -29.6810   24.1169 H   0  0  0  0  0  0
  -27.4052  -29.7283   25.4578 H   0  0  0  0  0  0
  -27.8674  -30.4353   23.9261 H   0  0  0  0  0  0
  -27.2666  -33.3610   26.2097 H   0  0  0  0  0  0
  -28.3826  -32.6919   25.0283 H   0  0  0  0  0  0
  -28.0753  -31.8428   26.5359 H   0  0  0  0  0  0
  -28.2447  -38.0229   24.7780 H   0  0  0  0  0  0
  -28.1296  -36.2801   24.5832 H   0  0  0  0  0  0
  -27.2401  -37.0894   25.8810 H   0  0  0  0  0  0
  -20.9305  -29.8744   21.6946 H   0  0  0  0  0  0
  -26.0130  -38.2855   24.1685 H   0  0  0  0  0  0
  -31.8851  -19.3843   19.3449 H   0  0  0  0  0  0
  -32.0956  -17.0779   20.1273 H   0  0  0  0  0  0
  -27.7353  -19.4369   20.5157 H   0  0  0  0  0  0
  -27.2121  -25.1020   20.8874 H   0  0  0  0  0  0
  -31.2031  -24.7204   20.6719 H   0  0  0  0  0  0
  -30.6040  -25.3397   19.1233 H   0  0  0  0  0  0
  -27.9433  -22.5500   20.3989 H   0  0  0  0  0  0
  -29.0326  -22.7109   21.7771 H   0  0  0  0  0  0
  -31.8751  -22.9112   19.2101 H   0  0  0  0  0  0
  -30.4712  -23.1656   18.1837 H   0  0  0  0  0  0
  -28.5933  -21.0759   18.8337 H   0  0  0  0  0  0
  -30.2175  -20.9169   18.2802 H   0  0  0  0  0  0
  -26.9152  -17.5687   21.6672 H   0  0  0  0  0  0
  -27.9023  -16.3976   22.2847 H   0  0  0  0  0  0
  -29.1116  -15.1998   21.4865 H   0  0  0  0  0  0
  -30.6579  -21.7996   20.7102 H   0  0  0  0  0  0
  1 25  1  0  0  0
  1 30  2  0  0  0
  1 84  1  0  0  0
  2  3  1  0  0  0
  2 25  1  0  0  0
  2 86  1  0  0  0
  2 87  1  0  0  0
  3  4  1  0  0  0
  3 88  1  0  0  0
  3 89  1  0  0  0
  4  5  1  0  0  0
  4 90  1  0  0  0
  4 91  1  0  0  0
  5  6  1  0  0  0
  5 26  1  0  0  0
  5 92  1  0  0  0
  6 25  1  0  0  0
  6 93  1  0  0  0
  6 94  1  0  0  0
  7  8  2  0  0  0
  7 26  1  0  0  0
  7 29  1  0  0  0
  8  9  1  0  0  0
  8 22  1  0  0  0
  9 10  1  0  0  0
  9 27  2  0  0  0
 10 11  2  0  0  0
 10 15  1  0  0  0
 11 12  1  0  0  0
 11 95  1  0  0  0
 12 13  2  0  0  0
 12 96  1  0  0  0
 13 14  1  0  0  0
 13 31  1  0  0  0
 14 15  2  0  0  0
 14 97  1  0  0  0
 15 98  1  0  0  0
 16 17  2  0  0  0
 16 21  1  0  0  0
 16 31  1  0  0  0
 17 18  1  0  0  0
 17 99  1  0  0  0
 18 19  2  0  0  0
 18100  1  0  0  0
 19 20  1  0  0  0
 19 24  1  0  0  0
 20 21  2  0  0  0
 20101  1  0  0  0
 21 23  1  0  0  0
 22 28  1  0  0  0
 22 32  2  0  0  0
 26 27  1  0  0  0
 28102  1  0  0  0
 28103  1  0  0  0
 29104  1  0  0  0
 29105  1  0  0  0
 33 34  1  0  0  0
 33 66  1  0  0  0
 33 70  2  0  0  0
 34 36  1  0  0  0
 34 59  1  0  0  0
 34106  1  0  0  0
 35 44  2  0  0  0
 35 45  1  0  0  0
 35 68  1  0  0  0
 36 56  1  0  0  0
 36107  1  0  0  0
 37 39  1  0  0  0
 37 47  1  0  0  0
 37 66  1  0  0  0
 37108  1  0  0  0
 38 43  2  0  0  0
 38 46  1  0  0  0
 38 47  1  0  0  0
 39 64  1  0  0  0
 39 67  2  0  0  0
 40 52  1  0  0  0
 40 53  2  0  0  0
 40 58  1  0  0  0
 41109  1  0  0  0
 41110  1  0  0  0
 41111  1  0  0  0
 41 48  1  0  0  0
 42 43  1  0  0  0
 42 66  1  0  0  0
 42112  1  0  0  0
 42113  1  0  0  0
 43 44  1  0  0  0
 44114  1  0  0  0
 45 46  2  0  0  0
 45115  1  0  0  0
 46116  1  0  0  0
 47117  1  0  0  0
 47118  1  0  0  0
 48 56  1  0  0  0
 48 65  1  0  0  0
 48119  1  0  0  0
 49 50  1  0  0  0
 49 53  1  0  0  0
 49 64  1  0  0  0
 49120  1  0  0  0
 50 51  1  0  0  0
 50121  1  0  0  0
 50122  1  0  0  0
 51 52  1  0  0  0
 51123  1  0  0  0
 51124  1  0  0  0
 52125  1  0  0  0
 52126  1  0  0  0
 53 54  1  0  0  0
 54 55  2  0  0  0
 54127  1  0  0  0
 55 57  1  0  0  0
 55128  1  0  0  0
 56 69  2  0  0  0
 57 58  2  0  0  0
 57129  1  0  0  0
 58130  1  0  0  0
 59 60  1  0  0  0
 59 61  1  0  0  0
 59 62  1  0  0  0
 60131  1  0  0  0
 60132  1  0  0  0
 60133  1  0  0  0
 61134  1  0  0  0
 61135  1  0  0  0
 61136  1  0  0  0
 62137  1  0  0  0
 62138  1  0  0  0
 62139  1  0  0  0
 63 65  1  0  0  0
 63140  1  0  0  0
 63141  1  0  0  0
 63142  1  0  0  0
 64143  1  0  0  0
 65144  1  0  0  0
 68 78  1  0  0  0
 71 72  2  0  0  0
 71 74  1  0  0  0
 71145  1  0  0  0
 72 75  1  0  0  0
 72146  1  0  0  0
 73 74  2  0  0  0
 73 76  1  0  0  0
 73147  1  0  0  0
 74 82  1  0  0  0
 75 76  2  0  0  0
 75 84  1  0  0  0
 76 83  1  0  0  0
 77 78  2  0  0  0
 77 79  1  0  0  0
 77 80  1  0  0  0
 78148  1  0  0  0
 79 81  1  0  0  0
 79149  1  0  0  0
 79150  1  0  0  0
 80 85  1  0  0  0
 80151  1  0  0  0
 80152  1  0  0  0
 81 85  1  0  0  0
 81153  1  0  0  0
 81154  1  0  0  0
 82155  1  0  0  0
 82156  1  0  0  0
 82 85  1  0  0  0
 83157  1  0  0  0
 83158  1  0  0  0
 84159  1  0  0  0
 85160  1  0  0  0
M  CHG  1  85   1
M  ISO  4   1 100  68 101  78 101  84 100
M  END
> <chiral flag>
0

> <version>
0

> <s_m_source_file>
/data/baiqing/PycharmProjects/Reinvent-master-3.2/result/LINK_invent/BTK/process_docking_weight1_custom_product_contain_oxygen_bond_distance_aromatic_linkinvent_7_9_3/rearranged_h_0094.sdf

> <i_m_source_file_index>
26

> <r_mmod_Potential_Energy-OPLS-2005>
-253.179840087891

> <r_mmod_Stretch_Energy-OPLS-2005>
39.2081718444824

> <r_mmod_Bend_Energy-OPLS-2005>
122.518127441406

> <r_mmod_Torsional_Energy-OPLS-2005>
262.405731201172

> <r_mmod_Improper_Torsional_Energy-OPLS-2005>
11.2943305969238

> <r_mmod_Van_der_Waal_Energy-OPLS-2005>
156.413650512695

> <r_mmod_Electrostatic_Energy-OPLS-2005>
-416.083618164062

> <r_mmod_Solvation_Energy-OPLS-2005>
-444.364868164062

> <b_mmod_Minimization_Converged-OPLS-2005>
0

> <r_mmod_RMS_Derivative-OPLS-2005>
1.09193587303162

$$$$
26
                    3D
 Structure written by MMmdl.
157166  0  0  1  0            999 V2000
  -30.5987  -14.6219   20.5270 C   0  0  0  0  0  0
  -30.4510  -12.3886   19.4442 C   0  0  0  0  0  0
  -29.5139  -12.5156   18.2214 C   0  0  0  0  0  0
  -28.0341  -12.3507   18.6299 C   0  0  0  0  0  0
  -27.6578  -13.2051   19.8689 C   0  0  2  0  0  0
  -28.7029  -13.0258   20.9942 C   0  0  0  0  0  0
  -25.2589  -13.8142   20.5679 C   0  0  0  0  0  0
  -24.1842  -13.0427   20.9194 C   0  0  0  0  0  0
  -24.6392  -11.6895   20.8746 C   0  0  0  0  0  0
  -23.9054  -10.4289   21.0411 C   0  0  0  0  0  0
  -24.3606   -9.4204   21.9190 C   0  0  0  0  0  0
  -23.6284   -8.2237   22.0755 C   0  0  0  0  0  0
  -22.4266   -8.0282   21.3544 C   0  0  0  0  0  0
  -21.9902   -9.0257   20.4646 C   0  0  0  0  0  0
  -22.7228  -10.2137   20.3058 C   0  0  0  0  0  0
  -21.6851   -6.0740   22.5284 C   0  0  0  0  0  0
  -21.4012   -6.5641   23.8220 C   0  0  0  0  0  0
  -21.3659   -5.6790   24.9179 C   0  0  0  0  0  0
  -21.6039   -4.3053   24.7225 C   0  0  0  0  0  0
  -21.8815   -3.8151   23.4346 C   0  0  0  0  0  0
  -21.9190   -4.6968   22.3407 C   0  0  0  0  0  0
  -22.7865  -13.5237   21.1850 C   0  0  0  0  0  0
  -22.1657   -4.2154   21.0983 F   0  0  0  0  0  0
  -21.5627   -3.4535   25.7738 F   0  0  0  0  0  0
  -30.0186  -13.3855   20.4379 N   0  0  0  0  0  0
  -26.3008  -12.9296   20.3323 N   0  0  0  0  0  0
  -25.9317  -11.6465   20.5754 N   0  0  0  0  0  0
  -22.0485  -12.8248   22.0402 N   0  0  0  0  0  0
  -25.4305  -15.1867   20.4084 N   0  0  0  0  0  0
  -31.7572  -14.8338   20.1531 O   0  0  0  0  0  0
  -21.6630   -6.8882   21.4246 O   0  0  0  0  0  0
  -22.3564  -14.5545   20.6693 O   0  0  0  0  0  0
  -24.6212  -31.8632   23.2029 C   0  0  0  0  0  0
  -25.9080  -32.4808   23.8345 C   0  0  1  0  0  0
  -27.2420  -27.3643   20.1251 C   0  0  0  0  0  0
  -25.5913  -33.8604   24.2279 N   0  0  0  0  0  0
  -23.4144  -30.4828   21.5451 C   0  0  2  0  0  0
  -24.8661  -28.9356   20.1174 C   0  0  0  0  0  0
  -22.7446  -29.4644   22.4967 C   0  0  0  0  0  0
  -18.0278  -28.1401   22.8497 C   0  0  0  0  0  0
  -24.1491  -36.7285   23.2636 C   0  0  0  0  0  0
  -25.9489  -30.8107   21.3645 C   0  0  0  0  0  0
  -26.0299  -29.4373   20.7141 C   0  0  0  0  0  0
  -27.2221  -28.6643   20.7044 C   0  0  0  0  0  0
  -26.0594  -26.8962   19.5138 C   0  0  0  0  0  0
  -24.8806  -27.6681   19.5081 C   0  0  0  0  0  0
  -23.6295  -29.8085   20.1627 C   0  0  0  0  0  0
  -25.4122  -36.3103   24.0332 C   0  0  1  0  0  0
  -20.5873  -28.3687   23.1317 C   0  0  2  0  0  0
  -20.6771  -26.9419   22.5426 C   0  0  0  0  0  0
  -19.5750  -26.6397   21.5225 C   0  0  0  0  0  0
  -18.1924  -26.7945   22.1631 C   0  0  0  0  0  0
  -19.1529  -28.8862   23.2902 C   0  0  0  0  0  0
  -18.9455  -30.1468   23.8915 C   0  0  0  0  0  0
  -17.6454  -30.6604   24.0575 C   0  0  0  0  0  0
  -25.9054  -34.9476   23.5108 C   0  0  0  0  0  0
  -16.5343  -29.9108   23.6336 C   0  0  0  0  0  0
  -16.7266  -28.6527   23.0351 C   0  0  0  0  0  0
  -26.4476  -31.6614   25.0699 C   0  0  0  0  0  0
  -25.3708  -31.3744   26.1418 C   0  0  0  0  0  0
  -27.0300  -30.3048   24.6116 C   0  0  0  0  0  0
  -27.6044  -32.4326   25.7480 C   0  0  0  0  0  0
  -27.5585  -37.1805   24.8466 C   0  0  0  0  0  0
  -21.4159  -29.3048   22.3714 N   0  0  0  0  0  0
  -26.4298  -37.3799   23.9410 N   0  0  0  0  0  0
  -24.6799  -31.0675   22.0960 N   0  0  0  0  0  0
  -23.4183  -28.8189   23.3036 O   0  0  0  0  0  0
  -28.3904  -26.5753   20.1196 O   0  0  0  0  0  0
  -26.5607  -34.8939   22.4664 O   0  0  0  0  0  0
  -23.5390  -32.1401   23.7392 O   0  0  0  0  0  0
  -29.7432  -19.7541   21.9929 C   0  0  0  0  0  0
  -29.5143  -18.7085   22.9109 C   0  0  0  0  0  0
  -30.0678  -18.0877   20.2410 C   0  0  0  0  0  0
  -30.0086  -19.4766   20.6341 C   0  0  0  0  0  0
  -29.8658  -17.0164   21.1717 C   0  0  0  0  0  0
  -29.5714  -17.3602   22.5077 C   0  0  0  0  0  0
  -28.9651  -22.5772   20.1766 C   0  0  0  0  0  0
  -30.4492  -20.5915   19.6754 C   0  0  0  0  0  0
  -30.3466  -24.2998   19.2678 C   0  0  0  0  0  0
  -30.8859  -22.8975   18.9555 C   0  0  0  0  0  0
  -28.8995  -24.0654   19.6807 C   0  0  2  0  0  0
  -28.2973  -25.1917   20.6112 C   0  0  0  0  0  0
  -30.0628  -21.9241   19.6946 N   0  0  0  0  0  0
  -29.7182  -15.6168   20.8296 N   0  0  0  0  0  0
  -28.0643  -22.0872   20.8624 O   0  0  0  0  0  0
  -31.2833  -20.2331   18.8339 O   0  0  0  0  0  0
  -29.3211  -16.3829   23.4131 F   0  0  0  0  0  0
  -31.4898  -12.5381   19.1444 H   0  0  0  0  0  0
  -30.4018  -11.3853   19.8696 H   0  0  0  0  0  0
  -29.7799  -11.7760   17.4655 H   0  0  0  0  0  0
  -29.6549  -13.4921   17.7551 H   0  0  0  0  0  0
  -27.8650  -11.2955   18.8466 H   0  0  0  0  0  0
  -27.3820  -12.5972   17.7909 H   0  0  0  0  0  0
  -27.6824  -14.2443   19.5421 H   0  0  0  0  0  0
  -28.7161  -11.9919   21.3426 H   0  0  0  0  0  0
  -28.4495  -13.6252   21.8701 H   0  0  0  0  0  0
  -25.2747   -9.5682   22.4765 H   0  0  0  0  0  0
  -23.9997   -7.4624   22.7467 H   0  0  0  0  0  0
  -21.0834   -8.8777   19.8947 H   0  0  0  0  0  0
  -22.3691  -10.9680   19.6168 H   0  0  0  0  0  0
  -21.2007   -7.6148   23.9728 H   0  0  0  0  0  0
  -21.1481   -6.0517   25.9083 H   0  0  0  0  0  0
  -22.0595   -2.7611   23.2844 H   0  0  0  0  0  0
  -22.4072  -11.9916   22.4822 H   0  0  0  0  0  0
  -21.1106  -13.1298   22.2580 H   0  0  0  0  0  0
  -24.6583  -15.8363   20.5123 H   0  0  0  0  0  0
  -26.2695  -15.6267   20.0533 H   0  0  0  0  0  0
  -26.7151  -32.5507   23.1104 H   0  0  0  0  0  0
  -25.0106  -33.9752   25.0451 H   0  0  0  0  0  0
  -22.7074  -31.3019   21.3995 H   0  0  0  0  0  0
  -23.3774  -35.9600   23.3316 H   0  0  0  0  0  0
  -24.3571  -36.8877   22.2042 H   0  0  0  0  0  0
  -23.7231  -37.6488   23.6639 H   0  0  0  0  0  0
  -26.0644  -31.5745   20.5936 H   0  0  0  0  0  0
  -26.8344  -30.8693   21.9860 H   0  0  0  0  0  0
  -28.1207  -29.0525   21.1638 H   0  0  0  0  0  0
  -26.0483  -25.9256   19.0389 H   0  0  0  0  0  0
  -23.9891  -27.2788   19.0362 H   0  0  0  0  0  0
  -23.7417  -30.5800   19.4003 H   0  0  0  0  0  0
  -22.7541  -29.2283   19.8656 H   0  0  0  0  0  0
  -25.1317  -36.1949   25.0829 H   0  0  0  0  0  0
  -20.9956  -28.3250   24.1441 H   0  0  0  0  0  0
  -20.5681  -26.2290   23.3616 H   0  0  0  0  0  0
  -21.6643  -26.7474   22.1214 H   0  0  0  0  0  0
  -19.6905  -25.6305   21.1263 H   0  0  0  0  0  0
  -19.6694  -27.3210   20.6759 H   0  0  0  0  0  0
  -17.4196  -26.6701   21.4027 H   0  0  0  0  0  0
  -18.0316  -26.0094   22.9034 H   0  0  0  0  0  0
  -19.7926  -30.7289   24.2284 H   0  0  0  0  0  0
  -17.5010  -31.6286   24.5177 H   0  0  0  0  0  0
  -15.5346  -30.3019   23.7664 H   0  0  0  0  0  0
  -15.8662  -28.0862   22.7052 H   0  0  0  0  0  0
  -24.5918  -30.7052   25.7746 H   0  0  0  0  0  0
  -24.8851  -32.2908   26.4786 H   0  0  0  0  0  0
  -25.8030  -30.8972   27.0222 H   0  0  0  0  0  0
  -26.2862  -29.6826   24.1124 H   0  0  0  0  0  0
  -27.4002  -29.7279   25.4600 H   0  0  0  0  0  0
  -27.8735  -30.4349   23.9330 H   0  0  0  0  0  0
  -27.2678  -33.3646   26.2036 H   0  0  0  0  0  0
  -28.3885  -32.6842   25.0325 H   0  0  0  0  0  0
  -28.0679  -31.8448   26.5411 H   0  0  0  0  0  0
  -28.2621  -38.0084   24.7532 H   0  0  0  0  0  0
  -28.1067  -36.2624   24.6297 H   0  0  0  0  0  0
  -27.2292  -37.1461   25.8862 H   0  0  0  0  0  0
  -20.9324  -29.8759   21.6922 H   0  0  0  0  0  0
  -26.0182  -38.2877   24.1408 H   0  0  0  0  0  0
  -29.7381  -20.7731   22.3506 H   0  0  0  0  0  0
  -29.2962  -18.9440   23.9423 H   0  0  0  0  0  0
  -30.2725  -17.8447   19.2077 H   0  0  0  0  0  0
  -30.4298  -24.9672   18.4084 H   0  0  0  0  0  0
  -30.9090  -24.7518   20.0873 H   0  0  0  0  0  0
  -31.9401  -22.8277   19.2337 H   0  0  0  0  0  0
  -30.8124  -22.6946   17.8851 H   0  0  0  0  0  0
  -28.2934  -24.0393   18.7753 H   0  0  0  0  0  0
  -28.8204  -25.1682   21.5673 H   0  0  0  0  0  0
  -27.2668  -24.9312   20.8536 H   0  0  0  0  0  0
  -28.8370  -15.2326   21.1336 H   0  0  0  0  0  0
  1 25  1  0  0  0
  1 30  2  0  0  0
  1 84  1  0  0  0
  2  3  1  0  0  0
  2 25  1  0  0  0
  2 88  1  0  0  0
  2 89  1  0  0  0
  3  4  1  0  0  0
  3 90  1  0  0  0
  3 91  1  0  0  0
  4  5  1  0  0  0
  4 92  1  0  0  0
  4 93  1  0  0  0
  5  6  1  0  0  0
  5 26  1  0  0  0
  5 94  1  0  0  0
  6 25  1  0  0  0
  6 95  1  0  0  0
  6 96  1  0  0  0
  7  8  2  0  0  0
  7 26  1  0  0  0
  7 29  1  0  0  0
  8  9  1  0  0  0
  8 22  1  0  0  0
  9 10  1  0  0  0
  9 27  2  0  0  0
 10 11  2  0  0  0
 10 15  1  0  0  0
 11 12  1  0  0  0
 11 97  1  0  0  0
 12 13  2  0  0  0
 12 98  1  0  0  0
 13 14  1  0  0  0
 13 31  1  0  0  0
 14 15  2  0  0  0
 14 99  1  0  0  0
 15100  1  0  0  0
 16 17  2  0  0  0
 16 21  1  0  0  0
 16 31  1  0  0  0
 17 18  1  0  0  0
 17101  1  0  0  0
 18 19  2  0  0  0
 18102  1  0  0  0
 19 20  1  0  0  0
 19 24  1  0  0  0
 20 21  2  0  0  0
 20103  1  0  0  0
 21 23  1  0  0  0
 22 28  1  0  0  0
 22 32  2  0  0  0
 26 27  1  0  0  0
 28104  1  0  0  0
 28105  1  0  0  0
 29106  1  0  0  0
 29107  1  0  0  0
 33 34  1  0  0  0
 33 66  1  0  0  0
 33 70  2  0  0  0
 34 36  1  0  0  0
 34 59  1  0  0  0
 34108  1  0  0  0
 35 44  2  0  0  0
 35 45  1  0  0  0
 35 68  1  0  0  0
 36 56  1  0  0  0
 36109  1  0  0  0
 37 39  1  0  0  0
 37 47  1  0  0  0
 37 66  1  0  0  0
 37110  1  0  0  0
 38 43  2  0  0  0
 38 46  1  0  0  0
 38 47  1  0  0  0
 39 64  1  0  0  0
 39 67  2  0  0  0
 40 52  1  0  0  0
 40 53  2  0  0  0
 40 58  1  0  0  0
 41111  1  0  0  0
 41112  1  0  0  0
 41113  1  0  0  0
 41 48  1  0  0  0
 42 43  1  0  0  0
 42 66  1  0  0  0
 42114  1  0  0  0
 42115  1  0  0  0
 43 44  1  0  0  0
 44116  1  0  0  0
 45 46  2  0  0  0
 45117  1  0  0  0
 46118  1  0  0  0
 47119  1  0  0  0
 47120  1  0  0  0
 48 56  1  0  0  0
 48 65  1  0  0  0
 48121  1  0  0  0
 49 50  1  0  0  0
 49 53  1  0  0  0
 49 64  1  0  0  0
 49122  1  0  0  0
 50 51  1  0  0  0
 50123  1  0  0  0
 50124  1  0  0  0
 51 52  1  0  0  0
 51125  1  0  0  0
 51126  1  0  0  0
 52127  1  0  0  0
 52128  1  0  0  0
 53 54  1  0  0  0
 54 55  2  0  0  0
 54129  1  0  0  0
 55 57  1  0  0  0
 55130  1  0  0  0
 56 69  2  0  0  0
 57 58  2  0  0  0
 57131  1  0  0  0
 58132  1  0  0  0
 59 60  1  0  0  0
 59 61  1  0  0  0
 59 62  1  0  0  0
 60133  1  0  0  0
 60134  1  0  0  0
 60135  1  0  0  0
 61136  1  0  0  0
 61137  1  0  0  0
 61138  1  0  0  0
 62139  1  0  0  0
 62140  1  0  0  0
 62141  1  0  0  0
 63 65  1  0  0  0
 63142  1  0  0  0
 63143  1  0  0  0
 63144  1  0  0  0
 64145  1  0  0  0
 65146  1  0  0  0
 68 82  1  0  0  0
 71 72  2  0  0  0
 71 74  1  0  0  0
 71147  1  0  0  0
 72 76  1  0  0  0
 72148  1  0  0  0
 73 74  2  0  0  0
 73 75  1  0  0  0
 73149  1  0  0  0
 74 78  1  0  0  0
 75 76  2  0  0  0
 75 84  1  0  0  0
 76 87  1  0  0  0
 77 81  1  0  0  0
 77 83  1  0  0  0
 77 85  2  0  0  0
 78 83  1  0  0  0
 78 86  2  0  0  0
 79 80  1  0  0  0
 79 81  1  0  0  0
 79150  1  0  0  0
 79151  1  0  0  0
 80 83  1  0  0  0
 80152  1  0  0  0
 80153  1  0  0  0
 81 82  1  0  0  0
 81154  1  0  0  0
 82155  1  0  0  0
 82156  1  0  0  0
 84157  1  0  0  0
M  ISO  4   1 100  68 101  82 101  84 100
M  END
> <chiral flag>
0

> <version>
0

> <s_m_source_file>
/data/baiqing/PycharmProjects/Reinvent-master-3.2/result/LINK_invent/BTK/process_docking_weight1_custom_product_contain_oxygen_bond_distance_aromatic_linkinvent_7_9_3/rearranged_h_0094.sdf

> <i_m_source_file_index>
27

> <r_mmod_Potential_Energy-OPLS-2005>
91.8416442871094

> <r_mmod_Stretch_Energy-OPLS-2005>
68.6119384765625

> <r_mmod_Bend_Energy-OPLS-2005>
186.31298828125

> <r_mmod_Torsional_Energy-OPLS-2005>
301.309234619141

> <r_mmod_Improper_Torsional_Energy-OPLS-2005>
9.62313175201416

> <r_mmod_Van_der_Waal_Energy-OPLS-2005>
143.237915039062

> <r_mmod_Electrostatic_Energy-OPLS-2005>
-435.036346435547

> <r_mmod_Solvation_Energy-OPLS-2005>
-218.908889770508

> <b_mmod_Minimization_Converged-OPLS-2005>
0

> <r_mmod_RMS_Derivative-OPLS-2005>
1.56522190570831

$$$$
27
                    3D
 Structure written by MMmdl.
158167  0  0  1  0            999 V2000
  -30.5410  -14.7716   20.4882 C   0  0  0  0  0  0
  -30.4602  -12.4750   19.4637 C   0  0  0  0  0  0
  -29.5192  -12.5196   18.2353 C   0  0  0  0  0  0
  -28.0441  -12.3341   18.6485 C   0  0  0  0  0  0
  -27.6522  -13.2173   19.8614 C   0  0  2  0  0  0
  -28.7002  -13.0989   20.9914 C   0  0  0  0  0  0
  -25.2573  -13.8161   20.5695 C   0  0  0  0  0  0
  -24.1840  -13.0431   20.9200 C   0  0  0  0  0  0
  -24.6407  -11.6902   20.8753 C   0  0  0  0  0  0
  -23.9071  -10.4290   21.0414 C   0  0  0  0  0  0
  -24.3617   -9.4202   21.9185 C   0  0  0  0  0  0
  -23.6291   -8.2239   22.0755 C   0  0  0  0  0  0
  -22.4274   -8.0282   21.3544 C   0  0  0  0  0  0
  -21.9913   -9.0259   20.4651 C   0  0  0  0  0  0
  -22.7243  -10.2136   20.3065 C   0  0  0  0  0  0
  -21.6850   -6.0742   22.5282 C   0  0  0  0  0  0
  -21.4013   -6.5647   23.8216 C   0  0  0  0  0  0
  -21.3657   -5.6799   24.9177 C   0  0  0  0  0  0
  -21.6041   -4.3061   24.7231 C   0  0  0  0  0  0
  -21.8816   -3.8154   23.4352 C   0  0  0  0  0  0
  -21.9191   -4.6970   22.3407 C   0  0  0  0  0  0
  -22.7864  -13.5228   21.1862 C   0  0  0  0  0  0
  -22.1660   -4.2154   21.0987 F   0  0  0  0  0  0
  -21.5624   -3.4545   25.7743 F   0  0  0  0  0  0
  -30.0013  -13.5016   20.4274 N   0  0  0  0  0  0
  -26.2993  -12.9337   20.3314 N   0  0  0  0  0  0
  -25.9335  -11.6497   20.5762 N   0  0  0  0  0  0
  -22.0506  -12.8223   22.0418 N   0  0  0  0  0  0
  -25.4289  -15.1882   20.4112 N   0  0  0  0  0  0
  -31.6996  -14.9804   20.1116 O   0  0  0  0  0  0
  -21.6636   -6.8882   21.4242 O   0  0  0  0  0  0
  -22.3555  -14.5535   20.6709 O   0  0  0  0  0  0
  -24.6347  -31.8530   23.1974 C   0  0  0  0  0  0
  -25.9160  -32.4743   23.8324 C   0  0  1  0  0  0
  -27.2245  -27.2375   20.1295 C   0  0  0  0  0  0
  -25.5943  -33.8546   24.2242 N   0  0  0  0  0  0
  -23.4331  -30.4763   21.5414 C   0  0  2  0  0  0
  -24.8810  -28.9211   20.1135 C   0  0  0  0  0  0
  -22.7519  -29.4595   22.4902 C   0  0  0  0  0  0
  -18.0297  -28.1391   22.8481 C   0  0  0  0  0  0
  -24.1489  -36.7277   23.2638 C   0  0  0  0  0  0
  -25.9827  -30.7583   21.3826 C   0  0  0  0  0  0
  -26.0559  -29.3798   20.7223 C   0  0  0  0  0  0
  -27.2301  -28.5536   20.7150 C   0  0  0  0  0  0
  -26.0194  -26.8553   19.4944 C   0  0  0  0  0  0
  -24.8699  -27.6673   19.4882 C   0  0  0  0  0  0
  -23.6539  -29.8114   20.1583 C   0  0  0  0  0  0
  -25.4118  -36.3059   24.0320 C   0  0  1  0  0  0
  -20.5901  -28.3709   23.1257 C   0  0  2  0  0  0
  -20.6784  -26.9424   22.5404 C   0  0  0  0  0  0
  -19.5759  -26.6387   21.5209 C   0  0  0  0  0  0
  -18.1941  -26.7931   22.1625 C   0  0  0  0  0  0
  -19.1549  -28.8869   23.2864 C   0  0  0  0  0  0
  -18.9470  -30.1467   23.8884 C   0  0  0  0  0  0
  -17.6468  -30.6592   24.0563 C   0  0  0  0  0  0
  -25.9063  -34.9433   23.5085 C   0  0  0  0  0  0
  -16.5360  -29.9087   23.6334 C   0  0  0  0  0  0
  -16.7281  -28.6506   23.0354 C   0  0  0  0  0  0
  -26.4519  -31.6581   25.0727 C   0  0  0  0  0  0
  -25.3738  -31.3751   26.1447 C   0  0  0  0  0  0
  -27.0375  -30.2988   24.6250 C   0  0  0  0  0  0
  -27.6060  -32.4339   25.7500 C   0  0  0  0  0  0
  -27.5578  -37.1790   24.8464 C   0  0  0  0  0  0
  -21.4223  -29.3052   22.3643 N   0  0  0  0  0  0
  -26.4287  -37.3764   23.9409 N   0  0  0  0  0  0
  -24.7026  -31.0475   22.0963 N   0  0  0  0  0  0
  -23.4206  -28.8132   23.3011 O   0  0  0  0  0  0
  -28.3170  -26.3254   20.1763 O   0  0  0  0  0  0
  -26.5638  -34.8911   22.4655 O   0  0  0  0  0  0
  -23.5489  -32.1361   23.7254 O   0  0  0  0  0  0
  -29.9844  -18.3802   20.4384 C   0  0  0  0  0  0
  -29.2428  -19.6205   20.8283 C   0  0  0  0  0  0
  -28.2064  -19.3034   21.6784 C   0  0  0  0  0  0
  -29.4579  -17.1590   20.9364 C   0  0  0  0  0  0
  -28.6861  -22.1030   20.2116 C   0  0  0  0  0  0
  -31.2201  -22.7183   21.4858 C   0  0  0  0  0  0
  -30.0910  -23.7824   21.4587 C   0  0  0  0  0  0
  -30.9781  -21.4621   20.6009 C   0  0  0  0  0  0
  -29.1629  -23.6461   20.2401 C   0  0  2  0  0  0
  -27.2711  -20.1932   22.4381 C   0  0  0  0  0  0
  -28.0386  -24.8321   20.1586 C   0  0  0  0  0  0
  -29.5685  -21.0593   20.5308 N   0  0  0  0  0  0
  -29.6408  -15.7604   20.8592 N   0  0  0  0  0  0
  -27.5231  -21.8751   19.8696 O   0  0  0  0  0  0
  -28.0625  -17.5772   21.9063 S   0  0  0  0  0  0
  -31.4925  -12.6455   19.1538 H   0  0  0  0  0  0
  -30.4457  -11.4869   19.9262 H   0  0  0  0  0  0
  -29.8037  -11.7507   17.5159 H   0  0  0  0  0  0
  -29.6355  -13.4748   17.7210 H   0  0  0  0  0  0
  -27.9014  -11.2825   18.8994 H   0  0  0  0  0  0
  -27.3848  -12.5354   17.8032 H   0  0  0  0  0  0
  -27.6576  -14.2466   19.5024 H   0  0  0  0  0  0
  -28.7483  -12.0748   21.3653 H   0  0  0  0  0  0
  -28.4211  -13.7100   21.8509 H   0  0  0  0  0  0
  -25.2760   -9.5680   22.4761 H   0  0  0  0  0  0
  -24.0001   -7.4636   22.7475 H   0  0  0  0  0  0
  -21.0842   -8.8782   19.8962 H   0  0  0  0  0  0
  -22.3694  -10.9682   19.6187 H   0  0  0  0  0  0
  -21.2006   -7.6155   23.9721 H   0  0  0  0  0  0
  -21.1480   -6.0530   25.9078 H   0  0  0  0  0  0
  -22.0596   -2.7617   23.2851 H   0  0  0  0  0  0
  -22.4110  -11.9875   22.4800 H   0  0  0  0  0  0
  -21.1133  -13.1264   22.2637 H   0  0  0  0  0  0
  -24.6604  -15.8402   20.5236 H   0  0  0  0  0  0
  -26.2711  -15.6287   20.0645 H   0  0  0  0  0  0
  -26.7224  -32.5382   23.1060 H   0  0  0  0  0  0
  -25.0080  -33.9679   25.0381 H   0  0  0  0  0  0
  -22.7312  -31.2996   21.3940 H   0  0  0  0  0  0
  -23.3752  -35.9608   23.3296 H   0  0  0  0  0  0
  -24.3577  -36.8911   22.2053 H   0  0  0  0  0  0
  -23.7241  -37.6473   23.6675 H   0  0  0  0  0  0
  -26.1285  -31.5192   20.6147 H   0  0  0  0  0  0
  -26.8569  -30.8037   22.0205 H   0  0  0  0  0  0
  -28.1286  -28.9031   21.2040 H   0  0  0  0  0  0
  -25.9229  -25.9037   18.9974 H   0  0  0  0  0  0
  -23.9716  -27.3101   19.0035 H   0  0  0  0  0  0
  -23.7844  -30.5882   19.4038 H   0  0  0  0  0  0
  -22.7713  -29.2482   19.8496 H   0  0  0  0  0  0
  -25.1303  -36.1896   25.0812 H   0  0  0  0  0  0
  -20.9995  -28.3289   24.1377 H   0  0  0  0  0  0
  -20.5684  -26.2321   23.3614 H   0  0  0  0  0  0
  -21.6652  -26.7445   22.1197 H   0  0  0  0  0  0
  -19.6925  -25.6296   21.1246 H   0  0  0  0  0  0
  -19.6695  -27.3192   20.6735 H   0  0  0  0  0  0
  -17.4208  -26.6671   21.4031 H   0  0  0  0  0  0
  -18.0351  -26.0077   22.9029 H   0  0  0  0  0  0
  -19.7949  -30.7286   24.2246 H   0  0  0  0  0  0
  -17.5026  -31.6270   24.5170 H   0  0  0  0  0  0
  -15.5362  -30.2988   23.7670 H   0  0  0  0  0  0
  -15.8681  -28.0826   22.7073 H   0  0  0  0  0  0
  -24.5883  -30.7139   25.7771 H   0  0  0  0  0  0
  -24.8973  -32.2936   26.4882 H   0  0  0  0  0  0
  -25.8042  -30.8903   27.0218 H   0  0  0  0  0  0
  -26.2977  -29.6719   24.1260 H   0  0  0  0  0  0
  -27.4021  -29.7270   25.4794 H   0  0  0  0  0  0
  -27.8872  -30.4243   23.9534 H   0  0  0  0  0  0
  -27.2650  -33.3637   26.2065 H   0  0  0  0  0  0
  -28.3873  -32.6907   25.0334 H   0  0  0  0  0  0
  -28.0731  -31.8481   26.5427 H   0  0  0  0  0  0
  -28.2591  -38.0090   24.7513 H   0  0  0  0  0  0
  -28.1077  -36.2621   24.6287 H   0  0  0  0  0  0
  -27.2299  -37.1438   25.8867 H   0  0  0  0  0  0
  -20.9418  -29.8771   21.6837 H   0  0  0  0  0  0
  -26.0161  -38.2832   24.1421 H   0  0  0  0  0  0
  -30.8514  -18.4347   19.7962 H   0  0  0  0  0  0
  -31.3775  -22.4067   22.5195 H   0  0  0  0  0  0
  -32.1603  -23.1788   21.1785 H   0  0  0  0  0  0
  -30.5245  -24.7827   21.4935 H   0  0  0  0  0  0
  -29.4897  -23.6903   22.3649 H   0  0  0  0  0  0
  -31.6019  -20.6418   20.9584 H   0  0  0  0  0  0
  -31.3153  -21.6661   19.5825 H   0  0  0  0  0  0
  -29.7817  -23.7679   19.3507 H   0  0  0  0  0  0
  -27.7726  -21.0955   22.7882 H   0  0  0  0  0  0
  -26.8762  -19.6845   23.3180 H   0  0  0  0  0  0
  -26.4206  -20.4861   21.8230 H   0  0  0  0  0  0
  -27.3099  -24.6431   20.9480 H   0  0  0  0  0  0
  -27.5209  -24.6178   19.2259 H   0  0  0  0  0  0
  -28.8153  -15.2848   21.1916 H   0  0  0  0  0  0
  1 25  1  0  0  0
  1 30  2  0  0  0
  1 83  1  0  0  0
  2  3  1  0  0  0
  2 25  1  0  0  0
  2 86  1  0  0  0
  2 87  1  0  0  0
  3  4  1  0  0  0
  3 88  1  0  0  0
  3 89  1  0  0  0
  4  5  1  0  0  0
  4 90  1  0  0  0
  4 91  1  0  0  0
  5  6  1  0  0  0
  5 26  1  0  0  0
  5 92  1  0  0  0
  6 25  1  0  0  0
  6 93  1  0  0  0
  6 94  1  0  0  0
  7  8  2  0  0  0
  7 26  1  0  0  0
  7 29  1  0  0  0
  8  9  1  0  0  0
  8 22  1  0  0  0
  9 10  1  0  0  0
  9 27  2  0  0  0
 10 11  2  0  0  0
 10 15  1  0  0  0
 11 12  1  0  0  0
 11 95  1  0  0  0
 12 13  2  0  0  0
 12 96  1  0  0  0
 13 14  1  0  0  0
 13 31  1  0  0  0
 14 15  2  0  0  0
 14 97  1  0  0  0
 15 98  1  0  0  0
 16 17  2  0  0  0
 16 21  1  0  0  0
 16 31  1  0  0  0
 17 18  1  0  0  0
 17 99  1  0  0  0
 18 19  2  0  0  0
 18100  1  0  0  0
 19 20  1  0  0  0
 19 24  1  0  0  0
 20 21  2  0  0  0
 20101  1  0  0  0
 21 23  1  0  0  0
 22 28  1  0  0  0
 22 32  2  0  0  0
 26 27  1  0  0  0
 28102  1  0  0  0
 28103  1  0  0  0
 29104  1  0  0  0
 29105  1  0  0  0
 33 34  1  0  0  0
 33 66  1  0  0  0
 33 70  2  0  0  0
 34 36  1  0  0  0
 34 59  1  0  0  0
 34106  1  0  0  0
 35 44  2  0  0  0
 35 45  1  0  0  0
 35 68  1  0  0  0
 36 56  1  0  0  0
 36107  1  0  0  0
 37 39  1  0  0  0
 37 47  1  0  0  0
 37 66  1  0  0  0
 37108  1  0  0  0
 38 43  2  0  0  0
 38 46  1  0  0  0
 38 47  1  0  0  0
 39 64  1  0  0  0
 39 67  2  0  0  0
 40 52  1  0  0  0
 40 53  2  0  0  0
 40 58  1  0  0  0
 41109  1  0  0  0
 41110  1  0  0  0
 41111  1  0  0  0
 41 48  1  0  0  0
 42 43  1  0  0  0
 42 66  1  0  0  0
 42112  1  0  0  0
 42113  1  0  0  0
 43 44  1  0  0  0
 44114  1  0  0  0
 45 46  2  0  0  0
 45115  1  0  0  0
 46116  1  0  0  0
 47117  1  0  0  0
 47118  1  0  0  0
 48 56  1  0  0  0
 48 65  1  0  0  0
 48119  1  0  0  0
 49 50  1  0  0  0
 49 53  1  0  0  0
 49 64  1  0  0  0
 49120  1  0  0  0
 50 51  1  0  0  0
 50121  1  0  0  0
 50122  1  0  0  0
 51 52  1  0  0  0
 51123  1  0  0  0
 51124  1  0  0  0
 52125  1  0  0  0
 52126  1  0  0  0
 53 54  1  0  0  0
 54 55  2  0  0  0
 54127  1  0  0  0
 55 57  1  0  0  0
 55128  1  0  0  0
 56 69  2  0  0  0
 57 58  2  0  0  0
 57129  1  0  0  0
 58130  1  0  0  0
 59 60  1  0  0  0
 59 61  1  0  0  0
 59 62  1  0  0  0
 60131  1  0  0  0
 60132  1  0  0  0
 60133  1  0  0  0
 61134  1  0  0  0
 61135  1  0  0  0
 61136  1  0  0  0
 62137  1  0  0  0
 62138  1  0  0  0
 62139  1  0  0  0
 63 65  1  0  0  0
 63140  1  0  0  0
 63141  1  0  0  0
 63142  1  0  0  0
 64143  1  0  0  0
 65144  1  0  0  0
 68 81  1  0  0  0
 71 72  1  0  0  0
 71 74  2  0  0  0
 71145  1  0  0  0
 72 73  2  0  0  0
 72 82  1  0  0  0
 73 80  1  0  0  0
 73 85  1  0  0  0
 74 83  1  0  0  0
 74 85  1  0  0  0
 75 79  1  0  0  0
 75 82  1  0  0  0
 75 84  2  0  0  0
 76 77  1  0  0  0
 76 78  1  0  0  0
 76146  1  0  0  0
 76147  1  0  0  0
 77 79  1  0  0  0
 77148  1  0  0  0
 77149  1  0  0  0
 78 82  1  0  0  0
 78150  1  0  0  0
 78151  1  0  0  0
 79 81  1  0  0  0
 79152  1  0  0  0
 80153  1  0  0  0
 80154  1  0  0  0
 80155  1  0  0  0
 81156  1  0  0  0
 81157  1  0  0  0
 83158  1  0  0  0
M  ISO  4   1 100  68 101  81 101  83 100
M  END
> <chiral flag>
0

> <version>
0

> <s_m_source_file>
/data/baiqing/PycharmProjects/Reinvent-master-3.2/result/LINK_invent/BTK/process_docking_weight1_custom_product_contain_oxygen_bond_distance_aromatic_linkinvent_7_9_3/rearranged_h_0094.sdf

> <i_m_source_file_index>
28

> <r_mmod_Potential_Energy-OPLS-2005>
338.10791015625

> <r_mmod_Stretch_Energy-OPLS-2005>
143.805877685547

> <r_mmod_Bend_Energy-OPLS-2005>
235.06510925293

> <r_mmod_Torsional_Energy-OPLS-2005>
287.479705810547

> <r_mmod_Improper_Torsional_Energy-OPLS-2005>
4.04692888259888

> <r_mmod_Van_der_Waal_Energy-OPLS-2005>
127.276718139648

> <r_mmod_Electrostatic_Energy-OPLS-2005>
-345.873870849609

> <r_mmod_Solvation_Energy-OPLS-2005>
-213.000823974609

> <b_mmod_Minimization_Converged-OPLS-2005>
0

> <r_mmod_RMS_Derivative-OPLS-2005>
0.757889688014984

$$$$
28
                    3D
 Structure written by MMmdl.
152160  0  0  1  0            999 V2000
  -30.6032  -14.7725   20.4349 C   0  0  0  0  0  0
  -30.4324  -12.4689   19.4917 C   0  0  0  0  0  0
  -29.5201  -12.5131   18.2464 C   0  0  0  0  0  0
  -28.0446  -12.3336   18.6526 C   0  0  0  0  0  0
  -27.6426  -13.2343   19.8540 C   0  0  2  0  0  0
  -28.6797  -13.1863   20.9980 C   0  0  0  0  0  0
  -25.2459  -13.8180   20.5532 C   0  0  0  0  0  0
  -24.1814  -13.0448   20.9253 C   0  0  0  0  0  0
  -24.6413  -11.6941   20.8789 C   0  0  0  0  0  0
  -23.9049  -10.4327   21.0446 C   0  0  0  0  0  0
  -24.3603   -9.4227   21.9207 C   0  0  0  0  0  0
  -23.6296   -8.2263   22.0748 C   0  0  0  0  0  0
  -22.4276   -8.0308   21.3542 C   0  0  0  0  0  0
  -21.9907   -9.0278   20.4641 C   0  0  0  0  0  0
  -22.7216  -10.2174   20.3079 C   0  0  0  0  0  0
  -21.6874   -6.0737   22.5267 C   0  0  0  0  0  0
  -21.4036   -6.5655   23.8196 C   0  0  0  0  0  0
  -21.3655   -5.6807   24.9162 C   0  0  0  0  0  0
  -21.6036   -4.3063   24.7228 C   0  0  0  0  0  0
  -21.8815   -3.8149   23.4353 C   0  0  0  0  0  0
  -21.9200   -4.6959   22.3400 C   0  0  0  0  0  0
  -22.7841  -13.5236   21.1896 C   0  0  0  0  0  0
  -22.1662   -4.2158   21.0975 F   0  0  0  0  0  0
  -21.5622   -3.4539   25.7730 F   0  0  0  0  0  0
  -29.9817  -13.5396   20.4166 N   0  0  0  0  0  0
  -26.2940  -12.9425   20.3229 N   0  0  0  0  0  0
  -25.9358  -11.6576   20.5821 N   0  0  0  0  0  0
  -22.0449  -12.8258   22.0447 N   0  0  0  0  0  0
  -25.4023  -15.1850   20.3426 N   0  0  0  0  0  0
  -31.8002  -14.8107   20.1248 O   0  0  0  0  0  0
  -21.6663   -6.8889   21.4231 O   0  0  0  0  0  0
  -22.3569  -14.5539   20.6681 O   0  0  0  0  0  0
  -24.6303  -31.8563   23.2027 C   0  0  0  0  0  0
  -25.9141  -32.4746   23.8346 C   0  0  1  0  0  0
  -27.1961  -27.2376   20.0954 C   0  0  0  0  0  0
  -25.5951  -33.8566   24.2267 N   0  0  0  0  0  0
  -23.4262  -30.4850   21.5486 C   0  0  2  0  0  0
  -24.8653  -28.9404   20.1032 C   0  0  0  0  0  0
  -22.7512  -29.4604   22.4919 C   0  0  0  0  0  0
  -18.0288  -28.1420   22.8440 C   0  0  0  0  0  0
  -24.1489  -36.7292   23.2628 C   0  0  0  0  0  0
  -25.9770  -30.7557   21.3906 C   0  0  0  0  0  0
  -26.0397  -29.3776   20.7291 C   0  0  0  0  0  0
  -27.2003  -28.5321   20.7281 C   0  0  0  0  0  0
  -26.0050  -26.9074   19.4051 C   0  0  0  0  0  0
  -24.8561  -27.7132   19.4330 C   0  0  0  0  0  0
  -23.6437  -29.8323   20.1605 C   0  0  0  0  0  0
  -25.4111  -36.3056   24.0314 C   0  0  1  0  0  0
  -20.5904  -28.3714   23.1339 C   0  0  2  0  0  0
  -20.6774  -26.9424   22.5512 C   0  0  0  0  0  0
  -19.5807  -26.6396   21.5251 C   0  0  0  0  0  0
  -18.1947  -26.7967   22.1566 C   0  0  0  0  0  0
  -19.1566  -28.8880   23.2848 C   0  0  0  0  0  0
  -18.9489  -30.1470   23.8942 C   0  0  0  0  0  0
  -17.6530  -30.6612   24.0592 C   0  0  0  0  0  0
  -25.9062  -34.9431   23.5092 C   0  0  0  0  0  0
  -16.5394  -29.9138   23.6384 C   0  0  0  0  0  0
  -16.7283  -28.6564   23.0344 C   0  0  0  0  0  0
  -26.4507  -31.6582   25.0755 C   0  0  0  0  0  0
  -25.3723  -31.3751   26.1476 C   0  0  0  0  0  0
  -27.0363  -30.2986   24.6276 C   0  0  0  0  0  0
  -27.6062  -32.4314   25.7532 C   0  0  0  0  0  0
  -27.5578  -37.1802   24.8460 C   0  0  0  0  0  0
  -21.4205  -29.3053   22.3677 N   0  0  0  0  0  0
  -26.4278  -37.3757   23.9398 N   0  0  0  0  0  0
  -24.6994  -31.0509   22.1028 N   0  0  0  0  0  0
  -23.4191  -28.8134   23.3009 O   0  0  0  0  0  0
  -28.2772  -26.3169   20.1807 O   0  0  0  0  0  0
  -26.5621  -34.8899   22.4650 O   0  0  0  0  0  0
  -23.5448  -32.1406   23.7317 O   0  0  0  0  0  0
  -27.6000  -20.7841   21.4484 C   0  0  0  0  0  0
  -27.2657  -19.4801   21.8588 C   0  0  0  0  0  0
  -29.4973  -19.8498   20.2629 C   0  0  0  0  0  0
  -29.2005  -18.4787   20.6903 C   0  0  0  0  0  0
  -28.7157  -21.0285   20.6191 C   0  0  0  0  0  0
  -28.0168  -18.3434   21.4782 C   0  0  0  0  0  0
  -30.1655  -17.2725   20.3757 C   0  0  0  0  0  0
  -28.5541  -23.6565   20.5910 C   0  0  0  0  0  0
  -28.1958  -24.9000   19.6355 C   0  0  0  0  0  0
  -27.5161  -17.1180   21.9299 N   0  0  0  0  0  0
  -28.9098  -22.4061   20.0784 N   0  0  0  0  0  0
  -29.8403  -15.9328   20.6081 N   0  0  0  0  0  0
  -31.2521  -17.5837   19.8727 O   0  0  0  0  0  0
  -28.5006  -23.8332   21.8123 O   0  0  0  0  0  0
  -31.4787  -12.5821   19.1967 H   0  0  0  0  0  0
  -30.3795  -11.4953   19.9822 H   0  0  0  0  0  0
  -29.8096  -11.7329   17.5409 H   0  0  0  0  0  0
  -29.6530  -13.4667   17.7321 H   0  0  0  0  0  0
  -27.9075  -11.2839   18.9234 H   0  0  0  0  0  0
  -27.3883  -12.5206   17.8008 H   0  0  0  0  0  0
  -27.6420  -14.2561   19.4764 H   0  0  0  0  0  0
  -28.7213  -12.1959   21.4539 H   0  0  0  0  0  0
  -28.4119  -13.8809   21.7975 H   0  0  0  0  0  0
  -25.2746   -9.5751   22.4781 H   0  0  0  0  0  0
  -24.0018   -7.4673   22.7488 H   0  0  0  0  0  0
  -21.0825   -8.8794   19.8962 H   0  0  0  0  0  0
  -22.3643  -10.9723   19.6209 H   0  0  0  0  0  0
  -21.2034   -7.6164   23.9708 H   0  0  0  0  0  0
  -21.1478   -6.0535   25.9066 H   0  0  0  0  0  0
  -22.0592   -2.7619   23.2838 H   0  0  0  0  0  0
  -22.4075  -11.9956   22.4869 H   0  0  0  0  0  0
  -21.1077  -13.1344   22.2650 H   0  0  0  0  0  0
  -24.5149  -15.6779   20.3072 H   0  0  0  0  0  0
  -25.9587  -15.3867   19.5195 H   0  0  0  0  0  0
  -26.7209  -32.5386   23.1086 H   0  0  0  0  0  0
  -25.0120  -33.9704   25.0419 H   0  0  0  0  0  0
  -22.7178  -31.3033   21.4106 H   0  0  0  0  0  0
  -23.3749  -35.9627   23.3284 H   0  0  0  0  0  0
  -24.3586  -36.8930   22.2045 H   0  0  0  0  0  0
  -23.7266  -37.6496   23.6675 H   0  0  0  0  0  0
  -26.1229  -31.5181   20.6217 H   0  0  0  0  0  0
  -26.8528  -30.7978   22.0283 H   0  0  0  0  0  0
  -28.0931  -28.8545   21.2426 H   0  0  0  0  0  0
  -25.9002  -26.0181   18.8095 H   0  0  0  0  0  0
  -23.9651  -27.3970   18.9041 H   0  0  0  0  0  0
  -23.7685  -30.6150   19.4106 H   0  0  0  0  0  0
  -22.7578  -29.2707   19.8532 H   0  0  0  0  0  0
  -25.1306  -36.1902   25.0807 H   0  0  0  0  0  0
  -21.0022  -28.3308   24.1458 H   0  0  0  0  0  0
  -20.5645  -26.2353   23.3711 H   0  0  0  0  0  0
  -21.6647  -26.7373   22.1388 H   0  0  0  0  0  0
  -19.6967  -25.6314   21.1261 H   0  0  0  0  0  0
  -19.6795  -27.3234   20.6806 H   0  0  0  0  0  0
  -17.4378  -26.6778   21.3799 H   0  0  0  0  0  0
  -18.0229  -26.0051   22.8876 H   0  0  0  0  0  0
  -19.7969  -30.7302   24.2332 H   0  0  0  0  0  0
  -17.5105  -31.6277   24.5213 H   0  0  0  0  0  0
  -15.5437  -30.3075   23.7749 H   0  0  0  0  0  0
  -15.8671  -28.0923   22.7090 H   0  0  0  0  0  0
  -24.5924  -30.7049   25.7834 H   0  0  0  0  0  0
  -24.8885  -32.2939   26.4811 H   0  0  0  0  0  0
  -25.8038  -30.9024   27.0316 H   0  0  0  0  0  0
  -26.2983  -29.6720   24.1270 H   0  0  0  0  0  0
  -27.3995  -29.7237   25.4806 H   0  0  0  0  0  0
  -27.8869  -30.4224   23.9569 H   0  0  0  0  0  0
  -27.2678  -33.3635   26.2070 H   0  0  0  0  0  0
  -28.3915  -32.6840   25.0391 H   0  0  0  0  0  0
  -28.0693  -31.8467   26.5499 H   0  0  0  0  0  0
  -28.2589  -38.0106   24.7505 H   0  0  0  0  0  0
  -28.1078  -36.2639   24.6287 H   0  0  0  0  0  0
  -27.2295  -37.1456   25.8860 H   0  0  0  0  0  0
  -20.9394  -29.8843   21.6957 H   0  0  0  0  0  0
  -26.0169  -38.2830   24.1378 H   0  0  0  0  0  0
  -26.9444  -21.5971   21.7326 H   0  0  0  0  0  0
  -26.3781  -19.3635   22.4644 H   0  0  0  0  0  0
  -30.3770  -20.0048   19.6514 H   0  0  0  0  0  0
  -27.1859  -24.6274   19.3467 H   0  0  0  0  0  0
  -28.7756  -24.8504   18.7108 H   0  0  0  0  0  0
  -26.8727  -16.6811   21.2729 H   0  0  0  0  0  0
  -26.9606  -17.2299   22.7790 H   0  0  0  0  0  0
  -29.2413  -22.4325   19.1237 H   0  0  0  0  0  0
  -28.8963  -15.8273   20.9475 H   0  0  0  0  0  0
  1 25  1  0  0  0
  1 30  2  0  0  0
  1 82  1  0  0  0
  2  3  1  0  0  0
  2 25  1  0  0  0
  2 85  1  0  0  0
  2 86  1  0  0  0
  3  4  1  0  0  0
  3 87  1  0  0  0
  3 88  1  0  0  0
  4  5  1  0  0  0
  4 89  1  0  0  0
  4 90  1  0  0  0
  5  6  1  0  0  0
  5 26  1  0  0  0
  5 91  1  0  0  0
  6 25  1  0  0  0
  6 92  1  0  0  0
  6 93  1  0  0  0
  7  8  2  0  0  0
  7 26  1  0  0  0
  7 29  1  0  0  0
  8  9  1  0  0  0
  8 22  1  0  0  0
  9 10  1  0  0  0
  9 27  2  0  0  0
 10 11  2  0  0  0
 10 15  1  0  0  0
 11 12  1  0  0  0
 11 94  1  0  0  0
 12 13  2  0  0  0
 12 95  1  0  0  0
 13 14  1  0  0  0
 13 31  1  0  0  0
 14 15  2  0  0  0
 14 96  1  0  0  0
 15 97  1  0  0  0
 16 17  2  0  0  0
 16 21  1  0  0  0
 16 31  1  0  0  0
 17 18  1  0  0  0
 17 98  1  0  0  0
 18 19  2  0  0  0
 18 99  1  0  0  0
 19 20  1  0  0  0
 19 24  1  0  0  0
 20 21  2  0  0  0
 20100  1  0  0  0
 21 23  1  0  0  0
 22 28  1  0  0  0
 22 32  2  0  0  0
 26 27  1  0  0  0
 28101  1  0  0  0
 28102  1  0  0  0
 29103  1  0  0  0
 29104  1  0  0  0
 33 34  1  0  0  0
 33 66  1  0  0  0
 33 70  2  0  0  0
 34 36  1  0  0  0
 34 59  1  0  0  0
 34105  1  0  0  0
 35 44  2  0  0  0
 35 45  1  0  0  0
 35 68  1  0  0  0
 36 56  1  0  0  0
 36106  1  0  0  0
 37 39  1  0  0  0
 37 47  1  0  0  0
 37 66  1  0  0  0
 37107  1  0  0  0
 38 43  2  0  0  0
 38 46  1  0  0  0
 38 47  1  0  0  0
 39 64  1  0  0  0
 39 67  2  0  0  0
 40 52  1  0  0  0
 40 53  2  0  0  0
 40 58  1  0  0  0
 41108  1  0  0  0
 41109  1  0  0  0
 41110  1  0  0  0
 41 48  1  0  0  0
 42 43  1  0  0  0
 42 66  1  0  0  0
 42111  1  0  0  0
 42112  1  0  0  0
 43 44  1  0  0  0
 44113  1  0  0  0
 45 46  2  0  0  0
 45114  1  0  0  0
 46115  1  0  0  0
 47116  1  0  0  0
 47117  1  0  0  0
 48 56  1  0  0  0
 48 65  1  0  0  0
 48118  1  0  0  0
 49 50  1  0  0  0
 49 53  1  0  0  0
 49 64  1  0  0  0
 49119  1  0  0  0
 50 51  1  0  0  0
 50120  1  0  0  0
 50121  1  0  0  0
 51 52  1  0  0  0
 51122  1  0  0  0
 51123  1  0  0  0
 52124  1  0  0  0
 52125  1  0  0  0
 53 54  1  0  0  0
 54 55  2  0  0  0
 54126  1  0  0  0
 55 57  1  0  0  0
 55127  1  0  0  0
 56 69  2  0  0  0
 57 58  2  0  0  0
 57128  1  0  0  0
 58129  1  0  0  0
 59 60  1  0  0  0
 59 61  1  0  0  0
 59 62  1  0  0  0
 60130  1  0  0  0
 60131  1  0  0  0
 60132  1  0  0  0
 61133  1  0  0  0
 61134  1  0  0  0
 61135  1  0  0  0
 62136  1  0  0  0
 62137  1  0  0  0
 62138  1  0  0  0
 63 65  1  0  0  0
 63139  1  0  0  0
 63140  1  0  0  0
 63141  1  0  0  0
 64142  1  0  0  0
 65143  1  0  0  0
 68 79  1  0  0  0
 71 72  2  0  0  0
 71 75  1  0  0  0
 71144  1  0  0  0
 72 76  1  0  0  0
 72145  1  0  0  0
 73 74  1  0  0  0
 73 75  2  0  0  0
 73146  1  0  0  0
 74 76  2  0  0  0
 74 77  1  0  0  0
 75 81  1  0  0  0
 76 80  1  0  0  0
 77 82  1  0  0  0
 77 83  2  0  0  0
 78 79  1  0  0  0
 78 81  1  0  0  0
 78 84  2  0  0  0
 79147  1  0  0  0
 79148  1  0  0  0
 80149  1  0  0  0
 80150  1  0  0  0
 81151  1  0  0  0
 82152  1  0  0  0
M  ISO  4   1 100  68 101  79 101  82 100
M  END
> <chiral flag>
0

> <version>
0

> <s_m_source_file>
/data/baiqing/PycharmProjects/Reinvent-master-3.2/result/LINK_invent/BTK/process_docking_weight1_custom_product_contain_oxygen_bond_distance_aromatic_linkinvent_7_9_3/rearranged_h_0094.sdf

> <i_m_source_file_index>
29

> <r_mmod_Potential_Energy-OPLS-2005>
184.549713134766

> <r_mmod_Stretch_Energy-OPLS-2005>
140.825012207031

> <r_mmod_Bend_Energy-OPLS-2005>
175.943008422852

> <r_mmod_Torsional_Energy-OPLS-2005>
274.972778320312

> <r_mmod_Improper_Torsional_Energy-OPLS-2005>
17.4707717895508

> <r_mmod_Van_der_Waal_Energy-OPLS-2005>
152.395782470703

> <r_mmod_Electrostatic_Energy-OPLS-2005>
-424.707061767578

> <r_mmod_Solvation_Energy-OPLS-2005>
-253.890441894531

> <b_mmod_Minimization_Converged-OPLS-2005>
0

> <r_mmod_RMS_Derivative-OPLS-2005>
7.44180631637573

$$$$
29
                    3D
 Structure written by MMmdl.
156164  0  0  1  0            999 V2000
  -30.7007  -14.6538   20.4887 C   0  0  0  0  0  0
  -30.4110  -12.4066   19.4565 C   0  0  0  0  0  0
  -29.4977  -12.4968   18.2198 C   0  0  0  0  0  0
  -28.0234  -12.3395   18.6356 C   0  0  0  0  0  0
  -27.6405  -13.2349   19.8456 C   0  0  2  0  0  0
  -28.6890  -13.1700   20.9774 C   0  0  0  0  0  0
  -25.2517  -13.8203   20.5712 C   0  0  0  0  0  0
  -24.1813  -13.0437   20.9201 C   0  0  0  0  0  0
  -24.6409  -11.6918   20.8736 C   0  0  0  0  0  0
  -23.9086  -10.4290   21.0393 C   0  0  0  0  0  0
  -24.3627   -9.4208   21.9174 C   0  0  0  0  0  0
  -23.6297   -8.2247   22.0751 C   0  0  0  0  0  0
  -22.4284   -8.0281   21.3545 C   0  0  0  0  0  0
  -21.9918   -9.0250   20.4649 C   0  0  0  0  0  0
  -22.7249  -10.2131   20.3050 C   0  0  0  0  0  0
  -21.6858   -6.0739   22.5274 C   0  0  0  0  0  0
  -21.4019   -6.5643   23.8208 C   0  0  0  0  0  0
  -21.3659   -5.6798   24.9169 C   0  0  0  0  0  0
  -21.6040   -4.3058   24.7227 C   0  0  0  0  0  0
  -21.8819   -3.8151   23.4345 C   0  0  0  0  0  0
  -21.9197   -4.6964   22.3402 C   0  0  0  0  0  0
  -22.7833  -13.5217   21.1851 C   0  0  0  0  0  0
  -22.1666   -4.2152   21.0978 F   0  0  0  0  0  0
  -21.5623   -3.4538   25.7741 F   0  0  0  0  0  0
  -29.9926  -13.4821   20.3814 N   0  0  0  0  0  0
  -26.2946  -12.9425   20.3283 N   0  0  0  0  0  0
  -25.9341  -11.6558   20.5739 N   0  0  0  0  0  0
  -22.0493  -12.8202   22.0407 N   0  0  0  0  0  0
  -25.4190  -15.1931   20.4138 N   0  0  0  0  0  0
  -31.8959  -14.6524   20.1847 O   0  0  0  0  0  0
  -21.6648   -6.8880   21.4243 O   0  0  0  0  0  0
  -22.3518  -14.5524   20.6705 O   0  0  0  0  0  0
  -24.6285  -31.8615   23.2084 C   0  0  0  0  0  0
  -25.9141  -32.4784   23.8394 C   0  0  1  0  0  0
  -27.2003  -27.2967   20.1014 C   0  0  0  0  0  0
  -25.5976  -33.8589   24.2310 N   0  0  0  0  0  0
  -23.4203  -30.4926   21.5505 C   0  0  2  0  0  0
  -24.8623  -28.9598   20.1052 C   0  0  0  0  0  0
  -22.7475  -29.4637   22.4914 C   0  0  0  0  0  0
  -18.0298  -28.1366   22.8489 C   0  0  0  0  0  0
  -24.1492  -36.7293   23.2630 C   0  0  0  0  0  0
  -25.9669  -30.7800   21.3897 C   0  0  0  0  0  0
  -26.0328  -29.4086   20.7278 C   0  0  0  0  0  0
  -27.2014  -28.5846   20.7286 C   0  0  0  0  0  0
  -26.0110  -26.9362   19.4193 C   0  0  0  0  0  0
  -24.8545  -27.7280   19.4453 C   0  0  0  0  0  0
  -23.6349  -29.8441   20.1599 C   0  0  0  0  0  0
  -25.4120  -36.3089   24.0324 C   0  0  1  0  0  0
  -20.5897  -28.3691   23.1268 C   0  0  2  0  0  0
  -20.6788  -26.9411   22.5402 C   0  0  0  0  0  0
  -19.5759  -26.6366   21.5212 C   0  0  0  0  0  0
  -18.1936  -26.7917   22.1616 C   0  0  0  0  0  0
  -19.1545  -28.8845   23.2879 C   0  0  0  0  0  0
  -18.9464  -30.1448   23.8897 C   0  0  0  0  0  0
  -17.6462  -30.6579   24.0563 C   0  0  0  0  0  0
  -25.9061  -34.9455   23.5105 C   0  0  0  0  0  0
  -16.5355  -29.9079   23.6329 C   0  0  0  0  0  0
  -16.7282  -28.6491   23.0360 C   0  0  0  0  0  0
  -26.4521  -31.6584   25.0759 C   0  0  0  0  0  0
  -25.3746  -31.3739   26.1488 C   0  0  0  0  0  0
  -27.0355  -30.2998   24.6233 C   0  0  0  0  0  0
  -27.6078  -32.4318   25.7526 C   0  0  0  0  0  0
  -27.5579  -37.1803   24.8456 C   0  0  0  0  0  0
  -21.4185  -29.3053   22.3652 N   0  0  0  0  0  0
  -26.4286  -37.3787   23.9412 N   0  0  0  0  0  0
  -24.6908  -31.0615   22.1051 N   0  0  0  0  0  0
  -23.4201  -28.8147   23.2973 O   0  0  0  0  0  0
  -28.2906  -26.4021   20.1844 O   0  0  0  0  0  0
  -26.5591  -34.8910   22.4654 O   0  0  0  0  0  0
  -23.5443  -32.1440   23.7393 O   0  0  0  0  0  0
  -29.3329  -18.8054   19.4977 C   0  0  0  0  0  0
  -29.5463  -20.8032   21.4539 C   0  0  0  0  0  0
  -29.8823  -18.4237   20.7482 C   0  0  0  0  0  0
  -28.9262  -20.1496   19.2197 C   0  0  0  0  0  0
  -29.0445  -21.1970   20.1861 C   0  0  0  0  0  0
  -29.9604  -19.4630   21.7244 C   0  0  0  0  0  0
  -30.5988  -17.0684   20.9584 C   0  0  0  0  0  0
  -28.8532  -23.8141   20.3569 C   0  0  0  0  0  0
  -28.4119  -20.4596   17.8231 C   0  0  0  0  0  0
  -28.6430  -25.1150   18.1528 C   0  0  0  0  0  0
  -28.1576  -25.0298   19.6096 C   0  0  2  0  0  0
  -28.6239  -22.5607   19.8363 N   0  0  0  0  0  0
  -30.0233  -15.8428   20.6872 N   0  0  0  0  0  0
  -31.7531  -17.1485   21.3961 O   0  0  0  0  0  0
  -29.5430  -24.0102   21.3613 O   0  0  0  0  0  0
  -30.4637  -19.1954   22.9540 F   0  0  0  0  0  0
  -31.4572  -12.4833   19.1562 H   0  0  0  0  0  0
  -30.3129  -11.4313   19.9369 H   0  0  0  0  0  0
  -29.7663  -11.7288   17.4942 H   0  0  0  0  0  0
  -29.6465  -13.4557   17.7196 H   0  0  0  0  0  0
  -27.8670  -11.2902   18.8869 H   0  0  0  0  0  0
  -27.3697  -12.5485   17.7885 H   0  0  0  0  0  0
  -27.6355  -14.2584   19.4691 H   0  0  0  0  0  0
  -28.7058  -12.1818   21.4387 H   0  0  0  0  0  0
  -28.4418  -13.8763   21.7710 H   0  0  0  0  0  0
  -25.2770   -9.5692   22.4743 H   0  0  0  0  0  0
  -24.0007   -7.4652   22.7477 H   0  0  0  0  0  0
  -21.0843   -8.8767   19.8957 H   0  0  0  0  0  0
  -22.3695  -10.9667   19.6157 H   0  0  0  0  0  0
  -21.2014   -7.6152   23.9712 H   0  0  0  0  0  0
  -21.1478   -6.0529   25.9074 H   0  0  0  0  0  0
  -22.0597   -2.7612   23.2846 H   0  0  0  0  0  0
  -22.4128  -11.9863   22.4788 H   0  0  0  0  0  0
  -21.1109  -13.1211   22.2615 H   0  0  0  0  0  0
  -24.6483  -15.8423   20.5254 H   0  0  0  0  0  0
  -26.2618  -15.6361   20.0726 H   0  0  0  0  0  0
  -26.7194  -32.5441   23.1119 H   0  0  0  0  0  0
  -25.0219  -33.9766   25.0521 H   0  0  0  0  0  0
  -22.7167  -31.3169   21.4156 H   0  0  0  0  0  0
  -23.3764  -35.9607   23.3276 H   0  0  0  0  0  0
  -24.3589  -36.8942   22.2046 H   0  0  0  0  0  0
  -23.7219  -37.6479   23.6666 H   0  0  0  0  0  0
  -26.1102  -31.5437   20.6242 H   0  0  0  0  0  0
  -26.8443  -30.8198   22.0234 H   0  0  0  0  0  0
  -28.0934  -28.9142   21.2429 H   0  0  0  0  0  0
  -25.9116  -26.0348   18.8393 H   0  0  0  0  0  0
  -23.9643  -27.3903   18.9330 H   0  0  0  0  0  0
  -23.7637  -30.6306   19.4157 H   0  0  0  0  0  0
  -22.7514  -29.2869   19.8431 H   0  0  0  0  0  0
  -25.1287  -36.1944   25.0808 H   0  0  0  0  0  0
  -21.0010  -28.3275   24.1383 H   0  0  0  0  0  0
  -20.5710  -26.2297   23.3601 H   0  0  0  0  0  0
  -21.6651  -26.7449   22.1178 H   0  0  0  0  0  0
  -19.6937  -25.6281   21.1234 H   0  0  0  0  0  0
  -19.6699  -27.3187   20.6753 H   0  0  0  0  0  0
  -17.4211  -26.6683   21.4005 H   0  0  0  0  0  0
  -18.0336  -26.0040   22.8993 H   0  0  0  0  0  0
  -19.7943  -30.7265   24.2254 H   0  0  0  0  0  0
  -17.5023  -31.6259   24.5157 H   0  0  0  0  0  0
  -15.5360  -30.2982   23.7652 H   0  0  0  0  0  0
  -15.8676  -28.0808   22.7081 H   0  0  0  0  0  0
  -24.5937  -30.7059   25.7836 H   0  0  0  0  0  0
  -24.8912  -32.2901   26.4879 H   0  0  0  0  0  0
  -25.8071  -30.8951   27.0281 H   0  0  0  0  0  0
  -26.2923  -29.6764   24.1256 H   0  0  0  0  0  0
  -27.4023  -29.7256   25.4755 H   0  0  0  0  0  0
  -27.8815  -30.4273   23.9480 H   0  0  0  0  0  0
  -27.2706  -33.3650   26.2060 H   0  0  0  0  0  0
  -28.3917  -32.6840   25.0358 H   0  0  0  0  0  0
  -28.0713  -31.8461   26.5481 H   0  0  0  0  0  0
  -28.2578  -38.0120   24.7544 H   0  0  0  0  0  0
  -28.1093  -36.2655   24.6231 H   0  0  0  0  0  0
  -27.2303  -37.1392   25.8857 H   0  0  0  0  0  0
  -20.9348  -29.8814   21.6901 H   0  0  0  0  0  0
  -26.0170  -38.2849   24.1448 H   0  0  0  0  0  0
  -29.2926  -18.0680   18.7078 H   0  0  0  0  0  0
  -29.6372  -21.5361   22.2415 H   0  0  0  0  0  0
  -28.2299  -19.5479   17.2527 H   0  0  0  0  0  0
  -29.1466  -21.0503   17.2742 H   0  0  0  0  0  0
  -27.4726  -21.0111   17.8567 H   0  0  0  0  0  0
  -28.3265  -24.2490   17.5717 H   0  0  0  0  0  0
  -29.7313  -25.1698   18.1093 H   0  0  0  0  0  0
  -28.2492  -26.0009   17.6547 H   0  0  0  0  0  0
  -27.1253  -24.6939   19.6414 H   0  0  0  0  0  0
  -28.0730  -22.6021   18.9904 H   0  0  0  0  0  0
  -29.0231  -15.8273   20.5867 H   0  0  0  0  0  0
  1 25  1  0  0  0
  1 30  2  0  0  0
  1 83  1  0  0  0
  2  3  1  0  0  0
  2 25  1  0  0  0
  2 87  1  0  0  0
  2 88  1  0  0  0
  3  4  1  0  0  0
  3 89  1  0  0  0
  3 90  1  0  0  0
  4  5  1  0  0  0
  4 91  1  0  0  0
  4 92  1  0  0  0
  5  6  1  0  0  0
  5 26  1  0  0  0
  5 93  1  0  0  0
  6 25  1  0  0  0
  6 94  1  0  0  0
  6 95  1  0  0  0
  7  8  2  0  0  0
  7 26  1  0  0  0
  7 29  1  0  0  0
  8  9  1  0  0  0
  8 22  1  0  0  0
  9 10  1  0  0  0
  9 27  2  0  0  0
 10 11  2  0  0  0
 10 15  1  0  0  0
 11 12  1  0  0  0
 11 96  1  0  0  0
 12 13  2  0  0  0
 12 97  1  0  0  0
 13 14  1  0  0  0
 13 31  1  0  0  0
 14 15  2  0  0  0
 14 98  1  0  0  0
 15 99  1  0  0  0
 16 17  2  0  0  0
 16 21  1  0  0  0
 16 31  1  0  0  0
 17 18  1  0  0  0
 17100  1  0  0  0
 18 19  2  0  0  0
 18101  1  0  0  0
 19 20  1  0  0  0
 19 24  1  0  0  0
 20 21  2  0  0  0
 20102  1  0  0  0
 21 23  1  0  0  0
 22 28  1  0  0  0
 22 32  2  0  0  0
 26 27  1  0  0  0
 28103  1  0  0  0
 28104  1  0  0  0
 29105  1  0  0  0
 29106  1  0  0  0
 33 34  1  0  0  0
 33 66  1  0  0  0
 33 70  2  0  0  0
 34 36  1  0  0  0
 34 59  1  0  0  0
 34107  1  0  0  0
 35 44  2  0  0  0
 35 45  1  0  0  0
 35 68  1  0  0  0
 36 56  1  0  0  0
 36108  1  0  0  0
 37 39  1  0  0  0
 37 47  1  0  0  0
 37 66  1  0  0  0
 37109  1  0  0  0
 38 43  2  0  0  0
 38 46  1  0  0  0
 38 47  1  0  0  0
 39 64  1  0  0  0
 39 67  2  0  0  0
 40 52  1  0  0  0
 40 53  2  0  0  0
 40 58  1  0  0  0
 41110  1  0  0  0
 41111  1  0  0  0
 41112  1  0  0  0
 41 48  1  0  0  0
 42 43  1  0  0  0
 42 66  1  0  0  0
 42113  1  0  0  0
 42114  1  0  0  0
 43 44  1  0  0  0
 44115  1  0  0  0
 45 46  2  0  0  0
 45116  1  0  0  0
 46117  1  0  0  0
 47118  1  0  0  0
 47119  1  0  0  0
 48 56  1  0  0  0
 48 65  1  0  0  0
 48120  1  0  0  0
 49 50  1  0  0  0
 49 53  1  0  0  0
 49 64  1  0  0  0
 49121  1  0  0  0
 50 51  1  0  0  0
 50122  1  0  0  0
 50123  1  0  0  0
 51 52  1  0  0  0
 51124  1  0  0  0
 51125  1  0  0  0
 52126  1  0  0  0
 52127  1  0  0  0
 53 54  1  0  0  0
 54 55  2  0  0  0
 54128  1  0  0  0
 55 57  1  0  0  0
 55129  1  0  0  0
 56 69  2  0  0  0
 57 58  2  0  0  0
 57130  1  0  0  0
 58131  1  0  0  0
 59 60  1  0  0  0
 59 61  1  0  0  0
 59 62  1  0  0  0
 60132  1  0  0  0
 60133  1  0  0  0
 60134  1  0  0  0
 61135  1  0  0  0
 61136  1  0  0  0
 61137  1  0  0  0
 62138  1  0  0  0
 62139  1  0  0  0
 62140  1  0  0  0
 63 65  1  0  0  0
 63141  1  0  0  0
 63142  1  0  0  0
 63143  1  0  0  0
 64144  1  0  0  0
 65145  1  0  0  0
 68 81  1  0  0  0
 71 73  2  0  0  0
 71 74  1  0  0  0
 71146  1  0  0  0
 72 75  1  0  0  0
 72 76  2  0  0  0
 72147  1  0  0  0
 73 76  1  0  0  0
 73 77  1  0  0  0
 74 75  2  0  0  0
 74 79  1  0  0  0
 75 82  1  0  0  0
 76 86  1  0  0  0
 77 83  1  0  0  0
 77 84  2  0  0  0
 78 81  1  0  0  0
 78 82  1  0  0  0
 78 85  2  0  0  0
 79148  1  0  0  0
 79149  1  0  0  0
 79150  1  0  0  0
 80151  1  0  0  0
 80152  1  0  0  0
 80153  1  0  0  0
 80 81  1  0  0  0
 81154  1  0  0  0
 82155  1  0  0  0
 83156  1  0  0  0
M  ISO  4   1 100  68 101  81 101  83 100
M  END
> <chiral flag>
0

> <version>
0

> <s_m_source_file>
/data/baiqing/PycharmProjects/Reinvent-master-3.2/result/LINK_invent/BTK/process_docking_weight1_custom_product_contain_oxygen_bond_distance_aromatic_linkinvent_7_9_3/rearranged_h_0094.sdf

> <i_m_source_file_index>
30

> <r_mmod_Potential_Energy-OPLS-2005>
51.6864776611328

> <r_mmod_Stretch_Energy-OPLS-2005>
87.9013595581055

> <r_mmod_Bend_Energy-OPLS-2005>
159.093612670898

> <r_mmod_Torsional_Energy-OPLS-2005>
250.269180297852

> <r_mmod_Improper_Torsional_Energy-OPLS-2005>
7.18473386764526

> <r_mmod_Van_der_Waal_Energy-OPLS-2005>
159.484619140625

> <r_mmod_Electrostatic_Energy-OPLS-2005>
-417.296783447266

> <r_mmod_Solvation_Energy-OPLS-2005>
-261.832672119141

> <b_mmod_Minimization_Converged-OPLS-2005>
0

> <r_mmod_RMS_Derivative-OPLS-2005>
2.01203966140747

$$$$
30
                    3D
 Structure written by MMmdl.
155164  0  0  1  0            999 V2000
  -30.6500  -14.6910   20.5755 C   0  0  0  0  0  0
  -30.4347  -12.4479   19.4665 C   0  0  0  0  0  0
  -29.5097  -12.5313   18.2325 C   0  0  0  0  0  0
  -28.0358  -12.3477   18.6405 C   0  0  0  0  0  0
  -27.6488  -13.2261   19.8576 C   0  0  2  0  0  0
  -28.6862  -13.1051   20.9914 C   0  0  0  0  0  0
  -25.2538  -13.8189   20.5683 C   0  0  0  0  0  0
  -24.1815  -13.0440   20.9179 C   0  0  0  0  0  0
  -24.6397  -11.6915   20.8724 C   0  0  0  0  0  0
  -23.9072  -10.4295   21.0395 C   0  0  0  0  0  0
  -24.3621   -9.4211   21.9176 C   0  0  0  0  0  0
  -23.6295   -8.2247   22.0751 C   0  0  0  0  0  0
  -22.4275   -8.0284   21.3545 C   0  0  0  0  0  0
  -21.9910   -9.0257   20.4648 C   0  0  0  0  0  0
  -22.7239  -10.2135   20.3052 C   0  0  0  0  0  0
  -21.6855   -6.0737   22.5280 C   0  0  0  0  0  0
  -21.4016   -6.5640   23.8213 C   0  0  0  0  0  0
  -21.3660   -5.6793   24.9176 C   0  0  0  0  0  0
  -21.6043   -4.3055   24.7227 C   0  0  0  0  0  0
  -21.8818   -3.8148   23.4347 C   0  0  0  0  0  0
  -21.9194   -4.6965   22.3403 C   0  0  0  0  0  0
  -22.7838  -13.5226   21.1854 C   0  0  0  0  0  0
  -22.1661   -4.2150   21.0980 F   0  0  0  0  0  0
  -21.5628   -3.4539   25.7739 F   0  0  0  0  0  0
  -30.0031  -13.4759   20.4456 N   0  0  0  0  0  0
  -26.2963  -12.9385   20.3277 N   0  0  0  0  0  0
  -25.9325  -11.6530   20.5722 N   0  0  0  0  0  0
  -22.0492  -12.8219   22.0420 N   0  0  0  0  0  0
  -25.4250  -15.1911   20.4130 N   0  0  0  0  0  0
  -31.7432  -14.8638   20.0264 O   0  0  0  0  0  0
  -21.6640   -6.8880   21.4242 O   0  0  0  0  0  0
  -22.3516  -14.5531   20.6706 O   0  0  0  0  0  0
  -24.6315  -31.8559   23.1998 C   0  0  0  0  0  0
  -25.9145  -32.4757   23.8338 C   0  0  1  0  0  0
  -27.2184  -27.2663   20.1205 C   0  0  0  0  0  0
  -25.5943  -33.8560   24.2261 N   0  0  0  0  0  0
  -23.4274  -30.4806   21.5433 C   0  0  2  0  0  0
  -24.8739  -28.9324   20.1084 C   0  0  0  0  0  0
  -22.7503  -29.4609   22.4911 C   0  0  0  0  0  0
  -18.0293  -28.1387   22.8483 C   0  0  0  0  0  0
  -24.1493  -36.7284   23.2637 C   0  0  0  0  0  0
  -25.9746  -30.7693   21.3813 C   0  0  0  0  0  0
  -26.0464  -29.3940   20.7199 C   0  0  0  0  0  0
  -27.2203  -28.5729   20.7169 C   0  0  0  0  0  0
  -26.0217  -26.8803   19.4708 C   0  0  0  0  0  0
  -24.8668  -27.6831   19.4736 C   0  0  0  0  0  0
  -23.6450  -29.8188   20.1583 C   0  0  0  0  0  0
  -25.4118  -36.3069   24.0326 C   0  0  1  0  0  0
  -20.5898  -28.3700   23.1266 C   0  0  2  0  0  0
  -20.6781  -26.9416   22.5408 C   0  0  0  0  0  0
  -19.5756  -26.6380   21.5214 C   0  0  0  0  0  0
  -18.1936  -26.7928   22.1626 C   0  0  0  0  0  0
  -19.1547  -28.8861   23.2869 C   0  0  0  0  0  0
  -18.9468  -30.1462   23.8887 C   0  0  0  0  0  0
  -17.6466  -30.6586   24.0562 C   0  0  0  0  0  0
  -25.9058  -34.9441   23.5094 C   0  0  0  0  0  0
  -16.5357  -29.9083   23.6331 C   0  0  0  0  0  0
  -16.7279  -28.6502   23.0350 C   0  0  0  0  0  0
  -26.4506  -31.6582   25.0730 C   0  0  0  0  0  0
  -25.3727  -31.3752   26.1452 C   0  0  0  0  0  0
  -27.0346  -30.2989   24.6233 C   0  0  0  0  0  0
  -27.6060  -32.4325   25.7498 C   0  0  0  0  0  0
  -27.5582  -37.1792   24.8461 C   0  0  0  0  0  0
  -21.4210  -29.3048   22.3654 N   0  0  0  0  0  0
  -26.4290  -37.3770   23.9412 N   0  0  0  0  0  0
  -24.6968  -31.0529   22.0975 N   0  0  0  0  0  0
  -23.4205  -28.8143   23.3004 O   0  0  0  0  0  0
  -28.3089  -26.3636   20.1917 O   0  0  0  0  0  0
  -26.5625  -34.8915   22.4661 O   0  0  0  0  0  0
  -23.5466  -32.1382   23.7295 O   0  0  0  0  0  0
  -30.1773  -19.2962   19.8050 C   0  0  0  0  0  0
  -30.3797  -17.8757   19.9658 C   0  0  0  0  0  0
  -28.8007  -19.3344   21.7057 C   0  0  0  0  0  0
  -29.4026  -20.1227   20.6844 C   0  0  0  0  0  0
  -29.8159  -17.1273   21.0429 C   0  0  0  0  0  0
  -28.9760  -17.9266   21.8811 C   0  0  0  0  0  0
  -28.5562  -22.6128   21.3327 C   0  0  0  0  0  0
  -29.3438  -22.4327   19.4270 C   0  0  0  0  0  0
  -29.0835  -23.7153   20.3213 C   0  0  1  0  0  0
  -30.1940  -15.3755   22.8043 C   0  0  0  0  0  0
  -28.0662  -24.9016   19.9190 C   0  0  0  0  0  0
  -29.2516  -21.6042   20.6369 N   0  0  0  0  0  0
  -30.0879  -15.6859   21.3650 N   0  0  0  0  0  0
  -27.8093  -22.5582   22.2879 O   0  0  0  0  0  0
  -28.3002  -17.3554   22.9070 F   0  0  0  0  0  0
  -31.4750  -12.5755   19.1632 H   0  0  0  0  0  0
  -30.3827  -11.4558   19.9177 H   0  0  0  0  0  0
  -29.7908  -11.7760   17.4974 H   0  0  0  0  0  0
  -29.6372  -13.4981   17.7429 H   0  0  0  0  0  0
  -27.8885  -11.2947   18.8840 H   0  0  0  0  0  0
  -27.3790  -12.5594   17.7957 H   0  0  0  0  0  0
  -27.6622  -14.2596   19.5107 H   0  0  0  0  0  0
  -28.7132  -12.0878   21.3842 H   0  0  0  0  0  0
  -28.3810  -13.7341   21.8236 H   0  0  0  0  0  0
  -25.2768   -9.5688   22.4746 H   0  0  0  0  0  0
  -24.0007   -7.4640   22.7471 H   0  0  0  0  0  0
  -21.0840   -8.8776   19.8956 H   0  0  0  0  0  0
  -22.3695  -10.9672   19.6160 H   0  0  0  0  0  0
  -21.2007   -7.6149   23.9718 H   0  0  0  0  0  0
  -21.1482   -6.0523   25.9080 H   0  0  0  0  0  0
  -22.0596   -2.7610   23.2848 H   0  0  0  0  0  0
  -22.4115  -11.9881   22.4805 H   0  0  0  0  0  0
  -21.1114  -13.1245   22.2638 H   0  0  0  0  0  0
  -24.6659  -15.8510   20.5425 H   0  0  0  0  0  0
  -26.2906  -15.6332   20.1305 H   0  0  0  0  0  0
  -26.7209  -32.5402   23.1076 H   0  0  0  0  0  0
  -25.0094  -33.9696   25.0409 H   0  0  0  0  0  0
  -22.7240  -31.3034   21.3998 H   0  0  0  0  0  0
  -23.3755  -35.9615   23.3296 H   0  0  0  0  0  0
  -24.3584  -36.8912   22.2052 H   0  0  0  0  0  0
  -23.7246  -37.6485   23.6665 H   0  0  0  0  0  0
  -26.1179  -31.5326   20.6151 H   0  0  0  0  0  0
  -26.8501  -30.8130   22.0174 H   0  0  0  0  0  0
  -28.1151  -28.9196   21.2145 H   0  0  0  0  0  0
  -25.9387  -25.9320   18.9626 H   0  0  0  0  0  0
  -23.9709  -27.3264   18.9843 H   0  0  0  0  0  0
  -23.7709  -30.5971   19.4048 H   0  0  0  0  0  0
  -22.7631  -29.2539   19.8509 H   0  0  0  0  0  0
  -25.1301  -36.1912   25.0819 H   0  0  0  0  0  0
  -20.9993  -28.3279   24.1386 H   0  0  0  0  0  0
  -20.5678  -26.2312   23.3614 H   0  0  0  0  0  0
  -21.6650  -26.7435   22.1206 H   0  0  0  0  0  0
  -19.6916  -25.6289   21.1250 H   0  0  0  0  0  0
  -19.6693  -27.3185   20.6737 H   0  0  0  0  0  0
  -17.4207  -26.6674   21.4027 H   0  0  0  0  0  0
  -18.0336  -26.0072   22.9024 H   0  0  0  0  0  0
  -19.7943  -30.7282   24.2250 H   0  0  0  0  0  0
  -17.5019  -31.6266   24.5167 H   0  0  0  0  0  0
  -15.5357  -30.2982   23.7658 H   0  0  0  0  0  0
  -15.8679  -28.0818   22.7068 H   0  0  0  0  0  0
  -24.5899  -30.7100   25.7789 H   0  0  0  0  0  0
  -24.8925  -32.2933   26.4847 H   0  0  0  0  0  0
  -25.8040  -30.8951   27.0245 H   0  0  0  0  0  0
  -26.2932  -29.6736   24.1244 H   0  0  0  0  0  0
  -27.3993  -29.7255   25.4766 H   0  0  0  0  0  0
  -27.8830  -30.4243   23.9503 H   0  0  0  0  0  0
  -27.2665  -33.3627   26.2066 H   0  0  0  0  0  0
  -28.3870  -32.6882   25.0327 H   0  0  0  0  0  0
  -28.0728  -31.8461   26.5422 H   0  0  0  0  0  0
  -28.2592  -38.0095   24.7519 H   0  0  0  0  0  0
  -28.1087  -36.2629   24.6274 H   0  0  0  0  0  0
  -27.2306  -37.1429   25.8865 H   0  0  0  0  0  0
  -20.9392  -29.8773   21.6863 H   0  0  0  0  0  0
  -26.0168  -38.2844   24.1418 H   0  0  0  0  0  0
  -30.6846  -19.7752   18.9794 H   0  0  0  0  0  0
  -31.0269  -17.3739   19.2609 H   0  0  0  0  0  0
  -28.1713  -19.8329   22.4276 H   0  0  0  0  0  0
  -30.3235  -22.4106   18.9474 H   0  0  0  0  0  0
  -28.5440  -22.2216   18.7127 H   0  0  0  0  0  0
  -30.0429  -24.1261   20.6366 H   0  0  0  0  0  0
  -30.6687  -16.1987   23.3397 H   0  0  0  0  0  0
  -30.7936  -14.4879   23.0233 H   0  0  0  0  0  0
  -29.2148  -15.2088   23.2514 H   0  0  0  0  0  0
  -27.1064  -24.6517   20.3734 H   0  0  0  0  0  0
  -27.9004  -24.8273   18.8438 H   0  0  0  0  0  0
  1 25  1  0  0  0
  1 30  2  0  0  0
  1 83  1  0  0  0
  2  3  1  0  0  0
  2 25  1  0  0  0
  2 86  1  0  0  0
  2 87  1  0  0  0
  3  4  1  0  0  0
  3 88  1  0  0  0
  3 89  1  0  0  0
  4  5  1  0  0  0
  4 90  1  0  0  0
  4 91  1  0  0  0
  5  6  1  0  0  0
  5 26  1  0  0  0
  5 92  1  0  0  0
  6 25  1  0  0  0
  6 93  1  0  0  0
  6 94  1  0  0  0
  7  8  2  0  0  0
  7 26  1  0  0  0
  7 29  1  0  0  0
  8  9  1  0  0  0
  8 22  1  0  0  0
  9 10  1  0  0  0
  9 27  2  0  0  0
 10 11  2  0  0  0
 10 15  1  0  0  0
 11 12  1  0  0  0
 11 95  1  0  0  0
 12 13  2  0  0  0
 12 96  1  0  0  0
 13 14  1  0  0  0
 13 31  1  0  0  0
 14 15  2  0  0  0
 14 97  1  0  0  0
 15 98  1  0  0  0
 16 17  2  0  0  0
 16 21  1  0  0  0
 16 31  1  0  0  0
 17 18  1  0  0  0
 17 99  1  0  0  0
 18 19  2  0  0  0
 18100  1  0  0  0
 19 20  1  0  0  0
 19 24  1  0  0  0
 20 21  2  0  0  0
 20101  1  0  0  0
 21 23  1  0  0  0
 22 28  1  0  0  0
 22 32  2  0  0  0
 26 27  1  0  0  0
 28102  1  0  0  0
 28103  1  0  0  0
 29104  1  0  0  0
 29105  1  0  0  0
 33 34  1  0  0  0
 33 66  1  0  0  0
 33 70  2  0  0  0
 34 36  1  0  0  0
 34 59  1  0  0  0
 34106  1  0  0  0
 35 44  2  0  0  0
 35 45  1  0  0  0
 35 68  1  0  0  0
 36 56  1  0  0  0
 36107  1  0  0  0
 37 39  1  0  0  0
 37 47  1  0  0  0
 37 66  1  0  0  0
 37108  1  0  0  0
 38 43  2  0  0  0
 38 46  1  0  0  0
 38 47  1  0  0  0
 39 64  1  0  0  0
 39 67  2  0  0  0
 40 52  1  0  0  0
 40 53  2  0  0  0
 40 58  1  0  0  0
 41109  1  0  0  0
 41110  1  0  0  0
 41111  1  0  0  0
 41 48  1  0  0  0
 42 43  1  0  0  0
 42 66  1  0  0  0
 42112  1  0  0  0
 42113  1  0  0  0
 43 44  1  0  0  0
 44114  1  0  0  0
 45 46  2  0  0  0
 45115  1  0  0  0
 46116  1  0  0  0
 47117  1  0  0  0
 47118  1  0  0  0
 48 56  1  0  0  0
 48 65  1  0  0  0
 48119  1  0  0  0
 49 50  1  0  0  0
 49 53  1  0  0  0
 49 64  1  0  0  0
 49120  1  0  0  0
 50 51  1  0  0  0
 50121  1  0  0  0
 50122  1  0  0  0
 51 52  1  0  0  0
 51123  1  0  0  0
 51124  1  0  0  0
 52125  1  0  0  0
 52126  1  0  0  0
 53 54  1  0  0  0
 54 55  2  0  0  0
 54127  1  0  0  0
 55 57  1  0  0  0
 55128  1  0  0  0
 56 69  2  0  0  0
 57 58  2  0  0  0
 57129  1  0  0  0
 58130  1  0  0  0
 59 60  1  0  0  0
 59 61  1  0  0  0
 59 62  1  0  0  0
 60131  1  0  0  0
 60132  1  0  0  0
 60133  1  0  0  0
 61134  1  0  0  0
 61135  1  0  0  0
 61136  1  0  0  0
 62137  1  0  0  0
 62138  1  0  0  0
 62139  1  0  0  0
 63 65  1  0  0  0
 63140  1  0  0  0
 63141  1  0  0  0
 63142  1  0  0  0
 64143  1  0  0  0
 65144  1  0  0  0
 68 81  1  0  0  0
 71 72  2  0  0  0
 71 74  1  0  0  0
 71145  1  0  0  0
 72 75  1  0  0  0
 72146  1  0  0  0
 73 74  2  0  0  0
 73 76  1  0  0  0
 73147  1  0  0  0
 74 82  1  0  0  0
 75 76  2  0  0  0
 75 83  1  0  0  0
 76 85  1  0  0  0
 77 79  1  0  0  0
 77 82  1  0  0  0
 77 84  2  0  0  0
 78 79  1  0  0  0
 78 82  1  0  0  0
 78148  1  0  0  0
 78149  1  0  0  0
 79 81  1  0  0  0
 79150  1  0  0  0
 80 83  1  0  0  0
 80151  1  0  0  0
 80152  1  0  0  0
 80153  1  0  0  0
 81154  1  0  0  0
 81155  1  0  0  0
M  ISO  4   1 100  68 101  81 101  83 100
M  END
> <chiral flag>
0

> <version>
0

> <s_m_source_file>
/data/baiqing/PycharmProjects/Reinvent-master-3.2/result/LINK_invent/BTK/process_docking_weight1_custom_product_contain_oxygen_bond_distance_aromatic_linkinvent_7_9_3/rearranged_h_0094.sdf

> <i_m_source_file_index>
31

> <r_mmod_Potential_Energy-OPLS-2005>
304.565155029297

> <r_mmod_Stretch_Energy-OPLS-2005>
118.70386505127

> <r_mmod_Bend_Energy-OPLS-2005>
202.110305786133

> <r_mmod_Torsional_Energy-OPLS-2005>
288.956390380859

> <r_mmod_Improper_Torsional_Energy-OPLS-2005>
4.88110399246216

> <r_mmod_Van_der_Waal_Energy-OPLS-2005>
152.730270385742

> <r_mmod_Electrostatic_Energy-OPLS-2005>
-330.493041992188

> <r_mmod_Solvation_Energy-OPLS-2005>
-203.926773071289

> <b_mmod_Minimization_Converged-OPLS-2005>
0

> <r_mmod_RMS_Derivative-OPLS-2005>
0.480326026678085

$$$$
31
                    3D
 Structure written by MMmdl.
164173  0  0  1  0            999 V2000
  -30.6844  -14.5504   20.4358 C   0  0  0  0  0  0
  -30.4220  -12.2998   19.4555 C   0  0  0  0  0  0
  -29.4958  -12.3495   18.2218 C   0  0  0  0  0  0
  -28.0055  -12.3042   18.6288 C   0  0  0  0  0  0
  -27.6442  -13.1923   19.8521 C   0  0  2  0  0  0
  -28.6962  -13.0891   20.9761 C   0  0  0  0  0  0
  -25.2561  -13.8141   20.5691 C   0  0  0  0  0  0
  -24.1799  -13.0423   20.9175 C   0  0  0  0  0  0
  -24.6355  -11.6900   20.8793 C   0  0  0  0  0  0
  -23.9026  -10.4288   21.0453 C   0  0  0  0  0  0
  -24.3608   -9.4195   21.9198 C   0  0  0  0  0  0
  -23.6283   -8.2230   22.0761 C   0  0  0  0  0  0
  -22.4263   -8.0290   21.3548 C   0  0  0  0  0  0
  -21.9900   -9.0259   20.4647 C   0  0  0  0  0  0
  -22.7227  -10.2129   20.3060 C   0  0  0  0  0  0
  -21.6846   -6.0749   22.5281 C   0  0  0  0  0  0
  -21.4027   -6.5651   23.8219 C   0  0  0  0  0  0
  -21.3636   -5.6795   24.9175 C   0  0  0  0  0  0
  -21.6029   -4.3069   24.7226 C   0  0  0  0  0  0
  -21.8833   -3.8162   23.4348 C   0  0  0  0  0  0
  -21.9210   -4.6977   22.3406 C   0  0  0  0  0  0
  -22.7837  -13.5247   21.1834 C   0  0  0  0  0  0
  -22.1674   -4.2166   21.0980 F   0  0  0  0  0  0
  -21.5599   -3.4545   25.7729 F   0  0  0  0  0  0
  -30.0103  -13.3646   20.3833 N   0  0  0  0  0  0
  -26.2941  -12.9247   20.3324 N   0  0  0  0  0  0
  -25.9273  -11.6438   20.5847 N   0  0  0  0  0  0
  -22.0499  -12.8215   22.0391 N   0  0  0  0  0  0
  -25.4330  -15.1852   20.4147 N   0  0  0  0  0  0
  -31.8872  -14.6291   20.1714 O   0  0  0  0  0  0
  -21.6637   -6.8887   21.4236 O   0  0  0  0  0  0
  -22.3518  -14.5561   20.6729 O   0  0  0  0  0  0
  -24.6155  -31.8624   23.2055 C   0  0  0  0  0  0
  -25.9061  -32.4769   23.8345 C   0  0  1  0  0  0
  -27.2396  -27.3976   20.0950 C   0  0  0  0  0  0
  -25.5915  -33.8570   24.2243 N   0  0  0  0  0  0
  -23.4034  -30.4822   21.5471 C   0  0  2  0  0  0
  -24.8487  -28.9369   20.1219 C   0  0  0  0  0  0
  -22.7392  -29.4635   22.5006 C   0  0  0  0  0  0
  -18.0263  -28.1374   22.8504 C   0  0  0  0  0  0
  -24.1486  -36.7300   23.2639 C   0  0  0  0  0  0
  -25.9350  -30.8157   21.3644 C   0  0  0  0  0  0
  -26.0106  -29.4470   20.7111 C   0  0  0  0  0  0
  -27.2033  -28.6836   20.6941 C   0  0  0  0  0  0
  -26.0483  -26.8993   19.5202 C   0  0  0  0  0  0
  -24.8627  -27.6615   19.5303 C   0  0  0  0  0  0
  -23.6077  -29.7996   20.1683 C   0  0  0  0  0  0
  -25.4113  -36.3060   24.0305 C   0  0  1  0  0  0
  -20.5852  -28.3637   23.1337 C   0  0  2  0  0  0
  -20.6743  -26.9375   22.5428 C   0  0  0  0  0  0
  -19.5722  -26.6374   21.5230 C   0  0  0  0  0  0
  -18.1903  -26.7912   22.1641 C   0  0  0  0  0  0
  -19.1520  -28.8826   23.2903 C   0  0  0  0  0  0
  -18.9449  -30.1445   23.8894 C   0  0  0  0  0  0
  -17.6453  -30.6584   24.0562 C   0  0  0  0  0  0
  -25.9052  -34.9440   23.5059 C   0  0  0  0  0  0
  -16.5341  -29.9080   23.6349 C   0  0  0  0  0  0
  -16.7253  -28.6505   23.0356 C   0  0  0  0  0  0
  -26.4471  -31.6602   25.0717 C   0  0  0  0  0  0
  -25.3718  -31.3815   26.1460 C   0  0  0  0  0  0
  -27.0324  -30.3010   24.6225 C   0  0  0  0  0  0
  -27.5994  -32.4358   25.7526 C   0  0  0  0  0  0
  -27.5564  -37.1796   24.8449 C   0  0  0  0  0  0
  -21.4120  -29.3013   22.3743 N   0  0  0  0  0  0
  -26.4278  -37.3761   23.9401 N   0  0  0  0  0  0
  -24.6693  -31.0708   22.0956 N   0  0  0  0  0  0
  -23.4149  -28.8167   23.3047 O   0  0  0  0  0  0
  -28.4395  -26.7016   20.0936 O   0  0  0  0  0  0
  -26.5622  -34.8912   22.4627 O   0  0  0  0  0  0
  -23.5348  -32.1387   23.7458 O   0  0  0  0  0  0
  -31.3221  -18.2244   22.7585 C   0  0  0  0  0  0
  -30.5584  -19.3661   22.4322 C   0  0  0  0  0  0
  -31.0823  -16.9873   22.1294 C   0  0  0  0  0  0
  -29.2680  -18.0205   20.8879 C   0  0  0  0  0  0
  -29.4911  -19.2735   21.5082 C   0  0  0  0  0  0
  -30.0815  -16.8728   21.1360 C   0  0  0  0  0  0
  -28.9583  -22.2680   22.7664 C   0  0  0  0  0  0
  -29.5851  -23.6389   23.0392 C   0  0  0  0  0  0
  -29.2982  -24.7313   21.9882 C   0  0  0  0  0  0
  -28.9399  -22.8258   20.3663 C   0  0  0  0  0  0
  -28.4808  -24.2695   20.7694 C   0  0  2  0  0  0
  -29.4358  -15.9691   18.9650 C   0  0  0  0  0  0
  -28.5202  -20.4366   21.1684 C   0  0  0  0  0  0
  -28.5618  -25.3345   19.6285 C   0  0  0  0  0  0
  -28.8896  -21.8426   21.4849 N   0  0  0  0  0  0
  -29.9150  -15.6805   20.3288 N   0  0  0  0  0  0
  -28.6085  -21.5764   23.7278 O   0  0  0  0  0  0
  -31.4638  -12.3889   19.1427 H   0  0  0  0  0  0
  -30.3460  -11.3283   19.9447 H   0  0  0  0  0  0
  -29.7042  -11.4889   17.5841 H   0  0  0  0  0  0
  -29.7105  -13.2100   17.5957 H   0  0  0  0  0  0
  -27.7754  -11.2628   18.8575 H   0  0  0  0  0  0
  -27.3771  -12.5684   17.7765 H   0  0  0  0  0  0
  -27.6385  -14.2101   19.4882 H   0  0  0  0  0  0
  -28.6781  -12.0965   21.4286 H   0  0  0  0  0  0
  -28.4714  -13.7989   21.7746 H   0  0  0  0  0  0
  -25.2770   -9.5678   22.4742 H   0  0  0  0  0  0
  -24.0021   -7.4618   22.7462 H   0  0  0  0  0  0
  -21.0840   -8.8784   19.8936 H   0  0  0  0  0  0
  -22.3718  -10.9676   19.6161 H   0  0  0  0  0  0
  -21.2038   -7.6165   23.9727 H   0  0  0  0  0  0
  -21.1411   -6.0524   25.9066 H   0  0  0  0  0  0
  -22.0633   -2.7628   23.2848 H   0  0  0  0  0  0
  -22.4163  -11.9878   22.4745 H   0  0  0  0  0  0
  -21.1105  -13.1199   22.2610 H   0  0  0  0  0  0
  -24.6800  -15.8527   20.5383 H   0  0  0  0  0  0
  -26.3092  -15.6197   20.1547 H   0  0  0  0  0  0
  -26.7124  -32.5450   23.1101 H   0  0  0  0  0  0
  -25.0026  -33.9716   25.0352 H   0  0  0  0  0  0
  -22.6945  -31.2987   21.3982 H   0  0  0  0  0  0
  -23.3719  -35.9661   23.3304 H   0  0  0  0  0  0
  -24.3573  -36.8931   22.2055 H   0  0  0  0  0  0
  -23.7282  -37.6515   23.6673 H   0  0  0  0  0  0
  -26.0596  -31.5812   20.5963 H   0  0  0  0  0  0
  -26.8168  -30.8594   21.9931 H   0  0  0  0  0  0
  -28.1015  -29.0778   21.1492 H   0  0  0  0  0  0
  -26.0019  -25.9240   19.0627 H   0  0  0  0  0  0
  -23.9643  -27.2525   19.0883 H   0  0  0  0  0  0
  -23.6977  -30.5589   19.3915 H   0  0  0  0  0  0
  -22.7349  -29.2035   19.8921 H   0  0  0  0  0  0
  -25.1295  -36.1889   25.0793 H   0  0  0  0  0  0
  -20.9944  -28.3215   24.1455 H   0  0  0  0  0  0
  -20.5674  -26.2242   23.3615 H   0  0  0  0  0  0
  -21.6603  -26.7426   22.1205 H   0  0  0  0  0  0
  -19.6895  -25.6296   21.1244 H   0  0  0  0  0  0
  -19.6679  -27.3186   20.6769 H   0  0  0  0  0  0
  -17.4164  -26.6667   21.4044 H   0  0  0  0  0  0
  -18.0303  -26.0060   22.9043 H   0  0  0  0  0  0
  -19.7936  -30.7259   24.2250 H   0  0  0  0  0  0
  -17.5021  -31.6276   24.5134 H   0  0  0  0  0  0
  -15.5346  -30.2970   23.7708 H   0  0  0  0  0  0
  -15.8655  -28.0838   22.7062 H   0  0  0  0  0  0
  -24.5810  -30.7245   25.7834 H   0  0  0  0  0  0
  -24.9014  -32.3026   26.4899 H   0  0  0  0  0  0
  -25.8022  -30.8980   27.0231 H   0  0  0  0  0  0
  -26.2945  -29.6794   24.1137 H   0  0  0  0  0  0
  -27.3849  -29.7254   25.4804 H   0  0  0  0  0  0
  -27.8869  -30.4263   23.9575 H   0  0  0  0  0  0
  -27.2523  -33.3607   26.2155 H   0  0  0  0  0  0
  -28.3806  -32.7017   25.0390 H   0  0  0  0  0  0
  -28.0659  -31.8470   26.5439 H   0  0  0  0  0  0
  -28.2550  -38.0119   24.7469 H   0  0  0  0  0  0
  -28.1072  -36.2629   24.6265 H   0  0  0  0  0  0
  -27.2273  -37.1430   25.8852 H   0  0  0  0  0  0
  -20.9275  -29.8723   21.6953 H   0  0  0  0  0  0
  -26.0141  -38.2820   24.1422 H   0  0  0  0  0  0
  -32.1149  -18.3010   23.4907 H   0  0  0  0  0  0
  -30.7976  -20.2926   22.9326 H   0  0  0  0  0  0
  -31.7158  -16.1514   22.3890 H   0  0  0  0  0  0
  -28.4542  -17.9694   20.1826 H   0  0  0  0  0  0
  -30.6605  -23.4773   23.1047 H   0  0  0  0  0  0
  -29.2703  -23.9823   24.0248 H   0  0  0  0  0  0
  -30.2513  -25.1361   21.6455 H   0  0  0  0  0  0
  -28.7779  -25.5615   22.4661 H   0  0  0  0  0  0
  -29.9638  -22.8517   19.9878 H   0  0  0  0  0  0
  -28.3183  -22.4849   19.5382 H   0  0  0  0  0  0
  -27.4331  -24.2066   21.0687 H   0  0  0  0  0  0
  -29.9521  -16.8389   18.5550 H   0  0  0  0  0  0
  -28.3672  -16.1808   18.9565 H   0  0  0  0  0  0
  -29.6111  -15.1723   18.2504 H   0  0  0  0  0  0
  -27.5874  -20.2144   21.6918 H   0  0  0  0  0  0
  -28.2693  -20.3607   20.1109 H   0  0  0  0  0  0
  -27.8884  -25.0922   18.8074 H   0  0  0  0  0  0
  -29.5549  -25.2697   19.1812 H   0  0  0  0  0  0
  1 25  1  0  0  0
  1 30  2  0  0  0
  1 86  1  0  0  0
  2  3  1  0  0  0
  2 25  1  0  0  0
  2 88  1  0  0  0
  2 89  1  0  0  0
  3  4  1  0  0  0
  3 90  1  0  0  0
  3 91  1  0  0  0
  4  5  1  0  0  0
  4 92  1  0  0  0
  4 93  1  0  0  0
  5  6  1  0  0  0
  5 26  1  0  0  0
  5 94  1  0  0  0
  6 25  1  0  0  0
  6 95  1  0  0  0
  6 96  1  0  0  0
  7  8  2  0  0  0
  7 26  1  0  0  0
  7 29  1  0  0  0
  8  9  1  0  0  0
  8 22  1  0  0  0
  9 10  1  0  0  0
  9 27  2  0  0  0
 10 11  2  0  0  0
 10 15  1  0  0  0
 11 12  1  0  0  0
 11 97  1  0  0  0
 12 13  2  0  0  0
 12 98  1  0  0  0
 13 14  1  0  0  0
 13 31  1  0  0  0
 14 15  2  0  0  0
 14 99  1  0  0  0
 15100  1  0  0  0
 16 17  2  0  0  0
 16 21  1  0  0  0
 16 31  1  0  0  0
 17 18  1  0  0  0
 17101  1  0  0  0
 18 19  2  0  0  0
 18102  1  0  0  0
 19 20  1  0  0  0
 19 24  1  0  0  0
 20 21  2  0  0  0
 20103  1  0  0  0
 21 23  1  0  0  0
 22 28  1  0  0  0
 22 32  2  0  0  0
 26 27  1  0  0  0
 28104  1  0  0  0
 28105  1  0  0  0
 29106  1  0  0  0
 29107  1  0  0  0
 33 34  1  0  0  0
 33 66  1  0  0  0
 33 70  2  0  0  0
 34 36  1  0  0  0
 34 59  1  0  0  0
 34108  1  0  0  0
 35 44  2  0  0  0
 35 45  1  0  0  0
 35 68  1  0  0  0
 36 56  1  0  0  0
 36109  1  0  0  0
 37 39  1  0  0  0
 37 47  1  0  0  0
 37 66  1  0  0  0
 37110  1  0  0  0
 38 43  2  0  0  0
 38 46  1  0  0  0
 38 47  1  0  0  0
 39 64  1  0  0  0
 39 67  2  0  0  0
 40 52  1  0  0  0
 40 53  2  0  0  0
 40 58  1  0  0  0
 41111  1  0  0  0
 41112  1  0  0  0
 41113  1  0  0  0
 41 48  1  0  0  0
 42 43  1  0  0  0
 42 66  1  0  0  0
 42114  1  0  0  0
 42115  1  0  0  0
 43 44  1  0  0  0
 44116  1  0  0  0
 45 46  2  0  0  0
 45117  1  0  0  0
 46118  1  0  0  0
 47119  1  0  0  0
 47120  1  0  0  0
 48 56  1  0  0  0
 48 65  1  0  0  0
 48121  1  0  0  0
 49 50  1  0  0  0
 49 53  1  0  0  0
 49 64  1  0  0  0
 49122  1  0  0  0
 50 51  1  0  0  0
 50123  1  0  0  0
 50124  1  0  0  0
 51 52  1  0  0  0
 51125  1  0  0  0
 51126  1  0  0  0
 52127  1  0  0  0
 52128  1  0  0  0
 53 54  1  0  0  0
 54 55  2  0  0  0
 54129  1  0  0  0
 55 57  1  0  0  0
 55130  1  0  0  0
 56 69  2  0  0  0
 57 58  2  0  0  0
 57131  1  0  0  0
 58132  1  0  0  0
 59 60  1  0  0  0
 59 61  1  0  0  0
 59 62  1  0  0  0
 60133  1  0  0  0
 60134  1  0  0  0
 60135  1  0  0  0
 61136  1  0  0  0
 61137  1  0  0  0
 61138  1  0  0  0
 62139  1  0  0  0
 62140  1  0  0  0
 62141  1  0  0  0
 63 65  1  0  0  0
 63142  1  0  0  0
 63143  1  0  0  0
 63144  1  0  0  0
 64145  1  0  0  0
 65146  1  0  0  0
 68 84  1  0  0  0
 71 72  2  0  0  0
 71 73  1  0  0  0
 71147  1  0  0  0
 72 75  1  0  0  0
 72148  1  0  0  0
 73 76  2  0  0  0
 73149  1  0  0  0
 74 75  2  0  0  0
 74 76  1  0  0  0
 74150  1  0  0  0
 75 83  1  0  0  0
 76 86  1  0  0  0
 77 78  1  0  0  0
 77 85  1  0  0  0
 77 87  2  0  0  0
 78 79  1  0  0  0
 78151  1  0  0  0
 78152  1  0  0  0
 79 81  1  0  0  0
 79153  1  0  0  0
 79154  1  0  0  0
 80 81  1  0  0  0
 80 85  1  0  0  0
 80155  1  0  0  0
 80156  1  0  0  0
 81 84  1  0  0  0
 81157  1  0  0  0
 82 86  1  0  0  0
 82158  1  0  0  0
 82159  1  0  0  0
 82160  1  0  0  0
 83 85  1  0  0  0
 83161  1  0  0  0
 83162  1  0  0  0
 84163  1  0  0  0
 84164  1  0  0  0
M  ISO  4   1 100  68 101  84 101  86 100
M  END
> <chiral flag>
0

> <version>
0

> <s_m_source_file>
/data/baiqing/PycharmProjects/Reinvent-master-3.2/result/LINK_invent/BTK/process_docking_weight1_custom_product_contain_oxygen_bond_distance_aromatic_linkinvent_7_9_3/rearranged_h_0094.sdf

> <i_m_source_file_index>
32

> <r_mmod_Potential_Energy-OPLS-2005>
225.740020751953

> <r_mmod_Stretch_Energy-OPLS-2005>
54.3678932189941

> <r_mmod_Bend_Energy-OPLS-2005>
134.173233032227

> <r_mmod_Torsional_Energy-OPLS-2005>
317.534851074219

> <r_mmod_Improper_Torsional_Energy-OPLS-2005>
16.6304740905762

> <r_mmod_Van_der_Waal_Energy-OPLS-2005>
179.413711547852

> <r_mmod_Electrostatic_Energy-OPLS-2005>
-293.882690429688

> <r_mmod_Solvation_Energy-OPLS-2005>
-215.256881713867

> <b_mmod_Minimization_Converged-OPLS-2005>
0

> <r_mmod_RMS_Derivative-OPLS-2005>
3.59033441543579

$$$$
32
                    3D
 Structure written by MMmdl.
153161  0  0  1  0            999 V2000
  -30.6503  -14.7369   20.5223 C   0  0  0  0  0  0
  -30.4299  -12.4660   19.4807 C   0  0  0  0  0  0
  -29.5107  -12.5226   18.2417 C   0  0  0  0  0  0
  -28.0393  -12.3357   18.6546 C   0  0  0  0  0  0
  -27.6428  -13.2351   19.8541 C   0  0  2  0  0  0
  -28.6831  -13.1657   20.9912 C   0  0  0  0  0  0
  -25.2513  -13.8210   20.5706 C   0  0  0  0  0  0
  -24.1804  -13.0446   20.9192 C   0  0  0  0  0  0
  -24.6404  -11.6922   20.8740 C   0  0  0  0  0  0
  -23.9078  -10.4297   21.0402 C   0  0  0  0  0  0
  -24.3623   -9.4209   21.9182 C   0  0  0  0  0  0
  -23.6296   -8.2244   22.0749 C   0  0  0  0  0  0
  -22.4280   -8.0282   21.3538 C   0  0  0  0  0  0
  -21.9914   -9.0258   20.4642 C   0  0  0  0  0  0
  -22.7246  -10.2141   20.3053 C   0  0  0  0  0  0
  -21.6857   -6.0731   22.5270 C   0  0  0  0  0  0
  -21.4020   -6.5633   23.8205 C   0  0  0  0  0  0
  -21.3664   -5.6787   24.9168 C   0  0  0  0  0  0
  -21.6048   -4.3050   24.7220 C   0  0  0  0  0  0
  -21.8821   -3.8140   23.4341 C   0  0  0  0  0  0
  -21.9195   -4.6958   22.3394 C   0  0  0  0  0  0
  -22.7825  -13.5219   21.1857 C   0  0  0  0  0  0
  -22.1662   -4.2138   21.0974 F   0  0  0  0  0  0
  -21.5631   -3.4535   25.7738 F   0  0  0  0  0  0
  -29.9910  -13.5255   20.4231 N   0  0  0  0  0  0
  -26.2943  -12.9421   20.3294 N   0  0  0  0  0  0
  -25.9337  -11.6558   20.5751 N   0  0  0  0  0  0
  -22.0484  -12.8209   22.0424 N   0  0  0  0  0  0
  -25.4216  -15.1933   20.4159 N   0  0  0  0  0  0
  -31.7968  -14.8358   20.0730 O   0  0  0  0  0  0
  -21.6646   -6.8878   21.4235 O   0  0  0  0  0  0
  -22.3501  -14.5525   20.6709 O   0  0  0  0  0  0
  -24.6336  -31.8543   23.1991 C   0  0  0  0  0  0
  -25.9155  -32.4752   23.8343 C   0  0  1  0  0  0
  -27.2138  -27.2453   20.1262 C   0  0  0  0  0  0
  -25.5935  -33.8550   24.2257 N   0  0  0  0  0  0
  -23.4302  -30.4780   21.5443 C   0  0  2  0  0  0
  -24.8768  -28.9285   20.1084 C   0  0  0  0  0  0
  -22.7516  -29.4595   22.4921 C   0  0  0  0  0  0
  -18.0293  -28.1377   22.8481 C   0  0  0  0  0  0
  -24.1488  -36.7282   23.2641 C   0  0  0  0  0  0
  -25.9794  -30.7604   21.3843 C   0  0  0  0  0  0
  -26.0506  -29.3833   20.7226 C   0  0  0  0  0  0
  -27.2206  -28.5537   20.7243 C   0  0  0  0  0  0
  -26.0183  -26.8751   19.4651 C   0  0  0  0  0  0
  -24.8675  -27.6828   19.4677 C   0  0  0  0  0  0
  -23.6473  -29.8140   20.1601 C   0  0  0  0  0  0
  -25.4119  -36.3061   24.0322 C   0  0  1  0  0  0
  -20.5899  -28.3693   23.1261 C   0  0  2  0  0  0
  -20.6780  -26.9406   22.5400 C   0  0  0  0  0  0
  -19.5756  -26.6373   21.5206 C   0  0  0  0  0  0
  -18.1935  -26.7919   22.1616 C   0  0  0  0  0  0
  -19.1547  -28.8851   23.2864 C   0  0  0  0  0  0
  -18.9470  -30.1453   23.8880 C   0  0  0  0  0  0
  -17.6469  -30.6582   24.0550 C   0  0  0  0  0  0
  -25.9054  -34.9432   23.5091 C   0  0  0  0  0  0
  -16.5357  -29.9070   23.6333 C   0  0  0  0  0  0
  -16.7279  -28.6483   23.0362 C   0  0  0  0  0  0
  -26.4516  -31.6587   25.0739 C   0  0  0  0  0  0
  -25.3723  -31.3740   26.1448 C   0  0  0  0  0  0
  -27.0388  -30.2996   24.6261 C   0  0  0  0  0  0
  -27.6057  -32.4350   25.7507 C   0  0  0  0  0  0
  -27.5583  -37.1790   24.8464 C   0  0  0  0  0  0
  -21.4221  -29.3039   22.3657 N   0  0  0  0  0  0
  -26.4292  -37.3762   23.9403 N   0  0  0  0  0  0
  -24.7001  -31.0491   22.0979 N   0  0  0  0  0  0
  -23.4214  -28.8131   23.3022 O   0  0  0  0  0  0
  -28.2863  -26.3184   20.2104 O   0  0  0  0  0  0
  -26.5635  -34.8909   22.4664 O   0  0  0  0  0  0
  -23.5479  -32.1379   23.7270 O   0  0  0  0  0  0
  -29.1627  -18.2124   18.1498 C   0  0  0  0  0  0
  -29.4802  -17.0691   18.9100 C   0  0  0  0  0  0
  -29.0923  -19.4971   18.7269 C   0  0  0  0  0  0
  -29.7480  -17.1513   20.2959 C   0  0  0  0  0  0
  -29.3528  -19.7070   20.1007 C   0  0  0  0  0  0
  -29.6806  -18.5052   20.8666 C   0  0  0  0  0  0
  -28.9054  -23.6844   20.4769 C   0  0  0  0  0  0
  -29.9857  -15.9265   22.4973 C   0  0  0  0  0  0
  -28.0095  -24.8699   19.8709 C   0  0  0  0  0  0
  -28.7980  -22.2020   19.8574 C   0  0  0  0  0  0
  -30.0064  -15.8676   21.0317 N   0  0  0  0  0  0
  -29.6744  -23.9078   21.4194 O   0  0  0  0  0  0
  -29.2967  -21.0308   20.6555 O   0  0  0  0  0  0
  -29.9378  -18.6812   22.1849 F   0  0  0  0  0  0
  -31.4715  -12.5815   19.1776 H   0  0  0  0  0  0
  -30.3720  -11.4877   19.9604 H   0  0  0  0  0  0
  -29.7984  -11.7559   17.5212 H   0  0  0  0  0  0
  -29.6304  -13.4813   17.7351 H   0  0  0  0  0  0
  -27.9047  -11.2871   18.9227 H   0  0  0  0  0  0
  -27.3794  -12.5185   17.8056 H   0  0  0  0  0  0
  -27.6406  -14.2589   19.4789 H   0  0  0  0  0  0
  -28.7203  -12.1669   21.4282 H   0  0  0  0  0  0
  -28.3900  -13.8372   21.7970 H   0  0  0  0  0  0
  -25.2766   -9.5687   22.4755 H   0  0  0  0  0  0
  -24.0001   -7.4640   22.7468 H   0  0  0  0  0  0
  -21.0844   -8.8786   19.8949 H   0  0  0  0  0  0
  -22.3703  -10.9683   19.6163 H   0  0  0  0  0  0
  -21.2019   -7.6145   23.9705 H   0  0  0  0  0  0
  -21.1486   -6.0518   25.9070 H   0  0  0  0  0  0
  -22.0602   -2.7598   23.2845 H   0  0  0  0  0  0
  -22.4113  -11.9878   22.4820 H   0  0  0  0  0  0
  -21.1099  -13.1223   22.2637 H   0  0  0  0  0  0
  -24.6584  -15.8503   20.5347 H   0  0  0  0  0  0
  -26.2848  -15.6360   20.1277 H   0  0  0  0  0  0
  -26.7221  -32.5392   23.1083 H   0  0  0  0  0  0
  -25.0052  -33.9676   25.0382 H   0  0  0  0  0  0
  -22.7271  -31.3012   21.4003 H   0  0  0  0  0  0
  -23.3747  -35.9614   23.3292 H   0  0  0  0  0  0
  -24.3573  -36.8920   22.2055 H   0  0  0  0  0  0
  -23.7244  -37.6477   23.6680 H   0  0  0  0  0  0
  -26.1241  -31.5218   20.6173 H   0  0  0  0  0  0
  -26.8549  -30.8058   22.0205 H   0  0  0  0  0  0
  -28.1148  -28.8902   21.2303 H   0  0  0  0  0  0
  -25.9285  -25.9314   18.9486 H   0  0  0  0  0  0
  -23.9713  -27.3313   18.9743 H   0  0  0  0  0  0
  -23.7652  -30.5895   19.4025 H   0  0  0  0  0  0
  -22.7665  -29.2431   19.8605 H   0  0  0  0  0  0
  -25.1303  -36.1901   25.0815 H   0  0  0  0  0  0
  -20.9999  -28.3274   24.1385 H   0  0  0  0  0  0
  -20.5678  -26.2301   23.3607 H   0  0  0  0  0  0
  -21.6648  -26.7429   22.1197 H   0  0  0  0  0  0
  -19.6908  -25.6284   21.1237 H   0  0  0  0  0  0
  -19.6686  -27.3181   20.6733 H   0  0  0  0  0  0
  -17.4205  -26.6668   21.4012 H   0  0  0  0  0  0
  -18.0321  -26.0062   22.9008 H   0  0  0  0  0  0
  -19.7947  -30.7266   24.2248 H   0  0  0  0  0  0
  -17.5020  -31.6268   24.5147 H   0  0  0  0  0  0
  -15.5350  -30.2962   23.7677 H   0  0  0  0  0  0
  -15.8677  -28.0794   22.7103 H   0  0  0  0  0  0
  -24.5900  -30.7099   25.7755 H   0  0  0  0  0  0
  -24.8914  -32.2910   26.4866 H   0  0  0  0  0  0
  -25.8023  -30.8909   27.0231 H   0  0  0  0  0  0
  -26.3002  -29.6706   24.1277 H   0  0  0  0  0  0
  -27.4049  -29.7300   25.4812 H   0  0  0  0  0  0
  -27.8882  -30.4265   23.9544 H   0  0  0  0  0  0
  -27.2673  -33.3674   26.2052 H   0  0  0  0  0  0
  -28.3883  -32.6886   25.0339 H   0  0  0  0  0  0
  -28.0715  -31.8500   26.5452 H   0  0  0  0  0  0
  -28.2594  -38.0098   24.7528 H   0  0  0  0  0  0
  -28.1093  -36.2624   24.6279 H   0  0  0  0  0  0
  -27.2295  -37.1430   25.8868 H   0  0  0  0  0  0
  -20.9418  -29.8752   21.6846 H   0  0  0  0  0  0
  -26.0168  -38.2832   24.1406 H   0  0  0  0  0  0
  -28.9599  -18.1022   17.0929 H   0  0  0  0  0  0
  -29.4966  -16.1137   18.4047 H   0  0  0  0  0  0
  -28.8372  -20.3180   18.0749 H   0  0  0  0  0  0
  -29.0806  -16.4232   22.8483 H   0  0  0  0  0  0
  -30.8514  -16.4784   22.8657 H   0  0  0  0  0  0
  -30.0145  -14.9432   22.9705 H   0  0  0  0  0  0
  -27.0001  -24.6249   20.2018 H   0  0  0  0  0  0
  -28.0155  -24.7662   18.7858 H   0  0  0  0  0  0
  -29.3490  -22.2347   18.9176 H   0  0  0  0  0  0
  -27.7539  -22.0220   19.6003 H   0  0  0  0  0  0
  1 25  1  0  0  0
  1 30  2  0  0  0
  1 81  1  0  0  0
  2  3  1  0  0  0
  2 25  1  0  0  0
  2 85  1  0  0  0
  2 86  1  0  0  0
  3  4  1  0  0  0
  3 87  1  0  0  0
  3 88  1  0  0  0
  4  5  1  0  0  0
  4 89  1  0  0  0
  4 90  1  0  0  0
  5  6  1  0  0  0
  5 26  1  0  0  0
  5 91  1  0  0  0
  6 25  1  0  0  0
  6 92  1  0  0  0
  6 93  1  0  0  0
  7  8  2  0  0  0
  7 26  1  0  0  0
  7 29  1  0  0  0
  8  9  1  0  0  0
  8 22  1  0  0  0
  9 10  1  0  0  0
  9 27  2  0  0  0
 10 11  2  0  0  0
 10 15  1  0  0  0
 11 12  1  0  0  0
 11 94  1  0  0  0
 12 13  2  0  0  0
 12 95  1  0  0  0
 13 14  1  0  0  0
 13 31  1  0  0  0
 14 15  2  0  0  0
 14 96  1  0  0  0
 15 97  1  0  0  0
 16 17  2  0  0  0
 16 21  1  0  0  0
 16 31  1  0  0  0
 17 18  1  0  0  0
 17 98  1  0  0  0
 18 19  2  0  0  0
 18 99  1  0  0  0
 19 20  1  0  0  0
 19 24  1  0  0  0
 20 21  2  0  0  0
 20100  1  0  0  0
 21 23  1  0  0  0
 22 28  1  0  0  0
 22 32  2  0  0  0
 26 27  1  0  0  0
 28101  1  0  0  0
 28102  1  0  0  0
 29103  1  0  0  0
 29104  1  0  0  0
 33 34  1  0  0  0
 33 66  1  0  0  0
 33 70  2  0  0  0
 34 36  1  0  0  0
 34 59  1  0  0  0
 34105  1  0  0  0
 35 44  2  0  0  0
 35 45  1  0  0  0
 35 68  1  0  0  0
 36 56  1  0  0  0
 36106  1  0  0  0
 37 39  1  0  0  0
 37 47  1  0  0  0
 37 66  1  0  0  0
 37107  1  0  0  0
 38 43  2  0  0  0
 38 46  1  0  0  0
 38 47  1  0  0  0
 39 64  1  0  0  0
 39 67  2  0  0  0
 40 52  1  0  0  0
 40 53  2  0  0  0
 40 58  1  0  0  0
 41108  1  0  0  0
 41109  1  0  0  0
 41110  1  0  0  0
 41 48  1  0  0  0
 42 43  1  0  0  0
 42 66  1  0  0  0
 42111  1  0  0  0
 42112  1  0  0  0
 43 44  1  0  0  0
 44113  1  0  0  0
 45 46  2  0  0  0
 45114  1  0  0  0
 46115  1  0  0  0
 47116  1  0  0  0
 47117  1  0  0  0
 48 56  1  0  0  0
 48 65  1  0  0  0
 48118  1  0  0  0
 49 50  1  0  0  0
 49 53  1  0  0  0
 49 64  1  0  0  0
 49119  1  0  0  0
 50 51  1  0  0  0
 50120  1  0  0  0
 50121  1  0  0  0
 51 52  1  0  0  0
 51122  1  0  0  0
 51123  1  0  0  0
 52124  1  0  0  0
 52125  1  0  0  0
 53 54  1  0  0  0
 54 55  2  0  0  0
 54126  1  0  0  0
 55 57  1  0  0  0
 55127  1  0  0  0
 56 69  2  0  0  0
 57 58  2  0  0  0
 57128  1  0  0  0
 58129  1  0  0  0
 59 60  1  0  0  0
 59 61  1  0  0  0
 59 62  1  0  0  0
 60130  1  0  0  0
 60131  1  0  0  0
 60132  1  0  0  0
 61133  1  0  0  0
 61134  1  0  0  0
 61135  1  0  0  0
 62136  1  0  0  0
 62137  1  0  0  0
 62138  1  0  0  0
 63 65  1  0  0  0
 63139  1  0  0  0
 63140  1  0  0  0
 63141  1  0  0  0
 64142  1  0  0  0
 65143  1  0  0  0
 68 79  1  0  0  0
 71 72  2  0  0  0
 71 73  1  0  0  0
 71144  1  0  0  0
 72 74  1  0  0  0
 72145  1  0  0  0
 73 75  2  0  0  0
 73146  1  0  0  0
 74 76  2  0  0  0
 74 81  1  0  0  0
 75 76  1  0  0  0
 75 83  1  0  0  0
 76 84  1  0  0  0
 77 79  1  0  0  0
 77 80  1  0  0  0
 77 82  2  0  0  0
 78 81  1  0  0  0
 78147  1  0  0  0
 78148  1  0  0  0
 78149  1  0  0  0
 79150  1  0  0  0
 79151  1  0  0  0
 80 83  1  0  0  0
 80152  1  0  0  0
 80153  1  0  0  0
M  ISO  4   1 100  68 101  79 101  81 100
M  END
> <chiral flag>
0

> <version>
0

> <s_m_source_file>
/data/baiqing/PycharmProjects/Reinvent-master-3.2/result/LINK_invent/BTK/process_docking_weight1_custom_product_contain_oxygen_bond_distance_aromatic_linkinvent_7_9_3/rearranged_h_0094.sdf

> <i_m_source_file_index>
33

> <r_mmod_Potential_Energy-OPLS-2005>
364.434753417969

> <r_mmod_Stretch_Energy-OPLS-2005>
142.483367919922

> <r_mmod_Bend_Energy-OPLS-2005>
169.989624023438

> <r_mmod_Torsional_Energy-OPLS-2005>
274.130462646484

> <r_mmod_Improper_Torsional_Energy-OPLS-2005>
3.27310585975647

> <r_mmod_Van_der_Waal_Energy-OPLS-2005>
147.759567260742

> <r_mmod_Electrostatic_Energy-OPLS-2005>
-227.930755615234

> <r_mmod_Solvation_Energy-OPLS-2005>
-234.511215209961

> <b_mmod_Minimization_Converged-OPLS-2005>
0

> <r_mmod_RMS_Derivative-OPLS-2005>
1.27983355522156

$$$$
33
                    3D
 Structure written by MMmdl.
158166  0  0  1  0            999 V2000
  -30.5951  -14.7390   20.3367 C   0  0  0  0  0  0
  -30.4363  -12.4051   19.4824 C   0  0  0  0  0  0
  -29.5042  -12.3362   18.2502 C   0  0  0  0  0  0
  -28.0174  -12.2725   18.6574 C   0  0  0  0  0  0
  -27.6327  -13.2121   19.8346 C   0  0  2  0  0  0
  -28.6843  -13.1935   20.9607 C   0  0  0  0  0  0
  -25.2504  -13.8163   20.5772 C   0  0  0  0  0  0
  -24.1764  -13.0416   20.9227 C   0  0  0  0  0  0
  -24.6334  -11.6894   20.8757 C   0  0  0  0  0  0
  -23.9039  -10.4270   21.0416 C   0  0  0  0  0  0
  -24.3612   -9.4186   21.9179 C   0  0  0  0  0  0
  -23.6296   -8.2218   22.0741 C   0  0  0  0  0  0
  -22.4269   -8.0260   21.3538 C   0  0  0  0  0  0
  -21.9903   -9.0235   20.4645 C   0  0  0  0  0  0
  -22.7226  -10.2114   20.3053 C   0  0  0  0  0  0
  -21.6842   -6.0729   22.5273 C   0  0  0  0  0  0
  -21.4016   -6.5643   23.8206 C   0  0  0  0  0  0
  -21.3650   -5.6803   24.9173 C   0  0  0  0  0  0
  -21.6037   -4.3061   24.7223 C   0  0  0  0  0  0
  -21.8822   -3.8147   23.4344 C   0  0  0  0  0  0
  -21.9191   -4.6959   22.3398 C   0  0  0  0  0  0
  -22.7799  -13.5206   21.1908 C   0  0  0  0  0  0
  -22.1667   -4.2138   21.0977 F   0  0  0  0  0  0
  -21.5623   -3.4551   25.7741 F   0  0  0  0  0  0
  -29.9734  -13.5123   20.3407 N   0  0  0  0  0  0
  -26.2887  -12.9331   20.3296 N   0  0  0  0  0  0
  -25.9259  -11.6493   20.5808 N   0  0  0  0  0  0
  -22.0490  -12.8154   22.0469 N   0  0  0  0  0  0
  -25.4276  -15.1882   20.4354 N   0  0  0  0  0  0
  -31.8284  -14.7969   20.2959 O   0  0  0  0  0  0
  -21.6633   -6.8857   21.4226 O   0  0  0  0  0  0
  -22.3462  -14.5508   20.6772 O   0  0  0  0  0  0
  -24.6285  -31.8592   23.2012 C   0  0  0  0  0  0
  -25.9129  -32.4772   23.8345 C   0  0  1  0  0  0
  -27.2182  -27.2967   20.1128 C   0  0  0  0  0  0
  -25.5969  -33.8579   24.2271 N   0  0  0  0  0  0
  -23.4206  -30.4826   21.5451 C   0  0  2  0  0  0
  -24.8640  -28.9368   20.1076 C   0  0  0  0  0  0
  -22.7477  -29.4609   22.4923 C   0  0  0  0  0  0
  -18.0280  -28.1387   22.8487 C   0  0  0  0  0  0
  -24.1486  -36.7292   23.2627 C   0  0  0  0  0  0
  -25.9636  -30.7835   21.3737 C   0  0  0  0  0  0
  -26.0344  -29.4082   20.7153 C   0  0  0  0  0  0
  -27.2117  -28.5988   20.7102 C   0  0  0  0  0  0
  -26.0182  -26.8830   19.4863 C   0  0  0  0  0  0
  -24.8576  -27.6797   19.4871 C   0  0  0  0  0  0
  -23.6345  -29.8228   20.1581 C   0  0  0  0  0  0
  -25.4114  -36.3087   24.0320 C   0  0  1  0  0  0
  -20.5881  -28.3693   23.1280 C   0  0  2  0  0  0
  -20.6762  -26.9415   22.5407 C   0  0  0  0  0  0
  -19.5741  -26.6378   21.5206 C   0  0  0  0  0  0
  -18.1923  -26.7924   22.1624 C   0  0  0  0  0  0
  -19.1528  -28.8853   23.2880 C   0  0  0  0  0  0
  -18.9468  -30.1455   23.8885 C   0  0  0  0  0  0
  -17.6474  -30.6586   24.0567 C   0  0  0  0  0  0
  -25.9063  -34.9459   23.5083 C   0  0  0  0  0  0
  -16.5357  -29.9093   23.6336 C   0  0  0  0  0  0
  -16.7271  -28.6513   23.0346 C   0  0  0  0  0  0
  -26.4514  -31.6581   25.0729 C   0  0  0  0  0  0
  -25.3747  -31.3746   26.1454 C   0  0  0  0  0  0
  -27.0315  -30.2991   24.6182 C   0  0  0  0  0  0
  -27.6068  -32.4306   25.7521 C   0  0  0  0  0  0
  -27.5564  -37.1799   24.8458 C   0  0  0  0  0  0
  -21.4185  -29.3041   22.3673 N   0  0  0  0  0  0
  -26.4273  -37.3797   23.9418 N   0  0  0  0  0  0
  -24.6902  -31.0591   22.0967 N   0  0  0  0  0  0
  -23.4184  -28.8135   23.3002 O   0  0  0  0  0  0
  -28.3407  -26.4471   20.1789 O   0  0  0  0  0  0
  -26.5621  -34.8934   22.4642 O   0  0  0  0  0  0
  -23.5447  -32.1394   23.7324 O   0  0  0  0  0  0
  -28.4853  -19.3787   19.7135 C   0  0  0  0  0  0
  -30.4846  -17.9043   20.9962 C   0  0  0  0  0  0
  -28.5857  -17.9662   19.5189 C   0  0  0  0  0  0
  -29.3874  -20.1137   20.5195 C   0  0  0  0  0  0
  -29.6281  -17.1727   20.1240 C   0  0  0  0  0  0
  -30.3746  -19.3244   21.1798 C   0  0  0  0  0  0
  -28.2632  -25.0655   19.8609 C   0  0  0  0  0  0
  -28.8431  -24.0050   20.5292 C   0  0  0  0  0  0
  -28.6858  -22.5819   20.0449 C   0  0  0  0  0  0
  -27.5266  -17.3745   18.5993 C   0  0  0  0  0  0
  -29.9728  -15.6494   18.2404 C   0  0  0  0  0  0
  -31.2942  -19.9684   22.0089 N   0  0  0  0  0  0
  -29.3336  -21.5753   20.7347 N   0  0  0  0  0  0
  -29.8814  -15.7628   19.7102 N   0  0  0  0  0  0
  -28.0057  -22.3129   19.0536 O   0  0  0  0  0  0
  -29.5644  -24.2605   21.6317 O   0  0  0  0  0  0
  -31.4719  -12.5371   19.1666 H   0  0  0  0  0  0
  -30.4101  -11.4677   20.0378 H   0  0  0  0  0  0
  -29.7490  -11.4426   17.6736 H   0  0  0  0  0  0
  -29.6793  -13.1561   17.5635 H   0  0  0  0  0  0
  -27.8237  -11.2382   18.9462 H   0  0  0  0  0  0
  -27.3766  -12.4634   17.7940 H   0  0  0  0  0  0
  -27.6115  -14.2157   19.4238 H   0  0  0  0  0  0
  -28.7124  -12.2200   21.4547 H   0  0  0  0  0  0
  -28.4349  -13.9308   21.7261 H   0  0  0  0  0  0
  -25.2749   -9.5658   22.4753 H   0  0  0  0  0  0
  -24.0010   -7.4593   22.7434 H   0  0  0  0  0  0
  -21.0851   -8.8751   19.8938 H   0  0  0  0  0  0
  -22.3687  -10.9665   19.6162 H   0  0  0  0  0  0
  -21.2020   -7.6151   23.9699 H   0  0  0  0  0  0
  -21.1468   -6.0541   25.9075 H   0  0  0  0  0  0
  -22.0610   -2.7610   23.2851 H   0  0  0  0  0  0
  -22.4183  -11.9817   22.4799 H   0  0  0  0  0  0
  -21.1105  -13.1123   22.2754 H   0  0  0  0  0  0
  -24.6820  -15.8568   20.5907 H   0  0  0  0  0  0
  -26.3169  -15.6231   20.2298 H   0  0  0  0  0  0
  -26.7195  -32.5431   23.1087 H   0  0  0  0  0  0
  -25.0170  -33.9744   25.0448 H   0  0  0  0  0  0
  -22.7164  -31.3051   21.4038 H   0  0  0  0  0  0
  -23.3753  -35.9613   23.3307 H   0  0  0  0  0  0
  -24.3569  -36.8900   22.2035 H   0  0  0  0  0  0
  -23.7225  -37.6496   23.6639 H   0  0  0  0  0  0
  -26.0937  -31.5451   20.6024 H   0  0  0  0  0  0
  -26.8440  -30.8330   22.0011 H   0  0  0  0  0  0
  -28.1110  -28.9539   21.1958 H   0  0  0  0  0  0
  -25.9300  -25.9215   19.0068 H   0  0  0  0  0  0
  -23.9589  -27.3111   19.0121 H   0  0  0  0  0  0
  -23.7620  -30.6033   19.4066 H   0  0  0  0  0  0
  -22.7515  -29.2598   19.8493 H   0  0  0  0  0  0
  -25.1282  -36.1932   25.0809 H   0  0  0  0  0  0
  -20.9977  -28.3266   24.1397 H   0  0  0  0  0  0
  -20.5658  -26.2313   23.3618 H   0  0  0  0  0  0
  -21.6648  -26.7427   22.1214 H   0  0  0  0  0  0
  -19.6922  -25.6286   21.1244 H   0  0  0  0  0  0
  -19.6689  -27.3194   20.6742 H   0  0  0  0  0  0
  -17.4200  -26.6680   21.4024 H   0  0  0  0  0  0
  -18.0333  -26.0061   22.9015 H   0  0  0  0  0  0
  -19.7940  -30.7276   24.2252 H   0  0  0  0  0  0
  -17.5025  -31.6267   24.5172 H   0  0  0  0  0  0
  -15.5357  -30.3000   23.7652 H   0  0  0  0  0  0
  -15.8673  -28.0832   22.7059 H   0  0  0  0  0  0
  -24.5985  -30.7005   25.7827 H   0  0  0  0  0  0
  -24.8872  -32.2910   26.4778 H   0  0  0  0  0  0
  -25.8083  -30.9045   27.0285 H   0  0  0  0  0  0
  -26.2870  -29.6800   24.1155 H   0  0  0  0  0  0
  -27.3947  -29.7203   25.4687 H   0  0  0  0  0  0
  -27.8797  -30.4274   23.9444 H   0  0  0  0  0  0
  -27.2678  -33.3621   26.2066 H   0  0  0  0  0  0
  -28.3907  -32.6815   25.0368 H   0  0  0  0  0  0
  -28.0697  -31.8444   26.5473 H   0  0  0  0  0  0
  -28.2575  -38.0104   24.7517 H   0  0  0  0  0  0
  -28.1064  -36.2630   24.6255 H   0  0  0  0  0  0
  -27.2293  -37.1415   25.8866 H   0  0  0  0  0  0
  -20.9364  -29.8799   21.6913 H   0  0  0  0  0  0
  -26.0152  -38.2865   24.1446 H   0  0  0  0  0  0
  -27.6851  -19.8979   19.2089 H   0  0  0  0  0  0
  -31.2945  -17.3765   21.4796 H   0  0  0  0  0  0
  -27.6977  -24.8914   18.9570 H   0  0  0  0  0  0
  -26.5815  -17.9104   18.6985 H   0  0  0  0  0  0
  -27.3164  -16.3339   18.8225 H   0  0  0  0  0  0
  -27.8353  -17.4495   17.5553 H   0  0  0  0  0  0
  -29.0620  -15.2135   17.8324 H   0  0  0  0  0  0
  -30.8179  -15.0487   17.8944 H   0  0  0  0  0  0
  -30.1113  -16.6185   17.7621 H   0  0  0  0  0  0
  -32.0300  -19.3794   22.3844 H   0  0  0  0  0  0
  -31.7001  -20.8147   21.6257 H   0  0  0  0  0  0
  -29.9030  -21.8597   21.5137 H   0  0  0  0  0  0
  -29.9709  -23.4532   21.9119 H   0  0  0  0  0  0
  1 25  1  0  0  0
  1 30  2  0  0  0
  1 84  1  0  0  0
  2  3  1  0  0  0
  2 25  1  0  0  0
  2 87  1  0  0  0
  2 88  1  0  0  0
  3  4  1  0  0  0
  3 89  1  0  0  0
  3 90  1  0  0  0
  4  5  1  0  0  0
  4 91  1  0  0  0
  4 92  1  0  0  0
  5  6  1  0  0  0
  5 26  1  0  0  0
  5 93  1  0  0  0
  6 25  1  0  0  0
  6 94  1  0  0  0
  6 95  1  0  0  0
  7  8  2  0  0  0
  7 26  1  0  0  0
  7 29  1  0  0  0
  8  9  1  0  0  0
  8 22  1  0  0  0
  9 10  1  0  0  0
  9 27  2  0  0  0
 10 11  2  0  0  0
 10 15  1  0  0  0
 11 12  1  0  0  0
 11 96  1  0  0  0
 12 13  2  0  0  0
 12 97  1  0  0  0
 13 14  1  0  0  0
 13 31  1  0  0  0
 14 15  2  0  0  0
 14 98  1  0  0  0
 15 99  1  0  0  0
 16 17  2  0  0  0
 16 21  1  0  0  0
 16 31  1  0  0  0
 17 18  1  0  0  0
 17100  1  0  0  0
 18 19  2  0  0  0
 18101  1  0  0  0
 19 20  1  0  0  0
 19 24  1  0  0  0
 20 21  2  0  0  0
 20102  1  0  0  0
 21 23  1  0  0  0
 22 28  1  0  0  0
 22 32  2  0  0  0
 26 27  1  0  0  0
 28103  1  0  0  0
 28104  1  0  0  0
 29105  1  0  0  0
 29106  1  0  0  0
 33 34  1  0  0  0
 33 66  1  0  0  0
 33 70  2  0  0  0
 34 36  1  0  0  0
 34 59  1  0  0  0
 34107  1  0  0  0
 35 44  2  0  0  0
 35 45  1  0  0  0
 35 68  1  0  0  0
 36 56  1  0  0  0
 36108  1  0  0  0
 37 39  1  0  0  0
 37 47  1  0  0  0
 37 66  1  0  0  0
 37109  1  0  0  0
 38 43  2  0  0  0
 38 46  1  0  0  0
 38 47  1  0  0  0
 39 64  1  0  0  0
 39 67  2  0  0  0
 40 52  1  0  0  0
 40 53  2  0  0  0
 40 58  1  0  0  0
 41110  1  0  0  0
 41111  1  0  0  0
 41112  1  0  0  0
 41 48  1  0  0  0
 42 43  1  0  0  0
 42 66  1  0  0  0
 42113  1  0  0  0
 42114  1  0  0  0
 43 44  1  0  0  0
 44115  1  0  0  0
 45 46  2  0  0  0
 45116  1  0  0  0
 46117  1  0  0  0
 47118  1  0  0  0
 47119  1  0  0  0
 48 56  1  0  0  0
 48 65  1  0  0  0
 48120  1  0  0  0
 49 50  1  0  0  0
 49 53  1  0  0  0
 49 64  1  0  0  0
 49121  1  0  0  0
 50 51  1  0  0  0
 50122  1  0  0  0
 50123  1  0  0  0
 51 52  1  0  0  0
 51124  1  0  0  0
 51125  1  0  0  0
 52126  1  0  0  0
 52127  1  0  0  0
 53 54  1  0  0  0
 54 55  2  0  0  0
 54128  1  0  0  0
 55 57  1  0  0  0
 55129  1  0  0  0
 56 69  2  0  0  0
 57 58  2  0  0  0
 57130  1  0  0  0
 58131  1  0  0  0
 59 60  1  0  0  0
 59 61  1  0  0  0
 59 62  1  0  0  0
 60132  1  0  0  0
 60133  1  0  0  0
 60134  1  0  0  0
 61135  1  0  0  0
 61136  1  0  0  0
 61137  1  0  0  0
 62138  1  0  0  0
 62139  1  0  0  0
 62140  1  0  0  0
 63 65  1  0  0  0
 63141  1  0  0  0
 63142  1  0  0  0
 63143  1  0  0  0
 64144  1  0  0  0
 65145  1  0  0  0
 68 77  1  0  0  0
 71 73  2  0  0  0
 71 74  1  0  0  0
 71146  1  0  0  0
 72 75  2  0  0  0
 72 76  1  0  0  0
 72147  1  0  0  0
 73 75  1  0  0  0
 73 80  1  0  0  0
 74 76  2  0  0  0
 74 83  1  0  0  0
 75 84  1  0  0  0
 76 82  1  0  0  0
 77 78  2  0  0  0
 77148  1  0  0  0
 78 79  1  0  0  0
 78 86  1  0  0  0
 79 83  1  0  0  0
 79 85  2  0  0  0
 80149  1  0  0  0
 80150  1  0  0  0
 80151  1  0  0  0
 81 84  1  0  0  0
 81152  1  0  0  0
 81153  1  0  0  0
 81154  1  0  0  0
 82155  1  0  0  0
 82156  1  0  0  0
 83157  1  0  0  0
 86158  1  0  0  0
M  ISO  4   1 100  68 101  77 101  84 100
M  END
> <chiral flag>
0

> <version>
0

> <s_m_source_file>
/data/baiqing/PycharmProjects/Reinvent-master-3.2/result/LINK_invent/BTK/process_docking_weight1_custom_product_contain_oxygen_bond_distance_aromatic_linkinvent_7_9_3/rearranged_h_0094.sdf

> <i_m_source_file_index>
34

> <r_mmod_Potential_Energy-OPLS-2005>
234.94938659668

> <r_mmod_Stretch_Energy-OPLS-2005>
102.159240722656

> <r_mmod_Bend_Energy-OPLS-2005>
161.384658813477

> <r_mmod_Torsional_Energy-OPLS-2005>
331.198181152344

> <r_mmod_Improper_Torsional_Energy-OPLS-2005>
33.3363723754883

> <r_mmod_Van_der_Waal_Energy-OPLS-2005>
162.381118774414

> <r_mmod_Electrostatic_Energy-OPLS-2005>
-414.429260253906

> <r_mmod_Solvation_Energy-OPLS-2005>
-232.98420715332

> <b_mmod_Minimization_Converged-OPLS-2005>
0

> <r_mmod_RMS_Derivative-OPLS-2005>
2.82259559631348

$$$$
34
                    3D
 Structure written by MMmdl.
158167  0  0  1  0            999 V2000
  -30.7680  -14.4728   20.4811 C   0  0  0  0  0  0
  -30.4062  -12.2903   19.4393 C   0  0  0  0  0  0
  -29.4907  -12.4760   18.2191 C   0  0  0  0  0  0
  -28.0186  -12.3172   18.6476 C   0  0  0  0  0  0
  -27.6524  -13.2167   19.8579 C   0  0  2  0  0  0
  -28.6993  -13.1121   20.9915 C   0  0  0  0  0  0
  -25.2589  -13.8206   20.5687 C   0  0  0  0  0  0
  -24.1839  -13.0501   20.9257 C   0  0  0  0  0  0
  -24.6375  -11.6965   20.8754 C   0  0  0  0  0  0
  -23.9029  -10.4345   21.0433 C   0  0  0  0  0  0
  -24.3597   -9.4244   21.9201 C   0  0  0  0  0  0
  -23.6278   -8.2260   22.0741 C   0  0  0  0  0  0
  -22.4240   -8.0296   21.3550 C   0  0  0  0  0  0
  -21.9892   -9.0284   20.4661 C   0  0  0  0  0  0
  -22.7213  -10.2183   20.3094 C   0  0  0  0  0  0
  -21.6852   -6.0760   22.5278 C   0  0  0  0  0  0
  -21.4015   -6.5624   23.8255 C   0  0  0  0  0  0
  -21.3665   -5.6744   24.9171 C   0  0  0  0  0  0
  -21.6053   -4.3018   24.7214 C   0  0  0  0  0  0
  -21.8787   -3.8138   23.4317 C   0  0  0  0  0  0
  -21.9204   -4.6976   22.3389 C   0  0  0  0  0  0
  -22.7853  -13.5306   21.1861 C   0  0  0  0  0  0
  -22.1650   -4.2190   21.0964 F   0  0  0  0  0  0
  -21.5624   -3.4487   25.7727 F   0  0  0  0  0  0
  -30.0285  -13.3358   20.4016 N   0  0  0  0  0  0
  -26.2988  -12.9373   20.3307 N   0  0  0  0  0  0
  -25.9301  -11.6526   20.5779 N   0  0  0  0  0  0
  -22.0428  -12.8391   22.0419 N   0  0  0  0  0  0
  -25.4347  -15.1903   20.4120 N   0  0  0  0  0  0
  -31.9562  -14.4757   20.1611 O   0  0  0  0  0  0
  -21.6610   -6.8878   21.4242 O   0  0  0  0  0  0
  -22.3623  -14.5584   20.6624 O   0  0  0  0  0  0
  -24.6075  -31.8690   23.2155 C   0  0  0  0  0  0
  -25.8993  -32.4822   23.8381 C   0  0  1  0  0  0
  -27.2125  -27.4091   20.0730 C   0  0  0  0  0  0
  -25.5863  -33.8617   24.2325 N   0  0  0  0  0  0
  -23.3960  -30.4980   21.5588 C   0  0  2  0  0  0
  -24.8408  -28.9707   20.1078 C   0  0  0  0  0  0
  -22.7370  -29.4644   22.4996 C   0  0  0  0  0  0
  -18.0283  -28.1354   22.8473 C   0  0  0  0  0  0
  -24.1478  -36.7315   23.2644 C   0  0  0  0  0  0
  -25.9289  -30.8144   21.3823 C   0  0  0  0  0  0
  -25.9969  -29.4437   20.7406 C   0  0  0  0  0  0
  -27.1703  -28.6526   20.7601 C   0  0  0  0  0  0
  -26.0516  -27.0020   19.3781 C   0  0  0  0  0  0
  -24.8621  -27.7464   19.4317 C   0  0  0  0  0  0
  -23.6037  -29.8352   20.1708 C   0  0  0  0  0  0
  -25.4096  -36.3090   24.0327 C   0  0  1  0  0  0
  -20.5855  -28.3623   23.1341 C   0  0  2  0  0  0
  -20.6763  -26.9366   22.5426 C   0  0  0  0  0  0
  -19.5747  -26.6376   21.5215 C   0  0  0  0  0  0
  -18.1933  -26.7907   22.1608 C   0  0  0  0  0  0
  -19.1523  -28.8819   23.2909 C   0  0  0  0  0  0
  -18.9444  -30.1437   23.8928 C   0  0  0  0  0  0
  -17.6447  -30.6598   24.0568 C   0  0  0  0  0  0
  -25.9020  -34.9479   23.5135 C   0  0  0  0  0  0
  -16.5346  -29.9102   23.6318 C   0  0  0  0  0  0
  -16.7268  -28.6495   23.0363 C   0  0  0  0  0  0
  -26.4449  -31.6585   25.0668 C   0  0  0  0  0  0
  -25.3727  -31.3720   26.1425 C   0  0  0  0  0  0
  -27.0279  -30.3023   24.6018 C   0  0  0  0  0  0
  -27.6029  -32.4310   25.7424 C   0  0  0  0  0  0
  -27.5573  -37.1776   24.8446 C   0  0  0  0  0  0
  -21.4102  -29.3013   22.3752 N   0  0  0  0  0  0
  -26.4258  -37.3777   23.9423 N   0  0  0  0  0  0
  -24.6629  -31.0761   22.1094 N   0  0  0  0  0  0
  -23.4155  -28.8196   23.3052 O   0  0  0  0  0  0
  -28.3495  -26.6145   20.1156 O   0  0  0  0  0  0
  -26.5596  -34.8938   22.4710 O   0  0  0  0  0  0
  -23.5297  -32.1493   23.7566 O   0  0  0  0  0  0
  -28.6225  -19.6836   19.0778 C   0  0  0  0  0  0
  -29.1799  -20.3210   21.3521 C   0  0  0  0  0  0
  -29.8132  -18.0839   20.5306 C   0  0  0  0  0  0
  -28.6407  -20.6677   20.0976 C   0  0  0  0  0  0
  -29.2114  -18.4048   19.2711 C   0  0  0  0  0  0
  -29.7592  -19.0543   21.5625 C   0  0  0  0  0  0
  -26.9273  -22.4251   20.2421 C   0  0  0  0  0  0
  -28.8706  -22.9955   19.3064 C   0  0  0  0  0  0
  -30.6512  -16.8482   20.7862 C   0  0  0  0  0  0
  -26.7351  -23.9002   19.9156 C   0  0  0  0  0  0
  -27.9705  -24.2244   19.0438 C   0  0  1  0  0  0
  -28.5939  -25.6754   19.0380 C   0  0  0  0  0  0
  -28.1499  -22.0020   19.8775 N   0  0  0  0  0  0
  -29.2174  -17.5370   18.1628 N   0  0  0  0  0  0
  -30.0865  -15.6268   20.6425 N   0  0  0  0  0  0
  -26.0222  -21.7409   20.7599 O   0  0  0  0  0  0
  -30.0700  -22.9469   18.9948 O   0  0  0  0  0  0
  -31.8320  -17.0188   21.1272 O   0  0  0  0  0  0
  -30.3145  -18.8056   22.7758 F   0  0  0  0  0  0
  -31.4519  -12.3476   19.1291 H   0  0  0  0  0  0
  -30.2765  -11.2996   19.8816 H   0  0  0  0  0  0
  -29.7431  -11.7517   17.4413 H   0  0  0  0  0  0
  -29.6376  -13.4681   17.7838 H   0  0  0  0  0  0
  -27.8653  -11.2688   18.9137 H   0  0  0  0  0  0
  -27.3506  -12.5095   17.8068 H   0  0  0  0  0  0
  -27.6712  -14.2419   19.4834 H   0  0  0  0  0  0
  -28.6568  -12.1395   21.4869 H   0  0  0  0  0  0
  -28.4843  -13.8501   21.7678 H   0  0  0  0  0  0
  -25.2727   -9.5736   22.4792 H   0  0  0  0  0  0
  -23.9992   -7.4659   22.7431 H   0  0  0  0  0  0
  -21.0824   -8.8847   19.8981 H   0  0  0  0  0  0
  -22.3657  -10.9742   19.6219 H   0  0  0  0  0  0
  -21.1991   -7.6153   23.9753 H   0  0  0  0  0  0
  -21.1508   -6.0481   25.9102 H   0  0  0  0  0  0
  -22.0577   -2.7609   23.2798 H   0  0  0  0  0  0
  -22.3934  -12.0035   22.4878 H   0  0  0  0  0  0
  -21.1094  -13.1606   22.2573 H   0  0  0  0  0  0
  -24.6626  -15.8374   20.5299 H   0  0  0  0  0  0
  -26.2666  -15.6368   20.0501 H   0  0  0  0  0  0
  -26.7056  -32.5549   23.1156 H   0  0  0  0  0  0
  -24.9902  -33.9800   25.0381 H   0  0  0  0  0  0
  -22.6814  -31.3139   21.4250 H   0  0  0  0  0  0
  -23.3720  -35.9652   23.3268 H   0  0  0  0  0  0
  -24.3582  -36.8974   22.2057 H   0  0  0  0  0  0
  -23.7244  -37.6517   23.6700 H   0  0  0  0  0  0
  -26.0354  -31.5660   20.6014 H   0  0  0  0  0  0
  -26.8236  -30.8825   21.9871 H   0  0  0  0  0  0
  -28.0395  -28.9920   21.3062 H   0  0  0  0  0  0
  -26.0423  -26.1182   18.7653 H   0  0  0  0  0  0
  -23.9813  -27.3932   18.9144 H   0  0  0  0  0  0
  -23.7055  -30.6120   19.4135 H   0  0  0  0  0  0
  -22.7253  -29.2479   19.8806 H   0  0  0  0  0  0
  -25.1281  -36.1916   25.0801 H   0  0  0  0  0  0
  -20.9963  -28.3216   24.1450 H   0  0  0  0  0  0
  -20.5686  -26.2238   23.3594 H   0  0  0  0  0  0
  -21.6633  -26.7440   22.1217 H   0  0  0  0  0  0
  -19.6927  -25.6303   21.1226 H   0  0  0  0  0  0
  -19.6731  -27.3190   20.6744 H   0  0  0  0  0  0
  -17.4213  -26.6670   21.4019 H   0  0  0  0  0  0
  -18.0338  -26.0061   22.8997 H   0  0  0  0  0  0
  -19.7951  -30.7223   24.2298 H   0  0  0  0  0  0
  -17.5047  -31.6280   24.5136 H   0  0  0  0  0  0
  -15.5358  -30.3013   23.7650 H   0  0  0  0  0  0
  -15.8655  -28.0841   22.7055 H   0  0  0  0  0  0
  -24.5849  -30.7123   25.7793 H   0  0  0  0  0  0
  -24.8957  -32.2883   26.4893 H   0  0  0  0  0  0
  -25.8031  -30.8857   27.0179 H   0  0  0  0  0  0
  -26.2801  -29.6760   24.1117 H   0  0  0  0  0  0
  -27.4151  -29.7260   25.4445 H   0  0  0  0  0  0
  -27.8612  -30.4380   23.9109 H   0  0  0  0  0  0
  -27.2626  -33.3606   26.2025 H   0  0  0  0  0  0
  -28.3793  -32.6871   25.0195 H   0  0  0  0  0  0
  -28.0731  -31.8391   26.5301 H   0  0  0  0  0  0
  -28.2547  -38.0123   24.7528 H   0  0  0  0  0  0
  -28.1108  -36.2638   24.6185 H   0  0  0  0  0  0
  -27.2307  -37.1348   25.8860 H   0  0  0  0  0  0
  -20.9250  -29.8664   21.6906 H   0  0  0  0  0  0
  -26.0127  -38.2830   24.1495 H   0  0  0  0  0  0
  -28.1786  -19.9355   18.1236 H   0  0  0  0  0  0
  -29.1856  -21.0380   22.1612 H   0  0  0  0  0  0
  -26.7133  -24.4759   20.8426 H   0  0  0  0  0  0
  -25.7784  -24.0259   19.4001 H   0  0  0  0  0  0
  -27.6862  -24.0435   18.0057 H   0  0  0  0  0  0
  -28.2875  -26.1664   18.1116 H   0  0  0  0  0  0
  -29.6824  -25.6222   18.9335 H   0  0  0  0  0  0
  -28.9995  -17.9387   17.2557 H   0  0  0  0  0  0
  -29.9554  -16.8412   18.0819 H   0  0  0  0  0  0
  -29.0882  -15.5826   20.5348 H   0  0  0  0  0  0
  1 25  1  0  0  0
  1 30  2  0  0  0
  1 85  1  0  0  0
  2  3  1  0  0  0
  2 25  1  0  0  0
  2 90  1  0  0  0
  2 91  1  0  0  0
  3  4  1  0  0  0
  3 92  1  0  0  0
  3 93  1  0  0  0
  4  5  1  0  0  0
  4 94  1  0  0  0
  4 95  1  0  0  0
  5  6  1  0  0  0
  5 26  1  0  0  0
  5 96  1  0  0  0
  6 25  1  0  0  0
  6 97  1  0  0  0
  6 98  1  0  0  0
  7  8  2  0  0  0
  7 26  1  0  0  0
  7 29  1  0  0  0
  8  9  1  0  0  0
  8 22  1  0  0  0
  9 10  1  0  0  0
  9 27  2  0  0  0
 10 11  2  0  0  0
 10 15  1  0  0  0
 11 12  1  0  0  0
 11 99  1  0  0  0
 12 13  2  0  0  0
 12100  1  0  0  0
 13 14  1  0  0  0
 13 31  1  0  0  0
 14 15  2  0  0  0
 14101  1  0  0  0
 15102  1  0  0  0
 16 17  2  0  0  0
 16 21  1  0  0  0
 16 31  1  0  0  0
 17 18  1  0  0  0
 17103  1  0  0  0
 18 19  2  0  0  0
 18104  1  0  0  0
 19 20  1  0  0  0
 19 24  1  0  0  0
 20 21  2  0  0  0
 20105  1  0  0  0
 21 23  1  0  0  0
 22 28  1  0  0  0
 22 32  2  0  0  0
 26 27  1  0  0  0
 28106  1  0  0  0
 28107  1  0  0  0
 29108  1  0  0  0
 29109  1  0  0  0
 33 34  1  0  0  0
 33 66  1  0  0  0
 33 70  2  0  0  0
 34 36  1  0  0  0
 34 59  1  0  0  0
 34110  1  0  0  0
 35 44  2  0  0  0
 35 45  1  0  0  0
 35 68  1  0  0  0
 36 56  1  0  0  0
 36111  1  0  0  0
 37 39  1  0  0  0
 37 47  1  0  0  0
 37 66  1  0  0  0
 37112  1  0  0  0
 38 43  2  0  0  0
 38 46  1  0  0  0
 38 47  1  0  0  0
 39 64  1  0  0  0
 39 67  2  0  0  0
 40 52  1  0  0  0
 40 53  2  0  0  0
 40 58  1  0  0  0
 41113  1  0  0  0
 41114  1  0  0  0
 41115  1  0  0  0
 41 48  1  0  0  0
 42 43  1  0  0  0
 42 66  1  0  0  0
 42116  1  0  0  0
 42117  1  0  0  0
 43 44  1  0  0  0
 44118  1  0  0  0
 45 46  2  0  0  0
 45119  1  0  0  0
 46120  1  0  0  0
 47121  1  0  0  0
 47122  1  0  0  0
 48 56  1  0  0  0
 48 65  1  0  0  0
 48123  1  0  0  0
 49 50  1  0  0  0
 49 53  1  0  0  0
 49 64  1  0  0  0
 49124  1  0  0  0
 50 51  1  0  0  0
 50125  1  0  0  0
 50126  1  0  0  0
 51 52  1  0  0  0
 51127  1  0  0  0
 51128  1  0  0  0
 52129  1  0  0  0
 52130  1  0  0  0
 53 54  1  0  0  0
 54 55  2  0  0  0
 54131  1  0  0  0
 55 57  1  0  0  0
 55132  1  0  0  0
 56 69  2  0  0  0
 57 58  2  0  0  0
 57133  1  0  0  0
 58134  1  0  0  0
 59 60  1  0  0  0
 59 61  1  0  0  0
 59 62  1  0  0  0
 60135  1  0  0  0
 60136  1  0  0  0
 60137  1  0  0  0
 61138  1  0  0  0
 61139  1  0  0  0
 61140  1  0  0  0
 62141  1  0  0  0
 62142  1  0  0  0
 62143  1  0  0  0
 63 65  1  0  0  0
 63144  1  0  0  0
 63145  1  0  0  0
 63146  1  0  0  0
 64147  1  0  0  0
 65148  1  0  0  0
 68 82  1  0  0  0
 71 74  2  0  0  0
 71 75  1  0  0  0
 71149  1  0  0  0
 72 74  1  0  0  0
 72 76  2  0  0  0
 72150  1  0  0  0
 73 75  2  0  0  0
 73 76  1  0  0  0
 73 79  1  0  0  0
 74 83  1  0  0  0
 75 84  1  0  0  0
 76 89  1  0  0  0
 77 80  1  0  0  0
 77 83  1  0  0  0
 77 86  2  0  0  0
 78 81  1  0  0  0
 78 83  1  0  0  0
 78 87  2  0  0  0
 79 85  1  0  0  0
 79 88  2  0  0  0
 80 81  1  0  0  0
 80151  1  0  0  0
 80152  1  0  0  0
 81 82  1  0  0  0
 81153  1  0  0  0
 82154  1  0  0  0
 82155  1  0  0  0
 84156  1  0  0  0
 84157  1  0  0  0
 85158  1  0  0  0
M  ISO  4   1 100  68 101  82 101  85 100
M  END
> <chiral flag>
0

> <version>
0

> <s_m_source_file>
/data/baiqing/PycharmProjects/Reinvent-master-3.2/result/LINK_invent/BTK/process_docking_weight1_custom_product_contain_oxygen_bond_distance_aromatic_linkinvent_7_9_3/rearranged_h_0094.sdf

> <i_m_source_file_index>
35

> <r_mmod_Potential_Energy-OPLS-2005>
160.784713745117

> <r_mmod_Stretch_Energy-OPLS-2005>
47.4154014587402

> <r_mmod_Bend_Energy-OPLS-2005>
162.802368164062

> <r_mmod_Torsional_Energy-OPLS-2005>
307.693725585938

> <r_mmod_Improper_Torsional_Energy-OPLS-2005>
11.7314748764038

> <r_mmod_Van_der_Waal_Energy-OPLS-2005>
159.508453369141

> <r_mmod_Electrostatic_Energy-OPLS-2005>
-302.957977294922

> <r_mmod_Solvation_Energy-OPLS-2005>
-259.348297119141

> <b_mmod_Minimization_Converged-OPLS-2005>
0

> <r_mmod_RMS_Derivative-OPLS-2005>
9.93939018249512

$$$$
35
                    3D
 Structure written by MMmdl.
161170  0  0  1  0            999 V2000
  -30.6186  -14.6561   20.5017 C   0  0  0  0  0  0
  -30.4416  -12.4020   19.4575 C   0  0  0  0  0  0
  -29.5129  -12.5143   18.2277 C   0  0  0  0  0  0
  -28.0346  -12.3521   18.6350 C   0  0  0  0  0  0
  -27.6563  -13.2199   19.8656 C   0  0  2  0  0  0
  -28.7000  -13.0726   20.9956 C   0  0  0  0  0  0
  -25.2574  -13.8186   20.5672 C   0  0  0  0  0  0
  -24.1836  -13.0451   20.9172 C   0  0  0  0  0  0
  -24.6408  -11.6923   20.8729 C   0  0  0  0  0  0
  -23.9076  -10.4305   21.0396 C   0  0  0  0  0  0
  -24.3631   -9.4220   21.9177 C   0  0  0  0  0  0
  -23.6304   -8.2255   22.0753 C   0  0  0  0  0  0
  -22.4286   -8.0296   21.3547 C   0  0  0  0  0  0
  -21.9918   -9.0268   20.4648 C   0  0  0  0  0  0
  -22.7244  -10.2148   20.3047 C   0  0  0  0  0  0
  -21.6858   -6.0740   22.5280 C   0  0  0  0  0  0
  -21.4017   -6.5638   23.8215 C   0  0  0  0  0  0
  -21.3658   -5.6789   24.9174 C   0  0  0  0  0  0
  -21.6039   -4.3051   24.7219 C   0  0  0  0  0  0
  -21.8821   -3.8146   23.4339 C   0  0  0  0  0  0
  -21.9194   -4.6965   22.3398 C   0  0  0  0  0  0
  -22.7853  -13.5246   21.1831 C   0  0  0  0  0  0
  -22.1660   -4.2154   21.0973 F   0  0  0  0  0  0
  -21.5630   -3.4532   25.7729 F   0  0  0  0  0  0
  -30.0167  -13.4235   20.4371 N   0  0  0  0  0  0
  -26.3008  -12.9372   20.3315 N   0  0  0  0  0  0
  -25.9338  -11.6524   20.5744 N   0  0  0  0  0  0
  -22.0482  -12.8256   22.0395 N   0  0  0  0  0  0
  -25.4288  -15.1906   20.4092 N   0  0  0  0  0  0
  -31.7677  -14.8292   20.0831 O   0  0  0  0  0  0
  -21.6648   -6.8892   21.4249 O   0  0  0  0  0  0
  -22.3531  -14.5540   20.6661 O   0  0  0  0  0  0
  -24.6271  -31.8601   23.2049 C   0  0  0  0  0  0
  -25.9118  -32.4781   23.8370 C   0  0  1  0  0  0
  -27.2178  -27.3075   20.1132 C   0  0  0  0  0  0
  -25.5932  -33.8583   24.2293 N   0  0  0  0  0  0
  -23.4208  -30.4864   21.5470 C   0  0  2  0  0  0
  -24.8668  -28.9454   20.1084 C   0  0  0  0  0  0
  -22.7483  -29.4630   22.4933 C   0  0  0  0  0  0
  -18.0286  -28.1388   22.8499 C   0  0  0  0  0  0
  -24.1487  -36.7290   23.2641 C   0  0  0  0  0  0
  -25.9656  -30.7852   21.3810 C   0  0  0  0  0  0
  -26.0374  -29.4146   20.7175 C   0  0  0  0  0  0
  -27.2160  -28.6077   20.7108 C   0  0  0  0  0  0
  -26.0221  -26.9005   19.4736 C   0  0  0  0  0  0
  -24.8622  -27.6948   19.4771 C   0  0  0  0  0  0
  -23.6361  -29.8271   20.1603 C   0  0  0  0  0  0
  -25.4114  -36.3087   24.0330 C   0  0  1  0  0  0
  -20.5893  -28.3690   23.1292 C   0  0  2  0  0  0
  -20.6778  -26.9413   22.5414 C   0  0  0  0  0  0
  -19.5745  -26.6387   21.5227 C   0  0  0  0  0  0
  -18.1927  -26.7935   22.1637 C   0  0  0  0  0  0
  -19.1542  -28.8857   23.2893 C   0  0  0  0  0  0
  -18.9462  -30.1463   23.8904 C   0  0  0  0  0  0
  -17.6461  -30.6595   24.0566 C   0  0  0  0  0  0
  -25.9053  -34.9453   23.5111 C   0  0  0  0  0  0
  -16.5352  -29.9093   23.6331 C   0  0  0  0  0  0
  -16.7275  -28.6507   23.0363 C   0  0  0  0  0  0
  -26.4499  -31.6598   25.0742 C   0  0  0  0  0  0
  -25.3728  -31.3737   26.1463 C   0  0  0  0  0  0
  -27.0344  -30.3017   24.6214 C   0  0  0  0  0  0
  -27.6055  -32.4339   25.7507 C   0  0  0  0  0  0
  -27.5580  -37.1803   24.8467 C   0  0  0  0  0  0
  -21.4199  -29.3045   22.3683 N   0  0  0  0  0  0
  -26.4290  -37.3782   23.9414 N   0  0  0  0  0  0
  -24.6900  -31.0605   22.1007 N   0  0  0  0  0  0
  -23.4206  -28.8161   23.3007 O   0  0  0  0  0  0
  -28.3230  -26.4362   20.1751 O   0  0  0  0  0  0
  -26.5617  -34.8915   22.4675 O   0  0  0  0  0  0
  -23.5433  -32.1404   23.7372 O   0  0  0  0  0  0
  -29.1638  -19.3967   21.6151 C   0  0  0  0  0  0
  -29.1693  -17.9729   21.6956 C   0  0  0  0  0  0
  -30.6081  -17.8561   19.7772 C   0  0  0  0  0  0
  -29.8902  -20.1070   20.6222 C   0  0  0  0  0  0
  -29.9094  -17.1546   20.7998 C   0  0  0  0  0  0
  -30.6001  -19.2890   19.6823 C   0  0  0  0  0  0
  -29.1459  -23.9189   20.3743 C   0  0  0  0  0  0
  -28.9757  -22.5428   20.3471 C   0  0  0  0  0  0
  -31.1896  -22.0491   21.2240 C   0  0  0  0  0  0
  -30.4808  -24.4992   20.7811 C   0  0  0  0  0  0
  -31.3022  -23.5241   21.6341 C   0  0  0  0  0  0
  -27.6515  -21.9324   19.8923 C   0  0  0  0  0  0
  -28.0707  -24.9868   19.9496 C   0  0  0  0  0  0
  -30.0206  -21.5843   20.6933 N   0  0  0  0  0  0
  -31.3201  -19.8747   18.6381 N   0  0  0  0  0  0
  -29.8326  -15.6925   20.9400 N   0  0  0  0  0  0
  -32.1771  -21.3346   21.4395 O   0  0  0  0  0  0
  -31.4824  -12.5285   19.1568 H   0  0  0  0  0  0
  -30.3782  -11.4058   19.8973 H   0  0  0  0  0  0
  -29.7811  -11.7636   17.4835 H   0  0  0  0  0  0
  -29.6558  -13.4831   17.7481 H   0  0  0  0  0  0
  -27.8688  -11.2986   18.8612 H   0  0  0  0  0  0
  -27.3833  -12.5870   17.7918 H   0  0  0  0  0  0
  -27.6755  -14.2565   19.5287 H   0  0  0  0  0  0
  -28.7127  -12.0480   21.3701 H   0  0  0  0  0  0
  -28.4403  -13.6971   21.8513 H   0  0  0  0  0  0
  -25.2779   -9.5688   22.4748 H   0  0  0  0  0  0
  -24.0006   -7.4643   22.7470 H   0  0  0  0  0  0
  -21.0845   -8.8783   19.8962 H   0  0  0  0  0  0
  -22.3698  -10.9683   19.6151 H   0  0  0  0  0  0
  -21.2012   -7.6148   23.9719 H   0  0  0  0  0  0
  -21.1477   -6.0516   25.9077 H   0  0  0  0  0  0
  -22.0602   -2.7609   23.2836 H   0  0  0  0  0  0
  -22.4100  -11.9937   22.4819 H   0  0  0  0  0  0
  -21.1088  -13.1281   22.2572 H   0  0  0  0  0  0
  -24.6614  -15.8448   20.5149 H   0  0  0  0  0  0
  -26.2800  -15.6311   20.0830 H   0  0  0  0  0  0
  -26.7178  -32.5435   23.1107 H   0  0  0  0  0  0
  -25.0080  -33.9730   25.0439 H   0  0  0  0  0  0
  -22.7143  -31.3074   21.4073 H   0  0  0  0  0  0
  -23.3752  -35.9621   23.3315 H   0  0  0  0  0  0
  -24.3582  -36.8897   22.2054 H   0  0  0  0  0  0
  -23.7225  -37.6489   23.6658 H   0  0  0  0  0  0
  -26.1045  -31.5518   20.6179 H   0  0  0  0  0  0
  -26.8439  -30.8271   22.0136 H   0  0  0  0  0  0
  -28.1116  -28.9603   21.2026 H   0  0  0  0  0  0
  -25.9444  -25.9478   18.9722 H   0  0  0  0  0  0
  -23.9656  -27.3327   18.9933 H   0  0  0  0  0  0
  -23.7563  -30.6069   19.4074 H   0  0  0  0  0  0
  -22.7550  -29.2605   19.8549 H   0  0  0  0  0  0
  -25.1292  -36.1944   25.0820 H   0  0  0  0  0  0
  -20.9989  -28.3255   24.1413 H   0  0  0  0  0  0
  -20.5703  -26.2292   23.3612 H   0  0  0  0  0  0
  -21.6641  -26.7457   22.1189 H   0  0  0  0  0  0
  -19.6906  -25.6301   21.1248 H   0  0  0  0  0  0
  -19.6679  -27.3207   20.6767 H   0  0  0  0  0  0
  -17.4201  -26.6703   21.4035 H   0  0  0  0  0  0
  -18.0315  -26.0079   22.9029 H   0  0  0  0  0  0
  -19.7933  -30.7287   24.2276 H   0  0  0  0  0  0
  -17.5010  -31.6277   24.5165 H   0  0  0  0  0  0
  -15.5352  -30.2995   23.7662 H   0  0  0  0  0  0
  -15.8673  -28.0827   22.7082 H   0  0  0  0  0  0
  -24.5904  -30.7088   25.7790 H   0  0  0  0  0  0
  -24.8917  -32.2904   26.4885 H   0  0  0  0  0  0
  -25.8043  -30.8911   27.0242 H   0  0  0  0  0  0
  -26.2926  -29.6767   24.1226 H   0  0  0  0  0  0
  -27.4020  -29.7271   25.4730 H   0  0  0  0  0  0
  -27.8811  -30.4302   23.9466 H   0  0  0  0  0  0
  -27.2664  -33.3639   26.2085 H   0  0  0  0  0  0
  -28.3860  -32.6905   25.0332 H   0  0  0  0  0  0
  -28.0738  -31.8468   26.5419 H   0  0  0  0  0  0
  -28.2599  -38.0100   24.7519 H   0  0  0  0  0  0
  -28.1073  -36.2631   24.6290 H   0  0  0  0  0  0
  -27.2302  -37.1442   25.8870 H   0  0  0  0  0  0
  -20.9382  -29.8761   21.6885 H   0  0  0  0  0  0
  -26.0173  -38.2857   24.1415 H   0  0  0  0  0  0
  -28.6155  -19.9539   22.3619 H   0  0  0  0  0  0
  -28.6036  -17.5073   22.4903 H   0  0  0  0  0  0
  -31.1577  -17.2819   19.0446 H   0  0  0  0  0  0
  -30.3193  -25.4125   21.3548 H   0  0  0  0  0  0
  -31.0280  -24.7843   19.8823 H   0  0  0  0  0  0
  -32.3494  -23.8279   21.6407 H   0  0  0  0  0  0
  -30.9599  -23.5836   22.6674 H   0  0  0  0  0  0
  -27.2857  -22.4377   18.9987 H   0  0  0  0  0  0
  -26.9011  -22.0536   20.6737 H   0  0  0  0  0  0
  -27.7031  -20.8743   19.6412 H   0  0  0  0  0  0
  -27.1498  -24.6986   20.4587 H   0  0  0  0  0  0
  -27.9049  -24.8456   18.8806 H   0  0  0  0  0  0
  -31.5958  -20.8463   18.7264 H   0  0  0  0  0  0
  -32.0295  -19.3155   18.1754 H   0  0  0  0  0  0
  -28.9917  -15.3625   21.3884 H   0  0  0  0  0  0
  1 25  1  0  0  0
  1 30  2  0  0  0
  1 86  1  0  0  0
  2  3  1  0  0  0
  2 25  1  0  0  0
  2 88  1  0  0  0
  2 89  1  0  0  0
  3  4  1  0  0  0
  3 90  1  0  0  0
  3 91  1  0  0  0
  4  5  1  0  0  0
  4 92  1  0  0  0
  4 93  1  0  0  0
  5  6  1  0  0  0
  5 26  1  0  0  0
  5 94  1  0  0  0
  6 25  1  0  0  0
  6 95  1  0  0  0
  6 96  1  0  0  0
  7  8  2  0  0  0
  7 26  1  0  0  0
  7 29  1  0  0  0
  8  9  1  0  0  0
  8 22  1  0  0  0
  9 10  1  0  0  0
  9 27  2  0  0  0
 10 11  2  0  0  0
 10 15  1  0  0  0
 11 12  1  0  0  0
 11 97  1  0  0  0
 12 13  2  0  0  0
 12 98  1  0  0  0
 13 14  1  0  0  0
 13 31  1  0  0  0
 14 15  2  0  0  0
 14 99  1  0  0  0
 15100  1  0  0  0
 16 17  2  0  0  0
 16 21  1  0  0  0
 16 31  1  0  0  0
 17 18  1  0  0  0
 17101  1  0  0  0
 18 19  2  0  0  0
 18102  1  0  0  0
 19 20  1  0  0  0
 19 24  1  0  0  0
 20 21  2  0  0  0
 20103  1  0  0  0
 21 23  1  0  0  0
 22 28  1  0  0  0
 22 32  2  0  0  0
 26 27  1  0  0  0
 28104  1  0  0  0
 28105  1  0  0  0
 29106  1  0  0  0
 29107  1  0  0  0
 33 34  1  0  0  0
 33 66  1  0  0  0
 33 70  2  0  0  0
 34 36  1  0  0  0
 34 59  1  0  0  0
 34108  1  0  0  0
 35 44  2  0  0  0
 35 45  1  0  0  0
 35 68  1  0  0  0
 36 56  1  0  0  0
 36109  1  0  0  0
 37 39  1  0  0  0
 37 47  1  0  0  0
 37 66  1  0  0  0
 37110  1  0  0  0
 38 43  2  0  0  0
 38 46  1  0  0  0
 38 47  1  0  0  0
 39 64  1  0  0  0
 39 67  2  0  0  0
 40 52  1  0  0  0
 40 53  2  0  0  0
 40 58  1  0  0  0
 41111  1  0  0  0
 41112  1  0  0  0
 41113  1  0  0  0
 41 48  1  0  0  0
 42 43  1  0  0  0
 42 66  1  0  0  0
 42114  1  0  0  0
 42115  1  0  0  0
 43 44  1  0  0  0
 44116  1  0  0  0
 45 46  2  0  0  0
 45117  1  0  0  0
 46118  1  0  0  0
 47119  1  0  0  0
 47120  1  0  0  0
 48 56  1  0  0  0
 48 65  1  0  0  0
 48121  1  0  0  0
 49 50  1  0  0  0
 49 53  1  0  0  0
 49 64  1  0  0  0
 49122  1  0  0  0
 50 51  1  0  0  0
 50123  1  0  0  0
 50124  1  0  0  0
 51 52  1  0  0  0
 51125  1  0  0  0
 51126  1  0  0  0
 52127  1  0  0  0
 52128  1  0  0  0
 53 54  1  0  0  0
 54 55  2  0  0  0
 54129  1  0  0  0
 55 57  1  0  0  0
 55130  1  0  0  0
 56 69  2  0  0  0
 57 58  2  0  0  0
 57131  1  0  0  0
 58132  1  0  0  0
 59 60  1  0  0  0
 59 61  1  0  0  0
 59 62  1  0  0  0
 60133  1  0  0  0
 60134  1  0  0  0
 60135  1  0  0  0
 61136  1  0  0  0
 61137  1  0  0  0
 61138  1  0  0  0
 62139  1  0  0  0
 62140  1  0  0  0
 62141  1  0  0  0
 63 65  1  0  0  0
 63142  1  0  0  0
 63143  1  0  0  0
 63144  1  0  0  0
 64145  1  0  0  0
 65146  1  0  0  0
 68 83  1  0  0  0
 71 72  2  0  0  0
 71 74  1  0  0  0
 71147  1  0  0  0
 72 75  1  0  0  0
 72148  1  0  0  0
 73 75  2  0  0  0
 73 76  1  0  0  0
 73149  1  0  0  0
 74 76  2  0  0  0
 74 84  1  0  0  0
 75 86  1  0  0  0
 76 85  1  0  0  0
 77 78  2  0  0  0
 77 80  1  0  0  0
 77 83  1  0  0  0
 78 82  1  0  0  0
 78 84  1  0  0  0
 79 81  1  0  0  0
 79 84  1  0  0  0
 79 87  2  0  0  0
 80 81  1  0  0  0
 80150  1  0  0  0
 80151  1  0  0  0
 81152  1  0  0  0
 81153  1  0  0  0
 82154  1  0  0  0
 82155  1  0  0  0
 82156  1  0  0  0
 83157  1  0  0  0
 83158  1  0  0  0
 85159  1  0  0  0
 85160  1  0  0  0
 86161  1  0  0  0
M  ISO  4   1 100  68 101  83 101  86 100
M  END
> <chiral flag>
0

> <version>
0

> <s_m_source_file>
/data/baiqing/PycharmProjects/Reinvent-master-3.2/result/LINK_invent/BTK/process_docking_weight1_custom_product_contain_oxygen_bond_distance_aromatic_linkinvent_7_9_3/rearranged_h_0094.sdf

> <i_m_source_file_index>
36

> <r_mmod_Potential_Energy-OPLS-2005>
220.148391723633

> <r_mmod_Stretch_Energy-OPLS-2005>
98.7592010498047

> <r_mmod_Bend_Energy-OPLS-2005>
143.345993041992

> <r_mmod_Torsional_Energy-OPLS-2005>
282.422973632812

> <r_mmod_Improper_Torsional_Energy-OPLS-2005>
7.46191692352295

> <r_mmod_Van_der_Waal_Energy-OPLS-2005>
165.591552734375

> <r_mmod_Electrostatic_Energy-OPLS-2005>
-304.422546386719

> <r_mmod_Solvation_Energy-OPLS-2005>
-227.801071166992

> <b_mmod_Minimization_Converged-OPLS-2005>
0

> <r_mmod_RMS_Derivative-OPLS-2005>
1.28879618644714

$$$$
36
                    3D
 Structure written by MMmdl.
154162  0  0  1  0            999 V2000
  -30.5875  -14.8468   20.3645 C   0  0  0  0  0  0
  -30.4365  -12.5019   19.4739 C   0  0  0  0  0  0
  -29.5069  -12.4357   18.2419 C   0  0  0  0  0  0
  -28.0345  -12.2772   18.6661 C   0  0  0  0  0  0
  -27.6248  -13.2199   19.8291 C   0  0  2  0  0  0
  -28.6798  -13.2523   20.9536 C   0  0  0  0  0  0
  -25.2468  -13.8155   20.5701 C   0  0  0  0  0  0
  -24.1766  -13.0419   20.9232 C   0  0  0  0  0  0
  -24.6347  -11.6890   20.8800 C   0  0  0  0  0  0
  -23.9032  -10.4271   21.0439 C   0  0  0  0  0  0
  -24.3594   -9.4181   21.9203 C   0  0  0  0  0  0
  -23.6275   -8.2214   22.0753 C   0  0  0  0  0  0
  -22.4266   -8.0262   21.3535 C   0  0  0  0  0  0
  -21.9897   -9.0232   20.4644 C   0  0  0  0  0  0
  -22.7218  -10.2113   20.3067 C   0  0  0  0  0  0
  -21.6842   -6.0726   22.5279 C   0  0  0  0  0  0
  -21.4002   -6.5634   23.8211 C   0  0  0  0  0  0
  -21.3654   -5.6790   24.9179 C   0  0  0  0  0  0
  -21.6043   -4.3052   24.7229 C   0  0  0  0  0  0
  -21.8821   -3.8140   23.4352 C   0  0  0  0  0  0
  -21.9193   -4.6957   22.3413 C   0  0  0  0  0  0
  -22.7794  -13.5205   21.1899 C   0  0  0  0  0  0
  -22.1667   -4.2145   21.0987 F   0  0  0  0  0  0
  -21.5631   -3.4541   25.7741 F   0  0  0  0  0  0
  -29.9598  -13.6124   20.3326 N   0  0  0  0  0  0
  -26.2863  -12.9328   20.3282 N   0  0  0  0  0  0
  -25.9267  -11.6495   20.5805 N   0  0  0  0  0  0
  -22.0433  -12.8199   22.0460 N   0  0  0  0  0  0
  -25.4153  -15.1874   20.4032 N   0  0  0  0  0  0
  -31.8165  -14.8801   20.2521 O   0  0  0  0  0  0
  -21.6627   -6.8866   21.4235 O   0  0  0  0  0  0
  -22.3476  -14.5517   20.6752 O   0  0  0  0  0  0
  -24.6355  -31.8528   23.1958 C   0  0  0  0  0  0
  -25.9162  -32.4745   23.8322 C   0  0  1  0  0  0
  -27.2269  -27.2378   20.1456 C   0  0  0  0  0  0
  -25.5934  -33.8547   24.2241 N   0  0  0  0  0  0
  -23.4336  -30.4728   21.5410 C   0  0  2  0  0  0
  -24.8840  -28.9097   20.1166 C   0  0  0  0  0  0
  -22.7530  -29.4585   22.4918 C   0  0  0  0  0  0
  -18.0297  -28.1411   22.8494 C   0  0  0  0  0  0
  -24.1478  -36.7258   23.2641 C   0  0  0  0  0  0
  -25.9806  -30.7587   21.3788 C   0  0  0  0  0  0
  -26.0562  -29.3770   20.7255 C   0  0  0  0  0  0
  -27.2343  -28.5571   20.7215 C   0  0  0  0  0  0
  -26.0325  -26.8372   19.5134 C   0  0  0  0  0  0
  -24.8791  -27.6497   19.4959 C   0  0  0  0  0  0
  -23.6542  -29.8006   20.1601 C   0  0  0  0  0  0
  -25.4113  -36.3065   24.0325 C   0  0  1  0  0  0
  -20.5901  -28.3708   23.1270 C   0  0  2  0  0  0
  -20.6772  -26.9431   22.5409 C   0  0  0  0  0  0
  -19.5739  -26.6406   21.5213 C   0  0  0  0  0  0
  -18.1927  -26.7962   22.1634 C   0  0  0  0  0  0
  -19.1554  -28.8884   23.2868 C   0  0  0  0  0  0
  -18.9469  -30.1491   23.8887 C   0  0  0  0  0  0
  -17.6461  -30.6595   24.0582 C   0  0  0  0  0  0
  -25.9064  -34.9434   23.5096 C   0  0  0  0  0  0
  -16.5355  -29.9088   23.6347 C   0  0  0  0  0  0
  -16.7287  -28.6513   23.0358 C   0  0  0  0  0  0
  -26.4518  -31.6582   25.0727 C   0  0  0  0  0  0
  -25.3723  -31.3733   26.1433 C   0  0  0  0  0  0
  -27.0374  -30.3003   24.6230 C   0  0  0  0  0  0
  -27.6079  -32.4325   25.7486 C   0  0  0  0  0  0
  -27.5573  -37.1778   24.8472 C   0  0  0  0  0  0
  -21.4237  -29.3034   22.3634 N   0  0  0  0  0  0
  -26.4277  -37.3775   23.9422 N   0  0  0  0  0  0
  -24.7022  -31.0469   22.0949 N   0  0  0  0  0  0
  -23.4214  -28.8151   23.3044 O   0  0  0  0  0  0
  -28.3166  -26.3328   20.1279 O   0  0  0  0  0  0
  -26.5639  -34.8927   22.4672 O   0  0  0  0  0  0
  -23.5491  -32.1373   23.7223 O   0  0  0  0  0  0
  -30.4370  -18.6910   22.7646 C   0  0  0  0  0  0
  -30.0180  -19.9036   22.1720 C   0  0  0  0  0  0
  -30.3751  -17.4561   22.0843 C   0  0  0  0  0  0
  -29.4864  -18.6602   20.1656 C   0  0  0  0  0  0
  -29.5210  -19.9546   20.8490 C   0  0  0  0  0  0
  -29.9028  -17.3716   20.7578 C   0  0  0  0  0  0
  -29.8667  -15.9232   17.6431 C   0  0  0  0  0  0
  -29.2456  -16.1196   18.8214 C   0  0  0  0  0  0
  -28.1776  -24.9848   20.6052 C   0  0  0  0  0  0
  -28.8092  -23.8159   20.1630 C   0  0  0  0  0  0
  -28.6904  -22.4611   20.8628 C   0  0  0  0  0  0
  -29.1844  -21.2968   20.2548 N   0  0  0  0  0  0
  -29.8403  -16.0207   20.0905 N   0  0  0  0  0  0
  -28.1496  -22.3675   21.9660 O   0  0  0  0  0  0
  -29.6129  -23.8934   19.0923 O   0  0  0  0  0  0
  -31.4682  -12.6483   19.1515 H   0  0  0  0  0  0
  -30.4191  -11.5607   20.0268 H   0  0  0  0  0  0
  -29.7973  -11.6021   17.6008 H   0  0  0  0  0  0
  -29.6187  -13.3286   17.6304 H   0  0  0  0  0  0
  -27.9023  -11.2401   18.9767 H   0  0  0  0  0  0
  -27.3747  -12.4198   17.8098 H   0  0  0  0  0  0
  -27.5762  -14.2121   19.3914 H   0  0  0  0  0  0
  -28.7479  -12.2885   21.4598 H   0  0  0  0  0  0
  -28.4077  -13.9886   21.7113 H   0  0  0  0  0  0
  -25.2731   -9.5668   22.4790 H   0  0  0  0  0  0
  -23.9995   -7.4600   22.7455 H   0  0  0  0  0  0
  -21.0839   -8.8737   19.8940 H   0  0  0  0  0  0
  -22.3670  -10.9655   19.6183 H   0  0  0  0  0  0
  -21.1981   -7.6141   23.9712 H   0  0  0  0  0  0
  -21.1475   -6.0524   25.9081 H   0  0  0  0  0  0
  -22.0606   -2.7603   23.2856 H   0  0  0  0  0  0
  -22.4036  -11.9855   22.4860 H   0  0  0  0  0  0
  -21.1036  -13.1222   22.2663 H   0  0  0  0  0  0
  -24.6422  -15.8379   20.4836 H   0  0  0  0  0  0
  -26.2694  -15.6233   20.0817 H   0  0  0  0  0  0
  -26.7238  -32.5426   23.1061 H   0  0  0  0  0  0
  -25.0053  -33.9682   25.0366 H   0  0  0  0  0  0
  -22.7317  -31.2958   21.3922 H   0  0  0  0  0  0
  -23.3757  -35.9570   23.3303 H   0  0  0  0  0  0
  -24.3554  -36.8878   22.2056 H   0  0  0  0  0  0
  -23.7209  -37.6447   23.6672 H   0  0  0  0  0  0
  -26.1217  -31.5162   20.6061 H   0  0  0  0  0  0
  -26.8574  -30.8118   22.0132 H   0  0  0  0  0  0
  -28.1400  -28.9199   21.1866 H   0  0  0  0  0  0
  -25.9861  -25.8672   19.0392 H   0  0  0  0  0  0
  -23.9844  -27.2842   19.0106 H   0  0  0  0  0  0
  -23.7796  -30.5756   19.4032 H   0  0  0  0  0  0
  -22.7725  -29.2317   19.8572 H   0  0  0  0  0  0
  -25.1282  -36.1905   25.0811 H   0  0  0  0  0  0
  -21.0003  -28.3309   24.1381 H   0  0  0  0  0  0
  -20.5670  -26.2325   23.3609 H   0  0  0  0  0  0
  -21.6633  -26.7444   22.1190 H   0  0  0  0  0  0
  -19.6886  -25.6313   21.1234 H   0  0  0  0  0  0
  -19.6674  -27.3211   20.6746 H   0  0  0  0  0  0
  -17.4186  -26.6717   21.4049 H   0  0  0  0  0  0
  -18.0334  -26.0098   22.9034 H   0  0  0  0  0  0
  -19.7946  -30.7333   24.2225 H   0  0  0  0  0  0
  -17.5006  -31.6272   24.5195 H   0  0  0  0  0  0
  -15.5352  -30.2978   23.7678 H   0  0  0  0  0  0
  -15.8689  -28.0834   22.7063 H   0  0  0  0  0  0
  -24.5903  -30.7080   25.7734 H   0  0  0  0  0  0
  -24.8911  -32.2908   26.4857 H   0  0  0  0  0  0
  -25.8026  -30.8909   27.0221 H   0  0  0  0  0  0
  -26.2970  -29.6733   24.1244 H   0  0  0  0  0  0
  -27.4040  -29.7289   25.4767 H   0  0  0  0  0  0
  -27.8852  -30.4263   23.9484 H   0  0  0  0  0  0
  -27.2700  -33.3643   26.2037 H   0  0  0  0  0  0
  -28.3894  -32.6847   25.0301 H   0  0  0  0  0  0
  -28.0739  -31.8465   26.5421 H   0  0  0  0  0  0
  -28.2588  -38.0079   24.7538 H   0  0  0  0  0  0
  -28.1067  -36.2616   24.6263 H   0  0  0  0  0  0
  -27.2294  -37.1377   25.8874 H   0  0  0  0  0  0
  -20.9440  -29.8711   21.6776 H   0  0  0  0  0  0
  -26.0156  -38.2837   24.1461 H   0  0  0  0  0  0
  -30.8223  -18.7101   23.7740 H   0  0  0  0  0  0
  -30.1138  -20.8108   22.7518 H   0  0  0  0  0  0
  -30.7001  -16.5684   22.6086 H   0  0  0  0  0  0
  -29.1335  -18.6712   19.1447 H   0  0  0  0  0  0
  -29.3269  -16.0236   16.7129 H   0  0  0  0  0  0
  -30.9148  -15.6672   17.5805 H   0  0  0  0  0  0
  -28.2003  -16.3955   18.8661 H   0  0  0  0  0  0
  -27.5033  -24.9564   21.4516 H   0  0  0  0  0  0
  -29.3546  -21.3759   19.2626 H   0  0  0  0  0  0
  -30.1178  -23.0911   19.0599 H   0  0  0  0  0  0
  1 25  1  0  0  0
  1 30  2  0  0  0
  1 83  1  0  0  0
  2  3  1  0  0  0
  2 25  1  0  0  0
  2 86  1  0  0  0
  2 87  1  0  0  0
  3  4  1  0  0  0
  3 88  1  0  0  0
  3 89  1  0  0  0
  4  5  1  0  0  0
  4 90  1  0  0  0
  4 91  1  0  0  0
  5  6  1  0  0  0
  5 26  1  0  0  0
  5 92  1  0  0  0
  6 25  1  0  0  0
  6 93  1  0  0  0
  6 94  1  0  0  0
  7  8  2  0  0  0
  7 26  1  0  0  0
  7 29  1  0  0  0
  8  9  1  0  0  0
  8 22  1  0  0  0
  9 10  1  0  0  0
  9 27  2  0  0  0
 10 11  2  0  0  0
 10 15  1  0  0  0
 11 12  1  0  0  0
 11 95  1  0  0  0
 12 13  2  0  0  0
 12 96  1  0  0  0
 13 14  1  0  0  0
 13 31  1  0  0  0
 14 15  2  0  0  0
 14 97  1  0  0  0
 15 98  1  0  0  0
 16 17  2  0  0  0
 16 21  1  0  0  0
 16 31  1  0  0  0
 17 18  1  0  0  0
 17 99  1  0  0  0
 18 19  2  0  0  0
 18100  1  0  0  0
 19 20  1  0  0  0
 19 24  1  0  0  0
 20 21  2  0  0  0
 20101  1  0  0  0
 21 23  1  0  0  0
 22 28  1  0  0  0
 22 32  2  0  0  0
 26 27  1  0  0  0
 28102  1  0  0  0
 28103  1  0  0  0
 29104  1  0  0  0
 29105  1  0  0  0
 33 34  1  0  0  0
 33 66  1  0  0  0
 33 70  2  0  0  0
 34 36  1  0  0  0
 34 59  1  0  0  0
 34106  1  0  0  0
 35 44  2  0  0  0
 35 45  1  0  0  0
 35 68  1  0  0  0
 36 56  1  0  0  0
 36107  1  0  0  0
 37 39  1  0  0  0
 37 47  1  0  0  0
 37 66  1  0  0  0
 37108  1  0  0  0
 38 43  2  0  0  0
 38 46  1  0  0  0
 38 47  1  0  0  0
 39 64  1  0  0  0
 39 67  2  0  0  0
 40 52  1  0  0  0
 40 53  2  0  0  0
 40 58  1  0  0  0
 41109  1  0  0  0
 41110  1  0  0  0
 41111  1  0  0  0
 41 48  1  0  0  0
 42 43  1  0  0  0
 42 66  1  0  0  0
 42112  1  0  0  0
 42113  1  0  0  0
 43 44  1  0  0  0
 44114  1  0  0  0
 45 46  2  0  0  0
 45115  1  0  0  0
 46116  1  0  0  0
 47117  1  0  0  0
 47118  1  0  0  0
 48 56  1  0  0  0
 48 65  1  0  0  0
 48119  1  0  0  0
 49 50  1  0  0  0
 49 53  1  0  0  0
 49 64  1  0  0  0
 49120  1  0  0  0
 50 51  1  0  0  0
 50121  1  0  0  0
 50122  1  0  0  0
 51 52  1  0  0  0
 51123  1  0  0  0
 51124  1  0  0  0
 52125  1  0  0  0
 52126  1  0  0  0
 53 54  1  0  0  0
 54 55  2  0  0  0
 54127  1  0  0  0
 55 57  1  0  0  0
 55128  1  0  0  0
 56 69  2  0  0  0
 57 58  2  0  0  0
 57129  1  0  0  0
 58130  1  0  0  0
 59 60  1  0  0  0
 59 61  1  0  0  0
 59 62  1  0  0  0
 60131  1  0  0  0
 60132  1  0  0  0
 60133  1  0  0  0
 61134  1  0  0  0
 61135  1  0  0  0
 61136  1  0  0  0
 62137  1  0  0  0
 62138  1  0  0  0
 62139  1  0  0  0
 63 65  1  0  0  0
 63140  1  0  0  0
 63141  1  0  0  0
 63142  1  0  0  0
 64143  1  0  0  0
 65144  1  0  0  0
 68 79  1  0  0  0
 71 72  2  0  0  0
 71 73  1  0  0  0
 71145  1  0  0  0
 72 75  1  0  0  0
 72146  1  0  0  0
 73 76  2  0  0  0
 73147  1  0  0  0
 74 75  2  0  0  0
 74 76  1  0  0  0
 74148  1  0  0  0
 75 82  1  0  0  0
 76 83  1  0  0  0
 77 78  2  0  0  0
 77149  1  0  0  0
 77150  1  0  0  0
 78 83  1  0  0  0
 78151  1  0  0  0
 79 80  2  0  0  0
 79152  1  0  0  0
 80 81  1  0  0  0
 80 85  1  0  0  0
 81 82  1  0  0  0
 81 84  2  0  0  0
 82153  1  0  0  0
 85154  1  0  0  0
M  ISO  4   1 100  68 101  79 101  83 100
M  END
> <chiral flag>
0

> <version>
0

> <s_m_source_file>
/data/baiqing/PycharmProjects/Reinvent-master-3.2/result/LINK_invent/BTK/process_docking_weight1_custom_product_contain_oxygen_bond_distance_aromatic_linkinvent_7_9_3/rearranged_h_0094.sdf

> <i_m_source_file_index>
37

> <r_mmod_Potential_Energy-OPLS-2005>
430.723602294922

> <r_mmod_Stretch_Energy-OPLS-2005>
155.063415527344

> <r_mmod_Bend_Energy-OPLS-2005>
167.266296386719

> <r_mmod_Torsional_Energy-OPLS-2005>
351.513336181641

> <r_mmod_Improper_Torsional_Energy-OPLS-2005>
14.0999536514282

> <r_mmod_Van_der_Waal_Energy-OPLS-2005>
141.875

> <r_mmod_Electrostatic_Energy-OPLS-2005>
-292.727966308594

> <r_mmod_Solvation_Energy-OPLS-2005>
-233.454208374023

> <b_mmod_Minimization_Converged-OPLS-2005>
0

> <r_mmod_RMS_Derivative-OPLS-2005>
2.97146105766296

$$$$
37
                    3D
 Structure written by MMmdl.
151159  0  0  1  0            999 V2000
  -30.5873  -14.7683   20.4456 C   0  0  0  0  0  0
  -30.4432  -12.4691   19.4738 C   0  0  0  0  0  0
  -29.5156  -12.5187   18.2371 C   0  0  0  0  0  0
  -28.0428  -12.3431   18.6515 C   0  0  0  0  0  0
  -27.6528  -13.2305   19.8655 C   0  0  2  0  0  0
  -28.7002  -13.1502   21.0004 C   0  0  0  0  0  0
  -25.2587  -13.8200   20.5720 C   0  0  0  0  0  0
  -24.1864  -13.0455   20.9189 C   0  0  0  0  0  0
  -24.6444  -11.6924   20.8754 C   0  0  0  0  0  0
  -23.9108  -10.4302   21.0415 C   0  0  0  0  0  0
  -24.3652   -9.4217   21.9186 C   0  0  0  0  0  0
  -23.6313   -8.2262   22.0761 C   0  0  0  0  0  0
  -22.4295   -8.0309   21.3547 C   0  0  0  0  0  0
  -21.9941   -9.0290   20.4649 C   0  0  0  0  0  0
  -22.7287  -10.2159   20.3056 C   0  0  0  0  0  0
  -21.6868   -6.0759   22.5278 C   0  0  0  0  0  0
  -21.4028   -6.5650   23.8215 C   0  0  0  0  0  0
  -21.3649   -5.6792   24.9168 C   0  0  0  0  0  0
  -21.6037   -4.3053   24.7212 C   0  0  0  0  0  0
  -21.8826   -3.8158   23.4328 C   0  0  0  0  0  0
  -21.9206   -4.6986   22.3394 C   0  0  0  0  0  0
  -22.7886  -13.5257   21.1823 C   0  0  0  0  0  0
  -22.1675   -4.2174   21.0971 F   0  0  0  0  0  0
  -21.5618   -3.4532   25.7720 F   0  0  0  0  0  0
  -30.0000  -13.5199   20.4245 N   0  0  0  0  0  0
  -26.3019  -12.9398   20.3357 N   0  0  0  0  0  0
  -25.9385  -11.6539   20.5779 N   0  0  0  0  0  0
  -22.0520  -12.8256   22.0366 N   0  0  0  0  0  0
  -25.4276  -15.1919   20.4156 N   0  0  0  0  0  0
  -31.7435  -14.9031   20.0300 O   0  0  0  0  0  0
  -21.6650   -6.8915   21.4244 O   0  0  0  0  0  0
  -22.3575  -14.5569   20.6671 O   0  0  0  0  0  0
  -24.6363  -31.8529   23.1975 C   0  0  0  0  0  0
  -25.9156  -32.4757   23.8352 C   0  0  1  0  0  0
  -27.2218  -27.2311   20.1198 C   0  0  0  0  0  0
  -25.5936  -33.8562   24.2272 N   0  0  0  0  0  0
  -23.4377  -30.4778   21.5383 C   0  0  2  0  0  0
  -24.8865  -28.9250   20.1020 C   0  0  0  0  0  0
  -22.7532  -29.4601   22.4857 C   0  0  0  0  0  0
  -18.0297  -28.1391   22.8457 C   0  0  0  0  0  0
  -24.1488  -36.7294   23.2647 C   0  0  0  0  0  0
  -25.9885  -30.7523   21.3875 C   0  0  0  0  0  0
  -26.0583  -29.3747   20.7237 C   0  0  0  0  0  0
  -27.2263  -28.5398   20.7253 C   0  0  0  0  0  0
  -26.0316  -26.8731   19.4449 C   0  0  0  0  0  0
  -24.8821  -27.6860   19.4476 C   0  0  0  0  0  0
  -23.6574  -29.8138   20.1533 C   0  0  0  0  0  0
  -25.4116  -36.3090   24.0338 C   0  0  1  0  0  0
  -20.5921  -28.3701   23.1220 C   0  0  2  0  0  0
  -20.6796  -26.9414   22.5346 C   0  0  0  0  0  0
  -19.5764  -26.6407   21.5143 C   0  0  0  0  0  0
  -18.1950  -26.7950   22.1555 C   0  0  0  0  0  0
  -19.1555  -28.8842   23.2859 C   0  0  0  0  0  0
  -18.9480  -30.1410   23.8954 C   0  0  0  0  0  0
  -17.6471  -30.6551   24.0618 C   0  0  0  0  0  0
  -25.9053  -34.9449   23.5116 C   0  0  0  0  0  0
  -16.5369  -29.9078   23.6345 C   0  0  0  0  0  0
  -16.7286  -28.6507   23.0333 C   0  0  0  0  0  0
  -26.4505  -31.6598   25.0761 C   0  0  0  0  0  0
  -25.3713  -31.3735   26.1474 C   0  0  0  0  0  0
  -27.0348  -30.3005   24.6282 C   0  0  0  0  0  0
  -27.6057  -32.4353   25.7528 C   0  0  0  0  0  0
  -27.5584  -37.1811   24.8470 C   0  0  0  0  0  0
  -21.4230  -29.3084   22.3631 N   0  0  0  0  0  0
  -26.4299  -37.3785   23.9404 N   0  0  0  0  0  0
  -24.7060  -31.0467   22.0961 N   0  0  0  0  0  0
  -23.4222  -28.8105   23.2938 O   0  0  0  0  0  0
  -28.2971  -26.3005   20.2024 O   0  0  0  0  0  0
  -26.5626  -34.8924   22.4687 O   0  0  0  0  0  0
  -23.5496  -32.1357   23.7227 O   0  0  0  0  0  0
  -29.0697  -17.1358   18.8646 C   0  0  0  0  0  0
  -28.6250  -18.3049   18.2132 C   0  0  0  0  0  0
  -29.6539  -18.5053   20.7779 C   0  0  0  0  0  0
  -29.2325  -19.7486   20.1208 C   0  0  0  0  0  0
  -29.5901  -17.1751   20.1752 C   0  0  0  0  0  0
  -28.6910  -19.5831   18.8145 C   0  0  0  0  0  0
  -29.3893  -21.1745   20.7752 C   0  0  0  0  0  0
  -28.9317  -23.6857   20.5836 C   0  0  0  0  0  0
  -28.0801  -24.8359   19.8422 C   0  0  0  0  0  0
  -29.8390  -15.8679   20.8500 N   0  0  0  0  0  0
  -28.8514  -22.3360   20.2102 N   0  0  0  0  0  0
  -30.0151  -21.2107   21.8414 O   0  0  0  0  0  0
  -29.6505  -24.0600   21.5178 O   0  0  0  0  0  0
  -28.2020  -20.6398   18.0951 O   0  0  0  0  0  0
  -31.4824  -12.6051   19.1687 H   0  0  0  0  0  0
  -30.4022  -11.4871   19.9446 H   0  0  0  0  0  0
  -29.7959  -11.7419   17.5225 H   0  0  0  0  0  0
  -29.6413  -13.4681   17.7153 H   0  0  0  0  0  0
  -27.8962  -11.2919   18.9007 H   0  0  0  0  0  0
  -27.3837  -12.5474   17.8058 H   0  0  0  0  0  0
  -27.6517  -14.2575   19.5007 H   0  0  0  0  0  0
  -28.7475  -12.1459   21.4206 H   0  0  0  0  0  0
  -28.4353  -13.8108   21.8279 H   0  0  0  0  0  0
  -25.2807   -9.5688   22.4751 H   0  0  0  0  0  0
  -24.0028   -7.4653   22.7491 H   0  0  0  0  0  0
  -21.0869   -8.8821   19.8948 H   0  0  0  0  0  0
  -22.3764  -10.9705   19.6152 H   0  0  0  0  0  0
  -21.2029   -7.6158   23.9725 H   0  0  0  0  0  0
  -21.1452   -6.0513   25.9067 H   0  0  0  0  0  0
  -22.0613   -2.7624   23.2815 H   0  0  0  0  0  0
  -22.4154  -11.9923   22.4744 H   0  0  0  0  0  0
  -21.1116  -13.1253   22.2533 H   0  0  0  0  0  0
  -24.6557  -15.8402   20.5316 H   0  0  0  0  0  0
  -26.2757  -15.6372   20.0875 H   0  0  0  0  0  0
  -26.7221  -32.5394   23.1093 H   0  0  0  0  0  0
  -25.0098  -33.9687   25.0433 H   0  0  0  0  0  0
  -22.7409  -31.3044   21.3919 H   0  0  0  0  0  0
  -23.3758  -35.9619   23.3306 H   0  0  0  0  0  0
  -24.3592  -36.8912   22.2064 H   0  0  0  0  0  0
  -23.7218  -37.6490   23.6659 H   0  0  0  0  0  0
  -26.1383  -31.5119   20.6175 H   0  0  0  0  0  0
  -26.8632  -30.7993   22.0247 H   0  0  0  0  0  0
  -28.1183  -28.8748   21.2356 H   0  0  0  0  0  0
  -25.9490  -25.9411   18.9065 H   0  0  0  0  0  0
  -23.9949  -27.3454   18.9349 H   0  0  0  0  0  0
  -23.7766  -30.5922   19.3985 H   0  0  0  0  0  0
  -22.7754  -29.2462   19.8504 H   0  0  0  0  0  0
  -25.1289  -36.1974   25.0832 H   0  0  0  0  0  0
  -21.0021  -28.3272   24.1336 H   0  0  0  0  0  0
  -20.5706  -26.2293   23.3538 H   0  0  0  0  0  0
  -21.6647  -26.7410   22.1115 H   0  0  0  0  0  0
  -19.6930  -25.6319   21.1177 H   0  0  0  0  0  0
  -19.6716  -27.3236   20.6680 H   0  0  0  0  0  0
  -17.4219  -26.6679   21.3953 H   0  0  0  0  0  0
  -18.0375  -26.0076   22.8918 H   0  0  0  0  0  0
  -19.7961  -30.7201   24.2370 H   0  0  0  0  0  0
  -17.5013  -31.6215   24.5247 H   0  0  0  0  0  0
  -15.5380  -30.2983   23.7685 H   0  0  0  0  0  0
  -15.8659  -28.0878   22.7024 H   0  0  0  0  0  0
  -24.5911  -30.7064   25.7799 H   0  0  0  0  0  0
  -24.8874  -32.2879   26.4906 H   0  0  0  0  0  0
  -25.8035  -30.8919   27.0253 H   0  0  0  0  0  0
  -26.2930  -29.6761   24.1289 H   0  0  0  0  0  0
  -27.3968  -29.7286   25.4836 H   0  0  0  0  0  0
  -27.8848  -30.4262   23.9574 H   0  0  0  0  0  0
  -27.2667  -33.3666   26.2081 H   0  0  0  0  0  0
  -28.3871  -32.6897   25.0354 H   0  0  0  0  0  0
  -28.0722  -31.8498   26.5461 H   0  0  0  0  0  0
  -28.2610  -38.0100   24.7509 H   0  0  0  0  0  0
  -28.1064  -36.2630   24.6302 H   0  0  0  0  0  0
  -27.2296  -37.1473   25.8871 H   0  0  0  0  0  0
  -20.9423  -29.8856   21.6869 H   0  0  0  0  0  0
  -26.0191  -38.2872   24.1377 H   0  0  0  0  0  0
  -28.9551  -16.1921   18.3484 H   0  0  0  0  0  0
  -28.2063  -18.1970   17.2216 H   0  0  0  0  0  0
  -30.0387  -18.5804   21.7840 H   0  0  0  0  0  0
  -27.0505  -24.5528   20.0567 H   0  0  0  0  0  0
  -28.2197  -24.7198   18.7667 H   0  0  0  0  0  0
  -29.0827  -15.5929   21.4576 H   0  0  0  0  0  0
  -28.3263  -22.1298   19.3669 H   0  0  0  0  0  0
  -27.8252  -20.3684   17.2620 H   0  0  0  0  0  0
  1 25  1  0  0  0
  1 30  2  0  0  0
  1 80  1  0  0  0
  2  3  1  0  0  0
  2 25  1  0  0  0
  2 85  1  0  0  0
  2 86  1  0  0  0
  3  4  1  0  0  0
  3 87  1  0  0  0
  3 88  1  0  0  0
  4  5  1  0  0  0
  4 89  1  0  0  0
  4 90  1  0  0  0
  5  6  1  0  0  0
  5 26  1  0  0  0
  5 91  1  0  0  0
  6 25  1  0  0  0
  6 92  1  0  0  0
  6 93  1  0  0  0
  7  8  2  0  0  0
  7 26  1  0  0  0
  7 29  1  0  0  0
  8  9  1  0  0  0
  8 22  1  0  0  0
  9 10  1  0  0  0
  9 27  2  0  0  0
 10 11  2  0  0  0
 10 15  1  0  0  0
 11 12  1  0  0  0
 11 94  1  0  0  0
 12 13  2  0  0  0
 12 95  1  0  0  0
 13 14  1  0  0  0
 13 31  1  0  0  0
 14 15  2  0  0  0
 14 96  1  0  0  0
 15 97  1  0  0  0
 16 17  2  0  0  0
 16 21  1  0  0  0
 16 31  1  0  0  0
 17 18  1  0  0  0
 17 98  1  0  0  0
 18 19  2  0  0  0
 18 99  1  0  0  0
 19 20  1  0  0  0
 19 24  1  0  0  0
 20 21  2  0  0  0
 20100  1  0  0  0
 21 23  1  0  0  0
 22 28  1  0  0  0
 22 32  2  0  0  0
 26 27  1  0  0  0
 28101  1  0  0  0
 28102  1  0  0  0
 29103  1  0  0  0
 29104  1  0  0  0
 33 34  1  0  0  0
 33 66  1  0  0  0
 33 70  2  0  0  0
 34 36  1  0  0  0
 34 59  1  0  0  0
 34105  1  0  0  0
 35 44  2  0  0  0
 35 45  1  0  0  0
 35 68  1  0  0  0
 36 56  1  0  0  0
 36106  1  0  0  0
 37 39  1  0  0  0
 37 47  1  0  0  0
 37 66  1  0  0  0
 37107  1  0  0  0
 38 43  2  0  0  0
 38 46  1  0  0  0
 38 47  1  0  0  0
 39 64  1  0  0  0
 39 67  2  0  0  0
 40 52  1  0  0  0
 40 53  2  0  0  0
 40 58  1  0  0  0
 41108  1  0  0  0
 41109  1  0  0  0
 41110  1  0  0  0
 41 48  1  0  0  0
 42 43  1  0  0  0
 42 66  1  0  0  0
 42111  1  0  0  0
 42112  1  0  0  0
 43 44  1  0  0  0
 44113  1  0  0  0
 45 46  2  0  0  0
 45114  1  0  0  0
 46115  1  0  0  0
 47116  1  0  0  0
 47117  1  0  0  0
 48 56  1  0  0  0
 48 65  1  0  0  0
 48118  1  0  0  0
 49 50  1  0  0  0
 49 53  1  0  0  0
 49 64  1  0  0  0
 49119  1  0  0  0
 50 51  1  0  0  0
 50120  1  0  0  0
 50121  1  0  0  0
 51 52  1  0  0  0
 51122  1  0  0  0
 51123  1  0  0  0
 52124  1  0  0  0
 52125  1  0  0  0
 53 54  1  0  0  0
 54 55  2  0  0  0
 54126  1  0  0  0
 55 57  1  0  0  0
 55127  1  0  0  0
 56 69  2  0  0  0
 57 58  2  0  0  0
 57128  1  0  0  0
 58129  1  0  0  0
 59 60  1  0  0  0
 59 61  1  0  0  0
 59 62  1  0  0  0
 60130  1  0  0  0
 60131  1  0  0  0
 60132  1  0  0  0
 61133  1  0  0  0
 61134  1  0  0  0
 61135  1  0  0  0
 62136  1  0  0  0
 62137  1  0  0  0
 62138  1  0  0  0
 63 65  1  0  0  0
 63139  1  0  0  0
 63140  1  0  0  0
 63141  1  0  0  0
 64142  1  0  0  0
 65143  1  0  0  0
 68 79  1  0  0  0
 71 72  2  0  0  0
 71 75  1  0  0  0
 71144  1  0  0  0
 72 76  1  0  0  0
 72145  1  0  0  0
 73 74  1  0  0  0
 73 75  2  0  0  0
 73146  1  0  0  0
 74 76  2  0  0  0
 74 77  1  0  0  0
 75 80  1  0  0  0
 76 84  1  0  0  0
 77 81  1  0  0  0
 77 82  2  0  0  0
 78 79  1  0  0  0
 78 81  1  0  0  0
 78 83  2  0  0  0
 79147  1  0  0  0
 79148  1  0  0  0
 80149  1  0  0  0
 81150  1  0  0  0
 84151  1  0  0  0
M  ISO  4   1 100  68 101  79 101  80 100
M  END
> <chiral flag>
0

> <version>
0

> <s_m_source_file>
/data/baiqing/PycharmProjects/Reinvent-master-3.2/result/LINK_invent/BTK/process_docking_weight1_custom_product_contain_oxygen_bond_distance_aromatic_linkinvent_7_9_3/rearranged_h_0094.sdf

> <i_m_source_file_index>
38

> <r_mmod_Potential_Energy-OPLS-2005>
61.316764831543

> <r_mmod_Stretch_Energy-OPLS-2005>
143.474975585938

> <r_mmod_Bend_Energy-OPLS-2005>
172.710708618164

> <r_mmod_Torsional_Energy-OPLS-2005>
255.973388671875

> <r_mmod_Improper_Torsional_Energy-OPLS-2005>
5.31303930282593

> <r_mmod_Van_der_Waal_Energy-OPLS-2005>
145.996078491211

> <r_mmod_Electrostatic_Energy-OPLS-2005>
-463.644500732422

> <r_mmod_Solvation_Energy-OPLS-2005>
-300.114929199219

> <b_mmod_Minimization_Converged-OPLS-2005>
0

> <r_mmod_RMS_Derivative-OPLS-2005>
2.97111034393311

$$$$
38
                    3D
 Structure written by MMmdl.
157166  0  0  1  0            999 V2000
  -30.6778  -14.6346   20.5533 C   0  0  0  0  0  0
  -30.4333  -12.4070   19.4714 C   0  0  0  0  0  0
  -29.5175  -12.5357   18.2355 C   0  0  0  0  0  0
  -28.0425  -12.3587   18.6332 C   0  0  0  0  0  0
  -27.6566  -13.2211   19.8634 C   0  0  2  0  0  0
  -28.6899  -13.0670   21.0001 C   0  0  0  0  0  0
  -25.2593  -13.8153   20.5659 C   0  0  0  0  0  0
  -24.1845  -13.0413   20.9090 C   0  0  0  0  0  0
  -24.6408  -11.6893   20.8650 C   0  0  0  0  0  0
  -23.9057  -10.4292   21.0341 C   0  0  0  0  0  0
  -24.3609   -9.4230   21.9147 C   0  0  0  0  0  0
  -23.6293   -8.2279   22.0756 C   0  0  0  0  0  0
  -22.4290   -8.0294   21.3536 C   0  0  0  0  0  0
  -21.9903   -9.0258   20.4649 C   0  0  0  0  0  0
  -22.7221  -10.2123   20.3025 C   0  0  0  0  0  0
  -21.6853   -6.0730   22.5281 C   0  0  0  0  0  0
  -21.4006   -6.5627   23.8210 C   0  0  0  0  0  0
  -21.3670   -5.6779   24.9176 C   0  0  0  0  0  0
  -21.6044   -4.3048   24.7232 C   0  0  0  0  0  0
  -21.8827   -3.8141   23.4352 C   0  0  0  0  0  0
  -21.9204   -4.6952   22.3402 C   0  0  0  0  0  0
  -22.7901  -13.5247   21.1826 C   0  0  0  0  0  0
  -22.1671   -4.2142   21.0975 F   0  0  0  0  0  0
  -21.5627   -3.4529   25.7749 F   0  0  0  0  0  0
  -30.0179  -13.4262   20.4626 N   0  0  0  0  0  0
  -26.3022  -12.9351   20.3277 N   0  0  0  0  0  0
  -25.9330  -11.6495   20.5634 N   0  0  0  0  0  0
  -22.0543  -12.8251   22.0391 N   0  0  0  0  0  0
  -25.4256  -15.1875   20.4167 N   0  0  0  0  0  0
  -31.7528  -14.8125   19.9700 O   0  0  0  0  0  0
  -21.6636   -6.8897   21.4260 O   0  0  0  0  0  0
  -22.3567  -14.5538   20.6685 O   0  0  0  0  0  0
  -24.6242  -31.8619   23.2094 C   0  0  0  0  0  0
  -25.9093  -32.4770   23.8408 C   0  0  1  0  0  0
  -27.2211  -27.3206   20.1223 C   0  0  0  0  0  0
  -25.5921  -33.8586   24.2314 N   0  0  0  0  0  0
  -23.4185  -30.4836   21.5500 C   0  0  2  0  0  0
  -24.8649  -28.9363   20.1149 C   0  0  0  0  0  0
  -22.7449  -29.4636   22.4991 C   0  0  0  0  0  0
  -18.0297  -28.1354   22.8518 C   0  0  0  0  0  0
  -24.1468  -36.7289   23.2666 C   0  0  0  0  0  0
  -25.9580  -30.7866   21.3804 C   0  0  0  0  0  0
  -26.0342  -29.4147   20.7231 C   0  0  0  0  0  0
  -27.2168  -28.6179   20.7189 C   0  0  0  0  0  0
  -26.0331  -26.8915   19.4928 C   0  0  0  0  0  0
  -24.8649  -27.6804   19.4890 C   0  0  0  0  0  0
  -23.6331  -29.8186   20.1655 C   0  0  0  0  0  0
  -25.4091  -36.3083   24.0363 C   0  0  1  0  0  0
  -20.5881  -28.3683   23.1278 C   0  0  2  0  0  0
  -20.6779  -26.9418   22.5413 C   0  0  0  0  0  0
  -19.5752  -26.6381   21.5220 C   0  0  0  0  0  0
  -18.1933  -26.7913   22.1624 C   0  0  0  0  0  0
  -19.1541  -28.8844   23.2878 C   0  0  0  0  0  0
  -18.9478  -30.1446   23.8894 C   0  0  0  0  0  0
  -17.6480  -30.6591   24.0573 C   0  0  0  0  0  0
  -25.9055  -34.9454   23.5134 C   0  0  0  0  0  0
  -16.5366  -29.9096   23.6338 C   0  0  0  0  0  0
  -16.7282  -28.6480   23.0405 C   0  0  0  0  0  0
  -26.4496  -31.6586   25.0772 C   0  0  0  0  0  0
  -25.3766  -31.3633   26.1499 C   0  0  0  0  0  0
  -27.0379  -30.3029   24.6225 C   0  0  0  0  0  0
  -27.6033  -32.4360   25.7511 C   0  0  0  0  0  0
  -27.5569  -37.1758   24.8501 C   0  0  0  0  0  0
  -21.4176  -29.3031   22.3671 N   0  0  0  0  0  0
  -26.4280  -37.3774   23.9440 N   0  0  0  0  0  0
  -24.6851  -31.0625   22.1035 N   0  0  0  0  0  0
  -23.4175  -28.8227   23.3117 O   0  0  0  0  0  0
  -28.3181  -26.4480   20.1428 O   0  0  0  0  0  0
  -26.5625  -34.8918   22.4709 O   0  0  0  0  0  0
  -23.5391  -32.1411   23.7414 O   0  0  0  0  0  0
  -29.4297  -23.6070   19.1184 C   0  0  0  0  0  0
  -28.4225  -19.2706   20.8312 C   0  0  0  0  0  0
  -30.7279  -19.4424   20.1848 C   0  0  0  0  0  0
  -29.8668  -17.2172   20.9580 C   0  0  0  0  0  0
  -28.7018  -23.8160   20.3276 C   0  0  0  0  0  0
  -29.4840  -20.1085   20.3850 C   0  0  0  0  0  0
  -28.5923  -17.8737   21.1024 C   0  0  0  0  0  0
  -30.9192  -18.0518   20.4648 C   0  0  0  0  0  0
  -29.7840  -22.2805   19.0295 C   0  0  0  0  0  0
  -28.6555  -22.5410   20.9013 C   0  0  0  0  0  0
  -30.1058  -15.7690   21.4691 C   0  0  0  0  0  0
  -28.1005  -25.1681   20.8606 C   0  0  0  0  0  0
  -29.8642  -15.4999   22.6893 N   0  0  0  0  0  0
  -29.3126  -21.5537   20.1269 N   0  0  0  0  0  0
  -27.4544  -17.1683   21.5378 N   0  0  0  0  0  0
  -30.4852  -21.6660   18.0345 O   0  0  0  0  0  0
  -28.0834  -22.1635   22.0840 O   0  0  0  0  0  0
  -32.1725  -17.5517   20.3085 F   0  0  0  0  0  0
  -31.4820  -12.5111   19.1871 H   0  0  0  0  0  0
  -30.3439  -11.4115   19.9046 H   0  0  0  0  0  0
  -29.7950  -11.7867   17.4927 H   0  0  0  0  0  0
  -29.6603  -13.5107   17.7630 H   0  0  0  0  0  0
  -27.8910  -11.3019   18.8517 H   0  0  0  0  0  0
  -27.3970  -12.5890   17.7861 H   0  0  0  0  0  0
  -27.6759  -14.2605   19.5283 H   0  0  0  0  0  0
  -28.7104  -12.0415   21.3663 H   0  0  0  0  0  0
  -28.3848  -13.6602   21.8593 H   0  0  0  0  0  0
  -25.2735   -9.5717   22.4729 H   0  0  0  0  0  0
  -23.9970   -7.4703   22.7476 H   0  0  0  0  0  0
  -21.0833   -8.8791   19.8968 H   0  0  0  0  0  0
  -22.3681  -10.9664   19.6155 H   0  0  0  0  0  0
  -21.1978   -7.6131   23.9725 H   0  0  0  0  0  0
  -21.1473   -6.0493   25.9073 H   0  0  0  0  0  0
  -22.0591   -2.7597   23.2853 H   0  0  0  0  0  0
  -22.4140  -11.9911   22.4796 H   0  0  0  0  0  0
  -21.1158  -13.1311   22.2542 H   0  0  0  0  0  0
  -24.6611  -15.8335   20.5697 H   0  0  0  0  0  0
  -26.3150  -15.6716   20.3215 H   0  0  0  0  0  0
  -26.7175  -32.5371   23.1165 H   0  0  0  0  0  0
  -25.0019  -33.9784   25.0401 H   0  0  0  0  0  0
  -22.7085  -31.3027   21.4085 H   0  0  0  0  0  0
  -23.3785  -35.9576   23.3343 H   0  0  0  0  0  0
  -24.3532  -36.8952   22.2089 H   0  0  0  0  0  0
  -23.7189  -37.6471   23.6694 H   0  0  0  0  0  0
  -26.0900  -31.5545   20.6178 H   0  0  0  0  0  0
  -26.8332  -30.8320   22.0127 H   0  0  0  0  0  0
  -28.1076  -28.9782   21.2084 H   0  0  0  0  0  0
  -26.0053  -25.9205   19.0162 H   0  0  0  0  0  0
  -23.9642  -27.3121   19.0145 H   0  0  0  0  0  0
  -23.7540  -30.5953   19.4090 H   0  0  0  0  0  0
  -22.7438  -29.2633   19.8654 H   0  0  0  0  0  0
  -25.1243  -36.1962   25.0863 H   0  0  0  0  0  0
  -20.9925  -28.3297   24.1432 H   0  0  0  0  0  0
  -20.5702  -26.2321   23.3618 H   0  0  0  0  0  0
  -21.6659  -26.7460   22.1189 H   0  0  0  0  0  0
  -19.6970  -25.6283   21.1238 H   0  0  0  0  0  0
  -19.6677  -27.3184   20.6728 H   0  0  0  0  0  0
  -17.4182  -26.6724   21.4042 H   0  0  0  0  0  0
  -18.0300  -26.0005   22.8960 H   0  0  0  0  0  0
  -19.7952  -30.7251   24.2283 H   0  0  0  0  0  0
  -17.5056  -31.6277   24.5165 H   0  0  0  0  0  0
  -15.5364  -30.3014   23.7669 H   0  0  0  0  0  0
  -15.8679  -28.0788   22.7170 H   0  0  0  0  0  0
  -24.5959  -30.6972   25.7838 H   0  0  0  0  0  0
  -24.8893  -32.2717   26.5017 H   0  0  0  0  0  0
  -25.8129  -30.8755   27.0219 H   0  0  0  0  0  0
  -26.2946  -29.6658   24.1412 H   0  0  0  0  0  0
  -27.4314  -29.7393   25.4702 H   0  0  0  0  0  0
  -27.8705  -30.4413   23.9330 H   0  0  0  0  0  0
  -27.2695  -33.3748   26.1960 H   0  0  0  0  0  0
  -28.3850  -32.6808   25.0303 H   0  0  0  0  0  0
  -28.0675  -31.8565   26.5496 H   0  0  0  0  0  0
  -28.2561  -38.0076   24.7545 H   0  0  0  0  0  0
  -28.1065  -36.2579   24.6293 H   0  0  0  0  0  0
  -27.2275  -37.1447   25.8912 H   0  0  0  0  0  0
  -20.9373  -29.8704   21.6821 H   0  0  0  0  0  0
  -26.0180  -38.2861   24.1446 H   0  0  0  0  0  0
  -29.6677  -24.3733   18.3925 H   0  0  0  0  0  0
  -27.4465  -19.7189   20.9762 H   0  0  0  0  0  0
  -31.5758  -20.0053   19.8243 H   0  0  0  0  0  0
  -28.5314  -25.2993   21.8533 H   0  0  0  0  0  0
  -27.0349  -25.0083   21.0349 H   0  0  0  0  0  0
  -29.5335  -16.3189   23.1803 H   0  0  0  0  0  0
  -26.5984  -17.6574   21.7857 H   0  0  0  0  0  0
  -27.5492  -16.2723   22.0109 H   0  0  0  0  0  0
  -30.7370  -22.3265   17.3959 H   0  0  0  0  0  0
  -27.6501  -22.9135   22.4744 H   0  0  0  0  0  0
  1 25  1  0  0  0
  1 30  2  0  0  0
  1 81  1  0  0  0
  2  3  1  0  0  0
  2 25  1  0  0  0
  2 89  1  0  0  0
  2 90  1  0  0  0
  3  4  1  0  0  0
  3 91  1  0  0  0
  3 92  1  0  0  0
  4  5  1  0  0  0
  4 93  1  0  0  0
  4 94  1  0  0  0
  5  6  1  0  0  0
  5 26  1  0  0  0
  5 95  1  0  0  0
  6 25  1  0  0  0
  6 96  1  0  0  0
  6 97  1  0  0  0
  7  8  2  0  0  0
  7 26  1  0  0  0
  7 29  1  0  0  0
  8  9  1  0  0  0
  8 22  1  0  0  0
  9 10  1  0  0  0
  9 27  2  0  0  0
 10 11  2  0  0  0
 10 15  1  0  0  0
 11 12  1  0  0  0
 11 98  1  0  0  0
 12 13  2  0  0  0
 12 99  1  0  0  0
 13 14  1  0  0  0
 13 31  1  0  0  0
 14 15  2  0  0  0
 14100  1  0  0  0
 15101  1  0  0  0
 16 17  2  0  0  0
 16 21  1  0  0  0
 16 31  1  0  0  0
 17 18  1  0  0  0
 17102  1  0  0  0
 18 19  2  0  0  0
 18103  1  0  0  0
 19 20  1  0  0  0
 19 24  1  0  0  0
 20 21  2  0  0  0
 20104  1  0  0  0
 21 23  1  0  0  0
 22 28  1  0  0  0
 22 32  2  0  0  0
 26 27  1  0  0  0
 28105  1  0  0  0
 28106  1  0  0  0
 29107  1  0  0  0
 29108  1  0  0  0
 33 34  1  0  0  0
 33 66  1  0  0  0
 33 70  2  0  0  0
 34 36  1  0  0  0
 34 59  1  0  0  0
 34109  1  0  0  0
 35 44  2  0  0  0
 35 45  1  0  0  0
 35 68  1  0  0  0
 36 56  1  0  0  0
 36110  1  0  0  0
 37 39  1  0  0  0
 37 47  1  0  0  0
 37 66  1  0  0  0
 37111  1  0  0  0
 38 43  2  0  0  0
 38 46  1  0  0  0
 38 47  1  0  0  0
 39 64  1  0  0  0
 39 67  2  0  0  0
 40 52  1  0  0  0
 40 53  2  0  0  0
 40 58  1  0  0  0
 41112  1  0  0  0
 41113  1  0  0  0
 41114  1  0  0  0
 41 48  1  0  0  0
 42 43  1  0  0  0
 42 66  1  0  0  0
 42115  1  0  0  0
 42116  1  0  0  0
 43 44  1  0  0  0
 44117  1  0  0  0
 45 46  2  0  0  0
 45118  1  0  0  0
 46119  1  0  0  0
 47120  1  0  0  0
 47121  1  0  0  0
 48 56  1  0  0  0
 48 65  1  0  0  0
 48122  1  0  0  0
 49 50  1  0  0  0
 49 53  1  0  0  0
 49 64  1  0  0  0
 49123  1  0  0  0
 50 51  1  0  0  0
 50124  1  0  0  0
 50125  1  0  0  0
 51 52  1  0  0  0
 51126  1  0  0  0
 51127  1  0  0  0
 52128  1  0  0  0
 52129  1  0  0  0
 53 54  1  0  0  0
 54 55  2  0  0  0
 54130  1  0  0  0
 55 57  1  0  0  0
 55131  1  0  0  0
 56 69  2  0  0  0
 57 58  2  0  0  0
 57132  1  0  0  0
 58133  1  0  0  0
 59 60  1  0  0  0
 59 61  1  0  0  0
 59 62  1  0  0  0
 60134  1  0  0  0
 60135  1  0  0  0
 60136  1  0  0  0
 61137  1  0  0  0
 61138  1  0  0  0
 61139  1  0  0  0
 62140  1  0  0  0
 62141  1  0  0  0
 62142  1  0  0  0
 63 65  1  0  0  0
 63143  1  0  0  0
 63144  1  0  0  0
 63145  1  0  0  0
 64146  1  0  0  0
 65147  1  0  0  0
 68 82  1  0  0  0
 71 75  1  0  0  0
 71 79  2  0  0  0
 71148  1  0  0  0
 72 76  2  0  0  0
 72 77  1  0  0  0
 72149  1  0  0  0
 73 76  1  0  0  0
 73 78  2  0  0  0
 73150  1  0  0  0
 74 77  2  0  0  0
 74 78  1  0  0  0
 74 81  1  0  0  0
 75 80  2  0  0  0
 75 82  1  0  0  0
 76 84  1  0  0  0
 77 85  1  0  0  0
 78 88  1  0  0  0
 79 84  1  0  0  0
 79 86  1  0  0  0
 80 84  1  0  0  0
 80 87  1  0  0  0
 81 83  2  0  0  0
 82151  1  0  0  0
 82152  1  0  0  0
 83153  1  0  0  0
 85154  1  0  0  0
 85155  1  0  0  0
 86156  1  0  0  0
 87157  1  0  0  0
M  ISO  4   1 100  68 101  81 100  82 101
M  END
> <chiral flag>
0

> <version>
0

> <s_m_source_file>
/data/baiqing/PycharmProjects/Reinvent-master-3.2/result/LINK_invent/BTK/process_docking_weight1_custom_product_contain_oxygen_bond_distance_aromatic_linkinvent_7_9_3/rearranged_h_0094.sdf

> <i_m_source_file_index>
39

> <r_mmod_Potential_Energy-OPLS-2005>
316.971008300781

> <r_mmod_Stretch_Energy-OPLS-2005>
96.5665130615234

> <r_mmod_Bend_Energy-OPLS-2005>
147.386459350586

> <r_mmod_Torsional_Energy-OPLS-2005>
254.112777709961

> <r_mmod_Improper_Torsional_Energy-OPLS-2005>
5.06899309158325

> <r_mmod_Van_der_Waal_Energy-OPLS-2005>
142.503997802734

> <r_mmod_Electrostatic_Energy-OPLS-2005>
-155.799453735352

> <r_mmod_Solvation_Energy-OPLS-2005>
-221.190460205078

> <b_mmod_Minimization_Converged-OPLS-2005>
0

> <r_mmod_RMS_Derivative-OPLS-2005>
6.85315895080566

$$$$
39
                    3D
 Structure written by MMmdl.
160169  0  0  1  0            999 V2000
  -30.6611  -14.6667   20.5290 C   0  0  0  0  0  0
  -30.4256  -12.4208   19.4625 C   0  0  0  0  0  0
  -29.5042  -12.5088   18.2277 C   0  0  0  0  0  0
  -28.0283  -12.3468   18.6375 C   0  0  0  0  0  0
  -27.6459  -13.2281   19.8557 C   0  0  2  0  0  0
  -28.6867  -13.1191   20.9883 C   0  0  0  0  0  0
  -25.2529  -13.8199   20.5695 C   0  0  0  0  0  0
  -24.1810  -13.0449   20.9190 C   0  0  0  0  0  0
  -24.6396  -11.6923   20.8737 C   0  0  0  0  0  0
  -23.9076  -10.4301   21.0409 C   0  0  0  0  0  0
  -24.3627   -9.4214   21.9186 C   0  0  0  0  0  0
  -23.6300   -8.2249   22.0756 C   0  0  0  0  0  0
  -22.4281   -8.0289   21.3546 C   0  0  0  0  0  0
  -21.9922   -9.0262   20.4644 C   0  0  0  0  0  0
  -22.7251  -10.2142   20.3055 C   0  0  0  0  0  0
  -21.6853   -6.0742   22.5278 C   0  0  0  0  0  0
  -21.4015   -6.5643   23.8212 C   0  0  0  0  0  0
  -21.3659   -5.6796   24.9174 C   0  0  0  0  0  0
  -21.6046   -4.3058   24.7223 C   0  0  0  0  0  0
  -21.8822   -3.8152   23.4342 C   0  0  0  0  0  0
  -21.9194   -4.6970   22.3399 C   0  0  0  0  0  0
  -22.7832  -13.5230   21.1855 C   0  0  0  0  0  0
  -22.1661   -4.2156   21.0977 F   0  0  0  0  0  0
  -21.5629   -3.4541   25.7736 F   0  0  0  0  0  0
  -29.9974  -13.4653   20.4204 N   0  0  0  0  0  0
  -26.2955  -12.9399   20.3293 N   0  0  0  0  0  0
  -25.9326  -11.6543   20.5747 N   0  0  0  0  0  0
  -22.0484  -12.8210   22.0409 N   0  0  0  0  0  0
  -25.4255  -15.1921   20.4135 N   0  0  0  0  0  0
  -31.8121  -14.7784   20.0963 O   0  0  0  0  0  0
  -21.6643   -6.8887   21.4242 O   0  0  0  0  0  0
  -22.3512  -14.5538   20.6711 O   0  0  0  0  0  0
  -24.6276  -31.8583   23.2011 C   0  0  0  0  0  0
  -25.9117  -32.4770   23.8350 C   0  0  1  0  0  0
  -27.2220  -27.3062   20.1231 C   0  0  0  0  0  0
  -25.5930  -33.8570   24.2276 N   0  0  0  0  0  0
  -23.4233  -30.4804   21.5441 C   0  0  2  0  0  0
  -24.8723  -28.9338   20.1095 C   0  0  0  0  0  0
  -22.7488  -29.4609   22.4932 C   0  0  0  0  0  0
  -18.0292  -28.1381   22.8493 C   0  0  0  0  0  0
  -24.1487  -36.7283   23.2641 C   0  0  0  0  0  0
  -25.9658  -30.7844   21.3754 C   0  0  0  0  0  0
  -26.0420  -29.4107   20.7174 C   0  0  0  0  0  0
  -27.2241  -28.6076   20.7162 C   0  0  0  0  0  0
  -26.0353  -26.8848   19.4891 C   0  0  0  0  0  0
  -24.8708  -27.6763   19.4853 C   0  0  0  0  0  0
  -23.6396  -29.8146   20.1596 C   0  0  0  0  0  0
  -25.4115  -36.3074   24.0329 C   0  0  1  0  0  0
  -20.5893  -28.3686   23.1280 C   0  0  2  0  0  0
  -20.6777  -26.9405   22.5411 C   0  0  0  0  0  0
  -19.5750  -26.6380   21.5214 C   0  0  0  0  0  0
  -18.1932  -26.7927   22.1625 C   0  0  0  0  0  0
  -19.1546  -28.8853   23.2882 C   0  0  0  0  0  0
  -18.9466  -30.1457   23.8892 C   0  0  0  0  0  0
  -17.6464  -30.6584   24.0562 C   0  0  0  0  0  0
  -25.9054  -34.9445   23.5103 C   0  0  0  0  0  0
  -16.5356  -29.9080   23.6331 C   0  0  0  0  0  0
  -16.7279  -28.6497   23.0356 C   0  0  0  0  0  0
  -26.4498  -31.6585   25.0727 C   0  0  0  0  0  0
  -25.3728  -31.3718   26.1449 C   0  0  0  0  0  0
  -27.0353  -30.3011   24.6186 C   0  0  0  0  0  0
  -27.6052  -32.4327   25.7502 C   0  0  0  0  0  0
  -27.5579  -37.1795   24.8467 C   0  0  0  0  0  0
  -21.4198  -29.3036   22.3670 N   0  0  0  0  0  0
  -26.4290  -37.3771   23.9411 N   0  0  0  0  0  0
  -24.6910  -31.0579   22.0969 N   0  0  0  0  0  0
  -23.4203  -28.8150   23.3018 O   0  0  0  0  0  0
  -28.2894  -26.3956   20.1604 O   0  0  0  0  0  0
  -26.5618  -34.8913   22.4665 O   0  0  0  0  0  0
  -23.5436  -32.1390   23.7332 O   0  0  0  0  0  0
  -29.1786  -17.8933   17.9490 C   0  0  0  0  0  0
  -29.1296  -19.2127   18.4332 C   0  0  0  0  0  0
  -29.4650  -16.8131   18.7994 C   0  0  0  0  0  0
  -29.3563  -19.5231   19.7964 C   0  0  0  0  0  0
  -29.7127  -17.0034   20.1782 C   0  0  0  0  0  0
  -29.6352  -18.3835   20.6615 C   0  0  0  0  0  0
  -28.5906  -23.9072   20.6736 C   0  0  0  0  0  0
  -28.0356  -25.1672   20.8129 C   0  0  0  0  0  0
  -29.6810  -23.4513   19.7028 C   0  0  0  0  0  0
  -28.2447  -22.7609   21.6473 C   0  0  0  0  0  0
  -29.5290  -21.9712   19.1813 C   0  0  0  0  0  0
  -28.1702  -21.3006   21.0671 C   0  0  0  0  0  0
  -29.9639  -15.9182   22.4530 C   0  0  0  0  0  0
  -29.3043  -20.9211   20.2115 N   0  0  0  0  0  0
  -29.9874  -15.7879   20.9928 N   0  0  0  0  0  0
  -29.8580  -18.6427   21.9737 F   0  0  0  0  0  0
  -31.4677  -12.5331   19.1592 H   0  0  0  0  0  0
  -30.3582  -11.4345   19.9246 H   0  0  0  0  0  0
  -29.7746  -11.7421   17.5004 H   0  0  0  0  0  0
  -29.6457  -13.4673   17.7269 H   0  0  0  0  0  0
  -27.8681  -11.2953   18.8784 H   0  0  0  0  0  0
  -27.3750  -12.5672   17.7925 H   0  0  0  0  0  0
  -27.6554  -14.2596   19.5031 H   0  0  0  0  0  0
  -28.7062  -12.1097   21.4018 H   0  0  0  0  0  0
  -28.4081  -13.7756   21.8116 H   0  0  0  0  0  0
  -25.2775   -9.5687   22.4757 H   0  0  0  0  0  0
  -24.0009   -7.4643   22.7478 H   0  0  0  0  0  0
  -21.0855   -8.8784   19.8946 H   0  0  0  0  0  0
  -22.3714  -10.9683   19.6164 H   0  0  0  0  0  0
  -21.2006   -7.6151   23.9716 H   0  0  0  0  0  0
  -21.1475   -6.0525   25.9078 H   0  0  0  0  0  0
  -22.0600   -2.7614   23.2841 H   0  0  0  0  0  0
  -22.4104  -11.9866   22.4783 H   0  0  0  0  0  0
  -21.1104  -13.1230   22.2627 H   0  0  0  0  0  0
  -24.6656  -15.8525   20.5356 H   0  0  0  0  0  0
  -26.2883  -15.6310   20.1182 H   0  0  0  0  0  0
  -26.7185  -32.5438   23.1100 H   0  0  0  0  0  0
  -25.0092  -33.9718   25.0431 H   0  0  0  0  0  0
  -22.7178  -31.3012   21.3999 H   0  0  0  0  0  0
  -23.3754  -35.9609   23.3304 H   0  0  0  0  0  0
  -24.3574  -36.8908   22.2055 H   0  0  0  0  0  0
  -23.7231  -37.6481   23.6664 H   0  0  0  0  0  0
  -26.1006  -31.5479   20.6081 H   0  0  0  0  0  0
  -26.8445  -30.8325   22.0070 H   0  0  0  0  0  0
  -28.1203  -28.9627   21.2050 H   0  0  0  0  0  0
  -26.0026  -25.9124   19.0180 H   0  0  0  0  0  0
  -23.9746  -27.3052   19.0072 H   0  0  0  0  0  0
  -23.7567  -30.5908   19.4023 H   0  0  0  0  0  0
  -22.7598  -29.2431   19.8584 H   0  0  0  0  0  0
  -25.1292  -36.1927   25.0821 H   0  0  0  0  0  0
  -20.9991  -28.3259   24.1399 H   0  0  0  0  0  0
  -20.5678  -26.2292   23.3611 H   0  0  0  0  0  0
  -21.6644  -26.7428   22.1205 H   0  0  0  0  0  0
  -19.6907  -25.6291   21.1243 H   0  0  0  0  0  0
  -19.6684  -27.3189   20.6742 H   0  0  0  0  0  0
  -17.4201  -26.6686   21.4026 H   0  0  0  0  0  0
  -18.0323  -26.0065   22.9017 H   0  0  0  0  0  0
  -19.7940  -30.7277   24.2254 H   0  0  0  0  0  0
  -17.5015  -31.6262   24.5165 H   0  0  0  0  0  0
  -15.5355  -30.2975   23.7653 H   0  0  0  0  0  0
  -15.8684  -28.0808   22.7072 H   0  0  0  0  0  0
  -24.5911  -30.7057   25.7776 H   0  0  0  0  0  0
  -24.8906  -32.2882   26.4863 H   0  0  0  0  0  0
  -25.8054  -30.8906   27.0230 H   0  0  0  0  0  0
  -26.2933  -29.6753   24.1210 H   0  0  0  0  0  0
  -27.4061  -29.7270   25.4688 H   0  0  0  0  0  0
  -27.8796  -30.4308   23.9411 H   0  0  0  0  0  0
  -27.2659  -33.3635   26.2059 H   0  0  0  0  0  0
  -28.3871  -32.6877   25.0336 H   0  0  0  0  0  0
  -28.0707  -31.8465   26.5435 H   0  0  0  0  0  0
  -28.2593  -38.0095   24.7523 H   0  0  0  0  0  0
  -28.1081  -36.2628   24.6291 H   0  0  0  0  0  0
  -27.2297  -37.1443   25.8870 H   0  0  0  0  0  0
  -20.9376  -29.8764   21.6885 H   0  0  0  0  0  0
  -26.0174  -38.2847   24.1416 H   0  0  0  0  0  0
  -28.9906  -17.7071   16.9008 H   0  0  0  0  0  0
  -28.8983  -19.9807   17.7117 H   0  0  0  0  0  0
  -29.4801  -15.8243   18.3643 H   0  0  0  0  0  0
  -27.2996  -25.3193   21.5922 H   0  0  0  0  0  0
  -30.6351  -23.5402   20.2237 H   0  0  0  0  0  0
  -29.7272  -24.1451   18.8623 H   0  0  0  0  0  0
  -27.3108  -22.9909   22.1618 H   0  0  0  0  0  0
  -29.0145  -22.7725   22.4196 H   0  0  0  0  0  0
  -30.4123  -21.7143   18.5937 H   0  0  0  0  0  0
  -28.6857  -21.9633   18.4890 H   0  0  0  0  0  0
  -27.2529  -21.1958   20.4850 H   0  0  0  0  0  0
  -28.0841  -20.5927   21.8931 H   0  0  0  0  0  0
  -29.0428  -16.3999   22.7820 H   0  0  0  0  0  0
  -30.8115  -16.5146   22.7925 H   0  0  0  0  0  0
  -30.0239  -14.9584   22.9702 H   0  0  0  0  0  0
  1 25  1  0  0  0
  1 30  2  0  0  0
  1 85  1  0  0  0
  2  3  1  0  0  0
  2 25  1  0  0  0
  2 87  1  0  0  0
  2 88  1  0  0  0
  3  4  1  0  0  0
  3 89  1  0  0  0
  3 90  1  0  0  0
  4  5  1  0  0  0
  4 91  1  0  0  0
  4 92  1  0  0  0
  5  6  1  0  0  0
  5 26  1  0  0  0
  5 93  1  0  0  0
  6 25  1  0  0  0
  6 94  1  0  0  0
  6 95  1  0  0  0
  7  8  2  0  0  0
  7 26  1  0  0  0
  7 29  1  0  0  0
  8  9  1  0  0  0
  8 22  1  0  0  0
  9 10  1  0  0  0
  9 27  2  0  0  0
 10 11  2  0  0  0
 10 15  1  0  0  0
 11 12  1  0  0  0
 11 96  1  0  0  0
 12 13  2  0  0  0
 12 97  1  0  0  0
 13 14  1  0  0  0
 13 31  1  0  0  0
 14 15  2  0  0  0
 14 98  1  0  0  0
 15 99  1  0  0  0
 16 17  2  0  0  0
 16 21  1  0  0  0
 16 31  1  0  0  0
 17 18  1  0  0  0
 17100  1  0  0  0
 18 19  2  0  0  0
 18101  1  0  0  0
 19 20  1  0  0  0
 19 24  1  0  0  0
 20 21  2  0  0  0
 20102  1  0  0  0
 21 23  1  0  0  0
 22 28  1  0  0  0
 22 32  2  0  0  0
 26 27  1  0  0  0
 28103  1  0  0  0
 28104  1  0  0  0
 29105  1  0  0  0
 29106  1  0  0  0
 33 34  1  0  0  0
 33 66  1  0  0  0
 33 70  2  0  0  0
 34 36  1  0  0  0
 34 59  1  0  0  0
 34107  1  0  0  0
 35 44  2  0  0  0
 35 45  1  0  0  0
 35 68  1  0  0  0
 36 56  1  0  0  0
 36108  1  0  0  0
 37 39  1  0  0  0
 37 47  1  0  0  0
 37 66  1  0  0  0
 37109  1  0  0  0
 38 43  2  0  0  0
 38 46  1  0  0  0
 38 47  1  0  0  0
 39 64  1  0  0  0
 39 67  2  0  0  0
 40 52  1  0  0  0
 40 53  2  0  0  0
 40 58  1  0  0  0
 41110  1  0  0  0
 41111  1  0  0  0
 41112  1  0  0  0
 41 48  1  0  0  0
 42 43  1  0  0  0
 42 66  1  0  0  0
 42113  1  0  0  0
 42114  1  0  0  0
 43 44  1  0  0  0
 44115  1  0  0  0
 45 46  2  0  0  0
 45116  1  0  0  0
 46117  1  0  0  0
 47118  1  0  0  0
 47119  1  0  0  0
 48 56  1  0  0  0
 48 65  1  0  0  0
 48120  1  0  0  0
 49 50  1  0  0  0
 49 53  1  0  0  0
 49 64  1  0  0  0
 49121  1  0  0  0
 50 51  1  0  0  0
 50122  1  0  0  0
 50123  1  0  0  0
 51 52  1  0  0  0
 51124  1  0  0  0
 51125  1  0  0  0
 52126  1  0  0  0
 52127  1  0  0  0
 53 54  1  0  0  0
 54 55  2  0  0  0
 54128  1  0  0  0
 55 57  1  0  0  0
 55129  1  0  0  0
 56 69  2  0  0  0
 57 58  2  0  0  0
 57130  1  0  0  0
 58131  1  0  0  0
 59 60  1  0  0  0
 59 61  1  0  0  0
 59 62  1  0  0  0
 60132  1  0  0  0
 60133  1  0  0  0
 60134  1  0  0  0
 61135  1  0  0  0
 61136  1  0  0  0
 61137  1  0  0  0
 62138  1  0  0  0
 62139  1  0  0  0
 62140  1  0  0  0
 63 65  1  0  0  0
 63141  1  0  0  0
 63142  1  0  0  0
 63143  1  0  0  0
 64144  1  0  0  0
 65145  1  0  0  0
 68 78  1  0  0  0
 71 72  2  0  0  0
 71 73  1  0  0  0
 71146  1  0  0  0
 72 74  1  0  0  0
 72147  1  0  0  0
 73 75  2  0  0  0
 73148  1  0  0  0
 74 76  2  0  0  0
 74 84  1  0  0  0
 75 76  1  0  0  0
 75 85  1  0  0  0
 76 86  1  0  0  0
 77 78  2  0  0  0
 77 79  1  0  0  0
 77 80  1  0  0  0
 78149  1  0  0  0
 79 81  1  0  0  0
 79150  1  0  0  0
 79151  1  0  0  0
 80 82  1  0  0  0
 80152  1  0  0  0
 80153  1  0  0  0
 81 84  1  0  0  0
 81154  1  0  0  0
 81155  1  0  0  0
 82 84  1  0  0  0
 82156  1  0  0  0
 82157  1  0  0  0
 83 85  1  0  0  0
 83158  1  0  0  0
 83159  1  0  0  0
 83160  1  0  0  0
M  ISO  4   1 100  68 101  78 101  85 100
M  END
> <chiral flag>
0

> <version>
0

> <s_m_source_file>
/data/baiqing/PycharmProjects/Reinvent-master-3.2/result/LINK_invent/BTK/process_docking_weight1_custom_product_contain_oxygen_bond_distance_aromatic_linkinvent_7_9_3/rearranged_h_0094.sdf

> <i_m_source_file_index>
40

> <r_mmod_Potential_Energy-OPLS-2005>
329.829864501953

> <r_mmod_Stretch_Energy-OPLS-2005>
100.079391479492

> <r_mmod_Bend_Energy-OPLS-2005>
153.233413696289

> <r_mmod_Torsional_Energy-OPLS-2005>
312.639007568359

> <r_mmod_Improper_Torsional_Energy-OPLS-2005>
8.42083168029785

> <r_mmod_Van_der_Waal_Energy-OPLS-2005>
151.51203918457

> <r_mmod_Electrostatic_Energy-OPLS-2005>
-255.160110473633

> <r_mmod_Solvation_Energy-OPLS-2005>
-200.398468017578

> <b_mmod_Minimization_Converged-OPLS-2005>
0

> <r_mmod_RMS_Derivative-OPLS-2005>
0.636798441410065

$$$$
40
                    3D
 Structure written by MMmdl.
165174  0  0  1  0            999 V2000
  -30.7439  -14.5005   20.5719 C   0  0  0  0  0  0
  -30.4025  -12.3303   19.4337 C   0  0  0  0  0  0
  -29.4817  -12.4975   18.2087 C   0  0  0  0  0  0
  -28.0098  -12.3457   18.6294 C   0  0  0  0  0  0
  -27.6479  -13.2193   19.8607 C   0  0  2  0  0  0
  -28.6920  -13.0770   20.9921 C   0  0  0  0  0  0
  -25.2527  -13.8176   20.5680 C   0  0  0  0  0  0
  -24.1797  -13.0453   20.9195 C   0  0  0  0  0  0
  -24.6368  -11.6924   20.8748 C   0  0  0  0  0  0
  -23.9049  -10.4302   21.0414 C   0  0  0  0  0  0
  -24.3609   -9.4223   21.9188 C   0  0  0  0  0  0
  -23.6296   -8.2253   22.0751 C   0  0  0  0  0  0
  -22.4275   -8.0280   21.3548 C   0  0  0  0  0  0
  -21.9912   -9.0242   20.4641 C   0  0  0  0  0  0
  -22.7223  -10.2134   20.3062 C   0  0  0  0  0  0
  -21.6851   -6.0745   22.5275 C   0  0  0  0  0  0
  -21.4010   -6.5646   23.8204 C   0  0  0  0  0  0
  -21.3664   -5.6798   24.9168 C   0  0  0  0  0  0
  -21.6045   -4.3062   24.7223 C   0  0  0  0  0  0
  -21.8818   -3.8159   23.4342 C   0  0  0  0  0  0
  -21.9188   -4.6977   22.3404 C   0  0  0  0  0  0
  -22.7829  -13.5241   21.1871 C   0  0  0  0  0  0
  -22.1664   -4.2170   21.0977 F   0  0  0  0  0  0
  -21.5631   -3.4542   25.7734 F   0  0  0  0  0  0
  -30.0175  -13.3547   20.4244 N   0  0  0  0  0  0
  -26.2958  -12.9367   20.3329 N   0  0  0  0  0  0
  -25.9304  -11.6520   20.5772 N   0  0  0  0  0  0
  -22.0486  -12.8208   22.0411 N   0  0  0  0  0  0
  -25.4271  -15.1896   20.4092 N   0  0  0  0  0  0
  -31.8923  -14.5680   20.1245 O   0  0  0  0  0  0
  -21.6639   -6.8884   21.4246 O   0  0  0  0  0  0
  -22.3511  -14.5560   20.6737 O   0  0  0  0  0  0
  -24.6196  -31.8656   23.2113 C   0  0  0  0  0  0
  -25.9084  -32.4801   23.8417 C   0  0  1  0  0  0
  -27.2183  -27.3892   20.1277 C   0  0  0  0  0  0
  -25.5956  -33.8603   24.2366 N   0  0  0  0  0  0
  -23.4120  -30.4909   21.5514 C   0  0  2  0  0  0
  -24.8582  -28.9542   20.1166 C   0  0  0  0  0  0
  -22.7448  -29.4627   22.4963 C   0  0  0  0  0  0
  -18.0290  -28.1373   22.8482 C   0  0  0  0  0  0
  -24.1478  -36.7310   23.2649 C   0  0  0  0  0  0
  -25.9456  -30.8182   21.3714 C   0  0  0  0  0  0
  -26.0207  -29.4474   20.7253 C   0  0  0  0  0  0
  -27.2063  -28.6705   20.7353 C   0  0  0  0  0  0
  -26.0574  -26.9431   19.4679 C   0  0  0  0  0  0
  -24.8735  -27.7003   19.4852 C   0  0  0  0  0  0
  -23.6244  -29.8280   20.1652 C   0  0  0  0  0  0
  -25.4099  -36.3113   24.0349 C   0  0  1  0  0  0
  -20.5870  -28.3662   23.1293 C   0  0  2  0  0  0
  -20.6755  -26.9389   22.5407 C   0  0  0  0  0  0
  -19.5735  -26.6385   21.5210 C   0  0  0  0  0  0
  -18.1923  -26.7921   22.1621 C   0  0  0  0  0  0
  -19.1534  -28.8840   23.2881 C   0  0  0  0  0  0
  -18.9448  -30.1431   23.8907 C   0  0  0  0  0  0
  -17.6446  -30.6562   24.0561 C   0  0  0  0  0  0
  -25.9043  -34.9464   23.5150 C   0  0  0  0  0  0
  -16.5345  -29.9067   23.6296 C   0  0  0  0  0  0
  -16.7275  -28.6485   23.0325 C   0  0  0  0  0  0
  -26.4489  -31.6563   25.0739 C   0  0  0  0  0  0
  -25.3749  -31.3614   26.1474 C   0  0  0  0  0  0
  -27.0332  -30.3019   24.6100 C   0  0  0  0  0  0
  -27.6126  -32.4263   25.7437 C   0  0  0  0  0  0
  -27.5569  -37.1795   24.8475 C   0  0  0  0  0  0
  -21.4164  -29.3026   22.3700 N   0  0  0  0  0  0
  -26.4294  -37.3799   23.9422 N   0  0  0  0  0  0
  -24.6791  -31.0726   22.1037 N   0  0  0  0  0  0
  -23.4200  -28.8134   23.3002 O   0  0  0  0  0  0
  -28.3244  -26.5612   20.1222 O   0  0  0  0  0  0
  -26.5552  -34.8894   22.4683 O   0  0  0  0  0  0
  -23.5381  -32.1404   23.7489 O   0  0  0  0  0  0
  -30.0361  -19.0923   20.4448 C   0  0  0  0  0  0
  -29.3937  -20.3443   20.5519 C   0  0  0  0  0  0
  -28.2479  -19.5505   22.5316 C   0  0  0  0  0  0
  -29.7957  -18.0451   21.3647 C   0  0  0  0  0  0
  -28.4954  -20.6094   21.6091 C   0  0  0  0  0  0
  -28.8837  -18.2767   22.4260 C   0  0  0  0  0  0
  -27.8999  -24.3552   21.3767 C   0  0  0  0  0  0
  -28.5419  -23.1580   21.5932 C   0  0  0  0  0  0
  -26.4681  -21.9143   21.8664 C   0  0  0  0  0  0
  -30.6693  -16.8091   21.2797 C   0  0  0  0  0  0
  -26.3817  -24.3658   21.3203 C   0  0  0  0  0  0
  -25.7964  -23.2478   22.1789 C   0  0  0  0  0  0
  -30.0472  -23.0835   21.8585 C   0  0  0  0  0  0
  -28.1694  -17.6056   24.6193 C   0  0  0  0  0  0
  -28.5549  -25.7689   21.3169 C   0  0  0  0  0  0
  -27.8273  -21.9034   21.7239 N   0  0  0  0  0  0
  -30.1009  -15.5940   21.0558 N   0  0  0  0  0  0
  -25.7398  -20.9181   21.7692 O   0  0  0  0  0  0
  -31.8887  -16.9958   21.3918 O   0  0  0  0  0  0
  -28.6793  -17.2593   23.3364 O   0  0  0  0  0  0
  -31.4465  -12.3974   19.1253 H   0  0  0  0  0  0
  -30.2857  -11.3351   19.8648 H   0  0  0  0  0  0
  -29.7305  -11.7572   17.4461 H   0  0  0  0  0  0
  -29.6354  -13.4744   17.7489 H   0  0  0  0  0  0
  -27.8395  -11.2919   18.8567 H   0  0  0  0  0  0
  -27.3522  -12.5814   17.7923 H   0  0  0  0  0  0
  -27.6697  -14.2537   19.5191 H   0  0  0  0  0  0
  -28.6746  -12.0699   21.4093 H   0  0  0  0  0  0
  -28.4485  -13.7482   21.8181 H   0  0  0  0  0  0
  -25.2752   -9.5698   22.4748 H   0  0  0  0  0  0
  -24.0008   -7.4642   22.7454 H   0  0  0  0  0  0
  -21.0854   -8.8741   19.8931 H   0  0  0  0  0  0
  -22.3672  -10.9664   19.6165 H   0  0  0  0  0  0
  -21.1995   -7.6147   23.9719 H   0  0  0  0  0  0
  -21.1491   -6.0527   25.9074 H   0  0  0  0  0  0
  -22.0595   -2.7620   23.2828 H   0  0  0  0  0  0
  -22.4111  -11.9852   22.4757 H   0  0  0  0  0  0
  -21.1108  -13.1215   22.2656 H   0  0  0  0  0  0
  -24.6626  -15.8465   20.5126 H   0  0  0  0  0  0
  -26.2801  -15.6250   20.0821 H   0  0  0  0  0  0
  -26.7147  -32.5476   23.1185 H   0  0  0  0  0  0
  -25.0201  -33.9794   25.0571 H   0  0  0  0  0  0
  -22.7059  -31.3109   21.4083 H   0  0  0  0  0  0
  -23.3757  -35.9634   23.3347 H   0  0  0  0  0  0
  -24.3600  -36.8879   22.2057 H   0  0  0  0  0  0
  -23.7178  -37.6516   23.6620 H   0  0  0  0  0  0
  -26.0638  -31.5789   20.5999 H   0  0  0  0  0  0
  -26.8361  -30.8749   21.9853 H   0  0  0  0  0  0
  -28.0977  -29.0492   21.2146 H   0  0  0  0  0  0
  -26.0604  -25.9945   18.9545 H   0  0  0  0  0  0
  -23.9842  -27.3182   19.0027 H   0  0  0  0  0  0
  -23.7450  -30.6052   19.4107 H   0  0  0  0  0  0
  -22.7475  -29.2580   19.8600 H   0  0  0  0  0  0
  -25.1254  -36.2022   25.0841 H   0  0  0  0  0  0
  -20.9966  -28.3221   24.1409 H   0  0  0  0  0  0
  -20.5664  -26.2263   23.3602 H   0  0  0  0  0  0
  -21.6616  -26.7394   22.1198 H   0  0  0  0  0  0
  -19.6908  -25.6321   21.1202 H   0  0  0  0  0  0
  -19.6684  -27.3227   20.6772 H   0  0  0  0  0  0
  -17.4191  -26.6702   21.4026 H   0  0  0  0  0  0
  -18.0281  -26.0061   22.8998 H   0  0  0  0  0  0
  -19.7924  -30.7226   24.2311 H   0  0  0  0  0  0
  -17.4998  -31.6241   24.5160 H   0  0  0  0  0  0
  -15.5346  -30.2967   23.7603 H   0  0  0  0  0  0
  -15.8679  -28.0804   22.7016 H   0  0  0  0  0  0
  -24.6078  -30.6780   25.7809 H   0  0  0  0  0  0
  -24.8752  -32.2706   26.4833 H   0  0  0  0  0  0
  -25.8146  -30.8904   27.0278 H   0  0  0  0  0  0
  -26.2899  -29.6772   24.1136 H   0  0  0  0  0  0
  -27.4114  -29.7232   25.4534 H   0  0  0  0  0  0
  -27.8713  -30.4401   23.9264 H   0  0  0  0  0  0
  -27.2899  -33.3658   26.1934 H   0  0  0  0  0  0
  -28.3935  -32.6649   25.0203 H   0  0  0  0  0  0
  -28.0778  -31.8393   26.5361 H   0  0  0  0  0  0
  -28.2593  -38.0081   24.7516 H   0  0  0  0  0  0
  -28.1030  -36.2607   24.6316 H   0  0  0  0  0  0
  -27.2267  -37.1456   25.8868 H   0  0  0  0  0  0
  -20.9339  -29.8835   21.6983 H   0  0  0  0  0  0
  -26.0181  -38.2880   24.1460 H   0  0  0  0  0  0
  -30.7576  -18.9390   19.6511 H   0  0  0  0  0  0
  -29.6086  -21.1092   19.8217 H   0  0  0  0  0  0
  -27.5465  -19.7369   23.3313 H   0  0  0  0  0  0
  -26.0596  -24.2373   20.2879 H   0  0  0  0  0  0
  -25.9899  -25.3164   21.6829 H   0  0  0  0  0  0
  -25.9675  -23.4629   23.2330 H   0  0  0  0  0  0
  -24.7170  -23.1814   22.0406 H   0  0  0  0  0  0
  -30.3890  -23.9471   22.4272 H   0  0  0  0  0  0
  -30.6011  -23.0530   20.9207 H   0  0  0  0  0  0
  -30.3336  -22.2185   22.4604 H   0  0  0  0  0  0
  -28.1763  -16.7317   25.2734 H   0  0  0  0  0  0
  -27.1413  -17.9623   24.5633 H   0  0  0  0  0  0
  -28.7880  -18.3716   25.0907 H   0  0  0  0  0  0
  -29.6366  -25.6881   21.4064 H   0  0  0  0  0  0
  -28.2338  -26.3294   22.1980 H   0  0  0  0  0  0
  -29.1043  -15.5304   21.1731 H   0  0  0  0  0  0
  1 25  1  0  0  0
  1 30  2  0  0  0
  1 87  1  0  0  0
  2  3  1  0  0  0
  2 25  1  0  0  0
  2 91  1  0  0  0
  2 92  1  0  0  0
  3  4  1  0  0  0
  3 93  1  0  0  0
  3 94  1  0  0  0
  4  5  1  0  0  0
  4 95  1  0  0  0
  4 96  1  0  0  0
  5  6  1  0  0  0
  5 26  1  0  0  0
  5 97  1  0  0  0
  6 25  1  0  0  0
  6 98  1  0  0  0
  6 99  1  0  0  0
  7  8  2  0  0  0
  7 26  1  0  0  0
  7 29  1  0  0  0
  8  9  1  0  0  0
  8 22  1  0  0  0
  9 10  1  0  0  0
  9 27  2  0  0  0
 10 11  2  0  0  0
 10 15  1  0  0  0
 11 12  1  0  0  0
 11100  1  0  0  0
 12 13  2  0  0  0
 12101  1  0  0  0
 13 14  1  0  0  0
 13 31  1  0  0  0
 14 15  2  0  0  0
 14102  1  0  0  0
 15103  1  0  0  0
 16 17  2  0  0  0
 16 21  1  0  0  0
 16 31  1  0  0  0
 17 18  1  0  0  0
 17104  1  0  0  0
 18 19  2  0  0  0
 18105  1  0  0  0
 19 20  1  0  0  0
 19 24  1  0  0  0
 20 21  2  0  0  0
 20106  1  0  0  0
 21 23  1  0  0  0
 22 28  1  0  0  0
 22 32  2  0  0  0
 26 27  1  0  0  0
 28107  1  0  0  0
 28108  1  0  0  0
 29109  1  0  0  0
 29110  1  0  0  0
 33 34  1  0  0  0
 33 66  1  0  0  0
 33 70  2  0  0  0
 34 36  1  0  0  0
 34 59  1  0  0  0
 34111  1  0  0  0
 35 44  2  0  0  0
 35 45  1  0  0  0
 35 68  1  0  0  0
 36 56  1  0  0  0
 36112  1  0  0  0
 37 39  1  0  0  0
 37 47  1  0  0  0
 37 66  1  0  0  0
 37113  1  0  0  0
 38 43  2  0  0  0
 38 46  1  0  0  0
 38 47  1  0  0  0
 39 64  1  0  0  0
 39 67  2  0  0  0
 40 52  1  0  0  0
 40 53  2  0  0  0
 40 58  1  0  0  0
 41114  1  0  0  0
 41115  1  0  0  0
 41116  1  0  0  0
 41 48  1  0  0  0
 42 43  1  0  0  0
 42 66  1  0  0  0
 42117  1  0  0  0
 42118  1  0  0  0
 43 44  1  0  0  0
 44119  1  0  0  0
 45 46  2  0  0  0
 45120  1  0  0  0
 46121  1  0  0  0
 47122  1  0  0  0
 47123  1  0  0  0
 48 56  1  0  0  0
 48 65  1  0  0  0
 48124  1  0  0  0
 49 50  1  0  0  0
 49 53  1  0  0  0
 49 64  1  0  0  0
 49125  1  0  0  0
 50 51  1  0  0  0
 50126  1  0  0  0
 50127  1  0  0  0
 51 52  1  0  0  0
 51128  1  0  0  0
 51129  1  0  0  0
 52130  1  0  0  0
 52131  1  0  0  0
 53 54  1  0  0  0
 54 55  2  0  0  0
 54132  1  0  0  0
 55 57  1  0  0  0
 55133  1  0  0  0
 56 69  2  0  0  0
 57 58  2  0  0  0
 57134  1  0  0  0
 58135  1  0  0  0
 59 60  1  0  0  0
 59 61  1  0  0  0
 59 62  1  0  0  0
 60136  1  0  0  0
 60137  1  0  0  0
 60138  1  0  0  0
 61139  1  0  0  0
 61140  1  0  0  0
 61141  1  0  0  0
 62142  1  0  0  0
 62143  1  0  0  0
 62144  1  0  0  0
 63 65  1  0  0  0
 63145  1  0  0  0
 63146  1  0  0  0
 63147  1  0  0  0
 64148  1  0  0  0
 65149  1  0  0  0
 68 85  1  0  0  0
 71 72  2  0  0  0
 71 74  1  0  0  0
 71150  1  0  0  0
 72 75  1  0  0  0
 72151  1  0  0  0
 73 75  2  0  0  0
 73 76  1  0  0  0
 73152  1  0  0  0
 74 76  2  0  0  0
 74 80  1  0  0  0
 75 86  1  0  0  0
 76 90  1  0  0  0
 77 78  2  0  0  0
 77 81  1  0  0  0
 77 85  1  0  0  0
 78 83  1  0  0  0
 78 86  1  0  0  0
 79 82  1  0  0  0
 79 86  1  0  0  0
 79 88  2  0  0  0
 80 87  1  0  0  0
 80 89  2  0  0  0
 81 82  1  0  0  0
 81153  1  0  0  0
 81154  1  0  0  0
 82155  1  0  0  0
 82156  1  0  0  0
 83157  1  0  0  0
 83158  1  0  0  0
 83159  1  0  0  0
 84 90  1  0  0  0
 84160  1  0  0  0
 84161  1  0  0  0
 84162  1  0  0  0
 85163  1  0  0  0
 85164  1  0  0  0
 87165  1  0  0  0
M  ISO  4   1 100  68 101  85 101  87 100
M  END
> <chiral flag>
0

> <version>
0

> <s_m_source_file>
/data/baiqing/PycharmProjects/Reinvent-master-3.2/result/LINK_invent/BTK/process_docking_weight1_custom_product_contain_oxygen_bond_distance_aromatic_linkinvent_7_9_3/rearranged_h_0094.sdf

> <i_m_source_file_index>
41

> <r_mmod_Potential_Energy-OPLS-2005>
151.483520507812

> <r_mmod_Stretch_Energy-OPLS-2005>
63.1530838012695

> <r_mmod_Bend_Energy-OPLS-2005>
118.766960144043

> <r_mmod_Torsional_Energy-OPLS-2005>
310.017059326172

> <r_mmod_Improper_Torsional_Energy-OPLS-2005>
4.96701431274414

> <r_mmod_Van_der_Waal_Energy-OPLS-2005>
189.004898071289

> <r_mmod_Electrostatic_Energy-OPLS-2005>
-337.212432861328

> <r_mmod_Solvation_Energy-OPLS-2005>
-222.242614746094

> <b_mmod_Minimization_Converged-OPLS-2005>
0

> <r_mmod_RMS_Derivative-OPLS-2005>
3.84877419471741

$$$$
41
                    3D
 Structure written by MMmdl.
159168  0  0  1  0            999 V2000
  -30.6143  -14.6840   20.5321 C   0  0  0  0  0  0
  -30.4480  -12.4103   19.4875 C   0  0  0  0  0  0
  -29.5423  -12.5355   18.2454 C   0  0  0  0  0  0
  -28.0637  -12.3519   18.6398 C   0  0  0  0  0  0
  -27.6696  -13.2220   19.8660 C   0  0  2  0  0  0
  -28.7055  -13.0927   21.0053 C   0  0  0  0  0  0
  -25.2630  -13.8207   20.5590 C   0  0  0  0  0  0
  -24.1934  -13.0487   20.9037 C   0  0  0  0  0  0
  -24.6473  -11.6923   20.8660 C   0  0  0  0  0  0
  -23.9148  -10.4321   21.0314 C   0  0  0  0  0  0
  -24.3685   -9.4270   21.9149 C   0  0  0  0  0  0
  -23.6343   -8.2346   22.0788 C   0  0  0  0  0  0
  -22.4329   -8.0334   21.3571 C   0  0  0  0  0  0
  -21.9928   -9.0324   20.4706 C   0  0  0  0  0  0
  -22.7256  -10.2171   20.3043 C   0  0  0  0  0  0
  -21.6886   -6.0787   22.5283 C   0  0  0  0  0  0
  -21.4008   -6.5679   23.8190 C   0  0  0  0  0  0
  -21.3654   -5.6793   24.9149 C   0  0  0  0  0  0
  -21.6056   -4.3076   24.7163 C   0  0  0  0  0  0
  -21.8838   -3.8181   23.4293 C   0  0  0  0  0  0
  -21.9214   -4.7037   22.3349 C   0  0  0  0  0  0
  -22.7931  -13.5254   21.1747 C   0  0  0  0  0  0
  -22.1725   -4.2214   21.0946 F   0  0  0  0  0  0
  -21.5610   -3.4551   25.7686 F   0  0  0  0  0  0
  -30.0262  -13.4414   20.4585 N   0  0  0  0  0  0
  -26.3092  -12.9405   20.3267 N   0  0  0  0  0  0
  -25.9403  -11.6563   20.5702 N   0  0  0  0  0  0
  -22.0655  -12.8226   22.0299 N   0  0  0  0  0  0
  -25.4399  -15.1984   20.4033 N   0  0  0  0  0  0
  -31.7538  -14.8818   20.0918 O   0  0  0  0  0  0
  -21.6705   -6.8956   21.4235 O   0  0  0  0  0  0
  -22.3562  -14.5577   20.6662 O   0  0  0  0  0  0
  -24.6312  -31.8634   23.2199 C   0  0  0  0  0  0
  -25.9178  -32.4805   23.8526 C   0  0  1  0  0  0
  -27.1886  -27.2793   20.1035 C   0  0  0  0  0  0
  -25.6009  -33.8635   24.2425 N   0  0  0  0  0  0
  -23.4254  -30.4915   21.5635 C   0  0  2  0  0  0
  -24.8716  -28.9844   20.0922 C   0  0  0  0  0  0
  -22.7706  -29.4491   22.4984 C   0  0  0  0  0  0
  -18.0591  -28.1276   22.8527 C   0  0  0  0  0  0
  -24.1451  -36.7281   23.2659 C   0  0  0  0  0  0
  -25.9720  -30.7662   21.4206 C   0  0  0  0  0  0
  -26.0354  -29.3953   20.7575 C   0  0  0  0  0  0
  -27.1880  -28.5404   20.7873 C   0  0  0  0  0  0
  -26.0848  -27.0673   19.2516 C   0  0  0  0  0  0
  -24.9085  -27.8246   19.3132 C   0  0  0  0  0  0
  -23.6280  -29.8528   20.1695 C   0  0  0  0  0  0
  -25.4075  -36.3129   24.0376 C   0  0  1  0  0  0
  -20.6218  -28.3281   23.1235 C   0  0  2  0  0  0
  -20.7144  -26.8967   22.5267 C   0  0  0  0  0  0
  -19.6002  -26.5908   21.5179 C   0  0  0  0  0  0
  -18.2192  -26.7871   22.1508 C   0  0  0  0  0  0
  -19.1873  -28.8664   23.2879 C   0  0  0  0  0  0
  -18.9967  -30.1313   23.8873 C   0  0  0  0  0  0
  -17.6992  -30.6520   24.0391 C   0  0  0  0  0  0
  -25.9054  -34.9492   23.5195 C   0  0  0  0  0  0
  -16.5788  -29.9029   23.6399 C   0  0  0  0  0  0
  -16.7605  -28.6397   23.0514 C   0  0  0  0  0  0
  -26.4493  -31.6636   25.0927 C   0  0  0  0  0  0
  -25.3777  -31.3734   26.1697 C   0  0  0  0  0  0
  -27.0321  -30.3041   24.6454 C   0  0  0  0  0  0
  -27.6039  -32.4354   25.7687 C   0  0  0  0  0  0
  -27.5576  -37.1798   24.8494 C   0  0  0  0  0  0
  -21.4517  -29.2667   22.3609 N   0  0  0  0  0  0
  -26.4276  -37.3781   23.9464 N   0  0  0  0  0  0
  -24.6913  -31.0715   22.1129 N   0  0  0  0  0  0
  -23.4434  -28.8184   23.3146 O   0  0  0  0  0  0
  -28.1577  -26.2508   20.2603 O   0  0  0  0  0  0
  -26.5558  -34.8916   22.4737 O   0  0  0  0  0  0
  -23.5442  -32.1499   23.7441 O   0  0  0  0  0  0
  -29.9204  -19.5022   21.6433 C   0  0  0  0  0  0
  -30.3560  -18.1306   21.6645 C   0  0  0  0  0  0
  -28.8007  -17.6380   19.8883 C   0  0  0  0  0  0
  -28.8692  -19.9570   20.8008 C   0  0  0  0  0  0
  -29.7617  -17.1389   20.8121 C   0  0  0  0  0  0
  -28.3665  -18.9925   19.8788 C   0  0  0  0  0  0
  -26.3710  -24.3716   20.1443 C   0  0  0  0  0  0
  -27.9140  -21.0068   21.3314 C   0  0  0  0  0  0
  -25.9853  -24.1967   21.5759 C   0  0  0  0  0  0
  -26.7982  -23.0641   22.2097 C   0  0  0  0  0  0
  -28.6543  -23.4973   20.5530 C   0  0  0  0  0  0
  -27.8412  -24.7830   19.9367 C   0  0  2  0  0  0
  -27.8275  -22.4144   21.2942 N   0  0  0  0  0  0
  -29.8317  -15.6924   21.0435 N   0  0  0  0  0  0
  -26.9598  -20.3880   22.0451 N   0  3  0  0  0  0
  -25.5803  -24.1314   19.2243 O   0  0  0  0  0  0
  -27.3058  -19.2956   19.0969 F   0  0  0  0  0  0
  -31.5034  -12.4966   19.2194 H   0  0  0  0  0  0
  -30.3283  -11.4264   19.9415 H   0  0  0  0  0  0
  -29.8304  -11.8002   17.4943 H   0  0  0  0  0  0
  -29.6844  -13.5159   17.7882 H   0  0  0  0  0  0
  -27.9156  -11.3051   18.8991 H   0  0  0  0  0  0
  -27.4125  -12.5575   17.7907 H   0  0  0  0  0  0
  -27.6993  -14.2548   19.5219 H   0  0  0  0  0  0
  -28.7309  -12.0795   21.3979 H   0  0  0  0  0  0
  -28.4526  -13.7296   21.8535 H   0  0  0  0  0  0
  -25.2867   -9.5776   22.4667 H   0  0  0  0  0  0
  -24.0094   -7.4756   22.7496 H   0  0  0  0  0  0
  -21.0868   -8.8821   19.9018 H   0  0  0  0  0  0
  -22.3728  -10.9716   19.6154 H   0  0  0  0  0  0
  -21.1998   -7.6185   23.9688 H   0  0  0  0  0  0
  -21.1444   -6.0545   25.9036 H   0  0  0  0  0  0
  -22.0605   -2.7650   23.2749 H   0  0  0  0  0  0
  -22.4327  -11.9872   22.4600 H   0  0  0  0  0  0
  -21.1308  -13.1193   22.2716 H   0  0  0  0  0  0
  -24.6523  -15.8352   20.4681 H   0  0  0  0  0  0
  -26.3013  -15.6471   20.1260 H   0  0  0  0  0  0
  -26.7283  -32.5306   23.1276 H   0  0  0  0  0  0
  -25.0126  -33.9745   25.0542 H   0  0  0  0  0  0
  -22.7017  -31.3031   21.4615 H   0  0  0  0  0  0
  -23.3727  -35.9599   23.3308 H   0  0  0  0  0  0
  -24.3593  -36.8885   22.2101 H   0  0  0  0  0  0
  -23.7153  -37.6460   23.6641 H   0  0  0  0  0  0
  -26.1428  -31.5252   20.6572 H   0  0  0  0  0  0
  -26.8395  -30.7877   22.0642 H   0  0  0  0  0  0
  -28.0404  -28.8264   21.3896 H   0  0  0  0  0  0
  -26.1135  -26.2861   18.5044 H   0  0  0  0  0  0
  -24.0727  -27.5657   18.6717 H   0  0  0  0  0  0
  -23.6971  -30.6319   19.4132 H   0  0  0  0  0  0
  -22.7462  -29.2871   19.8645 H   0  0  0  0  0  0
  -25.1218  -36.2022   25.0854 H   0  0  0  0  0  0
  -21.0549  -28.2609   24.1208 H   0  0  0  0  0  0
  -20.6382  -26.1779   23.3372 H   0  0  0  0  0  0
  -21.6982  -26.7123   22.1210 H   0  0  0  0  0  0
  -19.6647  -25.5551   21.1548 H   0  0  0  0  0  0
  -19.7399  -27.2477   20.6537 H   0  0  0  0  0  0
  -17.4531  -26.6750   21.3881 H   0  0  0  0  0  0
  -18.0316  -25.9792   22.8560 H   0  0  0  0  0  0
  -19.8526  -30.7220   24.2170 H   0  0  0  0  0  0
  -17.5668  -31.6261   24.4810 H   0  0  0  0  0  0
  -15.5894  -30.3098   23.7870 H   0  0  0  0  0  0
  -15.8825  -28.0740   22.7511 H   0  0  0  0  0  0
  -24.5986  -30.6997   25.8142 H   0  0  0  0  0  0
  -24.8893  -32.2826   26.5188 H   0  0  0  0  0  0
  -25.8191  -30.8968   27.0467 H   0  0  0  0  0  0
  -26.2948  -29.6844   24.1331 H   0  0  0  0  0  0
  -27.3799  -29.7273   25.5048 H   0  0  0  0  0  0
  -27.8928  -30.4303   23.9881 H   0  0  0  0  0  0
  -27.2681  -33.3660   26.2239 H   0  0  0  0  0  0
  -28.3849  -32.6894   25.0539 H   0  0  0  0  0  0
  -28.0701  -31.8524   26.5625 H   0  0  0  0  0  0
  -28.2575  -38.0083   24.7528 H   0  0  0  0  0  0
  -28.1053  -36.2649   24.6285 H   0  0  0  0  0  0
  -27.2342  -37.1431   25.8887 H   0  0  0  0  0  0
  -20.9876  -29.7924   21.6340 H   0  0  0  0  0  0
  -26.0174  -38.2869   24.1364 H   0  0  0  0  0  0
  -30.2539  -20.1560   22.4430 H   0  0  0  0  0  0
  -31.0563  -17.8307   22.4372 H   0  0  0  0  0  0
  -28.2790  -16.9516   19.2383 H   0  0  0  0  0  0
  -24.9227  -23.9573   21.5527 H   0  0  0  0  0  0
  -26.1001  -25.1412   22.1175 H   0  0  0  0  0  0
  -26.0116  -22.3898   22.5424 H   0  0  0  0  0  0
  -27.2656  -23.3804   23.1524 H   0  0  0  0  0  0
  -29.4066  -23.8507   21.2499 H   0  0  0  0  0  0
  -29.2234  -23.0325   19.7428 H   0  0  0  0  0  0
  -27.9628  -24.7453   18.8564 H   0  0  0  0  0  0
  -28.9574  -15.3081   21.3738 H   0  0  0  0  0  0
  -26.8981  -19.3859   22.0483 H   0  0  0  0  0  0
  -26.3049  -20.8872   22.6268 H   0  0  0  0  0  0
  1 25  1  0  0  0
  1 30  2  0  0  0
  1 84  1  0  0  0
  2  3  1  0  0  0
  2 25  1  0  0  0
  2 88  1  0  0  0
  2 89  1  0  0  0
  3  4  1  0  0  0
  3 90  1  0  0  0
  3 91  1  0  0  0
  4  5  1  0  0  0
  4 92  1  0  0  0
  4 93  1  0  0  0
  5  6  1  0  0  0
  5 26  1  0  0  0
  5 94  1  0  0  0
  6 25  1  0  0  0
  6 95  1  0  0  0
  6 96  1  0  0  0
  7  8  2  0  0  0
  7 26  1  0  0  0
  7 29  1  0  0  0
  8  9  1  0  0  0
  8 22  1  0  0  0
  9 10  1  0  0  0
  9 27  2  0  0  0
 10 11  2  0  0  0
 10 15  1  0  0  0
 11 12  1  0  0  0
 11 97  1  0  0  0
 12 13  2  0  0  0
 12 98  1  0  0  0
 13 14  1  0  0  0
 13 31  1  0  0  0
 14 15  2  0  0  0
 14 99  1  0  0  0
 15100  1  0  0  0
 16 17  2  0  0  0
 16 21  1  0  0  0
 16 31  1  0  0  0
 17 18  1  0  0  0
 17101  1  0  0  0
 18 19  2  0  0  0
 18102  1  0  0  0
 19 20  1  0  0  0
 19 24  1  0  0  0
 20 21  2  0  0  0
 20103  1  0  0  0
 21 23  1  0  0  0
 22 28  1  0  0  0
 22 32  2  0  0  0
 26 27  1  0  0  0
 28104  1  0  0  0
 28105  1  0  0  0
 29106  1  0  0  0
 29107  1  0  0  0
 33 34  1  0  0  0
 33 66  1  0  0  0
 33 70  2  0  0  0
 34 36  1  0  0  0
 34 59  1  0  0  0
 34108  1  0  0  0
 35 44  2  0  0  0
 35 45  1  0  0  0
 35 68  1  0  0  0
 36 56  1  0  0  0
 36109  1  0  0  0
 37 39  1  0  0  0
 37 47  1  0  0  0
 37 66  1  0  0  0
 37110  1  0  0  0
 38 43  2  0  0  0
 38 46  1  0  0  0
 38 47  1  0  0  0
 39 64  1  0  0  0
 39 67  2  0  0  0
 40 52  1  0  0  0
 40 53  2  0  0  0
 40 58  1  0  0  0
 41111  1  0  0  0
 41112  1  0  0  0
 41113  1  0  0  0
 41 48  1  0  0  0
 42 43  1  0  0  0
 42 66  1  0  0  0
 42114  1  0  0  0
 42115  1  0  0  0
 43 44  1  0  0  0
 44116  1  0  0  0
 45 46  2  0  0  0
 45117  1  0  0  0
 46118  1  0  0  0
 47119  1  0  0  0
 47120  1  0  0  0
 48 56  1  0  0  0
 48 65  1  0  0  0
 48121  1  0  0  0
 49 50  1  0  0  0
 49 53  1  0  0  0
 49 64  1  0  0  0
 49122  1  0  0  0
 50 51  1  0  0  0
 50123  1  0  0  0
 50124  1  0  0  0
 51 52  1  0  0  0
 51125  1  0  0  0
 51126  1  0  0  0
 52127  1  0  0  0
 52128  1  0  0  0
 53 54  1  0  0  0
 54 55  2  0  0  0
 54129  1  0  0  0
 55 57  1  0  0  0
 55130  1  0  0  0
 56 69  2  0  0  0
 57 58  2  0  0  0
 57131  1  0  0  0
 58132  1  0  0  0
 59 60  1  0  0  0
 59 61  1  0  0  0
 59 62  1  0  0  0
 60133  1  0  0  0
 60134  1  0  0  0
 60135  1  0  0  0
 61136  1  0  0  0
 61137  1  0  0  0
 61138  1  0  0  0
 62139  1  0  0  0
 62140  1  0  0  0
 62141  1  0  0  0
 63 65  1  0  0  0
 63142  1  0  0  0
 63143  1  0  0  0
 63144  1  0  0  0
 64145  1  0  0  0
 65146  1  0  0  0
 68 82  1  0  0  0
 71 72  2  0  0  0
 71 74  1  0  0  0
 71147  1  0  0  0
 72 75  1  0  0  0
 72148  1  0  0  0
 73 75  2  0  0  0
 73 76  1  0  0  0
 73149  1  0  0  0
 74 76  2  0  0  0
 74 78  1  0  0  0
 75 84  1  0  0  0
 76 87  1  0  0  0
 77 79  1  0  0  0
 77 82  1  0  0  0
 77 86  2  0  0  0
 78 83  1  0  0  0
 78 85  2  0  0  0
 79 80  1  0  0  0
 79150  1  0  0  0
 79151  1  0  0  0
 80 83  1  0  0  0
 80152  1  0  0  0
 80153  1  0  0  0
 81 82  1  0  0  0
 81 83  1  0  0  0
 81154  1  0  0  0
 81155  1  0  0  0
 82156  1  0  0  0
 84157  1  0  0  0
 85158  1  0  0  0
 85159  1  0  0  0
M  CHG  1  85   1
M  ISO  4   1 100  68 101  82 101  84 100
M  END
> <chiral flag>
0

> <version>
0

> <s_m_source_file>
/data/baiqing/PycharmProjects/Reinvent-master-3.2/result/LINK_invent/BTK/process_docking_weight1_custom_product_contain_oxygen_bond_distance_aromatic_linkinvent_7_9_3/rearranged_h_0094.sdf

> <i_m_source_file_index>
42

> <r_mmod_Potential_Energy-OPLS-2005>
273.884338378906

> <r_mmod_Stretch_Energy-OPLS-2005>
132.39404296875

> <r_mmod_Bend_Energy-OPLS-2005>
228.937057495117

> <r_mmod_Torsional_Energy-OPLS-2005>
326.655303955078

> <r_mmod_Improper_Torsional_Energy-OPLS-2005>
18.67356300354

> <r_mmod_Van_der_Waal_Energy-OPLS-2005>
203.390701293945

> <r_mmod_Electrostatic_Energy-OPLS-2005>
-305.163299560547

> <r_mmod_Solvation_Energy-OPLS-2005>
-437.2802734375

> <b_mmod_Minimization_Converged-OPLS-2005>
0

> <r_mmod_RMS_Derivative-OPLS-2005>
16.588171005249

$$$$
42
                    3D
 Structure written by MMmdl.
157165  0  0  1  0            999 V2000
  -30.6543  -14.6314   20.4918 C   0  0  0  0  0  0
  -30.4246  -12.3781   19.4635 C   0  0  0  0  0  0
  -29.5063  -12.4952   18.2274 C   0  0  0  0  0  0
  -28.0277  -12.3376   18.6339 C   0  0  0  0  0  0
  -27.6463  -13.2212   19.8512 C   0  0  2  0  0  0
  -28.6893  -13.1135   20.9857 C   0  0  0  0  0  0
  -25.2535  -13.8179   20.5684 C   0  0  0  0  0  0
  -24.1816  -13.0437   20.9201 C   0  0  0  0  0  0
  -24.6392  -11.6911   20.8744 C   0  0  0  0  0  0
  -23.9067  -10.4292   21.0408 C   0  0  0  0  0  0
  -24.3620   -9.4207   21.9183 C   0  0  0  0  0  0
  -23.6297   -8.2241   22.0755 C   0  0  0  0  0  0
  -22.4279   -8.0279   21.3545 C   0  0  0  0  0  0
  -21.9912   -9.0252   20.4647 C   0  0  0  0  0  0
  -22.7240  -10.2132   20.3057 C   0  0  0  0  0  0
  -21.6852   -6.0739   22.5282 C   0  0  0  0  0  0
  -21.4014   -6.5641   23.8218 C   0  0  0  0  0  0
  -21.3658   -5.6792   24.9178 C   0  0  0  0  0  0
  -21.6045   -4.3056   24.7227 C   0  0  0  0  0  0
  -21.8820   -3.8150   23.4347 C   0  0  0  0  0  0
  -21.9194   -4.6967   22.3404 C   0  0  0  0  0  0
  -22.7839  -13.5221   21.1865 C   0  0  0  0  0  0
  -22.1663   -4.2154   21.0980 F   0  0  0  0  0  0
  -21.5628   -3.4537   25.7738 F   0  0  0  0  0  0
  -30.0095  -13.4225   20.4239 N   0  0  0  0  0  0
  -26.2954  -12.9369   20.3267 N   0  0  0  0  0  0
  -25.9318  -11.6524   20.5742 N   0  0  0  0  0  0
  -22.0479  -12.8212   22.0419 N   0  0  0  0  0  0
  -25.4230  -15.1904   20.4114 N   0  0  0  0  0  0
  -31.8349  -14.6948   20.1184 O   0  0  0  0  0  0
  -21.6641   -6.8879   21.4244 O   0  0  0  0  0  0
  -22.3530  -14.5532   20.6717 O   0  0  0  0  0  0
  -24.6245  -31.8612   23.2029 C   0  0  0  0  0  0
  -25.9101  -32.4785   23.8351 C   0  0  1  0  0  0
  -27.2279  -27.3377   20.1010 C   0  0  0  0  0  0
  -25.5925  -33.8585   24.2281 N   0  0  0  0  0  0
  -23.4167  -30.4853   21.5453 C   0  0  2  0  0  0
  -24.8616  -28.9411   20.1111 C   0  0  0  0  0  0
  -22.7460  -29.4635   22.4938 C   0  0  0  0  0  0
  -18.0287  -28.1388   22.8488 C   0  0  0  0  0  0
  -24.1492  -36.7294   23.2640 C   0  0  0  0  0  0
  -25.9561  -30.7961   21.3711 C   0  0  0  0  0  0
  -26.0291  -29.4244   20.7137 C   0  0  0  0  0  0
  -27.2113  -28.6305   20.7060 C   0  0  0  0  0  0
  -26.0260  -26.8890   19.5059 C   0  0  0  0  0  0
  -24.8599  -27.6764   19.5039 C   0  0  0  0  0  0
  -23.6297  -29.8202   20.1602 C   0  0  0  0  0  0
  -25.4117  -36.3087   24.0329 C   0  0  1  0  0  0
  -20.5884  -28.3691   23.1289 C   0  0  2  0  0  0
  -20.6777  -26.9416   22.5413 C   0  0  0  0  0  0
  -19.5755  -26.6389   21.5214 C   0  0  0  0  0  0
  -18.1932  -26.7932   22.1621 C   0  0  0  0  0  0
  -19.1537  -28.8855   23.2886 C   0  0  0  0  0  0
  -18.9461  -30.1455   23.8902 C   0  0  0  0  0  0
  -17.6462  -30.6591   24.0565 C   0  0  0  0  0  0
  -25.9052  -34.9456   23.5105 C   0  0  0  0  0  0
  -16.5353  -29.9090   23.6328 C   0  0  0  0  0  0
  -16.7274  -28.6508   23.0350 C   0  0  0  0  0  0
  -26.4492  -31.6593   25.0717 C   0  0  0  0  0  0
  -25.3731  -31.3725   26.1447 C   0  0  0  0  0  0
  -27.0333  -30.3022   24.6158 C   0  0  0  0  0  0
  -27.6055  -32.4325   25.7486 C   0  0  0  0  0  0
  -27.5583  -37.1804   24.8464 C   0  0  0  0  0  0
  -21.4177  -29.3045   22.3681 N   0  0  0  0  0  0
  -26.4295  -37.3781   23.9409 N   0  0  0  0  0  0
  -24.6846  -31.0638   22.0970 N   0  0  0  0  0  0
  -23.4191  -28.8175   23.3013 O   0  0  0  0  0  0
  -28.3678  -26.5253   20.1562 O   0  0  0  0  0  0
  -26.5617  -34.8920   22.4669 O   0  0  0  0  0  0
  -23.5414  -32.1403   23.7370 O   0  0  0  0  0  0
  -30.1465  -22.2871   20.9960 C   0  0  0  0  0  0
  -29.7155  -23.6222   20.7443 C   0  0  0  0  0  0
  -28.5844  -21.4536   19.3762 C   0  0  0  0  0  0
  -29.6458  -21.1692   20.2695 C   0  0  0  0  0  0
  -28.7403  -23.9197   19.7612 C   0  0  0  0  0  0
  -28.1434  -22.7877   19.1188 C   0  0  0  0  0  0
  -30.3868  -19.8255   20.2811 C   0  0  0  0  0  0
  -30.5811  -17.3746   20.5724 C   0  0  0  0  0  0
  -31.8349  -20.0792   19.8415 C   0  0  0  0  0  0
  -28.5400  -25.3929   19.2367 C   0  0  0  0  0  0
  -29.8929  -15.9898   20.8767 C   0  0  0  0  0  0
  -29.9122  -18.6201   20.5412 N   0  0  0  0  0  0
  -27.1498  -22.9520   18.1520 N   0  0  0  0  0  0
  -31.8554  -17.3282   20.3729 N   0  3  0  0  0  0
  -31.4706  -12.4678   19.1656 H   0  0  0  0  0  0
  -30.3319  -11.3904   19.9181 H   0  0  0  0  0  0
  -29.7717  -11.7399   17.4863 H   0  0  0  0  0  0
  -29.6561  -13.4631   17.7463 H   0  0  0  0  0  0
  -27.8631  -11.2865   18.8738 H   0  0  0  0  0  0
  -27.3767  -12.5599   17.7877 H   0  0  0  0  0  0
  -27.6514  -14.2478   19.4882 H   0  0  0  0  0  0
  -28.6916  -12.1088   21.4116 H   0  0  0  0  0  0
  -28.4376  -13.7868   21.8059 H   0  0  0  0  0  0
  -25.2763   -9.5686   22.4758 H   0  0  0  0  0  0
  -24.0010   -7.4633   22.7472 H   0  0  0  0  0  0
  -21.0844   -8.8770   19.8951 H   0  0  0  0  0  0
  -22.3695  -10.9672   19.6169 H   0  0  0  0  0  0
  -21.2004   -7.6149   23.9723 H   0  0  0  0  0  0
  -21.1478   -6.0520   25.9082 H   0  0  0  0  0  0
  -22.0598   -2.7612   23.2847 H   0  0  0  0  0  0
  -22.4095  -11.9872   22.4804 H   0  0  0  0  0  0
  -21.1096  -13.1241   22.2621 H   0  0  0  0  0  0
  -24.6511  -15.8391   20.5227 H   0  0  0  0  0  0
  -26.2633  -15.6349   20.0651 H   0  0  0  0  0  0
  -26.7167  -32.5460   23.1100 H   0  0  0  0  0  0
  -25.0080  -33.9733   25.0432 H   0  0  0  0  0  0
  -22.7102  -31.3056   21.4032 H   0  0  0  0  0  0
  -23.3755  -35.9625   23.3304 H   0  0  0  0  0  0
  -24.3582  -36.8913   22.2052 H   0  0  0  0  0  0
  -23.7242  -37.6497   23.6658 H   0  0  0  0  0  0
  -26.0850  -31.5597   20.6028 H   0  0  0  0  0  0
  -26.8380  -30.8449   21.9986 H   0  0  0  0  0  0
  -28.1085  -28.9977   21.1845 H   0  0  0  0  0  0
  -25.9424  -25.9053   19.0716 H   0  0  0  0  0  0
  -23.9581  -27.2903   19.0492 H   0  0  0  0  0  0
  -23.7490  -30.5965   19.4035 H   0  0  0  0  0  0
  -22.7496  -29.2494   19.8581 H   0  0  0  0  0  0
  -25.1298  -36.1941   25.0822 H   0  0  0  0  0  0
  -20.9981  -28.3268   24.1408 H   0  0  0  0  0  0
  -20.5686  -26.2298   23.3609 H   0  0  0  0  0  0
  -21.6645  -26.7455   22.1204 H   0  0  0  0  0  0
  -19.6918  -25.6301   21.1243 H   0  0  0  0  0  0
  -19.6696  -27.3199   20.6743 H   0  0  0  0  0  0
  -17.4205  -26.6684   21.4021 H   0  0  0  0  0  0
  -18.0331  -26.0074   22.9016 H   0  0  0  0  0  0
  -19.7936  -30.7269   24.2279 H   0  0  0  0  0  0
  -17.5018  -31.6271   24.5167 H   0  0  0  0  0  0
  -15.5355  -30.2995   23.7654 H   0  0  0  0  0  0
  -15.8673  -28.0831   22.7064 H   0  0  0  0  0  0
  -24.5900  -30.7082   25.7772 H   0  0  0  0  0  0
  -24.8928  -32.2891   26.4881 H   0  0  0  0  0  0
  -25.8060  -30.8893   27.0214 H   0  0  0  0  0  0
  -26.2897  -29.6771   24.1196 H   0  0  0  0  0  0
  -27.4054  -29.7277   25.4652 H   0  0  0  0  0  0
  -27.8756  -30.4314   23.9358 H   0  0  0  0  0  0
  -27.2670  -33.3626   26.2062 H   0  0  0  0  0  0
  -28.3864  -32.6884   25.0313 H   0  0  0  0  0  0
  -28.0721  -31.8450   26.5403 H   0  0  0  0  0  0
  -28.2600  -38.0102   24.7517 H   0  0  0  0  0  0
  -28.1080  -36.2633   24.6287 H   0  0  0  0  0  0
  -27.2299  -37.1450   25.8867 H   0  0  0  0  0  0
  -20.9350  -29.8765   21.6892 H   0  0  0  0  0  0
  -26.0178  -38.2856   24.1410 H   0  0  0  0  0  0
  -30.9598  -22.1363   21.6927 H   0  0  0  0  0  0
  -30.2118  -24.4373   21.2517 H   0  0  0  0  0  0
  -28.1695  -20.6357   18.8040 H   0  0  0  0  0  0
  -31.9927  -21.1106   19.5235 H   0  0  0  0  0  0
  -32.0920  -19.4705   18.9747 H   0  0  0  0  0  0
  -32.5291  -19.8894   20.6604 H   0  0  0  0  0  0
  -27.8477  -25.4218   18.3996 H   0  0  0  0  0  0
  -29.4868  -25.6142   18.7434 H   0  0  0  0  0  0
  -28.9289  -15.9889   20.3721 H   0  0  0  0  0  0
  -29.6739  -15.9535   21.9428 H   0  0  0  0  0  0
  -26.5942  -22.1455   17.8847 H   0  0  0  0  0  0
  -26.6172  -23.8144   18.1357 H   0  0  0  0  0  0
  -32.3069  -16.4118   20.2973 H   0  0  0  0  0  0
  -32.4143  -18.1469   20.1752 H   0  0  0  0  0  0
  1 25  1  0  0  0
  1 30  2  0  0  0
  1 81  1  0  0  0
  2  3  1  0  0  0
  2 25  1  0  0  0
  2 85  1  0  0  0
  2 86  1  0  0  0
  3  4  1  0  0  0
  3 87  1  0  0  0
  3 88  1  0  0  0
  4  5  1  0  0  0
  4 89  1  0  0  0
  4 90  1  0  0  0
  5  6  1  0  0  0
  5 26  1  0  0  0
  5 91  1  0  0  0
  6 25  1  0  0  0
  6 92  1  0  0  0
  6 93  1  0  0  0
  7  8  2  0  0  0
  7 26  1  0  0  0
  7 29  1  0  0  0
  8  9  1  0  0  0
  8 22  1  0  0  0
  9 10  1  0  0  0
  9 27  2  0  0  0
 10 11  2  0  0  0
 10 15  1  0  0  0
 11 12  1  0  0  0
 11 94  1  0  0  0
 12 13  2  0  0  0
 12 95  1  0  0  0
 13 14  1  0  0  0
 13 31  1  0  0  0
 14 15  2  0  0  0
 14 96  1  0  0  0
 15 97  1  0  0  0
 16 17  2  0  0  0
 16 21  1  0  0  0
 16 31  1  0  0  0
 17 18  1  0  0  0
 17 98  1  0  0  0
 18 19  2  0  0  0
 18 99  1  0  0  0
 19 20  1  0  0  0
 19 24  1  0  0  0
 20 21  2  0  0  0
 20100  1  0  0  0
 21 23  1  0  0  0
 22 28  1  0  0  0
 22 32  2  0  0  0
 26 27  1  0  0  0
 28101  1  0  0  0
 28102  1  0  0  0
 29103  1  0  0  0
 29104  1  0  0  0
 33 34  1  0  0  0
 33 66  1  0  0  0
 33 70  2  0  0  0
 34 36  1  0  0  0
 34 59  1  0  0  0
 34105  1  0  0  0
 35 44  2  0  0  0
 35 45  1  0  0  0
 35 68  1  0  0  0
 36 56  1  0  0  0
 36106  1  0  0  0
 37 39  1  0  0  0
 37 47  1  0  0  0
 37 66  1  0  0  0
 37107  1  0  0  0
 38 43  2  0  0  0
 38 46  1  0  0  0
 38 47  1  0  0  0
 39 64  1  0  0  0
 39 67  2  0  0  0
 40 52  1  0  0  0
 40 53  2  0  0  0
 40 58  1  0  0  0
 41108  1  0  0  0
 41109  1  0  0  0
 41110  1  0  0  0
 41 48  1  0  0  0
 42 43  1  0  0  0
 42 66  1  0  0  0
 42111  1  0  0  0
 42112  1  0  0  0
 43 44  1  0  0  0
 44113  1  0  0  0
 45 46  2  0  0  0
 45114  1  0  0  0
 46115  1  0  0  0
 47116  1  0  0  0
 47117  1  0  0  0
 48 56  1  0  0  0
 48 65  1  0  0  0
 48118  1  0  0  0
 49 50  1  0  0  0
 49 53  1  0  0  0
 49 64  1  0  0  0
 49119  1  0  0  0
 50 51  1  0  0  0
 50120  1  0  0  0
 50121  1  0  0  0
 51 52  1  0  0  0
 51122  1  0  0  0
 51123  1  0  0  0
 52124  1  0  0  0
 52125  1  0  0  0
 53 54  1  0  0  0
 54 55  2  0  0  0
 54126  1  0  0  0
 55 57  1  0  0  0
 55127  1  0  0  0
 56 69  2  0  0  0
 57 58  2  0  0  0
 57128  1  0  0  0
 58129  1  0  0  0
 59 60  1  0  0  0
 59 61  1  0  0  0
 59 62  1  0  0  0
 60130  1  0  0  0
 60131  1  0  0  0
 60132  1  0  0  0
 61133  1  0  0  0
 61134  1  0  0  0
 61135  1  0  0  0
 62136  1  0  0  0
 62137  1  0  0  0
 62138  1  0  0  0
 63 65  1  0  0  0
 63139  1  0  0  0
 63140  1  0  0  0
 63141  1  0  0  0
 64142  1  0  0  0
 65143  1  0  0  0
 68 80  1  0  0  0
 71 72  2  0  0  0
 71 74  1  0  0  0
 71144  1  0  0  0
 72 75  1  0  0  0
 72145  1  0  0  0
 73 74  2  0  0  0
 73 76  1  0  0  0
 73146  1  0  0  0
 74 77  1  0  0  0
 75 76  2  0  0  0
 75 80  1  0  0  0
 76 83  1  0  0  0
 77 79  1  0  0  0
 77 82  2  0  0  0
 78 81  1  0  0  0
 78 82  1  0  0  0
 78 84  2  0  0  0
 79147  1  0  0  0
 79148  1  0  0  0
 79149  1  0  0  0
 80150  1  0  0  0
 80151  1  0  0  0
 81152  1  0  0  0
 81153  1  0  0  0
 83154  1  0  0  0
 83155  1  0  0  0
 84156  1  0  0  0
 84157  1  0  0  0
M  CHG  1  84   1
M  ISO  4   1 100  68 101  80 101  81 100
M  END
> <chiral flag>
0

> <version>
0

> <s_m_source_file>
/data/baiqing/PycharmProjects/Reinvent-master-3.2/result/LINK_invent/BTK/process_docking_weight1_custom_product_contain_oxygen_bond_distance_aromatic_linkinvent_7_9_3/rearranged_h_0094.sdf

> <i_m_source_file_index>
43

> <r_mmod_Potential_Energy-OPLS-2005>
88.4760208129883

> <r_mmod_Stretch_Energy-OPLS-2005>
97.6796569824219

> <r_mmod_Bend_Energy-OPLS-2005>
162.745040893555

> <r_mmod_Torsional_Energy-OPLS-2005>
219.857604980469

> <r_mmod_Improper_Torsional_Energy-OPLS-2005>
9.99838066101074

> <r_mmod_Van_der_Waal_Energy-OPLS-2005>
185.895080566406

> <r_mmod_Electrostatic_Energy-OPLS-2005>
-193.926406860352

> <r_mmod_Solvation_Energy-OPLS-2005>
-437.170959472656

> <b_mmod_Minimization_Converged-OPLS-2005>
0

> <r_mmod_RMS_Derivative-OPLS-2005>
0.555008947849274

$$$$
43
                    3D
 Structure written by MMmdl.
163172  0  0  1  0            999 V2000
  -30.6967  -14.7605   20.3160 C   0  0  0  0  0  0
  -30.4339  -12.4593   19.4071 C   0  0  0  0  0  0
  -29.4821  -12.4041   18.1931 C   0  0  0  0  0  0
  -28.0116  -12.2860   18.6363 C   0  0  0  0  0  0
  -27.6337  -13.2084   19.8290 C   0  0  2  0  0  0
  -28.7152  -13.2470   20.9256 C   0  0  0  0  0  0
  -25.2559  -13.8052   20.5832 C   0  0  0  0  0  0
  -24.1784  -13.0359   20.9227 C   0  0  0  0  0  0
  -24.6379  -11.6825   20.8843 C   0  0  0  0  0  0
  -23.9036  -10.4210   21.0469 C   0  0  0  0  0  0
  -24.3585   -9.4112   21.9231 C   0  0  0  0  0  0
  -23.6223   -8.2179   22.0784 C   0  0  0  0  0  0
  -22.4201   -8.0248   21.3574 C   0  0  0  0  0  0
  -21.9862   -9.0221   20.4681 C   0  0  0  0  0  0
  -22.7229  -10.2076   20.3090 C   0  0  0  0  0  0
  -21.6825   -6.0698   22.5304 C   0  0  0  0  0  0
  -21.4016   -6.5611   23.8237 C   0  0  0  0  0  0
  -21.3668   -5.6774   24.9206 C   0  0  0  0  0  0
  -21.6054   -4.3033   24.7252 C   0  0  0  0  0  0
  -21.8806   -3.8108   23.4372 C   0  0  0  0  0  0
  -21.9146   -4.6927   22.3424 C   0  0  0  0  0  0
  -22.7815  -13.5207   21.1809 C   0  0  0  0  0  0
  -22.1612   -4.2113   21.0986 F   0  0  0  0  0  0
  -21.5625   -3.4521   25.7773 F   0  0  0  0  0  0
  -29.9845  -13.5812   20.2579 N   0  0  0  0  0  0
  -26.2953  -12.9239   20.3363 N   0  0  0  0  0  0
  -25.9301  -11.6421   20.5871 N   0  0  0  0  0  0
  -22.0398  -12.8248   22.0376 N   0  0  0  0  0  0
  -25.4351  -15.1781   20.4393 N   0  0  0  0  0  0
  -31.9179  -14.6994   20.4405 O   0  0  0  0  0  0
  -21.6574   -6.8839   21.4266 O   0  0  0  0  0  0
  -22.3541  -14.5487   20.6609 O   0  0  0  0  0  0
  -24.6227  -31.8583   23.1995 C   0  0  0  0  0  0
  -25.9075  -32.4777   23.8338 C   0  0  1  0  0  0
  -27.2828  -27.3458   20.1311 C   0  0  0  0  0  0
  -25.5902  -33.8581   24.2298 N   0  0  0  0  0  0
  -23.4209  -30.4708   21.5376 C   0  0  2  0  0  0
  -24.8899  -28.9284   20.0974 C   0  0  0  0  0  0
  -22.7470  -29.4563   22.4914 C   0  0  0  0  0  0
  -18.0282  -28.1359   22.8482 C   0  0  0  0  0  0
  -24.1483  -36.7287   23.2644 C   0  0  0  0  0  0
  -25.9561  -30.7988   21.3682 C   0  0  0  0  0  0
  -26.0415  -29.4219   20.7199 C   0  0  0  0  0  0
  -27.2263  -28.6341   20.7437 C   0  0  0  0  0  0
  -26.1127  -26.8949   19.4811 C   0  0  0  0  0  0
  -24.9269  -27.6661   19.4749 C   0  0  0  0  0  0
  -23.6414  -29.7923   20.1537 C   0  0  0  0  0  0
  -25.4105  -36.3080   24.0336 C   0  0  1  0  0  0
  -20.5879  -28.3656   23.1299 C   0  0  2  0  0  0
  -20.6767  -26.9368   22.5421 C   0  0  0  0  0  0
  -19.5753  -26.6364   21.5211 C   0  0  0  0  0  0
  -18.1925  -26.7917   22.1604 C   0  0  0  0  0  0
  -19.1534  -28.8829   23.2892 C   0  0  0  0  0  0
  -18.9465  -30.1424   23.8935 C   0  0  0  0  0  0
  -17.6466  -30.6564   24.0559 C   0  0  0  0  0  0
  -25.9031  -34.9452   23.5115 C   0  0  0  0  0  0
  -16.5360  -29.9064   23.6312 C   0  0  0  0  0  0
  -16.7264  -28.6465   23.0358 C   0  0  0  0  0  0
  -26.4447  -31.6590   25.0704 C   0  0  0  0  0  0
  -25.3679  -31.3751   26.1434 C   0  0  0  0  0  0
  -27.0289  -30.3034   24.6114 C   0  0  0  0  0  0
  -27.6027  -32.4297   25.7477 C   0  0  0  0  0  0
  -27.5567  -37.1802   24.8447 C   0  0  0  0  0  0
  -21.4173  -29.3002   22.3682 N   0  0  0  0  0  0
  -26.4275  -37.3787   23.9391 N   0  0  0  0  0  0
  -24.6839  -31.0598   22.0935 N   0  0  0  0  0  0
  -23.4200  -28.8120   23.2999 O   0  0  0  0  0  0
  -28.4117  -26.5294   20.3176 O   0  0  0  0  0  0
  -26.5606  -34.8912   22.4681 O   0  0  0  0  0  0
  -23.5400  -32.1367   23.7341 O   0  0  0  0  0  0
  -28.2425  -19.0478   19.2063 C   0  0  0  0  0  0
  -30.3204  -19.6308   20.1982 C   0  0  0  0  0  0
  -28.6106  -17.6713   19.1698 C   0  0  0  0  0  0
  -29.0730  -20.1077   19.6840 C   0  0  0  0  0  0
  -30.6848  -18.2265   20.2389 C   0  0  0  0  0  0
  -29.8215  -17.1849   19.7453 C   0  0  0  0  0  0
  -27.4911  -22.0348   19.0444 C   0  0  0  0  0  0
  -27.3648  -23.5582   19.0675 C   0  0  0  0  0  0
  -29.4397  -22.7982   20.0130 C   0  0  0  0  0  0
  -28.7933  -24.0203   19.2118 C   0  0  2  0  0  0
  -27.6963  -16.7793   18.3450 C   0  0  0  0  0  0
  -30.9414  -15.7546   18.1760 C   0  0  0  0  0  0
  -28.9869  -25.6163   19.3281 C   0  0  0  0  0  0
  -28.6631  -21.5627   19.5867 N   0  0  0  0  0  0
  -31.9609  -17.8979   20.7023 N   0  0  0  0  0  0
  -30.2471  -15.7853   19.4750 N   0  0  0  0  0  0
  -26.5641  -21.3904   18.5386 O   0  0  0  0  0  0
  -31.4598  -12.6038   19.0646 H   0  0  0  0  0  0
  -30.4274  -11.5190   19.9567 H   0  0  0  0  0  0
  -29.7425  -11.5522   17.5589 H   0  0  0  0  0  0
  -29.5955  -13.2802   17.5568 H   0  0  0  0  0  0
  -27.8589  -11.2429   18.9083 H   0  0  0  0  0  0
  -27.3528  -12.4836   17.7885 H   0  0  0  0  0  0
  -27.5821  -14.2051   19.4237 H   0  0  0  0  0  0
  -28.7887  -12.2949   21.4490 H   0  0  0  0  0  0
  -28.4704  -14.0026   21.6744 H   0  0  0  0  0  0
  -25.2784   -9.5504   22.4782 H   0  0  0  0  0  0
  -23.9960   -7.4509   22.7410 H   0  0  0  0  0  0
  -21.0850   -8.8695   19.8916 H   0  0  0  0  0  0
  -22.3756  -10.9584   19.6139 H   0  0  0  0  0  0
  -21.2050   -7.6161   23.9724 H   0  0  0  0  0  0
  -21.1516   -6.0531   25.9097 H   0  0  0  0  0  0
  -22.0580   -2.7577   23.2883 H   0  0  0  0  0  0
  -22.4046  -11.9976   22.4867 H   0  0  0  0  0  0
  -21.1012  -13.1306   22.2540 H   0  0  0  0  0  0
  -24.6818  -15.8485   20.5382 H   0  0  0  0  0  0
  -26.3179  -15.6075   20.1990 H   0  0  0  0  0  0
  -26.7144  -32.5493   23.1111 H   0  0  0  0  0  0
  -25.0023  -33.9713   25.0418 H   0  0  0  0  0  0
  -22.7097  -31.2868   21.3886 H   0  0  0  0  0  0
  -23.3752  -35.9607   23.3288 H   0  0  0  0  0  0
  -24.3591  -36.8915   22.2061 H   0  0  0  0  0  0
  -23.7212  -37.6481   23.6673 H   0  0  0  0  0  0
  -26.0709  -31.5579   20.5942 H   0  0  0  0  0  0
  -26.8431  -30.8694   21.9857 H   0  0  0  0  0  0
  -28.0979  -29.0001   21.2706 H   0  0  0  0  0  0
  -26.0922  -25.9181   19.0286 H   0  0  0  0  0  0
  -24.0432  -27.2707   18.9932 H   0  0  0  0  0  0
  -23.7373  -30.5661   19.3914 H   0  0  0  0  0  0
  -22.7698  -29.2011   19.8649 H   0  0  0  0  0  0
  -25.1273  -36.1944   25.0830 H   0  0  0  0  0  0
  -20.9966  -28.3244   24.1437 H   0  0  0  0  0  0
  -20.5655  -26.2250   23.3605 H   0  0  0  0  0  0
  -21.6646  -26.7374   22.1258 H   0  0  0  0  0  0
  -19.6900  -25.6289   21.1223 H   0  0  0  0  0  0
  -19.6701  -27.3183   20.6758 H   0  0  0  0  0  0
  -17.4192  -26.6682   21.3998 H   0  0  0  0  0  0
  -18.0276  -26.0049   22.8979 H   0  0  0  0  0  0
  -19.7951  -30.7211   24.2340 H   0  0  0  0  0  0
  -17.5020  -31.6263   24.5114 H   0  0  0  0  0  0
  -15.5355  -30.2956   23.7630 H   0  0  0  0  0  0
  -15.8667  -28.0758   22.7095 H   0  0  0  0  0  0
  -24.5839  -30.7097   25.7787 H   0  0  0  0  0  0
  -24.8882  -32.2937   26.4837 H   0  0  0  0  0  0
  -25.8000  -30.8959   27.0230 H   0  0  0  0  0  0
  -26.2872  -29.6803   24.1109 H   0  0  0  0  0  0
  -27.3996  -29.7248   25.4584 H   0  0  0  0  0  0
  -27.8709  -30.4355   23.9317 H   0  0  0  0  0  0
  -27.2660  -33.3603   26.2057 H   0  0  0  0  0  0
  -28.3851  -32.6837   25.0313 H   0  0  0  0  0  0
  -28.0656  -31.8403   26.5401 H   0  0  0  0  0  0
  -28.2592  -38.0097   24.7509 H   0  0  0  0  0  0
  -28.1061  -36.2640   24.6249 H   0  0  0  0  0  0
  -27.2298  -37.1425   25.8856 H   0  0  0  0  0  0
  -20.9327  -29.8731   21.6905 H   0  0  0  0  0  0
  -26.0157  -38.2857   24.1421 H   0  0  0  0  0  0
  -27.2821  -19.2478   18.7678 H   0  0  0  0  0  0
  -31.0365  -20.3632   20.5393 H   0  0  0  0  0  0
  -26.7584  -23.8694   19.9253 H   0  0  0  0  0  0
  -26.9063  -23.9417   18.1514 H   0  0  0  0  0  0
  -29.3392  -22.9490   21.0927 H   0  0  0  0  0  0
  -30.5086  -22.6982   19.8051 H   0  0  0  0  0  0
  -29.2612  -23.8679   18.2333 H   0  0  0  0  0  0
  -26.7040  -16.7175   18.7885 H   0  0  0  0  0  0
  -28.0926  -15.7815   18.1939 H   0  0  0  0  0  0
  -27.5846  -17.1931   17.3429 H   0  0  0  0  0  0
  -31.9184  -16.2378   18.2714 H   0  0  0  0  0  0
  -30.3704  -16.2685   17.4032 H   0  0  0  0  0  0
  -31.1312  -14.7461   17.8115 H   0  0  0  0  0  0
  -28.7088  -26.0404   18.3617 H   0  0  0  0  0  0
  -30.0600  -25.8034   19.3929 H   0  0  0  0  0  0
  -32.6700  -18.6291   20.7274 H   0  0  0  0  0  0
  -32.3393  -16.9762   20.4804 H   0  0  0  0  0  0
  1 25  1  0  0  0
  1 30  2  0  0  0
  1 86  1  0  0  0
  2  3  1  0  0  0
  2 25  1  0  0  0
  2 88  1  0  0  0
  2 89  1  0  0  0
  3  4  1  0  0  0
  3 90  1  0  0  0
  3 91  1  0  0  0
  4  5  1  0  0  0
  4 92  1  0  0  0
  4 93  1  0  0  0
  5  6  1  0  0  0
  5 26  1  0  0  0
  5 94  1  0  0  0
  6 25  1  0  0  0
  6 95  1  0  0  0
  6 96  1  0  0  0
  7  8  2  0  0  0
  7 26  1  0  0  0
  7 29  1  0  0  0
  8  9  1  0  0  0
  8 22  1  0  0  0
  9 10  1  0  0  0
  9 27  2  0  0  0
 10 11  2  0  0  0
 10 15  1  0  0  0
 11 12  1  0  0  0
 11 97  1  0  0  0
 12 13  2  0  0  0
 12 98  1  0  0  0
 13 14  1  0  0  0
 13 31  1  0  0  0
 14 15  2  0  0  0
 14 99  1  0  0  0
 15100  1  0  0  0
 16 17  2  0  0  0
 16 21  1  0  0  0
 16 31  1  0  0  0
 17 18  1  0  0  0
 17101  1  0  0  0
 18 19  2  0  0  0
 18102  1  0  0  0
 19 20  1  0  0  0
 19 24  1  0  0  0
 20 21  2  0  0  0
 20103  1  0  0  0
 21 23  1  0  0  0
 22 28  1  0  0  0
 22 32  2  0  0  0
 26 27  1  0  0  0
 28104  1  0  0  0
 28105  1  0  0  0
 29106  1  0  0  0
 29107  1  0  0  0
 33 34  1  0  0  0
 33 66  1  0  0  0
 33 70  2  0  0  0
 34 36  1  0  0  0
 34 59  1  0  0  0
 34108  1  0  0  0
 35 44  2  0  0  0
 35 45  1  0  0  0
 35 68  1  0  0  0
 36 56  1  0  0  0
 36109  1  0  0  0
 37 39  1  0  0  0
 37 47  1  0  0  0
 37 66  1  0  0  0
 37110  1  0  0  0
 38 43  2  0  0  0
 38 46  1  0  0  0
 38 47  1  0  0  0
 39 64  1  0  0  0
 39 67  2  0  0  0
 40 52  1  0  0  0
 40 53  2  0  0  0
 40 58  1  0  0  0
 41111  1  0  0  0
 41112  1  0  0  0
 41113  1  0  0  0
 41 48  1  0  0  0
 42 43  1  0  0  0
 42 66  1  0  0  0
 42114  1  0  0  0
 42115  1  0  0  0
 43 44  1  0  0  0
 44116  1  0  0  0
 45 46  2  0  0  0
 45117  1  0  0  0
 46118  1  0  0  0
 47119  1  0  0  0
 47120  1  0  0  0
 48 56  1  0  0  0
 48 65  1  0  0  0
 48121  1  0  0  0
 49 50  1  0  0  0
 49 53  1  0  0  0
 49 64  1  0  0  0
 49122  1  0  0  0
 50 51  1  0  0  0
 50123  1  0  0  0
 50124  1  0  0  0
 51 52  1  0  0  0
 51125  1  0  0  0
 51126  1  0  0  0
 52127  1  0  0  0
 52128  1  0  0  0
 53 54  1  0  0  0
 54 55  2  0  0  0
 54129  1  0  0  0
 55 57  1  0  0  0
 55130  1  0  0  0
 56 69  2  0  0  0
 57 58  2  0  0  0
 57131  1  0  0  0
 58132  1  0  0  0
 59 60  1  0  0  0
 59 61  1  0  0  0
 59 62  1  0  0  0
 60133  1  0  0  0
 60134  1  0  0  0
 60135  1  0  0  0
 61136  1  0  0  0
 61137  1  0  0  0
 61138  1  0  0  0
 62139  1  0  0  0
 62140  1  0  0  0
 62141  1  0  0  0
 63 65  1  0  0  0
 63142  1  0  0  0
 63143  1  0  0  0
 63144  1  0  0  0
 64145  1  0  0  0
 65146  1  0  0  0
 68 83  1  0  0  0
 71 73  2  0  0  0
 71 74  1  0  0  0
 71147  1  0  0  0
 72 74  2  0  0  0
 72 75  1  0  0  0
 72148  1  0  0  0
 73 76  1  0  0  0
 73 81  1  0  0  0
 74 84  1  0  0  0
 75 76  2  0  0  0
 75 85  1  0  0  0
 76 86  1  0  0  0
 77 78  1  0  0  0
 77 84  1  0  0  0
 77 87  2  0  0  0
 78 80  1  0  0  0
 78149  1  0  0  0
 78150  1  0  0  0
 79 80  1  0  0  0
 79 84  1  0  0  0
 79151  1  0  0  0
 79152  1  0  0  0
 80 83  1  0  0  0
 80153  1  0  0  0
 81154  1  0  0  0
 81155  1  0  0  0
 81156  1  0  0  0
 82 86  1  0  0  0
 82157  1  0  0  0
 82158  1  0  0  0
 82159  1  0  0  0
 83160  1  0  0  0
 83161  1  0  0  0
 85162  1  0  0  0
 85163  1  0  0  0
M  ISO  4   1 100  68 101  83 101  86 100
M  END
> <chiral flag>
0

> <version>
0

> <s_m_source_file>
/data/baiqing/PycharmProjects/Reinvent-master-3.2/result/LINK_invent/BTK/process_docking_weight1_custom_product_contain_oxygen_bond_distance_aromatic_linkinvent_7_9_3/rearranged_h_0094.sdf

> <i_m_source_file_index>
44

> <r_mmod_Potential_Energy-OPLS-2005>
507.944519042969

> <r_mmod_Stretch_Energy-OPLS-2005>
121.293014526367

> <r_mmod_Bend_Energy-OPLS-2005>
289.191650390625

> <r_mmod_Torsional_Energy-OPLS-2005>
382.996429443359

> <r_mmod_Improper_Torsional_Energy-OPLS-2005>
42.8878364562988

> <r_mmod_Van_der_Waal_Energy-OPLS-2005>
147.458435058594

> <r_mmod_Electrostatic_Energy-OPLS-2005>
-378.750122070312

> <r_mmod_Solvation_Energy-OPLS-2005>
-205.947998046875

> <b_mmod_Minimization_Converged-OPLS-2005>
0

> <r_mmod_RMS_Derivative-OPLS-2005>
7.86720037460327

$$$$
44
                    3D
 Structure written by MMmdl.
159167  0  0  1  0            999 V2000
  -30.6984  -14.4972   20.4709 C   0  0  0  0  0  0
  -30.4158  -12.2880   19.4509 C   0  0  0  0  0  0
  -29.4997  -12.4745   18.2222 C   0  0  0  0  0  0
  -28.0158  -12.3610   18.6256 C   0  0  0  0  0  0
  -27.6575  -13.2089   19.8771 C   0  0  2  0  0  0
  -28.7043  -13.0383   21.0039 C   0  0  0  0  0  0
  -25.2572  -13.8166   20.5724 C   0  0  0  0  0  0
  -24.1827  -13.0431   20.9213 C   0  0  0  0  0  0
  -24.6383  -11.6898   20.8757 C   0  0  0  0  0  0
  -23.9050  -10.4281   21.0415 C   0  0  0  0  0  0
  -24.3597   -9.4187   21.9187 C   0  0  0  0  0  0
  -23.6285   -8.2223   22.0749 C   0  0  0  0  0  0
  -22.4269   -8.0266   21.3533 C   0  0  0  0  0  0
  -21.9905   -9.0244   20.4646 C   0  0  0  0  0  0
  -22.7232  -10.2124   20.3061 C   0  0  0  0  0  0
  -21.6843   -6.0725   22.5268 C   0  0  0  0  0  0
  -21.4005   -6.5634   23.8198 C   0  0  0  0  0  0
  -21.3663   -5.6789   24.9163 C   0  0  0  0  0  0
  -21.6051   -4.3050   24.7220 C   0  0  0  0  0  0
  -21.8817   -3.8134   23.4340 C   0  0  0  0  0  0
  -21.9193   -4.6951   22.3396 C   0  0  0  0  0  0
  -22.7845  -13.5217   21.1880 C   0  0  0  0  0  0
  -22.1658   -4.2135   21.0976 F   0  0  0  0  0  0
  -21.5648   -3.4537   25.7731 F   0  0  0  0  0  0
  -30.0353  -13.3094   20.4382 N   0  0  0  0  0  0
  -26.3011  -12.9329   20.3412 N   0  0  0  0  0  0
  -25.9309  -11.6490   20.5794 N   0  0  0  0  0  0
  -22.0492  -12.8197   22.0435 N   0  0  0  0  0  0
  -25.4304  -15.1889   20.4132 N   0  0  0  0  0  0
  -31.8784  -14.6105   20.1346 O   0  0  0  0  0  0
  -21.6633   -6.8866   21.4231 O   0  0  0  0  0  0
  -22.3521  -14.5513   20.6723 O   0  0  0  0  0  0
  -24.6142  -31.8689   23.2107 C   0  0  0  0  0  0
  -25.9031  -32.4824   23.8408 C   0  0  1  0  0  0
  -27.2347  -27.4406   20.1026 C   0  0  0  0  0  0
  -25.5893  -33.8615   24.2351 N   0  0  0  0  0  0
  -23.4021  -30.4927   21.5516 C   0  0  2  0  0  0
  -24.8489  -28.9608   20.1152 C   0  0  0  0  0  0
  -22.7404  -29.4669   22.4999 C   0  0  0  0  0  0
  -18.0268  -28.1375   22.8484 C   0  0  0  0  0  0
  -24.1487  -36.7313   23.2646 C   0  0  0  0  0  0
  -25.9298  -30.8393   21.3614 C   0  0  0  0  0  0
  -26.0096  -29.4746   20.7080 C   0  0  0  0  0  0
  -27.2080  -28.7245   20.6933 C   0  0  0  0  0  0
  -26.0593  -26.9455   19.4947 C   0  0  0  0  0  0
  -24.8689  -27.6961   19.5032 C   0  0  0  0  0  0
  -23.6086  -29.8240   20.1665 C   0  0  0  0  0  0
  -25.4102  -36.3112   24.0356 C   0  0  1  0  0  0
  -20.5855  -28.3663   23.1314 C   0  0  2  0  0  0
  -20.6751  -26.9402   22.5413 C   0  0  0  0  0  0
  -19.5743  -26.6383   21.5200 C   0  0  0  0  0  0
  -18.1915  -26.7924   22.1603 C   0  0  0  0  0  0
  -19.1511  -28.8836   23.2894 C   0  0  0  0  0  0
  -18.9441  -30.1439   23.8902 C   0  0  0  0  0  0
  -17.6450  -30.6581   24.0556 C   0  0  0  0  0  0
  -25.9026  -34.9475   23.5157 C   0  0  0  0  0  0
  -16.5339  -29.9083   23.6327 C   0  0  0  0  0  0
  -16.7256  -28.6496   23.0350 C   0  0  0  0  0  0
  -26.4465  -31.6583   25.0719 C   0  0  0  0  0  0
  -25.3748  -31.3660   26.1480 C   0  0  0  0  0  0
  -27.0302  -30.3037   24.6069 C   0  0  0  0  0  0
  -27.6054  -32.4291   25.7466 C   0  0  0  0  0  0
  -27.5588  -37.1807   24.8467 C   0  0  0  0  0  0
  -21.4135  -29.3035   22.3725 N   0  0  0  0  0  0
  -26.4292  -37.3796   23.9424 N   0  0  0  0  0  0
  -24.6671  -31.0810   22.0998 N   0  0  0  0  0  0
  -23.4182  -28.8219   23.3037 O   0  0  0  0  0  0
  -28.3847  -26.6819   20.1256 O   0  0  0  0  0  0
  -26.5582  -34.8925   22.4712 O   0  0  0  0  0  0
  -23.5333  -32.1419   23.7512 O   0  0  0  0  0  0
  -29.5845  -18.6121   21.2071 C   0  0  0  0  0  0
  -29.6681  -19.9899   21.5318 C   0  0  0  0  0  0
  -30.9369  -19.0136   19.2259 C   0  0  0  0  0  0
  -30.2122  -18.1145   20.0420 C   0  0  0  0  0  0
  -30.3914  -20.8818   20.7040 C   0  0  0  0  0  0
  -31.0259  -20.3816   19.5469 C   0  0  0  0  0  0
  -29.4189  -24.4646   20.5599 C   0  0  0  0  0  0
  -28.8234  -16.6367   18.5822 C   0  0  0  0  0  0
  -29.3049  -23.0426   21.1521 C   0  0  0  0  0  0
  -28.1928  -25.3817   20.7177 C   0  0  0  0  0  0
  -30.0309  -16.6800   19.5319 C   0  0  2  0  0  0
  -31.7089  -21.2545   18.6950 N   0  0  0  0  0  0
  -30.5297  -22.2497   20.9925 N   0  0  0  0  0  0
  -29.9049  -15.5876   20.5209 N   0  0  0  0  0  0
  -30.4467  -24.8297   19.9749 O   0  0  0  0  0  0
  -31.4660  -12.3551   19.1585 H   0  0  0  0  0  0
  -30.2896  -11.2917   19.8770 H   0  0  0  0  0  0
  -29.7347  -11.7242   17.4663 H   0  0  0  0  0  0
  -29.6892  -13.4444   17.7583 H   0  0  0  0  0  0
  -27.8100  -11.3082   18.8241 H   0  0  0  0  0  0
  -27.3739  -12.6418   17.7895 H   0  0  0  0  0  0
  -27.6777  -14.2487   19.5587 H   0  0  0  0  0  0
  -28.6739  -12.0239   21.4045 H   0  0  0  0  0  0
  -28.4873  -13.7001   21.8437 H   0  0  0  0  0  0
  -25.2737   -9.5656   22.4770 H   0  0  0  0  0  0
  -23.9990   -7.4603   22.7459 H   0  0  0  0  0  0
  -21.0835   -8.8766   19.8947 H   0  0  0  0  0  0
  -22.3695  -10.9664   19.6173 H   0  0  0  0  0  0
  -21.1973   -7.6139   23.9694 H   0  0  0  0  0  0
  -21.1513   -6.0519   25.9069 H   0  0  0  0  0  0
  -22.0594   -2.7597   23.2836 H   0  0  0  0  0  0
  -22.4087  -11.9824   22.4782 H   0  0  0  0  0  0
  -21.1125  -13.1223   22.2692 H   0  0  0  0  0  0
  -24.6656  -15.8467   20.5177 H   0  0  0  0  0  0
  -26.2825  -15.6226   20.0839 H   0  0  0  0  0  0
  -26.7102  -32.5549   23.1176 H   0  0  0  0  0  0
  -25.0065  -33.9771   25.0513 H   0  0  0  0  0  0
  -22.6906  -31.3089   21.4132 H   0  0  0  0  0  0
  -23.3752  -35.9643   23.3304 H   0  0  0  0  0  0
  -24.3592  -36.8920   22.2062 H   0  0  0  0  0  0
  -23.7221  -37.6516   23.6646 H   0  0  0  0  0  0
  -26.0398  -31.6061   20.5937 H   0  0  0  0  0  0
  -26.8182  -30.8928   21.9785 H   0  0  0  0  0  0
  -28.1043  -29.1170   21.1528 H   0  0  0  0  0  0
  -26.0544  -25.9805   19.0083 H   0  0  0  0  0  0
  -23.9784  -27.2970   19.0367 H   0  0  0  0  0  0
  -23.7110  -30.5969   19.4037 H   0  0  0  0  0  0
  -22.7341  -29.2391   19.8758 H   0  0  0  0  0  0
  -25.1268  -36.1996   25.0850 H   0  0  0  0  0  0
  -20.9940  -28.3227   24.1438 H   0  0  0  0  0  0
  -20.5641  -26.2279   23.3600 H   0  0  0  0  0  0
  -21.6629  -26.7442   22.1224 H   0  0  0  0  0  0
  -19.6912  -25.6296   21.1229 H   0  0  0  0  0  0
  -19.6694  -27.3192   20.6730 H   0  0  0  0  0  0
  -17.4197  -26.6676   21.3993 H   0  0  0  0  0  0
  -18.0318  -26.0053   22.8987 H   0  0  0  0  0  0
  -19.7922  -30.7239   24.2284 H   0  0  0  0  0  0
  -17.5012  -31.6266   24.5153 H   0  0  0  0  0  0
  -15.5341  -30.2988   23.7654 H   0  0  0  0  0  0
  -15.8654  -28.0822   22.7073 H   0  0  0  0  0  0
  -24.5929  -30.6999   25.7816 H   0  0  0  0  0  0
  -24.8930  -32.2800   26.4961 H   0  0  0  0  0  0
  -25.8123  -30.8808   27.0216 H   0  0  0  0  0  0
  -26.2837  -29.6779   24.1167 H   0  0  0  0  0  0
  -27.4142  -29.7279   25.4501 H   0  0  0  0  0  0
  -27.8640  -30.4370   23.9170 H   0  0  0  0  0  0
  -27.2693  -33.3584   26.2076 H   0  0  0  0  0  0
  -28.3837  -32.6857   25.0267 H   0  0  0  0  0  0
  -28.0757  -31.8395   26.5346 H   0  0  0  0  0  0
  -28.2601  -38.0110   24.7526 H   0  0  0  0  0  0
  -28.1082  -36.2643   24.6264 H   0  0  0  0  0  0
  -27.2318  -37.1429   25.8872 H   0  0  0  0  0  0
  -20.9301  -29.8750   21.6938 H   0  0  0  0  0  0
  -26.0191  -38.2885   24.1404 H   0  0  0  0  0  0
  -29.0099  -17.9485   21.8397 H   0  0  0  0  0  0
  -29.1765  -20.3563   22.4211 H   0  0  0  0  0  0
  -31.3939  -18.6507   18.3160 H   0  0  0  0  0  0
  -28.9250  -17.3772   17.7883 H   0  0  0  0  0  0
  -27.8914  -16.8461   19.1072 H   0  0  0  0  0  0
  -28.7298  -15.6662   18.0953 H   0  0  0  0  0  0
  -28.4586  -22.5421   20.6808 H   0  0  0  0  0  0
  -29.0720  -23.1330   22.2133 H   0  0  0  0  0  0
  -27.9837  -25.5031   21.7814 H   0  0  0  0  0  0
  -27.3416  -24.8594   20.2835 H   0  0  0  0  0  0
  -30.9030  -16.4835   18.9038 H   0  0  0  0  0  0
  -31.9387  -20.8928   17.7760 H   0  0  0  0  0  0
  -31.3231  -22.1887   18.6265 H   0  0  0  0  0  0
  -31.1923  -22.6980   20.3645 H   0  0  0  0  0  0
  -28.9778  -15.4301   20.8825 H   0  0  0  0  0  0
  1 25  1  0  0  0
  1 30  2  0  0  0
  1 84  1  0  0  0
  2  3  1  0  0  0
  2 25  1  0  0  0
  2 86  1  0  0  0
  2 87  1  0  0  0
  3  4  1  0  0  0
  3 88  1  0  0  0
  3 89  1  0  0  0
  4  5  1  0  0  0
  4 90  1  0  0  0
  4 91  1  0  0  0
  5  6  1  0  0  0
  5 26  1  0  0  0
  5 92  1  0  0  0
  6 25  1  0  0  0
  6 93  1  0  0  0
  6 94  1  0  0  0
  7  8  2  0  0  0
  7 26  1  0  0  0
  7 29  1  0  0  0
  8  9  1  0  0  0
  8 22  1  0  0  0
  9 10  1  0  0  0
  9 27  2  0  0  0
 10 11  2  0  0  0
 10 15  1  0  0  0
 11 12  1  0  0  0
 11 95  1  0  0  0
 12 13  2  0  0  0
 12 96  1  0  0  0
 13 14  1  0  0  0
 13 31  1  0  0  0
 14 15  2  0  0  0
 14 97  1  0  0  0
 15 98  1  0  0  0
 16 17  2  0  0  0
 16 21  1  0  0  0
 16 31  1  0  0  0
 17 18  1  0  0  0
 17 99  1  0  0  0
 18 19  2  0  0  0
 18100  1  0  0  0
 19 20  1  0  0  0
 19 24  1  0  0  0
 20 21  2  0  0  0
 20101  1  0  0  0
 21 23  1  0  0  0
 22 28  1  0  0  0
 22 32  2  0  0  0
 26 27  1  0  0  0
 28102  1  0  0  0
 28103  1  0  0  0
 29104  1  0  0  0
 29105  1  0  0  0
 33 34  1  0  0  0
 33 66  1  0  0  0
 33 70  2  0  0  0
 34 36  1  0  0  0
 34 59  1  0  0  0
 34106  1  0  0  0
 35 44  2  0  0  0
 35 45  1  0  0  0
 35 68  1  0  0  0
 36 56  1  0  0  0
 36107  1  0  0  0
 37 39  1  0  0  0
 37 47  1  0  0  0
 37 66  1  0  0  0
 37108  1  0  0  0
 38 43  2  0  0  0
 38 46  1  0  0  0
 38 47  1  0  0  0
 39 64  1  0  0  0
 39 67  2  0  0  0
 40 52  1  0  0  0
 40 53  2  0  0  0
 40 58  1  0  0  0
 41109  1  0  0  0
 41110  1  0  0  0
 41111  1  0  0  0
 41 48  1  0  0  0
 42 43  1  0  0  0
 42 66  1  0  0  0
 42112  1  0  0  0
 42113  1  0  0  0
 43 44  1  0  0  0
 44114  1  0  0  0
 45 46  2  0  0  0
 45115  1  0  0  0
 46116  1  0  0  0
 47117  1  0  0  0
 47118  1  0  0  0
 48 56  1  0  0  0
 48 65  1  0  0  0
 48119  1  0  0  0
 49 50  1  0  0  0
 49 53  1  0  0  0
 49 64  1  0  0  0
 49120  1  0  0  0
 50 51  1  0  0  0
 50121  1  0  0  0
 50122  1  0  0  0
 51 52  1  0  0  0
 51123  1  0  0  0
 51124  1  0  0  0
 52125  1  0  0  0
 52126  1  0  0  0
 53 54  1  0  0  0
 54 55  2  0  0  0
 54127  1  0  0  0
 55 57  1  0  0  0
 55128  1  0  0  0
 56 69  2  0  0  0
 57 58  2  0  0  0
 57129  1  0  0  0
 58130  1  0  0  0
 59 60  1  0  0  0
 59 61  1  0  0  0
 59 62  1  0  0  0
 60131  1  0  0  0
 60132  1  0  0  0
 60133  1  0  0  0
 61134  1  0  0  0
 61135  1  0  0  0
 61136  1  0  0  0
 62137  1  0  0  0
 62138  1  0  0  0
 62139  1  0  0  0
 63 65  1  0  0  0
 63140  1  0  0  0
 63141  1  0  0  0
 63142  1  0  0  0
 64143  1  0  0  0
 65144  1  0  0  0
 68 80  1  0  0  0
 71 72  2  0  0  0
 71 74  1  0  0  0
 71145  1  0  0  0
 72 75  1  0  0  0
 72146  1  0  0  0
 73 74  2  0  0  0
 73 76  1  0  0  0
 73147  1  0  0  0
 74 81  1  0  0  0
 75 76  2  0  0  0
 75 83  1  0  0  0
 76 82  1  0  0  0
 77 79  1  0  0  0
 77 80  1  0  0  0
 77 85  2  0  0  0
 78148  1  0  0  0
 78149  1  0  0  0
 78150  1  0  0  0
 78 81  1  0  0  0
 79 83  1  0  0  0
 79151  1  0  0  0
 79152  1  0  0  0
 80153  1  0  0  0
 80154  1  0  0  0
 81 84  1  0  0  0
 81155  1  0  0  0
 82156  1  0  0  0
 82157  1  0  0  0
 83158  1  0  0  0
 84159  1  0  0  0
M  ISO  4   1 100  68 101  80 101  84 100
M  END
> <chiral flag>
0

> <version>
0

> <s_m_source_file>
/data/baiqing/PycharmProjects/Reinvent-master-3.2/result/LINK_invent/BTK/process_docking_weight1_custom_product_contain_oxygen_bond_distance_aromatic_linkinvent_7_9_3/rearranged_h_0094.sdf

> <i_m_source_file_index>
45

> <r_mmod_Potential_Energy-OPLS-2005>
-142.992965698242

> <r_mmod_Stretch_Energy-OPLS-2005>
37.6153945922852

> <r_mmod_Bend_Energy-OPLS-2005>
97.2183380126953

> <r_mmod_Torsional_Energy-OPLS-2005>
252.4375

> <r_mmod_Improper_Torsional_Energy-OPLS-2005>
22.3579711914062

> <r_mmod_Van_der_Waal_Energy-OPLS-2005>
152.447937011719

> <r_mmod_Electrostatic_Energy-OPLS-2005>
-472.176483154297

> <r_mmod_Solvation_Energy-OPLS-2005>
-252.069183349609

> <b_mmod_Minimization_Converged-OPLS-2005>
0

> <r_mmod_RMS_Derivative-OPLS-2005>
1.82397150993347

$$$$
45
                    3D
 Structure written by MMmdl.
161170  0  0  1  0            999 V2000
  -30.7062  -14.7025   20.3527 C   0  0  0  0  0  0
  -30.4209  -12.3984   19.4487 C   0  0  0  0  0  0
  -29.4721  -12.3259   18.2256 C   0  0  0  0  0  0
  -27.9978  -12.2682   18.6540 C   0  0  0  0  0  0
  -27.6364  -13.2326   19.8184 C   0  0  2  0  0  0
  -28.7033  -13.2354   20.9312 C   0  0  0  0  0  0
  -25.2514  -13.8246   20.5730 C   0  0  0  0  0  0
  -24.1795  -13.0490   20.9234 C   0  0  0  0  0  0
  -24.6392  -11.6968   20.8806 C   0  0  0  0  0  0
  -23.9094  -10.4302   21.0438 C   0  0  0  0  0  0
  -24.3666   -9.4211   21.9198 C   0  0  0  0  0  0
  -23.6338   -8.2250   22.0734 C   0  0  0  0  0  0
  -22.4304   -8.0322   21.3552 C   0  0  0  0  0  0
  -21.9946   -9.0301   20.4648 C   0  0  0  0  0  0
  -22.7278  -10.2173   20.3074 C   0  0  0  0  0  0
  -21.6868   -6.0750   22.5276 C   0  0  0  0  0  0
  -21.4028   -6.5656   23.8208 C   0  0  0  0  0  0
  -21.3652   -5.6815   24.9172 C   0  0  0  0  0  0
  -21.6042   -4.3086   24.7233 C   0  0  0  0  0  0
  -21.8819   -3.8169   23.4350 C   0  0  0  0  0  0
  -21.9173   -4.6979   22.3400 C   0  0  0  0  0  0
  -22.7817  -13.5259   21.1884 C   0  0  0  0  0  0
  -22.1664   -4.2161   21.0986 F   0  0  0  0  0  0
  -21.5610   -3.4567   25.7746 F   0  0  0  0  0  0
  -29.9942  -13.5273   20.2976 N   0  0  0  0  0  0
  -26.2954  -12.9481   20.3296 N   0  0  0  0  0  0
  -25.9330  -11.6621   20.5862 N   0  0  0  0  0  0
  -22.0467  -12.8221   22.0430 N   0  0  0  0  0  0
  -25.4263  -15.1957   20.4136 N   0  0  0  0  0  0
  -31.9343  -14.6721   20.3904 O   0  0  0  0  0  0
  -21.6657   -6.8918   21.4255 O   0  0  0  0  0  0
  -22.3493  -14.5559   20.6715 O   0  0  0  0  0  0
  -24.6260  -31.8633   23.2067 C   0  0  0  0  0  0
  -25.9124  -32.4778   23.8371 C   0  0  1  0  0  0
  -27.2216  -27.3223   20.1187 C   0  0  0  0  0  0
  -25.5948  -33.8573   24.2292 N   0  0  0  0  0  0
  -23.4190  -30.4920   21.5488 C   0  0  2  0  0  0
  -24.8674  -28.9606   20.1055 C   0  0  0  0  0  0
  -22.7464  -29.4634   22.4902 C   0  0  0  0  0  0
  -18.0292  -28.1382   22.8476 C   0  0  0  0  0  0
  -24.1504  -36.7296   23.2632 C   0  0  0  0  0  0
  -25.9642  -30.7915   21.3876 C   0  0  0  0  0  0
  -26.0369  -29.4239   20.7219 C   0  0  0  0  0  0
  -27.2148  -28.6173   20.7242 C   0  0  0  0  0  0
  -26.0300  -26.9307   19.4549 C   0  0  0  0  0  0
  -24.8684  -27.7182   19.4624 C   0  0  0  0  0  0
  -23.6359  -29.8387   20.1592 C   0  0  0  0  0  0
  -25.4120  -36.3076   24.0324 C   0  0  1  0  0  0
  -20.5893  -28.3686   23.1270 C   0  0  2  0  0  0
  -20.6795  -26.9402   22.5417 C   0  0  0  0  0  0
  -19.5771  -26.6371   21.5228 C   0  0  0  0  0  0
  -18.1941  -26.7929   22.1619 C   0  0  0  0  0  0
  -19.1542  -28.8848   23.2878 C   0  0  0  0  0  0
  -18.9459  -30.1457   23.8884 C   0  0  0  0  0  0
  -17.6461  -30.6583   24.0565 C   0  0  0  0  0  0
  -25.9054  -34.9444   23.5095 C   0  0  0  0  0  0
  -16.5354  -29.9072   23.6341 C   0  0  0  0  0  0
  -16.7283  -28.6502   23.0336 C   0  0  0  0  0  0
  -26.4494  -31.6583   25.0751 C   0  0  0  0  0  0
  -25.3712  -31.3764   26.1476 C   0  0  0  0  0  0
  -27.0319  -30.2980   24.6256 C   0  0  0  0  0  0
  -27.6053  -32.4318   25.7516 C   0  0  0  0  0  0
  -27.5582  -37.1800   24.8439 C   0  0  0  0  0  0
  -21.4167  -29.3048   22.3643 N   0  0  0  0  0  0
  -26.4295  -37.3772   23.9394 N   0  0  0  0  0  0
  -24.6876  -31.0645   22.1044 N   0  0  0  0  0  0
  -23.4194  -28.8156   23.2962 O   0  0  0  0  0  0
  -28.3119  -26.4320   20.2101 O   0  0  0  0  0  0
  -26.5593  -34.8911   22.4651 O   0  0  0  0  0  0
  -23.5424  -32.1414   23.7400 O   0  0  0  0  0  0
  -30.0389  -19.6161   19.2237 C   0  0  0  0  0  0
  -30.1462  -18.2209   19.0070 C   0  0  0  0  0  0
  -29.5737  -19.1789   21.5263 C   0  0  0  0  0  0
  -30.1075  -23.7850   21.1575 C   0  0  0  0  0  0
  -29.6978  -17.7514   21.3223 C   0  0  0  0  0  0
  -28.8965  -23.8017   20.4003 C   0  0  0  0  0  0
  -29.7510  -20.1467   20.4929 C   0  0  0  0  0  0
  -30.0218  -17.2130   20.0243 C   0  0  0  0  0  0
  -30.5150  -22.4736   21.2975 C   0  0  0  0  0  0
  -28.6589  -22.4553   20.1325 C   0  0  0  0  0  0
  -28.5979  -17.1472   23.5050 C   0  0  0  0  0  0
  -29.4008  -16.8607   22.4650 C   0  0  0  0  0  0
  -30.5332  -15.5891   18.2095 C   0  0  0  0  0  0
  -27.9887  -25.0029   19.9695 C   0  0  0  0  0  0
  -29.6426  -21.5998   20.6545 N   0  0  0  0  0  0
  -30.1733  -15.7698   19.6377 N   0  0  0  0  0  0
  -31.6159  -22.0001   21.9440 O   0  0  0  0  0  0
  -27.6129  -21.9009   19.4603 O   0  0  0  0  0  0
  -31.4546  -12.5154   19.1169 H   0  0  0  0  0  0
  -30.3862  -11.4663   20.0157 H   0  0  0  0  0  0
  -29.7096  -11.4294   17.6499 H   0  0  0  0  0  0
  -29.5833  -13.1414   17.5233 H   0  0  0  0  0  0
  -27.8005  -11.2358   18.9497 H   0  0  0  0  0  0
  -27.3486  -12.4638   17.7993 H   0  0  0  0  0  0
  -27.6208  -14.2328   19.3849 H   0  0  0  0  0  0
  -28.7325  -12.2726   21.4461 H   0  0  0  0  0  0
  -28.4736  -13.9964   21.6803 H   0  0  0  0  0  0
  -25.2797   -9.5707   22.4750 H   0  0  0  0  0  0
  -24.0058   -7.4637   22.7439 H   0  0  0  0  0  0
  -21.0867   -8.8872   19.8957 H   0  0  0  0  0  0
  -22.3772  -10.9739   19.6206 H   0  0  0  0  0  0
  -21.2070   -7.6170   23.9748 H   0  0  0  0  0  0
  -21.1470   -6.0525   25.9071 H   0  0  0  0  0  0
  -22.0592   -2.7630   23.2837 H   0  0  0  0  0  0
  -22.4110  -11.9897   22.4801 H   0  0  0  0  0  0
  -21.1078  -13.1246   22.2620 H   0  0  0  0  0  0
  -24.6759  -15.8671   20.5354 H   0  0  0  0  0  0
  -26.3014  -15.6258   20.1426 H   0  0  0  0  0  0
  -26.7171  -32.5446   23.1090 H   0  0  0  0  0  0
  -25.0135  -33.9738   25.0464 H   0  0  0  0  0  0
  -22.7115  -31.3130   21.4112 H   0  0  0  0  0  0
  -23.3767  -35.9623   23.3280 H   0  0  0  0  0  0
  -24.3607  -36.8931   22.2044 H   0  0  0  0  0  0
  -23.7251  -37.6493   23.6671 H   0  0  0  0  0  0
  -26.1124  -31.5627   20.6292 H   0  0  0  0  0  0
  -26.8367  -30.8220   22.0288 H   0  0  0  0  0  0
  -28.1010  -28.9679   21.2333 H   0  0  0  0  0  0
  -25.9474  -25.9927   18.9278 H   0  0  0  0  0  0
  -23.9792  -27.3604   18.9635 H   0  0  0  0  0  0
  -23.7552  -30.6248   19.4120 H   0  0  0  0  0  0
  -22.7560  -29.2702   19.8505 H   0  0  0  0  0  0
  -25.1303  -36.1920   25.0811 H   0  0  0  0  0  0
  -21.0006  -28.3298   24.1386 H   0  0  0  0  0  0
  -20.5728  -26.2289   23.3622 H   0  0  0  0  0  0
  -21.6660  -26.7458   22.1197 H   0  0  0  0  0  0
  -19.6941  -25.6275   21.1275 H   0  0  0  0  0  0
  -19.6743  -27.3173   20.6753 H   0  0  0  0  0  0
  -17.4230  -26.6675   21.4008 H   0  0  0  0  0  0
  -18.0334  -26.0082   22.9019 H   0  0  0  0  0  0
  -19.7932  -30.7283   24.2243 H   0  0  0  0  0  0
  -17.5010  -31.6269   24.5151 H   0  0  0  0  0  0
  -15.5342  -30.2960   23.7687 H   0  0  0  0  0  0
  -15.8685  -28.0836   22.7029 H   0  0  0  0  0  0
  -24.5859  -30.7151   25.7812 H   0  0  0  0  0  0
  -24.8962  -32.2956   26.4894 H   0  0  0  0  0  0
  -25.8015  -30.8928   27.0244 H   0  0  0  0  0  0
  -26.2907  -29.6737   24.1258 H   0  0  0  0  0  0
  -27.3924  -29.7242   25.4796 H   0  0  0  0  0  0
  -27.8824  -30.4214   23.9555 H   0  0  0  0  0  0
  -27.2657  -33.3609   26.2090 H   0  0  0  0  0  0
  -28.3854  -32.6867   25.0343 H   0  0  0  0  0  0
  -28.0719  -31.8448   26.5424 H   0  0  0  0  0  0
  -28.2571  -38.0127   24.7505 H   0  0  0  0  0  0
  -28.1107  -36.2645   24.6240 H   0  0  0  0  0  0
  -27.2304  -37.1425   25.8847 H   0  0  0  0  0  0
  -20.9331  -29.8757   21.6849 H   0  0  0  0  0  0
  -26.0172  -38.2842   24.1417 H   0  0  0  0  0  0
  -30.1739  -20.2851   18.3871 H   0  0  0  0  0  0
  -30.3332  -17.9818   17.9743 H   0  0  0  0  0  0
  -29.3389  -19.5536   22.5113 H   0  0  0  0  0  0
  -30.6127  -24.6584   21.5547 H   0  0  0  0  0  0
  -28.4588  -16.4314   24.3026 H   0  0  0  0  0  0
  -28.0639  -18.0843   23.5884 H   0  0  0  0  0  0
  -29.8868  -15.9000   22.4936 H   0  0  0  0  0  0
  -31.3777  -16.2185   17.9263 H   0  0  0  0  0  0
  -29.6831  -15.8073   17.5614 H   0  0  0  0  0  0
  -30.9193  -14.6110   17.9380 H   0  0  0  0  0  0
  -27.0430  -24.7784   20.4630 H   0  0  0  0  0  0
  -27.8358  -24.8741   18.8986 H   0  0  0  0  0  0
  -32.0756  -22.7476   22.3130 H   0  0  0  0  0  0
  -26.8864  -22.5153   19.4877 H   0  0  0  0  0  0
  1 25  1  0  0  0
  1 30  2  0  0  0
  1 86  1  0  0  0
  2  3  1  0  0  0
  2 25  1  0  0  0
  2 89  1  0  0  0
  2 90  1  0  0  0
  3  4  1  0  0  0
  3 91  1  0  0  0
  3 92  1  0  0  0
  4  5  1  0  0  0
  4 93  1  0  0  0
  4 94  1  0  0  0
  5  6  1  0  0  0
  5 26  1  0  0  0
  5 95  1  0  0  0
  6 25  1  0  0  0
  6 96  1  0  0  0
  6 97  1  0  0  0
  7  8  2  0  0  0
  7 26  1  0  0  0
  7 29  1  0  0  0
  8  9  1  0  0  0
  8 22  1  0  0  0
  9 10  1  0  0  0
  9 27  2  0  0  0
 10 11  2  0  0  0
 10 15  1  0  0  0
 11 12  1  0  0  0
 11 98  1  0  0  0
 12 13  2  0  0  0
 12 99  1  0  0  0
 13 14  1  0  0  0
 13 31  1  0  0  0
 14 15  2  0  0  0
 14100  1  0  0  0
 15101  1  0  0  0
 16 17  2  0  0  0
 16 21  1  0  0  0
 16 31  1  0  0  0
 17 18  1  0  0  0
 17102  1  0  0  0
 18 19  2  0  0  0
 18103  1  0  0  0
 19 20  1  0  0  0
 19 24  1  0  0  0
 20 21  2  0  0  0
 20104  1  0  0  0
 21 23  1  0  0  0
 22 28  1  0  0  0
 22 32  2  0  0  0
 26 27  1  0  0  0
 28105  1  0  0  0
 28106  1  0  0  0
 29107  1  0  0  0
 29108  1  0  0  0
 33 34  1  0  0  0
 33 66  1  0  0  0
 33 70  2  0  0  0
 34 36  1  0  0  0
 34 59  1  0  0  0
 34109  1  0  0  0
 35 44  2  0  0  0
 35 45  1  0  0  0
 35 68  1  0  0  0
 36 56  1  0  0  0
 36110  1  0  0  0
 37 39  1  0  0  0
 37 47  1  0  0  0
 37 66  1  0  0  0
 37111  1  0  0  0
 38 43  2  0  0  0
 38 46  1  0  0  0
 38 47  1  0  0  0
 39 64  1  0  0  0
 39 67  2  0  0  0
 40 52  1  0  0  0
 40 53  2  0  0  0
 40 58  1  0  0  0
 41112  1  0  0  0
 41113  1  0  0  0
 41114  1  0  0  0
 41 48  1  0  0  0
 42 43  1  0  0  0
 42 66  1  0  0  0
 42115  1  0  0  0
 42116  1  0  0  0
 43 44  1  0  0  0
 44117  1  0  0  0
 45 46  2  0  0  0
 45118  1  0  0  0
 46119  1  0  0  0
 47120  1  0  0  0
 47121  1  0  0  0
 48 56  1  0  0  0
 48 65  1  0  0  0
 48122  1  0  0  0
 49 50  1  0  0  0
 49 53  1  0  0  0
 49 64  1  0  0  0
 49123  1  0  0  0
 50 51  1  0  0  0
 50124  1  0  0  0
 50125  1  0  0  0
 51 52  1  0  0  0
 51126  1  0  0  0
 51127  1  0  0  0
 52128  1  0  0  0
 52129  1  0  0  0
 53 54  1  0  0  0
 54 55  2  0  0  0
 54130  1  0  0  0
 55 57  1  0  0  0
 55131  1  0  0  0
 56 69  2  0  0  0
 57 58  2  0  0  0
 57132  1  0  0  0
 58133  1  0  0  0
 59 60  1  0  0  0
 59 61  1  0  0  0
 59 62  1  0  0  0
 60134  1  0  0  0
 60135  1  0  0  0
 60136  1  0  0  0
 61137  1  0  0  0
 61138  1  0  0  0
 61139  1  0  0  0
 62140  1  0  0  0
 62141  1  0  0  0
 62142  1  0  0  0
 63 65  1  0  0  0
 63143  1  0  0  0
 63144  1  0  0  0
 63145  1  0  0  0
 64146  1  0  0  0
 65147  1  0  0  0
 68 84  1  0  0  0
 71 72  2  0  0  0
 71 77  1  0  0  0
 71148  1  0  0  0
 72 78  1  0  0  0
 72149  1  0  0  0
 73 75  1  0  0  0
 73 77  2  0  0  0
 73150  1  0  0  0
 74 76  1  0  0  0
 74 79  2  0  0  0
 74151  1  0  0  0
 75 78  2  0  0  0
 75 82  1  0  0  0
 76 80  2  0  0  0
 76 84  1  0  0  0
 77 85  1  0  0  0
 78 86  1  0  0  0
 79 85  1  0  0  0
 79 87  1  0  0  0
 80 85  1  0  0  0
 80 88  1  0  0  0
 81 82  2  0  0  0
 81152  1  0  0  0
 81153  1  0  0  0
 82154  1  0  0  0
 83 86  1  0  0  0
 83155  1  0  0  0
 83156  1  0  0  0
 83157  1  0  0  0
 84158  1  0  0  0
 84159  1  0  0  0
 87160  1  0  0  0
 88161  1  0  0  0
M  ISO  4   1 100  68 101  84 101  86 100
M  END
> <chiral flag>
0

> <version>
0

> <s_m_source_file>
/data/baiqing/PycharmProjects/Reinvent-master-3.2/result/LINK_invent/BTK/process_docking_weight1_custom_product_contain_oxygen_bond_distance_aromatic_linkinvent_7_9_3/rearranged_h_0094.sdf

> <i_m_source_file_index>
46

> <r_mmod_Potential_Energy-OPLS-2005>
405.003295898438

> <r_mmod_Stretch_Energy-OPLS-2005>
97.1337966918945

> <r_mmod_Bend_Energy-OPLS-2005>
179.399353027344

> <r_mmod_Torsional_Energy-OPLS-2005>
327.425201416016

> <r_mmod_Improper_Torsional_Energy-OPLS-2005>
31.7354011535645

> <r_mmod_Van_der_Waal_Energy-OPLS-2005>
173.062149047852

> <r_mmod_Electrostatic_Energy-OPLS-2005>
-278.612060546875

> <r_mmod_Solvation_Energy-OPLS-2005>
-221.031539916992

> <b_mmod_Minimization_Converged-OPLS-2005>
0

> <r_mmod_RMS_Derivative-OPLS-2005>
5.13865852355957

$$$$
46
                    3D
 Structure written by MMmdl.
156165  0  0  1  0            999 V2000
  -30.5908  -14.7704   20.4270 C   0  0  0  0  0  0
  -30.4175  -12.4553   19.4773 C   0  0  0  0  0  0
  -29.5071  -12.5068   18.2324 C   0  0  0  0  0  0
  -28.0313  -12.3288   18.6454 C   0  0  0  0  0  0
  -27.6317  -13.2368   19.8399 C   0  0  2  0  0  0
  -28.6733  -13.1969   20.9771 C   0  0  0  0  0  0
  -25.2485  -13.8185   20.5733 C   0  0  0  0  0  0
  -24.1769  -13.0419   20.9217 C   0  0  0  0  0  0
  -24.6366  -11.6920   20.8714 C   0  0  0  0  0  0
  -23.9063  -10.4287   21.0395 C   0  0  0  0  0  0
  -24.3616   -9.4205   21.9171 C   0  0  0  0  0  0
  -23.6281   -8.2246   22.0742 C   0  0  0  0  0  0
  -22.4264   -8.0280   21.3546 C   0  0  0  0  0  0
  -21.9908   -9.0252   20.4658 C   0  0  0  0  0  0
  -22.7232  -10.2129   20.3058 C   0  0  0  0  0  0
  -21.6845   -6.0736   22.5289 C   0  0  0  0  0  0
  -21.3999   -6.5647   23.8222 C   0  0  0  0  0  0
  -21.3659   -5.6797   24.9181 C   0  0  0  0  0  0
  -21.6033   -4.3060   24.7217 C   0  0  0  0  0  0
  -21.8823   -3.8155   23.4347 C   0  0  0  0  0  0
  -21.9194   -4.6965   22.3404 C   0  0  0  0  0  0
  -22.7808  -13.5211   21.1911 C   0  0  0  0  0  0
  -22.1667   -4.2156   21.0974 F   0  0  0  0  0  0
  -21.5632   -3.4546   25.7739 F   0  0  0  0  0  0
  -29.9698  -13.5394   20.3858 N   0  0  0  0  0  0
  -26.2892  -12.9411   20.3245 N   0  0  0  0  0  0
  -25.9290  -11.6553   20.5701 N   0  0  0  0  0  0
  -22.0478  -12.8165   22.0472 N   0  0  0  0  0  0
  -25.4171  -15.1894   20.4247 N   0  0  0  0  0  0
  -31.7896  -14.8324   20.1447 O   0  0  0  0  0  0
  -21.6632   -6.8871   21.4254 O   0  0  0  0  0  0
  -22.3484  -14.5526   20.6791 O   0  0  0  0  0  0
  -24.6358  -31.8540   23.1929 C   0  0  0  0  0  0
  -25.9153  -32.4769   23.8306 C   0  0  1  0  0  0
  -27.2226  -27.2318   20.1149 C   0  0  0  0  0  0
  -25.5914  -33.8560   24.2246 N   0  0  0  0  0  0
  -23.4365  -30.4751   21.5344 C   0  0  2  0  0  0
  -24.8851  -28.9106   20.1075 C   0  0  0  0  0  0
  -22.7525  -29.4647   22.4880 C   0  0  0  0  0  0
  -18.0326  -28.1450   22.8446 C   0  0  0  0  0  0
  -24.1497  -36.7306   23.2656 C   0  0  0  0  0  0
  -25.9862  -30.7556   21.3773 C   0  0  0  0  0  0
  -26.0551  -29.3718   20.7223 C   0  0  0  0  0  0
  -27.2211  -28.5395   20.7219 C   0  0  0  0  0  0
  -26.0312  -26.8442   19.4685 C   0  0  0  0  0  0
  -24.8799  -27.6577   19.4719 C   0  0  0  0  0  0
  -23.6591  -29.8026   20.1526 C   0  0  0  0  0  0
  -25.4129  -36.3118   24.0346 C   0  0  1  0  0  0
  -20.5946  -28.3756   23.1291 C   0  0  2  0  0  0
  -20.6839  -26.9460   22.5403 C   0  0  0  0  0  0
  -19.5821  -26.6407   21.5208 C   0  0  0  0  0  0
  -18.1999  -26.7983   22.1619 C   0  0  0  0  0  0
  -19.1581  -28.8907   23.2888 C   0  0  0  0  0  0
  -18.9456  -30.1485   23.8951 C   0  0  0  0  0  0
  -17.6452  -30.6624   24.0570 C   0  0  0  0  0  0
  -25.9057  -34.9465   23.5114 C   0  0  0  0  0  0
  -16.5350  -29.9122   23.6324 C   0  0  0  0  0  0
  -16.7312  -28.6558   23.0300 C   0  0  0  0  0  0
  -26.4486  -31.6607   25.0702 C   0  0  0  0  0  0
  -25.3651  -31.3688   26.1360 C   0  0  0  0  0  0
  -27.0317  -30.3051   24.6161 C   0  0  0  0  0  0
  -27.6133  -32.4265   25.7420 C   0  0  0  0  0  0
  -27.5614  -37.1816   24.8478 C   0  0  0  0  0  0
  -21.4233  -29.3101   22.3622 N   0  0  0  0  0  0
  -26.4320  -37.3801   23.9416 N   0  0  0  0  0  0
  -24.7061  -31.0462   22.0919 N   0  0  0  0  0  0
  -23.4212  -28.8215   23.3014 O   0  0  0  0  0  0
  -28.3185  -26.3380   20.2205 O   0  0  0  0  0  0
  -26.5673  -34.8917   22.4714 O   0  0  0  0  0  0
  -23.5489  -32.1375   23.7188 O   0  0  0  0  0  0
  -31.8319  -19.1592   20.7301 C   0  0  0  0  0  0
  -30.8639  -20.1818   20.6619 C   0  0  0  0  0  0
  -31.4743  -17.7983   20.6968 C   0  0  0  0  0  0
  -29.4853  -19.9007   20.5250 C   0  0  0  0  0  0
  -30.1313  -17.3813   20.5553 C   0  0  0  0  0  0
  -29.1488  -18.4634   20.4537 C   0  0  0  0  0  0
  -28.9018  -22.4320   20.0802 C   0  0  0  0  0  0
  -28.1240  -23.5900   20.1113 C   0  0  0  0  0  0
  -27.3845  -20.9843   21.2666 C   0  0  0  0  0  0
  -26.6936  -23.4583   20.5737 C   0  0  0  0  0  0
  -26.3868  -22.1607   21.3514 C   0  0  0  0  0  0
  -28.4684  -25.0280   19.4808 C   0  0  0  0  0  0
  -28.5396  -21.0853   20.5475 N   0  0  0  0  0  0
  -29.8000  -15.9189   20.5451 N   0  0  0  0  0  0
  -27.0932  -19.9930   21.9429 O   0  0  0  0  0  0
  -27.8615  -18.0856   20.2647 F   0  0  0  0  0  0
  -31.4647  -12.5504   19.1861 H   0  0  0  0  0  0
  -30.3347  -11.4845   19.9698 H   0  0  0  0  0  0
  -29.7861  -11.7347   17.5149 H   0  0  0  0  0  0
  -29.6416  -13.4608   17.7209 H   0  0  0  0  0  0
  -27.8963  -11.2814   18.9208 H   0  0  0  0  0  0
  -27.3699  -12.5036   17.7968 H   0  0  0  0  0  0
  -27.6130  -14.2542   19.4463 H   0  0  0  0  0  0
  -28.7042  -12.2138   21.4451 H   0  0  0  0  0  0
  -28.4020  -13.9045   21.7617 H   0  0  0  0  0  0
  -25.2748   -9.5695   22.4747 H   0  0  0  0  0  0
  -24.0003   -7.4635   22.7453 H   0  0  0  0  0  0
  -21.0835   -8.8771   19.8954 H   0  0  0  0  0  0
  -22.3662  -10.9678   19.6181 H   0  0  0  0  0  0
  -21.1973   -7.6154   23.9715 H   0  0  0  0  0  0
  -21.1480   -6.0533   25.9083 H   0  0  0  0  0  0
  -22.0592   -2.7622   23.2849 H   0  0  0  0  0  0
  -22.4112  -11.9786   22.4758 H   0  0  0  0  0  0
  -21.1140  -13.1237   22.2783 H   0  0  0  0  0  0
  -24.6611  -15.8472   20.5759 H   0  0  0  0  0  0
  -26.2669  -15.6397   20.1103 H   0  0  0  0  0  0
  -26.7244  -32.5410   23.1073 H   0  0  0  0  0  0
  -24.9924  -33.9656   25.0292 H   0  0  0  0  0  0
  -22.7366  -31.2994   21.3728 H   0  0  0  0  0  0
  -23.3771  -35.9625   23.3318 H   0  0  0  0  0  0
  -24.3617  -36.8900   22.2074 H   0  0  0  0  0  0
  -23.7158  -37.6480   23.6640 H   0  0  0  0  0  0
  -26.1255  -31.5091   20.6002 H   0  0  0  0  0  0
  -26.8741  -30.8229   21.9965 H   0  0  0  0  0  0
  -28.1140  -28.8801   21.2290 H   0  0  0  0  0  0
  -25.9512  -25.8829   18.9864 H   0  0  0  0  0  0
  -23.9839  -27.3020   18.9827 H   0  0  0  0  0  0
  -23.7925  -30.5752   19.3943 H   0  0  0  0  0  0
  -22.7808  -29.2337   19.8452 H   0  0  0  0  0  0
  -25.1290  -36.2034   25.0833 H   0  0  0  0  0  0
  -21.0040  -28.3342   24.1420 H   0  0  0  0  0  0
  -20.5771  -26.2338   23.3585 H   0  0  0  0  0  0
  -21.6727  -26.7538   22.1219 H   0  0  0  0  0  0
  -19.6997  -25.6283   21.1287 H   0  0  0  0  0  0
  -19.6753  -27.3179   20.6683 H   0  0  0  0  0  0
  -17.4273  -26.6724   21.4022 H   0  0  0  0  0  0
  -18.0423  -26.0185   22.9089 H   0  0  0  0  0  0
  -19.7900  -30.7313   24.2401 H   0  0  0  0  0  0
  -17.4982  -31.6298   24.5178 H   0  0  0  0  0  0
  -15.5338  -30.3032   23.7658 H   0  0  0  0  0  0
  -15.8715  -28.0881   22.7003 H   0  0  0  0  0  0
  -24.5930  -30.6973   25.7583 H   0  0  0  0  0  0
  -24.8676  -32.2775   26.4758 H   0  0  0  0  0  0
  -25.7899  -30.8853   27.0164 H   0  0  0  0  0  0
  -26.2874  -29.6812   24.1196 H   0  0  0  0  0  0
  -27.4057  -29.7327   25.4658 H   0  0  0  0  0  0
  -27.8745  -30.4403   23.9377 H   0  0  0  0  0  0
  -27.2938  -33.3639   26.1996 H   0  0  0  0  0  0
  -28.3920  -32.6675   25.0165 H   0  0  0  0  0  0
  -28.0839  -31.8326   26.5265 H   0  0  0  0  0  0
  -28.2646  -38.0112   24.7547 H   0  0  0  0  0  0
  -28.1101  -36.2635   24.6294 H   0  0  0  0  0  0
  -27.2357  -37.1462   25.8892 H   0  0  0  0  0  0
  -20.9455  -29.8788   21.6775 H   0  0  0  0  0  0
  -26.0250  -38.2914   24.1335 H   0  0  0  0  0  0
  -32.8767  -19.4201   20.8351 H   0  0  0  0  0  0
  -31.2076  -21.2010   20.7568 H   0  0  0  0  0  0
  -32.2727  -17.0796   20.7969 H   0  0  0  0  0  0
  -29.8857  -22.4630   19.6366 H   0  0  0  0  0  0
  -26.0492  -23.5163   19.6947 H   0  0  0  0  0  0
  -26.4421  -24.3246   21.1876 H   0  0  0  0  0  0
  -26.3313  -22.4210   22.4078 H   0  0  0  0  0  0
  -25.3862  -21.8046   21.0991 H   0  0  0  0  0  0
  -27.9674  -25.0961   18.5145 H   0  0  0  0  0  0
  -29.5292  -24.9798   19.2343 H   0  0  0  0  0  0
  -28.8128  -15.7244   20.6095 H   0  0  0  0  0  0
  1 25  1  0  0  0
  1 30  2  0  0  0
  1 84  1  0  0  0
  2  3  1  0  0  0
  2 25  1  0  0  0
  2 87  1  0  0  0
  2 88  1  0  0  0
  3  4  1  0  0  0
  3 89  1  0  0  0
  3 90  1  0  0  0
  4  5  1  0  0  0
  4 91  1  0  0  0
  4 92  1  0  0  0
  5  6  1  0  0  0
  5 26  1  0  0  0
  5 93  1  0  0  0
  6 25  1  0  0  0
  6 94  1  0  0  0
  6 95  1  0  0  0
  7  8  2  0  0  0
  7 26  1  0  0  0
  7 29  1  0  0  0
  8  9  1  0  0  0
  8 22  1  0  0  0
  9 10  1  0  0  0
  9 27  2  0  0  0
 10 11  2  0  0  0
 10 15  1  0  0  0
 11 12  1  0  0  0
 11 96  1  0  0  0
 12 13  2  0  0  0
 12 97  1  0  0  0
 13 14  1  0  0  0
 13 31  1  0  0  0
 14 15  2  0  0  0
 14 98  1  0  0  0
 15 99  1  0  0  0
 16 17  2  0  0  0
 16 21  1  0  0  0
 16 31  1  0  0  0
 17 18  1  0  0  0
 17100  1  0  0  0
 18 19  2  0  0  0
 18101  1  0  0  0
 19 20  1  0  0  0
 19 24  1  0  0  0
 20 21  2  0  0  0
 20102  1  0  0  0
 21 23  1  0  0  0
 22 28  1  0  0  0
 22 32  2  0  0  0
 26 27  1  0  0  0
 28103  1  0  0  0
 28104  1  0  0  0
 29105  1  0  0  0
 29106  1  0  0  0
 33 34  1  0  0  0
 33 66  1  0  0  0
 33 70  2  0  0  0
 34 36  1  0  0  0
 34 59  1  0  0  0
 34107  1  0  0  0
 35 44  2  0  0  0
 35 45  1  0  0  0
 35 68  1  0  0  0
 36 56  1  0  0  0
 36108  1  0  0  0
 37 39  1  0  0  0
 37 47  1  0  0  0
 37 66  1  0  0  0
 37109  1  0  0  0
 38 43  2  0  0  0
 38 46  1  0  0  0
 38 47  1  0  0  0
 39 64  1  0  0  0
 39 67  2  0  0  0
 40 52  1  0  0  0
 40 53  2  0  0  0
 40 58  1  0  0  0
 41110  1  0  0  0
 41111  1  0  0  0
 41112  1  0  0  0
 41 48  1  0  0  0
 42 43  1  0  0  0
 42 66  1  0  0  0
 42113  1  0  0  0
 42114  1  0  0  0
 43 44  1  0  0  0
 44115  1  0  0  0
 45 46  2  0  0  0
 45116  1  0  0  0
 46117  1  0  0  0
 47118  1  0  0  0
 47119  1  0  0  0
 48 56  1  0  0  0
 48 65  1  0  0  0
 48120  1  0  0  0
 49 50  1  0  0  0
 49 53  1  0  0  0
 49 64  1  0  0  0
 49121  1  0  0  0
 50 51  1  0  0  0
 50122  1  0  0  0
 50123  1  0  0  0
 51 52  1  0  0  0
 51124  1  0  0  0
 51125  1  0  0  0
 52126  1  0  0  0
 52127  1  0  0  0
 53 54  1  0  0  0
 54 55  2  0  0  0
 54128  1  0  0  0
 55 57  1  0  0  0
 55129  1  0  0  0
 56 69  2  0  0  0
 57 58  2  0  0  0
 57130  1  0  0  0
 58131  1  0  0  0
 59 60  1  0  0  0
 59 61  1  0  0  0
 59 62  1  0  0  0
 60132  1  0  0  0
 60133  1  0  0  0
 60134  1  0  0  0
 61135  1  0  0  0
 61136  1  0  0  0
 61137  1  0  0  0
 62138  1  0  0  0
 62139  1  0  0  0
 62140  1  0  0  0
 63 65  1  0  0  0
 63141  1  0  0  0
 63142  1  0  0  0
 63143  1  0  0  0
 64144  1  0  0  0
 65145  1  0  0  0
 68 82  1  0  0  0
 71 72  2  0  0  0
 71 73  1  0  0  0
 71146  1  0  0  0
 72 74  1  0  0  0
 72147  1  0  0  0
 73 75  2  0  0  0
 73148  1  0  0  0
 74 76  2  0  0  0
 74 83  1  0  0  0
 75 76  1  0  0  0
 75 84  1  0  0  0
 76 86  1  0  0  0
 77 78  2  0  0  0
 77 83  1  0  0  0
 77149  1  0  0  0
 78 80  1  0  0  0
 78 82  1  0  0  0
 79 81  1  0  0  0
 79 83  1  0  0  0
 79 85  2  0  0  0
 80 81  1  0  0  0
 80150  1  0  0  0
 80151  1  0  0  0
 81152  1  0  0  0
 81153  1  0  0  0
 82154  1  0  0  0
 82155  1  0  0  0
 84156  1  0  0  0
M  ISO  4   1 100  68 101  82 101  84 100
M  END
> <chiral flag>
0

> <version>
0

> <s_m_source_file>
/data/baiqing/PycharmProjects/Reinvent-master-3.2/result/LINK_invent/BTK/process_docking_weight1_custom_product_contain_oxygen_bond_distance_aromatic_linkinvent_7_9_3/rearranged_h_0094.sdf

> <i_m_source_file_index>
47

> <r_mmod_Potential_Energy-OPLS-2005>
281.408782958984

> <r_mmod_Stretch_Energy-OPLS-2005>
156.752899169922

> <r_mmod_Bend_Energy-OPLS-2005>
191.549438476562

> <r_mmod_Torsional_Energy-OPLS-2005>
248.332565307617

> <r_mmod_Improper_Torsional_Energy-OPLS-2005>
6.80375051498413

> <r_mmod_Van_der_Waal_Energy-OPLS-2005>
156.756546020508

> <r_mmod_Electrostatic_Energy-OPLS-2005>
-371.36328125

> <r_mmod_Solvation_Energy-OPLS-2005>
-209.339233398438

> <b_mmod_Minimization_Converged-OPLS-2005>
0

> <r_mmod_RMS_Derivative-OPLS-2005>
4.71535873413086

$$$$
47
                    3D
 Structure written by MMmdl.
151159  0  0  1  0            999 V2000
  -30.5256  -14.8894   20.4787 C   0  0  0  0  0  0
  -30.4609  -12.5587   19.4902 C   0  0  0  0  0  0
  -29.5271  -12.5546   18.2528 C   0  0  0  0  0  0
  -28.0518  -12.3479   18.6562 C   0  0  0  0  0  0
  -27.6475  -13.2292   19.8663 C   0  0  2  0  0  0
  -28.6949  -13.1155   20.9915 C   0  0  0  0  0  0
  -25.2536  -13.8171   20.5718 C   0  0  0  0  0  0
  -24.1803  -13.0419   20.9167 C   0  0  0  0  0  0
  -24.6396  -11.6897   20.8721 C   0  0  0  0  0  0
  -23.9068  -10.4282   21.0395 C   0  0  0  0  0  0
  -24.3617   -9.4202   21.9179 C   0  0  0  0  0  0
  -23.6288   -8.2240   22.0757 C   0  0  0  0  0  0
  -22.4271   -8.0278   21.3546 C   0  0  0  0  0  0
  -21.9905   -9.0250   20.4647 C   0  0  0  0  0  0
  -22.7236  -10.2127   20.3051 C   0  0  0  0  0  0
  -21.6850   -6.0735   22.5279 C   0  0  0  0  0  0
  -21.4013   -6.5641   23.8211 C   0  0  0  0  0  0
  -21.3657   -5.6795   24.9174 C   0  0  0  0  0  0
  -21.6043   -4.3057   24.7225 C   0  0  0  0  0  0
  -21.8819   -3.8149   23.4346 C   0  0  0  0  0  0
  -21.9192   -4.6964   22.3402 C   0  0  0  0  0  0
  -22.7830  -13.5212   21.1839 C   0  0  0  0  0  0
  -22.1660   -4.2151   21.0979 F   0  0  0  0  0  0
  -21.5627   -3.4540   25.7737 F   0  0  0  0  0  0
  -29.9753  -13.6008   20.4419 N   0  0  0  0  0  0
  -26.2970  -12.9367   20.3350 N   0  0  0  0  0  0
  -25.9332  -11.6506   20.5746 N   0  0  0  0  0  0
  -22.0483  -12.8209   22.0410 N   0  0  0  0  0  0
  -25.4256  -15.1896   20.4213 N   0  0  0  0  0  0
  -31.6788  -15.0295   20.0493 O   0  0  0  0  0  0
  -21.6635   -6.8876   21.4240 O   0  0  0  0  0  0
  -22.3511  -14.5520   20.6696 O   0  0  0  0  0  0
  -24.6407  -31.8470   23.1918 C   0  0  0  0  0  0
  -25.9194  -32.4707   23.8290 C   0  0  1  0  0  0
  -27.2216  -27.1712   20.1361 C   0  0  0  0  0  0
  -25.5954  -33.8514   24.2205 N   0  0  0  0  0  0
  -23.4423  -30.4690   21.5364 C   0  0  2  0  0  0
  -24.8922  -28.9048   20.1077 C   0  0  0  0  0  0
  -22.7553  -29.4567   22.4864 C   0  0  0  0  0  0
  -18.0302  -28.1398   22.8478 C   0  0  0  0  0  0
  -24.1489  -36.7260   23.2644 C   0  0  0  0  0  0
  -25.9974  -30.7287   21.3893 C   0  0  0  0  0  0
  -26.0682  -29.3448   20.7284 C   0  0  0  0  0  0
  -27.2320  -28.4922   20.7316 C   0  0  0  0  0  0
  -26.0224  -26.8347   19.4650 C   0  0  0  0  0  0
  -24.8804  -27.6608   19.4625 C   0  0  0  0  0  0
  -23.6669  -29.8023   20.1541 C   0  0  0  0  0  0
  -25.4121  -36.3039   24.0317 C   0  0  1  0  0  0
  -20.5914  -28.3724   23.1235 C   0  0  2  0  0  0
  -20.6787  -26.9428   22.5401 C   0  0  0  0  0  0
  -19.5758  -26.6383   21.5210 C   0  0  0  0  0  0
  -18.1939  -26.7936   22.1623 C   0  0  0  0  0  0
  -19.1559  -28.8878   23.2849 C   0  0  0  0  0  0
  -18.9479  -30.1473   23.8875 C   0  0  0  0  0  0
  -17.6478  -30.6594   24.0563 C   0  0  0  0  0  0
  -25.9073  -34.9414   23.5067 C   0  0  0  0  0  0
  -16.5368  -29.9089   23.6340 C   0  0  0  0  0  0
  -16.7288  -28.6508   23.0358 C   0  0  0  0  0  0
  -26.4525  -31.6573   25.0724 C   0  0  0  0  0  0
  -25.3709  -31.3758   26.1420 C   0  0  0  0  0  0
  -27.0400  -30.2972   24.6303 C   0  0  0  0  0  0
  -27.6054  -32.4347   25.7504 C   0  0  0  0  0  0
  -27.5573  -37.1785   24.8468 C   0  0  0  0  0  0
  -21.4249  -29.3054   22.3611 N   0  0  0  0  0  0
  -26.4286  -37.3750   23.9410 N   0  0  0  0  0  0
  -24.7129  -31.0352   22.0942 N   0  0  0  0  0  0
  -23.4209  -28.8105   23.2999 O   0  0  0  0  0  0
  -28.2759  -26.1961   20.2219 O   0  0  0  0  0  0
  -26.5654  -34.8905   22.4643 O   0  0  0  0  0  0
  -23.5533  -32.1341   23.7150 O   0  0  0  0  0  0
  -29.9817  -18.7854   21.5851 C   0  0  0  0  0  0
  -29.7326  -20.2021   21.3798 C   0  0  0  0  0  0
  -29.2849  -18.3023   19.3847 C   0  0  0  0  0  0
  -29.7539  -17.7418   20.6157 C   0  0  0  0  0  0
  -29.2020  -20.7389   20.1660 C   0  0  0  0  0  0
  -29.0235  -19.7150   19.1721 C   0  0  0  0  0  0
  -29.6607  -16.1940   21.0265 C   0  0  0  0  0  0
  -28.8965  -23.4522   20.4182 C   0  0  0  0  0  0
  -27.9978  -24.7169   19.8741 C   0  0  0  0  0  0
  -28.7958  -16.0154   21.9326 N   0  0  0  0  0  0
  -28.5290  -20.1090   17.9283 N   0  0  0  0  0  0
  -28.7252  -22.1568   19.8913 N   0  0  0  0  0  0
  -29.7231  -23.6576   21.3111 O   0  0  0  0  0  0
  -31.4895  -12.7391   19.1746 H   0  0  0  0  0  0
  -30.4770  -11.5763   19.9649 H   0  0  0  0  0  0
  -29.8352  -11.7807   17.5487 H   0  0  0  0  0  0
  -29.6268  -13.5042   17.7251 H   0  0  0  0  0  0
  -27.9222  -11.2952   18.9104 H   0  0  0  0  0  0
  -27.3939  -12.5390   17.8078 H   0  0  0  0  0  0
  -27.6494  -14.2607   19.5140 H   0  0  0  0  0  0
  -28.7839  -12.0762   21.3114 H   0  0  0  0  0  0
  -28.3828  -13.6340   21.8930 H   0  0  0  0  0  0
  -25.2762   -9.5677   22.4753 H   0  0  0  0  0  0
  -23.9993   -7.4634   22.7482 H   0  0  0  0  0  0
  -21.0833   -8.8768   19.8958 H   0  0  0  0  0  0
  -22.3693  -10.9664   19.6161 H   0  0  0  0  0  0
  -21.2006   -7.6149   23.9713 H   0  0  0  0  0  0
  -21.1478   -6.0526   25.9075 H   0  0  0  0  0  0
  -22.0601   -2.7611   23.2846 H   0  0  0  0  0  0
  -22.4097  -11.9860   22.4778 H   0  0  0  0  0  0
  -21.1117  -13.1255   22.2649 H   0  0  0  0  0  0
  -24.6770  -15.8551   20.5785 H   0  0  0  0  0  0
  -26.3187  -15.6301   20.2368 H   0  0  0  0  0  0
  -26.7257  -32.5311   23.1018 H   0  0  0  0  0  0
  -25.0088  -33.9637   25.0342 H   0  0  0  0  0  0
  -22.7435  -31.2944   21.3850 H   0  0  0  0  0  0
  -23.3754  -35.9588   23.3300 H   0  0  0  0  0  0
  -24.3575  -36.8898   22.2061 H   0  0  0  0  0  0
  -23.7241  -37.6452   23.6686 H   0  0  0  0  0  0
  -26.1539  -31.4853   20.6193 H   0  0  0  0  0  0
  -26.8682  -30.7733   22.0319 H   0  0  0  0  0  0
  -28.1249  -28.8218   21.2443 H   0  0  0  0  0  0
  -25.9241  -25.8940   18.9455 H   0  0  0  0  0  0
  -23.9848  -27.3217   18.9600 H   0  0  0  0  0  0
  -23.7996  -30.5789   19.4000 H   0  0  0  0  0  0
  -22.7820  -29.2435   19.8438 H   0  0  0  0  0  0
  -25.1305  -36.1870   25.0809 H   0  0  0  0  0  0
  -21.0010  -28.3316   24.1354 H   0  0  0  0  0  0
  -20.5684  -26.2339   23.3621 H   0  0  0  0  0  0
  -21.6652  -26.7435   22.1195 H   0  0  0  0  0  0
  -19.6922  -25.6288   21.1255 H   0  0  0  0  0  0
  -19.6693  -27.3182   20.6730 H   0  0  0  0  0  0
  -17.4208  -26.6683   21.4027 H   0  0  0  0  0  0
  -18.0341  -26.0080   22.9022 H   0  0  0  0  0  0
  -19.7957  -30.7294   24.2233 H   0  0  0  0  0  0
  -17.5032  -31.6271   24.5172 H   0  0  0  0  0  0
  -15.5368  -30.2986   23.7679 H   0  0  0  0  0  0
  -15.8687  -28.0822   22.7088 H   0  0  0  0  0  0
  -24.5889  -30.7111   25.7733 H   0  0  0  0  0  0
  -24.8899  -32.2941   26.4798 H   0  0  0  0  0  0
  -25.7987  -30.8955   27.0229 H   0  0  0  0  0  0
  -26.3024  -29.6682   24.1309 H   0  0  0  0  0  0
  -27.4019  -29.7280   25.4876 H   0  0  0  0  0  0
  -27.8923  -30.4213   23.9620 H   0  0  0  0  0  0
  -27.2649  -33.3672   26.2019 H   0  0  0  0  0  0
  -28.3894  -32.6877   25.0352 H   0  0  0  0  0  0
  -28.0692  -31.8517   26.5471 H   0  0  0  0  0  0
  -28.2586  -38.0084   24.7513 H   0  0  0  0  0  0
  -28.1073  -36.2615   24.6298 H   0  0  0  0  0  0
  -27.2289  -37.1436   25.8869 H   0  0  0  0  0  0
  -20.9457  -29.8778   21.6801 H   0  0  0  0  0  0
  -26.0152  -38.2816   24.1417 H   0  0  0  0  0  0
  -30.2947  -18.4818   22.5745 H   0  0  0  0  0  0
  -29.8956  -20.8766   22.2082 H   0  0  0  0  0  0
  -29.0362  -17.6073   18.5953 H   0  0  0  0  0  0
  -26.9953  -24.4773   20.2285 H   0  0  0  0  0  0
  -27.9648  -24.6405   18.7870 H   0  0  0  0  0  0
  -28.3520  -16.8919   22.1791 H   0  0  0  0  0  0
  -28.6058  -19.4317   17.1765 H   0  0  0  0  0  0
  -28.8024  -21.0320   17.6092 H   0  0  0  0  0  0
  -28.0829  -22.1668   19.1106 H   0  0  0  0  0  0
  1 25  1  0  0  0
  1 30  2  0  0  0
  1 77  1  0  0  0
  2  3  1  0  0  0
  2 25  1  0  0  0
  2 84  1  0  0  0
  2 85  1  0  0  0
  3  4  1  0  0  0
  3 86  1  0  0  0
  3 87  1  0  0  0
  4  5  1  0  0  0
  4 88  1  0  0  0
  4 89  1  0  0  0
  5  6  1  0  0  0
  5 26  1  0  0  0
  5 90  1  0  0  0
  6 25  1  0  0  0
  6 91  1  0  0  0
  6 92  1  0  0  0
  7  8  2  0  0  0
  7 26  1  0  0  0
  7 29  1  0  0  0
  8  9  1  0  0  0
  8 22  1  0  0  0
  9 10  1  0  0  0
  9 27  2  0  0  0
 10 11  2  0  0  0
 10 15  1  0  0  0
 11 12  1  0  0  0
 11 93  1  0  0  0
 12 13  2  0  0  0
 12 94  1  0  0  0
 13 14  1  0  0  0
 13 31  1  0  0  0
 14 15  2  0  0  0
 14 95  1  0  0  0
 15 96  1  0  0  0
 16 17  2  0  0  0
 16 21  1  0  0  0
 16 31  1  0  0  0
 17 18  1  0  0  0
 17 97  1  0  0  0
 18 19  2  0  0  0
 18 98  1  0  0  0
 19 20  1  0  0  0
 19 24  1  0  0  0
 20 21  2  0  0  0
 20 99  1  0  0  0
 21 23  1  0  0  0
 22 28  1  0  0  0
 22 32  2  0  0  0
 26 27  1  0  0  0
 28100  1  0  0  0
 28101  1  0  0  0
 29102  1  0  0  0
 29103  1  0  0  0
 33 34  1  0  0  0
 33 66  1  0  0  0
 33 70  2  0  0  0
 34 36  1  0  0  0
 34 59  1  0  0  0
 34104  1  0  0  0
 35 44  2  0  0  0
 35 45  1  0  0  0
 35 68  1  0  0  0
 36 56  1  0  0  0
 36105  1  0  0  0
 37 39  1  0  0  0
 37 47  1  0  0  0
 37 66  1  0  0  0
 37106  1  0  0  0
 38 43  2  0  0  0
 38 46  1  0  0  0
 38 47  1  0  0  0
 39 64  1  0  0  0
 39 67  2  0  0  0
 40 52  1  0  0  0
 40 53  2  0  0  0
 40 58  1  0  0  0
 41107  1  0  0  0
 41108  1  0  0  0
 41109  1  0  0  0
 41 48  1  0  0  0
 42 43  1  0  0  0
 42 66  1  0  0  0
 42110  1  0  0  0
 42111  1  0  0  0
 43 44  1  0  0  0
 44112  1  0  0  0
 45 46  2  0  0  0
 45113  1  0  0  0
 46114  1  0  0  0
 47115  1  0  0  0
 47116  1  0  0  0
 48 56  1  0  0  0
 48 65  1  0  0  0
 48117  1  0  0  0
 49 50  1  0  0  0
 49 53  1  0  0  0
 49 64  1  0  0  0
 49118  1  0  0  0
 50 51  1  0  0  0
 50119  1  0  0  0
 50120  1  0  0  0
 51 52  1  0  0  0
 51121  1  0  0  0
 51122  1  0  0  0
 52123  1  0  0  0
 52124  1  0  0  0
 53 54  1  0  0  0
 54 55  2  0  0  0
 54125  1  0  0  0
 55 57  1  0  0  0
 55126  1  0  0  0
 56 69  2  0  0  0
 57 58  2  0  0  0
 57127  1  0  0  0
 58128  1  0  0  0
 59 60  1  0  0  0
 59 61  1  0  0  0
 59 62  1  0  0  0
 60129  1  0  0  0
 60130  1  0  0  0
 60131  1  0  0  0
 61132  1  0  0  0
 61133  1  0  0  0
 61134  1  0  0  0
 62135  1  0  0  0
 62136  1  0  0  0
 62137  1  0  0  0
 63 65  1  0  0  0
 63138  1  0  0  0
 63139  1  0  0  0
 63140  1  0  0  0
 64141  1  0  0  0
 65142  1  0  0  0
 68 79  1  0  0  0
 71 72  2  0  0  0
 71 74  1  0  0  0
 71143  1  0  0  0
 72 75  1  0  0  0
 72144  1  0  0  0
 73 74  2  0  0  0
 73 76  1  0  0  0
 73145  1  0  0  0
 74 77  1  0  0  0
 75 76  2  0  0  0
 75 82  1  0  0  0
 76 81  1  0  0  0
 77 80  2  0  0  0
 78 79  1  0  0  0
 78 82  1  0  0  0
 78 83  2  0  0  0
 79146  1  0  0  0
 79147  1  0  0  0
 80148  1  0  0  0
 81149  1  0  0  0
 81150  1  0  0  0
 82151  1  0  0  0
M  ISO  4   1 100  68 101  77 100  79 101
M  END
> <chiral flag>
0

> <version>
0

> <s_m_source_file>
/data/baiqing/PycharmProjects/Reinvent-master-3.2/result/LINK_invent/BTK/process_docking_weight1_custom_product_contain_oxygen_bond_distance_aromatic_linkinvent_7_9_3/rearranged_h_0094.sdf

> <i_m_source_file_index>
48

> <r_mmod_Potential_Energy-OPLS-2005>
424.472625732422

> <r_mmod_Stretch_Energy-OPLS-2005>
215.786926269531

> <r_mmod_Bend_Energy-OPLS-2005>
255.771362304688

> <r_mmod_Torsional_Energy-OPLS-2005>
225.786468505859

> <r_mmod_Improper_Torsional_Energy-OPLS-2005>
10.2868709564209

> <r_mmod_Van_der_Waal_Energy-OPLS-2005>
144.25276184082

> <r_mmod_Electrostatic_Energy-OPLS-2005>
-338.353363037109

> <r_mmod_Solvation_Energy-OPLS-2005>
-243.047012329102

> <b_mmod_Minimization_Converged-OPLS-2005>
0

> <r_mmod_RMS_Derivative-OPLS-2005>
0.509174048900604

$$$$
48
                    3D
 Structure written by MMmdl.
162170  0  0  1  0            999 V2000
  -30.6729  -14.4834   20.5840 C   0  0  0  0  0  0
  -30.4359  -12.3218   19.4131 C   0  0  0  0  0  0
  -29.4962  -12.5083   18.2021 C   0  0  0  0  0  0
  -28.0179  -12.3618   18.6180 C   0  0  0  0  0  0
  -27.6629  -13.1987   19.8756 C   0  0  2  0  0  0
  -28.7063  -12.9672   20.9929 C   0  0  0  0  0  0
  -25.2603  -13.8134   20.5680 C   0  0  0  0  0  0
  -24.1845  -13.0427   20.9178 C   0  0  0  0  0  0
  -24.6386  -11.6890   20.8734 C   0  0  0  0  0  0
  -23.9049  -10.4282   21.0405 C   0  0  0  0  0  0
  -24.3602   -9.4200   21.9183 C   0  0  0  0  0  0
  -23.6278   -8.2237   22.0754 C   0  0  0  0  0  0
  -22.4260   -8.0276   21.3543 C   0  0  0  0  0  0
  -21.9894   -9.0249   20.4648 C   0  0  0  0  0  0
  -22.7223  -10.2127   20.3056 C   0  0  0  0  0  0
  -21.6850   -6.0729   22.5278 C   0  0  0  0  0  0
  -21.4009   -6.5633   23.8210 C   0  0  0  0  0  0
  -21.3656   -5.6787   24.9173 C   0  0  0  0  0  0
  -21.6044   -4.3052   24.7223 C   0  0  0  0  0  0
  -21.8823   -3.8143   23.4346 C   0  0  0  0  0  0
  -21.9194   -4.6959   22.3401 C   0  0  0  0  0  0
  -22.7872  -13.5242   21.1839 C   0  0  0  0  0  0
  -22.1666   -4.2146   21.0980 F   0  0  0  0  0  0
  -21.5627   -3.4536   25.7737 F   0  0  0  0  0  0
  -30.0354  -13.2909   20.4429 N   0  0  0  0  0  0
  -26.3029  -12.9288   20.3362 N   0  0  0  0  0  0
  -25.9310  -11.6458   20.5757 N   0  0  0  0  0  0
  -22.0499  -12.8245   22.0395 N   0  0  0  0  0  0
  -25.4335  -15.1851   20.4083 N   0  0  0  0  0  0
  -31.7810  -14.7331   20.1012 O   0  0  0  0  0  0
  -21.6629   -6.8870   21.4238 O   0  0  0  0  0  0
  -22.3572  -14.5554   20.6691 O   0  0  0  0  0  0
  -24.6166  -31.8662   23.2083 C   0  0  0  0  0  0
  -25.9053  -32.4810   23.8383 C   0  0  1  0  0  0
  -27.2412  -27.4196   20.0790 C   0  0  0  0  0  0
  -25.5898  -33.8608   24.2317 N   0  0  0  0  0  0
  -23.4049  -30.4897   21.5494 C   0  0  2  0  0  0
  -24.8502  -28.9523   20.1144 C   0  0  0  0  0  0
  -22.7420  -29.4649   22.4982 C   0  0  0  0  0  0
  -18.0272  -28.1380   22.8487 C   0  0  0  0  0  0
  -24.1485  -36.7308   23.2638 C   0  0  0  0  0  0
  -25.9359  -30.8245   21.3644 C   0  0  0  0  0  0
  -26.0112  -29.4574   20.7105 C   0  0  0  0  0  0
  -27.2037  -28.6955   20.6950 C   0  0  0  0  0  0
  -26.0483  -26.9229   19.5019 C   0  0  0  0  0  0
  -24.8636  -27.6835   19.5119 C   0  0  0  0  0  0
  -23.6136  -29.8217   20.1641 C   0  0  0  0  0  0
  -25.4105  -36.3102   24.0339 C   0  0  1  0  0  0
  -20.5863  -28.3665   23.1313 C   0  0  2  0  0  0
  -20.6759  -26.9398   22.5418 C   0  0  0  0  0  0
  -19.5742  -26.6385   21.5210 C   0  0  0  0  0  0
  -18.1919  -26.7926   22.1620 C   0  0  0  0  0  0
  -19.1522  -28.8840   23.2896 C   0  0  0  0  0  0
  -18.9450  -30.1445   23.8909 C   0  0  0  0  0  0
  -17.6452  -30.6584   24.0567 C   0  0  0  0  0  0
  -25.9034  -34.9468   23.5127 C   0  0  0  0  0  0
  -16.5342  -29.9087   23.6326 C   0  0  0  0  0  0
  -16.7262  -28.6505   23.0343 C   0  0  0  0  0  0
  -26.4475  -31.6595   25.0719 C   0  0  0  0  0  0
  -25.3741  -31.3709   26.1469 C   0  0  0  0  0  0
  -27.0302  -30.3033   24.6106 C   0  0  0  0  0  0
  -27.6050  -32.4315   25.7480 C   0  0  0  0  0  0
  -27.5579  -37.1805   24.8464 C   0  0  0  0  0  0
  -21.4146  -29.3031   22.3723 N   0  0  0  0  0  0
  -26.4290  -37.3787   23.9411 N   0  0  0  0  0  0
  -24.6709  -31.0750   22.0989 N   0  0  0  0  0  0
  -23.4187  -28.8188   23.3025 O   0  0  0  0  0  0
  -28.4274  -26.7022   20.1024 O   0  0  0  0  0  0
  -26.5599  -34.8923   22.4691 O   0  0  0  0  0  0
  -23.5355  -32.1419   23.7472 O   0  0  0  0  0  0
  -30.8707  -20.3640   20.5186 C   0  0  0  0  0  0
  -28.9103  -19.4649   19.4203 C   0  0  0  0  0  0
  -30.4026  -21.6814   20.2859 C   0  0  0  0  0  0
  -28.4466  -20.7794   19.1845 C   0  0  0  0  0  0
  -30.1444  -19.2315   20.0745 C   0  0  0  0  0  0
  -29.1854  -21.9122   19.5936 C   0  0  0  0  0  0
  -29.0346  -24.2890   19.7480 C   0  0  0  0  0  0
  -28.8147  -17.4376   21.9559 C   0  0  0  0  0  0
  -31.1562  -16.9386   22.6004 C   0  0  0  0  0  0
  -28.6814  -25.6562   19.1403 C   0  0  0  0  0  0
  -30.7289  -17.8012   20.2373 C   0  0  1  0  0  0
  -30.1598  -16.8979   21.4197 C   0  0  0  0  0  0
  -28.7112  -23.1809   19.1897 N   0  0  0  0  0  0
  -29.9045  -15.4673   21.0964 N   0  0  0  0  0  0
  -30.7563  -17.1169   18.9389 N   0  3  0  0  0  0
  -31.4768  -12.4474   19.1085 H   0  0  0  0  0  0
  -30.3596  -11.3064   19.8057 H   0  0  0  0  0  0
  -29.7374  -11.7829   17.4239 H   0  0  0  0  0  0
  -29.6556  -13.4928   17.7600 H   0  0  0  0  0  0
  -27.8325  -11.3050   18.8144 H   0  0  0  0  0  0
  -27.3647  -12.6343   17.7879 H   0  0  0  0  0  0
  -27.7081  -14.2473   19.5809 H   0  0  0  0  0  0
  -28.6890  -11.9248   21.3154 H   0  0  0  0  0  0
  -28.4630  -13.5470   21.8847 H   0  0  0  0  0  0
  -25.2748   -9.5676   22.4758 H   0  0  0  0  0  0
  -23.9988   -7.4629   22.7475 H   0  0  0  0  0  0
  -21.0825   -8.8769   19.8954 H   0  0  0  0  0  0
  -22.3682  -10.9666   19.6167 H   0  0  0  0  0  0
  -21.1997   -7.6139   23.9712 H   0  0  0  0  0  0
  -21.1473   -6.0516   25.9075 H   0  0  0  0  0  0
  -22.0605   -2.7607   23.2847 H   0  0  0  0  0  0
  -22.4089  -11.9895   22.4780 H   0  0  0  0  0  0
  -21.1126  -13.1300   22.2597 H   0  0  0  0  0  0
  -24.6654  -15.8383   20.5166 H   0  0  0  0  0  0
  -26.2799  -15.6240   20.0710 H   0  0  0  0  0  0
  -26.7122  -32.5514   23.1142 H   0  0  0  0  0  0
  -25.0054  -33.9765   25.0467 H   0  0  0  0  0  0
  -22.6939  -31.3067   21.4097 H   0  0  0  0  0  0
  -23.3744  -35.9645   23.3308 H   0  0  0  0  0  0
  -24.3580  -36.8913   22.2051 H   0  0  0  0  0  0
  -23.7245  -37.6517   23.6650 H   0  0  0  0  0  0
  -26.0522  -31.5901   20.5960 H   0  0  0  0  0  0
  -26.8225  -30.8762   21.9847 H   0  0  0  0  0  0
  -28.1010  -29.0853   21.1554 H   0  0  0  0  0  0
  -25.9952  -25.9396   19.0602 H   0  0  0  0  0  0
  -23.9657  -27.2814   19.0634 H   0  0  0  0  0  0
  -23.7237  -30.5960   19.4040 H   0  0  0  0  0  0
  -22.7367  -29.2431   19.8680 H   0  0  0  0  0  0
  -25.1282  -36.1963   25.0832 H   0  0  0  0  0  0
  -20.9954  -28.3231   24.1434 H   0  0  0  0  0  0
  -20.5652  -26.2271   23.3606 H   0  0  0  0  0  0
  -21.6633  -26.7435   22.1216 H   0  0  0  0  0  0
  -19.6899  -25.6299   21.1229 H   0  0  0  0  0  0
  -19.6682  -27.3203   20.6746 H   0  0  0  0  0  0
  -17.4188  -26.6674   21.4022 H   0  0  0  0  0  0
  -18.0317  -26.0068   22.9018 H   0  0  0  0  0  0
  -19.7928  -30.7255   24.2284 H   0  0  0  0  0  0
  -17.5009  -31.6264   24.5171 H   0  0  0  0  0  0
  -15.5343  -30.2991   23.7646 H   0  0  0  0  0  0
  -15.8662  -28.0831   22.7047 H   0  0  0  0  0  0
  -24.5913  -30.7052   25.7814 H   0  0  0  0  0  0
  -24.8934  -32.2867   26.4920 H   0  0  0  0  0  0
  -25.8097  -30.8881   27.0226 H   0  0  0  0  0  0
  -26.2844  -29.6795   24.1165 H   0  0  0  0  0  0
  -27.4067  -29.7271   25.4569 H   0  0  0  0  0  0
  -27.8683  -30.4342   23.9257 H   0  0  0  0  0  0
  -27.2669  -33.3605   26.2084 H   0  0  0  0  0  0
  -28.3845  -32.6891   25.0297 H   0  0  0  0  0  0
  -28.0735  -31.8424   26.5375 H   0  0  0  0  0  0
  -28.2602  -38.0097   24.7509 H   0  0  0  0  0  0
  -28.1069  -36.2630   24.6289 H   0  0  0  0  0  0
  -27.2301  -37.1458   25.8868 H   0  0  0  0  0  0
  -20.9309  -29.8759   21.6948 H   0  0  0  0  0  0
  -26.0178  -38.2866   24.1410 H   0  0  0  0  0  0
  -31.8195  -20.2328   21.0208 H   0  0  0  0  0  0
  -28.3133  -18.6373   19.0643 H   0  0  0  0  0  0
  -31.0224  -22.5057   20.6098 H   0  0  0  0  0  0
  -27.5173  -20.9137   18.6474 H   0  0  0  0  0  0
  -29.6172  -24.3405   20.6716 H   0  0  0  0  0  0
  -28.9016  -18.4615   22.3231 H   0  0  0  0  0  0
  -28.4458  -16.8408   22.7910 H   0  0  0  0  0  0
  -28.0385  -17.4253   21.1905 H   0  0  0  0  0  0
  -31.3161  -17.9608   22.9469 H   0  0  0  0  0  0
  -32.1315  -16.5348   22.3254 H   0  0  0  0  0  0
  -30.7965  -16.3618   23.4532 H   0  0  0  0  0  0
  -27.9125  -25.5352   18.3803 H   0  0  0  0  0  0
  -29.5566  -25.9808   18.5775 H   0  0  0  0  0  0
  -31.7914  -17.9506   20.4398 H   0  0  0  0  0  0
  -28.9950  -15.1363   21.3817 H   0  0  0  0  0  0
  -29.8290  -16.9285   18.6082 H   0  0  0  0  0  0
  -31.2549  -16.2457   19.0696 H   0  0  0  0  0  0
  -31.2456  -17.6773   18.2652 H   0  0  0  0  0  0
  1 25  1  0  0  0
  1 30  2  0  0  0
  1 84  1  0  0  0
  2  3  1  0  0  0
  2 25  1  0  0  0
  2 86  1  0  0  0
  2 87  1  0  0  0
  3  4  1  0  0  0
  3 88  1  0  0  0
  3 89  1  0  0  0
  4  5  1  0  0  0
  4 90  1  0  0  0
  4 91  1  0  0  0
  5  6  1  0  0  0
  5 26  1  0  0  0
  5 92  1  0  0  0
  6 25  1  0  0  0
  6 93  1  0  0  0
  6 94  1  0  0  0
  7  8  2  0  0  0
  7 26  1  0  0  0
  7 29  1  0  0  0
  8  9  1  0  0  0
  8 22  1  0  0  0
  9 10  1  0  0  0
  9 27  2  0  0  0
 10 11  2  0  0  0
 10 15  1  0  0  0
 11 12  1  0  0  0
 11 95  1  0  0  0
 12 13  2  0  0  0
 12 96  1  0  0  0
 13 14  1  0  0  0
 13 31  1  0  0  0
 14 15  2  0  0  0
 14 97  1  0  0  0
 15 98  1  0  0  0
 16 17  2  0  0  0
 16 21  1  0  0  0
 16 31  1  0  0  0
 17 18  1  0  0  0
 17 99  1  0  0  0
 18 19  2  0  0  0
 18100  1  0  0  0
 19 20  1  0  0  0
 19 24  1  0  0  0
 20 21  2  0  0  0
 20101  1  0  0  0
 21 23  1  0  0  0
 22 28  1  0  0  0
 22 32  2  0  0  0
 26 27  1  0  0  0
 28102  1  0  0  0
 28103  1  0  0  0
 29104  1  0  0  0
 29105  1  0  0  0
 33 34  1  0  0  0
 33 66  1  0  0  0
 33 70  2  0  0  0
 34 36  1  0  0  0
 34 59  1  0  0  0
 34106  1  0  0  0
 35 44  2  0  0  0
 35 45  1  0  0  0
 35 68  1  0  0  0
 36 56  1  0  0  0
 36107  1  0  0  0
 37 39  1  0  0  0
 37 47  1  0  0  0
 37 66  1  0  0  0
 37108  1  0  0  0
 38 43  2  0  0  0
 38 46  1  0  0  0
 38 47  1  0  0  0
 39 64  1  0  0  0
 39 67  2  0  0  0
 40 52  1  0  0  0
 40 53  2  0  0  0
 40 58  1  0  0  0
 41109  1  0  0  0
 41110  1  0  0  0
 41111  1  0  0  0
 41 48  1  0  0  0
 42 43  1  0  0  0
 42 66  1  0  0  0
 42112  1  0  0  0
 42113  1  0  0  0
 43 44  1  0  0  0
 44114  1  0  0  0
 45 46  2  0  0  0
 45115  1  0  0  0
 46116  1  0  0  0
 47117  1  0  0  0
 47118  1  0  0  0
 48 56  1  0  0  0
 48 65  1  0  0  0
 48119  1  0  0  0
 49 50  1  0  0  0
 49 53  1  0  0  0
 49 64  1  0  0  0
 49120  1  0  0  0
 50 51  1  0  0  0
 50121  1  0  0  0
 50122  1  0  0  0
 51 52  1  0  0  0
 51123  1  0  0  0
 51124  1  0  0  0
 52125  1  0  0  0
 52126  1  0  0  0
 53 54  1  0  0  0
 54 55  2  0  0  0
 54127  1  0  0  0
 55 57  1  0  0  0
 55128  1  0  0  0
 56 69  2  0  0  0
 57 58  2  0  0  0
 57129  1  0  0  0
 58130  1  0  0  0
 59 60  1  0  0  0
 59 61  1  0  0  0
 59 62  1  0  0  0
 60131  1  0  0  0
 60132  1  0  0  0
 60133  1  0  0  0
 61134  1  0  0  0
 61135  1  0  0  0
 61136  1  0  0  0
 62137  1  0  0  0
 62138  1  0  0  0
 62139  1  0  0  0
 63 65  1  0  0  0
 63140  1  0  0  0
 63141  1  0  0  0
 63142  1  0  0  0
 64143  1  0  0  0
 65144  1  0  0  0
 68 80  1  0  0  0
 71 73  2  0  0  0
 71 75  1  0  0  0
 71145  1  0  0  0
 72 74  1  0  0  0
 72 75  2  0  0  0
 72146  1  0  0  0
 73 76  1  0  0  0
 73147  1  0  0  0
 74 76  2  0  0  0
 74148  1  0  0  0
 75 81  1  0  0  0
 76 83  1  0  0  0
 77 80  1  0  0  0
 77 83  2  0  0  0
 77149  1  0  0  0
 78150  1  0  0  0
 78151  1  0  0  0
 78152  1  0  0  0
 78 82  1  0  0  0
 79 82  1  0  0  0
 79153  1  0  0  0
 79154  1  0  0  0
 79155  1  0  0  0
 80156  1  0  0  0
 80157  1  0  0  0
 81 82  1  0  0  0
 81 85  1  0  0  0
 81158  1  0  0  0
 82 84  1  0  0  0
 84159  1  0  0  0
 85160  1  0  0  0
 85161  1  0  0  0
 85162  1  0  0  0
M  CHG  1  85   1
M  ISO  4   1 100  68 101  80 101  84 100
M  END
> <chiral flag>
0

> <version>
0

> <s_m_source_file>
/data/baiqing/PycharmProjects/Reinvent-master-3.2/result/LINK_invent/BTK/process_docking_weight1_custom_product_contain_oxygen_bond_distance_aromatic_linkinvent_7_9_3/rearranged_h_0094.sdf

> <i_m_source_file_index>
49

> <r_mmod_Potential_Energy-OPLS-2005>
-328.792510986328

> <r_mmod_Stretch_Energy-OPLS-2005>
49.0795516967773

> <r_mmod_Bend_Energy-OPLS-2005>
136.960159301758

> <r_mmod_Torsional_Energy-OPLS-2005>
230.119247436523

> <r_mmod_Improper_Torsional_Energy-OPLS-2005>
5.77186965942383

> <r_mmod_Van_der_Waal_Energy-OPLS-2005>
165.785827636719

> <r_mmod_Electrostatic_Energy-OPLS-2005>
-481.930694580078

> <r_mmod_Solvation_Energy-OPLS-2005>
-448.869995117188

> <b_mmod_Minimization_Converged-OPLS-2005>
0

> <r_mmod_RMS_Derivative-OPLS-2005>
0.505607008934021

$$$$
49
                    3D
 Structure written by MMmdl.
158167  0  0  1  0            999 V2000
  -30.6789  -14.4732   20.5973 C   0  0  0  0  0  0
  -30.4327  -12.3144   19.4214 C   0  0  0  0  0  0
  -29.4987  -12.4991   18.2058 C   0  0  0  0  0  0
  -28.0176  -12.3682   18.6146 C   0  0  0  0  0  0
  -27.6650  -13.2014   19.8767 C   0  0  2  0  0  0
  -28.7033  -12.9554   20.9944 C   0  0  0  0  0  0
  -25.2585  -13.8145   20.5666 C   0  0  0  0  0  0
  -24.1844  -13.0444   20.9188 C   0  0  0  0  0  0
  -24.6394  -11.6908   20.8774 C   0  0  0  0  0  0
  -23.9065  -10.4306   21.0438 C   0  0  0  0  0  0
  -24.3623   -9.4212   21.9187 C   0  0  0  0  0  0
  -23.6313   -8.2244   22.0739 C   0  0  0  0  0  0
  -22.4288   -8.0291   21.3552 C   0  0  0  0  0  0
  -21.9922   -9.0265   20.4647 C   0  0  0  0  0  0
  -22.7246  -10.2149   20.3070 C   0  0  0  0  0  0
  -21.6841   -6.0752   22.5295 C   0  0  0  0  0  0
  -21.4013   -6.5648   23.8234 C   0  0  0  0  0  0
  -21.3663   -5.6789   24.9187 C   0  0  0  0  0  0
  -21.6032   -4.3053   24.7226 C   0  0  0  0  0  0
  -21.8823   -3.8160   23.4347 C   0  0  0  0  0  0
  -21.9190   -4.6981   22.3411 C   0  0  0  0  0  0
  -22.7866  -13.5259   21.1840 C   0  0  0  0  0  0
  -22.1655   -4.2167   21.0987 F   0  0  0  0  0  0
  -21.5623   -3.4538   25.7739 F   0  0  0  0  0  0
  -30.0365  -13.2802   20.4584 N   0  0  0  0  0  0
  -26.3021  -12.9315   20.3357 N   0  0  0  0  0  0
  -25.9308  -11.6479   20.5792 N   0  0  0  0  0  0
  -22.0500  -12.8294   22.0416 N   0  0  0  0  0  0
  -25.4287  -15.1861   20.4047 N   0  0  0  0  0  0
  -31.7785  -14.6871   20.0813 O   0  0  0  0  0  0
  -21.6631   -6.8908   21.4265 O   0  0  0  0  0  0
  -22.3572  -14.5563   20.6650 O   0  0  0  0  0  0
  -24.6168  -31.8659   23.2068 C   0  0  0  0  0  0
  -25.9051  -32.4817   23.8373 C   0  0  1  0  0  0
  -27.2316  -27.4134   20.1201 C   0  0  0  0  0  0
  -25.5905  -33.8613   24.2306 N   0  0  0  0  0  0
  -23.4062  -30.4886   21.5441 C   0  0  2  0  0  0
  -24.8551  -28.9444   20.1173 C   0  0  0  0  0  0
  -22.7414  -29.4669   22.4961 C   0  0  0  0  0  0
  -18.0276  -28.1383   22.8494 C   0  0  0  0  0  0
  -24.1486  -36.7304   23.2642 C   0  0  0  0  0  0
  -25.9357  -30.8227   21.3645 C   0  0  0  0  0  0
  -26.0132  -29.4533   20.7197 C   0  0  0  0  0  0
  -27.2070  -28.6937   20.7213 C   0  0  0  0  0  0
  -26.0641  -26.9214   19.5062 C   0  0  0  0  0  0
  -24.8751  -27.6767   19.5068 C   0  0  0  0  0  0
  -23.6190  -29.8149   20.1610 C   0  0  0  0  0  0
  -25.4111  -36.3102   24.0342 C   0  0  1  0  0  0
  -20.5872  -28.3680   23.1314 C   0  0  2  0  0  0
  -20.6772  -26.9416   22.5421 C   0  0  0  0  0  0
  -19.5754  -26.6397   21.5211 C   0  0  0  0  0  0
  -18.1931  -26.7933   22.1619 C   0  0  0  0  0  0
  -19.1526  -28.8849   23.2903 C   0  0  0  0  0  0
  -18.9459  -30.1457   23.8916 C   0  0  0  0  0  0
  -17.6468  -30.6592   24.0574 C   0  0  0  0  0  0
  -25.9036  -34.9471   23.5113 C   0  0  0  0  0  0
  -16.5359  -29.9095   23.6335 C   0  0  0  0  0  0
  -16.7270  -28.6512   23.0352 C   0  0  0  0  0  0
  -26.4481  -31.6598   25.0707 C   0  0  0  0  0  0
  -25.3766  -31.3715   26.1471 C   0  0  0  0  0  0
  -27.0307  -30.3037   24.6083 C   0  0  0  0  0  0
  -27.6046  -32.4333   25.7487 C   0  0  0  0  0  0
  -27.5575  -37.1810   24.8467 C   0  0  0  0  0  0
  -21.4144  -29.3040   22.3708 N   0  0  0  0  0  0
  -26.4289  -37.3793   23.9413 N   0  0  0  0  0  0
  -24.6704  -31.0754   22.0965 N   0  0  0  0  0  0
  -23.4174  -28.8224   23.3025 O   0  0  0  0  0  0
  -28.3742  -26.6425   20.1039 O   0  0  0  0  0  0
  -26.5602  -34.8937   22.4674 O   0  0  0  0  0  0
  -23.5353  -32.1418   23.7448 O   0  0  0  0  0  0
  -28.6594  -18.8714   20.5575 C   0  0  0  0  0  0
  -28.7251  -17.4888   20.8628 C   0  0  0  0  0  0
  -31.0821  -18.9779   20.6062 C   0  0  0  0  0  0
  -29.8436  -19.6331   20.4054 C   0  0  0  0  0  0
  -29.9695  -16.8279   21.0137 C   0  0  0  0  0  0
  -31.1508  -17.6064   20.9355 C   0  0  0  0  0  0
  -29.8411  -21.0650   19.8997 C   0  0  0  0  0  0
  -28.0483  -23.3760   22.1871 C   0  0  0  0  0  0
  -28.2960  -21.9288   21.7194 C   0  0  0  0  0  0
  -29.1512  -23.4486   20.0711 C   0  0  0  0  0  0
  -28.1491  -24.2456   20.9278 C   0  0  2  0  0  0
  -28.5165  -25.7358   21.2141 C   0  0  0  0  0  0
  -29.1029  -22.0370   20.5038 N   0  0  0  0  0  0
  -29.9758  -15.4156   21.2635 N   0  0  0  0  0  0
  -30.5678  -21.3270   18.9373 O   0  0  0  0  0  0
  -32.3622  -17.0596   21.1901 F   0  0  0  0  0  0
  -31.4735  -12.4295   19.1170 H   0  0  0  0  0  0
  -30.3531  -11.2988   19.8111 H   0  0  0  0  0  0
  -29.7368  -11.7613   17.4380 H   0  0  0  0  0  0
  -29.6672  -13.4772   17.7547 H   0  0  0  0  0  0
  -27.8210  -11.3135   18.8053 H   0  0  0  0  0  0
  -27.3709  -12.6467   17.7819 H   0  0  0  0  0  0
  -27.7219  -14.2548   19.5970 H   0  0  0  0  0  0
  -28.6794  -11.9079   21.2966 H   0  0  0  0  0  0
  -28.4497  -13.5162   21.8962 H   0  0  0  0  0  0
  -25.2782   -9.5677   22.4740 H   0  0  0  0  0  0
  -24.0017   -7.4638   22.7448 H   0  0  0  0  0  0
  -21.0842   -8.8804   19.8977 H   0  0  0  0  0  0
  -22.3719  -10.9679   19.6175 H   0  0  0  0  0  0
  -21.2011   -7.6156   23.9758 H   0  0  0  0  0  0
  -21.1466   -6.0506   25.9090 H   0  0  0  0  0  0
  -22.0597   -2.7623   23.2841 H   0  0  0  0  0  0
  -22.4096  -11.9984   22.4862 H   0  0  0  0  0  0
  -21.1110  -13.1322   22.2591 H   0  0  0  0  0  0
  -24.6548  -15.8333   20.5063 H   0  0  0  0  0  0
  -26.2607  -15.6185   20.0262 H   0  0  0  0  0  0
  -26.7118  -32.5521   23.1131 H   0  0  0  0  0  0
  -25.0097  -33.9769   25.0477 H   0  0  0  0  0  0
  -22.6965  -31.3065   21.3990 H   0  0  0  0  0  0
  -23.3742  -35.9643   23.3332 H   0  0  0  0  0  0
  -24.3580  -36.8876   22.2048 H   0  0  0  0  0  0
  -23.7251  -37.6525   23.6633 H   0  0  0  0  0  0
  -26.0539  -31.5824   20.5906 H   0  0  0  0  0  0
  -26.8225  -30.8787   21.9840 H   0  0  0  0  0  0
  -28.1036  -29.0789   21.1873 H   0  0  0  0  0  0
  -26.0749  -25.9490   19.0349 H   0  0  0  0  0  0
  -23.9859  -27.2767   19.0389 H   0  0  0  0  0  0
  -23.7337  -30.5845   19.3982 H   0  0  0  0  0  0
  -22.7436  -29.2358   19.8626 H   0  0  0  0  0  0
  -25.1288  -36.1959   25.0838 H   0  0  0  0  0  0
  -20.9985  -28.3244   24.1418 H   0  0  0  0  0  0
  -20.5664  -26.2283   23.3609 H   0  0  0  0  0  0
  -21.6644  -26.7440   22.1217 H   0  0  0  0  0  0
  -19.6911  -25.6305   21.1228 H   0  0  0  0  0  0
  -19.6689  -27.3218   20.6757 H   0  0  0  0  0  0
  -17.4199  -26.6692   21.4016 H   0  0  0  0  0  0
  -18.0320  -26.0067   22.9009 H   0  0  0  0  0  0
  -19.7943  -30.7265   24.2274 H   0  0  0  0  0  0
  -17.5028  -31.6267   24.5171 H   0  0  0  0  0  0
  -15.5360  -30.3000   23.7660 H   0  0  0  0  0  0
  -15.8670  -28.0845   22.7045 H   0  0  0  0  0  0
  -24.5934  -30.7049   25.7828 H   0  0  0  0  0  0
  -24.8979  -32.2874   26.4940 H   0  0  0  0  0  0
  -25.8159  -30.8887   27.0204 H   0  0  0  0  0  0
  -26.2828  -29.6821   24.1133 H   0  0  0  0  0  0
  -27.4057  -29.7267   25.4541 H   0  0  0  0  0  0
  -27.8687  -30.4355   23.9238 H   0  0  0  0  0  0
  -27.2626  -33.3603   26.2114 H   0  0  0  0  0  0
  -28.3850  -32.6945   25.0321 H   0  0  0  0  0  0
  -28.0721  -31.8428   26.5373 H   0  0  0  0  0  0
  -28.2611  -38.0091   24.7506 H   0  0  0  0  0  0
  -28.1056  -36.2623   24.6300 H   0  0  0  0  0  0
  -27.2302  -37.1468   25.8875 H   0  0  0  0  0  0
  -20.9300  -29.8765   21.6937 H   0  0  0  0  0  0
  -26.0174  -38.2869   24.1402 H   0  0  0  0  0  0
  -27.6942  -19.3272   20.3800 H   0  0  0  0  0  0
  -27.8024  -16.9300   20.9455 H   0  0  0  0  0  0
  -32.0033  -19.5308   20.4937 H   0  0  0  0  0  0
  -28.8242  -23.6655   22.8988 H   0  0  0  0  0  0
  -27.0889  -23.4902   22.6929 H   0  0  0  0  0  0
  -27.3498  -21.4419   21.4777 H   0  0  0  0  0  0
  -28.7929  -21.3327   22.4887 H   0  0  0  0  0  0
  -30.1643  -23.8214   20.2266 H   0  0  0  0  0  0
  -28.9229  -23.5419   19.0074 H   0  0  0  0  0  0
  -27.1767  -24.2126   20.4358 H   0  0  0  0  0  0
  -29.5525  -25.7874   21.5504 H   0  0  0  0  0  0
  -27.9267  -26.0931   22.0609 H   0  0  0  0  0  0
  -29.1325  -15.0483   21.6741 H   0  0  0  0  0  0
  1 25  1  0  0  0
  1 30  2  0  0  0
  1 84  1  0  0  0
  2  3  1  0  0  0
  2 25  1  0  0  0
  2 87  1  0  0  0
  2 88  1  0  0  0
  3  4  1  0  0  0
  3 89  1  0  0  0
  3 90  1  0  0  0
  4  5  1  0  0  0
  4 91  1  0  0  0
  4 92  1  0  0  0
  5  6  1  0  0  0
  5 26  1  0  0  0
  5 93  1  0  0  0
  6 25  1  0  0  0
  6 94  1  0  0  0
  6 95  1  0  0  0
  7  8  2  0  0  0
  7 26  1  0  0  0
  7 29  1  0  0  0
  8  9  1  0  0  0
  8 22  1  0  0  0
  9 10  1  0  0  0
  9 27  2  0  0  0
 10 11  2  0  0  0
 10 15  1  0  0  0
 11 12  1  0  0  0
 11 96  1  0  0  0
 12 13  2  0  0  0
 12 97  1  0  0  0
 13 14  1  0  0  0
 13 31  1  0  0  0
 14 15  2  0  0  0
 14 98  1  0  0  0
 15 99  1  0  0  0
 16 17  2  0  0  0
 16 21  1  0  0  0
 16 31  1  0  0  0
 17 18  1  0  0  0
 17100  1  0  0  0
 18 19  2  0  0  0
 18101  1  0  0  0
 19 20  1  0  0  0
 19 24  1  0  0  0
 20 21  2  0  0  0
 20102  1  0  0  0
 21 23  1  0  0  0
 22 28  1  0  0  0
 22 32  2  0  0  0
 26 27  1  0  0  0
 28103  1  0  0  0
 28104  1  0  0  0
 29105  1  0  0  0
 29106  1  0  0  0
 33 34  1  0  0  0
 33 66  1  0  0  0
 33 70  2  0  0  0
 34 36  1  0  0  0
 34 59  1  0  0  0
 34107  1  0  0  0
 35 44  2  0  0  0
 35 45  1  0  0  0
 35 68  1  0  0  0
 36 56  1  0  0  0
 36108  1  0  0  0
 37 39  1  0  0  0
 37 47  1  0  0  0
 37 66  1  0  0  0
 37109  1  0  0  0
 38 43  2  0  0  0
 38 46  1  0  0  0
 38 47  1  0  0  0
 39 64  1  0  0  0
 39 67  2  0  0  0
 40 52  1  0  0  0
 40 53  2  0  0  0
 40 58  1  0  0  0
 41110  1  0  0  0
 41111  1  0  0  0
 41112  1  0  0  0
 41 48  1  0  0  0
 42 43  1  0  0  0
 42 66  1  0  0  0
 42113  1  0  0  0
 42114  1  0  0  0
 43 44  1  0  0  0
 44115  1  0  0  0
 45 46  2  0  0  0
 45116  1  0  0  0
 46117  1  0  0  0
 47118  1  0  0  0
 47119  1  0  0  0
 48 56  1  0  0  0
 48 65  1  0  0  0
 48120  1  0  0  0
 49 50  1  0  0  0
 49 53  1  0  0  0
 49 64  1  0  0  0
 49121  1  0  0  0
 50 51  1  0  0  0
 50122  1  0  0  0
 50123  1  0  0  0
 51 52  1  0  0  0
 51124  1  0  0  0
 51125  1  0  0  0
 52126  1  0  0  0
 52127  1  0  0  0
 53 54  1  0  0  0
 54 55  2  0  0  0
 54128  1  0  0  0
 55 57  1  0  0  0
 55129  1  0  0  0
 56 69  2  0  0  0
 57 58  2  0  0  0
 57130  1  0  0  0
 58131  1  0  0  0
 59 60  1  0  0  0
 59 61  1  0  0  0
 59 62  1  0  0  0
 60132  1  0  0  0
 60133  1  0  0  0
 60134  1  0  0  0
 61135  1  0  0  0
 61136  1  0  0  0
 61137  1  0  0  0
 62138  1  0  0  0
 62139  1  0  0  0
 62140  1  0  0  0
 63 65  1  0  0  0
 63141  1  0  0  0
 63142  1  0  0  0
 63143  1  0  0  0
 64144  1  0  0  0
 65145  1  0  0  0
 68 82  1  0  0  0
 71 72  2  0  0  0
 71 74  1  0  0  0
 71146  1  0  0  0
 72 75  1  0  0  0
 72147  1  0  0  0
 73 74  2  0  0  0
 73 76  1  0  0  0
 73148  1  0  0  0
 74 77  1  0  0  0
 75 76  2  0  0  0
 75 84  1  0  0  0
 76 86  1  0  0  0
 77 83  1  0  0  0
 77 85  2  0  0  0
 78 79  1  0  0  0
 78 81  1  0  0  0
 78149  1  0  0  0
 78150  1  0  0  0
 79 83  1  0  0  0
 79151  1  0  0  0
 79152  1  0  0  0
 80 81  1  0  0  0
 80 83  1  0  0  0
 80153  1  0  0  0
 80154  1  0  0  0
 81 82  1  0  0  0
 81155  1  0  0  0
 82156  1  0  0  0
 82157  1  0  0  0
 84158  1  0  0  0
M  ISO  4   1 100  68 101  82 101  84 100
M  END
> <chiral flag>
0

> <version>
0

> <s_m_source_file>
/data/baiqing/PycharmProjects/Reinvent-master-3.2/result/LINK_invent/BTK/process_docking_weight1_custom_product_contain_oxygen_bond_distance_aromatic_linkinvent_7_9_3/rearranged_h_0094.sdf

> <i_m_source_file_index>
50

> <r_mmod_Potential_Energy-OPLS-2005>
61.5994758605957

> <r_mmod_Stretch_Energy-OPLS-2005>
42.0884399414062

> <r_mmod_Bend_Energy-OPLS-2005>
121.888999938965

> <r_mmod_Torsional_Energy-OPLS-2005>
345.329681396484

> <r_mmod_Improper_Torsional_Energy-OPLS-2005>
5.24740695953369

> <r_mmod_Van_der_Waal_Energy-OPLS-2005>
143.141616821289

> <r_mmod_Electrostatic_Energy-OPLS-2005>
-371.111633300781

> <r_mmod_Solvation_Energy-OPLS-2005>
-238.52311706543

> <b_mmod_Minimization_Converged-OPLS-2005>
0

> <r_mmod_RMS_Derivative-OPLS-2005>
3.09271645545959

$$$$
50
                    3D
 Structure written by MMmdl.
156164  0  0  1  0            999 V2000
  -30.5403  -14.9389   20.4984 C   0  0  0  0  0  0
  -30.4417  -12.5911   19.5058 C   0  0  0  0  0  0
  -29.5337  -12.5888   18.2523 C   0  0  0  0  0  0
  -28.0536  -12.3848   18.6387 C   0  0  0  0  0  0
  -27.6359  -13.2563   19.8497 C   0  0  2  0  0  0
  -28.6736  -13.1924   20.9846 C   0  0  0  0  0  0
  -25.2471  -13.8235   20.5716 C   0  0  0  0  0  0
  -24.1799  -13.0448   20.9223 C   0  0  0  0  0  0
  -24.6428  -11.6924   20.8727 C   0  0  0  0  0  0
  -23.9107  -10.4305   21.0374 C   0  0  0  0  0  0
  -24.3647   -9.4226   21.9161 C   0  0  0  0  0  0
  -23.6307   -8.2272   22.0746 C   0  0  0  0  0  0
  -22.4282   -8.0305   21.3559 C   0  0  0  0  0  0
  -21.9935   -9.0268   20.4637 C   0  0  0  0  0  0
  -22.7281  -10.2140   20.3022 C   0  0  0  0  0  0
  -21.6869   -6.0762   22.5291 C   0  0  0  0  0  0
  -21.4024   -6.5648   23.8232 C   0  0  0  0  0  0
  -21.3637   -5.6790   24.9187 C   0  0  0  0  0  0
  -21.6050   -4.3059   24.7232 C   0  0  0  0  0  0
  -21.8800   -3.8154   23.4341 C   0  0  0  0  0  0
  -21.9203   -4.6984   22.3401 C   0  0  0  0  0  0
  -22.7813  -13.5225   21.1879 C   0  0  0  0  0  0
  -22.1668   -4.2160   21.0983 F   0  0  0  0  0  0
  -21.5613   -3.4519   25.7732 F   0  0  0  0  0  0
  -29.9570  -13.6622   20.4280 N   0  0  0  0  0  0
  -26.2894  -12.9474   20.3239 N   0  0  0  0  0  0
  -25.9376  -11.6576   20.5691 N   0  0  0  0  0  0
  -22.0449  -12.8202   22.0418 N   0  0  0  0  0  0
  -25.4139  -15.1954   20.4155 N   0  0  0  0  0  0
  -31.6845  -15.0462   20.0427 O   0  0  0  0  0  0
  -21.6636   -6.8912   21.4269 O   0  0  0  0  0  0
  -22.3489  -14.5547   20.6770 O   0  0  0  0  0  0
  -24.6465  -31.8457   23.1863 C   0  0  0  0  0  0
  -25.9205  -32.4716   23.8288 C   0  0  1  0  0  0
  -27.2253  -27.1209   20.1050 C   0  0  0  0  0  0
  -25.5969  -33.8528   24.2220 N   0  0  0  0  0  0
  -23.4525  -30.4604   21.5387 C   0  0  2  0  0  0
  -24.8996  -28.8839   20.1123 C   0  0  0  0  0  0
  -22.7612  -29.4518   22.4889 C   0  0  0  0  0  0
  -18.0308  -28.1403   22.8477 C   0  0  0  0  0  0
  -24.1488  -36.7279   23.2644 C   0  0  0  0  0  0
  -26.0141  -30.7036   21.3921 C   0  0  0  0  0  0
  -26.0828  -29.3137   20.7289 C   0  0  0  0  0  0
  -27.2418  -28.4433   20.7149 C   0  0  0  0  0  0
  -26.0197  -26.8155   19.4327 C   0  0  0  0  0  0
  -24.8807  -27.6456   19.4577 C   0  0  0  0  0  0
  -23.6813  -29.7916   20.1572 C   0  0  0  0  0  0
  -25.4125  -36.3052   24.0311 C   0  0  1  0  0  0
  -20.5936  -28.3722   23.1267 C   0  0  2  0  0  0
  -20.6799  -26.9424   22.5421 C   0  0  0  0  0  0
  -19.5761  -26.6370   21.5240 C   0  0  0  0  0  0
  -18.1939  -26.7943   22.1632 C   0  0  0  0  0  0
  -19.1566  -28.8881   23.2867 C   0  0  0  0  0  0
  -18.9468  -30.1483   23.8888 C   0  0  0  0  0  0
  -17.6465  -30.6602   24.0556 C   0  0  0  0  0  0
  -25.9065  -34.9420   23.5062 C   0  0  0  0  0  0
  -16.5360  -29.9091   23.6332 C   0  0  0  0  0  0
  -16.7296  -28.6510   23.0354 C   0  0  0  0  0  0
  -26.4489  -31.6594   25.0754 C   0  0  0  0  0  0
  -25.3648  -31.3804   26.1436 C   0  0  0  0  0  0
  -27.0318  -30.2982   24.6324 C   0  0  0  0  0  0
  -27.6028  -32.4329   25.7557 C   0  0  0  0  0  0
  -27.5570  -37.1823   24.8472 C   0  0  0  0  0  0
  -21.4309  -29.3049   22.3658 N   0  0  0  0  0  0
  -26.4305  -37.3752   23.9375 N   0  0  0  0  0  0
  -24.7254  -31.0246   22.0949 N   0  0  0  0  0  0
  -23.4236  -28.8063   23.3043 O   0  0  0  0  0  0
  -28.2751  -26.1221   20.1844 O   0  0  0  0  0  0
  -26.5629  -34.8913   22.4627 O   0  0  0  0  0  0
  -23.5567  -32.1351   23.7057 O   0  0  0  0  0  0
  -28.3791  -18.2204   20.7975 C   0  0  0  0  0  0
  -28.1458  -19.6390   20.5944 C   0  0  0  0  0  0
  -30.6094  -18.4632   20.0518 C   0  0  0  0  0  0
  -29.6265  -17.5334   20.5604 C   0  0  0  0  0  0
  -29.1300  -20.5722   20.1241 C   0  0  0  0  0  0
  -30.3733  -19.8921   19.8425 C   0  0  0  0  0  0
  -28.8327  -23.3118   20.3274 C   0  0  0  0  0  0
  -30.0306  -16.9910   23.3896 C   0  0  0  0  0  0
  -28.1401  -24.6578   19.6357 C   0  0  0  0  0  0
  -29.4685  -15.9051   22.4493 C   0  0  0  0  0  0
  -31.4241  -20.6608   19.3392 N   0  0  0  0  0  0
  -28.7766  -22.0175   19.7365 N   0  0  0  0  0  0
  -29.8389  -16.0743   21.0259 N   0  0  0  0  0  0
  -29.4158  -23.4601   21.4063 O   0  0  0  0  0  0
  -31.4830  -12.7346   19.2250 H   0  0  0  0  0  0
  -30.4218  -11.6140   19.9900 H   0  0  0  0  0  0
  -29.8515  -11.8155   17.5538 H   0  0  0  0  0  0
  -29.6452  -13.5366   17.7223 H   0  0  0  0  0  0
  -27.9065  -11.3308   18.8748 H   0  0  0  0  0  0
  -27.4119  -12.6072   17.7816 H   0  0  0  0  0  0
  -27.6246  -14.2862   19.4890 H   0  0  0  0  0  0
  -28.7634  -12.1727   21.3606 H   0  0  0  0  0  0
  -28.3175  -13.7717   21.8312 H   0  0  0  0  0  0
  -25.2785   -9.5690   22.4752 H   0  0  0  0  0  0
  -23.9997   -7.4649   22.7461 H   0  0  0  0  0  0
  -21.0858   -8.8796   19.8935 H   0  0  0  0  0  0
  -22.3727  -10.9686   19.6122 H   0  0  0  0  0  0
  -21.2020   -7.6136   23.9750 H   0  0  0  0  0  0
  -21.1484   -6.0503   25.9096 H   0  0  0  0  0  0
  -22.0599   -2.7608   23.2835 H   0  0  0  0  0  0
  -22.4021  -11.9834   22.4790 H   0  0  0  0  0  0
  -21.1064  -13.1214   22.2616 H   0  0  0  0  0  0
  -24.6405  -15.8466   20.5133 H   0  0  0  0  0  0
  -26.2548  -15.6326   20.0647 H   0  0  0  0  0  0
  -26.7303  -32.5284   23.1060 H   0  0  0  0  0  0
  -25.0176  -33.9677   25.0394 H   0  0  0  0  0  0
  -22.7577  -31.2856   21.3793 H   0  0  0  0  0  0
  -23.3740  -35.9625   23.3335 H   0  0  0  0  0  0
  -24.3563  -36.8881   22.2056 H   0  0  0  0  0  0
  -23.7257  -37.6495   23.6652 H   0  0  0  0  0  0
  -26.1731  -31.4557   20.6161 H   0  0  0  0  0  0
  -26.8881  -30.7579   22.0308 H   0  0  0  0  0  0
  -28.1476  -28.7611   21.2156 H   0  0  0  0  0  0
  -25.9004  -25.8985   18.8789 H   0  0  0  0  0  0
  -23.9785  -27.3136   18.9693 H   0  0  0  0  0  0
  -23.8403  -30.5691   19.4090 H   0  0  0  0  0  0
  -22.7929  -29.2495   19.8305 H   0  0  0  0  0  0
  -25.1311  -36.1928   25.0807 H   0  0  0  0  0  0
  -21.0007  -28.3285   24.1400 H   0  0  0  0  0  0
  -20.5722  -26.2314   23.3634 H   0  0  0  0  0  0
  -21.6653  -26.7443   22.1192 H   0  0  0  0  0  0
  -19.6911  -25.6266   21.1297 H   0  0  0  0  0  0
  -19.6708  -27.3159   20.6760 H   0  0  0  0  0  0
  -17.4217  -26.6719   21.4031 H   0  0  0  0  0  0
  -18.0312  -26.0109   22.9041 H   0  0  0  0  0  0
  -19.7934  -30.7309   24.2264 H   0  0  0  0  0  0
  -17.4999  -31.6268   24.5160 H   0  0  0  0  0  0
  -15.5354  -30.2974   23.7655 H   0  0  0  0  0  0
  -15.8697  -28.0810   22.7086 H   0  0  0  0  0  0
  -24.5856  -30.7122   25.7771 H   0  0  0  0  0  0
  -24.8794  -32.2996   26.4748 H   0  0  0  0  0  0
  -25.7911  -30.9084   27.0298 H   0  0  0  0  0  0
  -26.2932  -29.6780   24.1251 H   0  0  0  0  0  0
  -27.3854  -29.7226   25.4890 H   0  0  0  0  0  0
  -27.8875  -30.4234   23.9688 H   0  0  0  0  0  0
  -27.2638  -33.3655   26.2092 H   0  0  0  0  0  0
  -28.3879  -32.6873   25.0413 H   0  0  0  0  0  0
  -28.0649  -31.8479   26.5532 H   0  0  0  0  0  0
  -28.2620  -38.0089   24.7432 H   0  0  0  0  0  0
  -28.1040  -36.2610   24.6408 H   0  0  0  0  0  0
  -27.2275  -37.1597   25.8878 H   0  0  0  0  0  0
  -20.9541  -29.8778   21.6838 H   0  0  0  0  0  0
  -26.0190  -38.2840   24.1306 H   0  0  0  0  0  0
  -27.5415  -17.6426   21.1679 H   0  0  0  0  0  0
  -27.1580  -20.0174   20.8133 H   0  0  0  0  0  0
  -31.6000  -18.0838   19.8545 H   0  0  0  0  0  0
  -31.0869  -17.1899   23.1974 H   0  0  0  0  0  0
  -29.9474  -16.6734   24.4305 H   0  0  0  0  0  0
  -29.4777  -17.9295   23.3114 H   0  0  0  0  0  0
  -27.0911  -24.3828   19.5732 H   0  0  0  0  0  0
  -28.5057  -24.6861   18.6070 H   0  0  0  0  0  0
  -29.8416  -14.9594   22.8508 H   0  0  0  0  0  0
  -28.3808  -15.8812   22.5331 H   0  0  0  0  0  0
  -31.3176  -21.6648   19.4295 H   0  0  0  0  0  0
  -32.3674  -20.3603   19.5722 H   0  0  0  0  0  0
  -28.3095  -22.0619   18.8398 H   0  0  0  0  0  0
  1 25  1  0  0  0
  1 30  2  0  0  0
  1 83  1  0  0  0
  2  3  1  0  0  0
  2 25  1  0  0  0
  2 85  1  0  0  0
  2 86  1  0  0  0
  3  4  1  0  0  0
  3 87  1  0  0  0
  3 88  1  0  0  0
  4  5  1  0  0  0
  4 89  1  0  0  0
  4 90  1  0  0  0
  5  6  1  0  0  0
  5 26  1  0  0  0
  5 91  1  0  0  0
  6 25  1  0  0  0
  6 92  1  0  0  0
  6 93  1  0  0  0
  7  8  2  0  0  0
  7 26  1  0  0  0
  7 29  1  0  0  0
  8  9  1  0  0  0
  8 22  1  0  0  0
  9 10  1  0  0  0
  9 27  2  0  0  0
 10 11  2  0  0  0
 10 15  1  0  0  0
 11 12  1  0  0  0
 11 94  1  0  0  0
 12 13  2  0  0  0
 12 95  1  0  0  0
 13 14  1  0  0  0
 13 31  1  0  0  0
 14 15  2  0  0  0
 14 96  1  0  0  0
 15 97  1  0  0  0
 16 17  2  0  0  0
 16 21  1  0  0  0
 16 31  1  0  0  0
 17 18  1  0  0  0
 17 98  1  0  0  0
 18 19  2  0  0  0
 18 99  1  0  0  0
 19 20  1  0  0  0
 19 24  1  0  0  0
 20 21  2  0  0  0
 20100  1  0  0  0
 21 23  1  0  0  0
 22 28  1  0  0  0
 22 32  2  0  0  0
 26 27  1  0  0  0
 28101  1  0  0  0
 28102  1  0  0  0
 29103  1  0  0  0
 29104  1  0  0  0
 33 34  1  0  0  0
 33 66  1  0  0  0
 33 70  2  0  0  0
 34 36  1  0  0  0
 34 59  1  0  0  0
 34105  1  0  0  0
 35 44  2  0  0  0
 35 45  1  0  0  0
 35 68  1  0  0  0
 36 56  1  0  0  0
 36106  1  0  0  0
 37 39  1  0  0  0
 37 47  1  0  0  0
 37 66  1  0  0  0
 37107  1  0  0  0
 38 43  2  0  0  0
 38 46  1  0  0  0
 38 47  1  0  0  0
 39 64  1  0  0  0
 39 67  2  0  0  0
 40 52  1  0  0  0
 40 53  2  0  0  0
 40 58  1  0  0  0
 41108  1  0  0  0
 41109  1  0  0  0
 41110  1  0  0  0
 41 48  1  0  0  0
 42 43  1  0  0  0
 42 66  1  0  0  0
 42111  1  0  0  0
 42112  1  0  0  0
 43 44  1  0  0  0
 44113  1  0  0  0
 45 46  2  0  0  0
 45114  1  0  0  0
 46115  1  0  0  0
 47116  1  0  0  0
 47117  1  0  0  0
 48 56  1  0  0  0
 48 65  1  0  0  0
 48118  1  0  0  0
 49 50  1  0  0  0
 49 53  1  0  0  0
 49 64  1  0  0  0
 49119  1  0  0  0
 50 51  1  0  0  0
 50120  1  0  0  0
 50121  1  0  0  0
 51 52  1  0  0  0
 51122  1  0  0  0
 51123  1  0  0  0
 52124  1  0  0  0
 52125  1  0  0  0
 53 54  1  0  0  0
 54 55  2  0  0  0
 54126  1  0  0  0
 55 57  1  0  0  0
 55127  1  0  0  0
 56 69  2  0  0  0
 57 58  2  0  0  0
 57128  1  0  0  0
 58129  1  0  0  0
 59 60  1  0  0  0
 59 61  1  0  0  0
 59 62  1  0  0  0
 60130  1  0  0  0
 60131  1  0  0  0
 60132  1  0  0  0
 61133  1  0  0  0
 61134  1  0  0  0
 61135  1  0  0  0
 62136  1  0  0  0
 62137  1  0  0  0
 62138  1  0  0  0
 63 65  1  0  0  0
 63139  1  0  0  0
 63140  1  0  0  0
 63141  1  0  0  0
 64142  1  0  0  0
 65143  1  0  0  0
 68 79  1  0  0  0
 71 72  2  0  0  0
 71 74  1  0  0  0
 71144  1  0  0  0
 72 75  1  0  0  0
 72145  1  0  0  0
 73 74  2  0  0  0
 73 76  1  0  0  0
 73146  1  0  0  0
 74 83  1  0  0  0
 75 76  2  0  0  0
 75 82  1  0  0  0
 76 81  1  0  0  0
 77 79  1  0  0  0
 77 82  1  0  0  0
 77 84  2  0  0  0
 78 80  1  0  0  0
 78147  1  0  0  0
 78148  1  0  0  0
 78149  1  0  0  0
 79150  1  0  0  0
 79151  1  0  0  0
 80 83  1  0  0  0
 80152  1  0  0  0
 80153  1  0  0  0
 81154  1  0  0  0
 81155  1  0  0  0
 82156  1  0  0  0
M  ISO  4   1 100  68 101  79 101  83 100
M  END
> <chiral flag>
0

> <version>
0

> <s_m_source_file>
/data/baiqing/PycharmProjects/Reinvent-master-3.2/result/LINK_invent/BTK/process_docking_weight1_custom_product_contain_oxygen_bond_distance_aromatic_linkinvent_7_9_3/rearranged_h_0094.sdf

> <i_m_source_file_index>
51

> <r_mmod_Potential_Energy-OPLS-2005>
618.439270019531

> <r_mmod_Stretch_Energy-OPLS-2005>
254.750595092773

> <r_mmod_Bend_Energy-OPLS-2005>
269.600616455078

> <r_mmod_Torsional_Energy-OPLS-2005>
339.394195556641

> <r_mmod_Improper_Torsional_Energy-OPLS-2005>
9.54244518280029

> <r_mmod_Van_der_Waal_Energy-OPLS-2005>
140.410736083984

> <r_mmod_Electrostatic_Energy-OPLS-2005>
-345.444244384766

> <r_mmod_Solvation_Energy-OPLS-2005>
-239.327163696289

> <b_mmod_Minimization_Converged-OPLS-2005>
0

> <r_mmod_RMS_Derivative-OPLS-2005>
7.27371978759766

$$$$
51
                    3D
 Structure written by MMmdl.
154162  0  0  1  0            999 V2000
  -30.6211  -14.6905   20.4477 C   0  0  0  0  0  0
  -30.4318  -12.4200   19.4615 C   0  0  0  0  0  0
  -29.5090  -12.5150   18.2253 C   0  0  0  0  0  0
  -28.0313  -12.3530   18.6338 C   0  0  0  0  0  0
  -27.6475  -13.2317   19.8531 C   0  0  2  0  0  0
  -28.6917  -13.1270   20.9863 C   0  0  0  0  0  0
  -25.2512  -13.8193   20.5680 C   0  0  0  0  0  0
  -24.1792  -13.0442   20.9190 C   0  0  0  0  0  0
  -24.6380  -11.6923   20.8710 C   0  0  0  0  0  0
  -23.9065  -10.4299   21.0407 C   0  0  0  0  0  0
  -24.3614   -9.4214   21.9183 C   0  0  0  0  0  0
  -23.6295   -8.2245   22.0748 C   0  0  0  0  0  0
  -22.4270   -8.0277   21.3541 C   0  0  0  0  0  0
  -21.9911   -9.0254   20.4654 C   0  0  0  0  0  0
  -22.7230  -10.2132   20.3066 C   0  0  0  0  0  0
  -21.6857   -6.0731   22.5275 C   0  0  0  0  0  0
  -21.4020   -6.5638   23.8204 C   0  0  0  0  0  0
  -21.3660   -5.6784   24.9157 C   0  0  0  0  0  0
  -21.6045   -4.3048   24.7223 C   0  0  0  0  0  0
  -21.8816   -3.8143   23.4339 C   0  0  0  0  0  0
  -21.9188   -4.6960   22.3393 C   0  0  0  0  0  0
  -22.7814  -13.5236   21.1859 C   0  0  0  0  0  0
  -22.1658   -4.2156   21.0967 F   0  0  0  0  0  0
  -21.5636   -3.4531   25.7736 F   0  0  0  0  0  0
  -30.0023  -13.4660   20.4165 N   0  0  0  0  0  0
  -26.2955  -12.9410   20.3261 N   0  0  0  0  0  0
  -25.9316  -11.6545   20.5725 N   0  0  0  0  0  0
  -22.0440  -12.8237   22.0410 N   0  0  0  0  0  0
  -25.4225  -15.1916   20.4109 N   0  0  0  0  0  0
  -31.8051  -14.8016   20.1161 O   0  0  0  0  0  0
  -21.6635   -6.8875   21.4238 O   0  0  0  0  0  0
  -22.3494  -14.5538   20.6698 O   0  0  0  0  0  0
  -24.6274  -31.8600   23.2012 C   0  0  0  0  0  0
  -25.9107  -32.4786   23.8347 C   0  0  1  0  0  0
  -27.2179  -27.2984   20.1263 C   0  0  0  0  0  0
  -25.5915  -33.8583   24.2275 N   0  0  0  0  0  0
  -23.4221  -30.4844   21.5429 C   0  0  2  0  0  0
  -24.8697  -28.9422   20.1078 C   0  0  0  0  0  0
  -22.7491  -29.4623   22.4904 C   0  0  0  0  0  0
  -18.0286  -28.1389   22.8473 C   0  0  0  0  0  0
  -24.1489  -36.7303   23.2640 C   0  0  0  0  0  0
  -25.9652  -30.7878   21.3747 C   0  0  0  0  0  0
  -26.0393  -29.4130   20.7179 C   0  0  0  0  0  0
  -27.2161  -28.6030   20.7186 C   0  0  0  0  0  0
  -26.0276  -26.8988   19.4728 C   0  0  0  0  0  0
  -24.8673  -27.6926   19.4749 C   0  0  0  0  0  0
  -23.6394  -29.8235   20.1571 C   0  0  0  0  0  0
  -25.4115  -36.3091   24.0329 C   0  0  1  0  0  0
  -20.5890  -28.3695   23.1265 C   0  0  2  0  0  0
  -20.6768  -26.9409   22.5404 C   0  0  0  0  0  0
  -19.5752  -26.6377   21.5202 C   0  0  0  0  0  0
  -18.1934  -26.7926   22.1619 C   0  0  0  0  0  0
  -19.1543  -28.8856   23.2862 C   0  0  0  0  0  0
  -18.9466  -30.1452   23.8890 C   0  0  0  0  0  0
  -17.6466  -30.6580   24.0559 C   0  0  0  0  0  0
  -25.9051  -34.9458   23.5105 C   0  0  0  0  0  0
  -16.5358  -29.9084   23.6319 C   0  0  0  0  0  0
  -16.7275  -28.6509   23.0335 C   0  0  0  0  0  0
  -26.4479  -31.6589   25.0710 C   0  0  0  0  0  0
  -25.3707  -31.3729   26.1429 C   0  0  0  0  0  0
  -27.0323  -30.3019   24.6165 C   0  0  0  0  0  0
  -27.6045  -32.4308   25.7482 C   0  0  0  0  0  0
  -27.5584  -37.1806   24.8460 C   0  0  0  0  0  0
  -21.4202  -29.3048   22.3663 N   0  0  0  0  0  0
  -26.4294  -37.3786   23.9409 N   0  0  0  0  0  0
  -24.6907  -31.0604   22.0972 N   0  0  0  0  0  0
  -23.4212  -28.8153   23.2976 O   0  0  0  0  0  0
  -28.3119  -26.4123   20.2081 O   0  0  0  0  0  0
  -26.5632  -34.8930   22.4676 O   0  0  0  0  0  0
  -23.5429  -32.1393   23.7329 O   0  0  0  0  0  0
  -29.6485  -18.3956   20.7060 C   0  0  0  0  0  0
  -30.1356  -18.4122   17.9676 C   0  0  0  0  0  0
  -29.6488  -19.6790   20.0212 C   0  0  0  0  0  0
  -29.9048  -17.1265   20.0470 C   0  0  0  0  0  0
  -29.9176  -19.6412   18.6265 C   0  0  0  0  0  0
  -30.1212  -17.1819   18.6501 C   0  0  0  0  0  0
  -28.6862  -22.3031   20.1938 C   0  0  0  0  0  0
  -29.5036  -21.0703   20.7884 C   0  0  0  0  0  0
  -29.0554  -23.8129   20.5346 C   0  0  0  0  0  0
  -28.0490  -24.9522   20.0240 C   0  0  0  0  0  0
  -29.9926  -20.8010   17.8543 N   0  0  0  0  0  0
  -29.8521  -15.8071   20.7078 N   0  0  0  0  0  0
  -27.7273  -22.0809   19.4499 O   0  0  0  0  0  0
  -30.2798  -16.0469   17.9243 F   0  0  0  0  0  0
  -31.4760  -12.5346   19.1649 H   0  0  0  0  0  0
  -30.3630  -11.4332   19.9224 H   0  0  0  0  0  0
  -29.7801  -11.7605   17.4853 H   0  0  0  0  0  0
  -29.6487  -13.4816   17.7379 H   0  0  0  0  0  0
  -27.8638  -11.3002   18.8667 H   0  0  0  0  0  0
  -27.3798  -12.5856   17.7909 H   0  0  0  0  0  0
  -27.6528  -14.2623   19.4921 H   0  0  0  0  0  0
  -28.7110  -12.1182   21.4012 H   0  0  0  0  0  0
  -28.4367  -13.7913   21.8129 H   0  0  0  0  0  0
  -25.2768   -9.5703   22.4738 H   0  0  0  0  0  0
  -24.0019   -7.4645   22.7455 H   0  0  0  0  0  0
  -21.0844   -8.8777   19.8958 H   0  0  0  0  0  0
  -22.3700  -10.9666   19.6171 H   0  0  0  0  0  0
  -21.2017   -7.6148   23.9721 H   0  0  0  0  0  0
  -21.1489   -6.0505   25.9068 H   0  0  0  0  0  0
  -22.0601   -2.7618   23.2826 H   0  0  0  0  0  0
  -22.4050  -11.9922   22.4851 H   0  0  0  0  0  0
  -21.1068  -13.1279   22.2611 H   0  0  0  0  0  0
  -24.6592  -15.8494   20.5286 H   0  0  0  0  0  0
  -26.2758  -15.6319   20.0945 H   0  0  0  0  0  0
  -26.7177  -32.5458   23.1100 H   0  0  0  0  0  0
  -25.0033  -33.9719   25.0403 H   0  0  0  0  0  0
  -22.7169  -31.3054   21.3998 H   0  0  0  0  0  0
  -23.3753  -35.9629   23.3297 H   0  0  0  0  0  0
  -24.3587  -36.8934   22.2054 H   0  0  0  0  0  0
  -23.7240  -37.6502   23.6672 H   0  0  0  0  0  0
  -26.0944  -31.5500   20.6046 H   0  0  0  0  0  0
  -26.8459  -30.8403   22.0024 H   0  0  0  0  0  0
  -28.1098  -28.9563   21.2157 H   0  0  0  0  0  0
  -25.9586  -25.9492   18.9652 H   0  0  0  0  0  0
  -23.9740  -27.3298   18.9857 H   0  0  0  0  0  0
  -23.7634  -30.6003   19.4017 H   0  0  0  0  0  0
  -22.7585  -29.2558   19.8511 H   0  0  0  0  0  0
  -25.1290  -36.1946   25.0823 H   0  0  0  0  0  0
  -20.9982  -28.3274   24.1387 H   0  0  0  0  0  0
  -20.5646  -26.2312   23.3615 H   0  0  0  0  0  0
  -21.6642  -26.7422   22.1222 H   0  0  0  0  0  0
  -19.6910  -25.6283   21.1248 H   0  0  0  0  0  0
  -19.6687  -27.3173   20.6722 H   0  0  0  0  0  0
  -17.4195  -26.6654   21.4027 H   0  0  0  0  0  0
  -18.0346  -26.0072   22.9030 H   0  0  0  0  0  0
  -19.7942  -30.7259   24.2269 H   0  0  0  0  0  0
  -17.5026  -31.6262   24.5166 H   0  0  0  0  0  0
  -15.5361  -30.2990   23.7641 H   0  0  0  0  0  0
  -15.8678  -28.0832   22.7042 H   0  0  0  0  0  0
  -24.5864  -30.7108   25.7744 H   0  0  0  0  0  0
  -24.8910  -32.2894   26.4872 H   0  0  0  0  0  0
  -25.8001  -30.8875   27.0201 H   0  0  0  0  0  0
  -26.2898  -29.6770   24.1194 H   0  0  0  0  0  0
  -27.4033  -29.7271   25.4661 H   0  0  0  0  0  0
  -27.8760  -30.4308   23.9383 H   0  0  0  0  0  0
  -27.2674  -33.3610   26.2071 H   0  0  0  0  0  0
  -28.3853  -32.6867   25.0306 H   0  0  0  0  0  0
  -28.0724  -31.8426   26.5388 H   0  0  0  0  0  0
  -28.2591  -38.0112   24.7517 H   0  0  0  0  0  0
  -28.1087  -36.2644   24.6266 H   0  0  0  0  0  0
  -27.2306  -37.1436   25.8863 H   0  0  0  0  0  0
  -20.9381  -29.8817   21.6917 H   0  0  0  0  0  0
  -26.0177  -38.2862   24.1406 H   0  0  0  0  0  0
  -29.4746  -18.3866   21.7729 H   0  0  0  0  0  0
  -30.3138  -18.3965   16.9029 H   0  0  0  0  0  0
  -30.5125  -21.4257   20.9961 H   0  0  0  0  0  0
  -29.0648  -20.8549   21.7621 H   0  0  0  0  0  0
  -30.0434  -24.0090   20.1210 H   0  0  0  0  0  0
  -29.1605  -23.8851   21.6168 H   0  0  0  0  0  0
  -27.0946  -24.7220   20.5007 H   0  0  0  0  0  0
  -27.9027  -24.7967   18.9540 H   0  0  0  0  0  0
  -29.9794  -20.6784   16.8460 H   0  0  0  0  0  0
  -29.3498  -21.5411   18.1240 H   0  0  0  0  0  0
  -28.9854  -15.6171   21.1857 H   0  0  0  0  0  0
  1 25  1  0  0  0
  1 30  2  0  0  0
  1 82  1  0  0  0
  2  3  1  0  0  0
  2 25  1  0  0  0
  2 85  1  0  0  0
  2 86  1  0  0  0
  3  4  1  0  0  0
  3 87  1  0  0  0
  3 88  1  0  0  0
  4  5  1  0  0  0
  4 89  1  0  0  0
  4 90  1  0  0  0
  5  6  1  0  0  0
  5 26  1  0  0  0
  5 91  1  0  0  0
  6 25  1  0  0  0
  6 92  1  0  0  0
  6 93  1  0  0  0
  7  8  2  0  0  0
  7 26  1  0  0  0
  7 29  1  0  0  0
  8  9  1  0  0  0
  8 22  1  0  0  0
  9 10  1  0  0  0
  9 27  2  0  0  0
 10 11  2  0  0  0
 10 15  1  0  0  0
 11 12  1  0  0  0
 11 94  1  0  0  0
 12 13  2  0  0  0
 12 95  1  0  0  0
 13 14  1  0  0  0
 13 31  1  0  0  0
 14 15  2  0  0  0
 14 96  1  0  0  0
 15 97  1  0  0  0
 16 17  2  0  0  0
 16 21  1  0  0  0
 16 31  1  0  0  0
 17 18  1  0  0  0
 17 98  1  0  0  0
 18 19  2  0  0  0
 18 99  1  0  0  0
 19 20  1  0  0  0
 19 24  1  0  0  0
 20 21  2  0  0  0
 20100  1  0  0  0
 21 23  1  0  0  0
 22 28  1  0  0  0
 22 32  2  0  0  0
 26 27  1  0  0  0
 28101  1  0  0  0
 28102  1  0  0  0
 29103  1  0  0  0
 29104  1  0  0  0
 33 34  1  0  0  0
 33 66  1  0  0  0
 33 70  2  0  0  0
 34 36  1  0  0  0
 34 59  1  0  0  0
 34105  1  0  0  0
 35 44  2  0  0  0
 35 45  1  0  0  0
 35 68  1  0  0  0
 36 56  1  0  0  0
 36106  1  0  0  0
 37 39  1  0  0  0
 37 47  1  0  0  0
 37 66  1  0  0  0
 37107  1  0  0  0
 38 43  2  0  0  0
 38 46  1  0  0  0
 38 47  1  0  0  0
 39 64  1  0  0  0
 39 67  2  0  0  0
 40 52  1  0  0  0
 40 53  2  0  0  0
 40 58  1  0  0  0
 41108  1  0  0  0
 41109  1  0  0  0
 41110  1  0  0  0
 41 48  1  0  0  0
 42 43  1  0  0  0
 42 66  1  0  0  0
 42111  1  0  0  0
 42112  1  0  0  0
 43 44  1  0  0  0
 44113  1  0  0  0
 45 46  2  0  0  0
 45114  1  0  0  0
 46115  1  0  0  0
 47116  1  0  0  0
 47117  1  0  0  0
 48 56  1  0  0  0
 48 65  1  0  0  0
 48118  1  0  0  0
 49 50  1  0  0  0
 49 53  1  0  0  0
 49 64  1  0  0  0
 49119  1  0  0  0
 50 51  1  0  0  0
 50120  1  0  0  0
 50121  1  0  0  0
 51 52  1  0  0  0
 51122  1  0  0  0
 51123  1  0  0  0
 52124  1  0  0  0
 52125  1  0  0  0
 53 54  1  0  0  0
 54 55  2  0  0  0
 54126  1  0  0  0
 55 57  1  0  0  0
 55127  1  0  0  0
 56 69  2  0  0  0
 57 58  2  0  0  0
 57128  1  0  0  0
 58129  1  0  0  0
 59 60  1  0  0  0
 59 61  1  0  0  0
 59 62  1  0  0  0
 60130  1  0  0  0
 60131  1  0  0  0
 60132  1  0  0  0
 61133  1  0  0  0
 61134  1  0  0  0
 61135  1  0  0  0
 62136  1  0  0  0
 62137  1  0  0  0
 62138  1  0  0  0
 63 65  1  0  0  0
 63139  1  0  0  0
 63140  1  0  0  0
 63141  1  0  0  0
 64142  1  0  0  0
 65143  1  0  0  0
 68 80  1  0  0  0
 71 73  2  0  0  0
 71 74  1  0  0  0
 71144  1  0  0  0
 72 75  2  0  0  0
 72 76  1  0  0  0
 72145  1  0  0  0
 73 75  1  0  0  0
 73 78  1  0  0  0
 74 76  2  0  0  0
 74 82  1  0  0  0
 75 81  1  0  0  0
 76 84  1  0  0  0
 77 78  1  0  0  0
 77 79  1  0  0  0
 77 83  2  0  0  0
 78146  1  0  0  0
 78147  1  0  0  0
 79 80  1  0  0  0
 79148  1  0  0  0
 79149  1  0  0  0
 80150  1  0  0  0
 80151  1  0  0  0
 81152  1  0  0  0
 81153  1  0  0  0
 82154  1  0  0  0
M  ISO  4   1 100  68 101  80 101  82 100
M  END
> <chiral flag>
0

> <version>
0

> <s_m_source_file>
/data/baiqing/PycharmProjects/Reinvent-master-3.2/result/LINK_invent/BTK/process_docking_weight1_custom_product_contain_oxygen_bond_distance_aromatic_linkinvent_7_9_3/rearranged_h_0094.sdf

> <i_m_source_file_index>
52

> <r_mmod_Potential_Energy-OPLS-2005>
28.453426361084

> <r_mmod_Stretch_Energy-OPLS-2005>
103.763023376465

> <r_mmod_Bend_Energy-OPLS-2005>
142.184768676758

> <r_mmod_Torsional_Energy-OPLS-2005>
244.437286376953

> <r_mmod_Improper_Torsional_Energy-OPLS-2005>
9.88590240478516

> <r_mmod_Van_der_Waal_Energy-OPLS-2005>
151.491516113281

> <r_mmod_Electrostatic_Energy-OPLS-2005>
-458.682739257812

> <r_mmod_Solvation_Energy-OPLS-2005>
-230.959091186523

> <b_mmod_Minimization_Converged-OPLS-2005>
0

> <r_mmod_RMS_Derivative-OPLS-2005>
2.58192181587219

$$$$
52
                    3D
 Structure written by MMmdl.
157166  0  0  1  0            999 V2000
  -30.7459  -14.4356   20.5792 C   0  0  0  0  0  0
  -30.3985  -12.2950   19.4031 C   0  0  0  0  0  0
  -29.4722  -12.4984   18.1896 C   0  0  0  0  0  0
  -27.9986  -12.3652   18.6166 C   0  0  0  0  0  0
  -27.6536  -13.2116   19.8710 C   0  0  2  0  0  0
  -28.7025  -13.0170   20.9890 C   0  0  0  0  0  0
  -25.2550  -13.8161   20.5721 C   0  0  0  0  0  0
  -24.1823  -13.0427   20.9218 C   0  0  0  0  0  0
  -24.6380  -11.6899   20.8773 C   0  0  0  0  0  0
  -23.9033  -10.4282   21.0409 C   0  0  0  0  0  0
  -24.3582   -9.4203   21.9192 C   0  0  0  0  0  0
  -23.6271   -8.2231   22.0754 C   0  0  0  0  0  0
  -22.4269   -8.0251   21.3525 C   0  0  0  0  0  0
  -21.9890   -9.0225   20.4642 C   0  0  0  0  0  0
  -22.7197  -10.2116   20.3058 C   0  0  0  0  0  0
  -21.6864   -6.0706   22.5266 C   0  0  0  0  0  0
  -21.4024   -6.5624   23.8192 C   0  0  0  0  0  0
  -21.3666   -5.6788   24.9163 C   0  0  0  0  0  0
  -21.6043   -4.3049   24.7231 C   0  0  0  0  0  0
  -21.8821   -3.8124   23.4361 C   0  0  0  0  0  0
  -21.9202   -4.6932   22.3405 C   0  0  0  0  0  0
  -22.7843  -13.5209   21.1877 C   0  0  0  0  0  0
  -22.1668   -4.2107   21.0990 F   0  0  0  0  0  0
  -21.5634   -3.4544   25.7756 F   0  0  0  0  0  0
  -30.0220  -13.2999   20.4089 N   0  0  0  0  0  0
  -26.2996  -12.9345   20.3405 N   0  0  0  0  0  0
  -25.9308  -11.6496   20.5803 N   0  0  0  0  0  0
  -22.0488  -12.8188   22.0424 N   0  0  0  0  0  0
  -25.4249  -15.1887   20.4084 N   0  0  0  0  0  0
  -31.8931  -14.5401   20.1286 O   0  0  0  0  0  0
  -21.6646   -6.8841   21.4220 O   0  0  0  0  0  0
  -22.3529  -14.5504   20.6716 O   0  0  0  0  0  0
  -24.6158  -31.8674   23.2063 C   0  0  0  0  0  0
  -25.9050  -32.4793   23.8361 C   0  0  1  0  0  0
  -27.2228  -27.4114   20.0999 C   0  0  0  0  0  0
  -25.5904  -33.8592   24.2301 N   0  0  0  0  0  0
  -23.4024  -30.4923   21.5472 C   0  0  2  0  0  0
  -24.8431  -28.9515   20.1157 C   0  0  0  0  0  0
  -22.7407  -29.4684   22.4954 C   0  0  0  0  0  0
  -18.0292  -28.1365   22.8516 C   0  0  0  0  0  0
  -24.1498  -36.7321   23.2641 C   0  0  0  0  0  0
  -25.9327  -30.8236   21.3624 C   0  0  0  0  0  0
  -26.0037  -29.4554   20.7144 C   0  0  0  0  0  0
  -27.1913  -28.6890   20.7100 C   0  0  0  0  0  0
  -26.0424  -26.9279   19.4948 C   0  0  0  0  0  0
  -24.8566  -27.6842   19.5116 C   0  0  0  0  0  0
  -23.6096  -29.8239   20.1622 C   0  0  0  0  0  0
  -25.4114  -36.3098   24.0331 C   0  0  1  0  0  0
  -20.5893  -28.3670   23.1303 C   0  0  2  0  0  0
  -20.6790  -26.9408   22.5390 C   0  0  0  0  0  0
  -19.5746  -26.6361   21.5225 C   0  0  0  0  0  0
  -18.1953  -26.7900   22.1660 C   0  0  0  0  0  0
  -19.1541  -28.8836   23.2902 C   0  0  0  0  0  0
  -18.9467  -30.1448   23.8906 C   0  0  0  0  0  0
  -17.6478  -30.6570   24.0562 C   0  0  0  0  0  0
  -25.9043  -34.9461   23.5112 C   0  0  0  0  0  0
  -16.5371  -29.9083   23.6318 C   0  0  0  0  0  0
  -16.7286  -28.6480   23.0360 C   0  0  0  0  0  0
  -26.4484  -31.6579   25.0699 C   0  0  0  0  0  0
  -25.3756  -31.3681   26.1449 C   0  0  0  0  0  0
  -27.0323  -30.3019   24.6086 C   0  0  0  0  0  0
  -27.6045  -32.4315   25.7476 C   0  0  0  0  0  0
  -27.5578  -37.1822   24.8467 C   0  0  0  0  0  0
  -21.4133  -29.3053   22.3690 N   0  0  0  0  0  0
  -26.4304  -37.3779   23.9396 N   0  0  0  0  0  0
  -24.6683  -31.0772   22.0959 N   0  0  0  0  0  0
  -23.4178  -28.8225   23.2993 O   0  0  0  0  0  0
  -28.4045  -26.6967   20.1277 O   0  0  0  0  0  0
  -26.5625  -34.8926   22.4686 O   0  0  0  0  0  0
  -23.5351  -32.1455   23.7455 O   0  0  0  0  0  0
  -28.5702  -18.0611   21.3521 C   0  0  0  0  0  0
  -27.9499  -19.3177   21.1575 C   0  0  0  0  0  0
  -30.1210  -20.3619   20.9567 C   0  0  0  0  0  0
  -29.9799  -17.9406   21.3370 C   0  0  0  0  0  0
  -28.7129  -20.4999   20.9485 C   0  0  0  0  0  0
  -30.7455  -19.1166   21.1430 C   0  0  0  0  0  0
  -26.8358  -22.1329   20.5439 C   0  0  0  0  0  0
  -30.6826  -16.6181   21.5404 C   0  0  0  0  0  0
  -26.6782  -23.5793   20.0989 C   0  0  0  0  0  0
  -28.9653  -22.9897   20.4393 C   0  0  0  0  0  0
  -28.0262  -24.2127   20.4527 C   0  0  2  0  0  0
  -28.5015  -25.3866   19.5451 C   0  0  0  0  0  0
  -28.1359  -21.8058   20.7070 N   0  0  0  0  0  0
  -30.0850  -15.5005   21.0777 N   0  0  0  0  0  0
  -25.8484  -21.4155   20.7316 O   0  0  0  0  0  0
  -31.7992  -16.6020   22.0751 O   0  0  0  0  0  0
  -32.1004  -19.0812   21.1093 F   0  0  0  0  0  0
  -31.4424  -12.3652   19.0947 H   0  0  0  0  0  0
  -30.2795  -11.2903   19.8106 H   0  0  0  0  0  0
  -29.6972  -11.7724   17.4074 H   0  0  0  0  0  0
  -29.6411  -13.4832   17.7527 H   0  0  0  0  0  0
  -27.8121  -11.3114   18.8239 H   0  0  0  0  0  0
  -27.3379  -12.6288   17.7896 H   0  0  0  0  0  0
  -27.6867  -14.2568   19.5625 H   0  0  0  0  0  0
  -28.6854  -11.9940   21.3722 H   0  0  0  0  0  0
  -28.4833  -13.6582   21.8432 H   0  0  0  0  0  0
  -25.2713   -9.5706   22.4781 H   0  0  0  0  0  0
  -23.9979   -7.4636   22.7489 H   0  0  0  0  0  0
  -21.0811   -8.8717   19.8966 H   0  0  0  0  0  0
  -22.3608  -10.9648   19.6182 H   0  0  0  0  0  0
  -21.2005   -7.6133   23.9678 H   0  0  0  0  0  0
  -21.1500   -6.0533   25.9064 H   0  0  0  0  0  0
  -22.0600   -2.7581   23.2880 H   0  0  0  0  0  0
  -22.4084  -11.9818   22.4785 H   0  0  0  0  0  0
  -21.1117  -13.1226   22.2656 H   0  0  0  0  0  0
  -24.6491  -15.8361   20.4969 H   0  0  0  0  0  0
  -26.2540  -15.6213   20.0226 H   0  0  0  0  0  0
  -26.7119  -32.5524   23.1122 H   0  0  0  0  0  0
  -25.0004  -33.9748   25.0406 H   0  0  0  0  0  0
  -22.6937  -31.3097   21.4062 H   0  0  0  0  0  0
  -23.3733  -35.9682   23.3330 H   0  0  0  0  0  0
  -24.3567  -36.8918   22.2049 H   0  0  0  0  0  0
  -23.7299  -37.6546   23.6653 H   0  0  0  0  0  0
  -26.0551  -31.5856   20.5915 H   0  0  0  0  0  0
  -26.8153  -30.8740   21.9877 H   0  0  0  0  0  0
  -28.0841  -29.0732   21.1814 H   0  0  0  0  0  0
  -26.0076  -25.9653   19.0097 H   0  0  0  0  0  0
  -23.9605  -27.2842   19.0573 H   0  0  0  0  0  0
  -23.7208  -30.5971   19.4003 H   0  0  0  0  0  0
  -22.7327  -29.2462   19.8658 H   0  0  0  0  0  0
  -25.1305  -36.1941   25.0825 H   0  0  0  0  0  0
  -21.0000  -28.3224   24.1421 H   0  0  0  0  0  0
  -20.5709  -26.2289   23.3586 H   0  0  0  0  0  0
  -21.6667  -26.7464   22.1191 H   0  0  0  0  0  0
  -19.6903  -25.6267   21.1254 H   0  0  0  0  0  0
  -19.6642  -27.3153   20.6737 H   0  0  0  0  0  0
  -17.4207  -26.6677   21.4067 H   0  0  0  0  0  0
  -18.0352  -26.0031   22.9056 H   0  0  0  0  0  0
  -19.7942  -30.7273   24.2258 H   0  0  0  0  0  0
  -17.5018  -31.6243   24.5153 H   0  0  0  0  0  0
  -15.5370  -30.2986   23.7594 H   0  0  0  0  0  0
  -15.8698  -28.0783   22.7077 H   0  0  0  0  0  0
  -24.5903  -30.7065   25.7783 H   0  0  0  0  0  0
  -24.8989  -32.2847   26.4942 H   0  0  0  0  0  0
  -25.8118  -30.8810   27.0176 H   0  0  0  0  0  0
  -26.2872  -29.6753   24.1179 H   0  0  0  0  0  0
  -27.4135  -29.7273   25.4533 H   0  0  0  0  0  0
  -27.8686  -30.4317   23.9209 H   0  0  0  0  0  0
  -27.2624  -33.3571   26.2107 H   0  0  0  0  0  0
  -28.3833  -32.6942   25.0311 H   0  0  0  0  0  0
  -28.0743  -31.8419   26.5356 H   0  0  0  0  0  0
  -28.2622  -38.0092   24.7466 H   0  0  0  0  0  0
  -28.1052  -36.2622   24.6356 H   0  0  0  0  0  0
  -27.2289  -37.1547   25.8870 H   0  0  0  0  0  0
  -20.9250  -29.8760   21.6934 H   0  0  0  0  0  0
  -26.0188  -38.2864   24.1345 H   0  0  0  0  0  0
  -27.9486  -17.1924   21.5153 H   0  0  0  0  0  0
  -26.8718  -19.3334   21.1686 H   0  0  0  0  0  0
  -30.7705  -21.2089   20.8033 H   0  0  0  0  0  0
  -25.8325  -24.0638   20.5860 H   0  0  0  0  0  0
  -26.5119  -23.5755   19.0218 H   0  0  0  0  0  0
  -29.7558  -23.1216   21.1800 H   0  0  0  0  0  0
  -29.4296  -22.8607   19.4592 H   0  0  0  0  0  0
  -27.9665  -24.5642   21.4843 H   0  0  0  0  0  0
  -28.0654  -25.3347   18.5458 H   0  0  0  0  0  0
  -29.5721  -25.2680   19.3749 H   0  0  0  0  0  0
  -29.0824  -15.4971   20.9994 H   0  0  0  0  0  0
  1 25  1  0  0  0
  1 30  2  0  0  0
  1 84  1  0  0  0
  2  3  1  0  0  0
  2 25  1  0  0  0
  2 88  1  0  0  0
  2 89  1  0  0  0
  3  4  1  0  0  0
  3 90  1  0  0  0
  3 91  1  0  0  0
  4  5  1  0  0  0
  4 92  1  0  0  0
  4 93  1  0  0  0
  5  6  1  0  0  0
  5 26  1  0  0  0
  5 94  1  0  0  0
  6 25  1  0  0  0
  6 95  1  0  0  0
  6 96  1  0  0  0
  7  8  2  0  0  0
  7 26  1  0  0  0
  7 29  1  0  0  0
  8  9  1  0  0  0
  8 22  1  0  0  0
  9 10  1  0  0  0
  9 27  2  0  0  0
 10 11  2  0  0  0
 10 15  1  0  0  0
 11 12  1  0  0  0
 11 97  1  0  0  0
 12 13  2  0  0  0
 12 98  1  0  0  0
 13 14  1  0  0  0
 13 31  1  0  0  0
 14 15  2  0  0  0
 14 99  1  0  0  0
 15100  1  0  0  0
 16 17  2  0  0  0
 16 21  1  0  0  0
 16 31  1  0  0  0
 17 18  1  0  0  0
 17101  1  0  0  0
 18 19  2  0  0  0
 18102  1  0  0  0
 19 20  1  0  0  0
 19 24  1  0  0  0
 20 21  2  0  0  0
 20103  1  0  0  0
 21 23  1  0  0  0
 22 28  1  0  0  0
 22 32  2  0  0  0
 26 27  1  0  0  0
 28104  1  0  0  0
 28105  1  0  0  0
 29106  1  0  0  0
 29107  1  0  0  0
 33 34  1  0  0  0
 33 66  1  0  0  0
 33 70  2  0  0  0
 34 36  1  0  0  0
 34 59  1  0  0  0
 34108  1  0  0  0
 35 44  2  0  0  0
 35 45  1  0  0  0
 35 68  1  0  0  0
 36 56  1  0  0  0
 36109  1  0  0  0
 37 39  1  0  0  0
 37 47  1  0  0  0
 37 66  1  0  0  0
 37110  1  0  0  0
 38 43  2  0  0  0
 38 46  1  0  0  0
 38 47  1  0  0  0
 39 64  1  0  0  0
 39 67  2  0  0  0
 40 52  1  0  0  0
 40 53  2  0  0  0
 40 58  1  0  0  0
 41111  1  0  0  0
 41112  1  0  0  0
 41113  1  0  0  0
 41 48  1  0  0  0
 42 43  1  0  0  0
 42 66  1  0  0  0
 42114  1  0  0  0
 42115  1  0  0  0
 43 44  1  0  0  0
 44116  1  0  0  0
 45 46  2  0  0  0
 45117  1  0  0  0
 46118  1  0  0  0
 47119  1  0  0  0
 47120  1  0  0  0
 48 56  1  0  0  0
 48 65  1  0  0  0
 48121  1  0  0  0
 49 50  1  0  0  0
 49 53  1  0  0  0
 49 64  1  0  0  0
 49122  1  0  0  0
 50 51  1  0  0  0
 50123  1  0  0  0
 50124  1  0  0  0
 51 52  1  0  0  0
 51125  1  0  0  0
 51126  1  0  0  0
 52127  1  0  0  0
 52128  1  0  0  0
 53 54  1  0  0  0
 54 55  2  0  0  0
 54129  1  0  0  0
 55 57  1  0  0  0
 55130  1  0  0  0
 56 69  2  0  0  0
 57 58  2  0  0  0
 57131  1  0  0  0
 58132  1  0  0  0
 59 60  1  0  0  0
 59 61  1  0  0  0
 59 62  1  0  0  0
 60133  1  0  0  0
 60134  1  0  0  0
 60135  1  0  0  0
 61136  1  0  0  0
 61137  1  0  0  0
 61138  1  0  0  0
 62139  1  0  0  0
 62140  1  0  0  0
 62141  1  0  0  0
 63 65  1  0  0  0
 63142  1  0  0  0
 63143  1  0  0  0
 63144  1  0  0  0
 64145  1  0  0  0
 65146  1  0  0  0
 68 82  1  0  0  0
 71 72  2  0  0  0
 71 74  1  0  0  0
 71147  1  0  0  0
 72 75  1  0  0  0
 72148  1  0  0  0
 73 75  2  0  0  0
 73 76  1  0  0  0
 73149  1  0  0  0
 74 76  2  0  0  0
 74 78  1  0  0  0
 75 83  1  0  0  0
 76 87  1  0  0  0
 77 79  1  0  0  0
 77 83  1  0  0  0
 77 85  2  0  0  0
 78 84  1  0  0  0
 78 86  2  0  0  0
 79 81  1  0  0  0
 79150  1  0  0  0
 79151  1  0  0  0
 80 81  1  0  0  0
 80 83  1  0  0  0
 80152  1  0  0  0
 80153  1  0  0  0
 81 82  1  0  0  0
 81154  1  0  0  0
 82155  1  0  0  0
 82156  1  0  0  0
 84157  1  0  0  0
M  ISO  4   1 100  68 101  82 101  84 100
M  END
> <chiral flag>
0

> <version>
0

> <s_m_source_file>
/data/baiqing/PycharmProjects/Reinvent-master-3.2/result/LINK_invent/BTK/process_docking_weight1_custom_product_contain_oxygen_bond_distance_aromatic_linkinvent_7_9_3/rearranged_h_0094.sdf

> <i_m_source_file_index>
53

> <r_mmod_Potential_Energy-OPLS-2005>
12.0481863021851

> <r_mmod_Stretch_Energy-OPLS-2005>
39.9883995056152

> <r_mmod_Bend_Energy-OPLS-2005>
141.309219360352

> <r_mmod_Torsional_Energy-OPLS-2005>
277.841491699219

> <r_mmod_Improper_Torsional_Energy-OPLS-2005>
4.86851787567139

> <r_mmod_Van_der_Waal_Energy-OPLS-2005>
171.332855224609

> <r_mmod_Electrostatic_Energy-OPLS-2005>
-402.476013183594

> <r_mmod_Solvation_Energy-OPLS-2005>
-237.332977294922

> <b_mmod_Minimization_Converged-OPLS-2005>
0

> <r_mmod_RMS_Derivative-OPLS-2005>
3.38806748390198

$$$$
53
                    3D
 Structure written by MMmdl.
156165  0  0  1  0            999 V2000
  -30.5798  -14.7223   20.4730 C   0  0  0  0  0  0
  -30.4464  -12.4415   19.4572 C   0  0  0  0  0  0
  -29.5102  -12.5091   18.2286 C   0  0  0  0  0  0
  -28.0353  -12.3338   18.6446 C   0  0  0  0  0  0
  -27.6476  -13.2195   19.8584 C   0  0  2  0  0  0
  -28.6966  -13.1113   20.9874 C   0  0  0  0  0  0
  -25.2554  -13.8192   20.5719 C   0  0  0  0  0  0
  -24.1824  -13.0438   20.9198 C   0  0  0  0  0  0
  -24.6396  -11.6910   20.8738 C   0  0  0  0  0  0
  -23.9067  -10.4292   21.0403 C   0  0  0  0  0  0
  -24.3616   -9.4205   21.9183 C   0  0  0  0  0  0
  -23.6290   -8.2241   22.0751 C   0  0  0  0  0  0
  -22.4272   -8.0278   21.3541 C   0  0  0  0  0  0
  -21.9905   -9.0256   20.4646 C   0  0  0  0  0  0
  -22.7236  -10.2135   20.3056 C   0  0  0  0  0  0
  -21.6853   -6.0731   22.5280 C   0  0  0  0  0  0
  -21.4015   -6.5639   23.8212 C   0  0  0  0  0  0
  -21.3662   -5.6791   24.9176 C   0  0  0  0  0  0
  -21.6047   -4.3055   24.7227 C   0  0  0  0  0  0
  -21.8820   -3.8144   23.4349 C   0  0  0  0  0  0
  -21.9190   -4.6960   22.3402 C   0  0  0  0  0  0
  -22.7845  -13.5221   21.1864 C   0  0  0  0  0  0
  -22.1660   -4.2146   21.0980 F   0  0  0  0  0  0
  -21.5628   -3.4538   25.7739 F   0  0  0  0  0  0
  -29.9994  -13.4771   20.4115 N   0  0  0  0  0  0
  -26.2970  -12.9367   20.3322 N   0  0  0  0  0  0
  -25.9325  -11.6516   20.5767 N   0  0  0  0  0  0
  -22.0489  -12.8211   22.0421 N   0  0  0  0  0  0
  -25.4200  -15.1939   20.4215 N   0  0  0  0  0  0
  -31.7668  -14.8830   20.1728 O   0  0  0  0  0  0
  -21.6636   -6.8876   21.4242 O   0  0  0  0  0  0
  -22.3525  -14.5532   20.6721 O   0  0  0  0  0  0
  -24.6302  -31.8556   23.1987 C   0  0  0  0  0  0
  -25.9125  -32.4760   23.8339 C   0  0  1  0  0  0
  -27.2272  -27.2782   20.1335 C   0  0  0  0  0  0
  -25.5928  -33.8561   24.2264 N   0  0  0  0  0  0
  -23.4287  -30.4761   21.5410 C   0  0  2  0  0  0
  -24.8804  -28.9205   20.1158 C   0  0  0  0  0  0
  -22.7505  -29.4599   22.4914 C   0  0  0  0  0  0
  -18.0296  -28.1385   22.8483 C   0  0  0  0  0  0
  -24.1489  -36.7284   23.2640 C   0  0  0  0  0  0
  -25.9733  -30.7719   21.3795 C   0  0  0  0  0  0
  -26.0505  -29.3934   20.7272 C   0  0  0  0  0  0
  -27.2309  -28.5822   20.7296 C   0  0  0  0  0  0
  -26.0388  -26.8642   19.5020 C   0  0  0  0  0  0
  -24.8772  -27.6616   19.4942 C   0  0  0  0  0  0
  -23.6497  -29.8061   20.1591 C   0  0  0  0  0  0
  -25.4114  -36.3072   24.0328 C   0  0  1  0  0  0
  -20.5900  -28.3697   23.1267 C   0  0  2  0  0  0
  -20.6784  -26.9414   22.5407 C   0  0  0  0  0  0
  -19.5758  -26.6380   21.5211 C   0  0  0  0  0  0
  -18.1939  -26.7927   22.1623 C   0  0  0  0  0  0
  -19.1549  -28.8858   23.2871 C   0  0  0  0  0  0
  -18.9469  -30.1457   23.8890 C   0  0  0  0  0  0
  -17.6466  -30.6585   24.0560 C   0  0  0  0  0  0
  -25.9054  -34.9441   23.5098 C   0  0  0  0  0  0
  -16.5359  -29.9080   23.6331 C   0  0  0  0  0  0
  -16.7281  -28.6499   23.0352 C   0  0  0  0  0  0
  -26.4499  -31.6584   25.0724 C   0  0  0  0  0  0
  -25.3725  -31.3737   26.1448 C   0  0  0  0  0  0
  -27.0348  -30.2999   24.6210 C   0  0  0  0  0  0
  -27.6053  -32.4329   25.7494 C   0  0  0  0  0  0
  -27.5580  -37.1798   24.8464 C   0  0  0  0  0  0
  -21.4214  -29.3039   22.3653 N   0  0  0  0  0  0
  -26.4291  -37.3768   23.9410 N   0  0  0  0  0  0
  -24.6959  -31.0529   22.0960 N   0  0  0  0  0  0
  -23.4200  -28.8148   23.3022 O   0  0  0  0  0  0
  -28.2921  -26.3574   20.1195 O   0  0  0  0  0  0
  -26.5624  -34.8913   22.4666 O   0  0  0  0  0  0
  -23.5451  -32.1373   23.7282 O   0  0  0  0  0  0
  -28.6235  -19.4187   20.0534 C   0  0  0  0  0  0
  -30.7790  -18.0483   21.2157 C   0  0  0  0  0  0
  -29.5768  -20.2245   20.7407 C   0  0  0  0  0  0
  -28.7192  -17.9834   19.9936 C   0  0  0  0  0  0
  -29.7912  -17.2496   20.5842 C   0  0  0  0  0  0
  -30.6682  -19.4763   21.2999 C   0  0  0  0  0  0
  -28.5682  -23.9968   21.1778 C   0  0  0  0  0  0
  -28.3132  -25.3668   21.1240 C   0  0  0  0  0  0
  -28.5978  -23.3103   22.5279 C   0  0  0  0  0  0
  -28.9019  -22.8244   20.1844 C   0  0  0  0  0  0
  -29.4988  -22.0730   22.3828 C   0  0  0  0  0  0
  -29.4326  -21.6580   20.9866 N   0  0  0  0  0  0
  -27.7184  -17.2518   19.3489 N   0  0  0  0  0  0
  -29.7043  -15.7744   20.6458 N   0  0  0  0  0  0
  -31.6437  -20.1393   21.9699 F   0  0  0  0  0  0
  -31.4829  -12.5920   19.1500 H   0  0  0  0  0  0
  -30.4071  -11.4547   19.9209 H   0  0  0  0  0  0
  -29.7845  -11.7441   17.5012 H   0  0  0  0  0  0
  -29.6368  -13.4687   17.7254 H   0  0  0  0  0  0
  -27.8872  -11.2828   18.8946 H   0  0  0  0  0  0
  -27.3757  -12.5400   17.8013 H   0  0  0  0  0  0
  -27.6474  -14.2463   19.4948 H   0  0  0  0  0  0
  -28.7298  -12.0971   21.3891 H   0  0  0  0  0  0
  -28.4362  -13.7594   21.8265 H   0  0  0  0  0  0
  -25.2758   -9.5683   22.4759 H   0  0  0  0  0  0
  -23.9997   -7.4635   22.7473 H   0  0  0  0  0  0
  -21.0831   -8.8782   19.8957 H   0  0  0  0  0  0
  -22.3691  -10.9679   19.6172 H   0  0  0  0  0  0
  -21.2009   -7.6149   23.9718 H   0  0  0  0  0  0
  -21.1484   -6.0520   25.9079 H   0  0  0  0  0  0
  -22.0594   -2.7606   23.2852 H   0  0  0  0  0  0
  -22.4100  -11.9871   22.4807 H   0  0  0  0  0  0
  -21.1118  -13.1251   22.2645 H   0  0  0  0  0  0
  -24.6444  -15.8327   20.5565 H   0  0  0  0  0  0
  -26.2639  -15.6787   20.1252 H   0  0  0  0  0  0
  -26.7194  -32.5424   23.1088 H   0  0  0  0  0  0
  -25.0072  -33.9699   25.0408 H   0  0  0  0  0  0
  -22.7249  -31.2974   21.3921 H   0  0  0  0  0  0
  -23.3750  -35.9619   23.3302 H   0  0  0  0  0  0
  -24.3579  -36.8906   22.2056 H   0  0  0  0  0  0
  -23.7244  -37.6486   23.6663 H   0  0  0  0  0  0
  -26.1110  -31.5306   20.6081 H   0  0  0  0  0  0
  -26.8508  -30.8237   22.0122 H   0  0  0  0  0  0
  -28.1294  -28.9371   21.2147 H   0  0  0  0  0  0
  -26.0074  -25.8917   19.0314 H   0  0  0  0  0  0
  -23.9817  -27.2913   19.0142 H   0  0  0  0  0  0
  -23.7744  -30.5800   19.4010 H   0  0  0  0  0  0
  -22.7696  -29.2372   19.8541 H   0  0  0  0  0  0
  -25.1297  -36.1921   25.0822 H   0  0  0  0  0  0
  -20.9993  -28.3275   24.1386 H   0  0  0  0  0  0
  -20.5679  -26.2309   23.3612 H   0  0  0  0  0  0
  -21.6653  -26.7430   22.1206 H   0  0  0  0  0  0
  -19.6922  -25.6289   21.1242 H   0  0  0  0  0  0
  -19.6696  -27.3188   20.6738 H   0  0  0  0  0  0
  -17.4209  -26.6670   21.4026 H   0  0  0  0  0  0
  -18.0342  -26.0069   22.9020 H   0  0  0  0  0  0
  -19.7944  -30.7275   24.2260 H   0  0  0  0  0  0
  -17.5018  -31.6263   24.5164 H   0  0  0  0  0  0
  -15.5357  -30.2977   23.7655 H   0  0  0  0  0  0
  -15.8685  -28.0809   22.7071 H   0  0  0  0  0  0
  -24.5892  -30.7097   25.7776 H   0  0  0  0  0  0
  -24.8927  -32.2910   26.4873 H   0  0  0  0  0  0
  -25.8041  -30.8910   27.0224 H   0  0  0  0  0  0
  -26.2935  -29.6744   24.1223 H   0  0  0  0  0  0
  -27.4017  -29.7266   25.4735 H   0  0  0  0  0  0
  -27.8820  -30.4274   23.9467 H   0  0  0  0  0  0
  -27.2658  -33.3630   26.2064 H   0  0  0  0  0  0
  -28.3864  -32.6889   25.0322 H   0  0  0  0  0  0
  -28.0722  -31.8461   26.5414 H   0  0  0  0  0  0
  -28.2598  -38.0094   24.7504 H   0  0  0  0  0  0
  -28.1074  -36.2624   24.6295 H   0  0  0  0  0  0
  -27.2298  -37.1455   25.8867 H   0  0  0  0  0  0
  -20.9407  -29.8748   21.6843 H   0  0  0  0  0  0
  -26.0169  -38.2843   24.1404 H   0  0  0  0  0  0
  -27.7672  -19.9081   19.6131 H   0  0  0  0  0  0
  -31.6146  -17.5673   21.7019 H   0  0  0  0  0  0
  -28.1156  -25.8579   22.0675 H   0  0  0  0  0  0
  -27.5807  -22.9962   22.7671 H   0  0  0  0  0  0
  -28.9350  -23.9707   23.3282 H   0  0  0  0  0  0
  -29.6341  -23.1564   19.4473 H   0  0  0  0  0  0
  -27.9979  -22.5308   19.6493 H   0  0  0  0  0  0
  -29.1851  -21.2809   23.0660 H   0  0  0  0  0  0
  -30.5312  -22.3298   22.6268 H   0  0  0  0  0  0
  -27.0701  -17.7951   18.7887 H   0  0  0  0  0  0
  -28.0613  -16.4616   18.8153 H   0  0  0  0  0  0
  -28.7487  -15.4592   20.7061 H   0  0  0  0  0  0
  1 25  1  0  0  0
  1 30  2  0  0  0
  1 84  1  0  0  0
  2  3  1  0  0  0
  2 25  1  0  0  0
  2 86  1  0  0  0
  2 87  1  0  0  0
  3  4  1  0  0  0
  3 88  1  0  0  0
  3 89  1  0  0  0
  4  5  1  0  0  0
  4 90  1  0  0  0
  4 91  1  0  0  0
  5  6  1  0  0  0
  5 26  1  0  0  0
  5 92  1  0  0  0
  6 25  1  0  0  0
  6 93  1  0  0  0
  6 94  1  0  0  0
  7  8  2  0  0  0
  7 26  1  0  0  0
  7 29  1  0  0  0
  8  9  1  0  0  0
  8 22  1  0  0  0
  9 10  1  0  0  0
  9 27  2  0  0  0
 10 11  2  0  0  0
 10 15  1  0  0  0
 11 12  1  0  0  0
 11 95  1  0  0  0
 12 13  2  0  0  0
 12 96  1  0  0  0
 13 14  1  0  0  0
 13 31  1  0  0  0
 14 15  2  0  0  0
 14 97  1  0  0  0
 15 98  1  0  0  0
 16 17  2  0  0  0
 16 21  1  0  0  0
 16 31  1  0  0  0
 17 18  1  0  0  0
 17 99  1  0  0  0
 18 19  2  0  0  0
 18100  1  0  0  0
 19 20  1  0  0  0
 19 24  1  0  0  0
 20 21  2  0  0  0
 20101  1  0  0  0
 21 23  1  0  0  0
 22 28  1  0  0  0
 22 32  2  0  0  0
 26 27  1  0  0  0
 28102  1  0  0  0
 28103  1  0  0  0
 29104  1  0  0  0
 29105  1  0  0  0
 33 34  1  0  0  0
 33 66  1  0  0  0
 33 70  2  0  0  0
 34 36  1  0  0  0
 34 59  1  0  0  0
 34106  1  0  0  0
 35 44  2  0  0  0
 35 45  1  0  0  0
 35 68  1  0  0  0
 36 56  1  0  0  0
 36107  1  0  0  0
 37 39  1  0  0  0
 37 47  1  0  0  0
 37 66  1  0  0  0
 37108  1  0  0  0
 38 43  2  0  0  0
 38 46  1  0  0  0
 38 47  1  0  0  0
 39 64  1  0  0  0
 39 67  2  0  0  0
 40 52  1  0  0  0
 40 53  2  0  0  0
 40 58  1  0  0  0
 41109  1  0  0  0
 41110  1  0  0  0
 41111  1  0  0  0
 41 48  1  0  0  0
 42 43  1  0  0  0
 42 66  1  0  0  0
 42112  1  0  0  0
 42113  1  0  0  0
 43 44  1  0  0  0
 44114  1  0  0  0
 45 46  2  0  0  0
 45115  1  0  0  0
 46116  1  0  0  0
 47117  1  0  0  0
 47118  1  0  0  0
 48 56  1  0  0  0
 48 65  1  0  0  0
 48119  1  0  0  0
 49 50  1  0  0  0
 49 53  1  0  0  0
 49 64  1  0  0  0
 49120  1  0  0  0
 50 51  1  0  0  0
 50121  1  0  0  0
 50122  1  0  0  0
 51 52  1  0  0  0
 51123  1  0  0  0
 51124  1  0  0  0
 52125  1  0  0  0
 52126  1  0  0  0
 53 54  1  0  0  0
 54 55  2  0  0  0
 54127  1  0  0  0
 55 57  1  0  0  0
 55128  1  0  0  0
 56 69  2  0  0  0
 57 58  2  0  0  0
 57129  1  0  0  0
 58130  1  0  0  0
 59 60  1  0  0  0
 59 61  1  0  0  0
 59 62  1  0  0  0
 60131  1  0  0  0
 60132  1  0  0  0
 60133  1  0  0  0
 61134  1  0  0  0
 61135  1  0  0  0
 61136  1  0  0  0
 62137  1  0  0  0
 62138  1  0  0  0
 62139  1  0  0  0
 63 65  1  0  0  0
 63140  1  0  0  0
 63141  1  0  0  0
 63142  1  0  0  0
 64143  1  0  0  0
 65144  1  0  0  0
 68 78  1  0  0  0
 71 73  2  0  0  0
 71 74  1  0  0  0
 71145  1  0  0  0
 72 75  1  0  0  0
 72 76  2  0  0  0
 72146  1  0  0  0
 73 76  1  0  0  0
 73 82  1  0  0  0
 74 75  2  0  0  0
 74 83  1  0  0  0
 75 84  1  0  0  0
 76 85  1  0  0  0
 77 78  2  0  0  0
 77 79  1  0  0  0
 77 80  1  0  0  0
 78147  1  0  0  0
 79 81  1  0  0  0
 79148  1  0  0  0
 79149  1  0  0  0
 80 82  1  0  0  0
 80150  1  0  0  0
 80151  1  0  0  0
 81 82  1  0  0  0
 81152  1  0  0  0
 81153  1  0  0  0
 83154  1  0  0  0
 83155  1  0  0  0
 84156  1  0  0  0
M  ISO  4   1 100  68 101  78 101  84 100
M  END
> <chiral flag>
0

> <version>
0

> <s_m_source_file>
/data/baiqing/PycharmProjects/Reinvent-master-3.2/result/LINK_invent/BTK/process_docking_weight1_custom_product_contain_oxygen_bond_distance_aromatic_linkinvent_7_9_3/rearranged_h_0094.sdf

> <i_m_source_file_index>
54

> <r_mmod_Potential_Energy-OPLS-2005>
191.870681762695

> <r_mmod_Stretch_Energy-OPLS-2005>
97.5603408813477

> <r_mmod_Bend_Energy-OPLS-2005>
241.553924560547

> <r_mmod_Torsional_Energy-OPLS-2005>
276.575500488281

> <r_mmod_Improper_Torsional_Energy-OPLS-2005>
12.6138896942139

> <r_mmod_Van_der_Waal_Energy-OPLS-2005>
131.779647827148

> <r_mmod_Electrostatic_Energy-OPLS-2005>
-429.324645996094

> <r_mmod_Solvation_Energy-OPLS-2005>
-217.476165771484

> <b_mmod_Minimization_Converged-OPLS-2005>
0

> <r_mmod_RMS_Derivative-OPLS-2005>
0.858051836490631

$$$$
54
                    3D
 Structure written by MMmdl.
160168  0  0  1  0            999 V2000
  -30.7614  -14.3689   20.7453 C   0  0  0  0  0  0
  -30.4107  -12.3115   19.4076 C   0  0  0  0  0  0
  -29.4871  -12.5388   18.1962 C   0  0  0  0  0  0
  -28.0108  -12.3704   18.5988 C   0  0  0  0  0  0
  -27.6529  -13.2008   19.8529 C   0  0  2  0  0  0
  -28.6708  -12.9638   20.9796 C   0  0  0  0  0  0
  -25.2566  -13.8153   20.5591 C   0  0  0  0  0  0
  -24.1835  -13.0430   20.9129 C   0  0  0  0  0  0
  -24.6374  -11.6888   20.8675 C   0  0  0  0  0  0
  -23.9043  -10.4286   21.0387 C   0  0  0  0  0  0
  -24.3602   -9.4216   21.9172 C   0  0  0  0  0  0
  -23.6294   -8.2238   22.0747 C   0  0  0  0  0  0
  -22.4263   -8.0274   21.3551 C   0  0  0  0  0  0
  -21.9901   -9.0231   20.4641 C   0  0  0  0  0  0
  -22.7212  -10.2119   20.3049 C   0  0  0  0  0  0
  -21.6854   -6.0716   22.5282 C   0  0  0  0  0  0
  -21.4006   -6.5630   23.8210 C   0  0  0  0  0  0
  -21.3667   -5.6795   24.9181 C   0  0  0  0  0  0
  -21.6043   -4.3055   24.7234 C   0  0  0  0  0  0
  -21.8828   -3.8138   23.4362 C   0  0  0  0  0  0
  -21.9199   -4.6946   22.3413 C   0  0  0  0  0  0
  -22.7850  -13.5207   21.1854 C   0  0  0  0  0  0
  -22.1667   -4.2137   21.0992 F   0  0  0  0  0  0
  -21.5631   -3.4539   25.7753 F   0  0  0  0  0  0
  -30.0280  -13.2519   20.4769 N   0  0  0  0  0  0
  -26.2961  -12.9301   20.3180 N   0  0  0  0  0  0
  -25.9285  -11.6454   20.5629 N   0  0  0  0  0  0
  -22.0532  -12.8171   22.0419 N   0  0  0  0  0  0
  -25.4363  -15.1876   20.4019 N   0  0  0  0  0  0
  -31.7966  -14.6431   20.1219 O   0  0  0  0  0  0
  -21.6642   -6.8863   21.4239 O   0  0  0  0  0  0
  -22.3505  -14.5518   20.6765 O   0  0  0  0  0  0
  -24.6097  -31.8703   23.2149 C   0  0  0  0  0  0
  -25.9003  -32.4858   23.8417 C   0  0  1  0  0  0
  -27.2367  -27.4543   20.0980 C   0  0  0  0  0  0
  -25.5843  -33.8638   24.2326 N   0  0  0  0  0  0
  -23.3986  -30.4939   21.5565 C   0  0  2  0  0  0
  -24.8453  -28.9739   20.1128 C   0  0  0  0  0  0
  -22.7399  -29.4634   22.5008 C   0  0  0  0  0  0
  -18.0245  -28.1396   22.8508 C   0  0  0  0  0  0
  -24.1483  -36.7337   23.2639 C   0  0  0  0  0  0
  -25.9246  -30.8491   21.3626 C   0  0  0  0  0  0
  -26.0037  -29.4832   20.7128 C   0  0  0  0  0  0
  -27.1988  -28.7280   20.7070 C   0  0  0  0  0  0
  -26.0567  -26.9734   19.4750 C   0  0  0  0  0  0
  -24.8663  -27.7168   19.4908 C   0  0  0  0  0  0
  -23.6030  -29.8303   20.1696 C   0  0  0  0  0  0
  -25.4101  -36.3129   24.0340 C   0  0  1  0  0  0
  -20.5846  -28.3641   23.1358 C   0  0  2  0  0  0
  -20.6731  -26.9384   22.5453 C   0  0  0  0  0  0
  -19.5708  -26.6412   21.5236 C   0  0  0  0  0  0
  -18.1875  -26.7959   22.1623 C   0  0  0  0  0  0
  -19.1513  -28.8831   23.2934 C   0  0  0  0  0  0
  -18.9455  -30.1442   23.8923 C   0  0  0  0  0  0
  -17.6459  -30.6606   24.0564 C   0  0  0  0  0  0
  -25.9012  -34.9489   23.5137 C   0  0  0  0  0  0
  -16.5338  -29.9118   23.6336 C   0  0  0  0  0  0
  -16.7248  -28.6529   23.0346 C   0  0  0  0  0  0
  -26.4440  -31.6628   25.0729 C   0  0  0  0  0  0
  -25.3715  -31.3714   26.1479 C   0  0  0  0  0  0
  -27.0263  -30.3078   24.6077 C   0  0  0  0  0  0
  -27.6017  -32.4327   25.7493 C   0  0  0  0  0  0
  -27.5579  -37.1818   24.8462 C   0  0  0  0  0  0
  -21.4133  -29.2993   22.3773 N   0  0  0  0  0  0
  -26.4295  -37.3811   23.9410 N   0  0  0  0  0  0
  -24.6623  -31.0847   22.1021 N   0  0  0  0  0  0
  -23.4193  -28.8140   23.3001 O   0  0  0  0  0  0
  -28.4132  -26.7234   20.1396 O   0  0  0  0  0  0
  -26.5612  -34.8921   22.4721 O   0  0  0  0  0  0
  -23.5286  -32.1381   23.7580 O   0  0  0  0  0  0
  -29.4052  -18.2822   19.6429 C   0  0  0  0  0  0
  -29.7775  -18.9834   21.9364 C   0  0  0  0  0  0
  -29.6449  -16.9464   20.0072 C   0  0  0  0  0  0
  -30.0071  -17.6370   22.3042 C   0  0  0  0  0  0
  -29.4990  -19.3158   20.5914 C   0  0  0  0  0  0
  -29.9760  -16.5931   21.3405 C   0  0  0  0  0  0
  -29.6821  -21.8245   20.5759 C   0  0  0  0  0  0
  -31.6217  -14.9485   23.8031 C   0  0  0  0  0  0
  -29.2569  -23.0167   19.7102 C   0  0  0  0  0  0
  -29.4340  -24.4371   20.3067 C   0  0  0  0  0  0
  -30.2629  -14.7977   23.1060 C   0  0  0  0  0  0
  -28.3164  -25.3449   19.7709 C   0  0  0  0  0  0
  -29.2528  -20.6360   20.1187 N   0  0  0  0  0  0
  -30.2693  -15.2200   21.6863 N   0  0  0  0  0  0
  -30.3632  -21.9836   21.5914 O   0  0  0  0  0  0
  -31.4535  -12.4201   19.1059 H   0  0  0  0  0  0
  -30.3219  -11.2848   19.7662 H   0  0  0  0  0  0
  -29.7372  -11.8488   17.3897 H   0  0  0  0  0  0
  -29.6487  -13.5431   17.8005 H   0  0  0  0  0  0
  -27.8265  -11.3121   18.7860 H   0  0  0  0  0  0
  -27.3606  -12.6542   17.7710 H   0  0  0  0  0  0
  -27.7097  -14.2501   19.5648 H   0  0  0  0  0  0
  -28.6253  -11.9333   21.3294 H   0  0  0  0  0  0
  -28.3578  -13.5743   21.8226 H   0  0  0  0  0  0
  -25.2748   -9.5686   22.4738 H   0  0  0  0  0  0
  -24.0018   -7.4612   22.7451 H   0  0  0  0  0  0
  -21.0839   -8.8712   19.8931 H   0  0  0  0  0  0
  -22.3659  -10.9637   19.6142 H   0  0  0  0  0  0
  -21.1993   -7.6140   23.9700 H   0  0  0  0  0  0
  -21.1483   -6.0533   25.9079 H   0  0  0  0  0  0
  -22.0615   -2.7611   23.2865 H   0  0  0  0  0  0
  -22.4135  -11.9837   22.4808 H   0  0  0  0  0  0
  -21.1152  -13.1169   22.2634 H   0  0  0  0  0  0
  -24.6854  -15.8570   20.5310 H   0  0  0  0  0  0
  -26.3027  -15.6210   20.1091 H   0  0  0  0  0  0
  -26.7078  -32.5596   23.1199 H   0  0  0  0  0  0
  -24.9969  -33.9812   25.0444 H   0  0  0  0  0  0
  -22.6861  -31.3099   21.4214 H   0  0  0  0  0  0
  -23.3749  -35.9674   23.3311 H   0  0  0  0  0  0
  -24.3562  -36.8940   22.2053 H   0  0  0  0  0  0
  -23.7231  -37.6531   23.6656 H   0  0  0  0  0  0
  -26.0237  -31.6147   20.5910 H   0  0  0  0  0  0
  -26.8183  -30.9108   21.9730 H   0  0  0  0  0  0
  -28.0896  -29.1156   21.1799 H   0  0  0  0  0  0
  -26.0166  -26.0230   18.9671 H   0  0  0  0  0  0
  -23.9779  -27.3253   19.0147 H   0  0  0  0  0  0
  -23.6953  -30.6039   19.4059 H   0  0  0  0  0  0
  -22.7312  -29.2380   19.8816 H   0  0  0  0  0  0
  -25.1278  -36.2011   25.0838 H   0  0  0  0  0  0
  -20.9921  -28.3193   24.1483 H   0  0  0  0  0  0
  -20.5636  -26.2208   23.3619 H   0  0  0  0  0  0
  -21.6585  -26.7422   22.1225 H   0  0  0  0  0  0
  -19.6876  -25.6335   21.1222 H   0  0  0  0  0  0
  -19.6666  -27.3257   20.6785 H   0  0  0  0  0  0
  -17.4150  -26.6684   21.4030 H   0  0  0  0  0  0
  -18.0272  -26.0118   22.9031 H   0  0  0  0  0  0
  -19.7941  -30.7258   24.2286 H   0  0  0  0  0  0
  -17.5017  -31.6299   24.5167 H   0  0  0  0  0  0
  -15.5337  -30.3028   23.7664 H   0  0  0  0  0  0
  -15.8630  -28.0886   22.7054 H   0  0  0  0  0  0
  -24.5904  -30.7048   25.7817 H   0  0  0  0  0  0
  -24.8896  -32.2861   26.4930 H   0  0  0  0  0  0
  -25.8069  -30.8883   27.0235 H   0  0  0  0  0  0
  -26.2800  -29.6868   24.1107 H   0  0  0  0  0  0
  -27.4013  -29.7282   25.4522 H   0  0  0  0  0  0
  -27.8645  -30.4414   23.9225 H   0  0  0  0  0  0
  -27.2654  -33.3629   26.2081 H   0  0  0  0  0  0
  -28.3833  -32.6870   25.0326 H   0  0  0  0  0  0
  -28.0680  -31.8438   26.5401 H   0  0  0  0  0  0
  -28.2593  -38.0114   24.7514 H   0  0  0  0  0  0
  -28.1067  -36.2649   24.6288 H   0  0  0  0  0  0
  -27.2286  -37.1448   25.8854 H   0  0  0  0  0  0
  -20.9259  -29.8766   21.7060 H   0  0  0  0  0  0
  -26.0195  -38.2895   24.1415 H   0  0  0  0  0  0
  -29.1645  -18.5064   18.6138 H   0  0  0  0  0  0
  -29.8143  -19.7484   22.6992 H   0  0  0  0  0  0
  -29.5775  -16.2013   19.2286 H   0  0  0  0  0  0
  -30.2211  -17.4333   23.3424 H   0  0  0  0  0  0
  -31.5138  -14.7661   24.8737 H   0  0  0  0  0  0
  -32.0440  -15.9455   23.6723 H   0  0  0  0  0  0
  -32.3405  -14.2191   23.4275 H   0  0  0  0  0  0
  -28.2004  -22.8553   19.4928 H   0  0  0  0  0  0
  -29.7738  -22.9615   18.7522 H   0  0  0  0  0  0
  -30.4114  -24.8339   20.0327 H   0  0  0  0  0  0
  -29.3947  -24.4201   21.3961 H   0  0  0  0  0  0
  -29.4951  -15.3437   23.6550 H   0  0  0  0  0  0
  -29.9797  -13.7502   23.2059 H   0  0  0  0  0  0
  -27.3950  -24.9213   20.1734 H   0  0  0  0  0  0
  -28.2713  -25.2821   18.6827 H   0  0  0  0  0  0
  -28.7568  -20.6891   19.2395 H   0  0  0  0  0  0
  1 25  1  0  0  0
  1 30  2  0  0  0
  1 84  1  0  0  0
  2  3  1  0  0  0
  2 25  1  0  0  0
  2 86  1  0  0  0
  2 87  1  0  0  0
  3  4  1  0  0  0
  3 88  1  0  0  0
  3 89  1  0  0  0
  4  5  1  0  0  0
  4 90  1  0  0  0
  4 91  1  0  0  0
  5  6  1  0  0  0
  5 26  1  0  0  0
  5 92  1  0  0  0
  6 25  1  0  0  0
  6 93  1  0  0  0
  6 94  1  0  0  0
  7  8  2  0  0  0
  7 26  1  0  0  0
  7 29  1  0  0  0
  8  9  1  0  0  0
  8 22  1  0  0  0
  9 10  1  0  0  0
  9 27  2  0  0  0
 10 11  2  0  0  0
 10 15  1  0  0  0
 11 12  1  0  0  0
 11 95  1  0  0  0
 12 13  2  0  0  0
 12 96  1  0  0  0
 13 14  1  0  0  0
 13 31  1  0  0  0
 14 15  2  0  0  0
 14 97  1  0  0  0
 15 98  1  0  0  0
 16 17  2  0  0  0
 16 21  1  0  0  0
 16 31  1  0  0  0
 17 18  1  0  0  0
 17 99  1  0  0  0
 18 19  2  0  0  0
 18100  1  0  0  0
 19 20  1  0  0  0
 19 24  1  0  0  0
 20 21  2  0  0  0
 20101  1  0  0  0
 21 23  1  0  0  0
 22 28  1  0  0  0
 22 32  2  0  0  0
 26 27  1  0  0  0
 28102  1  0  0  0
 28103  1  0  0  0
 29104  1  0  0  0
 29105  1  0  0  0
 33 34  1  0  0  0
 33 66  1  0  0  0
 33 70  2  0  0  0
 34 36  1  0  0  0
 34 59  1  0  0  0
 34106  1  0  0  0
 35 44  2  0  0  0
 35 45  1  0  0  0
 35 68  1  0  0  0
 36 56  1  0  0  0
 36107  1  0  0  0
 37 39  1  0  0  0
 37 47  1  0  0  0
 37 66  1  0  0  0
 37108  1  0  0  0
 38 43  2  0  0  0
 38 46  1  0  0  0
 38 47  1  0  0  0
 39 64  1  0  0  0
 39 67  2  0  0  0
 40 52  1  0  0  0
 40 53  2  0  0  0
 40 58  1  0  0  0
 41109  1  0  0  0
 41110  1  0  0  0
 41111  1  0  0  0
 41 48  1  0  0  0
 42 43  1  0  0  0
 42 66  1  0  0  0
 42112  1  0  0  0
 42113  1  0  0  0
 43 44  1  0  0  0
 44114  1  0  0  0
 45 46  2  0  0  0
 45115  1  0  0  0
 46116  1  0  0  0
 47117  1  0  0  0
 47118  1  0  0  0
 48 56  1  0  0  0
 48 65  1  0  0  0
 48119  1  0  0  0
 49 50  1  0  0  0
 49 53  1  0  0  0
 49 64  1  0  0  0
 49120  1  0  0  0
 50 51  1  0  0  0
 50121  1  0  0  0
 50122  1  0  0  0
 51 52  1  0  0  0
 51123  1  0  0  0
 51124  1  0  0  0
 52125  1  0  0  0
 52126  1  0  0  0
 53 54  1  0  0  0
 54 55  2  0  0  0
 54127  1  0  0  0
 55 57  1  0  0  0
 55128  1  0  0  0
 56 69  2  0  0  0
 57 58  2  0  0  0
 57129  1  0  0  0
 58130  1  0  0  0
 59 60  1  0  0  0
 59 61  1  0  0  0
 59 62  1  0  0  0
 60131  1  0  0  0
 60132  1  0  0  0
 60133  1  0  0  0
 61134  1  0  0  0
 61135  1  0  0  0
 61136  1  0  0  0
 62137  1  0  0  0
 62138  1  0  0  0
 62139  1  0  0  0
 63 65  1  0  0  0
 63140  1  0  0  0
 63141  1  0  0  0
 63142  1  0  0  0
 64143  1  0  0  0
 65144  1  0  0  0
 68 82  1  0  0  0
 71 73  2  0  0  0
 71 75  1  0  0  0
 71145  1  0  0  0
 72 74  1  0  0  0
 72 75  2  0  0  0
 72146  1  0  0  0
 73 76  1  0  0  0
 73147  1  0  0  0
 74 76  2  0  0  0
 74148  1  0  0  0
 75 83  1  0  0  0
 76 84  1  0  0  0
 77 79  1  0  0  0
 77 83  1  0  0  0
 77 85  2  0  0  0
 78 81  1  0  0  0
 78149  1  0  0  0
 78150  1  0  0  0
 78151  1  0  0  0
 79 80  1  0  0  0
 79152  1  0  0  0
 79153  1  0  0  0
 80 82  1  0  0  0
 80154  1  0  0  0
 80155  1  0  0  0
 81 84  1  0  0  0
 81156  1  0  0  0
 81157  1  0  0  0
 82158  1  0  0  0
 82159  1  0  0  0
 83160  1  0  0  0
M  ISO  4   1 100  68 101  82 101  84 100
M  END
> <chiral flag>
0

> <version>
0

> <s_m_source_file>
/data/baiqing/PycharmProjects/Reinvent-master-3.2/result/LINK_invent/BTK/process_docking_weight1_custom_product_contain_oxygen_bond_distance_aromatic_linkinvent_7_9_3/rearranged_h_0094.sdf

> <i_m_source_file_index>
55

> <r_mmod_Potential_Energy-OPLS-2005>
80.0561447143555

> <r_mmod_Stretch_Energy-OPLS-2005>
39.7954063415527

> <r_mmod_Bend_Energy-OPLS-2005>
111.933242797852

> <r_mmod_Torsional_Energy-OPLS-2005>
285.577484130859

> <r_mmod_Improper_Torsional_Energy-OPLS-2005>
2.3512921333313

> <r_mmod_Van_der_Waal_Energy-OPLS-2005>
175.643356323242

> <r_mmod_Electrostatic_Energy-OPLS-2005>
-328.437530517578

> <r_mmod_Solvation_Energy-OPLS-2005>
-217.212829589844

> <b_mmod_Minimization_Converged-OPLS-2005>
0

> <r_mmod_RMS_Derivative-OPLS-2005>
3.85936427116394

$$$$
55
                    3D
 Structure written by MMmdl.
159168  0  0  1  0            999 V2000
  -30.6475  -14.6599   20.6027 C   0  0  0  0  0  0
  -30.4276  -12.4294   19.4713 C   0  0  0  0  0  0
  -29.5075  -12.5385   18.2369 C   0  0  0  0  0  0
  -28.0316  -12.3510   18.6326 C   0  0  0  0  0  0
  -27.6475  -13.2174   19.8570 C   0  0  2  0  0  0
  -28.6769  -13.0829   20.9934 C   0  0  0  0  0  0
  -25.2547  -13.8146   20.5679 C   0  0  0  0  0  0
  -24.1844  -13.0393   20.9150 C   0  0  0  0  0  0
  -24.6430  -11.6866   20.8743 C   0  0  0  0  0  0
  -23.9094  -10.4260   21.0432 C   0  0  0  0  0  0
  -24.3654   -9.4178   21.9181 C   0  0  0  0  0  0
  -23.6323   -8.2223   22.0741 C   0  0  0  0  0  0
  -22.4292   -8.0272   21.3544 C   0  0  0  0  0  0
  -21.9920   -9.0265   20.4671 C   0  0  0  0  0  0
  -22.7242  -10.2152   20.3107 C   0  0  0  0  0  0
  -21.6863   -6.0730   22.5288 C   0  0  0  0  0  0
  -21.4044   -6.5644   23.8211 C   0  0  0  0  0  0
  -21.3669   -5.6790   24.9166 C   0  0  0  0  0  0
  -21.6035   -4.3047   24.7230 C   0  0  0  0  0  0
  -21.8802   -3.8139   23.4346 C   0  0  0  0  0  0
  -21.9198   -4.6956   22.3400 C   0  0  0  0  0  0
  -22.7855  -13.5174   21.1788 C   0  0  0  0  0  0
  -22.1665   -4.2130   21.0973 F   0  0  0  0  0  0
  -21.5628   -3.4531   25.7749 F   0  0  0  0  0  0
  -30.0000  -13.4481   20.4611 N   0  0  0  0  0  0
  -26.2965  -12.9342   20.3264 N   0  0  0  0  0  0
  -25.9342  -11.6481   20.5721 N   0  0  0  0  0  0
  -22.0443  -12.8245   22.0349 N   0  0  0  0  0  0
  -25.4178  -15.1879   20.4130 N   0  0  0  0  0  0
  -31.7248  -14.8478   20.0284 O   0  0  0  0  0  0
  -21.6644   -6.8870   21.4247 O   0  0  0  0  0  0
  -22.3570  -14.5493   20.6648 O   0  0  0  0  0  0
  -24.6312  -31.8553   23.1971 C   0  0  0  0  0  0
  -25.9098  -32.4770   23.8347 C   0  0  1  0  0  0
  -27.2185  -27.2606   20.1404 C   0  0  0  0  0  0
  -25.5890  -33.8576   24.2284 N   0  0  0  0  0  0
  -23.4298  -30.4719   21.5397 C   0  0  2  0  0  0
  -24.8753  -28.9188   20.1102 C   0  0  0  0  0  0
  -22.7506  -29.4542   22.4902 C   0  0  0  0  0  0
  -18.0286  -28.1360   22.8500 C   0  0  0  0  0  0
  -24.1458  -36.7316   23.2643 C   0  0  0  0  0  0
  -25.9720  -30.7690   21.3718 C   0  0  0  0  0  0
  -26.0399  -29.3851   20.7292 C   0  0  0  0  0  0
  -27.2089  -28.5635   20.7418 C   0  0  0  0  0  0
  -26.0334  -26.8605   19.4858 C   0  0  0  0  0  0
  -24.8800  -27.6680   19.4724 C   0  0  0  0  0  0
  -23.6475  -29.8064   20.1542 C   0  0  0  0  0  0
  -25.4070  -36.3109   24.0352 C   0  0  1  0  0  0
  -20.5887  -28.3659   23.1284 C   0  0  2  0  0  0
  -20.6752  -26.9375   22.5417 C   0  0  0  0  0  0
  -19.5727  -26.6357   21.5214 C   0  0  0  0  0  0
  -18.1905  -26.7913   22.1629 C   0  0  0  0  0  0
  -19.1541  -28.8828   23.2883 C   0  0  0  0  0  0
  -18.9467  -30.1431   23.8898 C   0  0  0  0  0  0
  -17.6462  -30.6578   24.0545 C   0  0  0  0  0  0
  -25.9004  -34.9468   23.5116 C   0  0  0  0  0  0
  -16.5349  -29.9088   23.6299 C   0  0  0  0  0  0
  -16.7265  -28.6484   23.0363 C   0  0  0  0  0  0
  -26.4459  -31.6599   25.0738 C   0  0  0  0  0  0
  -25.3672  -31.3774   26.1457 C   0  0  0  0  0  0
  -27.0287  -30.3028   24.6154 C   0  0  0  0  0  0
  -27.6030  -32.4325   25.7523 C   0  0  0  0  0  0
  -27.5545  -37.1828   24.8460 C   0  0  0  0  0  0
  -21.4207  -29.3039   22.3707 N   0  0  0  0  0  0
  -26.4248  -37.3811   23.9423 N   0  0  0  0  0  0
  -24.6976  -31.0512   22.0934 N   0  0  0  0  0  0
  -23.4214  -28.8043   23.2965 O   0  0  0  0  0  0
  -28.3299  -26.3988   20.2534 O   0  0  0  0  0  0
  -26.5599  -34.8959   22.4699 O   0  0  0  0  0  0
  -23.5441  -32.1342   23.7228 O   0  0  0  0  0  0
  -27.7242  -23.2976   21.4800 C   0  0  0  0  0  0
  -30.2519  -19.5179   21.5699 C   0  0  0  0  0  0
  -28.5012  -18.8968   20.0693 C   0  0  0  0  0  0
  -28.4166  -23.6738   20.2868 C   0  0  0  0  0  0
  -29.1702  -19.9527   20.7539 C   0  0  0  0  0  0
  -30.6097  -18.1395   21.7439 C   0  0  0  0  0  0
  -29.8957  -17.0708   21.1020 C   0  0  0  0  0  0
  -28.8509  -17.5122   20.2310 C   0  0  0  0  0  0
  -27.9092  -21.9530   21.7141 C   0  0  0  0  0  0
  -28.9906  -22.4612   19.8766 C   0  0  0  0  0  0
  -30.2358  -15.2814   22.8657 C   0  0  0  0  0  0
  -28.4509  -25.0845   19.5514 C   0  0  0  0  0  0
  -28.7271  -21.3694   20.7504 N   0  0  0  0  0  0
  -31.6871  -17.8599   22.5932 N   0  0  0  0  0  0
  -30.1075  -15.6270   21.4323 N   0  0  0  0  0  0
  -27.4012  -21.1958   22.7260 O   0  0  0  0  0  0
  -29.7464  -22.2594   18.7627 O   0  0  0  0  0  0
  -28.1112  -16.5810   19.5818 F   0  0  0  0  0  0
  -31.4708  -12.5396   19.1732 H   0  0  0  0  0  0
  -30.3654  -11.4326   19.9112 H   0  0  0  0  0  0
  -29.7983  -11.8052   17.4831 H   0  0  0  0  0  0
  -29.6348  -13.5165   17.7713 H   0  0  0  0  0  0
  -27.8641  -11.2982   18.8609 H   0  0  0  0  0  0
  -27.3858  -12.5854   17.7834 H   0  0  0  0  0  0
  -27.6657  -14.2528   19.5248 H   0  0  0  0  0  0
  -28.6980  -12.0681   21.3918 H   0  0  0  0  0  0
  -28.3475  -13.7111   21.8159 H   0  0  0  0  0  0
  -25.2807   -9.5639   22.4725 H   0  0  0  0  0  0
  -24.0034   -7.4611   22.7451 H   0  0  0  0  0  0
  -21.0834   -8.8794   19.8991 H   0  0  0  0  0  0
  -22.3668  -10.9738   19.6280 H   0  0  0  0  0  0
  -21.2068   -7.6156   23.9717 H   0  0  0  0  0  0
  -21.1504   -6.0533   25.9060 H   0  0  0  0  0  0
  -22.0577   -2.7595   23.2864 H   0  0  0  0  0  0
  -22.3965  -11.9891   22.4800 H   0  0  0  0  0  0
  -21.1058  -13.1364   22.2449 H   0  0  0  0  0  0
  -24.6379  -15.8246   20.5295 H   0  0  0  0  0  0
  -26.2681  -15.6490   20.1058 H   0  0  0  0  0  0
  -26.7153  -32.5455   23.1085 H   0  0  0  0  0  0
  -25.0126  -33.9722   25.0489 H   0  0  0  0  0  0
  -22.7295  -31.2961   21.3896 H   0  0  0  0  0  0
  -23.3728  -35.9640   23.3308 H   0  0  0  0  0  0
  -24.3525  -36.8930   22.2050 H   0  0  0  0  0  0
  -23.7205  -37.6523   23.6653 H   0  0  0  0  0  0
  -26.0885  -31.5103   20.5779 H   0  0  0  0  0  0
  -26.8595  -30.8442   21.9876 H   0  0  0  0  0  0
  -28.0944  -28.9096   21.2563 H   0  0  0  0  0  0
  -25.9482  -25.9008   19.0035 H   0  0  0  0  0  0
  -23.9908  -27.3114   18.9733 H   0  0  0  0  0  0
  -23.7843  -30.5838   19.4028 H   0  0  0  0  0  0
  -22.7690  -29.2439   19.8361 H   0  0  0  0  0  0
  -25.1239  -36.1977   25.0847 H   0  0  0  0  0  0
  -20.9988  -28.3230   24.1401 H   0  0  0  0  0  0
  -20.5613  -26.2275   23.3630 H   0  0  0  0  0  0
  -21.6610  -26.7373   22.1212 H   0  0  0  0  0  0
  -19.6878  -25.6266   21.1253 H   0  0  0  0  0  0
  -19.6657  -27.3157   20.6741 H   0  0  0  0  0  0
  -17.4173  -26.6669   21.4040 H   0  0  0  0  0  0
  -18.0278  -26.0048   22.9016 H   0  0  0  0  0  0
  -19.7927  -30.7240   24.2285 H   0  0  0  0  0  0
  -17.5013  -31.6255   24.5150 H   0  0  0  0  0  0
  -15.5346  -30.3004   23.7595 H   0  0  0  0  0  0
  -15.8658  -28.0783   22.7127 H   0  0  0  0  0  0
  -24.5906  -30.7012   25.7853 H   0  0  0  0  0  0
  -24.8760  -32.2951   26.4743 H   0  0  0  0  0  0
  -25.7994  -30.9128   27.0327 H   0  0  0  0  0  0
  -26.2849  -29.6845   24.1112 H   0  0  0  0  0  0
  -27.3947  -29.7206   25.4618 H   0  0  0  0  0  0
  -27.8730  -30.4342   23.9378 H   0  0  0  0  0  0
  -27.2641  -33.3689   26.1966 H   0  0  0  0  0  0
  -28.3916  -32.6762   25.0395 H   0  0  0  0  0  0
  -28.0568  -31.8507   26.5547 H   0  0  0  0  0  0
  -28.2596  -38.0107   24.7495 H   0  0  0  0  0  0
  -28.1029  -36.2646   24.6291 H   0  0  0  0  0  0
  -27.2279  -37.1466   25.8876 H   0  0  0  0  0  0
  -20.9377  -29.8889   21.7019 H   0  0  0  0  0  0
  -26.0152  -38.2906   24.1423 H   0  0  0  0  0  0
  -27.1250  -23.9586   22.0924 H   0  0  0  0  0  0
  -30.7999  -20.2748   22.1159 H   0  0  0  0  0  0
  -27.6538  -19.1388   19.4442 H   0  0  0  0  0  0
  -29.6490  -15.9536   23.4914 H   0  0  0  0  0  0
  -31.2763  -15.3310   23.1900 H   0  0  0  0  0  0
  -29.9209  -14.2654   23.1082 H   0  0  0  0  0  0
  -29.4431  -25.1294   19.1017 H   0  0  0  0  0  0
  -27.7947  -25.0231   18.6879 H   0  0  0  0  0  0
  -31.7573  -16.9025   22.9222 H   0  0  0  0  0  0
  -31.9160  -18.5314   23.3177 H   0  0  0  0  0  0
  -26.8092  -21.7457   23.2304 H   0  0  0  0  0  0
  -29.7817  -21.3245   18.5892 H   0  0  0  0  0  0
  1 25  1  0  0  0
  1 30  2  0  0  0
  1 85  1  0  0  0
  2  3  1  0  0  0
  2 25  1  0  0  0
  2 89  1  0  0  0
  2 90  1  0  0  0
  3  4  1  0  0  0
  3 91  1  0  0  0
  3 92  1  0  0  0
  4  5  1  0  0  0
  4 93  1  0  0  0
  4 94  1  0  0  0
  5  6  1  0  0  0
  5 26  1  0  0  0
  5 95  1  0  0  0
  6 25  1  0  0  0
  6 96  1  0  0  0
  6 97  1  0  0  0
  7  8  2  0  0  0
  7 26  1  0  0  0
  7 29  1  0  0  0
  8  9  1  0  0  0
  8 22  1  0  0  0
  9 10  1  0  0  0
  9 27  2  0  0  0
 10 11  2  0  0  0
 10 15  1  0  0  0
 11 12  1  0  0  0
 11 98  1  0  0  0
 12 13  2  0  0  0
 12 99  1  0  0  0
 13 14  1  0  0  0
 13 31  1  0  0  0
 14 15  2  0  0  0
 14100  1  0  0  0
 15101  1  0  0  0
 16 17  2  0  0  0
 16 21  1  0  0  0
 16 31  1  0  0  0
 17 18  1  0  0  0
 17102  1  0  0  0
 18 19  2  0  0  0
 18103  1  0  0  0
 19 20  1  0  0  0
 19 24  1  0  0  0
 20 21  2  0  0  0
 20104  1  0  0  0
 21 23  1  0  0  0
 22 28  1  0  0  0
 22 32  2  0  0  0
 26 27  1  0  0  0
 28105  1  0  0  0
 28106  1  0  0  0
 29107  1  0  0  0
 29108  1  0  0  0
 33 34  1  0  0  0
 33 66  1  0  0  0
 33 70  2  0  0  0
 34 36  1  0  0  0
 34 59  1  0  0  0
 34109  1  0  0  0
 35 44  2  0  0  0
 35 45  1  0  0  0
 35 68  1  0  0  0
 36 56  1  0  0  0
 36110  1  0  0  0
 37 39  1  0  0  0
 37 47  1  0  0  0
 37 66  1  0  0  0
 37111  1  0  0  0
 38 43  2  0  0  0
 38 46  1  0  0  0
 38 47  1  0  0  0
 39 64  1  0  0  0
 39 67  2  0  0  0
 40 52  1  0  0  0
 40 53  2  0  0  0
 40 58  1  0  0  0
 41112  1  0  0  0
 41113  1  0  0  0
 41114  1  0  0  0
 41 48  1  0  0  0
 42 43  1  0  0  0
 42 66  1  0  0  0
 42115  1  0  0  0
 42116  1  0  0  0
 43 44  1  0  0  0
 44117  1  0  0  0
 45 46  2  0  0  0
 45118  1  0  0  0
 46119  1  0  0  0
 47120  1  0  0  0
 47121  1  0  0  0
 48 56  1  0  0  0
 48 65  1  0  0  0
 48122  1  0  0  0
 49 50  1  0  0  0
 49 53  1  0  0  0
 49 64  1  0  0  0
 49123  1  0  0  0
 50 51  1  0  0  0
 50124  1  0  0  0
 50125  1  0  0  0
 51 52  1  0  0  0
 51126  1  0  0  0
 51127  1  0  0  0
 52128  1  0  0  0
 52129  1  0  0  0
 53 54  1  0  0  0
 54 55  2  0  0  0
 54130  1  0  0  0
 55 57  1  0  0  0
 55131  1  0  0  0
 56 69  2  0  0  0
 57 58  2  0  0  0
 57132  1  0  0  0
 58133  1  0  0  0
 59 60  1  0  0  0
 59 61  1  0  0  0
 59 62  1  0  0  0
 60134  1  0  0  0
 60135  1  0  0  0
 60136  1  0  0  0
 61137  1  0  0  0
 61138  1  0  0  0
 61139  1  0  0  0
 62140  1  0  0  0
 62141  1  0  0  0
 62142  1  0  0  0
 63 65  1  0  0  0
 63143  1  0  0  0
 63144  1  0  0  0
 63145  1  0  0  0
 64146  1  0  0  0
 65147  1  0  0  0
 68 82  1  0  0  0
 71 74  1  0  0  0
 71 79  2  0  0  0
 71148  1  0  0  0
 72 75  2  0  0  0
 72 76  1  0  0  0
 72149  1  0  0  0
 73 75  1  0  0  0
 73 78  2  0  0  0
 73150  1  0  0  0
 74 80  2  0  0  0
 74 82  1  0  0  0
 75 83  1  0  0  0
 76 77  2  0  0  0
 76 84  1  0  0  0
 77 78  1  0  0  0
 77 85  1  0  0  0
 78 88  1  0  0  0
 79 83  1  0  0  0
 79 86  1  0  0  0
 80 83  1  0  0  0
 80 87  1  0  0  0
 81 85  1  0  0  0
 81151  1  0  0  0
 81152  1  0  0  0
 81153  1  0  0  0
 82154  1  0  0  0
 82155  1  0  0  0
 84156  1  0  0  0
 84157  1  0  0  0
 86158  1  0  0  0
 87159  1  0  0  0
M  ISO  4   1 100  68 101  82 101  85 100
M  END
> <chiral flag>
0

> <version>
0

> <s_m_source_file>
/data/baiqing/PycharmProjects/Reinvent-master-3.2/result/LINK_invent/BTK/process_docking_weight1_custom_product_contain_oxygen_bond_distance_aromatic_linkinvent_7_9_3/rearranged_h_0094.sdf

> <i_m_source_file_index>
56

> <r_mmod_Potential_Energy-OPLS-2005>
265.430999755859

> <r_mmod_Stretch_Energy-OPLS-2005>
110.268836975098

> <r_mmod_Bend_Energy-OPLS-2005>
172.769149780273

> <r_mmod_Torsional_Energy-OPLS-2005>
326.655792236328

> <r_mmod_Improper_Torsional_Energy-OPLS-2005>
8.5209379196167

> <r_mmod_Van_der_Waal_Energy-OPLS-2005>
138.944000244141

> <r_mmod_Electrostatic_Energy-OPLS-2005>
-334.982116699219

> <r_mmod_Solvation_Energy-OPLS-2005>
-223.613311767578

> <b_mmod_Minimization_Converged-OPLS-2005>
0

> <r_mmod_RMS_Derivative-OPLS-2005>
4.72567367553711

$$$$
56
                    3D
 Structure written by MMmdl.
158167  0  0  1  0            999 V2000
  -30.7768  -14.4867   20.4867 C   0  0  0  0  0  0
  -30.3925  -12.3069   19.4442 C   0  0  0  0  0  0
  -29.4893  -12.4953   18.2128 C   0  0  0  0  0  0
  -28.0130  -12.3647   18.6164 C   0  0  0  0  0  0
  -27.6508  -13.2323   19.8570 C   0  0  2  0  0  0
  -28.6983  -13.1139   20.9872 C   0  0  0  0  0  0
  -25.2581  -13.8236   20.5706 C   0  0  0  0  0  0
  -24.1842  -13.0476   20.9204 C   0  0  0  0  0  0
  -24.6461  -11.6961   20.8784 C   0  0  0  0  0  0
  -23.9155  -10.4319   21.0410 C   0  0  0  0  0  0
  -24.3695   -9.4181   21.9165 C   0  0  0  0  0  0
  -23.6338   -8.2240   22.0775 C   0  0  0  0  0  0
  -22.4306   -8.0347   21.3556 C   0  0  0  0  0  0
  -21.9961   -9.0303   20.4636 C   0  0  0  0  0  0
  -22.7328  -10.2162   20.3034 C   0  0  0  0  0  0
  -21.6890   -6.0807   22.5296 C   0  0  0  0  0  0
  -21.3984   -6.5674   23.8231 C   0  0  0  0  0  0
  -21.3649   -5.6810   24.9189 C   0  0  0  0  0  0
  -21.6026   -4.3096   24.7201 C   0  0  0  0  0  0
  -21.8816   -3.8202   23.4329 C   0  0  0  0  0  0
  -21.9183   -4.7030   22.3398 C   0  0  0  0  0  0
  -22.7848  -13.5267   21.1794 C   0  0  0  0  0  0
  -22.1680   -4.2225   21.0970 F   0  0  0  0  0  0
  -21.5608   -3.4564   25.7720 F   0  0  0  0  0  0
  -30.0273  -13.3546   20.4122 N   0  0  0  0  0  0
  -26.3028  -12.9437   20.3352 N   0  0  0  0  0  0
  -25.9396  -11.6553   20.5758 N   0  0  0  0  0  0
  -22.0510  -12.8279   22.0380 N   0  0  0  0  0  0
  -25.4258  -15.1956   20.4219 N   0  0  0  0  0  0
  -31.9525  -14.4991   20.1071 O   0  0  0  0  0  0
  -21.6676   -6.8953   21.4250 O   0  0  0  0  0  0
  -22.3552  -14.5615   20.6739 O   0  0  0  0  0  0
  -24.6082  -31.8710   23.2105 C   0  0  0  0  0  0
  -25.9021  -32.4825   23.8403 C   0  0  1  0  0  0
  -27.2325  -27.4767   20.0942 C   0  0  0  0  0  0
  -25.5863  -33.8646   24.2344 N   0  0  0  0  0  0
  -23.3920  -30.4882   21.5526 C   0  0  2  0  0  0
  -24.8346  -28.9578   20.1176 C   0  0  0  0  0  0
  -22.7360  -29.4659   22.5063 C   0  0  0  0  0  0
  -18.0251  -28.1363   22.8496 C   0  0  0  0  0  0
  -24.1470  -36.7304   23.2625 C   0  0  0  0  0  0
  -25.9119  -30.8483   21.3564 C   0  0  0  0  0  0
  -25.9887  -29.4825   20.7157 C   0  0  0  0  0  0
  -27.1870  -28.7474   20.7027 C   0  0  0  0  0  0
  -26.0581  -26.9440   19.5104 C   0  0  0  0  0  0
  -24.8617  -27.6872   19.5142 C   0  0  0  0  0  0
  -23.5902  -29.8123   20.1685 C   0  0  0  0  0  0
  -25.4103  -36.3110   24.0334 C   0  0  1  0  0  0
  -20.5813  -28.3576   23.1357 C   0  0  2  0  0  0
  -20.6715  -26.9350   22.5452 C   0  0  0  0  0  0
  -19.5724  -26.6385   21.5248 C   0  0  0  0  0  0
  -18.1898  -26.7944   22.1555 C   0  0  0  0  0  0
  -19.1502  -28.8821   23.2913 C   0  0  0  0  0  0
  -18.9443  -30.1444   23.8913 C   0  0  0  0  0  0
  -17.6442  -30.6578   24.0575 C   0  0  0  0  0  0
  -25.9008  -34.9488   23.5125 C   0  0  0  0  0  0
  -16.5327  -29.9068   23.6378 C   0  0  0  0  0  0
  -16.7238  -28.6500   23.0367 C   0  0  0  0  0  0
  -26.4460  -31.6589   25.0693 C   0  0  0  0  0  0
  -25.3765  -31.3793   26.1467 C   0  0  0  0  0  0
  -27.0157  -30.2997   24.6067 C   0  0  0  0  0  0
  -27.6071  -32.4251   25.7397 C   0  0  0  0  0  0
  -27.5603  -37.1776   24.8454 C   0  0  0  0  0  0
  -21.4095  -29.2974   22.3819 N   0  0  0  0  0  0
  -26.4283  -37.3795   23.9451 N   0  0  0  0  0  0
  -24.6553  -31.0802   22.1007 N   0  0  0  0  0  0
  -23.4154  -28.8211   23.3097 O   0  0  0  0  0  0
  -28.4508  -26.8381   20.0998 O   0  0  0  0  0  0
  -26.5602  -34.8910   22.4707 O   0  0  0  0  0  0
  -23.5270  -32.1453   23.7507 O   0  0  0  0  0  0
  -30.8249  -19.4009   21.1396 C   0  0  0  0  0  0
  -30.2802  -20.6885   21.2687 C   0  0  0  0  0  0
  -27.9217  -24.3396   21.6837 C   0  0  0  0  0  0
  -28.0541  -19.7949   20.8367 C   0  0  0  0  0  0
  -30.0043  -18.2896   20.8159 C   0  0  0  0  0  0
  -28.3564  -24.3895   20.3233 C   0  0  0  0  0  0
  -28.8983  -20.8991   21.0938 C   0  0  0  0  0  0
  -28.6074  -18.4940   20.6958 C   0  0  0  0  0  0
  -27.9927  -23.0342   22.0926 C   0  0  0  0  0  0
  -28.5985  -23.0894   19.9691 C   0  0  0  0  0  0
  -30.6623  -17.0014   20.4844 C   0  0  0  0  0  0
  -28.6046  -25.5958   19.4381 C   0  0  0  0  0  0
  -28.4645  -22.2451   21.0594 N   0  0  0  0  0  0
  -30.1332  -15.7656   20.7499 N   0  0  0  0  0  0
  -31.8433  -17.1265   19.8536 N   0  3  0  0  0  0
  -27.7212  -22.4992   23.3159 O   0  0  0  0  0  0
  -29.0179  -22.6056   18.7697 O   0  0  0  0  0  0
  -27.7907  -17.4503   20.3992 F   0  0  0  0  0  0
  -31.4361  -12.3456   19.1377 H   0  0  0  0  0  0
  -30.2452  -11.3206   19.8839 H   0  0  0  0  0  0
  -29.7443  -11.7563   17.4538 H   0  0  0  0  0  0
  -29.6546  -13.4777   17.7648 H   0  0  0  0  0  0
  -27.8245  -11.3106   18.8167 H   0  0  0  0  0  0
  -27.3857  -12.6344   17.7652 H   0  0  0  0  0  0
  -27.6639  -14.2704   19.5250 H   0  0  0  0  0  0
  -28.6587  -12.1197   21.4366 H   0  0  0  0  0  0
  -28.4871  -13.8171   21.7970 H   0  0  0  0  0  0
  -25.2808   -9.5681   22.4788 H   0  0  0  0  0  0
  -24.0041   -7.4641   22.7535 H   0  0  0  0  0  0
  -21.0892   -8.8815   19.8961 H   0  0  0  0  0  0
  -22.3778  -10.9718   19.6196 H   0  0  0  0  0  0
  -21.1978   -7.6204   23.9763 H   0  0  0  0  0  0
  -21.1461   -6.0565   25.9104 H   0  0  0  0  0  0
  -22.0613   -2.7673   23.2823 H   0  0  0  0  0  0
  -22.4106  -11.9930   22.4723 H   0  0  0  0  0  0
  -21.1103  -13.1292   22.2560 H   0  0  0  0  0  0
  -24.6585  -15.8472   20.5425 H   0  0  0  0  0  0
  -26.2805  -15.6498   20.1330 H   0  0  0  0  0  0
  -26.7101  -32.5531   23.1166 H   0  0  0  0  0  0
  -25.0031  -33.9856   25.0511 H   0  0  0  0  0  0
  -22.6829  -31.2999   21.4049 H   0  0  0  0  0  0
  -23.3813  -35.9543   23.3135 H   0  0  0  0  0  0
  -24.3633  -36.9123   22.2107 H   0  0  0  0  0  0
  -23.7086  -37.6385   23.6788 H   0  0  0  0  0  0
  -26.0138  -31.6100   20.5815 H   0  0  0  0  0  0
  -26.8044  -30.9056   21.9692 H   0  0  0  0  0  0
  -28.0882  -29.1481   21.1476 H   0  0  0  0  0  0
  -26.0393  -25.9653   19.0510 H   0  0  0  0  0  0
  -23.9757  -27.2760   19.0521 H   0  0  0  0  0  0
  -23.6607  -30.5808   19.3990 H   0  0  0  0  0  0
  -22.7247  -29.2031   19.8959 H   0  0  0  0  0  0
  -25.1294  -36.1961   25.0835 H   0  0  0  0  0  0
  -20.9903  -28.3131   24.1490 H   0  0  0  0  0  0
  -20.5602  -26.2236   23.3625 H   0  0  0  0  0  0
  -21.6600  -26.7383   22.1216 H   0  0  0  0  0  0
  -19.6873  -25.6244   21.1310 H   0  0  0  0  0  0
  -19.6788  -27.3190   20.6797 H   0  0  0  0  0  0
  -17.4229  -26.6806   21.3907 H   0  0  0  0  0  0
  -18.0203  -26.0032   22.8894 H   0  0  0  0  0  0
  -19.7925  -30.7264   24.2244 H   0  0  0  0  0  0
  -17.4989  -31.6278   24.5128 H   0  0  0  0  0  0
  -15.5326  -30.2944   23.7693 H   0  0  0  0  0  0
  -15.8662  -28.0809   22.7055 H   0  0  0  0  0  0
  -24.5805  -30.7311   25.7836 H   0  0  0  0  0  0
  -24.9127  -32.2973   26.5042 H   0  0  0  0  0  0
  -25.8051  -30.8811   27.0155 H   0  0  0  0  0  0
  -26.2572  -29.6795   24.1244 H   0  0  0  0  0  0
  -27.3989  -29.7253   25.4524 H   0  0  0  0  0  0
  -27.8439  -30.4273   23.9105 H   0  0  0  0  0  0
  -27.2841  -33.3688   26.1813 H   0  0  0  0  0  0
  -28.3948  -32.6546   25.0215 H   0  0  0  0  0  0
  -28.0606  -31.8403   26.5434 H   0  0  0  0  0  0
  -28.2562  -38.0134   24.7579 H   0  0  0  0  0  0
  -28.1165  -36.2664   24.6144 H   0  0  0  0  0  0
  -27.2355  -37.1264   25.8858 H   0  0  0  0  0  0
  -20.9269  -29.8686   21.7019 H   0  0  0  0  0  0
  -26.0179  -38.2848   24.1524 H   0  0  0  0  0  0
  -31.8975  -19.2953   21.2444 H   0  0  0  0  0  0
  -30.9325  -21.5361   21.4405 H   0  0  0  0  0  0
  -27.6387  -25.1766   22.3080 H   0  0  0  0  0  0
  -26.9949  -19.9569   20.6945 H   0  0  0  0  0  0
  -28.0510  -25.5384   18.5012 H   0  0  0  0  0  0
  -29.6583  -25.5464   19.1597 H   0  0  0  0  0  0
  -29.1765  -15.8232   21.0602 H   0  0  0  0  0  0
  -32.2053  -18.0246   19.5775 H   0  0  0  0  0  0
  -32.3625  -16.2778   19.6554 H   0  0  0  0  0  0
  -27.4698  -23.2177   23.8904 H   0  0  0  0  0  0
  -28.8434  -23.2685   18.1129 H   0  0  0  0  0  0
  1 25  1  0  0  0
  1 30  2  0  0  0
  1 84  1  0  0  0
  2  3  1  0  0  0
  2 25  1  0  0  0
  2 89  1  0  0  0
  2 90  1  0  0  0
  3  4  1  0  0  0
  3 91  1  0  0  0
  3 92  1  0  0  0
  4  5  1  0  0  0
  4 93  1  0  0  0
  4 94  1  0  0  0
  5  6  1  0  0  0
  5 26  1  0  0  0
  5 95  1  0  0  0
  6 25  1  0  0  0
  6 96  1  0  0  0
  6 97  1  0  0  0
  7  8  2  0  0  0
  7 26  1  0  0  0
  7 29  1  0  0  0
  8  9  1  0  0  0
  8 22  1  0  0  0
  9 10  1  0  0  0
  9 27  2  0  0  0
 10 11  2  0  0  0
 10 15  1  0  0  0
 11 12  1  0  0  0
 11 98  1  0  0  0
 12 13  2  0  0  0
 12 99  1  0  0  0
 13 14  1  0  0  0
 13 31  1  0  0  0
 14 15  2  0  0  0
 14100  1  0  0  0
 15101  1  0  0  0
 16 17  2  0  0  0
 16 21  1  0  0  0
 16 31  1  0  0  0
 17 18  1  0  0  0
 17102  1  0  0  0
 18 19  2  0  0  0
 18103  1  0  0  0
 19 20  1  0  0  0
 19 24  1  0  0  0
 20 21  2  0  0  0
 20104  1  0  0  0
 21 23  1  0  0  0
 22 28  1  0  0  0
 22 32  2  0  0  0
 26 27  1  0  0  0
 28105  1  0  0  0
 28106  1  0  0  0
 29107  1  0  0  0
 29108  1  0  0  0
 33 34  1  0  0  0
 33 66  1  0  0  0
 33 70  2  0  0  0
 34 36  1  0  0  0
 34 59  1  0  0  0
 34109  1  0  0  0
 35 44  2  0  0  0
 35 45  1  0  0  0
 35 68  1  0  0  0
 36 56  1  0  0  0
 36110  1  0  0  0
 37 39  1  0  0  0
 37 47  1  0  0  0
 37 66  1  0  0  0
 37111  1  0  0  0
 38 43  2  0  0  0
 38 46  1  0  0  0
 38 47  1  0  0  0
 39 64  1  0  0  0
 39 67  2  0  0  0
 40 52  1  0  0  0
 40 53  2  0  0  0
 40 58  1  0  0  0
 41112  1  0  0  0
 41113  1  0  0  0
 41114  1  0  0  0
 41 48  1  0  0  0
 42 43  1  0  0  0
 42 66  1  0  0  0
 42115  1  0  0  0
 42116  1  0  0  0
 43 44  1  0  0  0
 44117  1  0  0  0
 45 46  2  0  0  0
 45118  1  0  0  0
 46119  1  0  0  0
 47120  1  0  0  0
 47121  1  0  0  0
 48 56  1  0  0  0
 48 65  1  0  0  0
 48122  1  0  0  0
 49 50  1  0  0  0
 49 53  1  0  0  0
 49 64  1  0  0  0
 49123  1  0  0  0
 50 51  1  0  0  0
 50124  1  0  0  0
 50125  1  0  0  0
 51 52  1  0  0  0
 51126  1  0  0  0
 51127  1  0  0  0
 52128  1  0  0  0
 52129  1  0  0  0
 53 54  1  0  0  0
 54 55  2  0  0  0
 54130  1  0  0  0
 55 57  1  0  0  0
 55131  1  0  0  0
 56 69  2  0  0  0
 57 58  2  0  0  0
 57132  1  0  0  0
 58133  1  0  0  0
 59 60  1  0  0  0
 59 61  1  0  0  0
 59 62  1  0  0  0
 60134  1  0  0  0
 60135  1  0  0  0
 60136  1  0  0  0
 61137  1  0  0  0
 61138  1  0  0  0
 61139  1  0  0  0
 62140  1  0  0  0
 62141  1  0  0  0
 62142  1  0  0  0
 63 65  1  0  0  0
 63143  1  0  0  0
 63144  1  0  0  0
 63145  1  0  0  0
 64146  1  0  0  0
 65147  1  0  0  0
 68 82  1  0  0  0
 71 72  2  0  0  0
 71 75  1  0  0  0
 71148  1  0  0  0
 72 77  1  0  0  0
 72149  1  0  0  0
 73 76  1  0  0  0
 73 79  2  0  0  0
 73150  1  0  0  0
 74 77  2  0  0  0
 74 78  1  0  0  0
 74151  1  0  0  0
 75 78  2  0  0  0
 75 81  1  0  0  0
 76 80  2  0  0  0
 76 82  1  0  0  0
 77 83  1  0  0  0
 78 88  1  0  0  0
 79 83  1  0  0  0
 79 86  1  0  0  0
 80 83  1  0  0  0
 80 87  1  0  0  0
 81 84  1  0  0  0
 81 85  2  0  0  0
 82152  1  0  0  0
 82153  1  0  0  0
 84154  1  0  0  0
 85155  1  0  0  0
 85156  1  0  0  0
 86157  1  0  0  0
 87158  1  0  0  0
M  CHG  1  85   1
M  ISO  4   1 100  68 101  82 101  84 100
M  END
> <chiral flag>
0

> <version>
0

> <s_m_source_file>
/data/baiqing/PycharmProjects/Reinvent-master-3.2/result/LINK_invent/BTK/process_docking_weight1_custom_product_contain_oxygen_bond_distance_aromatic_linkinvent_7_9_3/rearranged_h_0094.sdf

> <i_m_source_file_index>
57

> <r_mmod_Potential_Energy-OPLS-2005>
-198.107009887695

> <r_mmod_Stretch_Energy-OPLS-2005>
37.1882820129395

> <r_mmod_Bend_Energy-OPLS-2005>
123.953086853027

> <r_mmod_Torsional_Energy-OPLS-2005>
231.319229125977

> <r_mmod_Improper_Torsional_Energy-OPLS-2005>
8.32226943969727

> <r_mmod_Van_der_Waal_Energy-OPLS-2005>
169.44563293457

> <r_mmod_Electrostatic_Energy-OPLS-2005>
-373.956787109375

> <r_mmod_Solvation_Energy-OPLS-2005>
-419.743133544922

> <b_mmod_Minimization_Converged-OPLS-2005>
0

> <r_mmod_RMS_Derivative-OPLS-2005>
8.95041561126709

$$$$
57
                    3D
 Structure written by MMmdl.
159168  0  0  1  0            999 V2000
  -30.6910  -14.5140   20.5487 C   0  0  0  0  0  0
  -30.4288  -12.3286   19.4168 C   0  0  0  0  0  0
  -29.4993  -12.5090   18.1995 C   0  0  0  0  0  0
  -28.0210  -12.3564   18.6124 C   0  0  0  0  0  0
  -27.6547  -13.2111   19.8584 C   0  0  2  0  0  0
  -28.7003  -13.0228   20.9798 C   0  0  0  0  0  0
  -25.2570  -13.8159   20.5686 C   0  0  0  0  0  0
  -24.1843  -13.0419   20.9194 C   0  0  0  0  0  0
  -24.6414  -11.6890   20.8745 C   0  0  0  0  0  0
  -23.9062  -10.4291   21.0404 C   0  0  0  0  0  0
  -24.3600   -9.4205   21.9187 C   0  0  0  0  0  0
  -23.6272   -8.2250   22.0774 C   0  0  0  0  0  0
  -22.4262   -8.0296   21.3560 C   0  0  0  0  0  0
  -21.9894   -9.0283   20.4673 C   0  0  0  0  0  0
  -22.7223  -10.2162   20.3067 C   0  0  0  0  0  0
  -21.6870   -6.0731   22.5284 C   0  0  0  0  0  0
  -21.4017   -6.5630   23.8217 C   0  0  0  0  0  0
  -21.3652   -5.6776   24.9172 C   0  0  0  0  0  0
  -21.6039   -4.3037   24.7217 C   0  0  0  0  0  0
  -21.8816   -3.8134   23.4338 C   0  0  0  0  0  0
  -21.9202   -4.6955   22.3399 C   0  0  0  0  0  0
  -22.7869  -13.5221   21.1843 C   0  0  0  0  0  0
  -22.1660   -4.2125   21.0977 F   0  0  0  0  0  0
  -21.5627   -3.4513   25.7721 F   0  0  0  0  0  0
  -30.0255  -13.3292   20.4180 N   0  0  0  0  0  0
  -26.3003  -12.9345   20.3291 N   0  0  0  0  0  0
  -25.9339  -11.6502   20.5740 N   0  0  0  0  0  0
  -22.0509  -12.8250   22.0410 N   0  0  0  0  0  0
  -25.4229  -15.1900   20.4130 N   0  0  0  0  0  0
  -31.8584  -14.6668   20.1848 O   0  0  0  0  0  0
  -21.6644   -6.8883   21.4253 O   0  0  0  0  0  0
  -22.3558  -14.5510   20.6664 O   0  0  0  0  0  0
  -24.6217  -31.8658   23.2091 C   0  0  0  0  0  0
  -25.9076  -32.4809   23.8423 C   0  0  1  0  0  0
  -27.2053  -27.3757   20.1146 C   0  0  0  0  0  0
  -25.5913  -33.8607   24.2336 N   0  0  0  0  0  0
  -23.4140  -30.4966   21.5465 C   0  0  2  0  0  0
  -24.8568  -28.9723   20.1040 C   0  0  0  0  0  0
  -22.7471  -29.4677   22.4899 C   0  0  0  0  0  0
  -18.0303  -28.1388   22.8487 C   0  0  0  0  0  0
  -24.1479  -36.7290   23.2642 C   0  0  0  0  0  0
  -25.9539  -30.8130   21.3819 C   0  0  0  0  0  0
  -26.0228  -29.4523   20.7138 C   0  0  0  0  0  0
  -27.2044  -28.6650   20.7073 C   0  0  0  0  0  0
  -26.0156  -26.9349   19.4844 C   0  0  0  0  0  0
  -24.8531  -27.7204   19.4751 C   0  0  0  0  0  0
  -23.6262  -29.8462   20.1564 C   0  0  0  0  0  0
  -25.4109  -36.3108   24.0349 C   0  0  1  0  0  0
  -20.5896  -28.3713   23.1261 C   0  0  2  0  0  0
  -20.6787  -26.9426   22.5405 C   0  0  0  0  0  0
  -19.5757  -26.6395   21.5207 C   0  0  0  0  0  0
  -18.1941  -26.7933   22.1630 C   0  0  0  0  0  0
  -19.1547  -28.8864   23.2886 C   0  0  0  0  0  0
  -18.9466  -30.1452   23.8939 C   0  0  0  0  0  0
  -17.6464  -30.6592   24.0574 C   0  0  0  0  0  0
  -25.9052  -34.9471   23.5150 C   0  0  0  0  0  0
  -16.5361  -29.9101   23.6312 C   0  0  0  0  0  0
  -16.7292  -28.6506   23.0361 C   0  0  0  0  0  0
  -26.4476  -31.6609   25.0779 C   0  0  0  0  0  0
  -25.3710  -31.3750   26.1512 C   0  0  0  0  0  0
  -27.0313  -30.3035   24.6233 C   0  0  0  0  0  0
  -27.6090  -32.4334   25.7481 C   0  0  0  0  0  0
  -27.5586  -37.1805   24.8475 C   0  0  0  0  0  0
  -21.4191  -29.3056   22.3625 N   0  0  0  0  0  0
  -26.4304  -37.3784   23.9404 N   0  0  0  0  0  0
  -24.6802  -31.0745   22.1010 N   0  0  0  0  0  0
  -23.4207  -28.8211   23.2966 O   0  0  0  0  0  0
  -28.3272  -26.5564   20.1801 O   0  0  0  0  0  0
  -26.5604  -34.8926   22.4704 O   0  0  0  0  0  0
  -23.5394  -32.1431   23.7437 O   0  0  0  0  0  0
  -29.7020  -17.9787   20.4362 C   0  0  0  0  0  0
  -31.1673  -19.0941   21.8349 C   0  0  0  0  0  0
  -30.2444  -19.2564   20.8276 C   0  0  0  0  0  0
  -30.2591  -16.8756   21.0450 C   0  0  0  0  0  0
  -30.4919  -24.6206   20.5113 C   0  0  0  0  0  0
  -29.2195  -24.1880   20.5476 C   0  0  0  0  0  0
  -28.9261  -22.7549   20.7815 C   0  0  0  0  0  0
  -31.7018  -23.7487   20.7534 C   0  0  0  0  0  0
  -31.3376  -22.3053   21.1519 C   0  0  0  0  0  0
  -30.5632  -20.5592   18.7245 C   0  0  0  0  0  0
  -28.0460  -25.1255   20.2109 C   0  0  0  0  0  0
  -29.8457  -20.5379   20.0866 C   0  0  2  0  0  0
  -29.9910  -21.8905   20.7186 N   0  0  0  0  0  0
  -29.9016  -15.5693   20.8577 N   0  0  0  0  0  0
  -27.7720  -22.3317   20.8955 O   0  0  0  0  0  0
  -31.4569  -17.4030   22.2035 S   0  0  0  0  0  0
  -31.4709  -12.4377   19.1098 H   0  0  0  0  0  0
  -30.3370  -11.3211   19.8263 H   0  0  0  0  0  0
  -29.7466  -11.7860   17.4227 H   0  0  0  0  0  0
  -29.6637  -13.4959   17.7610 H   0  0  0  0  0  0
  -27.8519  -11.3008   18.8283 H   0  0  0  0  0  0
  -27.3686  -12.6012   17.7738 H   0  0  0  0  0  0
  -27.6834  -14.2523   19.5385 H   0  0  0  0  0  0
  -28.6875  -11.9975   21.3468 H   0  0  0  0  0  0
  -28.4657  -13.6501   21.8429 H   0  0  0  0  0  0
  -25.2777   -9.5631   22.4717 H   0  0  0  0  0  0
  -23.9983   -7.4625   22.7481 H   0  0  0  0  0  0
  -21.0832   -8.8802   19.8986 H   0  0  0  0  0  0
  -22.3711  -10.9689   19.6142 H   0  0  0  0  0  0
  -21.2022   -7.6148   23.9710 H   0  0  0  0  0  0
  -21.1473   -6.0515   25.9068 H   0  0  0  0  0  0
  -22.0609   -2.7601   23.2857 H   0  0  0  0  0  0
  -22.4100  -11.9911   22.4822 H   0  0  0  0  0  0
  -21.1158  -13.1344   22.2637 H   0  0  0  0  0  0
  -24.6463  -15.8355   20.5094 H   0  0  0  0  0  0
  -26.2617  -15.6405   20.0714 H   0  0  0  0  0  0
  -26.7155  -32.5513   23.1201 H   0  0  0  0  0  0
  -25.0041  -33.9742   25.0463 H   0  0  0  0  0  0
  -22.7073  -31.3163   21.4092 H   0  0  0  0  0  0
  -23.3738  -35.9633   23.3343 H   0  0  0  0  0  0
  -24.3563  -36.8851   22.2049 H   0  0  0  0  0  0
  -23.7241  -37.6517   23.6607 H   0  0  0  0  0  0
  -26.1032  -31.5836   20.6255 H   0  0  0  0  0  0
  -26.8284  -30.8392   22.0204 H   0  0  0  0  0  0
  -28.1017  -29.0177   21.1957 H   0  0  0  0  0  0
  -25.9450  -25.9764   18.9958 H   0  0  0  0  0  0
  -23.9594  -27.3569   18.9866 H   0  0  0  0  0  0
  -23.7467  -30.6270   19.4052 H   0  0  0  0  0  0
  -22.7490  -29.2768   19.8460 H   0  0  0  0  0  0
  -25.1283  -36.2003   25.0851 H   0  0  0  0  0  0
  -21.0021  -28.3312   24.1370 H   0  0  0  0  0  0
  -20.5685  -26.2332   23.3619 H   0  0  0  0  0  0
  -21.6654  -26.7448   22.1193 H   0  0  0  0  0  0
  -19.6915  -25.6307   21.1227 H   0  0  0  0  0  0
  -19.6691  -27.3214   20.6737 H   0  0  0  0  0  0
  -17.4203  -26.6681   21.4037 H   0  0  0  0  0  0
  -18.0357  -26.0087   22.9046 H   0  0  0  0  0  0
  -19.7941  -30.7229   24.2383 H   0  0  0  0  0  0
  -17.5022  -31.6270   24.5172 H   0  0  0  0  0  0
  -15.5362  -30.3023   23.7597 H   0  0  0  0  0  0
  -15.8700  -28.0823   22.7088 H   0  0  0  0  0  0
  -24.5864  -30.7141   25.7802 H   0  0  0  0  0  0
  -24.8934  -32.2927   26.4964 H   0  0  0  0  0  0
  -25.8023  -30.8875   27.0263 H   0  0  0  0  0  0
  -26.2885  -29.6790   24.1270 H   0  0  0  0  0  0
  -27.4003  -29.7312   25.4748 H   0  0  0  0  0  0
  -27.8756  -30.4317   23.9464 H   0  0  0  0  0  0
  -27.2758  -33.3635   26.2091 H   0  0  0  0  0  0
  -28.3832  -32.6898   25.0233 H   0  0  0  0  0  0
  -28.0829  -31.8447   26.5345 H   0  0  0  0  0  0
  -28.2652  -38.0057   24.7484 H   0  0  0  0  0  0
  -28.1031  -36.2596   24.6342 H   0  0  0  0  0  0
  -27.2296  -37.1503   25.8878 H   0  0  0  0  0  0
  -20.9375  -29.8759   21.6815 H   0  0  0  0  0  0
  -26.0205  -38.2873   24.1388 H   0  0  0  0  0  0
  -28.9408  -17.9173   19.6683 H   0  0  0  0  0  0
  -31.7406  -19.8515   22.3554 H   0  0  0  0  0  0
  -30.6926  -25.6536   20.2658 H   0  0  0  0  0  0
  -32.3082  -24.2222   21.5255 H   0  0  0  0  0  0
  -32.3008  -23.7398   19.8423 H   0  0  0  0  0  0
  -31.3796  -22.2165   22.2380 H   0  0  0  0  0  0
  -32.1070  -21.6335   20.7711 H   0  0  0  0  0  0
  -30.3690  -19.6417   18.1693 H   0  0  0  0  0  0
  -31.6447  -20.6341   18.8432 H   0  0  0  0  0  0
  -30.2347  -21.3941   18.1061 H   0  0  0  0  0  0
  -27.2484  -24.9340   20.9331 H   0  0  0  0  0  0
  -27.6884  -24.7984   19.2327 H   0  0  0  0  0  0
  -28.7910  -20.4110   19.8338 H   0  0  0  0  0  0
  -28.9152  -15.3697   20.8683 H   0  0  0  0  0  0
  1 25  1  0  0  0
  1 30  2  0  0  0
  1 84  1  0  0  0
  2  3  1  0  0  0
  2 25  1  0  0  0
  2 87  1  0  0  0
  2 88  1  0  0  0
  3  4  1  0  0  0
  3 89  1  0  0  0
  3 90  1  0  0  0
  4  5  1  0  0  0
  4 91  1  0  0  0
  4 92  1  0  0  0
  5  6  1  0  0  0
  5 26  1  0  0  0
  5 93  1  0  0  0
  6 25  1  0  0  0
  6 94  1  0  0  0
  6 95  1  0  0  0
  7  8  2  0  0  0
  7 26  1  0  0  0
  7 29  1  0  0  0
  8  9  1  0  0  0
  8 22  1  0  0  0
  9 10  1  0  0  0
  9 27  2  0  0  0
 10 11  2  0  0  0
 10 15  1  0  0  0
 11 12  1  0  0  0
 11 96  1  0  0  0
 12 13  2  0  0  0
 12 97  1  0  0  0
 13 14  1  0  0  0
 13 31  1  0  0  0
 14 15  2  0  0  0
 14 98  1  0  0  0
 15 99  1  0  0  0
 16 17  2  0  0  0
 16 21  1  0  0  0
 16 31  1  0  0  0
 17 18  1  0  0  0
 17100  1  0  0  0
 18 19  2  0  0  0
 18101  1  0  0  0
 19 20  1  0  0  0
 19 24  1  0  0  0
 20 21  2  0  0  0
 20102  1  0  0  0
 21 23  1  0  0  0
 22 28  1  0  0  0
 22 32  2  0  0  0
 26 27  1  0  0  0
 28103  1  0  0  0
 28104  1  0  0  0
 29105  1  0  0  0
 29106  1  0  0  0
 33 34  1  0  0  0
 33 66  1  0  0  0
 33 70  2  0  0  0
 34 36  1  0  0  0
 34 59  1  0  0  0
 34107  1  0  0  0
 35 44  2  0  0  0
 35 45  1  0  0  0
 35 68  1  0  0  0
 36 56  1  0  0  0
 36108  1  0  0  0
 37 39  1  0  0  0
 37 47  1  0  0  0
 37 66  1  0  0  0
 37109  1  0  0  0
 38 43  2  0  0  0
 38 46  1  0  0  0
 38 47  1  0  0  0
 39 64  1  0  0  0
 39 67  2  0  0  0
 40 52  1  0  0  0
 40 53  2  0  0  0
 40 58  1  0  0  0
 41110  1  0  0  0
 41111  1  0  0  0
 41112  1  0  0  0
 41 48  1  0  0  0
 42 43  1  0  0  0
 42 66  1  0  0  0
 42113  1  0  0  0
 42114  1  0  0  0
 43 44  1  0  0  0
 44115  1  0  0  0
 45 46  2  0  0  0
 45116  1  0  0  0
 46117  1  0  0  0
 47118  1  0  0  0
 47119  1  0  0  0
 48 56  1  0  0  0
 48 65  1  0  0  0
 48120  1  0  0  0
 49 50  1  0  0  0
 49 53  1  0  0  0
 49 64  1  0  0  0
 49121  1  0  0  0
 50 51  1  0  0  0
 50122  1  0  0  0
 50123  1  0  0  0
 51 52  1  0  0  0
 51124  1  0  0  0
 51125  1  0  0  0
 52126  1  0  0  0
 52127  1  0  0  0
 53 54  1  0  0  0
 54 55  2  0  0  0
 54128  1  0  0  0
 55 57  1  0  0  0
 55129  1  0  0  0
 56 69  2  0  0  0
 57 58  2  0  0  0
 57130  1  0  0  0
 58131  1  0  0  0
 59 60  1  0  0  0
 59 61  1  0  0  0
 59 62  1  0  0  0
 60132  1  0  0  0
 60133  1  0  0  0
 60134  1  0  0  0
 61135  1  0  0  0
 61136  1  0  0  0
 61137  1  0  0  0
 62138  1  0  0  0
 62139  1  0  0  0
 62140  1  0  0  0
 63 65  1  0  0  0
 63141  1  0  0  0
 63142  1  0  0  0
 63143  1  0  0  0
 64144  1  0  0  0
 65145  1  0  0  0
 68 81  1  0  0  0
 71 73  1  0  0  0
 71 74  2  0  0  0
 71146  1  0  0  0
 72 73  2  0  0  0
 72 86  1  0  0  0
 72147  1  0  0  0
 73 82  1  0  0  0
 74 84  1  0  0  0
 74 86  1  0  0  0
 75 76  2  0  0  0
 75 78  1  0  0  0
 75148  1  0  0  0
 76 77  1  0  0  0
 76 81  1  0  0  0
 77 83  1  0  0  0
 77 85  2  0  0  0
 78 79  1  0  0  0
 78149  1  0  0  0
 78150  1  0  0  0
 79 83  1  0  0  0
 79151  1  0  0  0
 79152  1  0  0  0
 80153  1  0  0  0
 80154  1  0  0  0
 80155  1  0  0  0
 80 82  1  0  0  0
 81156  1  0  0  0
 81157  1  0  0  0
 82 83  1  0  0  0
 82158  1  0  0  0
 84159  1  0  0  0
M  ISO  4   1 100  68 101  81 101  84 100
M  END
> <chiral flag>
0

> <version>
0

> <s_m_source_file>
/data/baiqing/PycharmProjects/Reinvent-master-3.2/result/LINK_invent/BTK/process_docking_weight1_custom_product_contain_oxygen_bond_distance_aromatic_linkinvent_7_9_3/rearranged_h_0094.sdf

> <i_m_source_file_index>
58

> <r_mmod_Potential_Energy-OPLS-2005>
24.909351348877

> <r_mmod_Stretch_Energy-OPLS-2005>
51.0636863708496

> <r_mmod_Bend_Energy-OPLS-2005>
121.014366149902

> <r_mmod_Torsional_Energy-OPLS-2005>
267.988677978516

> <r_mmod_Improper_Torsional_Energy-OPLS-2005>
7.91121530532837

> <r_mmod_Van_der_Waal_Energy-OPLS-2005>
151.496597290039

> <r_mmod_Electrostatic_Energy-OPLS-2005>
-377.640045166016

> <r_mmod_Solvation_Energy-OPLS-2005>
-224.632888793945

> <b_mmod_Minimization_Converged-OPLS-2005>
0

> <r_mmod_RMS_Derivative-OPLS-2005>
4.94858169555664

$$$$
58
                    3D
 Structure written by MMmdl.
158167  0  0  1  0            999 V2000
  -30.6068  -14.6714   20.4792 C   0  0  0  0  0  0
  -30.4455  -12.4103   19.4463 C   0  0  0  0  0  0
  -29.5105  -12.5167   18.2205 C   0  0  0  0  0  0
  -28.0326  -12.3521   18.6333 C   0  0  0  0  0  0
  -27.6534  -13.2183   19.8640 C   0  0  2  0  0  0
  -28.7042  -13.0805   20.9895 C   0  0  0  0  0  0
  -25.2569  -13.8174   20.5728 C   0  0  0  0  0  0
  -24.1831  -13.0426   20.9184 C   0  0  0  0  0  0
  -24.6408  -11.6899   20.8725 C   0  0  0  0  0  0
  -23.9078  -10.4284   21.0392 C   0  0  0  0  0  0
  -24.3624   -9.4204   21.9173 C   0  0  0  0  0  0
  -23.6290   -8.2240   22.0748 C   0  0  0  0  0  0
  -22.4268   -8.0288   21.3549 C   0  0  0  0  0  0
  -21.9909   -9.0265   20.4649 C   0  0  0  0  0  0
  -22.7248  -10.2133   20.3047 C   0  0  0  0  0  0
  -21.6860   -6.0734   22.5279 C   0  0  0  0  0  0
  -21.4022   -6.5628   23.8217 C   0  0  0  0  0  0
  -21.3655   -5.6777   24.9176 C   0  0  0  0  0  0
  -21.6043   -4.3042   24.7221 C   0  0  0  0  0  0
  -21.8820   -3.8138   23.4340 C   0  0  0  0  0  0
  -21.9198   -4.6962   22.3398 C   0  0  0  0  0  0
  -22.7850  -13.5219   21.1846 C   0  0  0  0  0  0
  -22.1665   -4.2150   21.0976 F   0  0  0  0  0  0
  -21.5623   -3.4524   25.7729 F   0  0  0  0  0  0
  -30.0140  -13.4341   20.4184 N   0  0  0  0  0  0
  -26.3001  -12.9360   20.3346 N   0  0  0  0  0  0
  -25.9341  -11.6506   20.5743 N   0  0  0  0  0  0
  -22.0488  -12.8232   22.0412 N   0  0  0  0  0  0
  -25.4192  -15.1914   20.4244 N   0  0  0  0  0  0
  -31.7787  -14.8357   20.1313 O   0  0  0  0  0  0
  -21.6638   -6.8881   21.4245 O   0  0  0  0  0  0
  -22.3534  -14.5529   20.6698 O   0  0  0  0  0  0
  -24.6278  -31.8585   23.2015 C   0  0  0  0  0  0
  -25.9119  -32.4774   23.8344 C   0  0  1  0  0  0
  -27.2265  -27.3076   20.1311 C   0  0  0  0  0  0
  -25.5933  -33.8574   24.2273 N   0  0  0  0  0  0
  -23.4231  -30.4811   21.5440 C   0  0  2  0  0  0
  -24.8742  -28.9371   20.1109 C   0  0  0  0  0  0
  -22.7484  -29.4608   22.4922 C   0  0  0  0  0  0
  -18.0285  -28.1390   22.8483 C   0  0  0  0  0  0
  -24.1495  -36.7281   23.2639 C   0  0  0  0  0  0
  -25.9654  -30.7889   21.3741 C   0  0  0  0  0  0
  -26.0436  -29.4144   20.7181 C   0  0  0  0  0  0
  -27.2264  -28.6124   20.7176 C   0  0  0  0  0  0
  -26.0411  -26.8944   19.4845 C   0  0  0  0  0  0
  -24.8759  -27.6828   19.4829 C   0  0  0  0  0  0
  -23.6403  -29.8158   20.1599 C   0  0  0  0  0  0
  -25.4118  -36.3076   24.0328 C   0  0  1  0  0  0
  -20.5889  -28.3694   23.1278 C   0  0  2  0  0  0
  -20.6776  -26.9410   22.5421 C   0  0  0  0  0  0
  -19.5763  -26.6385   21.5210 C   0  0  0  0  0  0
  -18.1933  -26.7938   22.1608 C   0  0  0  0  0  0
  -19.1538  -28.8859   23.2879 C   0  0  0  0  0  0
  -18.9462  -30.1460   23.8899 C   0  0  0  0  0  0
  -17.6463  -30.6594   24.0562 C   0  0  0  0  0  0
  -25.9054  -34.9447   23.5097 C   0  0  0  0  0  0
  -16.5352  -29.9094   23.6329 C   0  0  0  0  0  0
  -16.7271  -28.6508   23.0354 C   0  0  0  0  0  0
  -26.4500  -31.6587   25.0716 C   0  0  0  0  0  0
  -25.3731  -31.3738   26.1442 C   0  0  0  0  0  0
  -27.0321  -30.3002   24.6168 C   0  0  0  0  0  0
  -27.6073  -32.4308   25.7484 C   0  0  0  0  0  0
  -27.5583  -37.1797   24.8454 C   0  0  0  0  0  0
  -21.4193  -29.3041   22.3666 N   0  0  0  0  0  0
  -26.4291  -37.3772   23.9405 N   0  0  0  0  0  0
  -24.6908  -31.0588   22.0970 N   0  0  0  0  0  0
  -23.4195  -28.8135   23.3000 O   0  0  0  0  0  0
  -28.3116  -26.4145   20.1717 O   0  0  0  0  0  0
  -26.5619  -34.8916   22.4663 O   0  0  0  0  0  0
  -23.5434  -32.1379   23.7337 O   0  0  0  0  0  0
  -30.1853  -23.7275   19.9059 C   0  0  0  0  0  0
  -28.6241  -19.2541   19.9290 C   0  0  0  0  0  0
  -30.7758  -19.4228   20.9822 C   0  0  0  0  0  0
  -28.8678  -23.7967   20.4457 C   0  0  0  0  0  0
  -29.6505  -20.1003   20.4264 C   0  0  0  0  0  0
  -28.7110  -17.8291   19.9934 C   0  0  0  0  0  0
  -29.8308  -17.1610   20.5644 C   0  0  0  0  0  0
  -30.8690  -17.9972   21.0600 C   0  0  0  0  0  0
  -28.5266  -22.4595   20.6900 C   0  0  0  0  0  0
  -30.5733  -22.4119   19.8485 C   0  0  0  0  0  0
  -27.2523  -21.9273   21.2711 C   0  0  0  0  0  0
  -28.0112  -25.0829   20.7648 C   0  0  0  0  0  0
  -29.5761  -21.5709   20.3326 N   0  0  0  0  0  0
  -27.6695  -17.0598   19.4634 N   0  0  0  0  0  0
  -29.7510  -15.7092   20.7353 N   0  0  0  0  0  0
  -31.7493  -21.9032   19.3917 O   0  0  0  0  0  0
  -31.9507  -17.4429   21.6595 F   0  0  0  0  0  0
  -31.4853  -12.5448   19.1419 H   0  0  0  0  0  0
  -30.3878  -11.4163   19.8911 H   0  0  0  0  0  0
  -29.7765  -11.7668   17.4746 H   0  0  0  0  0  0
  -29.6513  -13.4870   17.7396 H   0  0  0  0  0  0
  -27.8687  -11.2977   18.8591 H   0  0  0  0  0  0
  -27.3795  -12.5901   17.7923 H   0  0  0  0  0  0
  -27.6630  -14.2507   19.5189 H   0  0  0  0  0  0
  -28.7261  -12.0593   21.3722 H   0  0  0  0  0  0
  -28.4517  -13.7132   21.8419 H   0  0  0  0  0  0
  -25.2769   -9.5677   22.4741 H   0  0  0  0  0  0
  -24.0008   -7.4631   22.7458 H   0  0  0  0  0  0
  -21.0838   -8.8793   19.8952 H   0  0  0  0  0  0
  -22.3721  -10.9672   19.6150 H   0  0  0  0  0  0
  -21.2021   -7.6134   23.9725 H   0  0  0  0  0  0
  -21.1469   -6.0499   25.9080 H   0  0  0  0  0  0
  -22.0601   -2.7604   23.2840 H   0  0  0  0  0  0
  -22.4069  -11.9891   22.4824 H   0  0  0  0  0  0
  -21.1114  -13.1308   22.2608 H   0  0  0  0  0  0
  -24.6469  -15.8321   20.5618 H   0  0  0  0  0  0
  -26.2730  -15.6802   20.1554 H   0  0  0  0  0  0
  -26.7182  -32.5449   23.1086 H   0  0  0  0  0  0
  -25.0087  -33.9717   25.0421 H   0  0  0  0  0  0
  -22.7177  -31.3020   21.3997 H   0  0  0  0  0  0
  -23.3761  -35.9610   23.3297 H   0  0  0  0  0  0
  -24.3589  -36.8905   22.2054 H   0  0  0  0  0  0
  -23.7249  -37.6482   23.6666 H   0  0  0  0  0  0
  -26.0947  -31.5538   20.6068 H   0  0  0  0  0  0
  -26.8463  -30.8409   22.0026 H   0  0  0  0  0  0
  -28.1221  -28.9724   21.2047 H   0  0  0  0  0  0
  -26.0012  -25.9345   18.9887 H   0  0  0  0  0  0
  -23.9829  -27.3124   18.9987 H   0  0  0  0  0  0
  -23.7562  -30.5908   19.4016 H   0  0  0  0  0  0
  -22.7617  -29.2430   19.8587 H   0  0  0  0  0  0
  -25.1302  -36.1926   25.0822 H   0  0  0  0  0  0
  -20.9984  -28.3285   24.1397 H   0  0  0  0  0  0
  -20.5663  -26.2299   23.3621 H   0  0  0  0  0  0
  -21.6652  -26.7436   22.1232 H   0  0  0  0  0  0
  -19.6925  -25.6295   21.1246 H   0  0  0  0  0  0
  -19.6715  -27.3182   20.6730 H   0  0  0  0  0  0
  -17.4212  -26.6700   21.3999 H   0  0  0  0  0  0
  -18.0315  -26.0076   22.8996 H   0  0  0  0  0  0
  -19.7939  -30.7274   24.2275 H   0  0  0  0  0  0
  -17.5017  -31.6272   24.5167 H   0  0  0  0  0  0
  -15.5354  -30.2998   23.7651 H   0  0  0  0  0  0
  -15.8668  -28.0822   22.7079 H   0  0  0  0  0  0
  -24.5922  -30.7059   25.7786 H   0  0  0  0  0  0
  -24.8897  -32.2904   26.4830 H   0  0  0  0  0  0
  -25.8060  -30.8959   27.0235 H   0  0  0  0  0  0
  -26.2878  -29.6770   24.1190 H   0  0  0  0  0  0
  -27.4000  -29.7248   25.4673 H   0  0  0  0  0  0
  -27.8766  -30.4266   23.9387 H   0  0  0  0  0  0
  -27.2702  -33.3615   26.2057 H   0  0  0  0  0  0
  -28.3891  -32.6851   25.0316 H   0  0  0  0  0  0
  -28.0725  -31.8425   26.5401 H   0  0  0  0  0  0
  -28.2598  -38.0094   24.7504 H   0  0  0  0  0  0
  -28.1079  -36.2627   24.6273 H   0  0  0  0  0  0
  -27.2298  -37.1449   25.8856 H   0  0  0  0  0  0
  -20.9369  -29.8763   21.6878 H   0  0  0  0  0  0
  -26.0168  -38.2842   24.1422 H   0  0  0  0  0  0
  -30.7892  -24.5709   19.6002 H   0  0  0  0  0  0
  -27.7597  -19.7151   19.4736 H   0  0  0  0  0  0
  -31.5937  -20.0098   21.3718 H   0  0  0  0  0  0
  -26.7374  -22.6876   21.8584 H   0  0  0  0  0  0
  -27.4326  -21.0792   21.9318 H   0  0  0  0  0  0
  -26.5708  -21.6038   20.4836 H   0  0  0  0  0  0
  -28.0799  -25.2217   21.8446 H   0  0  0  0  0  0
  -26.9752  -24.7942   20.5947 H   0  0  0  0  0  0
  -26.9637  -17.5889   18.9616 H   0  0  0  0  0  0
  -27.9871  -16.2894   18.8865 H   0  0  0  0  0  0
  -28.8021  -15.4008   20.8690 H   0  0  0  0  0  0
  -32.2980  -22.6356   19.1290 H   0  0  0  0  0  0
  1 25  1  0  0  0
  1 30  2  0  0  0
  1 85  1  0  0  0
  2  3  1  0  0  0
  2 25  1  0  0  0
  2 88  1  0  0  0
  2 89  1  0  0  0
  3  4  1  0  0  0
  3 90  1  0  0  0
  3 91  1  0  0  0
  4  5  1  0  0  0
  4 92  1  0  0  0
  4 93  1  0  0  0
  5  6  1  0  0  0
  5 26  1  0  0  0
  5 94  1  0  0  0
  6 25  1  0  0  0
  6 95  1  0  0  0
  6 96  1  0  0  0
  7  8  2  0  0  0
  7 26  1  0  0  0
  7 29  1  0  0  0
  8  9  1  0  0  0
  8 22  1  0  0  0
  9 10  1  0  0  0
  9 27  2  0  0  0
 10 11  2  0  0  0
 10 15  1  0  0  0
 11 12  1  0  0  0
 11 97  1  0  0  0
 12 13  2  0  0  0
 12 98  1  0  0  0
 13 14  1  0  0  0
 13 31  1  0  0  0
 14 15  2  0  0  0
 14 99  1  0  0  0
 15100  1  0  0  0
 16 17  2  0  0  0
 16 21  1  0  0  0
 16 31  1  0  0  0
 17 18  1  0  0  0
 17101  1  0  0  0
 18 19  2  0  0  0
 18102  1  0  0  0
 19 20  1  0  0  0
 19 24  1  0  0  0
 20 21  2  0  0  0
 20103  1  0  0  0
 21 23  1  0  0  0
 22 28  1  0  0  0
 22 32  2  0  0  0
 26 27  1  0  0  0
 28104  1  0  0  0
 28105  1  0  0  0
 29106  1  0  0  0
 29107  1  0  0  0
 33 34  1  0  0  0
 33 66  1  0  0  0
 33 70  2  0  0  0
 34 36  1  0  0  0
 34 59  1  0  0  0
 34108  1  0  0  0
 35 44  2  0  0  0
 35 45  1  0  0  0
 35 68  1  0  0  0
 36 56  1  0  0  0
 36109  1  0  0  0
 37 39  1  0  0  0
 37 47  1  0  0  0
 37 66  1  0  0  0
 37110  1  0  0  0
 38 43  2  0  0  0
 38 46  1  0  0  0
 38 47  1  0  0  0
 39 64  1  0  0  0
 39 67  2  0  0  0
 40 52  1  0  0  0
 40 53  2  0  0  0
 40 58  1  0  0  0
 41111  1  0  0  0
 41112  1  0  0  0
 41113  1  0  0  0
 41 48  1  0  0  0
 42 43  1  0  0  0
 42 66  1  0  0  0
 42114  1  0  0  0
 42115  1  0  0  0
 43 44  1  0  0  0
 44116  1  0  0  0
 45 46  2  0  0  0
 45117  1  0  0  0
 46118  1  0  0  0
 47119  1  0  0  0
 47120  1  0  0  0
 48 56  1  0  0  0
 48 65  1  0  0  0
 48121  1  0  0  0
 49 50  1  0  0  0
 49 53  1  0  0  0
 49 64  1  0  0  0
 49122  1  0  0  0
 50 51  1  0  0  0
 50123  1  0  0  0
 50124  1  0  0  0
 51 52  1  0  0  0
 51125  1  0  0  0
 51126  1  0  0  0
 52127  1  0  0  0
 52128  1  0  0  0
 53 54  1  0  0  0
 54 55  2  0  0  0
 54129  1  0  0  0
 55 57  1  0  0  0
 55130  1  0  0  0
 56 69  2  0  0  0
 57 58  2  0  0  0
 57131  1  0  0  0
 58132  1  0  0  0
 59 60  1  0  0  0
 59 61  1  0  0  0
 59 62  1  0  0  0
 60133  1  0  0  0
 60134  1  0  0  0
 60135  1  0  0  0
 61136  1  0  0  0
 61137  1  0  0  0
 61138  1  0  0  0
 62139  1  0  0  0
 62140  1  0  0  0
 62141  1  0  0  0
 63 65  1  0  0  0
 63142  1  0  0  0
 63143  1  0  0  0
 63144  1  0  0  0
 64145  1  0  0  0
 65146  1  0  0  0
 68 82  1  0  0  0
 71 74  1  0  0  0
 71 80  2  0  0  0
 71147  1  0  0  0
 72 75  2  0  0  0
 72 76  1  0  0  0
 72148  1  0  0  0
 73 75  1  0  0  0
 73 78  2  0  0  0
 73149  1  0  0  0
 74 79  2  0  0  0
 74 82  1  0  0  0
 75 83  1  0  0  0
 76 77  2  0  0  0
 76 84  1  0  0  0
 77 78  1  0  0  0
 77 85  1  0  0  0
 78 87  1  0  0  0
 79 81  1  0  0  0
 79 83  1  0  0  0
 80 83  1  0  0  0
 80 86  1  0  0  0
 81150  1  0  0  0
 81151  1  0  0  0
 81152  1  0  0  0
 82153  1  0  0  0
 82154  1  0  0  0
 84155  1  0  0  0
 84156  1  0  0  0
 85157  1  0  0  0
 86158  1  0  0  0
M  ISO  4   1 100  68 101  82 101  85 100
M  END
> <chiral flag>
0

> <version>
0

> <s_m_source_file>
/data/baiqing/PycharmProjects/Reinvent-master-3.2/result/LINK_invent/BTK/process_docking_weight1_custom_product_contain_oxygen_bond_distance_aromatic_linkinvent_7_9_3/rearranged_h_0094.sdf

> <i_m_source_file_index>
59

> <r_mmod_Potential_Energy-OPLS-2005>
-22.7378826141357

> <r_mmod_Stretch_Energy-OPLS-2005>
84.2158813476562

> <r_mmod_Bend_Energy-OPLS-2005>
138.852523803711

> <r_mmod_Torsional_Energy-OPLS-2005>
267.719299316406

> <r_mmod_Improper_Torsional_Energy-OPLS-2005>
11.6241140365601

> <r_mmod_Van_der_Waal_Energy-OPLS-2005>
139.248321533203

> <r_mmod_Electrostatic_Energy-OPLS-2005>
-499.002380371094

> <r_mmod_Solvation_Energy-OPLS-2005>
-224.750762939453

> <b_mmod_Minimization_Converged-OPLS-2005>
0

> <r_mmod_RMS_Derivative-OPLS-2005>
1.47336030006409

$$$$
59
                    3D
 Structure written by MMmdl.
161170  0  0  1  0            999 V2000
  -30.7574  -14.4793   20.5982 C   0  0  0  0  0  0
  -30.3992  -12.3269   19.4382 C   0  0  0  0  0  0
  -29.4838  -12.5101   18.2134 C   0  0  0  0  0  0
  -28.0077  -12.3642   18.6252 C   0  0  0  0  0  0
  -27.6510  -13.2217   19.8706 C   0  0  2  0  0  0
  -28.6941  -13.0617   20.9994 C   0  0  0  0  0  0
  -25.2537  -13.8198   20.5705 C   0  0  0  0  0  0
  -24.1803  -13.0457   20.9175 C   0  0  0  0  0  0
  -24.6366  -11.6924   20.8739 C   0  0  0  0  0  0
  -23.9049  -10.4298   21.0407 C   0  0  0  0  0  0
  -24.3613   -9.4218   21.9181 C   0  0  0  0  0  0
  -23.6298   -8.2252   22.0760 C   0  0  0  0  0  0
  -22.4284   -8.0279   21.3543 C   0  0  0  0  0  0
  -21.9899   -9.0249   20.4649 C   0  0  0  0  0  0
  -22.7222  -10.2127   20.3058 C   0  0  0  0  0  0
  -21.6850   -6.0733   22.5281 C   0  0  0  0  0  0
  -21.4011   -6.5648   23.8206 C   0  0  0  0  0  0
  -21.3657   -5.6801   24.9166 C   0  0  0  0  0  0
  -21.6043   -4.3063   24.7222 C   0  0  0  0  0  0
  -21.8824   -3.8154   23.4346 C   0  0  0  0  0  0
  -21.9194   -4.6968   22.3397 C   0  0  0  0  0  0
  -22.7832  -13.5250   21.1836 C   0  0  0  0  0  0
  -22.1666   -4.2158   21.0977 F   0  0  0  0  0  0
  -21.5620   -3.4543   25.7736 F   0  0  0  0  0  0
  -30.0191  -13.3454   20.4337 N   0  0  0  0  0  0
  -26.2973  -12.9386   20.3390 N   0  0  0  0  0  0
  -25.9295  -11.6531   20.5785 N   0  0  0  0  0  0
  -22.0499  -12.8211   22.0398 N   0  0  0  0  0  0
  -25.4251  -15.1907   20.4118 N   0  0  0  0  0  0
  -31.8945  -14.5569   20.1230 O   0  0  0  0  0  0
  -21.6649   -6.8879   21.4239 O   0  0  0  0  0  0
  -22.3505  -14.5553   20.6685 O   0  0  0  0  0  0
  -24.6163  -31.8659   23.2149 C   0  0  0  0  0  0
  -25.9049  -32.4807   23.8450 C   0  0  1  0  0  0
  -27.2236  -27.4129   20.0987 C   0  0  0  0  0  0
  -25.5953  -33.8632   24.2360 N   0  0  0  0  0  0
  -23.4050  -30.4932   21.5535 C   0  0  2  0  0  0
  -24.8485  -28.9628   20.1113 C   0  0  0  0  0  0
  -22.7418  -29.4636   22.4961 C   0  0  0  0  0  0
  -18.0286  -28.1344   22.8501 C   0  0  0  0  0  0
  -24.1487  -36.7305   23.2628 C   0  0  0  0  0  0
  -25.9357  -30.8233   21.3754 C   0  0  0  0  0  0
  -26.0063  -29.4577   20.7210 C   0  0  0  0  0  0
  -27.1916  -28.6844   20.7229 C   0  0  0  0  0  0
  -26.0461  -26.9445   19.4737 C   0  0  0  0  0  0
  -24.8632  -27.7048   19.4865 C   0  0  0  0  0  0
  -23.6157  -29.8339   20.1649 C   0  0  0  0  0  0
  -25.4113  -36.3117   24.0319 C   0  0  1  0  0  0
  -20.5877  -28.3667   23.1267 C   0  0  2  0  0  0
  -20.6780  -26.9396   22.5389 C   0  0  0  0  0  0
  -19.5747  -26.6356   21.5207 C   0  0  0  0  0  0
  -18.1922  -26.7896   22.1618 C   0  0  0  0  0  0
  -19.1532  -28.8820   23.2888 C   0  0  0  0  0  0
  -18.9462  -30.1432   23.8898 C   0  0  0  0  0  0
  -17.6464  -30.6565   24.0570 C   0  0  0  0  0  0
  -25.9038  -34.9465   23.5125 C   0  0  0  0  0  0
  -16.5355  -29.9059   23.6338 C   0  0  0  0  0  0
  -16.7279  -28.6462   23.0378 C   0  0  0  0  0  0
  -26.4489  -31.6603   25.0772 C   0  0  0  0  0  0
  -25.3768  -31.3695   26.1532 C   0  0  0  0  0  0
  -27.0335  -30.3048   24.6142 C   0  0  0  0  0  0
  -27.6079  -32.4338   25.7511 C   0  0  0  0  0  0
  -27.5569  -37.1820   24.8458 C   0  0  0  0  0  0
  -21.4146  -29.3041   22.3676 N   0  0  0  0  0  0
  -26.4299  -37.3807   23.9389 N   0  0  0  0  0  0
  -24.6712  -31.0737   22.1069 N   0  0  0  0  0  0
  -23.4173  -28.8168   23.3014 O   0  0  0  0  0  0
  -28.3898  -26.6656   20.1472 O   0  0  0  0  0  0
  -26.5557  -34.8895   22.4662 O   0  0  0  0  0  0
  -23.5336  -32.1446   23.7497 O   0  0  0  0  0  0
  -30.5785  -18.9688   20.3700 C   0  0  0  0  0  0
  -30.0419  -20.2613   20.2190 C   0  0  0  0  0  0
  -28.3856  -19.7448   21.9043 C   0  0  0  0  0  0
  -30.0370  -18.0372   21.2806 C   0  0  0  0  0  0
  -28.9277  -20.6881   20.9801 C   0  0  0  0  0  0
  -28.9264  -18.4303   22.0698 C   0  0  0  0  0  0
  -27.1980  -22.5219   21.1819 C   0  0  0  0  0  0
  -30.7703  -16.7234   21.4475 C   0  0  0  0  0  0
  -27.0145  -23.9821   20.7688 C   0  0  0  0  0  0
  -29.1390  -23.1140   20.1051 C   0  0  0  0  0  0
  -28.0671  -24.1337   19.6747 C   0  0  2  0  0  0
  -27.4488  -17.9319   23.9123 C   0  0  0  0  0  0
  -28.5628  -25.5562   19.2475 C   0  0  0  0  0  0
  -28.4066  -22.0371   20.8051 N   0  0  0  0  0  0
  -30.1411  -15.5648   21.1301 N   0  0  0  0  0  0
  -26.2943  -21.9129   21.7610 O   0  0  0  0  0  0
  -31.9540  -16.7833   21.8048 O   0  0  0  0  0  0
  -28.4498  -17.5170   22.9907 O   0  0  0  0  0  0
  -31.4457  -12.3927   19.1349 H   0  0  0  0  0  0
  -30.2812  -11.3300   19.8644 H   0  0  0  0  0  0
  -29.7323  -11.7810   17.4414 H   0  0  0  0  0  0
  -29.6435  -13.4958   17.7729 H   0  0  0  0  0  0
  -27.8202  -11.3080   18.8273 H   0  0  0  0  0  0
  -27.3589  -12.6317   17.7910 H   0  0  0  0  0  0
  -27.6752  -14.2621   19.5455 H   0  0  0  0  0  0
  -28.6749  -12.0461   21.3992 H   0  0  0  0  0  0
  -28.4559  -13.7149   21.8399 H   0  0  0  0  0  0
  -25.2763   -9.5693   22.4744 H   0  0  0  0  0  0
  -24.0011   -7.4644   22.7467 H   0  0  0  0  0  0
  -21.0839   -8.8759   19.8944 H   0  0  0  0  0  0
  -22.3692  -10.9662   19.6165 H   0  0  0  0  0  0
  -21.2012   -7.6154   23.9707 H   0  0  0  0  0  0
  -21.1465   -6.0533   25.9065 H   0  0  0  0  0  0
  -22.0603   -2.7619   23.2843 H   0  0  0  0  0  0
  -22.4149  -11.9881   22.4765 H   0  0  0  0  0  0
  -21.1117  -13.1207   22.2629 H   0  0  0  0  0  0
  -24.6569  -15.8466   20.5160 H   0  0  0  0  0  0
  -26.2792  -15.6307   20.0967 H   0  0  0  0  0  0
  -26.7106  -32.5488   23.1192 H   0  0  0  0  0  0
  -25.0304  -33.9881   25.0636 H   0  0  0  0  0  0
  -22.6949  -31.3115   21.4157 H   0  0  0  0  0  0
  -23.3767  -35.9628   23.3334 H   0  0  0  0  0  0
  -24.3583  -36.8897   22.2038 H   0  0  0  0  0  0
  -23.7200  -37.6493   23.6638 H   0  0  0  0  0  0
  -26.0445  -31.5890   20.6063 H   0  0  0  0  0  0
  -26.8245  -30.8769   21.9908 H   0  0  0  0  0  0
  -28.0827  -29.0559   21.2078 H   0  0  0  0  0  0
  -26.0145  -25.9847   18.9818 H   0  0  0  0  0  0
  -23.9731  -27.3160   19.0133 H   0  0  0  0  0  0
  -23.7316  -30.6150   19.4142 H   0  0  0  0  0  0
  -22.7389  -29.2607   19.8602 H   0  0  0  0  0  0
  -25.1280  -36.2003   25.0812 H   0  0  0  0  0  0
  -20.9995  -28.3245   24.1370 H   0  0  0  0  0  0
  -20.5683  -26.2280   23.3593 H   0  0  0  0  0  0
  -21.6639  -26.7429   22.1151 H   0  0  0  0  0  0
  -19.6921  -25.6262   21.1223 H   0  0  0  0  0  0
  -19.6662  -27.3184   20.6749 H   0  0  0  0  0  0
  -17.4199  -26.6695   21.4004 H   0  0  0  0  0  0
  -18.0308  -25.9997   22.8962 H   0  0  0  0  0  0
  -19.7943  -30.7268   24.2219 H   0  0  0  0  0  0
  -17.5017  -31.6243   24.5170 H   0  0  0  0  0  0
  -15.5350  -30.2968   23.7637 H   0  0  0  0  0  0
  -15.8679  -28.0776   22.7097 H   0  0  0  0  0  0
  -24.5961  -30.7003   25.7886 H   0  0  0  0  0  0
  -24.8923  -32.2837   26.4979 H   0  0  0  0  0  0
  -25.8124  -30.8880   27.0297 H   0  0  0  0  0  0
  -26.2870  -29.6795   24.1218 H   0  0  0  0  0  0
  -27.4138  -29.7273   25.4580 H   0  0  0  0  0  0
  -27.8689  -30.4365   23.9261 H   0  0  0  0  0  0
  -27.2725  -33.3670   26.2040 H   0  0  0  0  0  0
  -28.3887  -32.6860   25.0329 H   0  0  0  0  0  0
  -28.0743  -31.8505   26.5459 H   0  0  0  0  0  0
  -28.2605  -38.0103   24.7535 H   0  0  0  0  0  0
  -28.1046  -36.2642   24.6281 H   0  0  0  0  0  0
  -27.2286  -37.1462   25.8861 H   0  0  0  0  0  0
  -20.9280  -29.8776   21.6920 H   0  0  0  0  0  0
  -26.0187  -38.2861   24.1477 H   0  0  0  0  0  0
  -31.4402  -18.6892   19.7778 H   0  0  0  0  0  0
  -30.5238  -20.9039   19.4993 H   0  0  0  0  0  0
  -27.5503  -20.0409   22.5178 H   0  0  0  0  0  0
  -27.2226  -24.6247   21.6248 H   0  0  0  0  0  0
  -25.9993  -24.1713   20.4164 H   0  0  0  0  0  0
  -29.8447  -23.5727   20.8019 H   0  0  0  0  0  0
  -29.6972  -22.7896   19.2290 H   0  0  0  0  0  0
  -27.6188  -23.7160   18.7710 H   0  0  0  0  0  0
  -27.2504  -17.1182   24.6104 H   0  0  0  0  0  0
  -26.5125  -18.1679   23.4049 H   0  0  0  0  0  0
  -27.7702  -18.7952   24.4979 H   0  0  0  0  0  0
  -28.1513  -25.8143   18.2697 H   0  0  0  0  0  0
  -29.6341  -25.4936   19.0582 H   0  0  0  0  0  0
  -29.1366  -15.5615   21.1682 H   0  0  0  0  0  0
  1 25  1  0  0  0
  1 30  2  0  0  0
  1 85  1  0  0  0
  2  3  1  0  0  0
  2 25  1  0  0  0
  2 89  1  0  0  0
  2 90  1  0  0  0
  3  4  1  0  0  0
  3 91  1  0  0  0
  3 92  1  0  0  0
  4  5  1  0  0  0
  4 93  1  0  0  0
  4 94  1  0  0  0
  5  6  1  0  0  0
  5 26  1  0  0  0
  5 95  1  0  0  0
  6 25  1  0  0  0
  6 96  1  0  0  0
  6 97  1  0  0  0
  7  8  2  0  0  0
  7 26  1  0  0  0
  7 29  1  0  0  0
  8  9  1  0  0  0
  8 22  1  0  0  0
  9 10  1  0  0  0
  9 27  2  0  0  0
 10 11  2  0  0  0
 10 15  1  0  0  0
 11 12  1  0  0  0
 11 98  1  0  0  0
 12 13  2  0  0  0
 12 99  1  0  0  0
 13 14  1  0  0  0
 13 31  1  0  0  0
 14 15  2  0  0  0
 14100  1  0  0  0
 15101  1  0  0  0
 16 17  2  0  0  0
 16 21  1  0  0  0
 16 31  1  0  0  0
 17 18  1  0  0  0
 17102  1  0  0  0
 18 19  2  0  0  0
 18103  1  0  0  0
 19 20  1  0  0  0
 19 24  1  0  0  0
 20 21  2  0  0  0
 20104  1  0  0  0
 21 23  1  0  0  0
 22 28  1  0  0  0
 22 32  2  0  0  0
 26 27  1  0  0  0
 28105  1  0  0  0
 28106  1  0  0  0
 29107  1  0  0  0
 29108  1  0  0  0
 33 34  1  0  0  0
 33 66  1  0  0  0
 33 70  2  0  0  0
 34 36  1  0  0  0
 34 59  1  0  0  0
 34109  1  0  0  0
 35 44  2  0  0  0
 35 45  1  0  0  0
 35 68  1  0  0  0
 36 56  1  0  0  0
 36110  1  0  0  0
 37 39  1  0  0  0
 37 47  1  0  0  0
 37 66  1  0  0  0
 37111  1  0  0  0
 38 43  2  0  0  0
 38 46  1  0  0  0
 38 47  1  0  0  0
 39 64  1  0  0  0
 39 67  2  0  0  0
 40 52  1  0  0  0
 40 53  2  0  0  0
 40 58  1  0  0  0
 41112  1  0  0  0
 41113  1  0  0  0
 41114  1  0  0  0
 41 48  1  0  0  0
 42 43  1  0  0  0
 42 66  1  0  0  0
 42115  1  0  0  0
 42116  1  0  0  0
 43 44  1  0  0  0
 44117  1  0  0  0
 45 46  2  0  0  0
 45118  1  0  0  0
 46119  1  0  0  0
 47120  1  0  0  0
 47121  1  0  0  0
 48 56  1  0  0  0
 48 65  1  0  0  0
 48122  1  0  0  0
 49 50  1  0  0  0
 49 53  1  0  0  0
 49 64  1  0  0  0
 49123  1  0  0  0
 50 51  1  0  0  0
 50124  1  0  0  0
 50125  1  0  0  0
 51 52  1  0  0  0
 51126  1  0  0  0
 51127  1  0  0  0
 52128  1  0  0  0
 52129  1  0  0  0
 53 54  1  0  0  0
 54 55  2  0  0  0
 54130  1  0  0  0
 55 57  1  0  0  0
 55131  1  0  0  0
 56 69  2  0  0  0
 57 58  2  0  0  0
 57132  1  0  0  0
 58133  1  0  0  0
 59 60  1  0  0  0
 59 61  1  0  0  0
 59 62  1  0  0  0
 60134  1  0  0  0
 60135  1  0  0  0
 60136  1  0  0  0
 61137  1  0  0  0
 61138  1  0  0  0
 61139  1  0  0  0
 62140  1  0  0  0
 62141  1  0  0  0
 62142  1  0  0  0
 63 65  1  0  0  0
 63143  1  0  0  0
 63144  1  0  0  0
 63145  1  0  0  0
 64146  1  0  0  0
 65147  1  0  0  0
 68 83  1  0  0  0
 71 72  2  0  0  0
 71 74  1  0  0  0
 71148  1  0  0  0
 72 75  1  0  0  0
 72149  1  0  0  0
 73 75  2  0  0  0
 73 76  1  0  0  0
 73150  1  0  0  0
 74 76  2  0  0  0
 74 78  1  0  0  0
 75 84  1  0  0  0
 76 88  1  0  0  0
 77 79  1  0  0  0
 77 84  1  0  0  0
 77 86  2  0  0  0
 78 85  1  0  0  0
 78 87  2  0  0  0
 79 81  1  0  0  0
 79151  1  0  0  0
 79152  1  0  0  0
 80 81  1  0  0  0
 80 84  1  0  0  0
 80153  1  0  0  0
 80154  1  0  0  0
 81 83  1  0  0  0
 81155  1  0  0  0
 82 88  1  0  0  0
 82156  1  0  0  0
 82157  1  0  0  0
 82158  1  0  0  0
 83159  1  0  0  0
 83160  1  0  0  0
 85161  1  0  0  0
M  ISO  4   1 100  68 101  83 101  85 100
M  END
> <chiral flag>
0

> <version>
0

> <s_m_source_file>
/data/baiqing/PycharmProjects/Reinvent-master-3.2/result/LINK_invent/BTK/process_docking_weight1_custom_product_contain_oxygen_bond_distance_aromatic_linkinvent_7_9_3/rearranged_h_0094.sdf

> <i_m_source_file_index>
60

> <r_mmod_Potential_Energy-OPLS-2005>
59.024658203125

> <r_mmod_Stretch_Energy-OPLS-2005>
48.0451011657715

> <r_mmod_Bend_Energy-OPLS-2005>
166.48991394043

> <r_mmod_Torsional_Energy-OPLS-2005>
291.803100585938

> <r_mmod_Improper_Torsional_Energy-OPLS-2005>
4.73092079162598

> <r_mmod_Van_der_Waal_Energy-OPLS-2005>
170.028106689453

> <r_mmod_Electrostatic_Energy-OPLS-2005>
-412.115570068359

> <r_mmod_Solvation_Energy-OPLS-2005>
-229.832733154297

> <b_mmod_Minimization_Converged-OPLS-2005>
0

> <r_mmod_RMS_Derivative-OPLS-2005>
3.10294222831726

$$$$
60
                    3D
 Structure written by MMmdl.
158167  0  0  1  0            999 V2000
  -30.5710  -14.9114   20.4497 C   0  0  0  0  0  0
  -30.4538  -12.5561   19.5185 C   0  0  0  0  0  0
  -29.5555  -12.4980   18.2665 C   0  0  0  0  0  0
  -28.0841  -12.2840   18.6738 C   0  0  0  0  0  0
  -27.6432  -13.2296   19.8267 C   0  0  2  0  0  0
  -28.6725  -13.2515   20.9795 C   0  0  0  0  0  0
  -25.2628  -13.8149   20.5678 C   0  0  0  0  0  0
  -24.1894  -13.0437   20.9186 C   0  0  0  0  0  0
  -24.6434  -11.6901   20.8730 C   0  0  0  0  0  0
  -23.9114  -10.4291   21.0422 C   0  0  0  0  0  0
  -24.3665   -9.4200   21.9188 C   0  0  0  0  0  0
  -23.6340   -8.2221   22.0680 C   0  0  0  0  0  0
  -22.4321   -8.0272   21.3485 C   0  0  0  0  0  0
  -22.0006   -9.0258   20.4598 C   0  0  0  0  0  0
  -22.7307  -10.2150   20.3055 C   0  0  0  0  0  0
  -21.6882   -6.0749   22.5255 C   0  0  0  0  0  0
  -21.4041   -6.5632   23.8174 C   0  0  0  0  0  0
  -21.3662   -5.6761   24.9132 C   0  0  0  0  0  0
  -21.6036   -4.3011   24.7187 C   0  0  0  0  0  0
  -21.8847   -3.8143   23.4293 C   0  0  0  0  0  0
  -21.9217   -4.6989   22.3372 C   0  0  0  0  0  0
  -22.7934  -13.5251   21.1887 C   0  0  0  0  0  0
  -22.1667   -4.2164   21.0943 F   0  0  0  0  0  0
  -21.5659   -3.4502   25.7690 F   0  0  0  0  0  0
  -29.9655  -13.6517   20.4019 N   0  0  0  0  0  0
  -26.2974  -12.9329   20.3115 N   0  0  0  0  0  0
  -25.9372  -11.6490   20.5637 N   0  0  0  0  0  0
  -22.0528  -12.8218   22.0395 N   0  0  0  0  0  0
  -25.4437  -15.1864   20.4196 N   0  0  0  0  0  0
  -31.7309  -15.0023   20.0357 O   0  0  0  0  0  0
  -21.6665   -6.8898   21.4201 O   0  0  0  0  0  0
  -22.3616  -14.5573   20.6758 O   0  0  0  0  0  0
  -24.6390  -31.8460   23.2022 C   0  0  0  0  0  0
  -25.9132  -32.4757   23.8439 C   0  0  1  0  0  0
  -27.1823  -27.1121   20.1718 C   0  0  0  0  0  0
  -25.5920  -33.8614   24.2394 N   0  0  0  0  0  0
  -23.4406  -30.4659   21.5435 C   0  0  2  0  0  0
  -24.8812  -28.8859   20.1085 C   0  0  0  0  0  0
  -22.7544  -29.4530   22.4930 C   0  0  0  0  0  0
  -18.0303  -28.1228   22.8467 C   0  0  0  0  0  0
  -24.1436  -36.7229   23.2660 C   0  0  0  0  0  0
  -25.9968  -30.7125   21.3985 C   0  0  0  0  0  0
  -26.0567  -29.3266   20.7256 C   0  0  0  0  0  0
  -27.2059  -28.4498   20.7430 C   0  0  0  0  0  0
  -25.9919  -26.7719   19.5020 C   0  0  0  0  0  0
  -24.8645  -27.6255   19.4815 C   0  0  0  0  0  0
  -23.6586  -29.7935   20.1594 C   0  0  0  0  0  0
  -25.4076  -36.3181   24.0428 C   0  0  1  0  0  0
  -20.5913  -28.3621   23.1216 C   0  0  2  0  0  0
  -20.6728  -26.9347   22.5316 C   0  0  0  0  0  0
  -19.5719  -26.6236   21.5162 C   0  0  0  0  0  0
  -18.1929  -26.7745   22.1637 C   0  0  0  0  0  0
  -19.1557  -28.8752   23.2793 C   0  0  0  0  0  0
  -18.9491  -30.1301   23.8834 C   0  0  0  0  0  0
  -17.6486  -30.6460   24.0486 C   0  0  0  0  0  0
  -25.8982  -34.9494   23.5199 C   0  0  0  0  0  0
  -16.5372  -29.8934   23.6311 C   0  0  0  0  0  0
  -16.7305  -28.6287   23.0457 C   0  0  0  0  0  0
  -26.4442  -31.6676   25.0923 C   0  0  0  0  0  0
  -25.3628  -31.3834   26.1649 C   0  0  0  0  0  0
  -27.0323  -30.3106   24.6515 C   0  0  0  0  0  0
  -27.6040  -32.4485   25.7559 C   0  0  0  0  0  0
  -27.5566  -37.1800   24.8502 C   0  0  0  0  0  0
  -21.4239  -29.2988   22.3624 N   0  0  0  0  0  0
  -26.4262  -37.3885   23.9480 N   0  0  0  0  0  0
  -24.7089  -31.0334   22.0979 N   0  0  0  0  0  0
  -23.4192  -28.8088   23.3079 O   0  0  0  0  0  0
  -28.2237  -26.1298   20.3474 O   0  0  0  0  0  0
  -26.5557  -34.8952   22.4788 O   0  0  0  0  0  0
  -23.5506  -32.1322   23.7237 O   0  0  0  0  0  0
  -27.9697  -19.4333   20.3583 C   0  0  0  0  0  0
  -28.3047  -18.0192   20.3987 C   0  0  0  0  0  0
  -30.6033  -18.5545   20.5086 C   0  0  0  0  0  0
  -28.9262  -20.5074   20.4597 C   0  0  0  0  0  0
  -29.6334  -17.4843   20.5213 C   0  0  0  0  0  0
  -30.2722  -19.9774   20.4954 C   0  0  0  0  0  0
  -28.2235  -22.0203   22.1858 C   0  0  0  0  0  0
  -27.1798  -23.0773   22.5104 C   0  0  0  0  0  0
  -26.5709  -23.3625   21.1459 C   0  0  0  0  0  0
  -27.7608  -23.1413   20.1945 C   0  0  2  0  0  0
  -29.9977  -16.0281   22.4481 C   0  0  0  0  0  0
  -28.3579  -24.6767   19.7854 C   0  0  0  0  0  0
  -28.5604  -21.9524   20.8713 N   0  0  0  0  0  0
  -29.8915  -16.0449   20.9887 N   0  0  0  0  0  0
  -28.6668  -21.2981   23.0816 O   0  0  0  0  0  0
  -31.3008  -20.8536   20.6111 F   0  0  0  0  0  0
  -31.4923  -12.6998   19.2220 H   0  0  0  0  0  0
  -30.4283  -11.6059   20.0540 H   0  0  0  0  0  0
  -29.8865  -11.6839   17.6166 H   0  0  0  0  0  0
  -29.6637  -13.4173   17.6905 H   0  0  0  0  0  0
  -27.9982  -11.2468   19.0011 H   0  0  0  0  0  0
  -27.4329  -12.3705   17.8051 H   0  0  0  0  0  0
  -27.6148  -14.2320   19.3957 H   0  0  0  0  0  0
  -28.7455  -12.2768   21.4657 H   0  0  0  0  0  0
  -28.3552  -13.9531   21.7518 H   0  0  0  0  0  0
  -25.2773   -9.5707   22.4785 H   0  0  0  0  0  0
  -24.0052   -7.4635   22.7410 H   0  0  0  0  0  0
  -21.0898   -8.8816   19.8930 H   0  0  0  0  0  0
  -22.3720  -10.9729   19.6215 H   0  0  0  0  0  0
  -21.2006   -7.6124   23.9709 H   0  0  0  0  0  0
  -21.1480   -6.0445   25.9014 H   0  0  0  0  0  0
  -22.0655   -2.7616   23.2761 H   0  0  0  0  0  0
  -22.4065  -11.9852   22.4818 H   0  0  0  0  0  0
  -21.1141  -13.1316   22.2558 H   0  0  0  0  0  0
  -24.7163  -15.8728   20.5629 H   0  0  0  0  0  0
  -26.3295  -15.5916   20.1496 H   0  0  0  0  0  0
  -26.7223  -32.5327   23.1209 H   0  0  0  0  0  0
  -25.0333  -33.9825   25.0733 H   0  0  0  0  0  0
  -22.7372  -31.2885   21.3984 H   0  0  0  0  0  0
  -23.3870  -35.9398   23.3303 H   0  0  0  0  0  0
  -24.3481  -36.8811   22.2057 H   0  0  0  0  0  0
  -23.6971  -37.6357   23.6598 H   0  0  0  0  0  0
  -26.1648  -31.4859   20.6488 H   0  0  0  0  0  0
  -26.8549  -30.7397   22.0559 H   0  0  0  0  0  0
  -28.0905  -28.7764   21.2700 H   0  0  0  0  0  0
  -25.8854  -25.7931   19.0504 H   0  0  0  0  0  0
  -23.9542  -27.2753   19.0141 H   0  0  0  0  0  0
  -23.7915  -30.5695   19.4074 H   0  0  0  0  0  0
  -22.7615  -29.2471   19.8550 H   0  0  0  0  0  0
  -25.1237  -36.2101   25.0931 H   0  0  0  0  0  0
  -21.0011  -28.3102   24.1371 H   0  0  0  0  0  0
  -20.5544  -26.2280   23.3516 H   0  0  0  0  0  0
  -21.6569  -26.7204   22.1195 H   0  0  0  0  0  0
  -19.6836  -25.6138   21.1186 H   0  0  0  0  0  0
  -19.6574  -27.3014   20.6631 H   0  0  0  0  0  0
  -17.4162  -26.6559   21.4037 H   0  0  0  0  0  0
  -18.0322  -25.9846   22.8967 H   0  0  0  0  0  0
  -19.7967  -30.7074   24.2250 H   0  0  0  0  0  0
  -17.5063  -31.6201   24.4961 H   0  0  0  0  0  0
  -15.5363  -30.2852   23.7512 H   0  0  0  0  0  0
  -15.8714  -28.0442   22.7434 H   0  0  0  0  0  0
  -24.5756  -30.7255   25.7930 H   0  0  0  0  0  0
  -24.8839  -32.2972   26.5179 H   0  0  0  0  0  0
  -25.7854  -30.8879   27.0396 H   0  0  0  0  0  0
  -26.2925  -29.6910   24.1406 H   0  0  0  0  0  0
  -27.3820  -29.7370   25.5097 H   0  0  0  0  0  0
  -27.8876  -30.4461   23.9900 H   0  0  0  0  0  0
  -27.2746  -33.3931   26.1932 H   0  0  0  0  0  0
  -28.3774  -32.6862   25.0234 H   0  0  0  0  0  0
  -28.0798  -31.8781   26.5567 H   0  0  0  0  0  0
  -28.2669  -38.0036   24.7621 H   0  0  0  0  0  0
  -28.0963  -36.2592   24.6210 H   0  0  0  0  0  0
  -27.2226  -37.1264   25.8885 H   0  0  0  0  0  0
  -20.9474  -29.8856   21.6916 H   0  0  0  0  0  0
  -26.0190  -38.2973   24.1560 H   0  0  0  0  0  0
  -26.9153  -19.6706   20.3564 H   0  0  0  0  0  0
  -27.4753  -17.3248   20.4221 H   0  0  0  0  0  0
  -31.6504  -18.3010   20.6198 H   0  0  0  0  0  0
  -27.6825  -23.9441   22.9369 H   0  0  0  0  0  0
  -26.4429  -22.7311   23.2382 H   0  0  0  0  0  0
  -26.1186  -24.3506   21.0609 H   0  0  0  0  0  0
  -25.7625  -22.6462   20.9602 H   0  0  0  0  0  0
  -27.3808  -22.7203   19.2582 H   0  0  0  0  0  0
  -29.1254  -16.4977   22.9074 H   0  0  0  0  0  0
  -30.8829  -16.5900   22.7552 H   0  0  0  0  0  0
  -30.0957  -15.0250   22.8737 H   0  0  0  0  0  0
  -28.0657  -24.8084   18.7431 H   0  0  0  0  0  0
  -29.4340  -24.5264   19.7058 H   0  0  0  0  0  0
  1 25  1  0  0  0
  1 30  2  0  0  0
  1 84  1  0  0  0
  2  3  1  0  0  0
  2 25  1  0  0  0
  2 87  1  0  0  0
  2 88  1  0  0  0
  3  4  1  0  0  0
  3 89  1  0  0  0
  3 90  1  0  0  0
  4  5  1  0  0  0
  4 91  1  0  0  0
  4 92  1  0  0  0
  5  6  1  0  0  0
  5 26  1  0  0  0
  5 93  1  0  0  0
  6 25  1  0  0  0
  6 94  1  0  0  0
  6 95  1  0  0  0
  7  8  2  0  0  0
  7 26  1  0  0  0
  7 29  1  0  0  0
  8  9  1  0  0  0
  8 22  1  0  0  0
  9 10  1  0  0  0
  9 27  2  0  0  0
 10 11  2  0  0  0
 10 15  1  0  0  0
 11 12  1  0  0  0
 11 96  1  0  0  0
 12 13  2  0  0  0
 12 97  1  0  0  0
 13 14  1  0  0  0
 13 31  1  0  0  0
 14 15  2  0  0  0
 14 98  1  0  0  0
 15 99  1  0  0  0
 16 17  2  0  0  0
 16 21  1  0  0  0
 16 31  1  0  0  0
 17 18  1  0  0  0
 17100  1  0  0  0
 18 19  2  0  0  0
 18101  1  0  0  0
 19 20  1  0  0  0
 19 24  1  0  0  0
 20 21  2  0  0  0
 20102  1  0  0  0
 21 23  1  0  0  0
 22 28  1  0  0  0
 22 32  2  0  0  0
 26 27  1  0  0  0
 28103  1  0  0  0
 28104  1  0  0  0
 29105  1  0  0  0
 29106  1  0  0  0
 33 34  1  0  0  0
 33 66  1  0  0  0
 33 70  2  0  0  0
 34 36  1  0  0  0
 34 59  1  0  0  0
 34107  1  0  0  0
 35 44  2  0  0  0
 35 45  1  0  0  0
 35 68  1  0  0  0
 36 56  1  0  0  0
 36108  1  0  0  0
 37 39  1  0  0  0
 37 47  1  0  0  0
 37 66  1  0  0  0
 37109  1  0  0  0
 38 43  2  0  0  0
 38 46  1  0  0  0
 38 47  1  0  0  0
 39 64  1  0  0  0
 39 67  2  0  0  0
 40 52  1  0  0  0
 40 53  2  0  0  0
 40 58  1  0  0  0
 41110  1  0  0  0
 41111  1  0  0  0
 41112  1  0  0  0
 41 48  1  0  0  0
 42 43  1  0  0  0
 42 66  1  0  0  0
 42113  1  0  0  0
 42114  1  0  0  0
 43 44  1  0  0  0
 44115  1  0  0  0
 45 46  2  0  0  0
 45116  1  0  0  0
 46117  1  0  0  0
 47118  1  0  0  0
 47119  1  0  0  0
 48 56  1  0  0  0
 48 65  1  0  0  0
 48120  1  0  0  0
 49 50  1  0  0  0
 49 53  1  0  0  0
 49 64  1  0  0  0
 49121  1  0  0  0
 50 51  1  0  0  0
 50122  1  0  0  0
 50123  1  0  0  0
 51 52  1  0  0  0
 51124  1  0  0  0
 51125  1  0  0  0
 52126  1  0  0  0
 52127  1  0  0  0
 53 54  1  0  0  0
 54 55  2  0  0  0
 54128  1  0  0  0
 55 57  1  0  0  0
 55129  1  0  0  0
 56 69  2  0  0  0
 57 58  2  0  0  0
 57130  1  0  0  0
 58131  1  0  0  0
 59 60  1  0  0  0
 59 61  1  0  0  0
 59 62  1  0  0  0
 60132  1  0  0  0
 60133  1  0  0  0
 60134  1  0  0  0
 61135  1  0  0  0
 61136  1  0  0  0
 61137  1  0  0  0
 62138  1  0  0  0
 62139  1  0  0  0
 62140  1  0  0  0
 63 65  1  0  0  0
 63141  1  0  0  0
 63142  1  0  0  0
 63143  1  0  0  0
 64144  1  0  0  0
 65145  1  0  0  0
 68 82  1  0  0  0
 71 72  2  0  0  0
 71 74  1  0  0  0
 71146  1  0  0  0
 72 75  1  0  0  0
 72147  1  0  0  0
 73 75  2  0  0  0
 73 76  1  0  0  0
 73148  1  0  0  0
 74 76  2  0  0  0
 74 83  1  0  0  0
 75 84  1  0  0  0
 76 86  1  0  0  0
 77 78  1  0  0  0
 77 83  1  0  0  0
 77 85  2  0  0  0
 78 79  1  0  0  0
 78149  1  0  0  0
 78150  1  0  0  0
 79 80  1  0  0  0
 79151  1  0  0  0
 79152  1  0  0  0
 80 82  1  0  0  0
 80 83  1  0  0  0
 80153  1  0  0  0
 81 84  1  0  0  0
 81154  1  0  0  0
 81155  1  0  0  0
 81156  1  0  0  0
 82157  1  0  0  0
 82158  1  0  0  0
M  ISO  4   1 100  68 101  82 101  84 100
M  END
> <chiral flag>
0

> <version>
0

> <s_m_source_file>
/data/baiqing/PycharmProjects/Reinvent-master-3.2/result/LINK_invent/BTK/process_docking_weight1_custom_product_contain_oxygen_bond_distance_aromatic_linkinvent_7_9_3/rearranged_h_0094.sdf

> <i_m_source_file_index>
61

> <r_mmod_Potential_Energy-OPLS-2005>
865.083862304688

> <r_mmod_Stretch_Energy-OPLS-2005>
257.062530517578

> <r_mmod_Bend_Energy-OPLS-2005>
364.060302734375

> <r_mmod_Torsional_Energy-OPLS-2005>
425.639251708984

> <r_mmod_Improper_Torsional_Energy-OPLS-2005>
13.0499277114868

> <r_mmod_Van_der_Waal_Energy-OPLS-2005>
122.013046264648

> <r_mmod_Electrostatic_Energy-OPLS-2005>
-303.51904296875

> <r_mmod_Solvation_Energy-OPLS-2005>
-208.000396728516

> <b_mmod_Minimization_Converged-OPLS-2005>
0

> <r_mmod_RMS_Derivative-OPLS-2005>
10.4458274841309

$$$$
61
                    3D
 Structure written by MMmdl.
161170  0  0  1  0            999 V2000
  -30.6949  -14.4924   20.5408 C   0  0  0  0  0  0
  -30.4197  -12.3168   19.4063 C   0  0  0  0  0  0
  -29.4854  -12.4892   18.1931 C   0  0  0  0  0  0
  -28.0057  -12.3701   18.6108 C   0  0  0  0  0  0
  -27.6575  -13.2103   19.8712 C   0  0  2  0  0  0
  -28.7063  -13.0026   20.9832 C   0  0  0  0  0  0
  -25.2609  -13.8175   20.5779 C   0  0  0  0  0  0
  -24.1841  -13.0443   20.9175 C   0  0  0  0  0  0
  -24.6402  -11.6904   20.8732 C   0  0  0  0  0  0
  -23.9068  -10.4284   21.0401 C   0  0  0  0  0  0
  -24.3619   -9.4209   21.9190 C   0  0  0  0  0  0
  -23.6285   -8.2258   22.0744 C   0  0  0  0  0  0
  -22.4277   -8.0286   21.3539 C   0  0  0  0  0  0
  -21.9921   -9.0258   20.4637 C   0  0  0  0  0  0
  -22.7242  -10.2137   20.3048 C   0  0  0  0  0  0
  -21.6857   -6.0731   22.5276 C   0  0  0  0  0  0
  -21.4001   -6.5635   23.8201 C   0  0  0  0  0  0
  -21.3651   -5.6791   24.9163 C   0  0  0  0  0  0
  -21.6056   -4.3055   24.7212 C   0  0  0  0  0  0
  -21.8832   -3.8145   23.4343 C   0  0  0  0  0  0
  -21.9194   -4.6966   22.3398 C   0  0  0  0  0  0
  -22.7869  -13.5248   21.1846 C   0  0  0  0  0  0
  -22.1668   -4.2149   21.0978 F   0  0  0  0  0  0
  -21.5639   -3.4545   25.7748 F   0  0  0  0  0  0
  -30.0246  -13.3147   20.4127 N   0  0  0  0  0  0
  -26.3019  -12.9331   20.3404 N   0  0  0  0  0  0
  -25.9329  -11.6490   20.5777 N   0  0  0  0  0  0
  -22.0487  -12.8217   22.0366 N   0  0  0  0  0  0
  -25.4381  -15.1895   20.4378 N   0  0  0  0  0  0
  -31.8398  -14.6493   20.1087 O   0  0  0  0  0  0
  -21.6658   -6.8880   21.4243 O   0  0  0  0  0  0
  -22.3568  -14.5574   20.6705 O   0  0  0  0  0  0
  -24.6215  -31.8678   23.2098 C   0  0  0  0  0  0
  -25.9117  -32.4804   23.8382 C   0  0  1  0  0  0
  -27.2291  -27.4100   20.0689 C   0  0  0  0  0  0
  -25.5983  -33.8600   24.2315 N   0  0  0  0  0  0
  -23.4067  -30.4965   21.5492 C   0  0  2  0  0  0
  -24.8492  -28.9645   20.1115 C   0  0  0  0  0  0
  -22.7429  -29.4684   22.4951 C   0  0  0  0  0  0
  -18.0283  -28.1388   22.8487 C   0  0  0  0  0  0
  -24.1475  -36.7241   23.2622 C   0  0  0  0  0  0
  -25.9422  -30.8211   21.3723 C   0  0  0  0  0  0
  -26.0124  -29.4546   20.7175 C   0  0  0  0  0  0
  -27.2007  -28.6795   20.7058 C   0  0  0  0  0  0
  -26.0386  -26.9486   19.4685 C   0  0  0  0  0  0
  -24.8569  -27.7072   19.4901 C   0  0  0  0  0  0
  -23.6154  -29.8359   20.1607 C   0  0  0  0  0  0
  -25.4093  -36.3066   24.0346 C   0  0  1  0  0  0
  -20.5882  -28.3689   23.1289 C   0  0  2  0  0  0
  -20.6768  -26.9398   22.5439 C   0  0  0  0  0  0
  -19.5759  -26.6389   21.5223 C   0  0  0  0  0  0
  -18.1907  -26.7950   22.1569 C   0  0  0  0  0  0
  -19.1536  -28.8843   23.2896 C   0  0  0  0  0  0
  -18.9470  -30.1434   23.8935 C   0  0  0  0  0  0
  -17.6484  -30.6596   24.0581 C   0  0  0  0  0  0
  -25.9068  -34.9456   23.5108 C   0  0  0  0  0  0
  -16.5372  -29.9099   23.6356 C   0  0  0  0  0  0
  -16.7273  -28.6505   23.0385 C   0  0  0  0  0  0
  -26.4516  -31.6602   25.0732 C   0  0  0  0  0  0
  -25.3782  -31.3831   26.1509 C   0  0  0  0  0  0
  -27.0256  -30.2988   24.6154 C   0  0  0  0  0  0
  -27.6153  -32.4274   25.7436 C   0  0  0  0  0  0
  -27.5601  -37.1711   24.8413 C   0  0  0  0  0  0
  -21.4156  -29.3071   22.3693 N   0  0  0  0  0  0
  -26.4228  -37.3803   23.9504 N   0  0  0  0  0  0
  -24.6744  -31.0785   22.1000 N   0  0  0  0  0  0
  -23.4190  -28.8227   23.3001 O   0  0  0  0  0  0
  -28.3914  -26.6502   20.0610 O   0  0  0  0  0  0
  -26.5607  -34.8928   22.4652 O   0  0  0  0  0  0
  -23.5408  -32.1444   23.7488 O   0  0  0  0  0  0
  -30.5269  -18.8743   19.8848 C   0  0  0  0  0  0
  -30.0368  -20.1390   19.4824 C   0  0  0  0  0  0
  -27.0145  -23.5837   18.9302 C   0  0  0  0  0  0
  -28.1718  -19.8863   21.0092 C   0  0  0  0  0  0
  -29.8635  -18.1050   20.8699 C   0  0  0  0  0  0
  -28.2522  -24.2163   19.2583 C   0  0  0  0  0  0
  -28.8694  -20.6777   20.0672 C   0  0  0  0  0  0
  -28.6527  -18.6150   21.4073 C   0  0  0  0  0  0
  -29.0671  -23.2069   19.7419 C   0  0  0  0  0  0
  -27.1118  -22.2608   19.2325 C   0  0  0  0  0  0
  -30.4792  -23.2954   20.2346 C   0  0  0  0  0  0
  -30.5548  -16.8386   21.4189 C   0  0  0  0  0  0
  -28.6180  -25.6913   18.9991 C   0  0  0  0  0  0
  -28.3825  -21.9780   19.7020 N   0  0  0  0  0  0
  -27.9273  -17.8901   22.3527 N   0  0  0  0  0  0
  -29.9969  -15.5209   21.0591 N   0  0  0  0  0  0
  -26.1640  -21.2922   19.1017 O   0  0  0  0  0  0
  -31.4614  -12.4159   19.0983 H   0  0  0  0  0  0
  -30.3303  -11.3100   19.8176 H   0  0  0  0  0  0
  -29.7153  -11.7377   17.4358 H   0  0  0  0  0  0
  -29.6571  -13.4591   17.7232 H   0  0  0  0  0  0
  -27.8038  -11.3143   18.7982 H   0  0  0  0  0  0
  -27.3581  -12.6572   17.7811 H   0  0  0  0  0  0
  -27.6960  -14.2579   19.5705 H   0  0  0  0  0  0
  -28.6929  -11.9678   21.3316 H   0  0  0  0  0  0
  -28.4796  -13.6117   21.8588 H   0  0  0  0  0  0
  -25.2762   -9.5719   22.4776 H   0  0  0  0  0  0
  -24.0010   -7.4655   22.7469 H   0  0  0  0  0  0
  -21.0864   -8.8764   19.8934 H   0  0  0  0  0  0
  -22.3700  -10.9679   19.6163 H   0  0  0  0  0  0
  -21.1972   -7.6136   23.9703 H   0  0  0  0  0  0
  -21.1463   -6.0521   25.9069 H   0  0  0  0  0  0
  -22.0616   -2.7608   23.2848 H   0  0  0  0  0  0
  -22.4057  -11.9832   22.4717 H   0  0  0  0  0  0
  -21.1104  -13.1256   22.2559 H   0  0  0  0  0  0
  -24.6948  -15.8517   20.6319 H   0  0  0  0  0  0
  -26.3288  -15.6431   20.2784 H   0  0  0  0  0  0
  -26.7183  -32.5476   23.1137 H   0  0  0  0  0  0
  -25.0293  -33.9778   25.0559 H   0  0  0  0  0  0
  -22.6992  -31.3162   21.4111 H   0  0  0  0  0  0
  -23.3846  -35.9450   23.3072 H   0  0  0  0  0  0
  -24.3636  -36.9091   22.2094 H   0  0  0  0  0  0
  -23.7056  -37.6293   23.6787 H   0  0  0  0  0  0
  -26.0702  -31.5870   20.6064 H   0  0  0  0  0  0
  -26.8256  -30.8669   21.9958 H   0  0  0  0  0  0
  -28.0968  -29.0582   21.1773 H   0  0  0  0  0  0
  -25.9977  -25.9973   18.9785 H   0  0  0  0  0  0
  -23.9646  -27.3234   19.0189 H   0  0  0  0  0  0
  -23.7256  -30.6156   19.4056 H   0  0  0  0  0  0
  -22.7389  -29.2606   19.8581 H   0  0  0  0  0  0
  -25.1252  -36.1864   25.0819 H   0  0  0  0  0  0
  -20.9998  -28.3270   24.1398 H   0  0  0  0  0  0
  -20.5635  -26.2310   23.3655 H   0  0  0  0  0  0
  -21.6638  -26.7411   22.1247 H   0  0  0  0  0  0
  -19.6928  -25.6292   21.1255 H   0  0  0  0  0  0
  -19.6748  -27.3209   20.6762 H   0  0  0  0  0  0
  -17.4231  -26.6833   21.3892 H   0  0  0  0  0  0
  -18.0191  -26.0034   22.8868 H   0  0  0  0  0  0
  -19.7942  -30.7242   24.2330 H   0  0  0  0  0  0
  -17.5037  -31.6288   24.5150 H   0  0  0  0  0  0
  -15.5385  -30.3045   23.7647 H   0  0  0  0  0  0
  -15.8648  -28.0853   22.7118 H   0  0  0  0  0  0
  -24.5942  -30.7153   25.7925 H   0  0  0  0  0  0
  -24.8997  -32.3038   26.4860 H   0  0  0  0  0  0
  -25.8127  -30.9100   27.0324 H   0  0  0  0  0  0
  -26.2740  -29.6774   24.1264 H   0  0  0  0  0  0
  -27.4019  -29.7248   25.4634 H   0  0  0  0  0  0
  -27.8623  -30.4225   23.9274 H   0  0  0  0  0  0
  -27.2894  -33.3709   26.1830 H   0  0  0  0  0  0
  -28.4048  -32.6573   25.0263 H   0  0  0  0  0  0
  -28.0676  -31.8455   26.5478 H   0  0  0  0  0  0
  -28.2451  -38.0175   24.7741 H   0  0  0  0  0  0
  -28.1267  -36.2742   24.5830 H   0  0  0  0  0  0
  -27.2410  -37.0874   25.8821 H   0  0  0  0  0  0
  -20.9308  -29.8806   21.6926 H   0  0  0  0  0  0
  -26.0080  -38.2807   24.1768 H   0  0  0  0  0  0
  -31.4494  -18.5096   19.4544 H   0  0  0  0  0  0
  -30.5747  -20.7029   18.7347 H   0  0  0  0  0  0
  -26.1355  -24.0291   18.4892 H   0  0  0  0  0  0
  -27.2586  -20.2761   21.4346 H   0  0  0  0  0  0
  -30.7140  -24.3053   20.5687 H   0  0  0  0  0  0
  -31.1843  -23.0364   19.4438 H   0  0  0  0  0  0
  -30.6475  -22.6292   21.0795 H   0  0  0  0  0  0
  -30.5331  -16.9007   22.5072 H   0  0  0  0  0  0
  -31.6161  -16.8952   21.1706 H   0  0  0  0  0  0
  -28.1490  -26.0189   18.0713 H   0  0  0  0  0  0
  -29.6850  -25.7224   18.7760 H   0  0  0  0  0  0
  -27.2054  -18.3663   22.8828 H   0  0  0  0  0  0
  -28.4005  -17.1761   22.8933 H   0  0  0  0  0  0
  -29.0360  -15.3456   21.3095 H   0  0  0  0  0  0
  -25.3238  -21.7284   18.9892 H   0  0  0  0  0  0
  1 25  1  0  0  0
  1 30  2  0  0  0
  1 86  1  0  0  0
  2  3  1  0  0  0
  2 25  1  0  0  0
  2 88  1  0  0  0
  2 89  1  0  0  0
  3  4  1  0  0  0
  3 90  1  0  0  0
  3 91  1  0  0  0
  4  5  1  0  0  0
  4 92  1  0  0  0
  4 93  1  0  0  0
  5  6  1  0  0  0
  5 26  1  0  0  0
  5 94  1  0  0  0
  6 25  1  0  0  0
  6 95  1  0  0  0
  6 96  1  0  0  0
  7  8  2  0  0  0
  7 26  1  0  0  0
  7 29  1  0  0  0
  8  9  1  0  0  0
  8 22  1  0  0  0
  9 10  1  0  0  0
  9 27  2  0  0  0
 10 11  2  0  0  0
 10 15  1  0  0  0
 11 12  1  0  0  0
 11 97  1  0  0  0
 12 13  2  0  0  0
 12 98  1  0  0  0
 13 14  1  0  0  0
 13 31  1  0  0  0
 14 15  2  0  0  0
 14 99  1  0  0  0
 15100  1  0  0  0
 16 17  2  0  0  0
 16 21  1  0  0  0
 16 31  1  0  0  0
 17 18  1  0  0  0
 17101  1  0  0  0
 18 19  2  0  0  0
 18102  1  0  0  0
 19 20  1  0  0  0
 19 24  1  0  0  0
 20 21  2  0  0  0
 20103  1  0  0  0
 21 23  1  0  0  0
 22 28  1  0  0  0
 22 32  2  0  0  0
 26 27  1  0  0  0
 28104  1  0  0  0
 28105  1  0  0  0
 29106  1  0  0  0
 29107  1  0  0  0
 33 34  1  0  0  0
 33 66  1  0  0  0
 33 70  2  0  0  0
 34 36  1  0  0  0
 34 59  1  0  0  0
 34108  1  0  0  0
 35 44  2  0  0  0
 35 45  1  0  0  0
 35 68  1  0  0  0
 36 56  1  0  0  0
 36109  1  0  0  0
 37 39  1  0  0  0
 37 47  1  0  0  0
 37 66  1  0  0  0
 37110  1  0  0  0
 38 43  2  0  0  0
 38 46  1  0  0  0
 38 47  1  0  0  0
 39 64  1  0  0  0
 39 67  2  0  0  0
 40 52  1  0  0  0
 40 53  2  0  0  0
 40 58  1  0  0  0
 41111  1  0  0  0
 41112  1  0  0  0
 41113  1  0  0  0
 41 48  1  0  0  0
 42 43  1  0  0  0
 42 66  1  0  0  0
 42114  1  0  0  0
 42115  1  0  0  0
 43 44  1  0  0  0
 44116  1  0  0  0
 45 46  2  0  0  0
 45117  1  0  0  0
 46118  1  0  0  0
 47119  1  0  0  0
 47120  1  0  0  0
 48 56  1  0  0  0
 48 65  1  0  0  0
 48121  1  0  0  0
 49 50  1  0  0  0
 49 53  1  0  0  0
 49 64  1  0  0  0
 49122  1  0  0  0
 50 51  1  0  0  0
 50123  1  0  0  0
 50124  1  0  0  0
 51 52  1  0  0  0
 51125  1  0  0  0
 51126  1  0  0  0
 52127  1  0  0  0
 52128  1  0  0  0
 53 54  1  0  0  0
 54 55  2  0  0  0
 54129  1  0  0  0
 55 57  1  0  0  0
 55130  1  0  0  0
 56 69  2  0  0  0
 57 58  2  0  0  0
 57131  1  0  0  0
 58132  1  0  0  0
 59 60  1  0  0  0
 59 61  1  0  0  0
 59 62  1  0  0  0
 60133  1  0  0  0
 60134  1  0  0  0
 60135  1  0  0  0
 61136  1  0  0  0
 61137  1  0  0  0
 61138  1  0  0  0
 62139  1  0  0  0
 62140  1  0  0  0
 62141  1  0  0  0
 63 65  1  0  0  0
 63142  1  0  0  0
 63143  1  0  0  0
 63144  1  0  0  0
 64145  1  0  0  0
 65146  1  0  0  0
 68 83  1  0  0  0
 71 72  2  0  0  0
 71 75  1  0  0  0
 71147  1  0  0  0
 72 77  1  0  0  0
 72148  1  0  0  0
 73 76  1  0  0  0
 73 80  2  0  0  0
 73149  1  0  0  0
 74 77  2  0  0  0
 74 78  1  0  0  0
 74150  1  0  0  0
 75 78  2  0  0  0
 75 82  1  0  0  0
 76 79  2  0  0  0
 76 83  1  0  0  0
 77 84  1  0  0  0
 78 85  1  0  0  0
 79 81  1  0  0  0
 79 84  1  0  0  0
 80 84  1  0  0  0
 80 87  1  0  0  0
 81151  1  0  0  0
 81152  1  0  0  0
 81153  1  0  0  0
 82 86  1  0  0  0
 82154  1  0  0  0
 82155  1  0  0  0
 83156  1  0  0  0
 83157  1  0  0  0
 85158  1  0  0  0
 85159  1  0  0  0
 86160  1  0  0  0
 87161  1  0  0  0
M  ISO  4   1 100  68 101  83 101  86 100
M  END
> <chiral flag>
0

> <version>
0

> <s_m_source_file>
/data/baiqing/PycharmProjects/Reinvent-master-3.2/result/LINK_invent/BTK/process_docking_weight1_custom_product_contain_oxygen_bond_distance_aromatic_linkinvent_7_9_3/rearranged_h_0094.sdf

> <i_m_source_file_index>
62

> <r_mmod_Potential_Energy-OPLS-2005>
-66.6099319458008

> <r_mmod_Stretch_Energy-OPLS-2005>
44.5529441833496

> <r_mmod_Bend_Energy-OPLS-2005>
112.174270629883

> <r_mmod_Torsional_Energy-OPLS-2005>
229.878021240234

> <r_mmod_Improper_Torsional_Energy-OPLS-2005>
6.58995962142944

> <r_mmod_Van_der_Waal_Energy-OPLS-2005>
148.137969970703

> <r_mmod_Electrostatic_Energy-OPLS-2005>
-398.878570556641

> <r_mmod_Solvation_Energy-OPLS-2005>
-226.536972045898

> <b_mmod_Minimization_Converged-OPLS-2005>
0

> <r_mmod_RMS_Derivative-OPLS-2005>
3.58899354934692

$$$$
62
                    3D
 Structure written by MMmdl.
158167  0  0  1  0            999 V2000
  -30.6310  -14.6576   20.5013 C   0  0  0  0  0  0
  -30.4447  -12.4049   19.4545 C   0  0  0  0  0  0
  -29.5109  -12.5120   18.2277 C   0  0  0  0  0  0
  -28.0346  -12.3466   18.6409 C   0  0  0  0  0  0
  -27.6571  -13.2196   19.8673 C   0  0  2  0  0  0
  -28.7050  -13.0809   20.9963 C   0  0  0  0  0  0
  -25.2561  -13.8169   20.5664 C   0  0  0  0  0  0
  -24.1835  -13.0439   20.9194 C   0  0  0  0  0  0
  -24.6409  -11.6911   20.8749 C   0  0  0  0  0  0
  -23.9067  -10.4296   21.0407 C   0  0  0  0  0  0
  -24.3618   -9.4209   21.9182 C   0  0  0  0  0  0
  -23.6294   -8.2243   22.0754 C   0  0  0  0  0  0
  -22.4276   -8.0281   21.3542 C   0  0  0  0  0  0
  -21.9909   -9.0257   20.4644 C   0  0  0  0  0  0
  -22.7238  -10.2135   20.3055 C   0  0  0  0  0  0
  -21.6850   -6.0733   22.5276 C   0  0  0  0  0  0
  -21.4015   -6.5637   23.8210 C   0  0  0  0  0  0
  -21.3661   -5.6790   24.9170 C   0  0  0  0  0  0
  -21.6046   -4.3054   24.7223 C   0  0  0  0  0  0
  -21.8818   -3.8140   23.4344 C   0  0  0  0  0  0
  -21.9196   -4.6960   22.3399 C   0  0  0  0  0  0
  -22.7852  -13.5227   21.1854 C   0  0  0  0  0  0
  -22.1660   -4.2145   21.0979 F   0  0  0  0  0  0
  -21.5633   -3.4534   25.7735 F   0  0  0  0  0  0
  -30.0211  -13.4283   20.4334 N   0  0  0  0  0  0
  -26.3017  -12.9363   20.3343 N   0  0  0  0  0  0
  -25.9342  -11.6518   20.5778 N   0  0  0  0  0  0
  -22.0494  -12.8224   22.0417 N   0  0  0  0  0  0
  -25.4235  -15.1883   20.4004 N   0  0  0  0  0  0
  -31.7815  -14.8230   20.0854 O   0  0  0  0  0  0
  -21.6644   -6.8875   21.4238 O   0  0  0  0  0  0
  -22.3541  -14.5535   20.6709 O   0  0  0  0  0  0
  -24.6281  -31.8594   23.2037 C   0  0  0  0  0  0
  -25.9128  -32.4780   23.8361 C   0  0  1  0  0  0
  -27.2183  -27.2993   20.1068 C   0  0  0  0  0  0
  -25.5947  -33.8576   24.2293 N   0  0  0  0  0  0
  -23.4240  -30.4881   21.5459 C   0  0  2  0  0  0
  -24.8704  -28.9524   20.1066 C   0  0  0  0  0  0
  -22.7502  -29.4624   22.4902 C   0  0  0  0  0  0
  -18.0307  -28.1382   22.8494 C   0  0  0  0  0  0
  -24.1496  -36.7279   23.2638 C   0  0  0  0  0  0
  -25.9705  -30.7839   21.3820 C   0  0  0  0  0  0
  -26.0441  -29.4134   20.7173 C   0  0  0  0  0  0
  -27.2208  -28.5997   20.7100 C   0  0  0  0  0  0
  -26.0165  -26.9138   19.4597 C   0  0  0  0  0  0
  -24.8603  -27.7075   19.4702 C   0  0  0  0  0  0
  -23.6413  -29.8338   20.1580 C   0  0  0  0  0  0
  -25.4119  -36.3081   24.0337 C   0  0  1  0  0  0
  -20.5911  -28.3678   23.1274 C   0  0  2  0  0  0
  -20.6800  -26.9396   22.5406 C   0  0  0  0  0  0
  -19.5767  -26.6372   21.5221 C   0  0  0  0  0  0
  -18.1947  -26.7930   22.1627 C   0  0  0  0  0  0
  -19.1559  -28.8846   23.2888 C   0  0  0  0  0  0
  -18.9480  -30.1452   23.8887 C   0  0  0  0  0  0
  -17.6477  -30.6588   24.0562 C   0  0  0  0  0  0
  -25.9046  -34.9452   23.5110 C   0  0  0  0  0  0
  -16.5362  -29.9085   23.6334 C   0  0  0  0  0  0
  -16.7295  -28.6508   23.0350 C   0  0  0  0  0  0
  -26.4489  -31.6583   25.0729 C   0  0  0  0  0  0
  -25.3717  -31.3754   26.1456 C   0  0  0  0  0  0
  -27.0329  -30.3009   24.6186 C   0  0  0  0  0  0
  -27.6051  -32.4305   25.7499 C   0  0  0  0  0  0
  -27.5588  -37.1803   24.8465 C   0  0  0  0  0  0
  -21.4207  -29.3045   22.3668 N   0  0  0  0  0  0
  -26.4296  -37.3779   23.9417 N   0  0  0  0  0  0
  -24.6934  -31.0599   22.1005 N   0  0  0  0  0  0
  -23.4238  -28.8127   23.2950 O   0  0  0  0  0  0
  -28.3060  -26.3972   20.1706 O   0  0  0  0  0  0
  -26.5592  -34.8918   22.4660 O   0  0  0  0  0  0
  -23.5442  -32.1383   23.7364 O   0  0  0  0  0  0
  -28.9711  -19.3862   21.4469 C   0  0  0  0  0  0
  -30.2936  -23.7821   20.6989 C   0  0  0  0  0  0
  -30.7508  -17.8797   19.9018 C   0  0  0  0  0  0
  -28.6510  -22.4053   20.1138 C   0  0  0  0  0  0
  -29.0187  -17.9618   21.5742 C   0  0  0  0  0  0
  -28.9431  -23.7661   20.2406 C   0  0  0  0  0  0
  -29.7990  -20.1069   20.5483 C   0  0  0  0  0  0
  -29.9106  -17.1615   20.8010 C   0  0  0  0  0  0
  -30.7015  -19.3088   19.7747 C   0  0  0  0  0  0
  -30.7291  -22.4842   20.8309 C   0  0  0  0  0  0
  -28.0914  -17.2907   22.5756 C   0  0  0  0  0  0
  -27.9737  -24.9640   19.9299 C   0  0  0  0  0  0
  -29.7316  -21.5770   20.4855 N   0  0  0  0  0  0
  -31.5647  -19.9153   18.8585 N   0  0  0  0  0  0
  -29.8479  -15.6965   20.9366 N   0  0  0  0  0  0
  -31.9434  -22.0455   21.2557 O   0  0  0  0  0  0
  -31.4829  -12.5358   19.1449 H   0  0  0  0  0  0
  -30.3896  -11.4091   19.8959 H   0  0  0  0  0  0
  -29.7747  -11.7587   17.4843 H   0  0  0  0  0  0
  -29.6497  -13.4803   17.7449 H   0  0  0  0  0  0
  -27.8751  -11.2934   18.8749 H   0  0  0  0  0  0
  -27.3782  -12.5716   17.7996 H   0  0  0  0  0  0
  -27.6742  -14.2547   19.5256 H   0  0  0  0  0  0
  -28.7210  -12.0601   21.3803 H   0  0  0  0  0  0
  -28.4468  -13.7121   21.8474 H   0  0  0  0  0  0
  -25.2756   -9.5692   22.4761 H   0  0  0  0  0  0
  -24.0001   -7.4637   22.7468 H   0  0  0  0  0  0
  -21.0836   -8.8768   19.8952 H   0  0  0  0  0  0
  -22.3683  -10.9675   19.6170 H   0  0  0  0  0  0
  -21.2000   -7.6146   23.9709 H   0  0  0  0  0  0
  -21.1484   -6.0521   25.9075 H   0  0  0  0  0  0
  -22.0597   -2.7602   23.2841 H   0  0  0  0  0  0
  -22.4107  -11.9886   22.4809 H   0  0  0  0  0  0
  -21.1113  -13.1252   22.2621 H   0  0  0  0  0  0
  -24.6441  -15.8321   20.4815 H   0  0  0  0  0  0
  -26.2545  -15.6213   20.0182 H   0  0  0  0  0  0
  -26.7182  -32.5428   23.1093 H   0  0  0  0  0  0
  -25.0150  -33.9708   25.0481 H   0  0  0  0  0  0
  -22.7202  -31.3118   21.4058 H   0  0  0  0  0  0
  -23.3772  -35.9594   23.3278 H   0  0  0  0  0  0
  -24.3603  -36.8901   22.2054 H   0  0  0  0  0  0
  -23.7225  -37.6478   23.6648 H   0  0  0  0  0  0
  -26.1109  -31.5533   20.6213 H   0  0  0  0  0  0
  -26.8481  -30.8235   22.0157 H   0  0  0  0  0  0
  -28.1161  -28.9483   21.2069 H   0  0  0  0  0  0
  -25.9137  -25.9731   18.9421 H   0  0  0  0  0  0
  -23.9636  -27.3508   18.9805 H   0  0  0  0  0  0
  -23.7655  -30.6160   19.4079 H   0  0  0  0  0  0
  -22.7609  -29.2673   19.8493 H   0  0  0  0  0  0
  -25.1303  -36.1928   25.0830 H   0  0  0  0  0  0
  -21.0010  -28.3241   24.1390 H   0  0  0  0  0  0
  -20.5718  -26.2273   23.3604 H   0  0  0  0  0  0
  -21.6663  -26.7437   22.1172 H   0  0  0  0  0  0
  -19.6927  -25.6289   21.1242 H   0  0  0  0  0  0
  -19.6714  -27.3193   20.6760 H   0  0  0  0  0  0
  -17.4225  -26.6685   21.4023 H   0  0  0  0  0  0
  -18.0328  -26.0086   22.9024 H   0  0  0  0  0  0
  -19.7952  -30.7284   24.2239 H   0  0  0  0  0  0
  -17.5033  -31.6271   24.5155 H   0  0  0  0  0  0
  -15.5362  -30.2980   23.7681 H   0  0  0  0  0  0
  -15.8695  -28.0838   22.7035 H   0  0  0  0  0  0
  -24.5899  -30.7085   25.7807 H   0  0  0  0  0  0
  -24.8896  -32.2931   26.4831 H   0  0  0  0  0  0
  -25.8035  -30.8984   27.0258 H   0  0  0  0  0  0
  -26.2914  -29.6770   24.1186 H   0  0  0  0  0  0
  -27.4017  -29.7250   25.4679 H   0  0  0  0  0  0
  -27.8783  -30.4309   23.9426 H   0  0  0  0  0  0
  -27.2678  -33.3615   26.2068 H   0  0  0  0  0  0
  -28.3880  -32.6838   25.0335 H   0  0  0  0  0  0
  -28.0694  -31.8423   26.5427 H   0  0  0  0  0  0
  -28.2585  -38.0121   24.7539 H   0  0  0  0  0  0
  -28.1103  -36.2655   24.6251 H   0  0  0  0  0  0
  -27.2309  -37.1395   25.8867 H   0  0  0  0  0  0
  -20.9364  -29.8817   21.6933 H   0  0  0  0  0  0
  -26.0173  -38.2843   24.1451 H   0  0  0  0  0  0
  -28.2888  -19.9502   22.0656 H   0  0  0  0  0  0
  -30.8805  -24.6641   20.9160 H   0  0  0  0  0  0
  -31.4416  -17.3263   19.2820 H   0  0  0  0  0  0
  -27.7341  -21.9355   19.7835 H   0  0  0  0  0  0
  -27.4961  -18.0167   23.1284 H   0  0  0  0  0  0
  -28.6645  -16.7133   23.3023 H   0  0  0  0  0  0
  -27.4020  -16.6150   22.0700 H   0  0  0  0  0  0
  -27.0713  -24.7317   20.4986 H   0  0  0  0  0  0
  -27.7262  -24.8510   18.8743 H   0  0  0  0  0  0
  -32.3760  -19.3807   18.5672 H   0  0  0  0  0  0
  -31.8117  -20.8727   19.0960 H   0  0  0  0  0  0
  -28.9970  -15.3672   21.3650 H   0  0  0  0  0  0
  -32.4507  -22.8086   21.5153 H   0  0  0  0  0  0
  1 25  1  0  0  0
  1 30  2  0  0  0
  1 85  1  0  0  0
  2  3  1  0  0  0
  2 25  1  0  0  0
  2 87  1  0  0  0
  2 88  1  0  0  0
  3  4  1  0  0  0
  3 89  1  0  0  0
  3 90  1  0  0  0
  4  5  1  0  0  0
  4 91  1  0  0  0
  4 92  1  0  0  0
  5  6  1  0  0  0
  5 26  1  0  0  0
  5 93  1  0  0  0
  6 25  1  0  0  0
  6 94  1  0  0  0
  6 95  1  0  0  0
  7  8  2  0  0  0
  7 26  1  0  0  0
  7 29  1  0  0  0
  8  9  1  0  0  0
  8 22  1  0  0  0
  9 10  1  0  0  0
  9 27  2  0  0  0
 10 11  2  0  0  0
 10 15  1  0  0  0
 11 12  1  0  0  0
 11 96  1  0  0  0
 12 13  2  0  0  0
 12 97  1  0  0  0
 13 14  1  0  0  0
 13 31  1  0  0  0
 14 15  2  0  0  0
 14 98  1  0  0  0
 15 99  1  0  0  0
 16 17  2  0  0  0
 16 21  1  0  0  0
 16 31  1  0  0  0
 17 18  1  0  0  0
 17100  1  0  0  0
 18 19  2  0  0  0
 18101  1  0  0  0
 19 20  1  0  0  0
 19 24  1  0  0  0
 20 21  2  0  0  0
 20102  1  0  0  0
 21 23  1  0  0  0
 22 28  1  0  0  0
 22 32  2  0  0  0
 26 27  1  0  0  0
 28103  1  0  0  0
 28104  1  0  0  0
 29105  1  0  0  0
 29106  1  0  0  0
 33 34  1  0  0  0
 33 66  1  0  0  0
 33 70  2  0  0  0
 34 36  1  0  0  0
 34 59  1  0  0  0
 34107  1  0  0  0
 35 44  2  0  0  0
 35 45  1  0  0  0
 35 68  1  0  0  0
 36 56  1  0  0  0
 36108  1  0  0  0
 37 39  1  0  0  0
 37 47  1  0  0  0
 37 66  1  0  0  0
 37109  1  0  0  0
 38 43  2  0  0  0
 38 46  1  0  0  0
 38 47  1  0  0  0
 39 64  1  0  0  0
 39 67  2  0  0  0
 40 52  1  0  0  0
 40 53  2  0  0  0
 40 58  1  0  0  0
 41110  1  0  0  0
 41111  1  0  0  0
 41112  1  0  0  0
 41 48  1  0  0  0
 42 43  1  0  0  0
 42 66  1  0  0  0
 42113  1  0  0  0
 42114  1  0  0  0
 43 44  1  0  0  0
 44115  1  0  0  0
 45 46  2  0  0  0
 45116  1  0  0  0
 46117  1  0  0  0
 47118  1  0  0  0
 47119  1  0  0  0
 48 56  1  0  0  0
 48 65  1  0  0  0
 48120  1  0  0  0
 49 50  1  0  0  0
 49 53  1  0  0  0
 49 64  1  0  0  0
 49121  1  0  0  0
 50 51  1  0  0  0
 50122  1  0  0  0
 50123  1  0  0  0
 51 52  1  0  0  0
 51124  1  0  0  0
 51125  1  0  0  0
 52126  1  0  0  0
 52127  1  0  0  0
 53 54  1  0  0  0
 54 55  2  0  0  0
 54128  1  0  0  0
 55 57  1  0  0  0
 55129  1  0  0  0
 56 69  2  0  0  0
 57 58  2  0  0  0
 57130  1  0  0  0
 58131  1  0  0  0
 59 60  1  0  0  0
 59 61  1  0  0  0
 59 62  1  0  0  0
 60132  1  0  0  0
 60133  1  0  0  0
 60134  1  0  0  0
 61135  1  0  0  0
 61136  1  0  0  0
 61137  1  0  0  0
 62138  1  0  0  0
 62139  1  0  0  0
 62140  1  0  0  0
 63 65  1  0  0  0
 63141  1  0  0  0
 63142  1  0  0  0
 63143  1  0  0  0
 64144  1  0  0  0
 65145  1  0  0  0
 68 82  1  0  0  0
 71 75  2  0  0  0
 71 77  1  0  0  0
 71146  1  0  0  0
 72 76  1  0  0  0
 72 80  2  0  0  0
 72147  1  0  0  0
 73 78  2  0  0  0
 73 79  1  0  0  0
 73148  1  0  0  0
 74 76  2  0  0  0
 74 83  1  0  0  0
 74149  1  0  0  0
 75 78  1  0  0  0
 75 81  1  0  0  0
 76 82  1  0  0  0
 77 79  2  0  0  0
 77 83  1  0  0  0
 78 85  1  0  0  0
 79 84  1  0  0  0
 80 83  1  0  0  0
 80 86  1  0  0  0
 81150  1  0  0  0
 81151  1  0  0  0
 81152  1  0  0  0
 82153  1  0  0  0
 82154  1  0  0  0
 84155  1  0  0  0
 84156  1  0  0  0
 85157  1  0  0  0
 86158  1  0  0  0
M  ISO  4   1 100  68 101  82 101  85 100
M  END
> <chiral flag>
0

> <version>
0

> <s_m_source_file>
/data/baiqing/PycharmProjects/Reinvent-master-3.2/result/LINK_invent/BTK/process_docking_weight1_custom_product_contain_oxygen_bond_distance_aromatic_linkinvent_7_9_3/rearranged_h_0094.sdf

> <i_m_source_file_index>
63

> <r_mmod_Potential_Energy-OPLS-2005>
84.025993347168

> <r_mmod_Stretch_Energy-OPLS-2005>
87.8752822875977

> <r_mmod_Bend_Energy-OPLS-2005>
146.630126953125

> <r_mmod_Torsional_Energy-OPLS-2005>
236.047500610352

> <r_mmod_Improper_Torsional_Energy-OPLS-2005>
8.16125106811523

> <r_mmod_Van_der_Waal_Energy-OPLS-2005>
143.458648681641

> <r_mmod_Electrostatic_Energy-OPLS-2005>
-367.773742675781

> <r_mmod_Solvation_Energy-OPLS-2005>
-229.053451538086

> <b_mmod_Minimization_Converged-OPLS-2005>
0

> <r_mmod_RMS_Derivative-OPLS-2005>
1.92029428482056

$$$$
63
                    3D
 Structure written by MMmdl.
158167  0  0  1  0            999 V2000
  -30.6539  -14.7087   20.5364 C   0  0  0  0  0  0
  -30.4266  -12.4532   19.4586 C   0  0  0  0  0  0
  -29.5056  -12.5498   18.2253 C   0  0  0  0  0  0
  -28.0296  -12.3712   18.6339 C   0  0  0  0  0  0
  -27.6458  -13.2379   19.8590 C   0  0  2  0  0  0
  -28.6915  -13.1278   20.9878 C   0  0  0  0  0  0
  -25.2448  -13.8180   20.5649 C   0  0  0  0  0  0
  -24.1748  -13.0412   20.9107 C   0  0  0  0  0  0
  -24.6383  -11.6912   20.8704 C   0  0  0  0  0  0
  -23.9072  -10.4286   21.0391 C   0  0  0  0  0  0
  -24.3629   -9.4211   21.9185 C   0  0  0  0  0  0
  -23.6302   -8.2248   22.0771 C   0  0  0  0  0  0
  -22.4288   -8.0281   21.3554 C   0  0  0  0  0  0
  -21.9918   -9.0247   20.4649 C   0  0  0  0  0  0
  -22.7250  -10.2122   20.3042 C   0  0  0  0  0  0
  -21.6839   -6.0734   22.5289 C   0  0  0  0  0  0
  -21.4006   -6.5636   23.8216 C   0  0  0  0  0  0
  -21.3649   -5.6788   24.9181 C   0  0  0  0  0  0
  -21.6051   -4.3048   24.7226 C   0  0  0  0  0  0
  -21.8814   -3.8148   23.4337 C   0  0  0  0  0  0
  -21.9188   -4.6970   22.3400 C   0  0  0  0  0  0
  -22.7760  -13.5171   21.1810 C   0  0  0  0  0  0
  -22.1650   -4.2149   21.0968 F   0  0  0  0  0  0
  -21.5641   -3.4536   25.7732 F   0  0  0  0  0  0
  -30.0023  -13.4938   20.4256 N   0  0  0  0  0  0
  -26.2948  -12.9449   20.3328 N   0  0  0  0  0  0
  -25.9334  -11.6567   20.5733 N   0  0  0  0  0  0
  -22.0427  -12.8155   22.0379 N   0  0  0  0  0  0
  -25.4036  -15.1911   20.4126 N   0  0  0  0  0  0
  -31.7625  -14.8581   20.0176 O   0  0  0  0  0  0
  -21.6647   -6.8887   21.4249 O   0  0  0  0  0  0
  -22.3413  -14.5483   20.6677 O   0  0  0  0  0  0
  -24.6264  -31.8570   23.1967 C   0  0  0  0  0  0
  -25.9121  -32.4740   23.8325 C   0  0  1  0  0  0
  -27.2278  -27.2804   20.1174 C   0  0  0  0  0  0
  -25.5933  -33.8550   24.2249 N   0  0  0  0  0  0
  -23.4230  -30.4751   21.5376 C   0  0  2  0  0  0
  -24.8720  -28.9205   20.1035 C   0  0  0  0  0  0
  -22.7489  -29.4603   22.4907 C   0  0  0  0  0  0
  -18.0291  -28.1376   22.8476 C   0  0  0  0  0  0
  -24.1484  -36.7270   23.2640 C   0  0  0  0  0  0
  -25.9631  -30.7734   21.3729 C   0  0  0  0  0  0
  -26.0370  -29.3941   20.7206 C   0  0  0  0  0  0
  -27.2088  -28.5786   20.7287 C   0  0  0  0  0  0
  -26.0428  -26.8635   19.4750 C   0  0  0  0  0  0
  -24.8796  -27.6623   19.4757 C   0  0  0  0  0  0
  -23.6397  -29.8058   20.1531 C   0  0  0  0  0  0
  -25.4106  -36.3055   24.0329 C   0  0  1  0  0  0
  -20.5886  -28.3685   23.1292 C   0  0  2  0  0  0
  -20.6766  -26.9411   22.5422 C   0  0  0  0  0  0
  -19.5748  -26.6377   21.5208 C   0  0  0  0  0  0
  -18.1927  -26.7912   22.1609 C   0  0  0  0  0  0
  -19.1546  -28.8845   23.2874 C   0  0  0  0  0  0
  -18.9468  -30.1438   23.8896 C   0  0  0  0  0  0
  -17.6467  -30.6572   24.0555 C   0  0  0  0  0  0
  -25.9062  -34.9437   23.5093 C   0  0  0  0  0  0
  -16.5352  -29.9075   23.6329 C   0  0  0  0  0  0
  -16.7276  -28.6497   23.0345 C   0  0  0  0  0  0
  -26.4480  -31.6561   25.0712 C   0  0  0  0  0  0
  -25.3698  -31.3716   26.1421 C   0  0  0  0  0  0
  -27.0312  -30.2983   24.6182 C   0  0  0  0  0  0
  -27.6037  -32.4277   25.7502 C   0  0  0  0  0  0
  -27.5583  -37.1785   24.8454 C   0  0  0  0  0  0
  -21.4194  -29.3027   22.3671 N   0  0  0  0  0  0
  -26.4268  -37.3778   23.9426 N   0  0  0  0  0  0
  -24.6892  -31.0550   22.0921 N   0  0  0  0  0  0
  -23.4218  -28.8191   23.3013 O   0  0  0  0  0  0
  -28.3433  -26.4279   20.2232 O   0  0  0  0  0  0
  -26.5641  -34.8925   22.4667 O   0  0  0  0  0  0
  -23.5416  -32.1388   23.7274 O   0  0  0  0  0  0
  -30.1855  -19.4653   20.0195 C   0  0  0  0  0  0
  -30.5793  -18.0950   20.2454 C   0  0  0  0  0  0
  -27.0014  -23.1103   19.5457 C   0  0  0  0  0  0
  -27.9945  -18.9546   20.7942 C   0  0  0  0  0  0
  -28.2734  -23.7234   19.7358 C   0  0  0  0  0  0
  -28.8716  -19.9606   20.2914 C   0  0  0  0  0  0
  -29.6819  -17.1048   20.7531 C   0  0  0  0  0  0
  -28.3730  -17.5948   21.0073 C   0  0  0  0  0  0
  -27.1091  -21.7512   19.7049 C   0  0  0  0  0  0
  -29.0910  -22.6274   20.0729 C   0  0  0  0  0  0
  -30.4981  -14.6963   23.4520 C   0  0  0  0  0  0
  -30.0783  -15.7037   22.6591 C   0  0  0  0  0  0
  -28.5950  -25.2441   19.3567 C   0  0  0  0  0  0
  -28.4102  -21.3654   20.0537 N   0  0  0  0  0  0
  -30.0622  -15.7505   21.2441 N   0  0  0  0  0  0
  -26.1183  -20.8390   19.4999 O   0  0  0  0  0  0
  -30.4246  -22.6530   20.3515 O   0  0  0  0  0  0
  -27.4539  -16.7435   21.5184 F   0  0  0  0  0  0
  -31.4689  -12.5706   19.1588 H   0  0  0  0  0  0
  -30.3590  -11.4606   19.9058 H   0  0  0  0  0  0
  -29.7851  -11.8036   17.4804 H   0  0  0  0  0  0
  -29.6334  -13.5196   17.7404 H   0  0  0  0  0  0
  -27.8686  -11.3149   18.8534 H   0  0  0  0  0  0
  -27.3759  -12.6065   17.7947 H   0  0  0  0  0  0
  -27.6493  -14.2723   19.5146 H   0  0  0  0  0  0
  -28.7175  -12.1145   21.3942 H   0  0  0  0  0  0
  -28.4023  -13.7763   21.8130 H   0  0  0  0  0  0
  -25.2783   -9.5685   22.4738 H   0  0  0  0  0  0
  -24.0015   -7.4631   22.7468 H   0  0  0  0  0  0
  -21.0857   -8.8744   19.8935 H   0  0  0  0  0  0
  -22.3716  -10.9648   19.6118 H   0  0  0  0  0  0
  -21.1987   -7.6149   23.9717 H   0  0  0  0  0  0
  -21.1476   -6.0526   25.9087 H   0  0  0  0  0  0
  -22.0601   -2.7610   23.2834 H   0  0  0  0  0  0
  -22.4088  -11.9839   22.4761 H   0  0  0  0  0  0
  -21.1060  -13.1187   22.2641 H   0  0  0  0  0  0
  -24.6408  -15.8332   20.5988 H   0  0  0  0  0  0
  -26.3101  -15.6479   20.4268 H   0  0  0  0  0  0
  -26.7190  -32.5392   23.1064 H   0  0  0  0  0  0
  -25.0044  -33.9693   25.0367 H   0  0  0  0  0  0
  -22.7143  -31.2930   21.3934 H   0  0  0  0  0  0
  -23.3762  -35.9583   23.3248 H   0  0  0  0  0  0
  -24.3579  -36.8949   22.2067 H   0  0  0  0  0  0
  -23.7225  -37.6457   23.6681 H   0  0  0  0  0  0
  -26.0939  -31.5337   20.6018 H   0  0  0  0  0  0
  -26.8409  -30.8278   22.0048 H   0  0  0  0  0  0
  -28.0949  -28.9273   21.2412 H   0  0  0  0  0  0
  -25.9880  -25.8951   19.0042 H   0  0  0  0  0  0
  -23.9841  -27.2967   18.9925 H   0  0  0  0  0  0
  -23.7583  -30.5790   19.3933 H   0  0  0  0  0  0
  -22.7570  -29.2361   19.8545 H   0  0  0  0  0  0
  -25.1284  -36.1880   25.0818 H   0  0  0  0  0  0
  -20.9983  -28.3246   24.1411 H   0  0  0  0  0  0
  -20.5646  -26.2303   23.3619 H   0  0  0  0  0  0
  -21.6636  -26.7408   22.1236 H   0  0  0  0  0  0
  -19.6911  -25.6298   21.1235 H   0  0  0  0  0  0
  -19.6692  -27.3188   20.6731 H   0  0  0  0  0  0
  -17.4216  -26.6677   21.4000 H   0  0  0  0  0  0
  -18.0318  -26.0052   22.9000 H   0  0  0  0  0  0
  -19.7937  -30.7231   24.2280 H   0  0  0  0  0  0
  -17.5027  -31.6240   24.5173 H   0  0  0  0  0  0
  -15.5362  -30.2962   23.7661 H   0  0  0  0  0  0
  -15.8686  -28.0806   22.7060 H   0  0  0  0  0  0
  -24.5882  -30.7059   25.7755 H   0  0  0  0  0  0
  -24.8855  -32.2877   26.4809 H   0  0  0  0  0  0
  -25.8002  -30.8925   27.0234 H   0  0  0  0  0  0
  -26.2889  -29.6741   24.1200 H   0  0  0  0  0  0
  -27.4001  -29.7230   25.4690 H   0  0  0  0  0  0
  -27.8756  -30.4240   23.9398 H   0  0  0  0  0  0
  -27.2653  -33.3581   26.2061 H   0  0  0  0  0  0
  -28.3869  -32.6833   25.0354 H   0  0  0  0  0  0
  -28.0676  -31.8408   26.5437 H   0  0  0  0  0  0
  -28.2550  -38.0139   24.7554 H   0  0  0  0  0  0
  -28.1130  -36.2669   24.6172 H   0  0  0  0  0  0
  -27.2318  -37.1299   25.8864 H   0  0  0  0  0  0
  -20.9396  -29.8740   21.6859 H   0  0  0  0  0  0
  -26.0128  -38.2846   24.1461 H   0  0  0  0  0  0
  -30.9240  -20.1589   19.6440 H   0  0  0  0  0  0
  -31.6095  -17.8240   20.0638 H   0  0  0  0  0  0
  -26.1035  -23.6188   19.2242 H   0  0  0  0  0  0
  -26.9808  -19.2162   21.0568 H   0  0  0  0  0  0
  -30.4486  -14.8013   24.5261 H   0  0  0  0  0  0
  -30.8934  -13.7627   23.0809 H   0  0  0  0  0  0
  -29.7016  -16.6070   23.1233 H   0  0  0  0  0  0
  -28.1533  -25.4425   18.3795 H   0  0  0  0  0  0
  -29.6666  -25.2669   19.1610 H   0  0  0  0  0  0
  -25.3180  -21.3211   19.3115 H   0  0  0  0  0  0
  -30.6986  -23.5643   20.3909 H   0  0  0  0  0  0
  1 25  1  0  0  0
  1 30  2  0  0  0
  1 85  1  0  0  0
  2  3  1  0  0  0
  2 25  1  0  0  0
  2 89  1  0  0  0
  2 90  1  0  0  0
  3  4  1  0  0  0
  3 91  1  0  0  0
  3 92  1  0  0  0
  4  5  1  0  0  0
  4 93  1  0  0  0
  4 94  1  0  0  0
  5  6  1  0  0  0
  5 26  1  0  0  0
  5 95  1  0  0  0
  6 25  1  0  0  0
  6 96  1  0  0  0
  6 97  1  0  0  0
  7  8  2  0  0  0
  7 26  1  0  0  0
  7 29  1  0  0  0
  8  9  1  0  0  0
  8 22  1  0  0  0
  9 10  1  0  0  0
  9 27  2  0  0  0
 10 11  2  0  0  0
 10 15  1  0  0  0
 11 12  1  0  0  0
 11 98  1  0  0  0
 12 13  2  0  0  0
 12 99  1  0  0  0
 13 14  1  0  0  0
 13 31  1  0  0  0
 14 15  2  0  0  0
 14100  1  0  0  0
 15101  1  0  0  0
 16 17  2  0  0  0
 16 21  1  0  0  0
 16 31  1  0  0  0
 17 18  1  0  0  0
 17102  1  0  0  0
 18 19  2  0  0  0
 18103  1  0  0  0
 19 20  1  0  0  0
 19 24  1  0  0  0
 20 21  2  0  0  0
 20104  1  0  0  0
 21 23  1  0  0  0
 22 28  1  0  0  0
 22 32  2  0  0  0
 26 27  1  0  0  0
 28105  1  0  0  0
 28106  1  0  0  0
 29107  1  0  0  0
 29108  1  0  0  0
 33 34  1  0  0  0
 33 66  1  0  0  0
 33 70  2  0  0  0
 34 36  1  0  0  0
 34 59  1  0  0  0
 34109  1  0  0  0
 35 44  2  0  0  0
 35 45  1  0  0  0
 35 68  1  0  0  0
 36 56  1  0  0  0
 36110  1  0  0  0
 37 39  1  0  0  0
 37 47  1  0  0  0
 37 66  1  0  0  0
 37111  1  0  0  0
 38 43  2  0  0  0
 38 46  1  0  0  0
 38 47  1  0  0  0
 39 64  1  0  0  0
 39 67  2  0  0  0
 40 52  1  0  0  0
 40 53  2  0  0  0
 40 58  1  0  0  0
 41112  1  0  0  0
 41113  1  0  0  0
 41114  1  0  0  0
 41 48  1  0  0  0
 42 43  1  0  0  0
 42 66  1  0  0  0
 42115  1  0  0  0
 42116  1  0  0  0
 43 44  1  0  0  0
 44117  1  0  0  0
 45 46  2  0  0  0
 45118  1  0  0  0
 46119  1  0  0  0
 47120  1  0  0  0
 47121  1  0  0  0
 48 56  1  0  0  0
 48 65  1  0  0  0
 48122  1  0  0  0
 49 50  1  0  0  0
 49 53  1  0  0  0
 49 64  1  0  0  0
 49123  1  0  0  0
 50 51  1  0  0  0
 50124  1  0  0  0
 50125  1  0  0  0
 51 52  1  0  0  0
 51126  1  0  0  0
 51127  1  0  0  0
 52128  1  0  0  0
 52129  1  0  0  0
 53 54  1  0  0  0
 54 55  2  0  0  0
 54130  1  0  0  0
 55 57  1  0  0  0
 55131  1  0  0  0
 56 69  2  0  0  0
 57 58  2  0  0  0
 57132  1  0  0  0
 58133  1  0  0  0
 59 60  1  0  0  0
 59 61  1  0  0  0
 59 62  1  0  0  0
 60134  1  0  0  0
 60135  1  0  0  0
 60136  1  0  0  0
 61137  1  0  0  0
 61138  1  0  0  0
 61139  1  0  0  0
 62140  1  0  0  0
 62141  1  0  0  0
 62142  1  0  0  0
 63 65  1  0  0  0
 63143  1  0  0  0
 63144  1  0  0  0
 63145  1  0  0  0
 64146  1  0  0  0
 65147  1  0  0  0
 68 83  1  0  0  0
 71 72  2  0  0  0
 71 76  1  0  0  0
 71148  1  0  0  0
 72 77  1  0  0  0
 72149  1  0  0  0
 73 75  1  0  0  0
 73 79  2  0  0  0
 73150  1  0  0  0
 74 76  2  0  0  0
 74 78  1  0  0  0
 74151  1  0  0  0
 75 80  2  0  0  0
 75 83  1  0  0  0
 76 84  1  0  0  0
 77 78  2  0  0  0
 77 85  1  0  0  0
 78 88  1  0  0  0
 79 84  1  0  0  0
 79 86  1  0  0  0
 80 84  1  0  0  0
 80 87  1  0  0  0
 81 82  2  0  0  0
 81152  1  0  0  0
 81153  1  0  0  0
 82 85  1  0  0  0
 82154  1  0  0  0
 83155  1  0  0  0
 83156  1  0  0  0
 86157  1  0  0  0
 87158  1  0  0  0
M  ISO  4   1 100  68 101  83 101  85 100
M  END
> <chiral flag>
0

> <version>
0

> <s_m_source_file>
/data/baiqing/PycharmProjects/Reinvent-master-3.2/result/LINK_invent/BTK/process_docking_weight1_custom_product_contain_oxygen_bond_distance_aromatic_linkinvent_7_9_3/rearranged_h_0094.sdf

> <i_m_source_file_index>
64

> <r_mmod_Potential_Energy-OPLS-2005>
340.417419433594

> <r_mmod_Stretch_Energy-OPLS-2005>
116.788177490234

> <r_mmod_Bend_Energy-OPLS-2005>
189.474456787109

> <r_mmod_Torsional_Energy-OPLS-2005>
322.382263183594

> <r_mmod_Improper_Torsional_Energy-OPLS-2005>
7.04993200302124

> <r_mmod_Van_der_Waal_Energy-OPLS-2005>
144.802963256836

> <r_mmod_Electrostatic_Energy-OPLS-2005>
-302.240570068359

> <r_mmod_Solvation_Energy-OPLS-2005>
-207.908966064453

> <b_mmod_Minimization_Converged-OPLS-2005>
0

> <r_mmod_RMS_Derivative-OPLS-2005>
3.68733716011047

$$$$
64
                    3D
 Structure written by MMmdl.
162171  0  0  1  0            999 V2000
  -30.6128  -14.7538   20.4657 C   0  0  0  0  0  0
  -30.4309  -12.4634   19.4686 C   0  0  0  0  0  0
  -29.5073  -12.5073   18.2319 C   0  0  0  0  0  0
  -28.0348  -12.3276   18.6491 C   0  0  0  0  0  0
  -27.6386  -13.2323   19.8462 C   0  0  2  0  0  0
  -28.6848  -13.1772   20.9802 C   0  0  0  0  0  0
  -25.2501  -13.8200   20.5689 C   0  0  0  0  0  0
  -24.1800  -13.0441   20.9210 C   0  0  0  0  0  0
  -24.6395  -11.6920   20.8755 C   0  0  0  0  0  0
  -23.9074  -10.4295   21.0411 C   0  0  0  0  0  0
  -24.3623   -9.4208   21.9188 C   0  0  0  0  0  0
  -23.6295   -8.2244   22.0760 C   0  0  0  0  0  0
  -22.4278   -8.0283   21.3547 C   0  0  0  0  0  0
  -21.9914   -9.0257   20.4649 C   0  0  0  0  0  0
  -22.7247  -10.2135   20.3058 C   0  0  0  0  0  0
  -21.6855   -6.0737   22.5278 C   0  0  0  0  0  0
  -21.4014   -6.5640   23.8211 C   0  0  0  0  0  0
  -21.3658   -5.6794   24.9174 C   0  0  0  0  0  0
  -21.6044   -4.3057   24.7226 C   0  0  0  0  0  0
  -21.8818   -3.8147   23.4348 C   0  0  0  0  0  0
  -21.9191   -4.6963   22.3402 C   0  0  0  0  0  0
  -22.7819  -13.5221   21.1867 C   0  0  0  0  0  0
  -22.1660   -4.2149   21.0980 F   0  0  0  0  0  0
  -21.5627   -3.4539   25.7739 F   0  0  0  0  0  0
  -29.9809  -13.5317   20.3909 N   0  0  0  0  0  0
  -26.2923  -12.9405   20.3265 N   0  0  0  0  0  0
  -25.9322  -11.6547   20.5752 N   0  0  0  0  0  0
  -22.0464  -12.8211   22.0421 N   0  0  0  0  0  0
  -25.4176  -15.1929   20.4101 N   0  0  0  0  0  0
  -31.8087  -14.8292   20.1696 O   0  0  0  0  0  0
  -21.6640   -6.8881   21.4241 O   0  0  0  0  0  0
  -22.3501  -14.5524   20.6712 O   0  0  0  0  0  0
  -24.6329  -31.8542   23.1967 C   0  0  0  0  0  0
  -25.9155  -32.4744   23.8314 C   0  0  1  0  0  0
  -27.2147  -27.2428   20.1211 C   0  0  0  0  0  0
  -25.5945  -33.8544   24.2239 N   0  0  0  0  0  0
  -23.4288  -30.4779   21.5407 C   0  0  2  0  0  0
  -24.8729  -28.9234   20.1069 C   0  0  0  0  0  0
  -22.7506  -29.4600   22.4896 C   0  0  0  0  0  0
  -18.0295  -28.1386   22.8482 C   0  0  0  0  0  0
  -24.1495  -36.7284   23.2640 C   0  0  0  0  0  0
  -25.9766  -30.7609   21.3785 C   0  0  0  0  0  0
  -26.0453  -29.3826   20.7180 C   0  0  0  0  0  0
  -27.2144  -28.5536   20.7161 C   0  0  0  0  0  0
  -26.0128  -26.8554   19.4846 C   0  0  0  0  0  0
  -24.8631  -27.6693   19.4802 C   0  0  0  0  0  0
  -23.6461  -29.8136   20.1559 C   0  0  0  0  0  0
  -25.4122  -36.3060   24.0320 C   0  0  1  0  0  0
  -20.5900  -28.3699   23.1261 C   0  0  2  0  0  0
  -20.6781  -26.9412   22.5405 C   0  0  0  0  0  0
  -19.5760  -26.6379   21.5206 C   0  0  0  0  0  0
  -18.1937  -26.7929   22.1618 C   0  0  0  0  0  0
  -19.1549  -28.8860   23.2864 C   0  0  0  0  0  0
  -18.9470  -30.1458   23.8885 C   0  0  0  0  0  0
  -17.6468  -30.6584   24.0562 C   0  0  0  0  0  0
  -25.9064  -34.9432   23.5081 C   0  0  0  0  0  0
  -16.5359  -29.9080   23.6332 C   0  0  0  0  0  0
  -16.7281  -28.6501   23.0349 C   0  0  0  0  0  0
  -26.4508  -31.6581   25.0719 C   0  0  0  0  0  0
  -25.3718  -31.3747   26.1435 C   0  0  0  0  0  0
  -27.0368  -30.2994   24.6234 C   0  0  0  0  0  0
  -27.6050  -32.4333   25.7503 C   0  0  0  0  0  0
  -27.5579  -37.1793   24.8461 C   0  0  0  0  0  0
  -21.4212  -29.3049   22.3649 N   0  0  0  0  0  0
  -26.4291  -37.3759   23.9403 N   0  0  0  0  0  0
  -24.6987  -31.0499   22.0943 N   0  0  0  0  0  0
  -23.4204  -28.8133   23.2992 O   0  0  0  0  0  0
  -28.3257  -26.3637   20.2110 O   0  0  0  0  0  0
  -26.5638  -34.8914   22.4651 O   0  0  0  0  0  0
  -23.5477  -32.1369   23.7260 O   0  0  0  0  0  0
  -31.4779  -17.6562   21.3127 C   0  0  0  0  0  0
  -31.8968  -18.9808   21.5762 C   0  0  0  0  0  0
  -29.7383  -19.8750   20.7065 C   0  0  0  0  0  0
  -30.2138  -17.3384   20.7776 C   0  0  0  0  0  0
  -31.0214  -20.0799   21.2949 C   0  0  0  0  0  0
  -29.3497  -18.4773   20.4882 C   0  0  0  0  0  0
  -33.2673  -19.1334   22.1983 C   0  0  0  0  0  0
  -27.5473  -22.9403   21.2208 C   0  0  0  0  0  0
  -28.0039  -21.4839   21.5363 C   0  0  0  0  0  0
  -29.2572  -22.3101   19.7218 C   0  0  0  0  0  0
  -28.7160  -23.6126   20.4819 C   0  0  1  0  0  0
  -28.3758  -24.9666   19.6355 C   0  0  0  0  0  0
  -28.8836  -21.0438   20.4527 N   0  0  0  0  0  0
  -31.3579  -21.3970   21.6404 N   0  0  0  0  0  0
  -33.9852  -20.1833   21.8263 N   0  0  0  0  0  0
  -29.8366  -15.9010   20.6215 N   0  0  0  0  0  0
  -33.7302  -18.2813   22.9576 O   0  0  0  0  0  0
  -28.1129  -18.2153   19.9960 F   0  0  0  0  0  0
  -31.4713  -12.5886   19.1638 H   0  0  0  0  0  0
  -30.3779  -11.4894   19.9576 H   0  0  0  0  0  0
  -29.7912  -11.7322   17.5189 H   0  0  0  0  0  0
  -29.6291  -13.4598   17.7142 H   0  0  0  0  0  0
  -27.8967  -11.2800   18.9181 H   0  0  0  0  0  0
  -27.3753  -12.5123   17.8004 H   0  0  0  0  0  0
  -27.6283  -14.2509   19.4577 H   0  0  0  0  0  0
  -28.7248  -12.1827   21.4271 H   0  0  0  0  0  0
  -28.4205  -13.8659   21.7846 H   0  0  0  0  0  0
  -25.2766   -9.5678   22.4766 H   0  0  0  0  0  0
  -23.9997   -7.4635   22.7483 H   0  0  0  0  0  0
  -21.0846   -8.8780   19.8954 H   0  0  0  0  0  0
  -22.3710  -10.9675   19.6168 H   0  0  0  0  0  0
  -21.2011   -7.6149   23.9715 H   0  0  0  0  0  0
  -21.1479   -6.0526   25.9078 H   0  0  0  0  0  0
  -22.0599   -2.7608   23.2848 H   0  0  0  0  0  0
  -22.4078  -11.9868   22.4801 H   0  0  0  0  0  0
  -21.1083  -13.1238   22.2634 H   0  0  0  0  0  0
  -24.6458  -15.8417   20.5202 H   0  0  0  0  0  0
  -26.2572  -15.6382   20.0637 H   0  0  0  0  0  0
  -26.7226  -32.5382   23.1054 H   0  0  0  0  0  0
  -25.0087  -33.9675   25.0381 H   0  0  0  0  0  0
  -22.7266  -31.3013   21.3954 H   0  0  0  0  0  0
  -23.3751  -35.9621   23.3291 H   0  0  0  0  0  0
  -24.3586  -36.8924   22.2056 H   0  0  0  0  0  0
  -23.7256  -37.6480   23.6682 H   0  0  0  0  0  0
  -26.1201  -31.5226   20.6105 H   0  0  0  0  0  0
  -26.8527  -30.8072   22.0136 H   0  0  0  0  0  0
  -28.1103  -28.8985   21.2130 H   0  0  0  0  0  0
  -25.8986  -25.8993   19.0031 H   0  0  0  0  0  0
  -23.9627  -27.3111   18.9991 H   0  0  0  0  0  0
  -23.7718  -30.5917   19.4016 H   0  0  0  0  0  0
  -22.7632  -29.2494   19.8497 H   0  0  0  0  0  0
  -25.1298  -36.1897   25.0811 H   0  0  0  0  0  0
  -20.9995  -28.3289   24.1380 H   0  0  0  0  0  0
  -20.5683  -26.2308   23.3611 H   0  0  0  0  0  0
  -21.6648  -26.7435   22.1193 H   0  0  0  0  0  0
  -19.6924  -25.6285   21.1247 H   0  0  0  0  0  0
  -19.6704  -27.3185   20.6731 H   0  0  0  0  0  0
  -17.4203  -26.6676   21.4022 H   0  0  0  0  0  0
  -18.0334  -26.0070   22.9016 H   0  0  0  0  0  0
  -19.7946  -30.7274   24.2249 H   0  0  0  0  0  0
  -17.5022  -31.6267   24.5166 H   0  0  0  0  0  0
  -15.5360  -30.2976   23.7663 H   0  0  0  0  0  0
  -15.8681  -28.0820   22.7058 H   0  0  0  0  0  0
  -24.5906  -30.7081   25.7765 H   0  0  0  0  0  0
  -24.8894  -32.2922   26.4815 H   0  0  0  0  0  0
  -25.8018  -30.8960   27.0243 H   0  0  0  0  0  0
  -26.2968  -29.6725   24.1246 H   0  0  0  0  0  0
  -27.4026  -29.7274   25.4770 H   0  0  0  0  0  0
  -27.8852  -30.4254   23.9502 H   0  0  0  0  0  0
  -27.2650  -33.3650   26.2039 H   0  0  0  0  0  0
  -28.3882  -32.6869   25.0346 H   0  0  0  0  0  0
  -28.0696  -31.8489   26.5456 H   0  0  0  0  0  0
  -28.2572  -38.0109   24.7508 H   0  0  0  0  0  0
  -28.1095  -36.2634   24.6278 H   0  0  0  0  0  0
  -27.2300  -37.1428   25.8864 H   0  0  0  0  0  0
  -20.9391  -29.8787   21.6871 H   0  0  0  0  0  0
  -26.0167  -38.2830   24.1407 H   0  0  0  0  0  0
  -32.1580  -16.8565   21.5669 H   0  0  0  0  0  0
  -27.2526  -23.4843   22.1191 H   0  0  0  0  0  0
  -26.6760  -22.9079   20.5650 H   0  0  0  0  0  0
  -27.1445  -20.8186   21.6346 H   0  0  0  0  0  0
  -28.5451  -21.4559   22.4839 H   0  0  0  0  0  0
  -30.3281  -22.3830   19.5277 H   0  0  0  0  0  0
  -28.7861  -22.2591   18.7390 H   0  0  0  0  0  0
  -29.4707  -23.8793   21.2230 H   0  0  0  0  0  0
  -27.5309  -24.7382   18.9956 H   0  0  0  0  0  0
  -29.1921  -25.0493   18.9179 H   0  0  0  0  0  0
  -31.7945  -21.5209   22.5470 H   0  0  0  0  0  0
  -30.5477  -22.0012   21.5391 H   0  0  0  0  0  0
  -33.5256  -20.8821   21.2530 H   0  0  0  0  0  0
  -34.9175  -20.3366   22.1799 H   0  0  0  0  0  0
  -28.8435  -15.7277   20.6260 H   0  0  0  0  0  0
  1 25  1  0  0  0
  1 30  2  0  0  0
  1 86  1  0  0  0
  2  3  1  0  0  0
  2 25  1  0  0  0
  2 89  1  0  0  0
  2 90  1  0  0  0
  3  4  1  0  0  0
  3 91  1  0  0  0
  3 92  1  0  0  0
  4  5  1  0  0  0
  4 93  1  0  0  0
  4 94  1  0  0  0
  5  6  1  0  0  0
  5 26  1  0  0  0
  5 95  1  0  0  0
  6 25  1  0  0  0
  6 96  1  0  0  0
  6 97  1  0  0  0
  7  8  2  0  0  0
  7 26  1  0  0  0
  7 29  1  0  0  0
  8  9  1  0  0  0
  8 22  1  0  0  0
  9 10  1  0  0  0
  9 27  2  0  0  0
 10 11  2  0  0  0
 10 15  1  0  0  0
 11 12  1  0  0  0
 11 98  1  0  0  0
 12 13  2  0  0  0
 12 99  1  0  0  0
 13 14  1  0  0  0
 13 31  1  0  0  0
 14 15  2  0  0  0
 14100  1  0  0  0
 15101  1  0  0  0
 16 17  2  0  0  0
 16 21  1  0  0  0
 16 31  1  0  0  0
 17 18  1  0  0  0
 17102  1  0  0  0
 18 19  2  0  0  0
 18103  1  0  0  0
 19 20  1  0  0  0
 19 24  1  0  0  0
 20 21  2  0  0  0
 20104  1  0  0  0
 21 23  1  0  0  0
 22 28  1  0  0  0
 22 32  2  0  0  0
 26 27  1  0  0  0
 28105  1  0  0  0
 28106  1  0  0  0
 29107  1  0  0  0
 29108  1  0  0  0
 33 34  1  0  0  0
 33 66  1  0  0  0
 33 70  2  0  0  0
 34 36  1  0  0  0
 34 59  1  0  0  0
 34109  1  0  0  0
 35 44  2  0  0  0
 35 45  1  0  0  0
 35 68  1  0  0  0
 36 56  1  0  0  0
 36110  1  0  0  0
 37 39  1  0  0  0
 37 47  1  0  0  0
 37 66  1  0  0  0
 37111  1  0  0  0
 38 43  2  0  0  0
 38 46  1  0  0  0
 38 47  1  0  0  0
 39 64  1  0  0  0
 39 67  2  0  0  0
 40 52  1  0  0  0
 40 53  2  0  0  0
 40 58  1  0  0  0
 41112  1  0  0  0
 41113  1  0  0  0
 41114  1  0  0  0
 41 48  1  0  0  0
 42 43  1  0  0  0
 42 66  1  0  0  0
 42115  1  0  0  0
 42116  1  0  0  0
 43 44  1  0  0  0
 44117  1  0  0  0
 45 46  2  0  0  0
 45118  1  0  0  0
 46119  1  0  0  0
 47120  1  0  0  0
 47121  1  0  0  0
 48 56  1  0  0  0
 48 65  1  0  0  0
 48122  1  0  0  0
 49 50  1  0  0  0
 49 53  1  0  0  0
 49 64  1  0  0  0
 49123  1  0  0  0
 50 51  1  0  0  0
 50124  1  0  0  0
 50125  1  0  0  0
 51 52  1  0  0  0
 51126  1  0  0  0
 51127  1  0  0  0
 52128  1  0  0  0
 52129  1  0  0  0
 53 54  1  0  0  0
 54 55  2  0  0  0
 54130  1  0  0  0
 55 57  1  0  0  0
 55131  1  0  0  0
 56 69  2  0  0  0
 57 58  2  0  0  0
 57132  1  0  0  0
 58133  1  0  0  0
 59 60  1  0  0  0
 59 61  1  0  0  0
 59 62  1  0  0  0
 60134  1  0  0  0
 60135  1  0  0  0
 60136  1  0  0  0
 61137  1  0  0  0
 61138  1  0  0  0
 61139  1  0  0  0
 62140  1  0  0  0
 62141  1  0  0  0
 62142  1  0  0  0
 63 65  1  0  0  0
 63143  1  0  0  0
 63144  1  0  0  0
 63145  1  0  0  0
 64146  1  0  0  0
 65147  1  0  0  0
 68 82  1  0  0  0
 71 72  2  0  0  0
 71 74  1  0  0  0
 71148  1  0  0  0
 72 75  1  0  0  0
 72 77  1  0  0  0
 73 75  2  0  0  0
 73 76  1  0  0  0
 73 83  1  0  0  0
 74 76  2  0  0  0
 74 86  1  0  0  0
 75 84  1  0  0  0
 76 88  1  0  0  0
 77 85  1  0  0  0
 77 87  2  0  0  0
 78 79  1  0  0  0
 78 81  1  0  0  0
 78149  1  0  0  0
 78150  1  0  0  0
 79 83  1  0  0  0
 79151  1  0  0  0
 79152  1  0  0  0
 80 81  1  0  0  0
 80 83  1  0  0  0
 80153  1  0  0  0
 80154  1  0  0  0
 81 82  1  0  0  0
 81155  1  0  0  0
 82156  1  0  0  0
 82157  1  0  0  0
 84158  1  0  0  0
 84159  1  0  0  0
 85160  1  0  0  0
 85161  1  0  0  0
 86162  1  0  0  0
M  ISO  4   1 100  68 101  82 101  86 100
M  END
> <chiral flag>
0

> <version>
0

> <s_m_source_file>
/data/baiqing/PycharmProjects/Reinvent-master-3.2/result/LINK_invent/BTK/process_docking_weight1_custom_product_contain_oxygen_bond_distance_aromatic_linkinvent_7_9_3/rearranged_h_0094.sdf

> <i_m_source_file_index>
65

> <r_mmod_Potential_Energy-OPLS-2005>
242.2509765625

> <r_mmod_Stretch_Energy-OPLS-2005>
136.29768371582

> <r_mmod_Bend_Energy-OPLS-2005>
219.528411865234

> <r_mmod_Torsional_Energy-OPLS-2005>
312.406524658203

> <r_mmod_Improper_Torsional_Energy-OPLS-2005>
15.6813840866089

> <r_mmod_Van_der_Waal_Energy-OPLS-2005>
158.026596069336

> <r_mmod_Electrostatic_Energy-OPLS-2005>
-444.233062744141

> <r_mmod_Solvation_Energy-OPLS-2005>
-247.206420898438

> <b_mmod_Minimization_Converged-OPLS-2005>
0

> <r_mmod_RMS_Derivative-OPLS-2005>
0.798750519752502

$$$$
65
                    3D
 Structure written by MMmdl.
160169  0  0  1  0            999 V2000
  -30.6247  -14.6386   20.5003 C   0  0  0  0  0  0
  -30.4380  -12.3899   19.4550 C   0  0  0  0  0  0
  -29.5084  -12.5120   18.2265 C   0  0  0  0  0  0
  -28.0305  -12.3513   18.6368 C   0  0  0  0  0  0
  -27.6555  -13.2191   19.8680 C   0  0  2  0  0  0
  -28.7000  -13.0684   20.9967 C   0  0  0  0  0  0
  -25.2564  -13.8178   20.5688 C   0  0  0  0  0  0
  -24.1825  -13.0435   20.9152 C   0  0  0  0  0  0
  -24.6401  -11.6908   20.8722 C   0  0  0  0  0  0
  -23.9066  -10.4291   21.0398 C   0  0  0  0  0  0
  -24.3615   -9.4210   21.9181 C   0  0  0  0  0  0
  -23.6287   -8.2244   22.0753 C   0  0  0  0  0  0
  -22.4272   -8.0280   21.3538 C   0  0  0  0  0  0
  -21.9904   -9.0259   20.4645 C   0  0  0  0  0  0
  -22.7233  -10.2134   20.3053 C   0  0  0  0  0  0
  -21.6853   -6.0737   22.5278 C   0  0  0  0  0  0
  -21.4019   -6.5642   23.8210 C   0  0  0  0  0  0
  -21.3657   -5.6792   24.9172 C   0  0  0  0  0  0
  -21.6044   -4.3055   24.7224 C   0  0  0  0  0  0
  -21.8819   -3.8144   23.4345 C   0  0  0  0  0  0
  -21.9195   -4.6964   22.3403 C   0  0  0  0  0  0
  -22.7849  -13.5233   21.1831 C   0  0  0  0  0  0
  -22.1663   -4.2150   21.0983 F   0  0  0  0  0  0
  -21.5621   -3.4543   25.7735 F   0  0  0  0  0  0
  -30.0179  -13.4105   20.4362 N   0  0  0  0  0  0
  -26.3006  -12.9367   20.3356 N   0  0  0  0  0  0
  -25.9337  -11.6515   20.5771 N   0  0  0  0  0  0
  -22.0493  -12.8236   22.0399 N   0  0  0  0  0  0
  -25.4278  -15.1903   20.4185 N   0  0  0  0  0  0
  -31.7801  -14.8032   20.0976 O   0  0  0  0  0  0
  -21.6634   -6.8878   21.4238 O   0  0  0  0  0  0
  -22.3530  -14.5542   20.6687 O   0  0  0  0  0  0
  -24.6253  -31.8595   23.2024 C   0  0  0  0  0  0
  -25.9102  -32.4776   23.8353 C   0  0  1  0  0  0
  -27.2263  -27.3232   20.1227 C   0  0  0  0  0  0
  -25.5920  -33.8578   24.2286 N   0  0  0  0  0  0
  -23.4194  -30.4820   21.5450 C   0  0  2  0  0  0
  -24.8675  -28.9358   20.1131 C   0  0  0  0  0  0
  -22.7473  -29.4617   22.4942 C   0  0  0  0  0  0
  -18.0288  -28.1386   22.8483 C   0  0  0  0  0  0
  -24.1488  -36.7294   23.2638 C   0  0  0  0  0  0
  -25.9598  -30.7918   21.3734 C   0  0  0  0  0  0
  -26.0358  -29.4184   20.7178 C   0  0  0  0  0  0
  -27.2207  -28.6242   20.7116 C   0  0  0  0  0  0
  -26.0409  -26.8948   19.4869 C   0  0  0  0  0  0
  -24.8717  -27.6789   19.4876 C   0  0  0  0  0  0
  -23.6346  -29.8152   20.1609 C   0  0  0  0  0  0
  -25.4112  -36.3082   24.0329 C   0  0  1  0  0  0
  -20.5885  -28.3686   23.1285 C   0  0  2  0  0  0
  -20.6781  -26.9412   22.5412 C   0  0  0  0  0  0
  -19.5758  -26.6382   21.5213 C   0  0  0  0  0  0
  -18.1935  -26.7928   22.1622 C   0  0  0  0  0  0
  -19.1541  -28.8855   23.2878 C   0  0  0  0  0  0
  -18.9463  -30.1457   23.8892 C   0  0  0  0  0  0
  -17.6464  -30.6586   24.0563 C   0  0  0  0  0  0
  -25.9046  -34.9448   23.5109 C   0  0  0  0  0  0
  -16.5354  -29.9084   23.6332 C   0  0  0  0  0  0
  -16.7276  -28.6505   23.0346 C   0  0  0  0  0  0
  -26.4489  -31.6580   25.0717 C   0  0  0  0  0  0
  -25.3726  -31.3723   26.1449 C   0  0  0  0  0  0
  -27.0332  -30.3006   24.6165 C   0  0  0  0  0  0
  -27.6060  -32.4306   25.7477 C   0  0  0  0  0  0
  -27.5579  -37.1801   24.8463 C   0  0  0  0  0  0
  -21.4191  -29.3035   22.3678 N   0  0  0  0  0  0
  -26.4293  -37.3772   23.9400 N   0  0  0  0  0  0
  -24.6867  -31.0609   22.0973 N   0  0  0  0  0  0
  -23.4197  -28.8164   23.3029 O   0  0  0  0  0  0
  -28.3401  -26.4728   20.1375 O   0  0  0  0  0  0
  -26.5617  -34.8912   22.4677 O   0  0  0  0  0  0
  -23.5418  -32.1395   23.7355 O   0  0  0  0  0  0
  -30.7911  -17.8322   19.8864 C   0  0  0  0  0  0
  -28.7234  -19.3072   21.0696 C   0  0  0  0  0  0
  -30.6801  -19.2422   19.6589 C   0  0  0  0  0  0
  -29.6067  -20.0177   20.2141 C   0  0  0  0  0  0
  -29.8666  -17.1230   20.6952 C   0  0  0  0  0  0
  -28.8487  -17.9049   21.3026 C   0  0  0  0  0  0
  -29.1954  -21.9593   18.6762 C   0  0  0  0  0  0
  -28.8715  -23.4595   18.6839 C   0  0  0  0  0  0
  -29.0085  -22.5143   20.8831 C   0  0  0  0  0  0
  -29.0784  -23.9071   20.1344 C   0  0  2  0  0  0
  -31.7635  -19.8915   18.8115 C   0  0  0  0  0  0
  -28.1297  -25.0900   20.6272 C   0  0  0  0  0  0
  -29.3810  -21.4473   19.9133 N   0  0  0  0  0  0
  -27.9400  -17.2692   22.1497 N   0  0  0  0  0  0
  -29.8329  -15.6756   20.9095 N   0  0  0  0  0  0
  -29.2513  -21.3299   17.6155 O   0  0  0  0  0  0
  -31.4799  -12.5115   19.1538 H   0  0  0  0  0  0
  -30.3683  -11.3931   19.8936 H   0  0  0  0  0  0
  -29.7704  -11.7626   17.4784 H   0  0  0  0  0  0
  -29.6534  -13.4831   17.7507 H   0  0  0  0  0  0
  -27.8653  -11.2980   18.8641 H   0  0  0  0  0  0
  -27.3767  -12.5862   17.7962 H   0  0  0  0  0  0
  -27.6741  -14.2562   19.5321 H   0  0  0  0  0  0
  -28.7085  -12.0458   21.3765 H   0  0  0  0  0  0
  -28.4443  -13.6977   21.8504 H   0  0  0  0  0  0
  -25.2762   -9.5690   22.4755 H   0  0  0  0  0  0
  -23.9994   -7.4646   22.7482 H   0  0  0  0  0  0
  -21.0826   -8.8787   19.8960 H   0  0  0  0  0  0
  -22.3692  -10.9680   19.6165 H   0  0  0  0  0  0
  -21.2014   -7.6150   23.9719 H   0  0  0  0  0  0
  -21.1476   -6.0519   25.9074 H   0  0  0  0  0  0
  -22.0597   -2.7607   23.2848 H   0  0  0  0  0  0
  -22.4096  -11.9893   22.4786 H   0  0  0  0  0  0
  -21.1119  -13.1290   22.2614 H   0  0  0  0  0  0
  -24.6758  -15.8494   20.5838 H   0  0  0  0  0  0
  -26.3193  -15.6471   20.2622 H   0  0  0  0  0  0
  -26.7169  -32.5451   23.1103 H   0  0  0  0  0  0
  -25.0067  -33.9718   25.0430 H   0  0  0  0  0  0
  -22.7132  -31.3021   21.4012 H   0  0  0  0  0  0
  -23.3738  -35.9640   23.3316 H   0  0  0  0  0  0
  -24.3578  -36.8896   22.2050 H   0  0  0  0  0  0
  -23.7254  -37.6506   23.6649 H   0  0  0  0  0  0
  -26.0898  -31.5551   20.6047 H   0  0  0  0  0  0
  -26.8404  -30.8417   22.0022 H   0  0  0  0  0  0
  -28.1182  -28.9905   21.1901 H   0  0  0  0  0  0
  -26.0092  -25.9379   18.9859 H   0  0  0  0  0  0
  -23.9794  -27.3063   19.0031 H   0  0  0  0  0  0
  -23.7527  -30.5910   19.4037 H   0  0  0  0  0  0
  -22.7550  -29.2437   19.8591 H   0  0  0  0  0  0
  -25.1292  -36.1940   25.0824 H   0  0  0  0  0  0
  -20.9976  -28.3264   24.1405 H   0  0  0  0  0  0
  -20.5688  -26.2296   23.3609 H   0  0  0  0  0  0
  -21.6649  -26.7447   22.1203 H   0  0  0  0  0  0
  -19.6922  -25.6293   21.1241 H   0  0  0  0  0  0
  -19.6697  -27.3192   20.6743 H   0  0  0  0  0  0
  -17.4208  -26.6674   21.4022 H   0  0  0  0  0  0
  -18.0334  -26.0071   22.9018 H   0  0  0  0  0  0
  -19.7938  -30.7277   24.2255 H   0  0  0  0  0  0
  -17.5015  -31.6263   24.5169 H   0  0  0  0  0  0
  -15.5355  -30.2984   23.7654 H   0  0  0  0  0  0
  -15.8676  -28.0821   22.7059 H   0  0  0  0  0  0
  -24.5898  -30.7071   25.7783 H   0  0  0  0  0  0
  -24.8918  -32.2891   26.4872 H   0  0  0  0  0  0
  -25.8050  -30.8903   27.0226 H   0  0  0  0  0  0
  -26.2908  -29.6749   24.1198 H   0  0  0  0  0  0
  -27.4048  -29.7266   25.4663 H   0  0  0  0  0  0
  -27.8766  -30.4297   23.9378 H   0  0  0  0  0  0
  -27.2688  -33.3609   26.2059 H   0  0  0  0  0  0
  -28.3863  -32.6857   25.0293 H   0  0  0  0  0  0
  -28.0733  -31.8424   26.5384 H   0  0  0  0  0  0
  -28.2605  -38.0089   24.7494 H   0  0  0  0  0  0
  -28.1066  -36.2621   24.6306 H   0  0  0  0  0  0
  -27.2295  -37.1469   25.8865 H   0  0  0  0  0  0
  -20.9373  -29.8749   21.6876 H   0  0  0  0  0  0
  -26.0177  -38.2849   24.1392 H   0  0  0  0  0  0
  -31.5981  -17.2914   19.4130 H   0  0  0  0  0  0
  -27.9094  -19.8463   21.5330 H   0  0  0  0  0  0
  -27.8358  -23.5924   18.3712 H   0  0  0  0  0  0
  -29.5106  -24.0081   17.9918 H   0  0  0  0  0  0
  -27.9946  -22.3249   21.2379 H   0  0  0  0  0  0
  -29.6688  -22.4956   21.7508 H   0  0  0  0  0  0
  -30.1064  -24.2613   20.2246 H   0  0  0  0  0  0
  -32.7000  -19.3376   18.8852 H   0  0  0  0  0  0
  -31.9681  -20.9126   19.1332 H   0  0  0  0  0  0
  -31.4727  -19.9078   17.7616 H   0  0  0  0  0  0
  -28.2379  -25.1545   21.7103 H   0  0  0  0  0  0
  -27.1015  -24.7620   20.4815 H   0  0  0  0  0  0
  -27.3401  -17.8793   22.6936 H   0  0  0  0  0  0
  -28.3361  -16.5509   22.7446 H   0  0  0  0  0  0
  -28.9540  -15.3751   21.3025 H   0  0  0  0  0  0
  1 25  1  0  0  0
  1 30  2  0  0  0
  1 85  1  0  0  0
  2  3  1  0  0  0
  2 25  1  0  0  0
  2 87  1  0  0  0
  2 88  1  0  0  0
  3  4  1  0  0  0
  3 89  1  0  0  0
  3 90  1  0  0  0
  4  5  1  0  0  0
  4 91  1  0  0  0
  4 92  1  0  0  0
  5  6  1  0  0  0
  5 26  1  0  0  0
  5 93  1  0  0  0
  6 25  1  0  0  0
  6 94  1  0  0  0
  6 95  1  0  0  0
  7  8  2  0  0  0
  7 26  1  0  0  0
  7 29  1  0  0  0
  8  9  1  0  0  0
  8 22  1  0  0  0
  9 10  1  0  0  0
  9 27  2  0  0  0
 10 11  2  0  0  0
 10 15  1  0  0  0
 11 12  1  0  0  0
 11 96  1  0  0  0
 12 13  2  0  0  0
 12 97  1  0  0  0
 13 14  1  0  0  0
 13 31  1  0  0  0
 14 15  2  0  0  0
 14 98  1  0  0  0
 15 99  1  0  0  0
 16 17  2  0  0  0
 16 21  1  0  0  0
 16 31  1  0  0  0
 17 18  1  0  0  0
 17100  1  0  0  0
 18 19  2  0  0  0
 18101  1  0  0  0
 19 20  1  0  0  0
 19 24  1  0  0  0
 20 21  2  0  0  0
 20102  1  0  0  0
 21 23  1  0  0  0
 22 28  1  0  0  0
 22 32  2  0  0  0
 26 27  1  0  0  0
 28103  1  0  0  0
 28104  1  0  0  0
 29105  1  0  0  0
 29106  1  0  0  0
 33 34  1  0  0  0
 33 66  1  0  0  0
 33 70  2  0  0  0
 34 36  1  0  0  0
 34 59  1  0  0  0
 34107  1  0  0  0
 35 44  2  0  0  0
 35 45  1  0  0  0
 35 68  1  0  0  0
 36 56  1  0  0  0
 36108  1  0  0  0
 37 39  1  0  0  0
 37 47  1  0  0  0
 37 66  1  0  0  0
 37109  1  0  0  0
 38 43  2  0  0  0
 38 46  1  0  0  0
 38 47  1  0  0  0
 39 64  1  0  0  0
 39 67  2  0  0  0
 40 52  1  0  0  0
 40 53  2  0  0  0
 40 58  1  0  0  0
 41110  1  0  0  0
 41111  1  0  0  0
 41112  1  0  0  0
 41 48  1  0  0  0
 42 43  1  0  0  0
 42 66  1  0  0  0
 42113  1  0  0  0
 42114  1  0  0  0
 43 44  1  0  0  0
 44115  1  0  0  0
 45 46  2  0  0  0
 45116  1  0  0  0
 46117  1  0  0  0
 47118  1  0  0  0
 47119  1  0  0  0
 48 56  1  0  0  0
 48 65  1  0  0  0
 48120  1  0  0  0
 49 50  1  0  0  0
 49 53  1  0  0  0
 49 64  1  0  0  0
 49121  1  0  0  0
 50 51  1  0  0  0
 50122  1  0  0  0
 50123  1  0  0  0
 51 52  1  0  0  0
 51124  1  0  0  0
 51125  1  0  0  0
 52126  1  0  0  0
 52127  1  0  0  0
 53 54  1  0  0  0
 54 55  2  0  0  0
 54128  1  0  0  0
 55 57  1  0  0  0
 55129  1  0  0  0
 56 69  2  0  0  0
 57 58  2  0  0  0
 57130  1  0  0  0
 58131  1  0  0  0
 59 60  1  0  0  0
 59 61  1  0  0  0
 59 62  1  0  0  0
 60132  1  0  0  0
 60133  1  0  0  0
 60134  1  0  0  0
 61135  1  0  0  0
 61136  1  0  0  0
 61137  1  0  0  0
 62138  1  0  0  0
 62139  1  0  0  0
 62140  1  0  0  0
 63 65  1  0  0  0
 63141  1  0  0  0
 63142  1  0  0  0
 63143  1  0  0  0
 64144  1  0  0  0
 65145  1  0  0  0
 68 82  1  0  0  0
 71 73  2  0  0  0
 71 75  1  0  0  0
 71146  1  0  0  0
 72 74  2  0  0  0
 72 76  1  0  0  0
 72147  1  0  0  0
 73 74  1  0  0  0
 73 81  1  0  0  0
 74 83  1  0  0  0
 75 76  2  0  0  0
 75 85  1  0  0  0
 76 84  1  0  0  0
 77 78  1  0  0  0
 77 83  1  0  0  0
 77 86  2  0  0  0
 78 80  1  0  0  0
 78148  1  0  0  0
 78149  1  0  0  0
 79 80  1  0  0  0
 79 83  1  0  0  0
 79150  1  0  0  0
 79151  1  0  0  0
 80 82  1  0  0  0
 80152  1  0  0  0
 81153  1  0  0  0
 81154  1  0  0  0
 81155  1  0  0  0
 82156  1  0  0  0
 82157  1  0  0  0
 84158  1  0  0  0
 84159  1  0  0  0
 85160  1  0  0  0
M  ISO  4   1 100  68 101  82 101  85 100
M  END
> <chiral flag>
0

> <version>
0

> <s_m_source_file>
/data/baiqing/PycharmProjects/Reinvent-master-3.2/result/LINK_invent/BTK/process_docking_weight1_custom_product_contain_oxygen_bond_distance_aromatic_linkinvent_7_9_3/rearranged_h_0094.sdf

> <i_m_source_file_index>
66

> <r_mmod_Potential_Energy-OPLS-2005>
27.8947582244873

> <r_mmod_Stretch_Energy-OPLS-2005>
79.3715667724609

> <r_mmod_Bend_Energy-OPLS-2005>
163.395492553711

> <r_mmod_Torsional_Energy-OPLS-2005>
303.057342529297

> <r_mmod_Improper_Torsional_Energy-OPLS-2005>
8.90602588653564

> <r_mmod_Van_der_Waal_Energy-OPLS-2005>
140.432891845703

> <r_mmod_Electrostatic_Energy-OPLS-2005>
-489.609588623047

> <r_mmod_Solvation_Energy-OPLS-2005>
-224.208786010742

> <b_mmod_Minimization_Converged-OPLS-2005>
0

> <r_mmod_RMS_Derivative-OPLS-2005>
0.936888933181763

$$$$
66
                    3D
 Structure written by MMmdl.
162171  0  0  1  0            999 V2000
  -30.6630  -14.6832   20.3586 C   0  0  0  0  0  0
  -30.4349  -12.3811   19.4520 C   0  0  0  0  0  0
  -29.4914  -12.3381   18.2275 C   0  0  0  0  0  0
  -28.0142  -12.2667   18.6556 C   0  0  0  0  0  0
  -27.6408  -13.2165   19.8264 C   0  0  2  0  0  0
  -28.7006  -13.1900   20.9467 C   0  0  0  0  0  0
  -25.2563  -13.8207   20.5700 C   0  0  0  0  0  0
  -24.1829  -13.0476   20.9212 C   0  0  0  0  0  0
  -24.6388  -11.6943   20.8778 C   0  0  0  0  0  0
  -23.9069  -10.4317   21.0428 C   0  0  0  0  0  0
  -24.3632   -9.4223   21.9187 C   0  0  0  0  0  0
  -23.6312   -8.2253   22.0748 C   0  0  0  0  0  0
  -22.4293   -8.0293   21.3541 C   0  0  0  0  0  0
  -21.9931   -9.0269   20.4645 C   0  0  0  0  0  0
  -22.7254  -10.2156   20.3062 C   0  0  0  0  0  0
  -21.6866   -6.0747   22.5271 C   0  0  0  0  0  0
  -21.4023   -6.5651   23.8206 C   0  0  0  0  0  0
  -21.3650   -5.6795   24.9162 C   0  0  0  0  0  0
  -21.6043   -4.3061   24.7211 C   0  0  0  0  0  0
  -21.8823   -3.8155   23.4332 C   0  0  0  0  0  0
  -21.9202   -4.6975   22.3390 C   0  0  0  0  0  0
  -22.7846  -13.5260   21.1857 C   0  0  0  0  0  0
  -22.1667   -4.2162   21.0968 F   0  0  0  0  0  0
  -21.5624   -3.4538   25.7721 F   0  0  0  0  0  0
  -29.9962  -13.4846   20.3254 N   0  0  0  0  0  0
  -26.2969  -12.9381   20.3280 N   0  0  0  0  0  0
  -25.9319  -11.6551   20.5842 N   0  0  0  0  0  0
  -22.0487  -12.8237   22.0398 N   0  0  0  0  0  0
  -25.4316  -15.1921   20.4112 N   0  0  0  0  0  0
  -31.8958  -14.7099   20.3459 O   0  0  0  0  0  0
  -21.6657   -6.8891   21.4231 O   0  0  0  0  0  0
  -22.3523  -14.5552   20.6697 O   0  0  0  0  0  0
  -24.6273  -31.8622   23.2066 C   0  0  0  0  0  0
  -25.9121  -32.4789   23.8386 C   0  0  1  0  0  0
  -27.2099  -27.3130   20.1149 C   0  0  0  0  0  0
  -25.5946  -33.8588   24.2309 N   0  0  0  0  0  0
  -23.4199  -30.4922   21.5484 C   0  0  2  0  0  0
  -24.8648  -28.9600   20.1068 C   0  0  0  0  0  0
  -22.7478  -29.4653   22.4920 C   0  0  0  0  0  0
  -18.0290  -28.1384   22.8482 C   0  0  0  0  0  0
  -24.1491  -36.7295   23.2638 C   0  0  0  0  0  0
  -25.9649  -30.7908   21.3823 C   0  0  0  0  0  0
  -26.0371  -29.4216   20.7196 C   0  0  0  0  0  0
  -27.2131  -28.6092   20.7191 C   0  0  0  0  0  0
  -26.0139  -26.9284   19.4543 C   0  0  0  0  0  0
  -24.8565  -27.7190   19.4639 C   0  0  0  0  0  0
  -23.6343  -29.8393   20.1601 C   0  0  0  0  0  0
  -25.4111  -36.3087   24.0334 C   0  0  1  0  0  0
  -20.5896  -28.3700   23.1263 C   0  0  2  0  0  0
  -20.6780  -26.9421   22.5396 C   0  0  0  0  0  0
  -19.5755  -26.6385   21.5200 C   0  0  0  0  0  0
  -18.1937  -26.7928   22.1618 C   0  0  0  0  0  0
  -19.1544  -28.8855   23.2875 C   0  0  0  0  0  0
  -18.9464  -30.1450   23.8899 C   0  0  0  0  0  0
  -17.6466  -30.6585   24.0560 C   0  0  0  0  0  0
  -25.9052  -34.9457   23.5115 C   0  0  0  0  0  0
  -16.5357  -29.9082   23.6328 C   0  0  0  0  0  0
  -16.7280  -28.6499   23.0353 C   0  0  0  0  0  0
  -26.4509  -31.6587   25.0745 C   0  0  0  0  0  0
  -25.3744  -31.3712   26.1470 C   0  0  0  0  0  0
  -27.0352  -30.3009   24.6199 C   0  0  0  0  0  0
  -27.6076  -32.4316   25.7511 C   0  0  0  0  0  0
  -27.5583  -37.1801   24.8463 C   0  0  0  0  0  0
  -21.4192  -29.3060   22.3656 N   0  0  0  0  0  0
  -26.4289  -37.3783   23.9415 N   0  0  0  0  0  0
  -24.6895  -31.0644   22.1020 N   0  0  0  0  0  0
  -23.4206  -28.8173   23.2980 O   0  0  0  0  0  0
  -28.2889  -26.4076   20.2006 O   0  0  0  0  0  0
  -26.5607  -34.8918   22.4673 O   0  0  0  0  0  0
  -23.5435  -32.1422   23.7389 O   0  0  0  0  0  0
  -29.0003  -17.9420   19.2572 C   0  0  0  0  0  0
  -30.2571  -23.7002   20.4740 C   0  0  0  0  0  0
  -30.2612  -19.2502   21.3417 C   0  0  0  0  0  0
  -28.9024  -19.3556   19.3566 C   0  0  0  0  0  0
  -28.8365  -23.7635   20.3529 C   0  0  0  0  0  0
  -29.5380  -20.0630   20.4168 C   0  0  0  0  0  0
  -29.8072  -17.1307   20.1080 C   0  0  0  0  0  0
  -30.4151  -17.8294   21.1961 C   0  0  0  0  0  0
  -30.6346  -22.3785   20.5528 C   0  0  0  0  0  0
  -28.4415  -22.4317   20.4539 C   0  0  0  0  0  0
  -28.1570  -20.0760   18.2429 C   0  0  0  0  0  0
  -30.1827  -15.6037   18.2320 C   0  0  0  0  0  0
  -27.8992  -24.9813   20.0696 C   0  0  0  0  0  0
  -29.5278  -21.5320   20.4927 N   0  0  0  0  0  0
  -31.2289  -17.1590   22.1112 N   0  0  0  0  0  0
  -30.0286  -15.7225   19.7014 N   0  0  0  0  0  0
  -31.8958  -21.8699   20.6319 O   0  0  0  0  0  0
  -27.1691  -21.9404   20.4735 O   0  0  0  0  0  0
  -31.4694  -12.4998   19.1258 H   0  0  0  0  0  0
  -30.3962  -11.4380   19.9994 H   0  0  0  0  0  0
  -29.7292  -11.4589   17.6269 H   0  0  0  0  0  0
  -29.6389  -13.1736   17.5527 H   0  0  0  0  0  0
  -27.8337  -11.2345   18.9568 H   0  0  0  0  0  0
  -27.3623  -12.4434   17.7991 H   0  0  0  0  0  0
  -27.6278  -14.2223   19.4078 H   0  0  0  0  0  0
  -28.7229  -12.2202   21.4448 H   0  0  0  0  0  0
  -28.4676  -13.9336   21.7105 H   0  0  0  0  0  0
  -25.2776   -9.5706   22.4764 H   0  0  0  0  0  0
  -24.0030   -7.4644   22.7459 H   0  0  0  0  0  0
  -21.0868   -8.8804   19.8949 H   0  0  0  0  0  0
  -22.3718  -10.9706   19.6182 H   0  0  0  0  0  0
  -21.2028   -7.6158   23.9719 H   0  0  0  0  0  0
  -21.1458   -6.0516   25.9065 H   0  0  0  0  0  0
  -22.0614   -2.7621   23.2826 H   0  0  0  0  0  0
  -22.4130  -11.9911   22.4795 H   0  0  0  0  0  0
  -21.1095  -13.1237   22.2597 H   0  0  0  0  0  0
  -24.6760  -15.8574   20.5337 H   0  0  0  0  0  0
  -26.3005  -15.6263   20.1256 H   0  0  0  0  0  0
  -26.7189  -32.5464   23.1136 H   0  0  0  0  0  0
  -25.0108  -33.9738   25.0463 H   0  0  0  0  0  0
  -22.7146  -31.3145   21.4110 H   0  0  0  0  0  0
  -23.3755  -35.9625   23.3288 H   0  0  0  0  0  0
  -24.3590  -36.8922   22.2056 H   0  0  0  0  0  0
  -23.7235  -37.6493   23.6659 H   0  0  0  0  0  0
  -26.1017  -31.5562   20.6174 H   0  0  0  0  0  0
  -26.8439  -30.8346   22.0130 H   0  0  0  0  0  0
  -28.1041  -28.9516   21.2267 H   0  0  0  0  0  0
  -25.9142  -25.9929   18.9277 H   0  0  0  0  0  0
  -23.9627  -27.3644   18.9683 H   0  0  0  0  0  0
  -23.7533  -30.6208   19.4088 H   0  0  0  0  0  0
  -22.7539  -29.2712   19.8542 H   0  0  0  0  0  0
  -25.1287  -36.1943   25.0827 H   0  0  0  0  0  0
  -21.0000  -28.3273   24.1379 H   0  0  0  0  0  0
  -20.5666  -26.2317   23.3600 H   0  0  0  0  0  0
  -21.6649  -26.7437   22.1198 H   0  0  0  0  0  0
  -19.6915  -25.6294   21.1234 H   0  0  0  0  0  0
  -19.6685  -27.3189   20.6724 H   0  0  0  0  0  0
  -17.4205  -26.6670   21.4026 H   0  0  0  0  0  0
  -18.0345  -26.0066   22.9011 H   0  0  0  0  0  0
  -19.7945  -30.7260   24.2279 H   0  0  0  0  0  0
  -17.5023  -31.6266   24.5159 H   0  0  0  0  0  0
  -15.5355  -30.2983   23.7650 H   0  0  0  0  0  0
  -15.8681  -28.0809   22.7072 H   0  0  0  0  0  0
  -24.5930  -30.7052   25.7792 H   0  0  0  0  0  0
  -24.8925  -32.2871   26.4901 H   0  0  0  0  0  0
  -25.8074  -30.8886   27.0240 H   0  0  0  0  0  0
  -26.2926  -29.6755   24.1229 H   0  0  0  0  0  0
  -27.4054  -29.7269   25.4705 H   0  0  0  0  0  0
  -27.8801  -30.4293   23.9428 H   0  0  0  0  0  0
  -27.2695  -33.3612   26.2100 H   0  0  0  0  0  0
  -28.3880  -32.6876   25.0332 H   0  0  0  0  0  0
  -28.0753  -31.8431   26.5414 H   0  0  0  0  0  0
  -28.2590  -38.0110   24.7525 H   0  0  0  0  0  0
  -28.1090  -36.2641   24.6263 H   0  0  0  0  0  0
  -27.2309  -37.1419   25.8868 H   0  0  0  0  0  0
  -20.9360  -29.8811   21.6897 H   0  0  0  0  0  0
  -26.0171  -38.2858   24.1417 H   0  0  0  0  0  0
  -28.4862  -17.4804   18.4266 H   0  0  0  0  0  0
  -30.9337  -24.5434   20.4564 H   0  0  0  0  0  0
  -30.7639  -19.7526   22.1551 H   0  0  0  0  0  0
  -28.2074  -19.5126   17.3105 H   0  0  0  0  0  0
  -28.5835  -21.0572   18.0365 H   0  0  0  0  0  0
  -27.1056  -20.1971   18.5008 H   0  0  0  0  0  0
  -30.5503  -16.5258   17.7796 H   0  0  0  0  0  0
  -29.2274  -15.3590   17.7672 H   0  0  0  0  0  0
  -30.9184  -14.8608   17.9173 H   0  0  0  0  0  0
  -27.0108  -24.8076   20.6802 H   0  0  0  0  0  0
  -27.6182  -24.8151   19.0293 H   0  0  0  0  0  0
  -31.8086  -17.7400   22.7084 H   0  0  0  0  0  0
  -31.7646  -16.3787   21.7391 H   0  0  0  0  0  0
  -32.5041  -22.6029   20.6559 H   0  0  0  0  0  0
  -26.5637  -22.6703   20.5368 H   0  0  0  0  0  0
  1 25  1  0  0  0
  1 30  2  0  0  0
  1 86  1  0  0  0
  2  3  1  0  0  0
  2 25  1  0  0  0
  2 89  1  0  0  0
  2 90  1  0  0  0
  3  4  1  0  0  0
  3 91  1  0  0  0
  3 92  1  0  0  0
  4  5  1  0  0  0
  4 93  1  0  0  0
  4 94  1  0  0  0
  5  6  1  0  0  0
  5 26  1  0  0  0
  5 95  1  0  0  0
  6 25  1  0  0  0
  6 96  1  0  0  0
  6 97  1  0  0  0
  7  8  2  0  0  0
  7 26  1  0  0  0
  7 29  1  0  0  0
  8  9  1  0  0  0
  8 22  1  0  0  0
  9 10  1  0  0  0
  9 27  2  0  0  0
 10 11  2  0  0  0
 10 15  1  0  0  0
 11 12  1  0  0  0
 11 98  1  0  0  0
 12 13  2  0  0  0
 12 99  1  0  0  0
 13 14  1  0  0  0
 13 31  1  0  0  0
 14 15  2  0  0  0
 14100  1  0  0  0
 15101  1  0  0  0
 16 17  2  0  0  0
 16 21  1  0  0  0
 16 31  1  0  0  0
 17 18  1  0  0  0
 17102  1  0  0  0
 18 19  2  0  0  0
 18103  1  0  0  0
 19 20  1  0  0  0
 19 24  1  0  0  0
 20 21  2  0  0  0
 20104  1  0  0  0
 21 23  1  0  0  0
 22 28  1  0  0  0
 22 32  2  0  0  0
 26 27  1  0  0  0
 28105  1  0  0  0
 28106  1  0  0  0
 29107  1  0  0  0
 29108  1  0  0  0
 33 34  1  0  0  0
 33 66  1  0  0  0
 33 70  2  0  0  0
 34 36  1  0  0  0
 34 59  1  0  0  0
 34109  1  0  0  0
 35 44  2  0  0  0
 35 45  1  0  0  0
 35 68  1  0  0  0
 36 56  1  0  0  0
 36110  1  0  0  0
 37 39  1  0  0  0
 37 47  1  0  0  0
 37 66  1  0  0  0
 37111  1  0  0  0
 38 43  2  0  0  0
 38 46  1  0  0  0
 38 47  1  0  0  0
 39 64  1  0  0  0
 39 67  2  0  0  0
 40 52  1  0  0  0
 40 53  2  0  0  0
 40 58  1  0  0  0
 41112  1  0  0  0
 41113  1  0  0  0
 41114  1  0  0  0
 41 48  1  0  0  0
 42 43  1  0  0  0
 42 66  1  0  0  0
 42115  1  0  0  0
 42116  1  0  0  0
 43 44  1  0  0  0
 44117  1  0  0  0
 45 46  2  0  0  0
 45118  1  0  0  0
 46119  1  0  0  0
 47120  1  0  0  0
 47121  1  0  0  0
 48 56  1  0  0  0
 48 65  1  0  0  0
 48122  1  0  0  0
 49 50  1  0  0  0
 49 53  1  0  0  0
 49 64  1  0  0  0
 49123  1  0  0  0
 50 51  1  0  0  0
 50124  1  0  0  0
 50125  1  0  0  0
 51 52  1  0  0  0
 51126  1  0  0  0
 51127  1  0  0  0
 52128  1  0  0  0
 52129  1  0  0  0
 53 54  1  0  0  0
 54 55  2  0  0  0
 54130  1  0  0  0
 55 57  1  0  0  0
 55131  1  0  0  0
 56 69  2  0  0  0
 57 58  2  0  0  0
 57132  1  0  0  0
 58133  1  0  0  0
 59 60  1  0  0  0
 59 61  1  0  0  0
 59 62  1  0  0  0
 60134  1  0  0  0
 60135  1  0  0  0
 60136  1  0  0  0
 61137  1  0  0  0
 61138  1  0  0  0
 61139  1  0  0  0
 62140  1  0  0  0
 62141  1  0  0  0
 62142  1  0  0  0
 63 65  1  0  0  0
 63143  1  0  0  0
 63144  1  0  0  0
 63145  1  0  0  0
 64146  1  0  0  0
 65147  1  0  0  0
 68 83  1  0  0  0
 71 74  2  0  0  0
 71 77  1  0  0  0
 71148  1  0  0  0
 72 75  1  0  0  0
 72 79  2  0  0  0
 72149  1  0  0  0
 73 76  2  0  0  0
 73 78  1  0  0  0
 73150  1  0  0  0
 74 76  1  0  0  0
 74 81  1  0  0  0
 75 80  2  0  0  0
 75 83  1  0  0  0
 76 84  1  0  0  0
 77 78  2  0  0  0
 77 86  1  0  0  0
 78 85  1  0  0  0
 79 84  1  0  0  0
 79 87  1  0  0  0
 80 84  1  0  0  0
 80 88  1  0  0  0
 81151  1  0  0  0
 81152  1  0  0  0
 81153  1  0  0  0
 82 86  1  0  0  0
 82154  1  0  0  0
 82155  1  0  0  0
 82156  1  0  0  0
 83157  1  0  0  0
 83158  1  0  0  0
 85159  1  0  0  0
 85160  1  0  0  0
 87161  1  0  0  0
 88162  1  0  0  0
M  ISO  4   1 100  68 101  83 101  86 100
M  END
> <chiral flag>
0

> <version>
0

> <s_m_source_file>
/data/baiqing/PycharmProjects/Reinvent-master-3.2/result/LINK_invent/BTK/process_docking_weight1_custom_product_contain_oxygen_bond_distance_aromatic_linkinvent_7_9_3/rearranged_h_0094.sdf

> <i_m_source_file_index>
67

> <r_mmod_Potential_Energy-OPLS-2005>
324.757293701172

> <r_mmod_Stretch_Energy-OPLS-2005>
87.0670166015625

> <r_mmod_Bend_Energy-OPLS-2005>
166.832885742188

> <r_mmod_Torsional_Energy-OPLS-2005>
338.694793701172

> <r_mmod_Improper_Torsional_Energy-OPLS-2005>
34.9433403015137

> <r_mmod_Van_der_Waal_Energy-OPLS-2005>
169.265396118164

> <r_mmod_Electrostatic_Energy-OPLS-2005>
-337.412750244141

> <r_mmod_Solvation_Energy-OPLS-2005>
-221.287292480469

> <b_mmod_Minimization_Converged-OPLS-2005>
0

> <r_mmod_RMS_Derivative-OPLS-2005>
1.27221190929413

$$$$
67
                    3D
 Structure written by MMmdl.
153161  0  0  1  0            999 V2000
  -30.6461  -14.6320   20.5836 C   0  0  0  0  0  0
  -30.4391  -12.4130   19.4579 C   0  0  0  0  0  0
  -29.5106  -12.5385   18.2276 C   0  0  0  0  0  0
  -28.0308  -12.3660   18.6270 C   0  0  0  0  0  0
  -27.6552  -13.2137   19.8691 C   0  0  2  0  0  0
  -28.6909  -13.0120   20.9922 C   0  0  0  0  0  0
  -25.2557  -13.8163   20.5669 C   0  0  0  0  0  0
  -24.1822  -13.0431   20.9173 C   0  0  0  0  0  0
  -24.6391  -11.6905   20.8726 C   0  0  0  0  0  0
  -23.9065  -10.4289   21.0405 C   0  0  0  0  0  0
  -24.3615   -9.4199   21.9183 C   0  0  0  0  0  0
  -23.6290   -8.2236   22.0750 C   0  0  0  0  0  0
  -22.4270   -8.0278   21.3545 C   0  0  0  0  0  0
  -21.9906   -9.0253   20.4644 C   0  0  0  0  0  0
  -22.7240  -10.2129   20.3053 C   0  0  0  0  0  0
  -21.6854   -6.0732   22.5277 C   0  0  0  0  0  0
  -21.4013   -6.5637   23.8210 C   0  0  0  0  0  0
  -21.3659   -5.6791   24.9174 C   0  0  0  0  0  0
  -21.6047   -4.3052   24.7226 C   0  0  0  0  0  0
  -21.8822   -3.8143   23.4345 C   0  0  0  0  0  0
  -21.9192   -4.6959   22.3402 C   0  0  0  0  0  0
  -22.7846  -13.5223   21.1857 C   0  0  0  0  0  0
  -22.1660   -4.2143   21.0979 F   0  0  0  0  0  0
  -21.5630   -3.4537   25.7739 F   0  0  0  0  0  0
  -30.0126  -13.4092   20.4688 N   0  0  0  0  0  0
  -26.2982  -12.9341   20.3303 N   0  0  0  0  0  0
  -25.9313  -11.6494   20.5719 N   0  0  0  0  0  0
  -22.0500  -12.8208   22.0422 N   0  0  0  0  0  0
  -25.4286  -15.1887   20.4102 N   0  0  0  0  0  0
  -31.7313  -14.8331   20.0251 O   0  0  0  0  0  0
  -21.6638   -6.8873   21.4237 O   0  0  0  0  0  0
  -22.3521  -14.5538   20.6722 O   0  0  0  0  0  0
  -24.6260  -31.8601   23.2037 C   0  0  0  0  0  0
  -25.9111  -32.4775   23.8361 C   0  0  1  0  0  0
  -27.2273  -27.3289   20.1233 C   0  0  0  0  0  0
  -25.5941  -33.8577   24.2293 N   0  0  0  0  0  0
  -23.4192  -30.4823   21.5463 C   0  0  2  0  0  0
  -24.8671  -28.9368   20.1132 C   0  0  0  0  0  0
  -22.7474  -29.4625   22.4959 C   0  0  0  0  0  0
  -18.0287  -28.1375   22.8487 C   0  0  0  0  0  0
  -24.1494  -36.7290   23.2640 C   0  0  0  0  0  0
  -25.9585  -30.7956   21.3712 C   0  0  0  0  0  0
  -26.0350  -29.4225   20.7159 C   0  0  0  0  0  0
  -27.2212  -28.6316   20.7072 C   0  0  0  0  0  0
  -26.0405  -26.8904   19.4975 C   0  0  0  0  0  0
  -24.8722  -27.6757   19.4944 C   0  0  0  0  0  0
  -23.6333  -29.8145   20.1623 C   0  0  0  0  0  0
  -25.4118  -36.3085   24.0332 C   0  0  1  0  0  0
  -20.5887  -28.3677   23.1293 C   0  0  2  0  0  0
  -20.6774  -26.9399   22.5416 C   0  0  0  0  0  0
  -19.5749  -26.6376   21.5219 C   0  0  0  0  0  0
  -18.1928  -26.7922   22.1624 C   0  0  0  0  0  0
  -19.1538  -28.8846   23.2880 C   0  0  0  0  0  0
  -18.9465  -30.1452   23.8889 C   0  0  0  0  0  0
  -17.6464  -30.6579   24.0558 C   0  0  0  0  0  0
  -25.9053  -34.9451   23.5112 C   0  0  0  0  0  0
  -16.5353  -29.9073   23.6330 C   0  0  0  0  0  0
  -16.7275  -28.6490   23.0354 C   0  0  0  0  0  0
  -26.4494  -31.6577   25.0724 C   0  0  0  0  0  0
  -25.3737  -31.3693   26.1463 C   0  0  0  0  0  0
  -27.0336  -30.3007   24.6156 C   0  0  0  0  0  0
  -27.6077  -32.4302   25.7483 C   0  0  0  0  0  0
  -27.5577  -37.1800   24.8468 C   0  0  0  0  0  0
  -21.4189  -29.3038   22.3695 N   0  0  0  0  0  0
  -26.4292  -37.3784   23.9415 N   0  0  0  0  0  0
  -24.6869  -31.0627   22.0974 N   0  0  0  0  0  0
  -23.4202  -28.8157   23.3028 O   0  0  0  0  0  0
  -28.3405  -26.4826   20.1365 O   0  0  0  0  0  0
  -26.5613  -34.8921   22.4669 O   0  0  0  0  0  0
  -23.5426  -32.1386   23.7377 O   0  0  0  0  0  0
  -29.7057  -18.3053   21.9276 C   0  0  0  0  0  0
  -29.5236  -19.6733   21.5673 C   0  0  0  0  0  0
  -29.9681  -17.6910   19.6284 C   0  0  0  0  0  0
  -29.9220  -17.2537   20.9805 C   0  0  0  0  0  0
  -29.7946  -19.0638   19.2623 C   0  0  0  0  0  0
  -29.5532  -20.0959   20.2163 C   0  0  0  0  0  0
  -29.9953  -15.7790   21.4554 C   0  0  0  0  0  0
  -28.9120  -23.9404   19.9851 C   0  0  0  0  0  0
  -28.1247  -25.1192   20.6778 C   0  0  0  0  0  0
  -28.9289  -22.5061   20.6602 C   0  0  0  0  0  0
  -29.5684  -15.5172   22.6224 N   0  0  0  0  0  0
  -29.8474  -19.4182   17.9157 N   0  0  0  0  0  0
  -29.5130  -24.1364   18.9219 O   0  0  0  0  0  0
  -29.3784  -21.4273   19.7722 O   0  0  0  0  0  0
  -31.4801  -12.5443   19.1578 H   0  0  0  0  0  0
  -30.3852  -11.4061   19.8745 H   0  0  0  0  0  0
  -29.7823  -11.7991   17.4735 H   0  0  0  0  0  0
  -29.6509  -13.5157   17.7633 H   0  0  0  0  0  0
  -27.8649  -11.3091   18.8391 H   0  0  0  0  0  0
  -27.3796  -12.6135   17.7877 H   0  0  0  0  0  0
  -27.6910  -14.2601   19.5644 H   0  0  0  0  0  0
  -28.7151  -11.9635   21.2925 H   0  0  0  0  0  0
  -28.3772  -13.5361   21.8888 H   0  0  0  0  0  0
  -25.2763   -9.5674   22.4756 H   0  0  0  0  0  0
  -24.0003   -7.4621   22.7463 H   0  0  0  0  0  0
  -21.0841   -8.8777   19.8947 H   0  0  0  0  0  0
  -22.3708  -10.9668   19.6155 H   0  0  0  0  0  0
  -21.2005   -7.6145   23.9714 H   0  0  0  0  0  0
  -21.1479   -6.0518   25.9076 H   0  0  0  0  0  0
  -22.0603   -2.7604   23.2850 H   0  0  0  0  0  0
  -22.4117  -11.9858   22.4783 H   0  0  0  0  0  0
  -21.1120  -13.1227   22.2652 H   0  0  0  0  0  0
  -24.6697  -15.8503   20.5316 H   0  0  0  0  0  0
  -26.2938  -15.6283   20.1221 H   0  0  0  0  0  0
  -26.7184  -32.5455   23.1116 H   0  0  0  0  0  0
  -25.0121  -33.9729   25.0458 H   0  0  0  0  0  0
  -22.7135  -31.3036   21.4017 H   0  0  0  0  0  0
  -23.3765  -35.9613   23.3296 H   0  0  0  0  0  0
  -24.3588  -36.8910   22.2054 H   0  0  0  0  0  0
  -23.7232  -37.6485   23.6662 H   0  0  0  0  0  0
  -26.0880  -31.5590   20.6026 H   0  0  0  0  0  0
  -26.8392  -30.8458   21.9997 H   0  0  0  0  0  0
  -28.1192  -29.0014   21.1813 H   0  0  0  0  0  0
  -26.0099  -25.9249   19.0123 H   0  0  0  0  0  0
  -23.9785  -27.2997   19.0154 H   0  0  0  0  0  0
  -23.7482  -30.5898   19.4035 H   0  0  0  0  0  0
  -22.7541  -29.2413   19.8626 H   0  0  0  0  0  0
  -25.1292  -36.1940   25.0824 H   0  0  0  0  0  0
  -20.9973  -28.3237   24.1418 H   0  0  0  0  0  0
  -20.5688  -26.2277   23.3606 H   0  0  0  0  0  0
  -21.6636  -26.7434   22.1191 H   0  0  0  0  0  0
  -19.6910  -25.6293   21.1234 H   0  0  0  0  0  0
  -19.6687  -27.3201   20.6760 H   0  0  0  0  0  0
  -17.4199  -26.6683   21.4024 H   0  0  0  0  0  0
  -18.0310  -26.0063   22.9014 H   0  0  0  0  0  0
  -19.7944  -30.7266   24.2256 H   0  0  0  0  0  0
  -17.5019  -31.6264   24.5148 H   0  0  0  0  0  0
  -15.5353  -30.2966   23.7670 H   0  0  0  0  0  0
  -15.8671  -28.0801   22.7081 H   0  0  0  0  0  0
  -24.5947  -30.6988   25.7803 H   0  0  0  0  0  0
  -24.8880  -32.2841   26.4877 H   0  0  0  0  0  0
  -25.8088  -30.8897   27.0244 H   0  0  0  0  0  0
  -26.2890  -29.6751   24.1219 H   0  0  0  0  0  0
  -27.4080  -29.7269   25.4645 H   0  0  0  0  0  0
  -27.8740  -30.4289   23.9331 H   0  0  0  0  0  0
  -27.2720  -33.3638   26.2009 H   0  0  0  0  0  0
  -28.3914  -32.6797   25.0316 H   0  0  0  0  0  0
  -28.0708  -31.8444   26.5435 H   0  0  0  0  0  0
  -28.2594  -38.0103   24.7534 H   0  0  0  0  0  0
  -28.1071  -36.2633   24.6264 H   0  0  0  0  0  0
  -27.2295  -37.1410   25.8872 H   0  0  0  0  0  0
  -20.9374  -29.8751   21.6893 H   0  0  0  0  0  0
  -26.0168  -38.2856   24.1426 H   0  0  0  0  0  0
  -29.6637  -18.0728   22.9825 H   0  0  0  0  0  0
  -29.3616  -20.3935   22.3561 H   0  0  0  0  0  0
  -30.1221  -16.9544   18.8519 H   0  0  0  0  0  0
  -28.4110  -25.1328   21.7292 H   0  0  0  0  0  0
  -27.0687  -24.8521   20.6648 H   0  0  0  0  0  0
  -27.9260  -22.2771   21.0213 H   0  0  0  0  0  0
  -29.5838  -22.5517   21.5307 H   0  0  0  0  0  0
  -29.1952  -16.3459   23.0678 H   0  0  0  0  0  0
  -29.6238  -18.7156   17.2184 H   0  0  0  0  0  0
  -29.4867  -20.3387   17.6827 H   0  0  0  0  0  0
  1 25  1  0  0  0
  1 30  2  0  0  0
  1 77  1  0  0  0
  2  3  1  0  0  0
  2 25  1  0  0  0
  2 85  1  0  0  0
  2 86  1  0  0  0
  3  4  1  0  0  0
  3 87  1  0  0  0
  3 88  1  0  0  0
  4  5  1  0  0  0
  4 89  1  0  0  0
  4 90  1  0  0  0
  5  6  1  0  0  0
  5 26  1  0  0  0
  5 91  1  0  0  0
  6 25  1  0  0  0
  6 92  1  0  0  0
  6 93  1  0  0  0
  7  8  2  0  0  0
  7 26  1  0  0  0
  7 29  1  0  0  0
  8  9  1  0  0  0
  8 22  1  0  0  0
  9 10  1  0  0  0
  9 27  2  0  0  0
 10 11  2  0  0  0
 10 15  1  0  0  0
 11 12  1  0  0  0
 11 94  1  0  0  0
 12 13  2  0  0  0
 12 95  1  0  0  0
 13 14  1  0  0  0
 13 31  1  0  0  0
 14 15  2  0  0  0
 14 96  1  0  0  0
 15 97  1  0  0  0
 16 17  2  0  0  0
 16 21  1  0  0  0
 16 31  1  0  0  0
 17 18  1  0  0  0
 17 98  1  0  0  0
 18 19  2  0  0  0
 18 99  1  0  0  0
 19 20  1  0  0  0
 19 24  1  0  0  0
 20 21  2  0  0  0
 20100  1  0  0  0
 21 23  1  0  0  0
 22 28  1  0  0  0
 22 32  2  0  0  0
 26 27  1  0  0  0
 28101  1  0  0  0
 28102  1  0  0  0
 29103  1  0  0  0
 29104  1  0  0  0
 33 34  1  0  0  0
 33 66  1  0  0  0
 33 70  2  0  0  0
 34 36  1  0  0  0
 34 59  1  0  0  0
 34105  1  0  0  0
 35 44  2  0  0  0
 35 45  1  0  0  0
 35 68  1  0  0  0
 36 56  1  0  0  0
 36106  1  0  0  0
 37 39  1  0  0  0
 37 47  1  0  0  0
 37 66  1  0  0  0
 37107  1  0  0  0
 38 43  2  0  0  0
 38 46  1  0  0  0
 38 47  1  0  0  0
 39 64  1  0  0  0
 39 67  2  0  0  0
 40 52  1  0  0  0
 40 53  2  0  0  0
 40 58  1  0  0  0
 41108  1  0  0  0
 41109  1  0  0  0
 41110  1  0  0  0
 41 48  1  0  0  0
 42 43  1  0  0  0
 42 66  1  0  0  0
 42111  1  0  0  0
 42112  1  0  0  0
 43 44  1  0  0  0
 44113  1  0  0  0
 45 46  2  0  0  0
 45114  1  0  0  0
 46115  1  0  0  0
 47116  1  0  0  0
 47117  1  0  0  0
 48 56  1  0  0  0
 48 65  1  0  0  0
 48118  1  0  0  0
 49 50  1  0  0  0
 49 53  1  0  0  0
 49 64  1  0  0  0
 49119  1  0  0  0
 50 51  1  0  0  0
 50120  1  0  0  0
 50121  1  0  0  0
 51 52  1  0  0  0
 51122  1  0  0  0
 51123  1  0  0  0
 52124  1  0  0  0
 52125  1  0  0  0
 53 54  1  0  0  0
 54 55  2  0  0  0
 54126  1  0  0  0
 55 57  1  0  0  0
 55127  1  0  0  0
 56 69  2  0  0  0
 57 58  2  0  0  0
 57128  1  0  0  0
 58129  1  0  0  0
 59 60  1  0  0  0
 59 61  1  0  0  0
 59 62  1  0  0  0
 60130  1  0  0  0
 60131  1  0  0  0
 60132  1  0  0  0
 61133  1  0  0  0
 61134  1  0  0  0
 61135  1  0  0  0
 62136  1  0  0  0
 62137  1  0  0  0
 62138  1  0  0  0
 63 65  1  0  0  0
 63139  1  0  0  0
 63140  1  0  0  0
 63141  1  0  0  0
 64142  1  0  0  0
 65143  1  0  0  0
 68 79  1  0  0  0
 71 72  2  0  0  0
 71 74  1  0  0  0
 71144  1  0  0  0
 72 76  1  0  0  0
 72145  1  0  0  0
 73 74  2  0  0  0
 73 75  1  0  0  0
 73146  1  0  0  0
 74 77  1  0  0  0
 75 76  2  0  0  0
 75 82  1  0  0  0
 76 84  1  0  0  0
 77 81  2  0  0  0
 78 79  1  0  0  0
 78 80  1  0  0  0
 78 83  2  0  0  0
 79147  1  0  0  0
 79148  1  0  0  0
 80 84  1  0  0  0
 80149  1  0  0  0
 80150  1  0  0  0
 81151  1  0  0  0
 82152  1  0  0  0
 82153  1  0  0  0
M  ISO  4   1 100  68 101  77 100  79 101
M  END
> <chiral flag>
0

> <version>
0

> <s_m_source_file>
/data/baiqing/PycharmProjects/Reinvent-master-3.2/result/LINK_invent/BTK/process_docking_weight1_custom_product_contain_oxygen_bond_distance_aromatic_linkinvent_7_9_3/rearranged_h_0094.sdf

> <i_m_source_file_index>
68

> <r_mmod_Potential_Energy-OPLS-2005>
173.068908691406

> <r_mmod_Stretch_Energy-OPLS-2005>
92.4215087890625

> <r_mmod_Bend_Energy-OPLS-2005>
148.506774902344

> <r_mmod_Torsional_Energy-OPLS-2005>
211.271255493164

> <r_mmod_Improper_Torsional_Energy-OPLS-2005>
5.90434837341309

> <r_mmod_Van_der_Waal_Energy-OPLS-2005>
149.821578979492

> <r_mmod_Electrostatic_Energy-OPLS-2005>
-230.790771484375

> <r_mmod_Solvation_Energy-OPLS-2005>
-247.164794921875

> <b_mmod_Minimization_Converged-OPLS-2005>
0

> <r_mmod_RMS_Derivative-OPLS-2005>
1.21816408634186

$$$$
68
                    3D
 Structure written by MMmdl.
157166  0  0  1  0            999 V2000
  -30.6888  -14.4842   20.5421 C   0  0  0  0  0  0
  -30.4238  -12.3033   19.4305 C   0  0  0  0  0  0
  -29.4976  -12.5020   18.2119 C   0  0  0  0  0  0
  -28.0176  -12.3669   18.6212 C   0  0  0  0  0  0
  -27.6625  -13.2082   19.8768 C   0  0  2  0  0  0
  -28.7039  -12.9927   20.9992 C   0  0  0  0  0  0
  -25.2587  -13.8162   20.5681 C   0  0  0  0  0  0
  -24.1837  -13.0438   20.9166 C   0  0  0  0  0  0
  -24.6396  -11.6906   20.8729 C   0  0  0  0  0  0
  -23.9063  -10.4292   21.0402 C   0  0  0  0  0  0
  -24.3614   -9.4208   21.9181 C   0  0  0  0  0  0
  -23.6287   -8.2245   22.0753 C   0  0  0  0  0  0
  -22.4270   -8.0281   21.3543 C   0  0  0  0  0  0
  -21.9905   -9.0257   20.4649 C   0  0  0  0  0  0
  -22.7234  -10.2135   20.3055 C   0  0  0  0  0  0
  -21.6852   -6.0734   22.5281 C   0  0  0  0  0  0
  -21.4014   -6.5639   23.8214 C   0  0  0  0  0  0
  -21.3658   -5.6792   24.9176 C   0  0  0  0  0  0
  -21.6044   -4.3055   24.7227 C   0  0  0  0  0  0
  -21.8818   -3.8146   23.4349 C   0  0  0  0  0  0
  -21.9191   -4.6962   22.3404 C   0  0  0  0  0  0
  -22.7860  -13.5239   21.1835 C   0  0  0  0  0  0
  -22.1659   -4.2147   21.0981 F   0  0  0  0  0  0
  -21.5629   -3.4538   25.7740 F   0  0  0  0  0  0
  -30.0372  -13.2923   20.4493 N   0  0  0  0  0  0
  -26.3031  -12.9337   20.3378 N   0  0  0  0  0  0
  -25.9326  -11.6495   20.5771 N   0  0  0  0  0  0
  -22.0503  -12.8235   22.0396 N   0  0  0  0  0  0
  -25.4313  -15.1877   20.4104 N   0  0  0  0  0  0
  -31.8271  -14.6515   20.0967 O   0  0  0  0  0  0
  -21.6637   -6.8876   21.4242 O   0  0  0  0  0  0
  -22.3543  -14.5546   20.6689 O   0  0  0  0  0  0
  -24.6150  -31.8678   23.2098 C   0  0  0  0  0  0
  -25.9041  -32.4822   23.8397 C   0  0  1  0  0  0
  -27.2327  -27.4334   20.1019 C   0  0  0  0  0  0
  -25.5896  -33.8619   24.2328 N   0  0  0  0  0  0
  -23.4038  -30.4911   21.5499 C   0  0  2  0  0  0
  -24.8521  -28.9578   20.1131 C   0  0  0  0  0  0
  -22.7414  -29.4659   22.4984 C   0  0  0  0  0  0
  -18.0274  -28.1378   22.8493 C   0  0  0  0  0  0
  -24.1486  -36.7319   23.2639 C   0  0  0  0  0  0
  -25.9328  -30.8339   21.3631 C   0  0  0  0  0  0
  -26.0126  -29.4687   20.7097 C   0  0  0  0  0  0
  -27.2097  -28.7146   20.6995 C   0  0  0  0  0  0
  -26.0607  -26.9412   19.4908 C   0  0  0  0  0  0
  -24.8711  -27.6935   19.4984 C   0  0  0  0  0  0
  -23.6130  -29.8237   20.1643 C   0  0  0  0  0  0
  -25.4107  -36.3113   24.0339 C   0  0  1  0  0  0
  -20.5864  -28.3667   23.1316 C   0  0  2  0  0  0
  -20.6765  -26.9402   22.5417 C   0  0  0  0  0  0
  -19.5743  -26.6386   21.5214 C   0  0  0  0  0  0
  -18.1922  -26.7926   22.1625 C   0  0  0  0  0  0
  -19.1523  -28.8839   23.2902 C   0  0  0  0  0  0
  -18.9451  -30.1445   23.8912 C   0  0  0  0  0  0
  -17.6453  -30.6584   24.0567 C   0  0  0  0  0  0
  -25.9032  -34.9476   23.5130 C   0  0  0  0  0  0
  -16.5345  -29.9087   23.6326 C   0  0  0  0  0  0
  -16.7263  -28.6504   23.0347 C   0  0  0  0  0  0
  -26.4472  -31.6598   25.0721 C   0  0  0  0  0  0
  -25.3743  -31.3697   26.1472 C   0  0  0  0  0  0
  -27.0301  -30.3042   24.6089 C   0  0  0  0  0  0
  -27.6049  -32.4316   25.7482 C   0  0  0  0  0  0
  -27.5580  -37.1814   24.8466 C   0  0  0  0  0  0
  -21.4141  -29.3034   22.3722 N   0  0  0  0  0  0
  -26.4296  -37.3795   23.9405 N   0  0  0  0  0  0
  -24.6688  -31.0779   22.0998 N   0  0  0  0  0  0
  -23.4185  -28.8203   23.3029 O   0  0  0  0  0  0
  -28.3694  -26.6545   20.1173 O   0  0  0  0  0  0
  -26.5596  -34.8928   22.4692 O   0  0  0  0  0  0
  -23.5342  -32.1427   23.7493 O   0  0  0  0  0  0
  -30.6340  -18.8075   19.3039 C   0  0  0  0  0  0
  -30.8066  -17.4637   19.7056 C   0  0  0  0  0  0
  -28.7767  -19.0446   20.8451 C   0  0  0  0  0  0
  -29.6146  -19.6152   19.8586 C   0  0  0  0  0  0
  -29.9431  -16.8812   20.6674 C   0  0  0  0  0  0
  -28.9397  -17.6962   21.2390 C   0  0  0  0  0  0
  -29.0267  -23.3513   19.6643 C   0  0  0  0  0  0
  -29.3348  -20.9808   19.2633 C   0  0  0  0  0  0
  -29.5558  -23.5173   21.9755 C   0  0  0  0  0  0
  -29.8467  -22.1098   21.4366 C   0  0  0  0  0  0
  -29.3343  -24.3995   20.7415 C   0  0  2  0  0  0
  -28.2420  -25.4869   20.9524 C   0  0  0  0  0  0
  -29.3460  -22.0908   20.0599 N   0  0  0  0  0  0
  -29.9618  -15.4982   21.0519 N   0  0  0  0  0  0
  -28.5433  -23.6928   18.5783 O   0  0  0  0  0  0
  -29.1226  -21.0065   18.0451 O   0  0  0  0  0  0
  -28.0907  -17.1591   22.1480 F   0  0  0  0  0  0
  -31.4692  -12.3967   19.1304 H   0  0  0  0  0  0
  -30.3199  -11.2936   19.8309 H   0  0  0  0  0  0
  -29.7370  -11.7756   17.4343 H   0  0  0  0  0  0
  -29.6694  -13.4862   17.7731 H   0  0  0  0  0  0
  -27.8248  -11.3114   18.8165 H   0  0  0  0  0  0
  -27.3696  -12.6434   17.7889 H   0  0  0  0  0  0
  -27.7052  -14.2557   19.5774 H   0  0  0  0  0  0
  -28.6777  -11.9589   21.3468 H   0  0  0  0  0  0
  -28.4670  -13.5988   21.8747 H   0  0  0  0  0  0
  -25.2761   -9.5681   22.4754 H   0  0  0  0  0  0
  -23.9997   -7.4635   22.7469 H   0  0  0  0  0  0
  -21.0836   -8.8778   19.8956 H   0  0  0  0  0  0
  -22.3693  -10.9674   19.6164 H   0  0  0  0  0  0
  -21.2009   -7.6148   23.9716 H   0  0  0  0  0  0
  -21.1479   -6.0524   25.9079 H   0  0  0  0  0  0
  -22.0598   -2.7608   23.2851 H   0  0  0  0  0  0
  -22.4117  -11.9897   22.4789 H   0  0  0  0  0  0
  -21.1126  -13.1268   22.2609 H   0  0  0  0  0  0
  -24.6728  -15.8475   20.5408 H   0  0  0  0  0  0
  -26.2988  -15.6311   20.1365 H   0  0  0  0  0  0
  -26.7115  -32.5540   23.1166 H   0  0  0  0  0  0
  -25.0049  -33.9784   25.0475 H   0  0  0  0  0  0
  -22.6928  -31.3080   21.4108 H   0  0  0  0  0  0
  -23.3741  -35.9660   23.3318 H   0  0  0  0  0  0
  -24.3580  -36.8916   22.2050 H   0  0  0  0  0  0
  -23.7249  -37.6534   23.6643 H   0  0  0  0  0  0
  -26.0445  -31.6002   20.5949 H   0  0  0  0  0  0
  -26.8210  -30.8882   21.9809 H   0  0  0  0  0  0
  -28.1052  -29.1012   21.1661 H   0  0  0  0  0  0
  -26.0669  -25.9705   19.0146 H   0  0  0  0  0  0
  -23.9807  -27.2956   19.0316 H   0  0  0  0  0  0
  -23.7203  -30.5992   19.4049 H   0  0  0  0  0  0
  -22.7374  -29.2430   19.8685 H   0  0  0  0  0  0
  -25.1284  -36.1983   25.0833 H   0  0  0  0  0  0
  -20.9959  -28.3234   24.1435 H   0  0  0  0  0  0
  -20.5670  -26.2275   23.3604 H   0  0  0  0  0  0
  -21.6637  -26.7447   22.1208 H   0  0  0  0  0  0
  -19.6906  -25.6302   21.1232 H   0  0  0  0  0  0
  -19.6683  -27.3208   20.6753 H   0  0  0  0  0  0
  -17.4193  -26.6675   21.4027 H   0  0  0  0  0  0
  -18.0323  -26.0064   22.9017 H   0  0  0  0  0  0
  -19.7928  -30.7257   24.2289 H   0  0  0  0  0  0
  -17.5009  -31.6267   24.5166 H   0  0  0  0  0  0
  -15.5346  -30.2995   23.7641 H   0  0  0  0  0  0
  -15.8662  -28.0831   22.7050 H   0  0  0  0  0  0
  -24.5916  -30.7044   25.7810 H   0  0  0  0  0  0
  -24.8934  -32.2848   26.4935 H   0  0  0  0  0  0
  -25.8102  -30.8857   27.0220 H   0  0  0  0  0  0
  -26.2840  -29.6805   24.1150 H   0  0  0  0  0  0
  -27.4084  -29.7275   25.4540 H   0  0  0  0  0  0
  -27.8671  -30.4365   23.9228 H   0  0  0  0  0  0
  -27.2668  -33.3603   26.2092 H   0  0  0  0  0  0
  -28.3841  -32.6896   25.0298 H   0  0  0  0  0  0
  -28.0737  -31.8421   26.5372 H   0  0  0  0  0  0
  -28.2611  -38.0098   24.7499 H   0  0  0  0  0  0
  -28.1061  -36.2630   24.6310 H   0  0  0  0  0  0
  -27.2296  -37.1489   25.8870 H   0  0  0  0  0  0
  -20.9301  -29.8756   21.6945 H   0  0  0  0  0  0
  -26.0188  -38.2877   24.1394 H   0  0  0  0  0  0
  -31.2706  -19.2104   18.5274 H   0  0  0  0  0  0
  -31.5842  -16.8920   19.2224 H   0  0  0  0  0  0
  -27.9641  -19.6198   21.2642 H   0  0  0  0  0  0
  -30.3660  -23.8872   22.6051 H   0  0  0  0  0  0
  -28.6548  -23.4921   22.5909 H   0  0  0  0  0  0
  -29.3778  -21.3597   22.0730 H   0  0  0  0  0  0
  -30.9212  -21.9160   21.4303 H   0  0  0  0  0  0
  -30.2783  -24.8772   20.4779 H   0  0  0  0  0  0
  -28.2893  -25.8375   21.9844 H   0  0  0  0  0  0
  -27.2601  -25.0217   20.8491 H   0  0  0  0  0  0
  -29.1396  -15.2101   21.5612 H   0  0  0  0  0  0
  1 25  1  0  0  0
  1 30  2  0  0  0
  1 84  1  0  0  0
  2  3  1  0  0  0
  2 25  1  0  0  0
  2 88  1  0  0  0
  2 89  1  0  0  0
  3  4  1  0  0  0
  3 90  1  0  0  0
  3 91  1  0  0  0
  4  5  1  0  0  0
  4 92  1  0  0  0
  4 93  1  0  0  0
  5  6  1  0  0  0
  5 26  1  0  0  0
  5 94  1  0  0  0
  6 25  1  0  0  0
  6 95  1  0  0  0
  6 96  1  0  0  0
  7  8  2  0  0  0
  7 26  1  0  0  0
  7 29  1  0  0  0
  8  9  1  0  0  0
  8 22  1  0  0  0
  9 10  1  0  0  0
  9 27  2  0  0  0
 10 11  2  0  0  0
 10 15  1  0  0  0
 11 12  1  0  0  0
 11 97  1  0  0  0
 12 13  2  0  0  0
 12 98  1  0  0  0
 13 14  1  0  0  0
 13 31  1  0  0  0
 14 15  2  0  0  0
 14 99  1  0  0  0
 15100  1  0  0  0
 16 17  2  0  0  0
 16 21  1  0  0  0
 16 31  1  0  0  0
 17 18  1  0  0  0
 17101  1  0  0  0
 18 19  2  0  0  0
 18102  1  0  0  0
 19 20  1  0  0  0
 19 24  1  0  0  0
 20 21  2  0  0  0
 20103  1  0  0  0
 21 23  1  0  0  0
 22 28  1  0  0  0
 22 32  2  0  0  0
 26 27  1  0  0  0
 28104  1  0  0  0
 28105  1  0  0  0
 29106  1  0  0  0
 29107  1  0  0  0
 33 34  1  0  0  0
 33 66  1  0  0  0
 33 70  2  0  0  0
 34 36  1  0  0  0
 34 59  1  0  0  0
 34108  1  0  0  0
 35 44  2  0  0  0
 35 45  1  0  0  0
 35 68  1  0  0  0
 36 56  1  0  0  0
 36109  1  0  0  0
 37 39  1  0  0  0
 37 47  1  0  0  0
 37 66  1  0  0  0
 37110  1  0  0  0
 38 43  2  0  0  0
 38 46  1  0  0  0
 38 47  1  0  0  0
 39 64  1  0  0  0
 39 67  2  0  0  0
 40 52  1  0  0  0
 40 53  2  0  0  0
 40 58  1  0  0  0
 41111  1  0  0  0
 41112  1  0  0  0
 41113  1  0  0  0
 41 48  1  0  0  0
 42 43  1  0  0  0
 42 66  1  0  0  0
 42114  1  0  0  0
 42115  1  0  0  0
 43 44  1  0  0  0
 44116  1  0  0  0
 45 46  2  0  0  0
 45117  1  0  0  0
 46118  1  0  0  0
 47119  1  0  0  0
 47120  1  0  0  0
 48 56  1  0  0  0
 48 65  1  0  0  0
 48121  1  0  0  0
 49 50  1  0  0  0
 49 53  1  0  0  0
 49 64  1  0  0  0
 49122  1  0  0  0
 50 51  1  0  0  0
 50123  1  0  0  0
 50124  1  0  0  0
 51 52  1  0  0  0
 51125  1  0  0  0
 51126  1  0  0  0
 52127  1  0  0  0
 52128  1  0  0  0
 53 54  1  0  0  0
 54 55  2  0  0  0
 54129  1  0  0  0
 55 57  1  0  0  0
 55130  1  0  0  0
 56 69  2  0  0  0
 57 58  2  0  0  0
 57131  1  0  0  0
 58132  1  0  0  0
 59 60  1  0  0  0
 59 61  1  0  0  0
 59 62  1  0  0  0
 60133  1  0  0  0
 60134  1  0  0  0
 60135  1  0  0  0
 61136  1  0  0  0
 61137  1  0  0  0
 61138  1  0  0  0
 62139  1  0  0  0
 62140  1  0  0  0
 62141  1  0  0  0
 63 65  1  0  0  0
 63142  1  0  0  0
 63143  1  0  0  0
 63144  1  0  0  0
 64145  1  0  0  0
 65146  1  0  0  0
 68 82  1  0  0  0
 71 72  2  0  0  0
 71 74  1  0  0  0
 71147  1  0  0  0
 72 75  1  0  0  0
 72148  1  0  0  0
 73 74  2  0  0  0
 73 76  1  0  0  0
 73149  1  0  0  0
 74 78  1  0  0  0
 75 76  2  0  0  0
 75 84  1  0  0  0
 76 87  1  0  0  0
 77 81  1  0  0  0
 77 83  1  0  0  0
 77 85  2  0  0  0
 78 83  1  0  0  0
 78 86  2  0  0  0
 79 80  1  0  0  0
 79 81  1  0  0  0
 79150  1  0  0  0
 79151  1  0  0  0
 80 83  1  0  0  0
 80152  1  0  0  0
 80153  1  0  0  0
 81 82  1  0  0  0
 81154  1  0  0  0
 82155  1  0  0  0
 82156  1  0  0  0
 84157  1  0  0  0
M  ISO  4   1 100  68 101  82 101  84 100
M  END
> <chiral flag>
0

> <version>
0

> <s_m_source_file>
/data/baiqing/PycharmProjects/Reinvent-master-3.2/result/LINK_invent/BTK/process_docking_weight1_custom_product_contain_oxygen_bond_distance_aromatic_linkinvent_7_9_3/rearranged_h_0094.sdf

> <i_m_source_file_index>
69

> <r_mmod_Potential_Energy-OPLS-2005>
-1.02483558654785

> <r_mmod_Stretch_Energy-OPLS-2005>
41.3519134521484

> <r_mmod_Bend_Energy-OPLS-2005>
127.011390686035

> <r_mmod_Torsional_Energy-OPLS-2005>
299.498596191406

> <r_mmod_Improper_Torsional_Energy-OPLS-2005>
4.85150241851807

> <r_mmod_Van_der_Waal_Energy-OPLS-2005>
157.018005371094

> <r_mmod_Electrostatic_Energy-OPLS-2005>
-414.016845703125

> <r_mmod_Solvation_Energy-OPLS-2005>
-231.198394775391

> <b_mmod_Minimization_Converged-OPLS-2005>
0

> <r_mmod_RMS_Derivative-OPLS-2005>
0.449885934591293

$$$$
69
                    3D
 Structure written by MMmdl.
158167  0  0  1  0            999 V2000
  -30.6839  -14.6095   20.4293 C   0  0  0  0  0  0
  -30.4178  -12.3617   19.4323 C   0  0  0  0  0  0
  -29.4886  -12.4758   18.2041 C   0  0  0  0  0  0
  -28.0101  -12.3520   18.6258 C   0  0  0  0  0  0
  -27.6461  -13.2340   19.8505 C   0  0  2  0  0  0
  -28.7032  -13.1170   20.9725 C   0  0  0  0  0  0
  -25.2532  -13.8209   20.5751 C   0  0  0  0  0  0
  -24.1813  -13.0441   20.9224 C   0  0  0  0  0  0
  -24.6425  -11.6930   20.8795 C   0  0  0  0  0  0
  -23.9087  -10.4293   21.0409 C   0  0  0  0  0  0
  -24.3623   -9.4212   21.9194 C   0  0  0  0  0  0
  -23.6285   -8.2235   22.0777 C   0  0  0  0  0  0
  -22.4241   -8.0293   21.3586 C   0  0  0  0  0  0
  -21.9902   -9.0286   20.4691 C   0  0  0  0  0  0
  -22.7249  -10.2146   20.3071 C   0  0  0  0  0  0
  -21.6852   -6.0740   22.5286 C   0  0  0  0  0  0
  -21.4035   -6.5644   23.8223 C   0  0  0  0  0  0
  -21.3667   -5.6792   24.9177 C   0  0  0  0  0  0
  -21.6009   -4.3040   24.7231 C   0  0  0  0  0  0
  -21.8808   -3.8144   23.4358 C   0  0  0  0  0  0
  -21.9180   -4.6960   22.3409 C   0  0  0  0  0  0
  -22.7803  -13.5221   21.1837 C   0  0  0  0  0  0
  -22.1646   -4.2145   21.0980 F   0  0  0  0  0  0
  -21.5626   -3.4533   25.7754 F   0  0  0  0  0  0
  -30.0121  -13.4175   20.3841 N   0  0  0  0  0  0
  -26.2982  -12.9436   20.3303 N   0  0  0  0  0  0
  -25.9357  -11.6578   20.5762 N   0  0  0  0  0  0
  -22.0425  -12.8292   22.0427 N   0  0  0  0  0  0
  -25.4187  -15.1927   20.4191 N   0  0  0  0  0  0
  -31.8840  -14.6458   20.1744 O   0  0  0  0  0  0
  -21.6629   -6.8884   21.4238 O   0  0  0  0  0  0
  -22.3486  -14.5514   20.6667 O   0  0  0  0  0  0
  -24.6241  -31.8653   23.2077 C   0  0  0  0  0  0
  -25.9128  -32.4785   23.8394 C   0  0  1  0  0  0
  -27.2124  -27.3597   20.1180 C   0  0  0  0  0  0
  -25.5966  -33.8585   24.2318 N   0  0  0  0  0  0
  -23.4151  -30.4939   21.5472 C   0  0  2  0  0  0
  -24.8604  -28.9515   20.1181 C   0  0  0  0  0  0
  -22.7462  -29.4651   22.4905 C   0  0  0  0  0  0
  -18.0297  -28.1422   22.8454 C   0  0  0  0  0  0
  -24.1506  -36.7323   23.2628 C   0  0  0  0  0  0
  -25.9533  -30.8075   21.3776 C   0  0  0  0  0  0
  -26.0263  -29.4333   20.7285 C   0  0  0  0  0  0
  -27.2092  -28.6450   20.7276 C   0  0  0  0  0  0
  -26.0292  -26.9080   19.5032 C   0  0  0  0  0  0
  -24.8584  -27.6897   19.5000 C   0  0  0  0  0  0
  -23.6358  -29.8428   20.1564 C   0  0  0  0  0  0
  -25.4115  -36.3074   24.0319 C   0  0  1  0  0  0
  -20.5888  -28.3727   23.1281 C   0  0  2  0  0  0
  -20.6798  -26.9456   22.5421 C   0  0  0  0  0  0
  -19.5792  -26.6409   21.5209 C   0  0  0  0  0  0
  -18.1951  -26.7962   22.1589 C   0  0  0  0  0  0
  -19.1549  -28.8871   23.2882 C   0  0  0  0  0  0
  -18.9464  -30.1447   23.8950 C   0  0  0  0  0  0
  -17.6481  -30.6603   24.0585 C   0  0  0  0  0  0
  -25.9050  -34.9443   23.5104 C   0  0  0  0  0  0
  -16.5372  -29.9132   23.6300 C   0  0  0  0  0  0
  -16.7288  -28.6559   23.0293 C   0  0  0  0  0  0
  -26.4512  -31.6562   25.0740 C   0  0  0  0  0  0
  -25.3763  -31.3721   26.1487 C   0  0  0  0  0  0
  -27.0349  -30.2981   24.6172 C   0  0  0  0  0  0
  -27.6080  -32.4272   25.7534 C   0  0  0  0  0  0
  -27.5587  -37.1812   24.8435 C   0  0  0  0  0  0
  -21.4172  -29.3105   22.3683 N   0  0  0  0  0  0
  -26.4271  -37.3775   23.9399 N   0  0  0  0  0  0
  -24.6824  -31.0697   22.1039 N   0  0  0  0  0  0
  -23.4200  -28.8162   23.2939 O   0  0  0  0  0  0
  -28.3185  -26.5304   20.0184 O   0  0  0  0  0  0
  -26.5585  -34.8906   22.4655 O   0  0  0  0  0  0
  -23.5416  -32.1431   23.7427 O   0  0  0  0  0  0
  -29.3588  -18.2296   20.3499 C   0  0  0  0  0  0
  -31.4869  -17.4552   19.4792 C   0  0  0  0  0  0
  -29.6619  -19.5801   19.9499 C   0  0  0  0  0  0
  -30.2736  -17.1376   20.1519 C   0  0  0  0  0  0
  -31.8036  -18.7688   19.0934 C   0  0  0  0  0  0
  -30.9133  -19.8285   19.3472 C   0  0  0  0  0  0
  -28.7044  -24.2903   21.0395 C   0  0  0  0  0  0
  -28.6122  -25.6573   21.0554 C   0  0  0  0  0  0
  -28.6281  -20.7027   19.9323 C   0  0  0  0  0  0
  -29.2411  -23.5001   22.2095 C   0  0  0  0  0  0
  -28.3908  -23.2519   19.9532 C   0  0  0  0  0  0
  -29.7360  -22.1672   21.6189 C   0  0  0  0  0  0
  -28.9559  -21.9466   20.4054 N   0  0  0  0  0  0
  -32.9886  -19.0332   18.4001 N   0  0  0  0  0  0
  -29.9408  -15.7613   20.5526 N   0  0  0  0  0  0
  -27.5485  -20.4898   19.3701 O   0  0  0  0  0  0
  -31.2501  -21.0697   18.9113 F   0  0  0  0  0  0
  -31.4601  -12.4477   19.1199 H   0  0  0  0  0  0
  -30.3331  -11.3753   19.8942 H   0  0  0  0  0  0
  -29.7290  -11.7007   17.4769 H   0  0  0  0  0  0
  -29.6546  -13.4265   17.6945 H   0  0  0  0  0  0
  -27.8228  -11.3028   18.8616 H   0  0  0  0  0  0
  -27.3552  -12.5957   17.7877 H   0  0  0  0  0  0
  -27.6576  -14.2647   19.4930 H   0  0  0  0  0  0
  -28.7060  -12.1158   21.4051 H   0  0  0  0  0  0
  -28.4829  -13.7963   21.7950 H   0  0  0  0  0  0
  -25.2776   -9.5669   22.4792 H   0  0  0  0  0  0
  -24.0001   -7.4612   22.7502 H   0  0  0  0  0  0
  -21.0838   -8.8820   19.9015 H   0  0  0  0  0  0
  -22.3730  -10.9695   19.6186 H   0  0  0  0  0  0
  -21.2071   -7.6160   23.9738 H   0  0  0  0  0  0
  -21.1485   -6.0518   25.9080 H   0  0  0  0  0  0
  -22.0585   -2.7615   23.2840 H   0  0  0  0  0  0
  -22.4010  -12.0005   22.4941 H   0  0  0  0  0  0
  -21.1067  -13.1404   22.2586 H   0  0  0  0  0  0
  -24.6579  -15.8434   20.5740 H   0  0  0  0  0  0
  -26.2459  -15.6403   20.0481 H   0  0  0  0  0  0
  -26.7206  -32.5453   23.1154 H   0  0  0  0  0  0
  -25.0175  -33.9750   25.0500 H   0  0  0  0  0  0
  -22.7086  -31.3147   21.4090 H   0  0  0  0  0  0
  -23.3737  -35.9685   23.3248 H   0  0  0  0  0  0
  -24.3636  -36.8995   22.2059 H   0  0  0  0  0  0
  -23.7303  -37.6524   23.6696 H   0  0  0  0  0  0
  -26.0782  -31.5706   20.6077 H   0  0  0  0  0  0
  -26.8374  -30.8591   22.0014 H   0  0  0  0  0  0
  -28.1119  -29.0111   21.1968 H   0  0  0  0  0  0
  -26.0176  -25.9405   19.0254 H   0  0  0  0  0  0
  -23.9658  -27.3164   19.0183 H   0  0  0  0  0  0
  -23.7853  -30.6333   19.4176 H   0  0  0  0  0  0
  -22.7502  -29.2984   19.8249 H   0  0  0  0  0  0
  -25.1292  -36.1909   25.0803 H   0  0  0  0  0  0
  -20.9986  -28.3325   24.1394 H   0  0  0  0  0  0
  -20.5707  -26.2353   23.3627 H   0  0  0  0  0  0
  -21.6673  -26.7512   22.1228 H   0  0  0  0  0  0
  -19.6971  -25.6307   21.1277 H   0  0  0  0  0  0
  -19.6739  -27.3189   20.6712 H   0  0  0  0  0  0
  -17.4235  -26.6706   21.3967 H   0  0  0  0  0  0
  -18.0335  -26.0115   22.9000 H   0  0  0  0  0  0
  -19.7940  -30.7225   24.2378 H   0  0  0  0  0  0
  -17.5042  -31.6265   24.5232 H   0  0  0  0  0  0
  -15.5382  -30.3073   23.7567 H   0  0  0  0  0  0
  -15.8685  -28.0917   22.6952 H   0  0  0  0  0  0
  -24.5912  -30.7089   25.7838 H   0  0  0  0  0  0
  -24.8991  -32.2913   26.4904 H   0  0  0  0  0  0
  -25.8101  -30.8907   27.0262 H   0  0  0  0  0  0
  -26.2923  -29.6727   24.1205 H   0  0  0  0  0  0
  -27.4068  -29.7227   25.4658 H   0  0  0  0  0  0
  -27.8783  -30.4256   23.9381 H   0  0  0  0  0  0
  -27.2680  -33.3531   26.2187 H   0  0  0  0  0  0
  -28.3884  -32.6889   25.0376 H   0  0  0  0  0  0
  -28.0773  -31.8351   26.5404 H   0  0  0  0  0  0
  -28.2535  -38.0165   24.7493 H   0  0  0  0  0  0
  -28.1133  -36.2689   24.6197 H   0  0  0  0  0  0
  -27.2327  -37.1408   25.8839 H   0  0  0  0  0  0
  -20.9330  -29.8895   21.6972 H   0  0  0  0  0  0
  -26.0133  -38.2824   24.1435 H   0  0  0  0  0  0
  -28.3882  -18.0299   20.7870 H   0  0  0  0  0  0
  -32.2091  -16.7029   19.2129 H   0  0  0  0  0  0
  -28.8936  -26.2123   21.9391 H   0  0  0  0  0  0
  -28.4207  -23.3163   22.9042 H   0  0  0  0  0  0
  -30.0292  -24.0297   22.7477 H   0  0  0  0  0  0
  -28.8462  -23.5466   19.0072 H   0  0  0  0  0  0
  -27.3125  -23.1835   19.8091 H   0  0  0  0  0  0
  -29.6461  -21.3475   22.3363 H   0  0  0  0  0  0
  -30.7852  -22.2546   21.3375 H   0  0  0  0  0  0
  -33.3760  -18.2769   17.8458 H   0  0  0  0  0  0
  -32.9672  -19.9067   17.8827 H   0  0  0  0  0  0
  -28.9924  -15.6186   20.8655 H   0  0  0  0  0  0
  1 25  1  0  0  0
  1 30  2  0  0  0
  1 85  1  0  0  0
  2  3  1  0  0  0
  2 25  1  0  0  0
  2 88  1  0  0  0
  2 89  1  0  0  0
  3  4  1  0  0  0
  3 90  1  0  0  0
  3 91  1  0  0  0
  4  5  1  0  0  0
  4 92  1  0  0  0
  4 93  1  0  0  0
  5  6  1  0  0  0
  5 26  1  0  0  0
  5 94  1  0  0  0
  6 25  1  0  0  0
  6 95  1  0  0  0
  6 96  1  0  0  0
  7  8  2  0  0  0
  7 26  1  0  0  0
  7 29  1  0  0  0
  8  9  1  0  0  0
  8 22  1  0  0  0
  9 10  1  0  0  0
  9 27  2  0  0  0
 10 11  2  0  0  0
 10 15  1  0  0  0
 11 12  1  0  0  0
 11 97  1  0  0  0
 12 13  2  0  0  0
 12 98  1  0  0  0
 13 14  1  0  0  0
 13 31  1  0  0  0
 14 15  2  0  0  0
 14 99  1  0  0  0
 15100  1  0  0  0
 16 17  2  0  0  0
 16 21  1  0  0  0
 16 31  1  0  0  0
 17 18  1  0  0  0
 17101  1  0  0  0
 18 19  2  0  0  0
 18102  1  0  0  0
 19 20  1  0  0  0
 19 24  1  0  0  0
 20 21  2  0  0  0
 20103  1  0  0  0
 21 23  1  0  0  0
 22 28  1  0  0  0
 22 32  2  0  0  0
 26 27  1  0  0  0
 28104  1  0  0  0
 28105  1  0  0  0
 29106  1  0  0  0
 29107  1  0  0  0
 33 34  1  0  0  0
 33 66  1  0  0  0
 33 70  2  0  0  0
 34 36  1  0  0  0
 34 59  1  0  0  0
 34108  1  0  0  0
 35 44  2  0  0  0
 35 45  1  0  0  0
 35 68  1  0  0  0
 36 56  1  0  0  0
 36109  1  0  0  0
 37 39  1  0  0  0
 37 47  1  0  0  0
 37 66  1  0  0  0
 37110  1  0  0  0
 38 43  2  0  0  0
 38 46  1  0  0  0
 38 47  1  0  0  0
 39 64  1  0  0  0
 39 67  2  0  0  0
 40 52  1  0  0  0
 40 53  2  0  0  0
 40 58  1  0  0  0
 41111  1  0  0  0
 41112  1  0  0  0
 41113  1  0  0  0
 41 48  1  0  0  0
 42 43  1  0  0  0
 42 66  1  0  0  0
 42114  1  0  0  0
 42115  1  0  0  0
 43 44  1  0  0  0
 44116  1  0  0  0
 45 46  2  0  0  0
 45117  1  0  0  0
 46118  1  0  0  0
 47119  1  0  0  0
 47120  1  0  0  0
 48 56  1  0  0  0
 48 65  1  0  0  0
 48121  1  0  0  0
 49 50  1  0  0  0
 49 53  1  0  0  0
 49 64  1  0  0  0
 49122  1  0  0  0
 50 51  1  0  0  0
 50123  1  0  0  0
 50124  1  0  0  0
 51 52  1  0  0  0
 51125  1  0  0  0
 51126  1  0  0  0
 52127  1  0  0  0
 52128  1  0  0  0
 53 54  1  0  0  0
 54 55  2  0  0  0
 54129  1  0  0  0
 55 57  1  0  0  0
 55130  1  0  0  0
 56 69  2  0  0  0
 57 58  2  0  0  0
 57131  1  0  0  0
 58132  1  0  0  0
 59 60  1  0  0  0
 59 61  1  0  0  0
 59 62  1  0  0  0
 60133  1  0  0  0
 60134  1  0  0  0
 60135  1  0  0  0
 61136  1  0  0  0
 61137  1  0  0  0
 61138  1  0  0  0
 62139  1  0  0  0
 62140  1  0  0  0
 62141  1  0  0  0
 63 65  1  0  0  0
 63142  1  0  0  0
 63143  1  0  0  0
 63144  1  0  0  0
 64145  1  0  0  0
 65146  1  0  0  0
 68 78  1  0  0  0
 71 73  2  0  0  0
 71 74  1  0  0  0
 71147  1  0  0  0
 72 74  2  0  0  0
 72 75  1  0  0  0
 72148  1  0  0  0
 73 76  1  0  0  0
 73 79  1  0  0  0
 74 85  1  0  0  0
 75 76  2  0  0  0
 75 84  1  0  0  0
 76 87  1  0  0  0
 77 78  2  0  0  0
 77 80  1  0  0  0
 77 81  1  0  0  0
 78149  1  0  0  0
 79 83  1  0  0  0
 79 86  2  0  0  0
 80 82  1  0  0  0
 80150  1  0  0  0
 80151  1  0  0  0
 81 83  1  0  0  0
 81152  1  0  0  0
 81153  1  0  0  0
 82 83  1  0  0  0
 82154  1  0  0  0
 82155  1  0  0  0
 84156  1  0  0  0
 84157  1  0  0  0
 85158  1  0  0  0
M  ISO  4   1 100  68 101  78 101  85 100
M  END
> <chiral flag>
0

> <version>
0

> <s_m_source_file>
/data/baiqing/PycharmProjects/Reinvent-master-3.2/result/LINK_invent/BTK/process_docking_weight1_custom_product_contain_oxygen_bond_distance_aromatic_linkinvent_7_9_3/rearranged_h_0094.sdf

> <i_m_source_file_index>
70

> <r_mmod_Potential_Energy-OPLS-2005>
148.123550415039

> <r_mmod_Stretch_Energy-OPLS-2005>
63.2934112548828

> <r_mmod_Bend_Energy-OPLS-2005>
149.78303527832

> <r_mmod_Torsional_Energy-OPLS-2005>
329.359527587891

> <r_mmod_Improper_Torsional_Energy-OPLS-2005>
12.8148708343506

> <r_mmod_Van_der_Waal_Energy-OPLS-2005>
141.524932861328

> <r_mmod_Electrostatic_Energy-OPLS-2005>
-367.680267333984

> <r_mmod_Solvation_Energy-OPLS-2005>
-223.192581176758

> <b_mmod_Minimization_Converged-OPLS-2005>
0

> <r_mmod_RMS_Derivative-OPLS-2005>
5.21164512634277

$$$$
70
                    3D
 Structure written by MMmdl.
162171  0  0  1  0            999 V2000
  -30.6412  -14.6394   20.5510 C   0  0  0  0  0  0
  -30.4331  -12.4179   19.4302 C   0  0  0  0  0  0
  -29.5003  -12.5293   18.2049 C   0  0  0  0  0  0
  -28.0209  -12.3723   18.6128 C   0  0  0  0  0  0
  -27.6500  -13.2226   19.8551 C   0  0  2  0  0  0
  -28.6922  -13.0530   20.9754 C   0  0  0  0  0  0
  -25.2543  -13.8193   20.5675 C   0  0  0  0  0  0
  -24.1828  -13.0447   20.9165 C   0  0  0  0  0  0
  -24.6408  -11.6920   20.8734 C   0  0  0  0  0  0
  -23.9086  -10.4293   21.0409 C   0  0  0  0  0  0
  -24.3631   -9.4199   21.9183 C   0  0  0  0  0  0
  -23.6298   -8.2238   22.0757 C   0  0  0  0  0  0
  -22.4277   -8.0283   21.3549 C   0  0  0  0  0  0
  -21.9920   -9.0263   20.4656 C   0  0  0  0  0  0
  -22.7258  -10.2135   20.3059 C   0  0  0  0  0  0
  -21.6841   -6.0733   22.5279 C   0  0  0  0  0  0
  -21.4010   -6.5640   23.8207 C   0  0  0  0  0  0
  -21.3660   -5.6797   24.9170 C   0  0  0  0  0  0
  -21.6045   -4.3058   24.7225 C   0  0  0  0  0  0
  -21.8814   -3.8145   23.4345 C   0  0  0  0  0  0
  -21.9189   -4.6963   22.3400 C   0  0  0  0  0  0
  -22.7846  -13.5229   21.1837 C   0  0  0  0  0  0
  -22.1653   -4.2150   21.0975 F   0  0  0  0  0  0
  -21.5640   -3.4543   25.7740 F   0  0  0  0  0  0
  -30.0018  -13.4291   20.4189 N   0  0  0  0  0  0
  -26.2974  -12.9388   20.3271 N   0  0  0  0  0  0
  -25.9335  -11.6537   20.5729 N   0  0  0  0  0  0
  -22.0492  -12.8236   22.0406 N   0  0  0  0  0  0
  -25.4259  -15.1928   20.4108 N   0  0  0  0  0  0
  -31.7767  -14.7961   20.0870 O   0  0  0  0  0  0
  -21.6631   -6.8889   21.4249 O   0  0  0  0  0  0
  -22.3529  -14.5519   20.6665 O   0  0  0  0  0  0
  -24.6264  -31.8593   23.2000 C   0  0  0  0  0  0
  -25.9123  -32.4767   23.8319 C   0  0  1  0  0  0
  -27.2132  -27.3222   20.1187 C   0  0  0  0  0  0
  -25.5959  -33.8582   24.2279 N   0  0  0  0  0  0
  -23.4169  -30.4859   21.5399 C   0  0  2  0  0  0
  -24.8587  -28.9330   20.1081 C   0  0  0  0  0  0
  -22.7434  -29.4672   22.4892 C   0  0  0  0  0  0
  -18.0305  -28.1343   22.8518 C   0  0  0  0  0  0
  -24.1481  -36.7301   23.2642 C   0  0  0  0  0  0
  -25.9544  -30.7916   21.3664 C   0  0  0  0  0  0
  -26.0275  -29.4180   20.7123 C   0  0  0  0  0  0
  -27.2132  -28.6246   20.7047 C   0  0  0  0  0  0
  -26.0309  -26.8862   19.4927 C   0  0  0  0  0  0
  -24.8633  -27.6726   19.4871 C   0  0  0  0  0  0
  -23.6295  -29.8160   20.1541 C   0  0  0  0  0  0
  -25.4105  -36.3105   24.0339 C   0  0  1  0  0  0
  -20.5903  -28.3683   23.1272 C   0  0  2  0  0  0
  -20.6790  -26.9404   22.5410 C   0  0  0  0  0  0
  -19.5758  -26.6376   21.5212 C   0  0  0  0  0  0
  -18.1937  -26.7894   22.1635 C   0  0  0  0  0  0
  -19.1556  -28.8821   23.2903 C   0  0  0  0  0  0
  -18.9473  -30.1424   23.8908 C   0  0  0  0  0  0
  -17.6472  -30.6556   24.0546 C   0  0  0  0  0  0
  -25.9037  -34.9461   23.5100 C   0  0  0  0  0  0
  -16.5368  -29.9060   23.6304 C   0  0  0  0  0  0
  -16.7292  -28.6471   23.0351 C   0  0  0  0  0  0
  -26.4497  -31.6553   25.0676 C   0  0  0  0  0  0
  -25.3727  -31.3718   26.1395 C   0  0  0  0  0  0
  -27.0322  -30.2971   24.6136 C   0  0  0  0  0  0
  -27.6045  -32.4275   25.7454 C   0  0  0  0  0  0
  -27.5570  -37.1811   24.8471 C   0  0  0  0  0  0
  -21.4150  -29.3071   22.3641 N   0  0  0  0  0  0
  -26.4288  -37.3808   23.9424 N   0  0  0  0  0  0
  -24.6843  -31.0639   22.0928 N   0  0  0  0  0  0
  -23.4165  -28.8243   23.2985 O   0  0  0  0  0  0
  -28.3195  -26.4684   20.1195 O   0  0  0  0  0  0
  -26.5571  -34.8949   22.4648 O   0  0  0  0  0  0
  -23.5446  -32.1338   23.7405 O   0  0  0  0  0  0
  -29.4804  -18.9608   19.1367 C   0  0  0  0  0  0
  -29.2679  -18.0347   21.7154 C   0  0  0  0  0  0
  -29.7328  -17.5692   19.4077 C   0  0  0  0  0  0
  -29.1454  -19.9327   20.1327 C   0  0  0  0  0  0
  -29.6900  -17.0602   20.7523 C   0  0  0  0  0  0
  -28.9926  -19.4002   21.4295 C   0  0  0  0  0  0
  -29.8265  -22.0810   19.0410 C   0  0  0  0  0  0
  -29.2801  -16.5914   17.1454 C   0  0  0  0  0  0
  -30.0450  -16.7178   18.2444 C   0  0  0  0  0  0
  -29.5488  -23.5919   19.0389 C   0  0  0  0  0  0
  -28.2027  -22.3922   20.6220 C   0  0  0  0  0  0
  -28.2682  -23.7766   19.8542 C   0  0  2  0  0  0
  -30.0065  -15.4605   22.6729 C   0  0  0  0  0  0
  -28.1513  -25.1205   20.7140 C   0  0  0  0  0  0
  -29.0095  -21.3854   19.8587 N   0  0  0  0  0  0
  -29.9885  -15.6650   21.2121 N   0  0  0  0  0  0
  -30.7341  -21.6030   18.3542 O   0  0  0  0  0  0
  -28.6138  -20.2054   22.4485 F   0  0  0  0  0  0
  -31.4707  -12.5513   19.1207 H   0  0  0  0  0  0
  -30.3866  -11.4196   19.8676 H   0  0  0  0  0  0
  -29.7627  -11.7779   17.4587 H   0  0  0  0  0  0
  -29.6452  -13.4983   17.7251 H   0  0  0  0  0  0
  -27.8422  -11.3174   18.8206 H   0  0  0  0  0  0
  -27.3708  -12.6328   17.7758 H   0  0  0  0  0  0
  -27.6734  -14.2675   19.5412 H   0  0  0  0  0  0
  -28.7199  -12.0190   21.3239 H   0  0  0  0  0  0
  -28.4034  -13.6458   21.8410 H   0  0  0  0  0  0
  -25.2784   -9.5661   22.4753 H   0  0  0  0  0  0
  -24.0005   -7.4620   22.7469 H   0  0  0  0  0  0
  -21.0851   -8.8777   19.8964 H   0  0  0  0  0  0
  -22.3725  -10.9664   19.6157 H   0  0  0  0  0  0
  -21.1989   -7.6146   23.9716 H   0  0  0  0  0  0
  -21.1499   -6.0524   25.9080 H   0  0  0  0  0  0
  -22.0599   -2.7611   23.2837 H   0  0  0  0  0  0
  -22.4117  -11.9930   22.4838 H   0  0  0  0  0  0
  -21.1097  -13.1258   22.2589 H   0  0  0  0  0  0
  -24.6672  -15.8527   20.5363 H   0  0  0  0  0  0
  -26.2907  -15.6324   20.1230 H   0  0  0  0  0  0
  -26.7193  -32.5440   23.1060 H   0  0  0  0  0  0
  -25.0167  -33.9666   25.0476 H   0  0  0  0  0  0
  -22.7141  -31.3093   21.3968 H   0  0  0  0  0  0
  -23.3750  -35.9619   23.3305 H   0  0  0  0  0  0
  -24.3598  -36.8895   22.2059 H   0  0  0  0  0  0
  -23.7202  -37.6508   23.6628 H   0  0  0  0  0  0
  -26.0842  -31.5582   20.6002 H   0  0  0  0  0  0
  -26.8336  -30.8335   21.9981 H   0  0  0  0  0  0
  -28.1113  -28.9970   21.1777 H   0  0  0  0  0  0
  -26.0141  -25.9214   19.0048 H   0  0  0  0  0  0
  -23.9711  -27.3004   18.9995 H   0  0  0  0  0  0
  -23.7456  -30.5884   19.3912 H   0  0  0  0  0  0
  -22.7487  -29.2463   19.8507 H   0  0  0  0  0  0
  -25.1288  -36.1941   25.0826 H   0  0  0  0  0  0
  -21.0029  -28.3261   24.1381 H   0  0  0  0  0  0
  -20.5690  -26.2294   23.3626 H   0  0  0  0  0  0
  -21.6641  -26.7401   22.1200 H   0  0  0  0  0  0
  -19.6921  -25.6297   21.1221 H   0  0  0  0  0  0
  -19.6673  -27.3184   20.6744 H   0  0  0  0  0  0
  -17.4217  -26.6670   21.4030 H   0  0  0  0  0  0
  -18.0324  -25.9995   22.8991 H   0  0  0  0  0  0
  -19.7944  -30.7238   24.2271 H   0  0  0  0  0  0
  -17.5023  -31.6231   24.5140 H   0  0  0  0  0  0
  -15.5355  -30.2955   23.7620 H   0  0  0  0  0  0
  -15.8700  -28.0773   22.7070 H   0  0  0  0  0  0
  -24.5939  -30.7007   25.7752 H   0  0  0  0  0  0
  -24.8876  -32.2889   26.4745 H   0  0  0  0  0  0
  -25.8050  -30.8977   27.0200 H   0  0  0  0  0  0
  -26.2873  -29.6742   24.1166 H   0  0  0  0  0  0
  -27.4023  -29.7222   25.4630 H   0  0  0  0  0  0
  -27.8740  -30.4262   23.9334 H   0  0  0  0  0  0
  -27.2647  -33.3599   26.1975 H   0  0  0  0  0  0
  -28.3872  -32.6776   25.0280 H   0  0  0  0  0  0
  -28.0649  -31.8408   26.5417 H   0  0  0  0  0  0
  -28.2611  -38.0085   24.7499 H   0  0  0  0  0  0
  -28.1034  -36.2629   24.6292 H   0  0  0  0  0  0
  -27.2289  -37.1415   25.8870 H   0  0  0  0  0  0
  -20.9318  -29.8822   21.6874 H   0  0  0  0  0  0
  -26.0178  -38.2902   24.1360 H   0  0  0  0  0  0
  -29.5772  -19.2953   18.1146 H   0  0  0  0  0  0
  -29.1399  -17.7768   22.7529 H   0  0  0  0  0  0
  -29.6002  -15.9661   16.3219 H   0  0  0  0  0  0
  -28.3301  -17.0966   17.0363 H   0  0  0  0  0  0
  -30.9884  -16.1947   18.2602 H   0  0  0  0  0  0
  -29.4340  -23.9626   18.0207 H   0  0  0  0  0  0
  -30.3867  -24.1098   19.5039 H   0  0  0  0  0  0
  -27.1684  -22.0735   20.7545 H   0  0  0  0  0  0
  -28.6220  -22.5065   21.6219 H   0  0  0  0  0  0
  -27.4408  -23.7812   19.1419 H   0  0  0  0  0  0
  -30.7115  -16.1514   23.1400 H   0  0  0  0  0  0
  -30.3096  -14.4574   22.9876 H   0  0  0  0  0  0
  -29.0139  -15.6238   23.0950 H   0  0  0  0  0  0
  -28.8938  -25.0630   21.5104 H   0  0  0  0  0  0
  -27.1937  -25.0840   21.2385 H   0  0  0  0  0  0
  1 25  1  0  0  0
  1 30  2  0  0  0
  1 86  1  0  0  0
  2  3  1  0  0  0
  2 25  1  0  0  0
  2 89  1  0  0  0
  2 90  1  0  0  0
  3  4  1  0  0  0
  3 91  1  0  0  0
  3 92  1  0  0  0
  4  5  1  0  0  0
  4 93  1  0  0  0
  4 94  1  0  0  0
  5  6  1  0  0  0
  5 26  1  0  0  0
  5 95  1  0  0  0
  6 25  1  0  0  0
  6 96  1  0  0  0
  6 97  1  0  0  0
  7  8  2  0  0  0
  7 26  1  0  0  0
  7 29  1  0  0  0
  8  9  1  0  0  0
  8 22  1  0  0  0
  9 10  1  0  0  0
  9 27  2  0  0  0
 10 11  2  0  0  0
 10 15  1  0  0  0
 11 12  1  0  0  0
 11 98  1  0  0  0
 12 13  2  0  0  0
 12 99  1  0  0  0
 13 14  1  0  0  0
 13 31  1  0  0  0
 14 15  2  0  0  0
 14100  1  0  0  0
 15101  1  0  0  0
 16 17  2  0  0  0
 16 21  1  0  0  0
 16 31  1  0  0  0
 17 18  1  0  0  0
 17102  1  0  0  0
 18 19  2  0  0  0
 18103  1  0  0  0
 19 20  1  0  0  0
 19 24  1  0  0  0
 20 21  2  0  0  0
 20104  1  0  0  0
 21 23  1  0  0  0
 22 28  1  0  0  0
 22 32  2  0  0  0
 26 27  1  0  0  0
 28105  1  0  0  0
 28106  1  0  0  0
 29107  1  0  0  0
 29108  1  0  0  0
 33 34  1  0  0  0
 33 66  1  0  0  0
 33 70  2  0  0  0
 34 36  1  0  0  0
 34 59  1  0  0  0
 34109  1  0  0  0
 35 44  2  0  0  0
 35 45  1  0  0  0
 35 68  1  0  0  0
 36 56  1  0  0  0
 36110  1  0  0  0
 37 39  1  0  0  0
 37 47  1  0  0  0
 37 66  1  0  0  0
 37111  1  0  0  0
 38 43  2  0  0  0
 38 46  1  0  0  0
 38 47  1  0  0  0
 39 64  1  0  0  0
 39 67  2  0  0  0
 40 52  1  0  0  0
 40 53  2  0  0  0
 40 58  1  0  0  0
 41112  1  0  0  0
 41113  1  0  0  0
 41114  1  0  0  0
 41 48  1  0  0  0
 42 43  1  0  0  0
 42 66  1  0  0  0
 42115  1  0  0  0
 42116  1  0  0  0
 43 44  1  0  0  0
 44117  1  0  0  0
 45 46  2  0  0  0
 45118  1  0  0  0
 46119  1  0  0  0
 47120  1  0  0  0
 47121  1  0  0  0
 48 56  1  0  0  0
 48 65  1  0  0  0
 48122  1  0  0  0
 49 50  1  0  0  0
 49 53  1  0  0  0
 49 64  1  0  0  0
 49123  1  0  0  0
 50 51  1  0  0  0
 50124  1  0  0  0
 50125  1  0  0  0
 51 52  1  0  0  0
 51126  1  0  0  0
 51127  1  0  0  0
 52128  1  0  0  0
 52129  1  0  0  0
 53 54  1  0  0  0
 54 55  2  0  0  0
 54130  1  0  0  0
 55 57  1  0  0  0
 55131  1  0  0  0
 56 69  2  0  0  0
 57 58  2  0  0  0
 57132  1  0  0  0
 58133  1  0  0  0
 59 60  1  0  0  0
 59 61  1  0  0  0
 59 62  1  0  0  0
 60134  1  0  0  0
 60135  1  0  0  0
 60136  1  0  0  0
 61137  1  0  0  0
 61138  1  0  0  0
 61139  1  0  0  0
 62140  1  0  0  0
 62141  1  0  0  0
 62142  1  0  0  0
 63 65  1  0  0  0
 63143  1  0  0  0
 63144  1  0  0  0
 63145  1  0  0  0
 64146  1  0  0  0
 65147  1  0  0  0
 68 84  1  0  0  0
 71 73  2  0  0  0
 71 74  1  0  0  0
 71148  1  0  0  0
 72 75  2  0  0  0
 72 76  1  0  0  0
 72149  1  0  0  0
 73 75  1  0  0  0
 73 79  1  0  0  0
 74 76  2  0  0  0
 74 85  1  0  0  0
 75 86  1  0  0  0
 76 88  1  0  0  0
 77 80  1  0  0  0
 77 85  1  0  0  0
 77 87  2  0  0  0
 78 79  2  0  0  0
 78150  1  0  0  0
 78151  1  0  0  0
 79152  1  0  0  0
 80 82  1  0  0  0
 80153  1  0  0  0
 80154  1  0  0  0
 81 82  1  0  0  0
 81 85  1  0  0  0
 81155  1  0  0  0
 81156  1  0  0  0
 82 84  1  0  0  0
 82157  1  0  0  0
 83 86  1  0  0  0
 83158  1  0  0  0
 83159  1  0  0  0
 83160  1  0  0  0
 84161  1  0  0  0
 84162  1  0  0  0
M  ISO  4   1 100  68 101  84 101  86 100
M  END
> <chiral flag>
0

> <version>
0

> <s_m_source_file>
/data/baiqing/PycharmProjects/Reinvent-master-3.2/result/LINK_invent/BTK/process_docking_weight1_custom_product_contain_oxygen_bond_distance_aromatic_linkinvent_7_9_3/rearranged_h_0094.sdf

> <i_m_source_file_index>
71

> <r_mmod_Potential_Energy-OPLS-2005>
318.851867675781

> <r_mmod_Stretch_Energy-OPLS-2005>
98.2172927856445

> <r_mmod_Bend_Energy-OPLS-2005>
184.186721801758

> <r_mmod_Torsional_Energy-OPLS-2005>
372.009002685547

> <r_mmod_Improper_Torsional_Energy-OPLS-2005>
3.55026435852051

> <r_mmod_Van_der_Waal_Energy-OPLS-2005>
153.074600219727

> <r_mmod_Electrostatic_Energy-OPLS-2005>
-339.140869140625

> <r_mmod_Solvation_Energy-OPLS-2005>
-198.828720092773

> <b_mmod_Minimization_Converged-OPLS-2005>
0

> <r_mmod_RMS_Derivative-OPLS-2005>
4.30143213272095

$$$$
71
                    3D
 Structure written by MMmdl.
159168  0  0  1  0            999 V2000
  -30.6626  -14.6658   20.5824 C   0  0  0  0  0  0
  -30.4311  -12.4334   19.4634 C   0  0  0  0  0  0
  -29.5094  -12.5323   18.2294 C   0  0  0  0  0  0
  -28.0320  -12.3591   18.6298 C   0  0  0  0  0  0
  -27.6486  -13.2277   19.8560 C   0  0  2  0  0  0
  -28.6841  -13.0902   20.9883 C   0  0  0  0  0  0
  -25.2528  -13.8195   20.5678 C   0  0  0  0  0  0
  -24.1807  -13.0451   20.9186 C   0  0  0  0  0  0
  -24.6394  -11.6931   20.8732 C   0  0  0  0  0  0
  -23.9072  -10.4310   21.0411 C   0  0  0  0  0  0
  -24.3628   -9.4219   21.9180 C   0  0  0  0  0  0
  -23.6299   -8.2256   22.0744 C   0  0  0  0  0  0
  -22.4279   -8.0298   21.3540 C   0  0  0  0  0  0
  -21.9916   -9.0277   20.4652 C   0  0  0  0  0  0
  -22.7251  -10.2147   20.3056 C   0  0  0  0  0  0
  -21.6868   -6.0742   22.5279 C   0  0  0  0  0  0
  -21.4042   -6.5644   23.8219 C   0  0  0  0  0  0
  -21.3653   -5.6786   24.9172 C   0  0  0  0  0  0
  -21.6034   -4.3050   24.7221 C   0  0  0  0  0  0
  -21.8822   -3.8150   23.4339 C   0  0  0  0  0  0
  -21.9198   -4.6969   22.3395 C   0  0  0  0  0  0
  -22.7828  -13.5236   21.1861 C   0  0  0  0  0  0
  -22.1662   -4.2162   21.0973 F   0  0  0  0  0  0
  -21.5609   -3.4524   25.7725 F   0  0  0  0  0  0
  -30.0029  -13.4597   20.4434 N   0  0  0  0  0  0
  -26.2958  -12.9394   20.3254 N   0  0  0  0  0  0
  -25.9320  -11.6541   20.5712 N   0  0  0  0  0  0
  -22.0468  -12.8233   22.0423 N   0  0  0  0  0  0
  -25.4250  -15.1919   20.4137 N   0  0  0  0  0  0
  -31.7790  -14.8146   20.0743 O   0  0  0  0  0  0
  -21.6647   -6.8891   21.4241 O   0  0  0  0  0  0
  -22.3502  -14.5536   20.6709 O   0  0  0  0  0  0
  -24.6292  -31.8593   23.2033 C   0  0  0  0  0  0
  -25.9133  -32.4778   23.8362 C   0  0  1  0  0  0
  -27.2107  -27.2961   20.1189 C   0  0  0  0  0  0
  -25.5930  -33.8576   24.2277 N   0  0  0  0  0  0
  -23.4223  -30.4848   21.5488 C   0  0  2  0  0  0
  -24.8660  -28.9424   20.1112 C   0  0  0  0  0  0
  -22.7494  -29.4617   22.4950 C   0  0  0  0  0  0
  -18.0288  -28.1391   22.8505 C   0  0  0  0  0  0
  -24.1477  -36.7279   23.2643 C   0  0  0  0  0  0
  -25.9670  -30.7847   21.3763 C   0  0  0  0  0  0
  -26.0397  -29.4112   20.7156 C   0  0  0  0  0  0
  -27.2181  -28.6020   20.7060 C   0  0  0  0  0  0
  -26.0178  -26.8963   19.4738 C   0  0  0  0  0  0
  -24.8591  -27.6921   19.4788 C   0  0  0  0  0  0
  -23.6364  -29.8264   20.1623 C   0  0  0  0  0  0
  -25.4107  -36.3083   24.0333 C   0  0  1  0  0  0
  -20.5891  -28.3688   23.1295 C   0  0  2  0  0  0
  -20.6774  -26.9408   22.5418 C   0  0  0  0  0  0
  -19.5738  -26.6389   21.5226 C   0  0  0  0  0  0
  -18.1923  -26.7937   22.1643 C   0  0  0  0  0  0
  -19.1543  -28.8860   23.2899 C   0  0  0  0  0  0
  -18.9462  -30.1467   23.8906 C   0  0  0  0  0  0
  -17.6461  -30.6598   24.0565 C   0  0  0  0  0  0
  -25.9054  -34.9455   23.5111 C   0  0  0  0  0  0
  -16.5352  -29.9094   23.6329 C   0  0  0  0  0  0
  -16.7276  -28.6510   23.0358 C   0  0  0  0  0  0
  -26.4499  -31.6593   25.0741 C   0  0  0  0  0  0
  -25.3720  -31.3750   26.1463 C   0  0  0  0  0  0
  -27.0328  -30.3012   24.6192 C   0  0  0  0  0  0
  -27.6058  -32.4330   25.7506 C   0  0  0  0  0  0
  -27.5568  -37.1796   24.8474 C   0  0  0  0  0  0
  -21.4204  -29.3040   22.3694 N   0  0  0  0  0  0
  -26.4281  -37.3778   23.9416 N   0  0  0  0  0  0
  -24.6921  -31.0592   22.0996 N   0  0  0  0  0  0
  -23.4218  -28.8154   23.3028 O   0  0  0  0  0  0
  -28.3041  -26.4110   20.1607 O   0  0  0  0  0  0
  -26.5623  -34.8927   22.4679 O   0  0  0  0  0  0
  -23.5454  -32.1392   23.7357 O   0  0  0  0  0  0
  -29.3810  -19.5038   21.6313 C   0  0  0  0  0  0
  -29.4503  -18.0971   21.8868 C   0  0  0  0  0  0
  -30.1689  -19.0926   19.4109 C   0  0  0  0  0  0
  -29.7958  -20.0591   20.3947 C   0  0  0  0  0  0
  -29.9213  -17.1268   20.9381 C   0  0  0  0  0  0
  -30.2207  -17.6822   19.6570 C   0  0  0  0  0  0
  -28.9536  -22.5148   20.3509 C   0  0  0  0  0  0
  -29.1271  -23.8867   20.2688 C   0  0  0  0  0  0
  -31.2473  -21.9515   19.8903 C   0  0  0  0  0  0
  -30.5167  -24.4319   20.0225 C   0  0  0  0  0  0
  -31.4385  -23.3864   19.3714 C   0  0  0  0  0  0
  -30.0496  -15.4095   22.7658 C   0  0  0  0  0  0
  -28.0050  -24.9743   20.4488 C   0  0  0  0  0  0
  -29.9868  -21.5157   20.1787 N   0  0  0  0  0  0
  -30.0760  -15.6864   21.3172 N   0  0  0  0  0  0
  -32.2561  -21.2448   20.0038 O   0  0  0  0  0  0
  -30.5830  -16.8745   18.6330 F   0  0  0  0  0  0
  -31.4739  -12.5553   19.1650 H   0  0  0  0  0  0
  -30.3695  -11.4402   19.9105 H   0  0  0  0  0  0
  -29.7878  -11.7796   17.4903 H   0  0  0  0  0  0
  -29.6451  -13.5016   17.7464 H   0  0  0  0  0  0
  -27.8715  -11.3042   18.8550 H   0  0  0  0  0  0
  -27.3812  -12.5903   17.7855 H   0  0  0  0  0  0
  -27.6660  -14.2655   19.5215 H   0  0  0  0  0  0
  -28.7044  -12.0668   21.3638 H   0  0  0  0  0  0
  -28.3820  -13.7035   21.8332 H   0  0  0  0  0  0
  -25.2778   -9.5689   22.4749 H   0  0  0  0  0  0
  -24.0025   -7.4632   22.7438 H   0  0  0  0  0  0
  -21.0857   -8.8811   19.8942 H   0  0  0  0  0  0
  -22.3736  -10.9691   19.6165 H   0  0  0  0  0  0
  -21.2074   -7.6159   23.9742 H   0  0  0  0  0  0
  -21.1454   -6.0501   25.9073 H   0  0  0  0  0  0
  -22.0608   -2.7617   23.2826 H   0  0  0  0  0  0
  -22.4092  -11.9916   22.4845 H   0  0  0  0  0  0
  -21.1074  -13.1254   22.2621 H   0  0  0  0  0  0
  -24.6616  -15.8491   20.5294 H   0  0  0  0  0  0
  -26.2914  -15.6336   20.1318 H   0  0  0  0  0  0
  -26.7198  -32.5436   23.1109 H   0  0  0  0  0  0
  -25.0051  -33.9711   25.0403 H   0  0  0  0  0  0
  -22.7168  -31.3067   21.4102 H   0  0  0  0  0  0
  -23.3744  -35.9606   23.3323 H   0  0  0  0  0  0
  -24.3557  -36.8879   22.2050 H   0  0  0  0  0  0
  -23.7221  -37.6485   23.6648 H   0  0  0  0  0  0
  -26.0997  -31.5497   20.6098 H   0  0  0  0  0  0
  -26.8474  -30.8318   22.0056 H   0  0  0  0  0  0
  -28.1200  -28.9591   21.1829 H   0  0  0  0  0  0
  -25.9497  -25.9572   18.9484 H   0  0  0  0  0  0
  -23.9634  -27.3341   18.9896 H   0  0  0  0  0  0
  -23.7589  -30.6072   19.4108 H   0  0  0  0  0  0
  -22.7533  -29.2622   19.8567 H   0  0  0  0  0  0
  -25.1285  -36.1932   25.0823 H   0  0  0  0  0  0
  -20.9984  -28.3248   24.1413 H   0  0  0  0  0  0
  -20.5681  -26.2284   23.3614 H   0  0  0  0  0  0
  -21.6638  -26.7436   22.1194 H   0  0  0  0  0  0
  -19.6887  -25.6300   21.1252 H   0  0  0  0  0  0
  -19.6676  -27.3202   20.6761 H   0  0  0  0  0  0
  -17.4188  -26.6699   21.4052 H   0  0  0  0  0  0
  -18.0319  -26.0084   22.9044 H   0  0  0  0  0  0
  -19.7932  -30.7291   24.2275 H   0  0  0  0  0  0
  -17.5006  -31.6276   24.5163 H   0  0  0  0  0  0
  -15.5348  -30.2996   23.7648 H   0  0  0  0  0  0
  -15.8679  -28.0830   22.7065 H   0  0  0  0  0  0
  -24.5886  -30.7109   25.7796 H   0  0  0  0  0  0
  -24.8919  -32.2923   26.4882 H   0  0  0  0  0  0
  -25.8031  -30.8930   27.0245 H   0  0  0  0  0  0
  -26.2901  -29.6792   24.1180 H   0  0  0  0  0  0
  -27.3985  -29.7249   25.4701 H   0  0  0  0  0  0
  -27.8797  -30.4308   23.9447 H   0  0  0  0  0  0
  -27.2667  -33.3634   26.2076 H   0  0  0  0  0  0
  -28.3865  -32.6886   25.0329 H   0  0  0  0  0  0
  -28.0727  -31.8460   26.5426 H   0  0  0  0  0  0
  -28.2610  -38.0072   24.7500 H   0  0  0  0  0  0
  -28.1039  -36.2602   24.6325 H   0  0  0  0  0  0
  -27.2286  -37.1482   25.8880 H   0  0  0  0  0  0
  -20.9384  -29.8764   21.6905 H   0  0  0  0  0  0
  -26.0166  -38.2855   24.1421 H   0  0  0  0  0  0
  -29.0720  -20.1660   22.4287 H   0  0  0  0  0  0
  -29.1543  -17.7846   22.8763 H   0  0  0  0  0  0
  -30.4708  -19.4427   18.4353 H   0  0  0  0  0  0
  -27.9860  -22.0762   20.5461 H   0  0  0  0  0  0
  -30.9272  -24.7696   20.9749 H   0  0  0  0  0  0
  -30.4601  -25.3085   19.3759 H   0  0  0  0  0  0
  -31.2451  -23.3584   18.2993 H   0  0  0  0  0  0
  -32.4790  -23.6905   19.4892 H   0  0  0  0  0  0
  -29.0432  -15.5275   23.1665 H   0  0  0  0  0  0
  -30.7111  -16.0955   23.2970 H   0  0  0  0  0  0
  -30.3851  -14.4034   23.0340 H   0  0  0  0  0  0
  -27.6777  -24.9219   21.4883 H   0  0  0  0  0  0
  -27.1722  -24.5960   19.8612 H   0  0  0  0  0  0
  1 25  1  0  0  0
  1 30  2  0  0  0
  1 85  1  0  0  0
  2  3  1  0  0  0
  2 25  1  0  0  0
  2 88  1  0  0  0
  2 89  1  0  0  0
  3  4  1  0  0  0
  3 90  1  0  0  0
  3 91  1  0  0  0
  4  5  1  0  0  0
  4 92  1  0  0  0
  4 93  1  0  0  0
  5  6  1  0  0  0
  5 26  1  0  0  0
  5 94  1  0  0  0
  6 25  1  0  0  0
  6 95  1  0  0  0
  6 96  1  0  0  0
  7  8  2  0  0  0
  7 26  1  0  0  0
  7 29  1  0  0  0
  8  9  1  0  0  0
  8 22  1  0  0  0
  9 10  1  0  0  0
  9 27  2  0  0  0
 10 11  2  0  0  0
 10 15  1  0  0  0
 11 12  1  0  0  0
 11 97  1  0  0  0
 12 13  2  0  0  0
 12 98  1  0  0  0
 13 14  1  0  0  0
 13 31  1  0  0  0
 14 15  2  0  0  0
 14 99  1  0  0  0
 15100  1  0  0  0
 16 17  2  0  0  0
 16 21  1  0  0  0
 16 31  1  0  0  0
 17 18  1  0  0  0
 17101  1  0  0  0
 18 19  2  0  0  0
 18102  1  0  0  0
 19 20  1  0  0  0
 19 24  1  0  0  0
 20 21  2  0  0  0
 20103  1  0  0  0
 21 23  1  0  0  0
 22 28  1  0  0  0
 22 32  2  0  0  0
 26 27  1  0  0  0
 28104  1  0  0  0
 28105  1  0  0  0
 29106  1  0  0  0
 29107  1  0  0  0
 33 34  1  0  0  0
 33 66  1  0  0  0
 33 70  2  0  0  0
 34 36  1  0  0  0
 34 59  1  0  0  0
 34108  1  0  0  0
 35 44  2  0  0  0
 35 45  1  0  0  0
 35 68  1  0  0  0
 36 56  1  0  0  0
 36109  1  0  0  0
 37 39  1  0  0  0
 37 47  1  0  0  0
 37 66  1  0  0  0
 37110  1  0  0  0
 38 43  2  0  0  0
 38 46  1  0  0  0
 38 47  1  0  0  0
 39 64  1  0  0  0
 39 67  2  0  0  0
 40 52  1  0  0  0
 40 53  2  0  0  0
 40 58  1  0  0  0
 41111  1  0  0  0
 41112  1  0  0  0
 41113  1  0  0  0
 41 48  1  0  0  0
 42 43  1  0  0  0
 42 66  1  0  0  0
 42114  1  0  0  0
 42115  1  0  0  0
 43 44  1  0  0  0
 44116  1  0  0  0
 45 46  2  0  0  0
 45117  1  0  0  0
 46118  1  0  0  0
 47119  1  0  0  0
 47120  1  0  0  0
 48 56  1  0  0  0
 48 65  1  0  0  0
 48121  1  0  0  0
 49 50  1  0  0  0
 49 53  1  0  0  0
 49 64  1  0  0  0
 49122  1  0  0  0
 50 51  1  0  0  0
 50123  1  0  0  0
 50124  1  0  0  0
 51 52  1  0  0  0
 51125  1  0  0  0
 51126  1  0  0  0
 52127  1  0  0  0
 52128  1  0  0  0
 53 54  1  0  0  0
 54 55  2  0  0  0
 54129  1  0  0  0
 55 57  1  0  0  0
 55130  1  0  0  0
 56 69  2  0  0  0
 57 58  2  0  0  0
 57131  1  0  0  0
 58132  1  0  0  0
 59 60  1  0  0  0
 59 61  1  0  0  0
 59 62  1  0  0  0
 60133  1  0  0  0
 60134  1  0  0  0
 60135  1  0  0  0
 61136  1  0  0  0
 61137  1  0  0  0
 61138  1  0  0  0
 62139  1  0  0  0
 62140  1  0  0  0
 62141  1  0  0  0
 63 65  1  0  0  0
 63142  1  0  0  0
 63143  1  0  0  0
 63144  1  0  0  0
 64145  1  0  0  0
 65146  1  0  0  0
 68 83  1  0  0  0
 71 72  2  0  0  0
 71 74  1  0  0  0
 71147  1  0  0  0
 72 75  1  0  0  0
 72148  1  0  0  0
 73 74  2  0  0  0
 73 76  1  0  0  0
 73149  1  0  0  0
 74 84  1  0  0  0
 75 76  2  0  0  0
 75 85  1  0  0  0
 76 87  1  0  0  0
 77 78  2  0  0  0
 77 84  1  0  0  0
 77150  1  0  0  0
 78 80  1  0  0  0
 78 83  1  0  0  0
 79 81  1  0  0  0
 79 84  1  0  0  0
 79 86  2  0  0  0
 80 81  1  0  0  0
 80151  1  0  0  0
 80152  1  0  0  0
 81153  1  0  0  0
 81154  1  0  0  0
 82 85  1  0  0  0
 82155  1  0  0  0
 82156  1  0  0  0
 82157  1  0  0  0
 83158  1  0  0  0
 83159  1  0  0  0
M  ISO  4   1 100  68 101  83 101  85 100
M  END
> <chiral flag>
0

> <version>
0

> <s_m_source_file>
/data/baiqing/PycharmProjects/Reinvent-master-3.2/result/LINK_invent/BTK/process_docking_weight1_custom_product_contain_oxygen_bond_distance_aromatic_linkinvent_7_9_3/rearranged_h_0094.sdf

> <i_m_source_file_index>
72

> <r_mmod_Potential_Energy-OPLS-2005>
359.517028808594

> <r_mmod_Stretch_Energy-OPLS-2005>
109.913368225098

> <r_mmod_Bend_Energy-OPLS-2005>
147.740158081055

> <r_mmod_Torsional_Energy-OPLS-2005>
344.896484375

> <r_mmod_Improper_Torsional_Energy-OPLS-2005>
3.61608362197876

> <r_mmod_Van_der_Waal_Energy-OPLS-2005>
174.906463623047

> <r_mmod_Electrostatic_Energy-OPLS-2005>
-271.798278808594

> <r_mmod_Solvation_Energy-OPLS-2005>
-207.404525756836

> <b_mmod_Minimization_Converged-OPLS-2005>
0

> <r_mmod_RMS_Derivative-OPLS-2005>
1.84987187385559

$$$$
72
                    3D
 Structure written by MMmdl.
152160  0  0  1  0            999 V2000
  -30.7142  -14.6511   20.5016 C   0  0  0  0  0  0
  -30.4116  -12.4109   19.4561 C   0  0  0  0  0  0
  -29.4946  -12.4959   18.2213 C   0  0  0  0  0  0
  -28.0237  -12.3316   18.6436 C   0  0  0  0  0  0
  -27.6410  -13.2339   19.8481 C   0  0  2  0  0  0
  -28.6911  -13.1735   20.9797 C   0  0  0  0  0  0
  -25.2514  -13.8205   20.5706 C   0  0  0  0  0  0
  -24.1809  -13.0447   20.9218 C   0  0  0  0  0  0
  -24.6401  -11.6925   20.8757 C   0  0  0  0  0  0
  -23.9081  -10.4298   21.0414 C   0  0  0  0  0  0
  -24.3627   -9.4210   21.9190 C   0  0  0  0  0  0
  -23.6296   -8.2246   22.0757 C   0  0  0  0  0  0
  -22.4281   -8.0287   21.3544 C   0  0  0  0  0  0
  -21.9923   -9.0264   20.4647 C   0  0  0  0  0  0
  -22.7256  -10.2140   20.3060 C   0  0  0  0  0  0
  -21.6853   -6.0741   22.5277 C   0  0  0  0  0  0
  -21.4014   -6.5643   23.8212 C   0  0  0  0  0  0
  -21.3658   -5.6796   24.9173 C   0  0  0  0  0  0
  -21.6044   -4.3057   24.7223 C   0  0  0  0  0  0
  -21.8819   -3.8152   23.4343 C   0  0  0  0  0  0
  -21.9193   -4.6970   22.3399 C   0  0  0  0  0  0
  -22.7829  -13.5227   21.1869 C   0  0  0  0  0  0
  -22.1662   -4.2154   21.0977 F   0  0  0  0  0  0
  -21.5628   -3.4542   25.7736 F   0  0  0  0  0  0
  -29.9945  -13.4868   20.3835 N   0  0  0  0  0  0
  -26.2946  -12.9422   20.3304 N   0  0  0  0  0  0
  -25.9334  -11.6560   20.5775 N   0  0  0  0  0  0
  -22.0469  -12.8211   22.0412 N   0  0  0  0  0  0
  -25.4198  -15.1928   20.4099 N   0  0  0  0  0  0
  -31.9045  -14.6400   20.1776 O   0  0  0  0  0  0
  -21.6642   -6.8888   21.4241 O   0  0  0  0  0  0
  -22.3516  -14.5532   20.6714 O   0  0  0  0  0  0
  -24.6283  -31.8604   23.2053 C   0  0  0  0  0  0
  -25.9131  -32.4781   23.8367 C   0  0  1  0  0  0
  -27.2084  -27.3028   20.1118 C   0  0  0  0  0  0
  -25.5947  -33.8581   24.2291 N   0  0  0  0  0  0
  -23.4202  -30.4882   21.5497 C   0  0  2  0  0  0
  -24.8641  -28.9526   20.1082 C   0  0  0  0  0  0
  -22.7478  -29.4633   22.4947 C   0  0  0  0  0  0
  -18.0282  -28.1388   22.8488 C   0  0  0  0  0  0
  -24.1488  -36.7288   23.2635 C   0  0  0  0  0  0
  -25.9652  -30.7871   21.3793 C   0  0  0  0  0  0
  -26.0370  -29.4154   20.7184 C   0  0  0  0  0  0
  -27.2129  -28.6018   20.7148 C   0  0  0  0  0  0
  -26.0123  -26.9165   19.4568 C   0  0  0  0  0  0
  -24.8554  -27.7094   19.4677 C   0  0  0  0  0  0
  -23.6332  -29.8318   20.1624 C   0  0  0  0  0  0
  -25.4112  -36.3081   24.0327 C   0  0  1  0  0  0
  -20.5884  -28.3692   23.1285 C   0  0  2  0  0  0
  -20.6776  -26.9416   22.5405 C   0  0  0  0  0  0
  -19.5748  -26.6387   21.5210 C   0  0  0  0  0  0
  -18.1927  -26.7933   22.1621 C   0  0  0  0  0  0
  -19.1535  -28.8857   23.2880 C   0  0  0  0  0  0
  -18.9458  -30.1461   23.8895 C   0  0  0  0  0  0
  -17.6459  -30.6591   24.0561 C   0  0  0  0  0  0
  -25.9054  -34.9452   23.5104 C   0  0  0  0  0  0
  -16.5350  -29.9087   23.6338 C   0  0  0  0  0  0
  -16.7269  -28.6504   23.0360 C   0  0  0  0  0  0
  -26.4515  -31.6587   25.0734 C   0  0  0  0  0  0
  -25.3743  -31.3709   26.1452 C   0  0  0  0  0  0
  -27.0367  -30.3017   24.6185 C   0  0  0  0  0  0
  -27.6072  -32.4321   25.7506 C   0  0  0  0  0  0
  -27.5580  -37.1795   24.8460 C   0  0  0  0  0  0
  -21.4189  -29.3049   22.3687 N   0  0  0  0  0  0
  -26.4284  -37.3781   23.9416 N   0  0  0  0  0  0
  -24.6905  -31.0612   22.1015 N   0  0  0  0  0  0
  -23.4199  -28.8156   23.3013 O   0  0  0  0  0  0
  -28.2907  -26.4001   20.1841 O   0  0  0  0  0  0
  -26.5611  -34.8918   22.4663 O   0  0  0  0  0  0
  -23.5447  -32.1407   23.7380 O   0  0  0  0  0  0
  -30.9119  -19.5777   20.6341 C   0  0  0  0  0  0
  -30.4384  -20.9156   20.5055 C   0  0  0  0  0  0
  -28.6667  -18.7416   20.8252 C   0  0  0  0  0  0
  -30.0539  -18.4467   20.7953 C   0  0  0  0  0  0
  -29.0547  -21.2072   20.5316 C   0  0  0  0  0  0
  -28.1858  -20.0856   20.6992 C   0  0  0  0  0  0
  -30.6802  -17.0480   21.0287 C   0  0  0  0  0  0
  -28.9592  -23.8224   20.3598 C   0  0  0  0  0  0
  -27.9494  -24.9671   19.9492 C   0  0  0  0  0  0
  -26.8108  -20.3108   20.7607 N   0  0  0  0  0  0
  -28.4730  -22.5365   20.3312 N   0  0  0  0  0  0
  -30.0624  -15.8482   20.7382 N   0  0  0  0  0  0
  -31.8309  -17.0718   21.4844 O   0  0  0  0  0  0
  -30.1178  -24.0989   20.6824 O   0  0  0  0  0  0
  -31.4556  -12.4883   19.1473 H   0  0  0  0  0  0
  -30.3200  -11.4362   19.9386 H   0  0  0  0  0  0
  -29.7637  -11.7279   17.4946 H   0  0  0  0  0  0
  -29.6328  -13.4553   17.7204 H   0  0  0  0  0  0
  -27.8764  -11.2837   18.9075 H   0  0  0  0  0  0
  -27.3626  -12.5269   17.7986 H   0  0  0  0  0  0
  -27.6355  -14.2551   19.4666 H   0  0  0  0  0  0
  -28.7114  -12.1848   21.4402 H   0  0  0  0  0  0
  -28.4441  -13.8788   21.7747 H   0  0  0  0  0  0
  -25.2769   -9.5681   22.4772 H   0  0  0  0  0  0
  -24.0002   -7.4638   22.7480 H   0  0  0  0  0  0
  -21.0856   -8.8789   19.8950 H   0  0  0  0  0  0
  -22.3722  -10.9683   19.6171 H   0  0  0  0  0  0
  -21.2005   -7.6151   23.9715 H   0  0  0  0  0  0
  -21.1481   -6.0526   25.9075 H   0  0  0  0  0  0
  -22.0599   -2.7615   23.2841 H   0  0  0  0  0  0
  -22.4082  -11.9866   22.4790 H   0  0  0  0  0  0
  -21.1083  -13.1233   22.2608 H   0  0  0  0  0  0
  -24.6484  -15.8437   20.5107 H   0  0  0  0  0  0
  -26.2586  -15.6284   20.0494 H   0  0  0  0  0  0
  -26.7196  -32.5447   23.1111 H   0  0  0  0  0  0
  -25.0109  -33.9727   25.0449 H   0  0  0  0  0  0
  -22.7141  -31.3097   21.4114 H   0  0  0  0  0  0
  -23.3757  -35.9611   23.3279 H   0  0  0  0  0  0
  -24.3584  -36.8930   22.2053 H   0  0  0  0  0  0
  -23.7233  -37.6481   23.6670 H   0  0  0  0  0  0
  -26.0972  -31.5512   20.6117 H   0  0  0  0  0  0
  -26.8462  -30.8354   22.0074 H   0  0  0  0  0  0
  -28.1074  -28.9480   21.2138 H   0  0  0  0  0  0
  -25.9197  -25.9770   18.9347 H   0  0  0  0  0  0
  -23.9602  -27.3534   18.9768 H   0  0  0  0  0  0
  -23.7496  -30.6116   19.4091 H   0  0  0  0  0  0
  -22.7527  -29.2619   19.8596 H   0  0  0  0  0  0
  -25.1292  -36.1924   25.0818 H   0  0  0  0  0  0
  -20.9969  -28.3258   24.1409 H   0  0  0  0  0  0
  -20.5690  -26.2293   23.3599 H   0  0  0  0  0  0
  -21.6646  -26.7457   22.1190 H   0  0  0  0  0  0
  -19.6912  -25.6297   21.1240 H   0  0  0  0  0  0
  -19.6689  -27.3197   20.6740 H   0  0  0  0  0  0
  -17.4198  -26.6684   21.4021 H   0  0  0  0  0  0
  -18.0327  -26.0070   22.9014 H   0  0  0  0  0  0
  -19.7932  -30.7280   24.2263 H   0  0  0  0  0  0
  -17.5011  -31.6276   24.5156 H   0  0  0  0  0  0
  -15.5352  -30.2988   23.7670 H   0  0  0  0  0  0
  -15.8664  -28.0821   22.7090 H   0  0  0  0  0  0
  -24.5939  -30.7035   25.7774 H   0  0  0  0  0  0
  -24.8906  -32.2862   26.4870 H   0  0  0  0  0  0
  -25.8071  -30.8896   27.0229 H   0  0  0  0  0  0
  -26.2948  -29.6753   24.1217 H   0  0  0  0  0  0
  -27.4087  -29.7285   25.4687 H   0  0  0  0  0  0
  -27.8805  -30.4315   23.9401 H   0  0  0  0  0  0
  -27.2699  -33.3638   26.2055 H   0  0  0  0  0  0
  -28.3904  -32.6845   25.0345 H   0  0  0  0  0  0
  -28.0709  -31.8452   26.5445 H   0  0  0  0  0  0
  -28.2573  -38.0118   24.7552 H   0  0  0  0  0  0
  -28.1106  -36.2654   24.6233 H   0  0  0  0  0  0
  -27.2301  -37.1377   25.8861 H   0  0  0  0  0  0
  -20.9363  -29.8782   21.6910 H   0  0  0  0  0  0
  -26.0159  -38.2846   24.1444 H   0  0  0  0  0  0
  -31.9827  -19.4263   20.6157 H   0  0  0  0  0  0
  -31.1562  -21.7129   20.3747 H   0  0  0  0  0  0
  -27.9677  -17.9303   20.9697 H   0  0  0  0  0  0
  -27.0230  -24.7285   20.4750 H   0  0  0  0  0  0
  -27.7672  -24.8304   18.8825 H   0  0  0  0  0  0
  -26.2478  -19.5366   21.0966 H   0  0  0  0  0  0
  -26.5211  -21.1767   21.2007 H   0  0  0  0  0  0
  -27.4907  -22.4852   20.0995 H   0  0  0  0  0  0
  -29.0631  -15.8588   20.6316 H   0  0  0  0  0  0
  1 25  1  0  0  0
  1 30  2  0  0  0
  1 82  1  0  0  0
  2  3  1  0  0  0
  2 25  1  0  0  0
  2 85  1  0  0  0
  2 86  1  0  0  0
  3  4  1  0  0  0
  3 87  1  0  0  0
  3 88  1  0  0  0
  4  5  1  0  0  0
  4 89  1  0  0  0
  4 90  1  0  0  0
  5  6  1  0  0  0
  5 26  1  0  0  0
  5 91  1  0  0  0
  6 25  1  0  0  0
  6 92  1  0  0  0
  6 93  1  0  0  0
  7  8  2  0  0  0
  7 26  1  0  0  0
  7 29  1  0  0  0
  8  9  1  0  0  0
  8 22  1  0  0  0
  9 10  1  0  0  0
  9 27  2  0  0  0
 10 11  2  0  0  0
 10 15  1  0  0  0
 11 12  1  0  0  0
 11 94  1  0  0  0
 12 13  2  0  0  0
 12 95  1  0  0  0
 13 14  1  0  0  0
 13 31  1  0  0  0
 14 15  2  0  0  0
 14 96  1  0  0  0
 15 97  1  0  0  0
 16 17  2  0  0  0
 16 21  1  0  0  0
 16 31  1  0  0  0
 17 18  1  0  0  0
 17 98  1  0  0  0
 18 19  2  0  0  0
 18 99  1  0  0  0
 19 20  1  0  0  0
 19 24  1  0  0  0
 20 21  2  0  0  0
 20100  1  0  0  0
 21 23  1  0  0  0
 22 28  1  0  0  0
 22 32  2  0  0  0
 26 27  1  0  0  0
 28101  1  0  0  0
 28102  1  0  0  0
 29103  1  0  0  0
 29104  1  0  0  0
 33 34  1  0  0  0
 33 66  1  0  0  0
 33 70  2  0  0  0
 34 36  1  0  0  0
 34 59  1  0  0  0
 34105  1  0  0  0
 35 44  2  0  0  0
 35 45  1  0  0  0
 35 68  1  0  0  0
 36 56  1  0  0  0
 36106  1  0  0  0
 37 39  1  0  0  0
 37 47  1  0  0  0
 37 66  1  0  0  0
 37107  1  0  0  0
 38 43  2  0  0  0
 38 46  1  0  0  0
 38 47  1  0  0  0
 39 64  1  0  0  0
 39 67  2  0  0  0
 40 52  1  0  0  0
 40 53  2  0  0  0
 40 58  1  0  0  0
 41108  1  0  0  0
 41109  1  0  0  0
 41110  1  0  0  0
 41 48  1  0  0  0
 42 43  1  0  0  0
 42 66  1  0  0  0
 42111  1  0  0  0
 42112  1  0  0  0
 43 44  1  0  0  0
 44113  1  0  0  0
 45 46  2  0  0  0
 45114  1  0  0  0
 46115  1  0  0  0
 47116  1  0  0  0
 47117  1  0  0  0
 48 56  1  0  0  0
 48 65  1  0  0  0
 48118  1  0  0  0
 49 50  1  0  0  0
 49 53  1  0  0  0
 49 64  1  0  0  0
 49119  1  0  0  0
 50 51  1  0  0  0
 50120  1  0  0  0
 50121  1  0  0  0
 51 52  1  0  0  0
 51122  1  0  0  0
 51123  1  0  0  0
 52124  1  0  0  0
 52125  1  0  0  0
 53 54  1  0  0  0
 54 55  2  0  0  0
 54126  1  0  0  0
 55 57  1  0  0  0
 55127  1  0  0  0
 56 69  2  0  0  0
 57 58  2  0  0  0
 57128  1  0  0  0
 58129  1  0  0  0
 59 60  1  0  0  0
 59 61  1  0  0  0
 59 62  1  0  0  0
 60130  1  0  0  0
 60131  1  0  0  0
 60132  1  0  0  0
 61133  1  0  0  0
 61134  1  0  0  0
 61135  1  0  0  0
 62136  1  0  0  0
 62137  1  0  0  0
 62138  1  0  0  0
 63 65  1  0  0  0
 63139  1  0  0  0
 63140  1  0  0  0
 63141  1  0  0  0
 64142  1  0  0  0
 65143  1  0  0  0
 68 79  1  0  0  0
 71 72  2  0  0  0
 71 74  1  0  0  0
 71144  1  0  0  0
 72 75  1  0  0  0
 72145  1  0  0  0
 73 74  2  0  0  0
 73 76  1  0  0  0
 73146  1  0  0  0
 74 77  1  0  0  0
 75 76  2  0  0  0
 75 81  1  0  0  0
 76 80  1  0  0  0
 77 82  1  0  0  0
 77 83  2  0  0  0
 78 79  1  0  0  0
 78 81  1  0  0  0
 78 84  2  0  0  0
 79147  1  0  0  0
 79148  1  0  0  0
 80149  1  0  0  0
 80150  1  0  0  0
 81151  1  0  0  0
 82152  1  0  0  0
M  ISO  4   1 100  68 101  79 101  82 100
M  END
> <chiral flag>
0

> <version>
0

> <s_m_source_file>
/data/baiqing/PycharmProjects/Reinvent-master-3.2/result/LINK_invent/BTK/process_docking_weight1_custom_product_contain_oxygen_bond_distance_aromatic_linkinvent_7_9_3/rearranged_h_0094.sdf

> <i_m_source_file_index>
73

> <r_mmod_Potential_Energy-OPLS-2005>
-94.3634033203125

> <r_mmod_Stretch_Energy-OPLS-2005>
85.0827026367188

> <r_mmod_Bend_Energy-OPLS-2005>
160.320205688477

> <r_mmod_Torsional_Energy-OPLS-2005>
240.028686523438

> <r_mmod_Improper_Torsional_Energy-OPLS-2005>
10.4859418869019

> <r_mmod_Van_der_Waal_Energy-OPLS-2005>
165.871932983398

> <r_mmod_Electrostatic_Energy-OPLS-2005>
-550.525451660156

> <r_mmod_Solvation_Energy-OPLS-2005>
-270.326599121094

> <b_mmod_Minimization_Converged-OPLS-2005>
0

> <r_mmod_RMS_Derivative-OPLS-2005>
0.7093545794487

$$$$
73
                    3D
 Structure written by MMmdl.
152160  0  0  1  0            999 V2000
  -30.7065  -14.6524   20.4693 C   0  0  0  0  0  0
  -30.4061  -12.4009   19.4638 C   0  0  0  0  0  0
  -29.4938  -12.4931   18.2257 C   0  0  0  0  0  0
  -28.0208  -12.3371   18.6435 C   0  0  0  0  0  0
  -27.6392  -13.2375   19.8498 C   0  0  2  0  0  0
  -28.6878  -13.1768   20.9826 C   0  0  0  0  0  0
  -25.2493  -13.8219   20.5722 C   0  0  0  0  0  0
  -24.1785  -13.0447   20.9205 C   0  0  0  0  0  0
  -24.6393  -11.6931   20.8753 C   0  0  0  0  0  0
  -23.9076  -10.4298   21.0405 C   0  0  0  0  0  0
  -24.3625   -9.4213   21.9184 C   0  0  0  0  0  0
  -23.6299   -8.2248   22.0753 C   0  0  0  0  0  0
  -22.4280   -8.0286   21.3545 C   0  0  0  0  0  0
  -21.9917   -9.0258   20.4646 C   0  0  0  0  0  0
  -22.7248  -10.2136   20.3053 C   0  0  0  0  0  0
  -21.6856   -6.0739   22.5279 C   0  0  0  0  0  0
  -21.4015   -6.5644   23.8211 C   0  0  0  0  0  0
  -21.3661   -5.6795   24.9174 C   0  0  0  0  0  0
  -21.6043   -4.3057   24.7223 C   0  0  0  0  0  0
  -21.8820   -3.8148   23.4345 C   0  0  0  0  0  0
  -21.9194   -4.6965   22.3403 C   0  0  0  0  0  0
  -22.7805  -13.5216   21.1864 C   0  0  0  0  0  0
  -22.1662   -4.2152   21.0981 F   0  0  0  0  0  0
  -21.5629   -3.4539   25.7736 F   0  0  0  0  0  0
  -29.9937  -13.4811   20.3886 N   0  0  0  0  0  0
  -26.2934  -12.9445   20.3323 N   0  0  0  0  0  0
  -25.9329  -11.6577   20.5780 N   0  0  0  0  0  0
  -22.0458  -12.8199   22.0419 N   0  0  0  0  0  0
  -25.4169  -15.1946   20.4185 N   0  0  0  0  0  0
  -31.9007  -14.6235   20.1640 O   0  0  0  0  0  0
  -21.6645   -6.8881   21.4240 O   0  0  0  0  0  0
  -22.3479  -14.5523   20.6718 O   0  0  0  0  0  0
  -24.6258  -31.8601   23.2034 C   0  0  0  0  0  0
  -25.9110  -32.4778   23.8358 C   0  0  1  0  0  0
  -27.2129  -27.3221   20.1247 C   0  0  0  0  0  0
  -25.5931  -33.8579   24.2290 N   0  0  0  0  0  0
  -23.4187  -30.4848   21.5456 C   0  0  2  0  0  0
  -24.8653  -28.9425   20.1084 C   0  0  0  0  0  0
  -22.7469  -29.4630   22.4937 C   0  0  0  0  0  0
  -18.0284  -28.1384   22.8491 C   0  0  0  0  0  0
  -24.1490  -36.7290   23.2636 C   0  0  0  0  0  0
  -25.9595  -30.7937   21.3728 C   0  0  0  0  0  0
  -26.0344  -29.4213   20.7158 C   0  0  0  0  0  0
  -27.2160  -28.6221   20.7150 C   0  0  0  0  0  0
  -26.0314  -26.9016   19.4790 C   0  0  0  0  0  0
  -24.8655  -27.6881   19.4790 C   0  0  0  0  0  0
  -23.6327  -29.8213   20.1598 C   0  0  0  0  0  0
  -25.4109  -36.3081   24.0334 C   0  0  1  0  0  0
  -20.5884  -28.3689   23.1284 C   0  0  2  0  0  0
  -20.6776  -26.9414   22.5409 C   0  0  0  0  0  0
  -19.5752  -26.6387   21.5213 C   0  0  0  0  0  0
  -18.1931  -26.7930   22.1625 C   0  0  0  0  0  0
  -19.1537  -28.8853   23.2884 C   0  0  0  0  0  0
  -18.9459  -30.1457   23.8898 C   0  0  0  0  0  0
  -17.6459  -30.6589   24.0565 C   0  0  0  0  0  0
  -25.9050  -34.9452   23.5110 C   0  0  0  0  0  0
  -16.5350  -29.9087   23.6333 C   0  0  0  0  0  0
  -16.7272  -28.6503   23.0355 C   0  0  0  0  0  0
  -26.4500  -31.6579   25.0719 C   0  0  0  0  0  0
  -25.3744  -31.3710   26.1452 C   0  0  0  0  0  0
  -27.0338  -30.3004   24.6161 C   0  0  0  0  0  0
  -27.6065  -32.4308   25.7488 C   0  0  0  0  0  0
  -27.5585  -37.1789   24.8457 C   0  0  0  0  0  0
  -21.4183  -29.3043   22.3677 N   0  0  0  0  0  0
  -26.4281  -37.3782   23.9425 N   0  0  0  0  0  0
  -24.6868  -31.0622   22.0978 N   0  0  0  0  0  0
  -23.4197  -28.8167   23.3010 O   0  0  0  0  0  0
  -28.2938  -26.4347   20.1707 O   0  0  0  0  0  0
  -26.5611  -34.8920   22.4672 O   0  0  0  0  0  0
  -23.5424  -32.1394   23.7370 O   0  0  0  0  0  0
  -30.4824  -19.5218   19.8879 C   0  0  0  0  0  0
  -30.0159  -20.8679   19.8908 C   0  0  0  0  0  0
  -28.2053  -20.1798   21.3054 C   0  0  0  0  0  0
  -29.8615  -18.4555   20.6082 C   0  0  0  0  0  0
  -28.8699  -21.2464   20.6290 C   0  0  0  0  0  0
  -28.6737  -18.8226   21.3164 C   0  0  0  0  0  0
  -30.6298  -17.1072   20.6988 C   0  0  0  0  0  0
  -28.7684  -23.8437   20.2815 C   0  0  0  0  0  0
  -27.9957  -25.1231   20.8020 C   0  0  0  0  0  0
  -27.9452  -17.9028   22.0788 N   0  0  0  0  0  0
  -28.3669  -22.6203   20.7667 N   0  0  0  0  0  0
  -30.0433  -15.8539   20.6552 N   0  0  0  0  0  0
  -31.8577  -17.2431   20.7875 O   0  0  0  0  0  0
  -29.6901  -23.9734   19.4712 O   0  0  0  0  0  0
  -31.4512  -12.4698   19.1581 H   0  0  0  0  0  0
  -30.3053  -11.4277   19.9472 H   0  0  0  0  0  0
  -29.7603  -11.7235   17.5000 H   0  0  0  0  0  0
  -29.6386  -13.4523   17.7255 H   0  0  0  0  0  0
  -27.8657  -11.2891   18.9016 H   0  0  0  0  0  0
  -27.3633  -12.5411   17.7977 H   0  0  0  0  0  0
  -27.6332  -14.2592   19.4695 H   0  0  0  0  0  0
  -28.7023  -12.1904   21.4488 H   0  0  0  0  0  0
  -28.4428  -13.8885   21.7729 H   0  0  0  0  0  0
  -25.2765   -9.5694   22.4764 H   0  0  0  0  0  0
  -24.0009   -7.4639   22.7473 H   0  0  0  0  0  0
  -21.0847   -8.8780   19.8951 H   0  0  0  0  0  0
  -22.3706  -10.9676   19.6165 H   0  0  0  0  0  0
  -21.2005   -7.6153   23.9716 H   0  0  0  0  0  0
  -21.1483   -6.0524   25.9075 H   0  0  0  0  0  0
  -22.0596   -2.7610   23.2844 H   0  0  0  0  0  0
  -22.4083  -11.9858   22.4796 H   0  0  0  0  0  0
  -21.1075  -13.1216   22.2633 H   0  0  0  0  0  0
  -24.6584  -15.8514   20.5645 H   0  0  0  0  0  0
  -26.2865  -15.6508   20.1731 H   0  0  0  0  0  0
  -26.7179  -32.5459   23.1109 H   0  0  0  0  0  0
  -25.0100  -33.9721   25.0450 H   0  0  0  0  0  0
  -22.7127  -31.3057   21.4042 H   0  0  0  0  0  0
  -23.3761  -35.9610   23.3267 H   0  0  0  0  0  0
  -24.3596  -36.8936   22.2057 H   0  0  0  0  0  0
  -23.7225  -37.6477   23.6671 H   0  0  0  0  0  0
  -26.0878  -31.5572   20.6041 H   0  0  0  0  0  0
  -26.8411  -30.8438   22.0001 H   0  0  0  0  0  0
  -28.1112  -28.9791   21.2049 H   0  0  0  0  0  0
  -25.9989  -25.9393   18.9878 H   0  0  0  0  0  0
  -23.9719  -27.3180   18.9954 H   0  0  0  0  0  0
  -23.7497  -30.5988   19.4041 H   0  0  0  0  0  0
  -22.7531  -29.2497   19.8580 H   0  0  0  0  0  0
  -25.1284  -36.1926   25.0824 H   0  0  0  0  0  0
  -20.9980  -28.3262   24.1403 H   0  0  0  0  0  0
  -20.5684  -26.2297   23.3605 H   0  0  0  0  0  0
  -21.6643  -26.7450   22.1195 H   0  0  0  0  0  0
  -19.6913  -25.6298   21.1238 H   0  0  0  0  0  0
  -19.6688  -27.3200   20.6745 H   0  0  0  0  0  0
  -17.4202  -26.6681   21.4026 H   0  0  0  0  0  0
  -18.0330  -26.0069   22.9017 H   0  0  0  0  0  0
  -19.7934  -30.7274   24.2264 H   0  0  0  0  0  0
  -17.5014  -31.6268   24.5163 H   0  0  0  0  0  0
  -15.5351  -30.2989   23.7658 H   0  0  0  0  0  0
  -15.8672  -28.0822   22.7071 H   0  0  0  0  0  0
  -24.5918  -30.7057   25.7784 H   0  0  0  0  0  0
  -24.8935  -32.2872   26.4890 H   0  0  0  0  0  0
  -25.8077  -30.8882   27.0219 H   0  0  0  0  0  0
  -26.2901  -29.6754   24.1202 H   0  0  0  0  0  0
  -27.4056  -29.7261   25.4656 H   0  0  0  0  0  0
  -27.8765  -30.4288   23.9364 H   0  0  0  0  0  0
  -27.2684  -33.3619   26.2048 H   0  0  0  0  0  0
  -28.3886  -32.6844   25.0319 H   0  0  0  0  0  0
  -28.0719  -31.8439   26.5416 H   0  0  0  0  0  0
  -28.2560  -38.0130   24.7564 H   0  0  0  0  0  0
  -28.1122  -36.2664   24.6195 H   0  0  0  0  0  0
  -27.2318  -37.1330   25.8861 H   0  0  0  0  0  0
  -20.9356  -29.8764   21.6889 H   0  0  0  0  0  0
  -26.0157  -38.2846   24.1464 H   0  0  0  0  0  0
  -31.3917  -19.3146   19.3407 H   0  0  0  0  0  0
  -30.5786  -21.6090   19.3414 H   0  0  0  0  0  0
  -27.3181  -20.4214   21.8736 H   0  0  0  0  0  0
  -28.2334  -25.2264   21.8611 H   0  0  0  0  0  0
  -26.9330  -24.8829   20.7737 H   0  0  0  0  0  0
  -27.2075  -18.2743   22.6698 H   0  0  0  0  0  0
  -28.4442  -17.1572   22.5518 H   0  0  0  0  0  0
  -27.5729  -22.7022   21.3876 H   0  0  0  0  0  0
  -29.0382  -15.8319   20.6977 H   0  0  0  0  0  0
  1 25  1  0  0  0
  1 30  2  0  0  0
  1 82  1  0  0  0
  2  3  1  0  0  0
  2 25  1  0  0  0
  2 85  1  0  0  0
  2 86  1  0  0  0
  3  4  1  0  0  0
  3 87  1  0  0  0
  3 88  1  0  0  0
  4  5  1  0  0  0
  4 89  1  0  0  0
  4 90  1  0  0  0
  5  6  1  0  0  0
  5 26  1  0  0  0
  5 91  1  0  0  0
  6 25  1  0  0  0
  6 92  1  0  0  0
  6 93  1  0  0  0
  7  8  2  0  0  0
  7 26  1  0  0  0
  7 29  1  0  0  0
  8  9  1  0  0  0
  8 22  1  0  0  0
  9 10  1  0  0  0
  9 27  2  0  0  0
 10 11  2  0  0  0
 10 15  1  0  0  0
 11 12  1  0  0  0
 11 94  1  0  0  0
 12 13  2  0  0  0
 12 95  1  0  0  0
 13 14  1  0  0  0
 13 31  1  0  0  0
 14 15  2  0  0  0
 14 96  1  0  0  0
 15 97  1  0  0  0
 16 17  2  0  0  0
 16 21  1  0  0  0
 16 31  1  0  0  0
 17 18  1  0  0  0
 17 98  1  0  0  0
 18 19  2  0  0  0
 18 99  1  0  0  0
 19 20  1  0  0  0
 19 24  1  0  0  0
 20 21  2  0  0  0
 20100  1  0  0  0
 21 23  1  0  0  0
 22 28  1  0  0  0
 22 32  2  0  0  0
 26 27  1  0  0  0
 28101  1  0  0  0
 28102  1  0  0  0
 29103  1  0  0  0
 29104  1  0  0  0
 33 34  1  0  0  0
 33 66  1  0  0  0
 33 70  2  0  0  0
 34 36  1  0  0  0
 34 59  1  0  0  0
 34105  1  0  0  0
 35 44  2  0  0  0
 35 45  1  0  0  0
 35 68  1  0  0  0
 36 56  1  0  0  0
 36106  1  0  0  0
 37 39  1  0  0  0
 37 47  1  0  0  0
 37 66  1  0  0  0
 37107  1  0  0  0
 38 43  2  0  0  0
 38 46  1  0  0  0
 38 47  1  0  0  0
 39 64  1  0  0  0
 39 67  2  0  0  0
 40 52  1  0  0  0
 40 53  2  0  0  0
 40 58  1  0  0  0
 41108  1  0  0  0
 41109  1  0  0  0
 41110  1  0  0  0
 41 48  1  0  0  0
 42 43  1  0  0  0
 42 66  1  0  0  0
 42111  1  0  0  0
 42112  1  0  0  0
 43 44  1  0  0  0
 44113  1  0  0  0
 45 46  2  0  0  0
 45114  1  0  0  0
 46115  1  0  0  0
 47116  1  0  0  0
 47117  1  0  0  0
 48 56  1  0  0  0
 48 65  1  0  0  0
 48118  1  0  0  0
 49 50  1  0  0  0
 49 53  1  0  0  0
 49 64  1  0  0  0
 49119  1  0  0  0
 50 51  1  0  0  0
 50120  1  0  0  0
 50121  1  0  0  0
 51 52  1  0  0  0
 51122  1  0  0  0
 51123  1  0  0  0
 52124  1  0  0  0
 52125  1  0  0  0
 53 54  1  0  0  0
 54 55  2  0  0  0
 54126  1  0  0  0
 55 57  1  0  0  0
 55127  1  0  0  0
 56 69  2  0  0  0
 57 58  2  0  0  0
 57128  1  0  0  0
 58129  1  0  0  0
 59 60  1  0  0  0
 59 61  1  0  0  0
 59 62  1  0  0  0
 60130  1  0  0  0
 60131  1  0  0  0
 60132  1  0  0  0
 61133  1  0  0  0
 61134  1  0  0  0
 61135  1  0  0  0
 62136  1  0  0  0
 62137  1  0  0  0
 62138  1  0  0  0
 63 65  1  0  0  0
 63139  1  0  0  0
 63140  1  0  0  0
 63141  1  0  0  0
 64142  1  0  0  0
 65143  1  0  0  0
 68 79  1  0  0  0
 71 72  2  0  0  0
 71 74  1  0  0  0
 71144  1  0  0  0
 72 75  1  0  0  0
 72145  1  0  0  0
 73 75  2  0  0  0
 73 76  1  0  0  0
 73146  1  0  0  0
 74 76  2  0  0  0
 74 77  1  0  0  0
 75 81  1  0  0  0
 76 80  1  0  0  0
 77 82  1  0  0  0
 77 83  2  0  0  0
 78 79  1  0  0  0
 78 81  1  0  0  0
 78 84  2  0  0  0
 79147  1  0  0  0
 79148  1  0  0  0
 80149  1  0  0  0
 80150  1  0  0  0
 81151  1  0  0  0
 82152  1  0  0  0
M  ISO  4   1 100  68 101  79 101  82 100
M  END
> <chiral flag>
0

> <version>
0

> <s_m_source_file>
/data/baiqing/PycharmProjects/Reinvent-master-3.2/result/LINK_invent/BTK/process_docking_weight1_custom_product_contain_oxygen_bond_distance_aromatic_linkinvent_7_9_3/rearranged_h_0094.sdf

> <i_m_source_file_index>
74

> <r_mmod_Potential_Energy-OPLS-2005>
141.702117919922

> <r_mmod_Stretch_Energy-OPLS-2005>
85.5915908813477

> <r_mmod_Bend_Energy-OPLS-2005>
161.294494628906

> <r_mmod_Torsional_Energy-OPLS-2005>
252.531646728516

> <r_mmod_Improper_Torsional_Energy-OPLS-2005>
9.89860153198242

> <r_mmod_Van_der_Waal_Energy-OPLS-2005>
156.295196533203

> <r_mmod_Electrostatic_Energy-OPLS-2005>
-321.044586181641

> <r_mmod_Solvation_Energy-OPLS-2005>
-263.200653076172

> <b_mmod_Minimization_Converged-OPLS-2005>
0

> <r_mmod_RMS_Derivative-OPLS-2005>
0.502435922622681

$$$$
74
                    3D
 Structure written by MMmdl.
155163  0  0  1  0            999 V2000
  -30.7052  -14.4716   20.5887 C   0  0  0  0  0  0
  -30.4229  -12.3093   19.4304 C   0  0  0  0  0  0
  -29.4981  -12.5138   18.2116 C   0  0  0  0  0  0
  -28.0168  -12.3747   18.6162 C   0  0  0  0  0  0
  -27.6633  -13.2065   19.8779 C   0  0  2  0  0  0
  -28.7003  -12.9681   20.9966 C   0  0  0  0  0  0
  -25.2592  -13.8162   20.5675 C   0  0  0  0  0  0
  -24.1837  -13.0439   20.9160 C   0  0  0  0  0  0
  -24.6389  -11.6906   20.8719 C   0  0  0  0  0  0
  -23.9055  -10.4293   21.0397 C   0  0  0  0  0  0
  -24.3609   -9.4212   21.9178 C   0  0  0  0  0  0
  -23.6287   -8.2246   22.0752 C   0  0  0  0  0  0
  -22.4270   -8.0280   21.3542 C   0  0  0  0  0  0
  -21.9902   -9.0252   20.4643 C   0  0  0  0  0  0
  -22.7228  -10.2132   20.3049 C   0  0  0  0  0  0
  -21.6852   -6.0733   22.5277 C   0  0  0  0  0  0
  -21.4014   -6.5638   23.8210 C   0  0  0  0  0  0
  -21.3658   -5.6791   24.9172 C   0  0  0  0  0  0
  -21.6044   -4.3053   24.7224 C   0  0  0  0  0  0
  -21.8820   -3.8145   23.4344 C   0  0  0  0  0  0
  -21.9194   -4.6962   22.3400 C   0  0  0  0  0  0
  -22.7861  -13.5239   21.1834 C   0  0  0  0  0  0
  -22.1662   -4.2148   21.0977 F   0  0  0  0  0  0
  -21.5629   -3.4538   25.7737 F   0  0  0  0  0  0
  -30.0347  -13.2892   20.4606 N   0  0  0  0  0  0
  -26.3028  -12.9330   20.3363 N   0  0  0  0  0  0
  -25.9315  -11.6487   20.5747 N   0  0  0  0  0  0
  -22.0502  -12.8232   22.0392 N   0  0  0  0  0  0
  -25.4336  -15.1878   20.4106 N   0  0  0  0  0  0
  -31.8088  -14.6493   20.0632 O   0  0  0  0  0  0
  -21.6637   -6.8876   21.4238 O   0  0  0  0  0  0
  -22.3546  -14.5549   20.6691 O   0  0  0  0  0  0
  -24.6143  -31.8678   23.2094 C   0  0  0  0  0  0
  -25.9035  -32.4823   23.8396 C   0  0  1  0  0  0
  -27.2361  -27.4388   20.1000 C   0  0  0  0  0  0
  -25.5892  -33.8621   24.2329 N   0  0  0  0  0  0
  -23.4030  -30.4896   21.5497 C   0  0  2  0  0  0
  -24.8519  -28.9543   20.1152 C   0  0  0  0  0  0
  -22.7409  -29.4654   22.4991 C   0  0  0  0  0  0
  -18.0270  -28.1374   22.8492 C   0  0  0  0  0  0
  -24.1484  -36.7314   23.2640 C   0  0  0  0  0  0
  -25.9310  -30.8355   21.3611 C   0  0  0  0  0  0
  -26.0116  -29.4694   20.7097 C   0  0  0  0  0  0
  -27.2105  -28.7197   20.6970 C   0  0  0  0  0  0
  -26.0636  -26.9346   19.5013 C   0  0  0  0  0  0
  -24.8724  -27.6859   19.5076 C   0  0  0  0  0  0
  -23.6122  -29.8195   20.1651 C   0  0  0  0  0  0
  -25.4106  -36.3113   24.0341 C   0  0  1  0  0  0
  -20.5860  -28.3660   23.1319 C   0  0  2  0  0  0
  -20.6759  -26.9395   22.5420 C   0  0  0  0  0  0
  -19.5742  -26.6384   21.5210 C   0  0  0  0  0  0
  -18.1917  -26.7923   22.1617 C   0  0  0  0  0  0
  -19.1520  -28.8834   23.2903 C   0  0  0  0  0  0
  -18.9450  -30.1440   23.8914 C   0  0  0  0  0  0
  -17.6453  -30.6581   24.0566 C   0  0  0  0  0  0
  -25.9032  -34.9477   23.5133 C   0  0  0  0  0  0
  -16.5343  -29.9085   23.6327 C   0  0  0  0  0  0
  -16.7260  -28.6501   23.0349 C   0  0  0  0  0  0
  -26.4466  -31.6597   25.0720 C   0  0  0  0  0  0
  -25.3739  -31.3703   26.1475 C   0  0  0  0  0  0
  -27.0288  -30.3040   24.6084 C   0  0  0  0  0  0
  -27.6050  -32.4309   25.7477 C   0  0  0  0  0  0
  -27.5580  -37.1814   24.8467 C   0  0  0  0  0  0
  -21.4137  -29.3029   22.3728 N   0  0  0  0  0  0
  -26.4295  -37.3795   23.9408 N   0  0  0  0  0  0
  -24.6677  -31.0781   22.0990 N   0  0  0  0  0  0
  -23.4180  -28.8199   23.3036 O   0  0  0  0  0  0
  -28.3794  -26.6744   20.0994 O   0  0  0  0  0  0
  -26.5598  -34.8928   22.4697 O   0  0  0  0  0  0
  -23.5335  -32.1425   23.7490 O   0  0  0  0  0  0
  -28.8504  -17.9876   22.7238 C   0  0  0  0  0  0
  -28.3413  -20.3744   22.6183 C   0  0  0  0  0  0
  -29.5033  -18.0483   21.4715 C   0  0  0  0  0  0
  -28.2795  -19.1403   23.2965 C   0  0  0  0  0  0
  -28.9783  -20.4748   21.3586 C   0  0  0  0  0  0
  -29.5559  -19.3021   20.7984 C   0  0  0  0  0  0
  -30.1093  -16.8328   20.8607 C   0  0  0  0  0  0
  -30.0104  -15.5503   21.2962 C   0  0  0  0  0  0
  -28.7502  -24.2254   20.3849 C   0  0  0  0  0  0
  -28.6296  -22.9707   21.2790 C   0  0  0  0  0  0
  -28.3183  -25.5664   21.0178 C   0  0  0  0  0  0
  -27.6506  -19.0565   24.5390 N   0  0  0  0  0  0
  -29.0458  -21.7017   20.6549 N   0  0  0  0  0  0
  -29.1773  -24.1474   19.2263 O   0  0  0  0  0  0
  -30.1700  -19.3903   19.5916 F   0  0  0  0  0  0
  -31.4683  -12.4020   19.1316 H   0  0  0  0  0  0
  -30.3215  -11.2957   19.8212 H   0  0  0  0  0  0
  -29.7406  -11.7932   17.4294 H   0  0  0  0  0  0
  -29.6700  -13.5018   17.7817 H   0  0  0  0  0  0
  -27.8224  -11.3179   18.8032 H   0  0  0  0  0  0
  -27.3705  -12.6590   17.7850 H   0  0  0  0  0  0
  -27.7147  -14.2581   19.5947 H   0  0  0  0  0  0
  -28.6789  -11.9227   21.3076 H   0  0  0  0  0  0
  -28.4377  -13.5260   21.8929 H   0  0  0  0  0  0
  -25.2756   -9.5689   22.4748 H   0  0  0  0  0  0
  -23.9998   -7.4640   22.7474 H   0  0  0  0  0  0
  -21.0833   -8.8766   19.8950 H   0  0  0  0  0  0
  -22.3686  -10.9667   19.6153 H   0  0  0  0  0  0
  -21.2005   -7.6145   23.9713 H   0  0  0  0  0  0
  -21.1477   -6.0520   25.9075 H   0  0  0  0  0  0
  -22.0601   -2.7608   23.2845 H   0  0  0  0  0  0
  -22.4112  -11.9886   22.4768 H   0  0  0  0  0  0
  -21.1124  -13.1264   22.2605 H   0  0  0  0  0  0
  -24.6747  -15.8498   20.5300 H   0  0  0  0  0  0
  -26.3014  -15.6261   20.1275 H   0  0  0  0  0  0
  -26.7111  -32.5542   23.1167 H   0  0  0  0  0  0
  -25.0046  -33.9786   25.0476 H   0  0  0  0  0  0
  -22.6913  -31.3058   21.4092 H   0  0  0  0  0  0
  -23.3740  -35.9655   23.3325 H   0  0  0  0  0  0
  -24.3575  -36.8903   22.2050 H   0  0  0  0  0  0
  -23.7243  -37.6529   23.6638 H   0  0  0  0  0  0
  -26.0401  -31.6009   20.5914 H   0  0  0  0  0  0
  -26.8198  -30.8920   21.9777 H   0  0  0  0  0  0
  -28.1075  -29.1125   21.1554 H   0  0  0  0  0  0
  -26.0724  -25.9597   19.0341 H   0  0  0  0  0  0
  -23.9811  -27.2830   19.0465 H   0  0  0  0  0  0
  -23.7186  -30.5935   19.4041 H   0  0  0  0  0  0
  -22.7371  -29.2375   19.8704 H   0  0  0  0  0  0
  -25.1284  -36.1985   25.0835 H   0  0  0  0  0  0
  -20.9953  -28.3224   24.1439 H   0  0  0  0  0  0
  -20.5655  -26.2267   23.3606 H   0  0  0  0  0  0
  -21.6632  -26.7433   22.1218 H   0  0  0  0  0  0
  -19.6903  -25.6298   21.1229 H   0  0  0  0  0  0
  -19.6687  -27.3204   20.6748 H   0  0  0  0  0  0
  -17.4191  -26.6680   21.4013 H   0  0  0  0  0  0
  -18.0312  -26.0056   22.9004 H   0  0  0  0  0  0
  -19.7928  -30.7250   24.2292 H   0  0  0  0  0  0
  -17.5009  -31.6264   24.5163 H   0  0  0  0  0  0
  -15.5345  -30.2994   23.7642 H   0  0  0  0  0  0
  -15.8658  -28.0827   22.7057 H   0  0  0  0  0  0
  -24.5899  -30.7065   25.7813 H   0  0  0  0  0  0
  -24.8947  -32.2861   26.4948 H   0  0  0  0  0  0
  -25.8096  -30.8851   27.0218 H   0  0  0  0  0  0
  -26.2822  -29.6807   24.1148 H   0  0  0  0  0  0
  -27.4072  -29.7271   25.4532 H   0  0  0  0  0  0
  -27.8653  -30.4360   23.9216 H   0  0  0  0  0  0
  -27.2683  -33.3607   26.2074 H   0  0  0  0  0  0
  -28.3848  -32.6870   25.0291 H   0  0  0  0  0  0
  -28.0729  -31.8417   26.5373 H   0  0  0  0  0  0
  -28.2613  -38.0096   24.7498 H   0  0  0  0  0  0
  -28.1060  -36.2628   24.6311 H   0  0  0  0  0  0
  -27.2299  -37.1490   25.8870 H   0  0  0  0  0  0
  -20.9297  -29.8754   21.6954 H   0  0  0  0  0  0
  -26.0187  -38.2877   24.1401 H   0  0  0  0  0  0
  -28.7916  -17.0540   23.2623 H   0  0  0  0  0  0
  -27.8900  -21.2409   23.0776 H   0  0  0  0  0  0
  -30.6986  -17.0200   19.9724 H   0  0  0  0  0  0
  -29.4363  -15.3261   22.1787 H   0  0  0  0  0  0
  -27.5871  -22.8961   21.5907 H   0  0  0  0  0  0
  -29.2200  -23.1413   22.1804 H   0  0  0  0  0  0
  -28.9775  -25.7785   21.8597 H   0  0  0  0  0  0
  -27.3159  -25.4432   21.4306 H   0  0  0  0  0  0
  -27.8222  -18.2494   25.1316 H   0  0  0  0  0  0
  -27.4695  -19.9057   25.0663 H   0  0  0  0  0  0
  -29.5967  -21.7542   19.8007 H   0  0  0  0  0  0
  1 25  1  0  0  0
  1 30  2  0  0  0
  1 78  1  0  0  0
  2  3  1  0  0  0
  2 25  1  0  0  0
  2 86  1  0  0  0
  2 87  1  0  0  0
  3  4  1  0  0  0
  3 88  1  0  0  0
  3 89  1  0  0  0
  4  5  1  0  0  0
  4 90  1  0  0  0
  4 91  1  0  0  0
  5  6  1  0  0  0
  5 26  1  0  0  0
  5 92  1  0  0  0
  6 25  1  0  0  0
  6 93  1  0  0  0
  6 94  1  0  0  0
  7  8  2  0  0  0
  7 26  1  0  0  0
  7 29  1  0  0  0
  8  9  1  0  0  0
  8 22  1  0  0  0
  9 10  1  0  0  0
  9 27  2  0  0  0
 10 11  2  0  0  0
 10 15  1  0  0  0
 11 12  1  0  0  0
 11 95  1  0  0  0
 12 13  2  0  0  0
 12 96  1  0  0  0
 13 14  1  0  0  0
 13 31  1  0  0  0
 14 15  2  0  0  0
 14 97  1  0  0  0
 15 98  1  0  0  0
 16 17  2  0  0  0
 16 21  1  0  0  0
 16 31  1  0  0  0
 17 18  1  0  0  0
 17 99  1  0  0  0
 18 19  2  0  0  0
 18100  1  0  0  0
 19 20  1  0  0  0
 19 24  1  0  0  0
 20 21  2  0  0  0
 20101  1  0  0  0
 21 23  1  0  0  0
 22 28  1  0  0  0
 22 32  2  0  0  0
 26 27  1  0  0  0
 28102  1  0  0  0
 28103  1  0  0  0
 29104  1  0  0  0
 29105  1  0  0  0
 33 34  1  0  0  0
 33 66  1  0  0  0
 33 70  2  0  0  0
 34 36  1  0  0  0
 34 59  1  0  0  0
 34106  1  0  0  0
 35 44  2  0  0  0
 35 45  1  0  0  0
 35 68  1  0  0  0
 36 56  1  0  0  0
 36107  1  0  0  0
 37 39  1  0  0  0
 37 47  1  0  0  0
 37 66  1  0  0  0
 37108  1  0  0  0
 38 43  2  0  0  0
 38 46  1  0  0  0
 38 47  1  0  0  0
 39 64  1  0  0  0
 39 67  2  0  0  0
 40 52  1  0  0  0
 40 53  2  0  0  0
 40 58  1  0  0  0
 41109  1  0  0  0
 41110  1  0  0  0
 41111  1  0  0  0
 41 48  1  0  0  0
 42 43  1  0  0  0
 42 66  1  0  0  0
 42112  1  0  0  0
 42113  1  0  0  0
 43 44  1  0  0  0
 44114  1  0  0  0
 45 46  2  0  0  0
 45115  1  0  0  0
 46116  1  0  0  0
 47117  1  0  0  0
 47118  1  0  0  0
 48 56  1  0  0  0
 48 65  1  0  0  0
 48119  1  0  0  0
 49 50  1  0  0  0
 49 53  1  0  0  0
 49 64  1  0  0  0
 49120  1  0  0  0
 50 51  1  0  0  0
 50121  1  0  0  0
 50122  1  0  0  0
 51 52  1  0  0  0
 51123  1  0  0  0
 51124  1  0  0  0
 52125  1  0  0  0
 52126  1  0  0  0
 53 54  1  0  0  0
 54 55  2  0  0  0
 54127  1  0  0  0
 55 57  1  0  0  0
 55128  1  0  0  0
 56 69  2  0  0  0
 57 58  2  0  0  0
 57129  1  0  0  0
 58130  1  0  0  0
 59 60  1  0  0  0
 59 61  1  0  0  0
 59 62  1  0  0  0
 60131  1  0  0  0
 60132  1  0  0  0
 60133  1  0  0  0
 61134  1  0  0  0
 61135  1  0  0  0
 61136  1  0  0  0
 62137  1  0  0  0
 62138  1  0  0  0
 62139  1  0  0  0
 63 65  1  0  0  0
 63140  1  0  0  0
 63141  1  0  0  0
 63142  1  0  0  0
 64143  1  0  0  0
 65144  1  0  0  0
 68 81  1  0  0  0
 71 73  2  0  0  0
 71 74  1  0  0  0
 71145  1  0  0  0
 72 74  2  0  0  0
 72 75  1  0  0  0
 72146  1  0  0  0
 73 76  1  0  0  0
 73 77  1  0  0  0
 74 82  1  0  0  0
 75 76  2  0  0  0
 75 83  1  0  0  0
 76 85  1  0  0  0
 77 78  2  0  0  0
 77147  1  0  0  0
 78148  1  0  0  0
 79 80  1  0  0  0
 79 81  1  0  0  0
 79 84  2  0  0  0
 80 83  1  0  0  0
 80149  1  0  0  0
 80150  1  0  0  0
 81151  1  0  0  0
 81152  1  0  0  0
 82153  1  0  0  0
 82154  1  0  0  0
 83155  1  0  0  0
M  ISO  4   1 100  68 101  78 100  81 101
M  END
> <chiral flag>
0

> <version>
0

> <s_m_source_file>
/data/baiqing/PycharmProjects/Reinvent-master-3.2/result/LINK_invent/BTK/process_docking_weight1_custom_product_contain_oxygen_bond_distance_aromatic_linkinvent_7_9_3/rearranged_h_0094.sdf

> <i_m_source_file_index>
75

> <r_mmod_Potential_Energy-OPLS-2005>
64.4979858398438

> <r_mmod_Stretch_Energy-OPLS-2005>
41.2738952636719

> <r_mmod_Bend_Energy-OPLS-2005>
104.668159484863

> <r_mmod_Torsional_Energy-OPLS-2005>
197.240661621094

> <r_mmod_Improper_Torsional_Energy-OPLS-2005>
5.55127954483032

> <r_mmod_Van_der_Waal_Energy-OPLS-2005>
155.254745483398

> <r_mmod_Electrostatic_Energy-OPLS-2005>
-217.263809204102

> <r_mmod_Solvation_Energy-OPLS-2005>
-233.871887207031

> <b_mmod_Minimization_Converged-OPLS-2005>
0

> <r_mmod_RMS_Derivative-OPLS-2005>
0.258455723524094

$$$$
75
                    3D
 Structure written by MMmdl.
152160  0  0  1  0            999 V2000
  -30.4923  -15.0392   20.4264 C   0  0  0  0  0  0
  -30.4486  -12.6454   19.5062 C   0  0  0  0  0  0
  -29.5288  -12.5561   18.2635 C   0  0  0  0  0  0
  -28.0613  -12.3277   18.6732 C   0  0  0  0  0  0
  -27.6288  -13.2569   19.8357 C   0  0  2  0  0  0
  -28.6702  -13.3012   20.9717 C   0  0  0  0  0  0
  -25.2466  -13.8240   20.5730 C   0  0  0  0  0  0
  -24.1784  -13.0451   20.9224 C   0  0  0  0  0  0
  -24.6415  -11.6938   20.8748 C   0  0  0  0  0  0
  -23.9098  -10.4304   21.0406 C   0  0  0  0  0  0
  -24.3642   -9.4212   21.9181 C   0  0  0  0  0  0
  -23.6309   -8.2252   22.0757 C   0  0  0  0  0  0
  -22.4286   -8.0296   21.3550 C   0  0  0  0  0  0
  -21.9931   -9.0268   20.4644 C   0  0  0  0  0  0
  -22.7270  -10.2142   20.3052 C   0  0  0  0  0  0
  -21.6855   -6.0743   22.5282 C   0  0  0  0  0  0
  -21.4021   -6.5643   23.8217 C   0  0  0  0  0  0
  -21.3659   -5.6796   24.9176 C   0  0  0  0  0  0
  -21.6041   -4.3061   24.7224 C   0  0  0  0  0  0
  -21.8818   -3.8150   23.4346 C   0  0  0  0  0  0
  -21.9193   -4.6969   22.3403 C   0  0  0  0  0  0
  -22.7792  -13.5204   21.1882 C   0  0  0  0  0  0
  -22.1657   -4.2151   21.0980 F   0  0  0  0  0  0
  -21.5623   -3.4545   25.7739 F   0  0  0  0  0  0
  -29.9429  -13.7459   20.3855 N   0  0  0  0  0  0
  -26.2891  -12.9484   20.3231 N   0  0  0  0  0  0
  -25.9349  -11.6604   20.5714 N   0  0  0  0  0  0
  -22.0447  -12.8186   22.0436 N   0  0  0  0  0  0
  -25.4144  -15.1978   20.4191 N   0  0  0  0  0  0
  -31.6882  -15.0973   20.1105 O   0  0  0  0  0  0
  -21.6642   -6.8895   21.4249 O   0  0  0  0  0  0
  -22.3459  -14.5499   20.6722 O   0  0  0  0  0  0
  -24.6500  -31.8370   23.1821 C   0  0  0  0  0  0
  -25.9239  -32.4658   23.8241 C   0  0  1  0  0  0
  -27.2242  -27.0688   20.1719 C   0  0  0  0  0  0
  -25.5960  -33.8468   24.2153 N   0  0  0  0  0  0
  -23.4583  -30.4520   21.5284 C   0  0  2  0  0  0
  -24.9109  -28.8596   20.1183 C   0  0  0  0  0  0
  -22.7603  -29.4507   22.4837 C   0  0  0  0  0  0
  -18.0310  -28.1404   22.8474 C   0  0  0  0  0  0
  -24.1493  -36.7242   23.2644 C   0  0  0  0  0  0
  -26.0186  -30.6878   21.3928 C   0  0  0  0  0  0
  -26.0899  -29.2893   20.7422 C   0  0  0  0  0  0
  -27.2472  -28.4114   20.7485 C   0  0  0  0  0  0
  -26.0183  -26.7521   19.5121 C   0  0  0  0  0  0
  -24.8905  -27.6054   19.4874 C   0  0  0  0  0  0
  -23.6915  -29.7722   20.1521 C   0  0  0  0  0  0
  -25.4128  -36.3010   24.0310 C   0  0  1  0  0  0
  -20.5925  -28.3737   23.1220 C   0  0  2  0  0  0
  -20.6792  -26.9431   22.5404 C   0  0  0  0  0  0
  -19.5766  -26.6383   21.5214 C   0  0  0  0  0  0
  -18.1949  -26.7941   22.1623 C   0  0  0  0  0  0
  -19.1568  -28.8891   23.2837 C   0  0  0  0  0  0
  -18.9482  -30.1485   23.8864 C   0  0  0  0  0  0
  -17.6478  -30.6598   24.0561 C   0  0  0  0  0  0
  -25.9082  -34.9387   23.5044 C   0  0  0  0  0  0
  -16.5370  -29.9089   23.6343 C   0  0  0  0  0  0
  -16.7292  -28.6511   23.0361 C   0  0  0  0  0  0
  -26.4530  -31.6554   25.0715 C   0  0  0  0  0  0
  -25.3695  -31.3771   26.1400 C   0  0  0  0  0  0
  -27.0402  -30.2935   24.6353 C   0  0  0  0  0  0
  -27.6051  -32.4332   25.7505 C   0  0  0  0  0  0
  -27.5576  -37.1780   24.8462 C   0  0  0  0  0  0
  -21.4287  -29.3050   22.3583 N   0  0  0  0  0  0
  -26.4282  -37.3734   23.9403 N   0  0  0  0  0  0
  -24.7291  -31.0161   22.0888 N   0  0  0  0  0  0
  -23.4212  -28.8065   23.3025 O   0  0  0  0  0  0
  -28.2735  -26.0583   20.1619 O   0  0  0  0  0  0
  -26.5682  -34.8896   22.4630 O   0  0  0  0  0  0
  -23.5600  -32.1275   23.6996 O   0  0  0  0  0  0
  -29.1917  -19.4355   20.7096 C   0  0  0  0  0  0
  -29.7607  -17.9952   20.0491 C   0  0  0  0  0  0
  -28.0819  -24.6221   20.5035 C   0  0  0  0  0  0
  -28.7900  -23.4183   20.1527 C   0  0  0  0  0  0
  -28.5317  -21.9628   20.7020 C   0  0  0  0  0  0
  -28.6404  -19.1652   22.1316 C   0  0  0  0  0  0
  -28.5330  -17.7096   22.6679 C   0  0  0  0  0  0
  -29.6759  -16.7494   22.2917 C   0  0  0  0  0  0
  -29.6505  -16.4715   20.7844 C   0  0  2  0  0  0
  -30.2729  -18.0758   18.8938 N   0  0  0  0  0  0
  -29.1956  -20.7147   20.1735 N   0  0  0  0  0  0
  -27.7212  -21.8874   21.6230 O   0  0  0  0  0  0
  -29.8003  -23.5393   19.2817 O   0  0  0  0  0  0
  -31.4787  -12.8174   19.1903 H   0  0  0  0  0  0
  -30.4602  -11.6975   20.0461 H   0  0  0  0  0  0
  -29.8610  -11.7559   17.6014 H   0  0  0  0  0  0
  -29.6046  -13.4817   17.6902 H   0  0  0  0  0  0
  -27.9581  -11.2846   18.9739 H   0  0  0  0  0  0
  -27.4031  -12.4646   17.8143 H   0  0  0  0  0  0
  -27.5847  -14.2558   19.4023 H   0  0  0  0  0  0
  -28.7744  -12.3241   21.4462 H   0  0  0  0  0  0
  -28.3515  -13.9904   21.7543 H   0  0  0  0  0  0
  -25.2796   -9.5678   22.4745 H   0  0  0  0  0  0
  -24.0015   -7.4641   22.7481 H   0  0  0  0  0  0
  -21.0862   -8.8790   19.8948 H   0  0  0  0  0  0
  -22.3742  -10.9675   19.6147 H   0  0  0  0  0  0
  -21.2022   -7.6153   23.9723 H   0  0  0  0  0  0
  -21.1480   -6.0523   25.9078 H   0  0  0  0  0  0
  -22.0599   -2.7612   23.2846 H   0  0  0  0  0  0
  -22.4077  -11.9851   22.4821 H   0  0  0  0  0  0
  -21.1051  -13.1178   22.2644 H   0  0  0  0  0  0
  -24.6475  -15.8512   20.5365 H   0  0  0  0  0  0
  -26.2598  -15.6392   20.0836 H   0  0  0  0  0  0
  -26.7305  -32.5245   23.0969 H   0  0  0  0  0  0
  -25.0076  -33.9571   25.0279 H   0  0  0  0  0  0
  -22.7646  -31.2794   21.3652 H   0  0  0  0  0  0
  -23.3763  -35.9564   23.3279 H   0  0  0  0  0  0
  -24.3575  -36.8908   22.2062 H   0  0  0  0  0  0
  -23.7240  -37.6424   23.6706 H   0  0  0  0  0  0
  -26.1824  -31.4346   20.6149 H   0  0  0  0  0  0
  -26.8858  -30.7436   22.0392 H   0  0  0  0  0  0
  -28.1501  -28.7403   21.2433 H   0  0  0  0  0  0
  -25.9345  -25.7912   19.0242 H   0  0  0  0  0  0
  -23.9925  -27.2723   18.9856 H   0  0  0  0  0  0
  -23.8394  -30.5422   19.3937 H   0  0  0  0  0  0
  -22.8046  -29.2190   19.8378 H   0  0  0  0  0  0
  -25.1322  -36.1829   25.0804 H   0  0  0  0  0  0
  -21.0016  -28.3335   24.1341 H   0  0  0  0  0  0
  -20.5690  -26.2352   23.3630 H   0  0  0  0  0  0
  -21.6658  -26.7433   22.1199 H   0  0  0  0  0  0
  -19.6928  -25.6286   21.1268 H   0  0  0  0  0  0
  -19.6702  -27.3174   20.6726 H   0  0  0  0  0  0
  -17.4216  -26.6684   21.4026 H   0  0  0  0  0  0
  -18.0344  -26.0089   22.9024 H   0  0  0  0  0  0
  -19.7955  -30.7316   24.2215 H   0  0  0  0  0  0
  -17.5028  -31.6273   24.5173 H   0  0  0  0  0  0
  -15.5368  -30.2984   23.7685 H   0  0  0  0  0  0
  -15.8691  -28.0822   22.7094 H   0  0  0  0  0  0
  -24.5852  -30.7154   25.7705 H   0  0  0  0  0  0
  -24.8917  -32.2969   26.4780 H   0  0  0  0  0  0
  -25.7952  -30.8950   27.0209 H   0  0  0  0  0  0
  -26.3033  -29.6645   24.1345 H   0  0  0  0  0  0
  -27.3958  -29.7256   25.4961 H   0  0  0  0  0  0
  -27.8969  -30.4140   23.9720 H   0  0  0  0  0  0
  -27.2637  -33.3658   26.2007 H   0  0  0  0  0  0
  -28.3902  -32.6851   25.0365 H   0  0  0  0  0  0
  -28.0674  -31.8508   26.5485 H   0  0  0  0  0  0
  -28.2577  -38.0092   24.7517 H   0  0  0  0  0  0
  -28.1090  -36.2622   24.6283 H   0  0  0  0  0  0
  -27.2294  -37.1418   25.8865 H   0  0  0  0  0  0
  -20.9519  -29.8749   21.6735 H   0  0  0  0  0  0
  -26.0145  -38.2798   24.1410 H   0  0  0  0  0  0
  -27.2462  -24.5380   21.1857 H   0  0  0  0  0  0
  -27.6333  -19.5695   22.2053 H   0  0  0  0  0  0
  -29.2559  -19.7386   22.8253 H   0  0  0  0  0  0
  -27.5889  -17.2773   22.3323 H   0  0  0  0  0  0
  -28.4513  -17.7520   23.7552 H   0  0  0  0  0  0
  -29.5677  -15.8182   22.8483 H   0  0  0  0  0  0
  -30.6398  -17.1673   22.5877 H   0  0  0  0  0  0
  -28.6321  -16.1643   20.5516 H   0  0  0  0  0  0
  -30.2541  -19.0424   18.5801 H   0  0  0  0  0  0
  -29.8524  -24.4562   19.0414 H   0  0  0  0  0  0
  1 25  1  0  0  0
  1 30  2  0  0  0
  1 79  1  0  0  0
  2  3  1  0  0  0
  2 25  1  0  0  0
  2 84  1  0  0  0
  2 85  1  0  0  0
  3  4  1  0  0  0
  3 86  1  0  0  0
  3 87  1  0  0  0
  4  5  1  0  0  0
  4 88  1  0  0  0
  4 89  1  0  0  0
  5  6  1  0  0  0
  5 26  1  0  0  0
  5 90  1  0  0  0
  6 25  1  0  0  0
  6 91  1  0  0  0
  6 92  1  0  0  0
  7  8  2  0  0  0
  7 26  1  0  0  0
  7 29  1  0  0  0
  8  9  1  0  0  0
  8 22  1  0  0  0
  9 10  1  0  0  0
  9 27  2  0  0  0
 10 11  2  0  0  0
 10 15  1  0  0  0
 11 12  1  0  0  0
 11 93  1  0  0  0
 12 13  2  0  0  0
 12 94  1  0  0  0
 13 14  1  0  0  0
 13 31  1  0  0  0
 14 15  2  0  0  0
 14 95  1  0  0  0
 15 96  1  0  0  0
 16 17  2  0  0  0
 16 21  1  0  0  0
 16 31  1  0  0  0
 17 18  1  0  0  0
 17 97  1  0  0  0
 18 19  2  0  0  0
 18 98  1  0  0  0
 19 20  1  0  0  0
 19 24  1  0  0  0
 20 21  2  0  0  0
 20 99  1  0  0  0
 21 23  1  0  0  0
 22 28  1  0  0  0
 22 32  2  0  0  0
 26 27  1  0  0  0
 28100  1  0  0  0
 28101  1  0  0  0
 29102  1  0  0  0
 29103  1  0  0  0
 33 34  1  0  0  0
 33 66  1  0  0  0
 33 70  2  0  0  0
 34 36  1  0  0  0
 34 59  1  0  0  0
 34104  1  0  0  0
 35 44  2  0  0  0
 35 45  1  0  0  0
 35 68  1  0  0  0
 36 56  1  0  0  0
 36105  1  0  0  0
 37 39  1  0  0  0
 37 47  1  0  0  0
 37 66  1  0  0  0
 37106  1  0  0  0
 38 43  2  0  0  0
 38 46  1  0  0  0
 38 47  1  0  0  0
 39 64  1  0  0  0
 39 67  2  0  0  0
 40 52  1  0  0  0
 40 53  2  0  0  0
 40 58  1  0  0  0
 41107  1  0  0  0
 41108  1  0  0  0
 41109  1  0  0  0
 41 48  1  0  0  0
 42 43  1  0  0  0
 42 66  1  0  0  0
 42110  1  0  0  0
 42111  1  0  0  0
 43 44  1  0  0  0
 44112  1  0  0  0
 45 46  2  0  0  0
 45113  1  0  0  0
 46114  1  0  0  0
 47115  1  0  0  0
 47116  1  0  0  0
 48 56  1  0  0  0
 48 65  1  0  0  0
 48117  1  0  0  0
 49 50  1  0  0  0
 49 53  1  0  0  0
 49 64  1  0  0  0
 49118  1  0  0  0
 50 51  1  0  0  0
 50119  1  0  0  0
 50120  1  0  0  0
 51 52  1  0  0  0
 51121  1  0  0  0
 51122  1  0  0  0
 52123  1  0  0  0
 52124  1  0  0  0
 53 54  1  0  0  0
 54 55  2  0  0  0
 54125  1  0  0  0
 55 57  1  0  0  0
 55126  1  0  0  0
 56 69  2  0  0  0
 57 58  2  0  0  0
 57127  1  0  0  0
 58128  1  0  0  0
 59 60  1  0  0  0
 59 61  1  0  0  0
 59 62  1  0  0  0
 60129  1  0  0  0
 60130  1  0  0  0
 60131  1  0  0  0
 61132  1  0  0  0
 61133  1  0  0  0
 61134  1  0  0  0
 62135  1  0  0  0
 62136  1  0  0  0
 62137  1  0  0  0
 63 65  1  0  0  0
 63138  1  0  0  0
 63139  1  0  0  0
 63140  1  0  0  0
 64141  1  0  0  0
 65142  1  0  0  0
 68 73  1  0  0  0
 71 72  1  0  0  0
 71 76  1  0  0  0
 71 81  2  0  0  0
 72 79  1  0  0  0
 72 80  2  0  0  0
 73 74  2  0  0  0
 73143  1  0  0  0
 74 75  1  0  0  0
 74 83  1  0  0  0
 75 81  1  0  0  0
 75 82  2  0  0  0
 76 77  1  0  0  0
 76144  1  0  0  0
 76145  1  0  0  0
 77 78  1  0  0  0
 77146  1  0  0  0
 77147  1  0  0  0
 78 79  1  0  0  0
 78148  1  0  0  0
 78149  1  0  0  0
 79150  1  0  0  0
 80151  1  0  0  0
 83152  1  0  0  0
M  ISO  4   1 100  68 101  73 101  79 100
M  END
> <chiral flag>
0

> <version>
0

> <s_m_source_file>
/data/baiqing/PycharmProjects/Reinvent-master-3.2/result/LINK_invent/BTK/process_docking_weight1_custom_product_contain_oxygen_bond_distance_aromatic_linkinvent_7_9_3/rearranged_h_0094.sdf

> <i_m_source_file_index>
76

> <r_mmod_Potential_Energy-OPLS-2005>
697.476623535156

> <r_mmod_Stretch_Energy-OPLS-2005>
358.209014892578

> <r_mmod_Bend_Energy-OPLS-2005>
298.666229248047

> <r_mmod_Torsional_Energy-OPLS-2005>
187.629776000977

> <r_mmod_Improper_Torsional_Energy-OPLS-2005>
2.34965753555298

> <r_mmod_Van_der_Waal_Energy-OPLS-2005>
121.018737792969

> <r_mmod_Electrostatic_Energy-OPLS-2005>
-301.529235839844

> <r_mmod_Solvation_Energy-OPLS-2005>
-220.669738769531

> <b_mmod_Minimization_Converged-OPLS-2005>
0

> <r_mmod_RMS_Derivative-OPLS-2005>
1.0656703710556

$$$$
76
                    3D
 Structure written by MMmdl.
160169  0  0  1  0            999 V2000
  -30.5893  -14.7612   20.4544 C   0  0  0  0  0  0
  -30.4415  -12.4443   19.5165 C   0  0  0  0  0  0
  -29.5355  -12.4922   18.2671 C   0  0  0  0  0  0
  -28.0497  -12.3487   18.6546 C   0  0  0  0  0  0
  -27.6521  -13.2366   19.8664 C   0  0  2  0  0  0
  -28.6893  -13.1549   21.0076 C   0  0  0  0  0  0
  -25.2539  -13.8205   20.5737 C   0  0  0  0  0  0
  -24.1819  -13.0443   20.9196 C   0  0  0  0  0  0
  -24.6417  -11.6925   20.8737 C   0  0  0  0  0  0
  -23.9092  -10.4303   21.0374 C   0  0  0  0  0  0
  -24.3623   -9.4217   21.9164 C   0  0  0  0  0  0
  -23.6279   -8.2257   22.0732 C   0  0  0  0  0  0
  -22.4264   -8.0287   21.3531 C   0  0  0  0  0  0
  -21.9919   -9.0274   20.4622 C   0  0  0  0  0  0
  -22.7264  -10.2146   20.3018 C   0  0  0  0  0  0
  -21.6844   -6.0746   22.5296 C   0  0  0  0  0  0
  -21.4025   -6.5648   23.8238 C   0  0  0  0  0  0
  -21.3657   -5.6787   24.9191 C   0  0  0  0  0  0
  -21.6030   -4.3054   24.7246 C   0  0  0  0  0  0
  -21.8809   -3.8172   23.4366 C   0  0  0  0  0  0
  -21.9172   -4.6977   22.3410 C   0  0  0  0  0  0
  -22.7828  -13.5197   21.1863 C   0  0  0  0  0  0
  -22.1618   -4.2163   21.0986 F   0  0  0  0  0  0
  -21.5639   -3.4529   25.7759 F   0  0  0  0  0  0
  -29.9956  -13.5145   20.4410 N   0  0  0  0  0  0
  -26.2990  -12.9433   20.3329 N   0  0  0  0  0  0
  -25.9352  -11.6566   20.5738 N   0  0  0  0  0  0
  -22.0492  -12.8189   22.0430 N   0  0  0  0  0  0
  -25.4211  -15.1937   20.4283 N   0  0  0  0  0  0
  -31.7540  -14.8811   20.0598 O   0  0  0  0  0  0
  -21.6630   -6.8886   21.4250 O   0  0  0  0  0  0
  -22.3505  -14.5505   20.6699 O   0  0  0  0  0  0
  -24.6339  -31.8551   23.1989 C   0  0  0  0  0  0
  -25.9173  -32.4746   23.8324 C   0  0  1  0  0  0
  -27.2065  -27.2451   20.1259 C   0  0  0  0  0  0
  -25.5964  -33.8552   24.2236 N   0  0  0  0  0  0
  -23.4291  -30.4813   21.5423 C   0  0  2  0  0  0
  -24.8727  -28.9351   20.1051 C   0  0  0  0  0  0
  -22.7521  -29.4615   22.4906 C   0  0  0  0  0  0
  -18.0302  -28.1393   22.8492 C   0  0  0  0  0  0
  -24.1491  -36.7269   23.2634 C   0  0  0  0  0  0
  -25.9776  -30.7647   21.3814 C   0  0  0  0  0  0
  -26.0477  -29.3881   20.7188 C   0  0  0  0  0  0
  -27.2174  -28.5563   20.7181 C   0  0  0  0  0  0
  -26.0100  -26.8783   19.4645 C   0  0  0  0  0  0
  -24.8617  -27.6905   19.4635 C   0  0  0  0  0  0
  -23.6446  -29.8221   20.1563 C   0  0  0  0  0  0
  -25.4120  -36.3047   24.0306 C   0  0  1  0  0  0
  -20.5909  -28.3706   23.1261 C   0  0  2  0  0  0
  -20.6790  -26.9424   22.5406 C   0  0  0  0  0  0
  -19.5751  -26.6393   21.5220 C   0  0  0  0  0  0
  -18.1932  -26.7939   22.1632 C   0  0  0  0  0  0
  -19.1560  -28.8871   23.2871 C   0  0  0  0  0  0
  -18.9471  -30.1472   23.8889 C   0  0  0  0  0  0
  -17.6467  -30.6594   24.0567 C   0  0  0  0  0  0
  -25.9065  -34.9429   23.5061 C   0  0  0  0  0  0
  -16.5360  -29.9085   23.6340 C   0  0  0  0  0  0
  -16.7287  -28.6507   23.0356 C   0  0  0  0  0  0
  -26.4528  -31.6579   25.0726 C   0  0  0  0  0  0
  -25.3738  -31.3740   26.1431 C   0  0  0  0  0  0
  -27.0385  -30.2987   24.6245 C   0  0  0  0  0  0
  -27.6058  -32.4338   25.7523 C   0  0  0  0  0  0
  -27.5577  -37.1789   24.8456 C   0  0  0  0  0  0
  -21.4231  -29.3050   22.3651 N   0  0  0  0  0  0
  -26.4278  -37.3760   23.9410 N   0  0  0  0  0  0
  -24.6993  -31.0504   22.0976 N   0  0  0  0  0  0
  -23.4207  -28.8144   23.3010 O   0  0  0  0  0  0
  -28.2749  -26.3109   20.2110 O   0  0  0  0  0  0
  -26.5629  -34.8907   22.4624 O   0  0  0  0  0  0
  -23.5486  -32.1383   23.7274 O   0  0  0  0  0  0
  -29.1879  -19.6946   18.7754 C   0  0  0  0  0  0
  -29.1552  -18.4554   18.1083 C   0  0  0  0  0  0
  -29.6993  -18.5067   20.8261 C   0  0  0  0  0  0
  -29.4492  -19.7919   20.1574 C   0  0  0  0  0  0
  -29.7026  -17.2064   20.1538 C   0  0  0  0  0  0
  -29.3927  -17.2211   18.7674 C   0  0  0  0  0  0
  -28.7382  -22.3104   20.1925 C   0  0  0  0  0  0
  -28.8534  -23.6541   20.5351 C   0  0  0  0  0  0
  -30.3218  -21.4610   21.7890 C   0  0  0  0  0  0
  -29.8602  -24.0149   21.6022 C   0  0  0  0  0  0
  -30.1577  -22.8100   22.5231 C   0  0  0  0  0  0
  -28.8463  -15.9969   16.7624 C   0  0  0  0  0  0
  -27.9674  -24.8510   19.9624 C   0  0  0  0  0  0
  -29.4776  -21.1742   20.7570 N   0  0  0  0  0  0
  -29.8361  -15.8737   20.8173 N   0  0  0  0  0  0
  -31.2136  -20.7004   22.1824 O   0  0  0  0  0  0
  -29.2908  -16.0082   18.1151 O   0  0  0  0  0  0
  -31.4911  -12.5529   19.2346 H   0  0  0  0  0  0
  -30.3686  -11.4708   20.0033 H   0  0  0  0  0  0
  -29.8151  -11.7036   17.5671 H   0  0  0  0  0  0
  -29.7022  -13.4308   17.7452 H   0  0  0  0  0  0
  -27.8801  -11.2996   18.8975 H   0  0  0  0  0  0
  -27.4118  -12.5721   17.7980 H   0  0  0  0  0  0
  -27.6535  -14.2647   19.5041 H   0  0  0  0  0  0
  -28.7166  -12.1486   21.4307 H   0  0  0  0  0  0
  -28.4222  -13.8204   21.8295 H   0  0  0  0  0  0
  -25.2768   -9.5693   22.4741 H   0  0  0  0  0  0
  -23.9972   -7.4650   22.7454 H   0  0  0  0  0  0
  -21.0848   -8.8830   19.8927 H   0  0  0  0  0  0
  -22.3743  -10.9693   19.6119 H   0  0  0  0  0  0
  -21.2039   -7.6157   23.9763 H   0  0  0  0  0  0
  -21.1460   -6.0514   25.9083 H   0  0  0  0  0  0
  -22.0582   -2.7641   23.2888 H   0  0  0  0  0  0
  -22.4116  -11.9820   22.4776 H   0  0  0  0  0  0
  -21.1110  -13.1213   22.2672 H   0  0  0  0  0  0
  -24.6603  -15.8457   20.5824 H   0  0  0  0  0  0
  -26.2820  -15.6467   20.1491 H   0  0  0  0  0  0
  -26.7246  -32.5379   23.1069 H   0  0  0  0  0  0
  -25.0116  -33.9688   25.0383 H   0  0  0  0  0  0
  -22.7254  -31.3044   21.3995 H   0  0  0  0  0  0
  -23.3754  -35.9599   23.3267 H   0  0  0  0  0  0
  -24.3591  -36.8933   22.2059 H   0  0  0  0  0  0
  -23.7247  -37.6454   23.6694 H   0  0  0  0  0  0
  -26.1201  -31.5292   20.6155 H   0  0  0  0  0  0
  -26.8541  -30.8078   22.0164 H   0  0  0  0  0  0
  -28.1129  -28.8947   21.2197 H   0  0  0  0  0  0
  -25.9165  -25.9318   18.9538 H   0  0  0  0  0  0
  -23.9644  -27.3438   18.9677 H   0  0  0  0  0  0
  -23.7656  -30.5992   19.4021 H   0  0  0  0  0  0
  -22.7630  -29.2559   19.8516 H   0  0  0  0  0  0
  -25.1310  -36.1869   25.0795 H   0  0  0  0  0  0
  -21.0000  -28.3283   24.1381 H   0  0  0  0  0  0
  -20.5701  -26.2318   23.3613 H   0  0  0  0  0  0
  -21.6649  -26.7455   22.1184 H   0  0  0  0  0  0
  -19.6903  -25.6300   21.1251 H   0  0  0  0  0  0
  -19.6675  -27.3205   20.6743 H   0  0  0  0  0  0
  -17.4206  -26.6705   21.4030 H   0  0  0  0  0  0
  -18.0315  -26.0083   22.9024 H   0  0  0  0  0  0
  -19.7941  -30.7310   24.2236 H   0  0  0  0  0  0
  -17.5008  -31.6270   24.5171 H   0  0  0  0  0  0
  -15.5351  -30.2972   23.7678 H   0  0  0  0  0  0
  -15.8692  -28.0821   22.7061 H   0  0  0  0  0  0
  -24.5898  -30.7122   25.7734 H   0  0  0  0  0  0
  -24.8966  -32.2927   26.4855 H   0  0  0  0  0  0
  -25.8039  -30.8896   27.0206 H   0  0  0  0  0  0
  -26.2987  -29.6726   24.1247 H   0  0  0  0  0  0
  -27.4017  -29.7263   25.4789 H   0  0  0  0  0  0
  -27.8880  -30.4234   23.9528 H   0  0  0  0  0  0
  -27.2634  -33.3633   26.2077 H   0  0  0  0  0  0
  -28.3898  -32.6913   25.0391 H   0  0  0  0  0  0
  -28.0695  -31.8488   26.5474 H   0  0  0  0  0  0
  -28.2551  -38.0122   24.7541 H   0  0  0  0  0  0
  -28.1117  -36.2659   24.6239 H   0  0  0  0  0  0
  -27.2300  -37.1376   25.8854 H   0  0  0  0  0  0
  -20.9419  -29.8775   21.6862 H   0  0  0  0  0  0
  -26.0136  -38.2813   24.1450 H   0  0  0  0  0  0
  -29.0175  -20.5832   18.1843 H   0  0  0  0  0  0
  -28.9276  -18.4922   17.0542 H   0  0  0  0  0  0
  -29.8855  -18.5109   21.8909 H   0  0  0  0  0  0
  -28.0010  -22.0122   19.4617 H   0  0  0  0  0  0
  -29.4720  -24.8377   22.2014 H   0  0  0  0  0  0
  -30.7674  -24.3794   21.1191 H   0  0  0  0  0  0
  -31.0366  -23.0165   23.1340 H   0  0  0  0  0  0
  -29.3255  -22.6835   23.2174 H   0  0  0  0  0  0
  -27.8572  -16.4455   16.6631 H   0  0  0  0  0  0
  -28.7707  -14.9724   16.3997 H   0  0  0  0  0  0
  -29.5469  -16.5207   16.1113 H   0  0  0  0  0  0
  -26.9896  -24.6465   20.4024 H   0  0  0  0  0  0
  -27.8581  -24.6946   18.8881 H   0  0  0  0  0  0
  -29.0236  -15.6200   21.3589 H   0  0  0  0  0  0
  1 25  1  0  0  0
  1 30  2  0  0  0
  1 85  1  0  0  0
  2  3  1  0  0  0
  2 25  1  0  0  0
  2 88  1  0  0  0
  2 89  1  0  0  0
  3  4  1  0  0  0
  3 90  1  0  0  0
  3 91  1  0  0  0
  4  5  1  0  0  0
  4 92  1  0  0  0
  4 93  1  0  0  0
  5  6  1  0  0  0
  5 26  1  0  0  0
  5 94  1  0  0  0
  6 25  1  0  0  0
  6 95  1  0  0  0
  6 96  1  0  0  0
  7  8  2  0  0  0
  7 26  1  0  0  0
  7 29  1  0  0  0
  8  9  1  0  0  0
  8 22  1  0  0  0
  9 10  1  0  0  0
  9 27  2  0  0  0
 10 11  2  0  0  0
 10 15  1  0  0  0
 11 12  1  0  0  0
 11 97  1  0  0  0
 12 13  2  0  0  0
 12 98  1  0  0  0
 13 14  1  0  0  0
 13 31  1  0  0  0
 14 15  2  0  0  0
 14 99  1  0  0  0
 15100  1  0  0  0
 16 17  2  0  0  0
 16 21  1  0  0  0
 16 31  1  0  0  0
 17 18  1  0  0  0
 17101  1  0  0  0
 18 19  2  0  0  0
 18102  1  0  0  0
 19 20  1  0  0  0
 19 24  1  0  0  0
 20 21  2  0  0  0
 20103  1  0  0  0
 21 23  1  0  0  0
 22 28  1  0  0  0
 22 32  2  0  0  0
 26 27  1  0  0  0
 28104  1  0  0  0
 28105  1  0  0  0
 29106  1  0  0  0
 29107  1  0  0  0
 33 34  1  0  0  0
 33 66  1  0  0  0
 33 70  2  0  0  0
 34 36  1  0  0  0
 34 59  1  0  0  0
 34108  1  0  0  0
 35 44  2  0  0  0
 35 45  1  0  0  0
 35 68  1  0  0  0
 36 56  1  0  0  0
 36109  1  0  0  0
 37 39  1  0  0  0
 37 47  1  0  0  0
 37 66  1  0  0  0
 37110  1  0  0  0
 38 43  2  0  0  0
 38 46  1  0  0  0
 38 47  1  0  0  0
 39 64  1  0  0  0
 39 67  2  0  0  0
 40 52  1  0  0  0
 40 53  2  0  0  0
 40 58  1  0  0  0
 41111  1  0  0  0
 41112  1  0  0  0
 41113  1  0  0  0
 41 48  1  0  0  0
 42 43  1  0  0  0
 42 66  1  0  0  0
 42114  1  0  0  0
 42115  1  0  0  0
 43 44  1  0  0  0
 44116  1  0  0  0
 45 46  2  0  0  0
 45117  1  0  0  0
 46118  1  0  0  0
 47119  1  0  0  0
 47120  1  0  0  0
 48 56  1  0  0  0
 48 65  1  0  0  0
 48121  1  0  0  0
 49 50  1  0  0  0
 49 53  1  0  0  0
 49 64  1  0  0  0
 49122  1  0  0  0
 50 51  1  0  0  0
 50123  1  0  0  0
 50124  1  0  0  0
 51 52  1  0  0  0
 51125  1  0  0  0
 51126  1  0  0  0
 52127  1  0  0  0
 52128  1  0  0  0
 53 54  1  0  0  0
 54 55  2  0  0  0
 54129  1  0  0  0
 55 57  1  0  0  0
 55130  1  0  0  0
 56 69  2  0  0  0
 57 58  2  0  0  0
 57131  1  0  0  0
 58132  1  0  0  0
 59 60  1  0  0  0
 59 61  1  0  0  0
 59 62  1  0  0  0
 60133  1  0  0  0
 60134  1  0  0  0
 60135  1  0  0  0
 61136  1  0  0  0
 61137  1  0  0  0
 61138  1  0  0  0
 62139  1  0  0  0
 62140  1  0  0  0
 62141  1  0  0  0
 63 65  1  0  0  0
 63142  1  0  0  0
 63143  1  0  0  0
 63144  1  0  0  0
 64145  1  0  0  0
 65146  1  0  0  0
 68 83  1  0  0  0
 71 72  2  0  0  0
 71 74  1  0  0  0
 71147  1  0  0  0
 72 76  1  0  0  0
 72148  1  0  0  0
 73 74  2  0  0  0
 73 75  1  0  0  0
 73149  1  0  0  0
 74 84  1  0  0  0
 75 76  2  0  0  0
 75 85  1  0  0  0
 76 87  1  0  0  0
 77 78  2  0  0  0
 77 84  1  0  0  0
 77150  1  0  0  0
 78 80  1  0  0  0
 78 83  1  0  0  0
 79 81  1  0  0  0
 79 84  1  0  0  0
 79 86  2  0  0  0
 80 81  1  0  0  0
 80151  1  0  0  0
 80152  1  0  0  0
 81153  1  0  0  0
 81154  1  0  0  0
 82 87  1  0  0  0
 82155  1  0  0  0
 82156  1  0  0  0
 82157  1  0  0  0
 83158  1  0  0  0
 83159  1  0  0  0
 85160  1  0  0  0
M  ISO  4   1 100  68 101  83 101  85 100
M  END
> <chiral flag>
0

> <version>
0

> <s_m_source_file>
/data/baiqing/PycharmProjects/Reinvent-master-3.2/result/LINK_invent/BTK/process_docking_weight1_custom_product_contain_oxygen_bond_distance_aromatic_linkinvent_7_9_3/rearranged_h_0094.sdf

> <i_m_source_file_index>
77

> <r_mmod_Potential_Energy-OPLS-2005>
277.615509033203

> <r_mmod_Stretch_Energy-OPLS-2005>
145.966400146484

> <r_mmod_Bend_Energy-OPLS-2005>
168.342010498047

> <r_mmod_Torsional_Energy-OPLS-2005>
284.243774414062

> <r_mmod_Improper_Torsional_Energy-OPLS-2005>
5.12573003768921

> <r_mmod_Van_der_Waal_Energy-OPLS-2005>
167.122131347656

> <r_mmod_Electrostatic_Energy-OPLS-2005>
-357.641357421875

> <r_mmod_Solvation_Energy-OPLS-2005>
-232.523712158203

> <b_mmod_Minimization_Converged-OPLS-2005>
0

> <r_mmod_RMS_Derivative-OPLS-2005>
2.6590461730957

$$$$
77
                    3D
 Structure written by MMmdl.
142150  0  0  1  0            999 V2000
  -30.3472  -15.4788   20.3469 C   0  0  0  0  0  0
  -30.4339  -12.9638   19.5379 C   0  0  0  0  0  0
  -29.5457  -12.6210   18.3105 C   0  0  0  0  0  0
  -28.1069  -12.2984   18.7455 C   0  0  0  0  0  0
  -27.6023  -13.2925   19.8178 C   0  0  2  0  0  0
  -28.6257  -13.5542   20.9454 C   0  0  0  0  0  0
  -25.2348  -13.8266   20.5769 C   0  0  0  0  0  0
  -24.1723  -13.0433   20.9278 C   0  0  0  0  0  0
  -24.6405  -11.6938   20.8767 C   0  0  0  0  0  0
  -23.9105  -10.4291   21.0404 C   0  0  0  0  0  0
  -24.3645   -9.4204   21.9184 C   0  0  0  0  0  0
  -23.6309   -8.2244   22.0754 C   0  0  0  0  0  0
  -22.4290   -8.0285   21.3544 C   0  0  0  0  0  0
  -21.9934   -9.0260   20.4644 C   0  0  0  0  0  0
  -22.7274  -10.2134   20.3053 C   0  0  0  0  0  0
  -21.6857   -6.0740   22.5279 C   0  0  0  0  0  0
  -21.4017   -6.5643   23.8212 C   0  0  0  0  0  0
  -21.3659   -5.6794   24.9174 C   0  0  0  0  0  0
  -21.6043   -4.3057   24.7224 C   0  0  0  0  0  0
  -21.8818   -3.8150   23.4345 C   0  0  0  0  0  0
  -21.9194   -4.6967   22.3402 C   0  0  0  0  0  0
  -22.7738  -13.5173   21.1917 C   0  0  0  0  0  0
  -22.1662   -4.2152   21.0979 F   0  0  0  0  0  0
  -21.5628   -3.4540   25.7737 F   0  0  0  0  0  0
  -29.8250  -14.1303   20.3046 N   0  0  0  0  0  0
  -26.2784  -12.9569   20.3220 N   0  0  0  0  0  0
  -25.9345  -11.6657   20.5711 N   0  0  0  0  0  0
  -22.0402  -12.8151   22.0469 N   0  0  0  0  0  0
  -25.3951  -15.2005   20.4199 N   0  0  0  0  0  0
  -31.5757  -15.4619   20.1573 O   0  0  0  0  0  0
  -21.6646   -6.8886   21.4242 O   0  0  0  0  0  0
  -22.3415  -14.5473   20.6755 O   0  0  0  0  0  0
  -24.6745  -31.8088   23.1588 C   0  0  0  0  0  0
  -25.9370  -32.4509   23.8100 C   0  0  1  0  0  0
  -27.2231  -26.7847   20.2120 C   0  0  0  0  0  0
  -25.5986  -33.8331   24.1993 N   0  0  0  0  0  0
  -23.4962  -30.4131   21.5105 C   0  0  2  0  0  0
  -24.9515  -28.7662   20.1199 C   0  0  0  0  0  0
  -22.7720  -29.4360   22.4744 C   0  0  0  0  0  0
  -18.0329  -28.1414   22.8461 C   0  0  0  0  0  0
  -24.1494  -36.7172   23.2651 C   0  0  0  0  0  0
  -26.0713  -30.5663   21.4129 C   0  0  0  0  0  0
  -26.1351  -29.1378   20.7682 C   0  0  0  0  0  0
  -27.2560  -28.1702   20.7884 C   0  0  0  0  0  0
  -26.0120  -26.6021   19.5014 C   0  0  0  0  0  0
  -24.9226  -27.5214   19.4666 C   0  0  0  0  0  0
  -23.7453  -29.7135   20.1434 C   0  0  0  0  0  0
  -25.4141  -36.2920   24.0288 C   0  0  1  0  0  0
  -20.5960  -28.3766   23.1163 C   0  0  2  0  0  0
  -20.6799  -26.9435   22.5404 C   0  0  0  0  0  0
  -19.5775  -26.6372   21.5215 C   0  0  0  0  0  0
  -18.1958  -26.7945   22.1621 C   0  0  0  0  0  0
  -19.1594  -28.8914   23.2794 C   0  0  0  0  0  0
  -18.9502  -30.1500   23.8835 C   0  0  0  0  0  0
  -17.6493  -30.6601   24.0552 C   0  0  0  0  0  0
  -25.9116  -34.9308   23.4972 C   0  0  0  0  0  0
  -16.5383  -29.9085   23.6348 C   0  0  0  0  0  0
  -16.7310  -28.6506   23.0365 C   0  0  0  0  0  0
  -26.4580  -31.6513   25.0689 C   0  0  0  0  0  0
  -25.3670  -31.3805   26.1320 C   0  0  0  0  0  0
  -27.0505  -30.2863   24.6532 C   0  0  0  0  0  0
  -27.6041  -32.4361   25.7502 C   0  0  0  0  0  0
  -27.5566  -37.1739   24.8465 C   0  0  0  0  0  0
  -21.4377  -29.3030   22.3495 N   0  0  0  0  0  0
  -26.4271  -37.3674   23.9411 N   0  0  0  0  0  0
  -24.7698  -30.9612   22.0800 N   0  0  0  0  0  0
  -23.4205  -28.7952   23.3051 O   0  0  0  0  0  0
  -28.2502  -25.6527   20.2332 O   0  0  0  0  0  0
  -26.5747  -34.8871   22.4583 O   0  0  0  0  0  0
  -23.5786  -32.1129   23.6595 O   0  0  0  0  0  0
  -28.5650  -22.8650   20.2782 C   0  0  0  0  0  0
  -28.2887  -24.1631   20.2598 C   0  0  0  0  0  0
  -28.8412  -19.7564   20.3703 C   0  0  0  0  0  0
  -30.6327  -21.2834   20.1285 C   0  0  0  0  0  0
  -31.0700  -18.9068   20.1732 C   0  0  0  0  0  0
  -29.2256  -21.2881   20.2715 C   0  0  0  0  0  0
  -29.7455  -18.4525   20.3273 C   0  0  0  0  0  0
  -31.4732  -20.2060   20.0833 N   0  0  0  0  0  0
  -29.5528  -16.7850   20.4104 N   0  0  0  0  0  0
  -31.4382  -13.2064   19.1883 H   0  0  0  0  0  0
  -30.5576  -12.0924   20.1832 H   0  0  0  0  0  0
  -29.9683  -11.7836   17.7536 H   0  0  0  0  0  0
  -29.5356  -13.4711   17.6268 H   0  0  0  0  0  0
  -28.1030  -11.2878   19.1556 H   0  0  0  0  0  0
  -27.4378  -12.2838   17.8843 H   0  0  0  0  0  0
  -27.4881  -14.2349   19.2803 H   0  0  0  0  0  0
  -28.8473  -12.6469   21.5095 H   0  0  0  0  0  0
  -28.2226  -14.2724   21.6610 H   0  0  0  0  0  0
  -25.2784   -9.5679   22.4768 H   0  0  0  0  0  0
  -24.0010   -7.4636   22.7480 H   0  0  0  0  0  0
  -21.0863   -8.8787   19.8952 H   0  0  0  0  0  0
  -22.3731  -10.9677   19.6167 H   0  0  0  0  0  0
  -21.2012   -7.6151   23.9716 H   0  0  0  0  0  0
  -21.1481   -6.0524   25.9076 H   0  0  0  0  0  0
  -22.0597   -2.7612   23.2844 H   0  0  0  0  0  0
  -22.4040  -11.9822   22.4858 H   0  0  0  0  0  0
  -21.1011  -13.1151   22.2674 H   0  0  0  0  0  0
  -24.6203  -15.8461   20.5289 H   0  0  0  0  0  0
  -26.2274  -15.6416   20.0520 H   0  0  0  0  0  0
  -26.7443  -32.5003   23.0807 H   0  0  0  0  0  0
  -25.0056  -33.9384   25.0093 H   0  0  0  0  0  0
  -22.8171  -31.2481   21.3262 H   0  0  0  0  0  0
  -23.3776  -35.9479   23.3258 H   0  0  0  0  0  0
  -24.3568  -36.8885   22.2076 H   0  0  0  0  0  0
  -23.7230  -37.6328   23.6757 H   0  0  0  0  0  0
  -26.2659  -31.2936   20.6237 H   0  0  0  0  0  0
  -26.9261  -30.6325   22.0737 H   0  0  0  0  0  0
  -28.1536  -28.4622   21.3152 H   0  0  0  0  0  0
  -25.8743  -25.6613   18.9873 H   0  0  0  0  0  0
  -24.0285  -27.2318   18.9316 H   0  0  0  0  0  0
  -23.9150  -30.4745   19.3809 H   0  0  0  0  0  0
  -22.8517  -29.1755   19.8221 H   0  0  0  0  0  0
  -25.1345  -36.1692   25.0778 H   0  0  0  0  0  0
  -21.0043  -28.3383   24.1289 H   0  0  0  0  0  0
  -20.5667  -26.2387   23.3656 H   0  0  0  0  0  0
  -21.6661  -26.7390   22.1218 H   0  0  0  0  0  0
  -19.6932  -25.6267   21.1284 H   0  0  0  0  0  0
  -19.6718  -27.3149   20.6718 H   0  0  0  0  0  0
  -17.4227  -26.6687   21.4024 H   0  0  0  0  0  0
  -18.0350  -26.0101   22.9031 H   0  0  0  0  0  0
  -19.7977  -30.7333   24.2177 H   0  0  0  0  0  0
  -17.5044  -31.6275   24.5165 H   0  0  0  0  0  0
  -15.5381  -30.2967   23.7707 H   0  0  0  0  0  0
  -15.8711  -28.0804   22.7117 H   0  0  0  0  0  0
  -24.5874  -30.7134   25.7622 H   0  0  0  0  0  0
  -24.8838  -32.3019   26.4578 H   0  0  0  0  0  0
  -25.7869  -30.9078   27.0207 H   0  0  0  0  0  0
  -26.3207  -29.6493   24.1524 H   0  0  0  0  0  0
  -27.3965  -29.7286   25.5245 H   0  0  0  0  0  0
  -27.9174  -30.4010   24.0023 H   0  0  0  0  0  0
  -27.2585  -33.3723   26.1900 H   0  0  0  0  0  0
  -28.3942  -32.6827   25.0398 H   0  0  0  0  0  0
  -28.0608  -31.8612   26.5567 H   0  0  0  0  0  0
  -28.2547  -38.0069   24.7526 H   0  0  0  0  0  0
  -28.1098  -36.2593   24.6275 H   0  0  0  0  0  0
  -27.2283  -37.1354   25.8866 H   0  0  0  0  0  0
  -20.9664  -29.8695   21.6580 H   0  0  0  0  0  0
  -26.0105  -38.2722   24.1435 H   0  0  0  0  0  0
  -27.7845  -19.5680   20.4861 H   0  0  0  0  0  0
  -31.1464  -22.2300   20.0411 H   0  0  0  0  0  0
  -31.8726  -18.1867   20.1182 H   0  0  0  0  0  0
  -28.5795  -16.5418   20.5257 H   0  0  0  0  0  0
  1 25  1  0  0  0
  1 30  2  0  0  0
  1 79  1  0  0  0
  2  3  1  0  0  0
  2 25  1  0  0  0
  2 80  1  0  0  0
  2 81  1  0  0  0
  3  4  1  0  0  0
  3 82  1  0  0  0
  3 83  1  0  0  0
  4  5  1  0  0  0
  4 84  1  0  0  0
  4 85  1  0  0  0
  5  6  1  0  0  0
  5 26  1  0  0  0
  5 86  1  0  0  0
  6 25  1  0  0  0
  6 87  1  0  0  0
  6 88  1  0  0  0
  7  8  2  0  0  0
  7 26  1  0  0  0
  7 29  1  0  0  0
  8  9  1  0  0  0
  8 22  1  0  0  0
  9 10  1  0  0  0
  9 27  2  0  0  0
 10 11  2  0  0  0
 10 15  1  0  0  0
 11 12  1  0  0  0
 11 89  1  0  0  0
 12 13  2  0  0  0
 12 90  1  0  0  0
 13 14  1  0  0  0
 13 31  1  0  0  0
 14 15  2  0  0  0
 14 91  1  0  0  0
 15 92  1  0  0  0
 16 17  2  0  0  0
 16 21  1  0  0  0
 16 31  1  0  0  0
 17 18  1  0  0  0
 17 93  1  0  0  0
 18 19  2  0  0  0
 18 94  1  0  0  0
 19 20  1  0  0  0
 19 24  1  0  0  0
 20 21  2  0  0  0
 20 95  1  0  0  0
 21 23  1  0  0  0
 22 28  1  0  0  0
 22 32  2  0  0  0
 26 27  1  0  0  0
 28 96  1  0  0  0
 28 97  1  0  0  0
 29 98  1  0  0  0
 29 99  1  0  0  0
 33 34  1  0  0  0
 33 66  1  0  0  0
 33 70  2  0  0  0
 34 36  1  0  0  0
 34 59  1  0  0  0
 34100  1  0  0  0
 35 44  2  0  0  0
 35 45  1  0  0  0
 35 68  1  0  0  0
 36 56  1  0  0  0
 36101  1  0  0  0
 37 39  1  0  0  0
 37 47  1  0  0  0
 37 66  1  0  0  0
 37102  1  0  0  0
 38 43  2  0  0  0
 38 46  1  0  0  0
 38 47  1  0  0  0
 39 64  1  0  0  0
 39 67  2  0  0  0
 40 52  1  0  0  0
 40 53  2  0  0  0
 40 58  1  0  0  0
 41103  1  0  0  0
 41104  1  0  0  0
 41105  1  0  0  0
 41 48  1  0  0  0
 42 43  1  0  0  0
 42 66  1  0  0  0
 42106  1  0  0  0
 42107  1  0  0  0
 43 44  1  0  0  0
 44108  1  0  0  0
 45 46  2  0  0  0
 45109  1  0  0  0
 46110  1  0  0  0
 47111  1  0  0  0
 47112  1  0  0  0
 48 56  1  0  0  0
 48 65  1  0  0  0
 48113  1  0  0  0
 49 50  1  0  0  0
 49 53  1  0  0  0
 49 64  1  0  0  0
 49114  1  0  0  0
 50 51  1  0  0  0
 50115  1  0  0  0
 50116  1  0  0  0
 51 52  1  0  0  0
 51117  1  0  0  0
 51118  1  0  0  0
 52119  1  0  0  0
 52120  1  0  0  0
 53 54  1  0  0  0
 54 55  2  0  0  0
 54121  1  0  0  0
 55 57  1  0  0  0
 55122  1  0  0  0
 56 69  2  0  0  0
 57 58  2  0  0  0
 57123  1  0  0  0
 58124  1  0  0  0
 59 60  1  0  0  0
 59 61  1  0  0  0
 59 62  1  0  0  0
 60125  1  0  0  0
 60126  1  0  0  0
 60127  1  0  0  0
 61128  1  0  0  0
 61129  1  0  0  0
 61130  1  0  0  0
 62131  1  0  0  0
 62132  1  0  0  0
 62133  1  0  0  0
 63 65  1  0  0  0
 63134  1  0  0  0
 63135  1  0  0  0
 63136  1  0  0  0
 64137  1  0  0  0
 65138  1  0  0  0
 68 72  1  0  0  0
 71 72  3  0  0  0
 71 76  1  0  0  0
 73 76  2  0  0  0
 73 77  1  0  0  0
 73139  1  0  0  0
 74 76  1  0  0  0
 74 78  2  0  0  0
 74140  1  0  0  0
 75 77  2  0  0  0
 75 78  1  0  0  0
 75141  1  0  0  0
 77 79  1  0  0  0
 79142  1  0  0  0
M  ISO  4   1 100  68 101  72 101  79 100
M  END
> <chiral flag>
0

> <version>
0

> <s_m_source_file>
/data/baiqing/PycharmProjects/Reinvent-master-3.2/result/LINK_invent/BTK/process_docking_weight1_custom_product_contain_oxygen_bond_distance_aromatic_linkinvent_7_9_3/rearranged_h_0094.sdf

> <i_m_source_file_index>
78

> <r_mmod_Potential_Energy-OPLS-2005>
1460.11279296875

> <r_mmod_Stretch_Energy-OPLS-2005>
726.712280273438

> <r_mmod_Bend_Energy-OPLS-2005>
438.411102294922

> <r_mmod_Torsional_Energy-OPLS-2005>
204.737991333008

> <r_mmod_Improper_Torsional_Energy-OPLS-2005>
3.75893950462341

> <r_mmod_Van_der_Waal_Energy-OPLS-2005>
124.584922790527

> <r_mmod_Electrostatic_Energy-OPLS-2005>
-500.299591064453

> <r_mmod_Solvation_Energy-OPLS-2005>
-232.313278198242

> <b_mmod_Minimization_Converged-OPLS-2005>
0

> <r_mmod_RMS_Derivative-OPLS-2005>
0.162027254700661

$$$$
78
                    3D
 Structure written by MMmdl.
159168  0  0  1  0            999 V2000
  -30.6847  -14.5371   20.4898 C   0  0  0  0  0  0
  -30.4237  -12.3168   19.4448 C   0  0  0  0  0  0
  -29.4989  -12.4299   18.2151 C   0  0  0  0  0  0
  -28.0157  -12.3303   18.6280 C   0  0  0  0  0  0
  -27.6509  -13.2067   19.8581 C   0  0  2  0  0  0
  -28.6975  -13.0635   20.9862 C   0  0  0  0  0  0
  -25.2573  -13.8159   20.5682 C   0  0  0  0  0  0
  -24.1830  -13.0435   20.9190 C   0  0  0  0  0  0
  -24.6387  -11.6904   20.8758 C   0  0  0  0  0  0
  -23.9054  -10.4289   21.0420 C   0  0  0  0  0  0
  -24.3610   -9.4205   21.9195 C   0  0  0  0  0  0
  -23.6291   -8.2236   22.0761 C   0  0  0  0  0  0
  -22.4276   -8.0279   21.3547 C   0  0  0  0  0  0
  -21.9910   -9.0251   20.4648 C   0  0  0  0  0  0
  -22.7233  -10.2129   20.3066 C   0  0  0  0  0  0
  -21.6849   -6.0738   22.5278 C   0  0  0  0  0  0
  -21.4009   -6.5642   23.8210 C   0  0  0  0  0  0
  -21.3656   -5.6797   24.9173 C   0  0  0  0  0  0
  -21.6043   -4.3061   24.7225 C   0  0  0  0  0  0
  -21.8821   -3.8153   23.4346 C   0  0  0  0  0  0
  -21.9187   -4.6967   22.3400 C   0  0  0  0  0  0
  -22.7857  -13.5237   21.1855 C   0  0  0  0  0  0
  -22.1659   -4.2155   21.0979 F   0  0  0  0  0  0
  -21.5626   -3.4544   25.7736 F   0  0  0  0  0  0
  -30.0151  -13.3521   20.4075 N   0  0  0  0  0  0
  -26.2984  -12.9316   20.3331 N   0  0  0  0  0  0
  -25.9308  -11.6484   20.5795 N   0  0  0  0  0  0
  -22.0493  -12.8222   22.0400 N   0  0  0  0  0  0
  -25.4308  -15.1873   20.4076 N   0  0  0  0  0  0
  -31.8741  -14.6354   20.1745 O   0  0  0  0  0  0
  -21.6636   -6.8881   21.4243 O   0  0  0  0  0  0
  -22.3545  -14.5550   20.6708 O   0  0  0  0  0  0
  -24.6153  -31.8679   23.2111 C   0  0  0  0  0  0
  -25.9043  -32.4824   23.8410 C   0  0  1  0  0  0
  -27.2239  -27.4062   20.0915 C   0  0  0  0  0  0
  -25.5896  -33.8626   24.2328 N   0  0  0  0  0  0
  -23.4034  -30.4938   21.5518 C   0  0  2  0  0  0
  -24.8468  -28.9605   20.1116 C   0  0  0  0  0  0
  -22.7402  -29.4663   22.4981 C   0  0  0  0  0  0
  -18.0261  -28.1383   22.8511 C   0  0  0  0  0  0
  -24.1478  -36.7310   23.2643 C   0  0  0  0  0  0
  -25.9348  -30.8223   21.3695 C   0  0  0  0  0  0
  -26.0073  -29.4533   20.7190 C   0  0  0  0  0  0
  -27.1927  -28.6776   20.7188 C   0  0  0  0  0  0
  -26.0430  -26.9433   19.4712 C   0  0  0  0  0  0
  -24.8600  -27.7030   19.4874 C   0  0  0  0  0  0
  -23.6122  -29.8328   20.1638 C   0  0  0  0  0  0
  -25.4102  -36.3108   24.0335 C   0  0  1  0  0  0
  -20.5849  -28.3684   23.1319 C   0  0  2  0  0  0
  -20.6754  -26.9420   22.5430 C   0  0  0  0  0  0
  -19.5727  -26.6401   21.5227 C   0  0  0  0  0  0
  -18.1906  -26.7933   22.1636 C   0  0  0  0  0  0
  -19.1509  -28.8843   23.2922 C   0  0  0  0  0  0
  -18.9445  -30.1447   23.8940 C   0  0  0  0  0  0
  -17.6449  -30.6598   24.0575 C   0  0  0  0  0  0
  -25.9041  -34.9475   23.5130 C   0  0  0  0  0  0
  -16.5339  -29.9107   23.6325 C   0  0  0  0  0  0
  -16.7254  -28.6515   23.0363 C   0  0  0  0  0  0
  -26.4467  -31.6596   25.0736 C   0  0  0  0  0  0
  -25.3732  -31.3673   26.1471 C   0  0  0  0  0  0
  -27.0305  -30.3044   24.6111 C   0  0  0  0  0  0
  -27.6049  -32.4308   25.7499 C   0  0  0  0  0  0
  -27.5567  -37.1805   24.8468 C   0  0  0  0  0  0
  -21.4122  -29.3052   22.3722 N   0  0  0  0  0  0
  -26.4280  -37.3793   23.9413 N   0  0  0  0  0  0
  -24.6701  -31.0757   22.1030 N   0  0  0  0  0  0
  -23.4166  -28.8190   23.3021 O   0  0  0  0  0  0
  -28.3906  -26.6571   20.1233 O   0  0  0  0  0  0
  -26.5616  -34.8920   22.4701 O   0  0  0  0  0  0
  -23.5347  -32.1445   23.7503 O   0  0  0  0  0  0
  -28.2011  -18.4801   21.7415 C   0  0  0  0  0  0
  -30.3041  -18.8154   20.5818 C   0  0  0  0  0  0
  -27.8282  -19.8134   21.4403 C   0  0  0  0  0  0
  -29.9288  -20.1460   20.2773 C   0  0  0  0  0  0
  -26.9718  -23.5054   19.1830 C   0  0  0  0  0  0
  -29.4273  -17.9471   21.2787 C   0  0  0  0  0  0
  -28.1800  -24.1551   19.5822 C   0  0  0  0  0  0
  -28.6717  -20.6561   20.6750 C   0  0  0  0  0  0
  -27.0267  -22.1994   19.5741 C   0  0  0  0  0  0
  -28.8982  -23.1771   20.2460 C   0  0  0  0  0  0
  -29.7912  -16.4879   21.5281 C   0  0  0  0  0  0
  -29.6255  -16.1686   19.0965 C   0  0  0  0  0  0
  -28.6027  -25.5816   19.1826 C   0  0  0  0  0  0
  -28.2266  -21.9457   20.2229 N   0  0  0  0  0  0
  -29.9073  -15.6547   20.4517 N   0  0  0  0  0  0
  -29.9443  -16.1176   22.6975 O   0  0  0  0  0  0
  -26.1177  -21.2117   19.3408 O   0  0  0  0  0  0
  -30.1290  -23.2737   20.8245 O   0  0  0  0  0  0
  -31.4671  -12.4130   19.1392 H   0  0  0  0  0  0
  -30.3352  -11.3296   19.9012 H   0  0  0  0  0  0
  -29.7333  -11.6351   17.5060 H   0  0  0  0  0  0
  -29.6840  -13.3575   17.6781 H   0  0  0  0  0  0
  -27.8182  -11.2823   18.8558 H   0  0  0  0  0  0
  -27.3721  -12.5805   17.7838 H   0  0  0  0  0  0
  -27.6643  -14.2394   19.5149 H   0  0  0  0  0  0
  -28.6849  -12.0547   21.4007 H   0  0  0  0  0  0
  -28.4705  -13.7368   21.8147 H   0  0  0  0  0  0
  -25.2755   -9.5679   22.4769 H   0  0  0  0  0  0
  -23.9999   -7.4629   22.7480 H   0  0  0  0  0  0
  -21.0842   -8.8774   19.8952 H   0  0  0  0  0  0
  -22.3704  -10.9672   19.6178 H   0  0  0  0  0  0
  -21.2006   -7.6151   23.9717 H   0  0  0  0  0  0
  -21.1473   -6.0525   25.9073 H   0  0  0  0  0  0
  -22.0603   -2.7617   23.2843 H   0  0  0  0  0  0
  -22.4101  -11.9875   22.4776 H   0  0  0  0  0  0
  -21.1117  -13.1260   22.2610 H   0  0  0  0  0  0
  -24.6634  -15.8429   20.5073 H   0  0  0  0  0  0
  -26.2794  -15.6212   20.0677 H   0  0  0  0  0  0
  -26.7118  -32.5516   23.1176 H   0  0  0  0  0  0
  -24.9995  -33.9814   25.0434 H   0  0  0  0  0  0
  -22.6929  -31.3123   21.4163 H   0  0  0  0  0  0
  -23.3742  -35.9643   23.3322 H   0  0  0  0  0  0
  -24.3567  -36.8916   22.2054 H   0  0  0  0  0  0
  -23.7237  -37.6518   23.6651 H   0  0  0  0  0  0
  -26.0501  -31.5841   20.5980 H   0  0  0  0  0  0
  -26.8226  -30.8781   21.9868 H   0  0  0  0  0  0
  -28.0838  -29.0538   21.2013 H   0  0  0  0  0  0
  -26.0080  -25.9923   18.9731 H   0  0  0  0  0  0
  -23.9687  -27.3178   19.0109 H   0  0  0  0  0  0
  -23.7251  -30.6133   19.4104 H   0  0  0  0  0  0
  -22.7338  -29.2588   19.8646 H   0  0  0  0  0  0
  -25.1277  -36.1973   25.0831 H   0  0  0  0  0  0
  -20.9950  -28.3261   24.1432 H   0  0  0  0  0  0
  -20.5658  -26.2300   23.3622 H   0  0  0  0  0  0
  -21.6626  -26.7453   22.1218 H   0  0  0  0  0  0
  -19.6895  -25.6320   21.1239 H   0  0  0  0  0  0
  -19.6652  -27.3236   20.6776 H   0  0  0  0  0  0
  -17.4171  -26.6691   21.4044 H   0  0  0  0  0  0
  -18.0302  -26.0068   22.9022 H   0  0  0  0  0  0
  -19.7921  -30.7256   24.2326 H   0  0  0  0  0  0
  -17.5005  -31.6274   24.5187 H   0  0  0  0  0  0
  -15.5349  -30.3029   23.7614 H   0  0  0  0  0  0
  -15.8651  -28.0846   22.7062 H   0  0  0  0  0  0
  -24.5962  -30.6961   25.7788 H   0  0  0  0  0  0
  -24.8858  -32.2803   26.4895 H   0  0  0  0  0  0
  -25.8096  -30.8865   27.0239 H   0  0  0  0  0  0
  -26.2847  -29.6806   24.1166 H   0  0  0  0  0  0
  -27.4079  -29.7269   25.4564 H   0  0  0  0  0  0
  -27.8677  -30.4372   23.9259 H   0  0  0  0  0  0
  -27.2697  -33.3626   26.2067 H   0  0  0  0  0  0
  -28.3862  -32.6839   25.0322 H   0  0  0  0  0  0
  -28.0706  -31.8433   26.5419 H   0  0  0  0  0  0
  -28.2588  -38.0094   24.7509 H   0  0  0  0  0  0
  -28.1050  -36.2626   24.6294 H   0  0  0  0  0  0
  -27.2287  -37.1464   25.8872 H   0  0  0  0  0  0
  -20.9269  -29.8800   21.6976 H   0  0  0  0  0  0
  -26.0161  -38.2869   24.1425 H   0  0  0  0  0  0
  -27.5170  -17.8511   22.2951 H   0  0  0  0  0  0
  -31.2642  -18.4508   20.2434 H   0  0  0  0  0  0
  -26.8608  -20.1744   21.7592 H   0  0  0  0  0  0
  -30.5975  -20.7664   19.6971 H   0  0  0  0  0  0
  -26.1644  -23.9276   18.6033 H   0  0  0  0  0  0
  -28.7125  -16.7654   19.0647 H   0  0  0  0  0  0
  -29.4740  -15.3719   18.3731 H   0  0  0  0  0  0
  -30.4530  -16.7750   18.7261 H   0  0  0  0  0  0
  -28.1708  -25.8278   18.2120 H   0  0  0  0  0  0
  -29.6761  -25.5456   18.9993 H   0  0  0  0  0  0
  -25.4120  -21.5782   18.8169 H   0  0  0  0  0  0
  -30.3803  -24.1917   20.8307 H   0  0  0  0  0  0
  1 25  1  0  0  0
  1 30  2  0  0  0
  1 85  1  0  0  0
  2  3  1  0  0  0
  2 25  1  0  0  0
  2 89  1  0  0  0
  2 90  1  0  0  0
  3  4  1  0  0  0
  3 91  1  0  0  0
  3 92  1  0  0  0
  4  5  1  0  0  0
  4 93  1  0  0  0
  4 94  1  0  0  0
  5  6  1  0  0  0
  5 26  1  0  0  0
  5 95  1  0  0  0
  6 25  1  0  0  0
  6 96  1  0  0  0
  6 97  1  0  0  0
  7  8  2  0  0  0
  7 26  1  0  0  0
  7 29  1  0  0  0
  8  9  1  0  0  0
  8 22  1  0  0  0
  9 10  1  0  0  0
  9 27  2  0  0  0
 10 11  2  0  0  0
 10 15  1  0  0  0
 11 12  1  0  0  0
 11 98  1  0  0  0
 12 13  2  0  0  0
 12 99  1  0  0  0
 13 14  1  0  0  0
 13 31  1  0  0  0
 14 15  2  0  0  0
 14100  1  0  0  0
 15101  1  0  0  0
 16 17  2  0  0  0
 16 21  1  0  0  0
 16 31  1  0  0  0
 17 18  1  0  0  0
 17102  1  0  0  0
 18 19  2  0  0  0
 18103  1  0  0  0
 19 20  1  0  0  0
 19 24  1  0  0  0
 20 21  2  0  0  0
 20104  1  0  0  0
 21 23  1  0  0  0
 22 28  1  0  0  0
 22 32  2  0  0  0
 26 27  1  0  0  0
 28105  1  0  0  0
 28106  1  0  0  0
 29107  1  0  0  0
 29108  1  0  0  0
 33 34  1  0  0  0
 33 66  1  0  0  0
 33 70  2  0  0  0
 34 36  1  0  0  0
 34 59  1  0  0  0
 34109  1  0  0  0
 35 44  2  0  0  0
 35 45  1  0  0  0
 35 68  1  0  0  0
 36 56  1  0  0  0
 36110  1  0  0  0
 37 39  1  0  0  0
 37 47  1  0  0  0
 37 66  1  0  0  0
 37111  1  0  0  0
 38 43  2  0  0  0
 38 46  1  0  0  0
 38 47  1  0  0  0
 39 64  1  0  0  0
 39 67  2  0  0  0
 40 52  1  0  0  0
 40 53  2  0  0  0
 40 58  1  0  0  0
 41112  1  0  0  0
 41113  1  0  0  0
 41114  1  0  0  0
 41 48  1  0  0  0
 42 43  1  0  0  0
 42 66  1  0  0  0
 42115  1  0  0  0
 42116  1  0  0  0
 43 44  1  0  0  0
 44117  1  0  0  0
 45 46  2  0  0  0
 45118  1  0  0  0
 46119  1  0  0  0
 47120  1  0  0  0
 47121  1  0  0  0
 48 56  1  0  0  0
 48 65  1  0  0  0
 48122  1  0  0  0
 49 50  1  0  0  0
 49 53  1  0  0  0
 49 64  1  0  0  0
 49123  1  0  0  0
 50 51  1  0  0  0
 50124  1  0  0  0
 50125  1  0  0  0
 51 52  1  0  0  0
 51126  1  0  0  0
 51127  1  0  0  0
 52128  1  0  0  0
 52129  1  0  0  0
 53 54  1  0  0  0
 54 55  2  0  0  0
 54130  1  0  0  0
 55 57  1  0  0  0
 55131  1  0  0  0
 56 69  2  0  0  0
 57 58  2  0  0  0
 57132  1  0  0  0
 58133  1  0  0  0
 59 60  1  0  0  0
 59 61  1  0  0  0
 59 62  1  0  0  0
 60134  1  0  0  0
 60135  1  0  0  0
 60136  1  0  0  0
 61137  1  0  0  0
 61138  1  0  0  0
 61139  1  0  0  0
 62140  1  0  0  0
 62141  1  0  0  0
 62142  1  0  0  0
 63 65  1  0  0  0
 63143  1  0  0  0
 63144  1  0  0  0
 63145  1  0  0  0
 64146  1  0  0  0
 65147  1  0  0  0
 68 83  1  0  0  0
 71 73  2  0  0  0
 71 76  1  0  0  0
 71148  1  0  0  0
 72 74  1  0  0  0
 72 76  2  0  0  0
 72149  1  0  0  0
 73 78  1  0  0  0
 73150  1  0  0  0
 74 78  2  0  0  0
 74151  1  0  0  0
 75 77  1  0  0  0
 75 79  2  0  0  0
 75152  1  0  0  0
 76 81  1  0  0  0
 77 80  2  0  0  0
 77 83  1  0  0  0
 78 84  1  0  0  0
 79 84  1  0  0  0
 79 87  1  0  0  0
 80 84  1  0  0  0
 80 88  1  0  0  0
 81 85  1  0  0  0
 81 86  2  0  0  0
 82 85  1  0  0  0
 82153  1  0  0  0
 82154  1  0  0  0
 82155  1  0  0  0
 83156  1  0  0  0
 83157  1  0  0  0
 87158  1  0  0  0
 88159  1  0  0  0
M  ISO  4   1 100  68 101  83 101  85 100
M  END
> <chiral flag>
0

> <version>
0

> <s_m_source_file>
/data/baiqing/PycharmProjects/Reinvent-master-3.2/result/LINK_invent/BTK/process_docking_weight1_custom_product_contain_oxygen_bond_distance_aromatic_linkinvent_7_9_3/rearranged_h_0094.sdf

> <i_m_source_file_index>
79

> <r_mmod_Potential_Energy-OPLS-2005>
202.955474853516

> <r_mmod_Stretch_Energy-OPLS-2005>
47.4103736877441

> <r_mmod_Bend_Energy-OPLS-2005>
113.610847473145

> <r_mmod_Torsional_Energy-OPLS-2005>
354.006256103516

> <r_mmod_Improper_Torsional_Energy-OPLS-2005>
17.2549209594727

> <r_mmod_Van_der_Waal_Energy-OPLS-2005>
152.783828735352

> <r_mmod_Electrostatic_Energy-OPLS-2005>
-287.345916748047

> <r_mmod_Solvation_Energy-OPLS-2005>
-220.583969116211

> <b_mmod_Minimization_Converged-OPLS-2005>
0

> <r_mmod_RMS_Derivative-OPLS-2005>
1.3172367811203

$$$$
79
                    3D
 Structure written by MMmdl.
162171  0  0  1  0            999 V2000
  -30.6116  -14.7495   20.4005 C   0  0  0  0  0  0
  -30.4329  -12.4547   19.4476 C   0  0  0  0  0  0
  -29.4893  -12.4306   18.2234 C   0  0  0  0  0  0
  -28.0184  -12.2931   18.6558 C   0  0  0  0  0  0
  -27.6313  -13.2262   19.8354 C   0  0  2  0  0  0
  -28.6860  -13.1995   20.9592 C   0  0  0  0  0  0
  -25.2498  -13.8196   20.5782 C   0  0  0  0  0  0
  -24.1768  -13.0439   20.9244 C   0  0  0  0  0  0
  -24.6346  -11.6914   20.8760 C   0  0  0  0  0  0
  -23.9034  -10.4295   21.0408 C   0  0  0  0  0  0
  -24.3596   -9.4220   21.9184 C   0  0  0  0  0  0
  -23.6284   -8.2250   22.0758 C   0  0  0  0  0  0
  -22.4266   -8.0280   21.3551 C   0  0  0  0  0  0
  -21.9886   -9.0256   20.4653 C   0  0  0  0  0  0
  -22.7209  -10.2141   20.3059 C   0  0  0  0  0  0
  -21.6856   -6.0717   22.5286 C   0  0  0  0  0  0
  -21.4011   -6.5628   23.8216 C   0  0  0  0  0  0
  -21.3654   -5.6796   24.9186 C   0  0  0  0  0  0
  -21.6033   -4.3057   24.7241 C   0  0  0  0  0  0
  -21.8820   -3.8137   23.4368 C   0  0  0  0  0  0
  -21.9201   -4.6943   22.3415 C   0  0  0  0  0  0
  -22.7803  -13.5244   21.1903 C   0  0  0  0  0  0
  -22.1682   -4.2122   21.0996 F   0  0  0  0  0  0
  -21.5616   -3.4541   25.7756 F   0  0  0  0  0  0
  -29.9711  -13.5357   20.3434 N   0  0  0  0  0  0
  -26.2893  -12.9387   20.3309 N   0  0  0  0  0  0
  -25.9279  -11.6533   20.5777 N   0  0  0  0  0  0
  -22.0442  -12.8230   22.0447 N   0  0  0  0  0  0
  -25.4246  -15.1912   20.4285 N   0  0  0  0  0  0
  -31.8458  -14.7760   20.3738 O   0  0  0  0  0  0
  -21.6651   -6.8863   21.4247 O   0  0  0  0  0  0
  -22.3509  -14.5562   20.6763 O   0  0  0  0  0  0
  -24.6293  -31.8598   23.1969 C   0  0  0  0  0  0
  -25.9156  -32.4757   23.8304 C   0  0  1  0  0  0
  -27.1867  -27.2803   20.1482 C   0  0  0  0  0  0
  -25.5980  -33.8562   24.2250 N   0  0  0  0  0  0
  -23.4180  -30.4833   21.5428 C   0  0  2  0  0  0
  -24.8549  -28.9264   20.1153 C   0  0  0  0  0  0
  -22.7468  -29.4624   22.4921 C   0  0  0  0  0  0
  -18.0289  -28.1383   22.8509 C   0  0  0  0  0  0
  -24.1472  -36.7248   23.2626 C   0  0  0  0  0  0
  -25.9602  -30.7787   21.3704 C   0  0  0  0  0  0
  -26.0252  -29.3992   20.7243 C   0  0  0  0  0  0
  -27.1989  -28.5870   20.7286 C   0  0  0  0  0  0
  -25.9999  -26.8626   19.5138 C   0  0  0  0  0  0
  -24.8420  -27.6644   19.5005 C   0  0  0  0  0  0
  -23.6304  -29.8166   20.1586 C   0  0  0  0  0  0
  -25.4126  -36.3068   24.0304 C   0  0  1  0  0  0
  -20.5887  -28.3678   23.1300 C   0  0  2  0  0  0
  -20.6786  -26.9406   22.5422 C   0  0  0  0  0  0
  -19.5756  -26.6392   21.5227 C   0  0  0  0  0  0
  -18.1927  -26.7928   22.1633 C   0  0  0  0  0  0
  -19.1537  -28.8849   23.2902 C   0  0  0  0  0  0
  -18.9467  -30.1459   23.8915 C   0  0  0  0  0  0
  -17.6467  -30.6600   24.0568 C   0  0  0  0  0  0
  -25.9086  -34.9439   23.5085 C   0  0  0  0  0  0
  -16.5363  -29.9109   23.6334 C   0  0  0  0  0  0
  -16.7267  -28.6510   23.0376 C   0  0  0  0  0  0
  -26.4540  -31.6540   25.0667 C   0  0  0  0  0  0
  -25.3765  -31.3686   26.1376 C   0  0  0  0  0  0
  -27.0337  -30.2943   24.6129 C   0  0  0  0  0  0
  -27.6088  -32.4272   25.7462 C   0  0  0  0  0  0
  -27.5562  -37.1789   24.8470 C   0  0  0  0  0  0
  -21.4175  -29.3036   22.3663 N   0  0  0  0  0  0
  -26.4280  -37.3783   23.9405 N   0  0  0  0  0  0
  -24.6887  -31.0598   22.0937 N   0  0  0  0  0  0
  -23.4201  -28.8186   23.3017 O   0  0  0  0  0  0
  -28.2979  -26.4228   20.1033 O   0  0  0  0  0  0
  -26.5612  -34.8911   22.4628 O   0  0  0  0  0  0
  -23.5461  -32.1392   23.7318 O   0  0  0  0  0  0
  -27.8395  -18.9901   19.7555 C   0  0  0  0  0  0
  -28.3047  -17.6620   19.5435 C   0  0  0  0  0  0
  -29.9391  -17.9402   21.2689 C   0  0  0  0  0  0
  -28.4002  -19.8598   20.7281 C   0  0  0  0  0  0
  -29.3854  -17.0834   20.2649 C   0  0  0  0  0  0
  -29.4607  -19.2840   21.4969 C   0  0  0  0  0  0
  -28.3771  -22.4749   20.8044 C   0  0  0  0  0  0
  -27.7123  -23.6923   20.8137 C   0  0  0  0  0  0
  -26.5006  -21.1361   21.5290 C   0  0  0  0  0  0
  -26.1925  -23.6507   20.9230 C   0  0  0  0  0  0
  -25.6840  -22.4305   21.7138 C   0  0  0  0  0  0
  -31.2435  -17.1070   18.0020 C   0  0  0  0  0  0
  -28.3628  -25.1453   20.8805 C   0  0  0  0  0  0
  -30.3317  -15.9017   18.3249 C   0  0  0  0  0  0
  -27.7534  -21.1756   20.9887 N   0  0  0  0  0  0
  -29.9512  -15.8006   19.7609 N   0  0  0  0  0  0
  -25.9734  -20.0906   21.9309 O   0  0  0  0  0  0
  -30.0268  -20.0171   22.4824 F   0  0  0  0  0  0
  -31.4600  -12.6152   19.1171 H   0  0  0  0  0  0
  -30.4282  -11.4965   19.9677 H   0  0  0  0  0  0
  -29.7581  -11.6049   17.5629 H   0  0  0  0  0  0
  -29.5973  -13.3289   17.6204 H   0  0  0  0  0  0
  -27.8719  -11.2532   18.9497 H   0  0  0  0  0  0
  -27.3565  -12.4665   17.8056 H   0  0  0  0  0  0
  -27.6128  -14.2383   19.4296 H   0  0  0  0  0  0
  -28.7269  -12.2192   21.4366 H   0  0  0  0  0  0
  -28.4347  -13.9217   21.7377 H   0  0  0  0  0  0
  -25.2729   -9.5704   22.4763 H   0  0  0  0  0  0
  -23.9999   -7.4635   22.7458 H   0  0  0  0  0  0
  -21.0828   -8.8767   19.8945 H   0  0  0  0  0  0
  -22.3661  -10.9684   19.6174 H   0  0  0  0  0  0
  -21.2004   -7.6134   23.9707 H   0  0  0  0  0  0
  -21.1467   -6.0524   25.9085 H   0  0  0  0  0  0
  -22.0590   -2.7593   23.2885 H   0  0  0  0  0  0
  -22.4092  -11.9909   22.4831 H   0  0  0  0  0  0
  -21.1042  -13.1222   22.2614 H   0  0  0  0  0  0
  -24.6660  -15.8502   20.5613 H   0  0  0  0  0  0
  -26.2967  -15.6331   20.1698 H   0  0  0  0  0  0
  -26.7207  -32.5395   23.1036 H   0  0  0  0  0  0
  -25.0238  -33.9687   25.0472 H   0  0  0  0  0  0
  -22.7155  -31.3060   21.3974 H   0  0  0  0  0  0
  -23.3739  -35.9569   23.3321 H   0  0  0  0  0  0
  -24.3561  -36.8835   22.2031 H   0  0  0  0  0  0
  -23.7207  -37.6462   23.6606 H   0  0  0  0  0  0
  -26.0970  -31.5281   20.5904 H   0  0  0  0  0  0
  -26.8426  -30.8292   21.9961 H   0  0  0  0  0  0
  -28.0999  -28.9482   21.2027 H   0  0  0  0  0  0
  -25.9628  -25.9030   19.0219 H   0  0  0  0  0  0
  -23.9422  -27.3016   19.0188 H   0  0  0  0  0  0
  -23.7526  -30.5851   19.3966 H   0  0  0  0  0  0
  -22.7481  -29.2454   19.8615 H   0  0  0  0  0  0
  -25.1324  -36.1907   25.0788 H   0  0  0  0  0  0
  -20.9990  -28.3246   24.1411 H   0  0  0  0  0  0
  -20.5699  -26.2295   23.3619 H   0  0  0  0  0  0
  -21.6662  -26.7434   22.1216 H   0  0  0  0  0  0
  -19.6920  -25.6307   21.1235 H   0  0  0  0  0  0
  -19.6696  -27.3223   20.6756 H   0  0  0  0  0  0
  -17.4212  -26.6683   21.4003 H   0  0  0  0  0  0
  -18.0305  -26.0078   22.9020 H   0  0  0  0  0  0
  -19.7950  -30.7270   24.2279 H   0  0  0  0  0  0
  -17.5037  -31.6290   24.5173 H   0  0  0  0  0  0
  -15.5365  -30.3042   23.7642 H   0  0  0  0  0  0
  -15.8652  -28.0835   22.7105 H   0  0  0  0  0  0
  -24.5978  -30.6997   25.7705 H   0  0  0  0  0  0
  -24.8913  -32.2843   26.4748 H   0  0  0  0  0  0
  -25.8106  -30.8924   27.0184 H   0  0  0  0  0  0
  -26.2866  -29.6734   24.1160 H   0  0  0  0  0  0
  -27.4016  -29.7196   25.4638 H   0  0  0  0  0  0
  -27.8780  -30.4205   23.9354 H   0  0  0  0  0  0
  -27.2666  -33.3555   26.2062 H   0  0  0  0  0  0
  -28.3902  -32.6851   25.0295 H   0  0  0  0  0  0
  -28.0747  -31.8393   26.5380 H   0  0  0  0  0  0
  -28.2631  -38.0044   24.7536 H   0  0  0  0  0  0
  -28.1013  -36.2585   24.6295 H   0  0  0  0  0  0
  -27.2284  -37.1486   25.8878 H   0  0  0  0  0  0
  -20.9331  -29.8708   21.6837 H   0  0  0  0  0  0
  -26.0154  -38.2853   24.1414 H   0  0  0  0  0  0
  -27.0100  -19.3442   19.1595 H   0  0  0  0  0  0
  -27.8269  -17.0946   18.7573 H   0  0  0  0  0  0
  -30.7818  -17.5973   21.8523 H   0  0  0  0  0  0
  -29.4529  -22.4123   20.7463 H   0  0  0  0  0  0
  -25.7669  -23.6548   19.9187 H   0  0  0  0  0  0
  -25.8261  -24.5549   21.4109 H   0  0  0  0  0  0
  -25.6781  -22.6671   22.7797 H   0  0  0  0  0  0
  -24.6422  -22.2386   21.4416 H   0  0  0  0  0  0
  -31.5954  -17.0553   16.9696 H   0  0  0  0  0  0
  -32.1272  -17.1124   18.6397 H   0  0  0  0  0  0
  -30.7379  -18.0661   18.1138 H   0  0  0  0  0  0
  -27.7999  -25.4873   21.7505 H   0  0  0  0  0  0
  -27.8818  -24.9820   19.9156 H   0  0  0  0  0  0
  -30.8769  -15.0222   17.9793 H   0  0  0  0  0  0
  -29.4359  -15.9279   17.7035 H   0  0  0  0  0  0
  1 25  1  0  0  0
  1 30  2  0  0  0
  1 86  1  0  0  0
  2  3  1  0  0  0
  2 25  1  0  0  0
  2 89  1  0  0  0
  2 90  1  0  0  0
  3  4  1  0  0  0
  3 91  1  0  0  0
  3 92  1  0  0  0
  4  5  1  0  0  0
  4 93  1  0  0  0
  4 94  1  0  0  0
  5  6  1  0  0  0
  5 26  1  0  0  0
  5 95  1  0  0  0
  6 25  1  0  0  0
  6 96  1  0  0  0
  6 97  1  0  0  0
  7  8  2  0  0  0
  7 26  1  0  0  0
  7 29  1  0  0  0
  8  9  1  0  0  0
  8 22  1  0  0  0
  9 10  1  0  0  0
  9 27  2  0  0  0
 10 11  2  0  0  0
 10 15  1  0  0  0
 11 12  1  0  0  0
 11 98  1  0  0  0
 12 13  2  0  0  0
 12 99  1  0  0  0
 13 14  1  0  0  0
 13 31  1  0  0  0
 14 15  2  0  0  0
 14100  1  0  0  0
 15101  1  0  0  0
 16 17  2  0  0  0
 16 21  1  0  0  0
 16 31  1  0  0  0
 17 18  1  0  0  0
 17102  1  0  0  0
 18 19  2  0  0  0
 18103  1  0  0  0
 19 20  1  0  0  0
 19 24  1  0  0  0
 20 21  2  0  0  0
 20104  1  0  0  0
 21 23  1  0  0  0
 22 28  1  0  0  0
 22 32  2  0  0  0
 26 27  1  0  0  0
 28105  1  0  0  0
 28106  1  0  0  0
 29107  1  0  0  0
 29108  1  0  0  0
 33 34  1  0  0  0
 33 66  1  0  0  0
 33 70  2  0  0  0
 34 36  1  0  0  0
 34 59  1  0  0  0
 34109  1  0  0  0
 35 44  2  0  0  0
 35 45  1  0  0  0
 35 68  1  0  0  0
 36 56  1  0  0  0
 36110  1  0  0  0
 37 39  1  0  0  0
 37 47  1  0  0  0
 37 66  1  0  0  0
 37111  1  0  0  0
 38 43  2  0  0  0
 38 46  1  0  0  0
 38 47  1  0  0  0
 39 64  1  0  0  0
 39 67  2  0  0  0
 40 52  1  0  0  0
 40 53  2  0  0  0
 40 58  1  0  0  0
 41112  1  0  0  0
 41113  1  0  0  0
 41114  1  0  0  0
 41 48  1  0  0  0
 42 43  1  0  0  0
 42 66  1  0  0  0
 42115  1  0  0  0
 42116  1  0  0  0
 43 44  1  0  0  0
 44117  1  0  0  0
 45 46  2  0  0  0
 45118  1  0  0  0
 46119  1  0  0  0
 47120  1  0  0  0
 47121  1  0  0  0
 48 56  1  0  0  0
 48 65  1  0  0  0
 48122  1  0  0  0
 49 50  1  0  0  0
 49 53  1  0  0  0
 49 64  1  0  0  0
 49123  1  0  0  0
 50 51  1  0  0  0
 50124  1  0  0  0
 50125  1  0  0  0
 51 52  1  0  0  0
 51126  1  0  0  0
 51127  1  0  0  0
 52128  1  0  0  0
 52129  1  0  0  0
 53 54  1  0  0  0
 54 55  2  0  0  0
 54130  1  0  0  0
 55 57  1  0  0  0
 55131  1  0  0  0
 56 69  2  0  0  0
 57 58  2  0  0  0
 57132  1  0  0  0
 58133  1  0  0  0
 59 60  1  0  0  0
 59 61  1  0  0  0
 59 62  1  0  0  0
 60134  1  0  0  0
 60135  1  0  0  0
 60136  1  0  0  0
 61137  1  0  0  0
 61138  1  0  0  0
 61139  1  0  0  0
 62140  1  0  0  0
 62141  1  0  0  0
 62142  1  0  0  0
 63 65  1  0  0  0
 63143  1  0  0  0
 63144  1  0  0  0
 63145  1  0  0  0
 64146  1  0  0  0
 65147  1  0  0  0
 68 83  1  0  0  0
 71 72  2  0  0  0
 71 74  1  0  0  0
 71148  1  0  0  0
 72 75  1  0  0  0
 72149  1  0  0  0
 73 75  2  0  0  0
 73 76  1  0  0  0
 73150  1  0  0  0
 74 76  2  0  0  0
 74 85  1  0  0  0
 75 86  1  0  0  0
 76 88  1  0  0  0
 77 78  2  0  0  0
 77 85  1  0  0  0
 77151  1  0  0  0
 78 80  1  0  0  0
 78 83  1  0  0  0
 79 81  1  0  0  0
 79 85  1  0  0  0
 79 87  2  0  0  0
 80 81  1  0  0  0
 80152  1  0  0  0
 80153  1  0  0  0
 81154  1  0  0  0
 81155  1  0  0  0
 82 84  1  0  0  0
 82156  1  0  0  0
 82157  1  0  0  0
 82158  1  0  0  0
 83159  1  0  0  0
 83160  1  0  0  0
 84 86  1  0  0  0
 84161  1  0  0  0
 84162  1  0  0  0
M  ISO  4   1 100  68 101  83 101  86 100
M  END
> <chiral flag>
0

> <version>
0

> <s_m_source_file>
/data/baiqing/PycharmProjects/Reinvent-master-3.2/result/LINK_invent/BTK/process_docking_weight1_custom_product_contain_oxygen_bond_distance_aromatic_linkinvent_7_9_3/rearranged_h_0094.sdf

> <i_m_source_file_index>
80

> <r_mmod_Potential_Energy-OPLS-2005>
776.909606933594

> <r_mmod_Stretch_Energy-OPLS-2005>
115.981941223145

> <r_mmod_Bend_Energy-OPLS-2005>
407.916931152344

> <r_mmod_Torsional_Energy-OPLS-2005>
405.351440429688

> <r_mmod_Improper_Torsional_Energy-OPLS-2005>
32.5948753356934

> <r_mmod_Van_der_Waal_Energy-OPLS-2005>
159.143905639648

> <r_mmod_Electrostatic_Energy-OPLS-2005>
-243.223159790039

> <r_mmod_Solvation_Energy-OPLS-2005>
-195.143371582031

> <b_mmod_Minimization_Converged-OPLS-2005>
0

> <r_mmod_RMS_Derivative-OPLS-2005>
4.45297908782959

$$$$
80
                    3D
 Structure written by MMmdl.
161170  0  0  1  0            999 V2000
  -30.7248  -14.4476   20.6397 C   0  0  0  0  0  0
  -30.4223  -12.3223   19.4050 C   0  0  0  0  0  0
  -29.4848  -12.5076   18.1950 C   0  0  0  0  0  0
  -28.0099  -12.3574   18.6166 C   0  0  0  0  0  0
  -27.6596  -13.2017   19.8706 C   0  0  2  0  0  0
  -28.7006  -12.9769   20.9878 C   0  0  0  0  0  0
  -25.2592  -13.8156   20.5667 C   0  0  0  0  0  0
  -24.1833  -13.0440   20.9161 C   0  0  0  0  0  0
  -24.6372  -11.6903   20.8723 C   0  0  0  0  0  0
  -23.9037  -10.4291   21.0402 C   0  0  0  0  0  0
  -24.3592   -9.4212   21.9189 C   0  0  0  0  0  0
  -23.6280   -8.2241   22.0751 C   0  0  0  0  0  0
  -22.4264   -8.0274   21.3541 C   0  0  0  0  0  0
  -21.9899   -9.0241   20.4631 C   0  0  0  0  0  0
  -22.7216  -10.2123   20.3049 C   0  0  0  0  0  0
  -21.6851   -6.0728   22.5281 C   0  0  0  0  0  0
  -21.4006   -6.5631   23.8213 C   0  0  0  0  0  0
  -21.3656   -5.6791   24.9175 C   0  0  0  0  0  0
  -21.6047   -4.3054   24.7233 C   0  0  0  0  0  0
  -21.8821   -3.8143   23.4355 C   0  0  0  0  0  0
  -21.9188   -4.6958   22.3405 C   0  0  0  0  0  0
  -22.7857  -13.5242   21.1840 C   0  0  0  0  0  0
  -22.1663   -4.2145   21.0985 F   0  0  0  0  0  0
  -21.5629   -3.4544   25.7742 F   0  0  0  0  0  0
  -30.0301  -13.2949   20.4378 N   0  0  0  0  0  0
  -26.3008  -12.9309   20.3347 N   0  0  0  0  0  0
  -25.9294  -11.6476   20.5748 N   0  0  0  0  0  0
  -22.0494  -12.8217   22.0379 N   0  0  0  0  0  0
  -25.4354  -15.1864   20.4091 N   0  0  0  0  0  0
  -31.8190  -14.6712   20.1138 O   0  0  0  0  0  0
  -21.6634   -6.8867   21.4235 O   0  0  0  0  0  0
  -22.3561  -14.5568   20.6713 O   0  0  0  0  0  0
  -24.6172  -31.8648   23.2074 C   0  0  0  0  0  0
  -25.9052  -32.4806   23.8382 C   0  0  1  0  0  0
  -27.2344  -27.4190   20.1080 C   0  0  0  0  0  0
  -25.5887  -33.8601   24.2306 N   0  0  0  0  0  0
  -23.4055  -30.4892   21.5483 C   0  0  2  0  0  0
  -24.8531  -28.9514   20.1149 C   0  0  0  0  0  0
  -22.7422  -29.4646   22.4981 C   0  0  0  0  0  0
  -18.0272  -28.1373   22.8492 C   0  0  0  0  0  0
  -24.1469  -36.7297   23.2639 C   0  0  0  0  0  0
  -25.9356  -30.8281   21.3603 C   0  0  0  0  0  0
  -26.0143  -29.4609   20.7105 C   0  0  0  0  0  0
  -27.2109  -28.7051   20.6969 C   0  0  0  0  0  0
  -26.0592  -26.9301   19.4974 C   0  0  0  0  0  0
  -24.8721  -27.6868   19.5022 C   0  0  0  0  0  0
  -23.6148  -29.8191   20.1642 C   0  0  0  0  0  0
  -25.4094  -36.3099   24.0336 C   0  0  1  0  0  0
  -20.5863  -28.3660   23.1317 C   0  0  2  0  0  0
  -20.6764  -26.9392   22.5406 C   0  0  0  0  0  0
  -19.5738  -26.6380   21.5207 C   0  0  0  0  0  0
  -18.1913  -26.7920   22.1610 C   0  0  0  0  0  0
  -19.1520  -28.8829   23.2898 C   0  0  0  0  0  0
  -18.9456  -30.1436   23.8914 C   0  0  0  0  0  0
  -17.6468  -30.6579   24.0574 C   0  0  0  0  0  0
  -25.9033  -34.9465   23.5127 C   0  0  0  0  0  0
  -16.5359  -29.9082   23.6337 C   0  0  0  0  0  0
  -16.7268  -28.6499   23.0358 C   0  0  0  0  0  0
  -26.4483  -31.6592   25.0709 C   0  0  0  0  0  0
  -25.3745  -31.3660   26.1448 C   0  0  0  0  0  0
  -27.0351  -30.3056   24.6054 C   0  0  0  0  0  0
  -27.6046  -32.4322   25.7490 C   0  0  0  0  0  0
  -27.5566  -37.1805   24.8466 C   0  0  0  0  0  0
  -21.4143  -29.3040   22.3736 N   0  0  0  0  0  0
  -26.4276  -37.3791   23.9422 N   0  0  0  0  0  0
  -24.6714  -31.0749   22.0974 N   0  0  0  0  0  0
  -23.4188  -28.8180   23.3016 O   0  0  0  0  0  0
  -28.3916  -26.6663   20.0996 O   0  0  0  0  0  0
  -26.5600  -34.8927   22.4693 O   0  0  0  0  0  0
  -23.5362  -32.1408   23.7468 O   0  0  0  0  0  0
  -30.6123  -18.2465   20.2788 C   0  0  0  0  0  0
  -30.5322  -19.5989   19.8717 C   0  0  0  0  0  0
  -30.1141  -20.2759   22.1665 C   0  0  0  0  0  0
  -30.4928  -17.8986   21.6422 C   0  0  0  0  0  0
  -30.3250  -20.6379   20.8164 C   0  0  0  0  0  0
  -30.2154  -18.9275   22.5776 C   0  0  0  0  0  0
  -31.6288  -22.4955   19.9911 C   0  0  0  0  0  0
  -31.7909  -23.9769   19.6231 C   0  0  0  0  0  0
  -30.7837  -24.9086   20.3041 C   0  0  0  0  0  0
  -29.3129  -22.9469   20.7905 C   0  0  0  0  0  0
  -29.3652  -24.3639   20.1370 C   0  0  1  0  0  0
  -30.7932  -16.4717   22.1299 C   0  0  0  0  0  0
  -28.2999  -25.3513   20.6936 C   0  0  0  0  0  0
  -30.4268  -22.0259   20.4370 N   0  0  0  0  0  0
  -30.1345  -15.3497   21.4429 N   0  0  0  0  0  0
  -32.6217  -21.7743   19.8402 O   0  0  0  0  0  0
  -30.0944  -18.6350   23.8949 F   0  0  0  0  0  0
  -31.4630  -12.4348   19.0950 H   0  0  0  0  0  0
  -30.3397  -11.3092   19.8012 H   0  0  0  0  0  0
  -29.7261  -11.7786   17.4188 H   0  0  0  0  0  0
  -29.6414  -13.4922   17.7513 H   0  0  0  0  0  0
  -27.8299  -11.3005   18.8219 H   0  0  0  0  0  0
  -27.3512  -12.6202   17.7878 H   0  0  0  0  0  0
  -27.7067  -14.2494   19.5736 H   0  0  0  0  0  0
  -28.6849  -11.9364   21.3154 H   0  0  0  0  0  0
  -28.4471  -13.5576   21.8747 H   0  0  0  0  0  0
  -25.2735   -9.5697   22.4759 H   0  0  0  0  0  0
  -23.9995   -7.4638   22.7476 H   0  0  0  0  0  0
  -21.0835   -8.8746   19.8934 H   0  0  0  0  0  0
  -22.3681  -10.9653   19.6148 H   0  0  0  0  0  0
  -21.1993   -7.6141   23.9709 H   0  0  0  0  0  0
  -21.1478   -6.0525   25.9077 H   0  0  0  0  0  0
  -22.0600   -2.7606   23.2858 H   0  0  0  0  0  0
  -22.4100  -11.9853   22.4726 H   0  0  0  0  0  0
  -21.1107  -13.1235   22.2588 H   0  0  0  0  0  0
  -24.6747  -15.8477   20.5192 H   0  0  0  0  0  0
  -26.2977  -15.6228   20.1061 H   0  0  0  0  0  0
  -26.7127  -32.5526   23.1159 H   0  0  0  0  0  0
  -25.0072  -33.9768   25.0471 H   0  0  0  0  0  0
  -22.6930  -31.3048   21.4065 H   0  0  0  0  0  0
  -23.3739  -35.9617   23.3302 H   0  0  0  0  0  0
  -24.3558  -36.8911   22.2048 H   0  0  0  0  0  0
  -23.7217  -37.6495   23.6669 H   0  0  0  0  0  0
  -26.0397  -31.5889   20.5864 H   0  0  0  0  0  0
  -26.8278  -30.8900   21.9719 H   0  0  0  0  0  0
  -28.1099  -29.0964   21.1515 H   0  0  0  0  0  0
  -26.0591  -25.9657   19.0107 H   0  0  0  0  0  0
  -23.9831  -27.2904   19.0310 H   0  0  0  0  0  0
  -23.7215  -30.5915   19.4036 H   0  0  0  0  0  0
  -22.7383  -29.2380   19.8712 H   0  0  0  0  0  0
  -25.1267  -36.1957   25.0829 H   0  0  0  0  0  0
  -20.9959  -28.3223   24.1431 H   0  0  0  0  0  0
  -20.5663  -26.2262   23.3584 H   0  0  0  0  0  0
  -21.6638  -26.7413   22.1207 H   0  0  0  0  0  0
  -19.6899  -25.6298   21.1206 H   0  0  0  0  0  0
  -19.6671  -27.3209   20.6748 H   0  0  0  0  0  0
  -17.4177  -26.6691   21.4003 H   0  0  0  0  0  0
  -18.0289  -26.0035   22.8973 H   0  0  0  0  0  0
  -19.7939  -30.7242   24.2282 H   0  0  0  0  0  0
  -17.5024  -31.6265   24.5157 H   0  0  0  0  0  0
  -15.5357  -30.2997   23.7652 H   0  0  0  0  0  0
  -15.8665  -28.0836   22.7062 H   0  0  0  0  0  0
  -24.5961  -30.6959   25.7790 H   0  0  0  0  0  0
  -24.8884  -32.2778   26.4913 H   0  0  0  0  0  0
  -25.8106  -30.8837   27.0202 H   0  0  0  0  0  0
  -26.2912  -29.6777   24.1139 H   0  0  0  0  0  0
  -27.4215  -29.7315   25.4485 H   0  0  0  0  0  0
  -27.8672  -30.4417   23.9148 H   0  0  0  0  0  0
  -27.2685  -33.3650   26.2032 H   0  0  0  0  0  0
  -28.3896  -32.6832   25.0346 H   0  0  0  0  0  0
  -28.0661  -31.8451   26.5436 H   0  0  0  0  0  0
  -28.2581  -38.0103   24.7552 H   0  0  0  0  0  0
  -28.1075  -36.2650   24.6267 H   0  0  0  0  0  0
  -27.2292  -37.1426   25.8868 H   0  0  0  0  0  0
  -20.9304  -29.8776   21.6973 H   0  0  0  0  0  0
  -26.0152  -38.2859   24.1446 H   0  0  0  0  0  0
  -30.8343  -17.4818   19.5470 H   0  0  0  0  0  0
  -30.6922  -19.8421   18.8299 H   0  0  0  0  0  0
  -29.9534  -21.0375   22.9159 H   0  0  0  0  0  0
  -31.6919  -24.0555   18.5398 H   0  0  0  0  0  0
  -32.8064  -24.2952   19.8614 H   0  0  0  0  0  0
  -30.8650  -25.9045   19.8662 H   0  0  0  0  0  0
  -31.0231  -25.0150   21.3638 H   0  0  0  0  0  0
  -28.3677  -22.4656   20.5366 H   0  0  0  0  0  0
  -29.3120  -23.0658   21.8747 H   0  0  0  0  0  0
  -29.1696  -24.2486   19.0703 H   0  0  0  0  0  0
  -30.5297  -16.3858   23.1845 H   0  0  0  0  0  0
  -31.8769  -16.3408   22.1031 H   0  0  0  0  0  0
  -28.4322  -25.4633   21.7703 H   0  0  0  0  0  0
  -27.3138  -24.9055   20.5606 H   0  0  0  0  0  0
  -29.2154  -15.1014   21.7764 H   0  0  0  0  0  0
  1 25  1  0  0  0
  1 30  2  0  0  0
  1 85  1  0  0  0
  2  3  1  0  0  0
  2 25  1  0  0  0
  2 88  1  0  0  0
  2 89  1  0  0  0
  3  4  1  0  0  0
  3 90  1  0  0  0
  3 91  1  0  0  0
  4  5  1  0  0  0
  4 92  1  0  0  0
  4 93  1  0  0  0
  5  6  1  0  0  0
  5 26  1  0  0  0
  5 94  1  0  0  0
  6 25  1  0  0  0
  6 95  1  0  0  0
  6 96  1  0  0  0
  7  8  2  0  0  0
  7 26  1  0  0  0
  7 29  1  0  0  0
  8  9  1  0  0  0
  8 22  1  0  0  0
  9 10  1  0  0  0
  9 27  2  0  0  0
 10 11  2  0  0  0
 10 15  1  0  0  0
 11 12  1  0  0  0
 11 97  1  0  0  0
 12 13  2  0  0  0
 12 98  1  0  0  0
 13 14  1  0  0  0
 13 31  1  0  0  0
 14 15  2  0  0  0
 14 99  1  0  0  0
 15100  1  0  0  0
 16 17  2  0  0  0
 16 21  1  0  0  0
 16 31  1  0  0  0
 17 18  1  0  0  0
 17101  1  0  0  0
 18 19  2  0  0  0
 18102  1  0  0  0
 19 20  1  0  0  0
 19 24  1  0  0  0
 20 21  2  0  0  0
 20103  1  0  0  0
 21 23  1  0  0  0
 22 28  1  0  0  0
 22 32  2  0  0  0
 26 27  1  0  0  0
 28104  1  0  0  0
 28105  1  0  0  0
 29106  1  0  0  0
 29107  1  0  0  0
 33 34  1  0  0  0
 33 66  1  0  0  0
 33 70  2  0  0  0
 34 36  1  0  0  0
 34 59  1  0  0  0
 34108  1  0  0  0
 35 44  2  0  0  0
 35 45  1  0  0  0
 35 68  1  0  0  0
 36 56  1  0  0  0
 36109  1  0  0  0
 37 39  1  0  0  0
 37 47  1  0  0  0
 37 66  1  0  0  0
 37110  1  0  0  0
 38 43  2  0  0  0
 38 46  1  0  0  0
 38 47  1  0  0  0
 39 64  1  0  0  0
 39 67  2  0  0  0
 40 52  1  0  0  0
 40 53  2  0  0  0
 40 58  1  0  0  0
 41111  1  0  0  0
 41112  1  0  0  0
 41113  1  0  0  0
 41 48  1  0  0  0
 42 43  1  0  0  0
 42 66  1  0  0  0
 42114  1  0  0  0
 42115  1  0  0  0
 43 44  1  0  0  0
 44116  1  0  0  0
 45 46  2  0  0  0
 45117  1  0  0  0
 46118  1  0  0  0
 47119  1  0  0  0
 47120  1  0  0  0
 48 56  1  0  0  0
 48 65  1  0  0  0
 48121  1  0  0  0
 49 50  1  0  0  0
 49 53  1  0  0  0
 49 64  1  0  0  0
 49122  1  0  0  0
 50 51  1  0  0  0
 50123  1  0  0  0
 50124  1  0  0  0
 51 52  1  0  0  0
 51125  1  0  0  0
 51126  1  0  0  0
 52127  1  0  0  0
 52128  1  0  0  0
 53 54  1  0  0  0
 54 55  2  0  0  0
 54129  1  0  0  0
 55 57  1  0  0  0
 55130  1  0  0  0
 56 69  2  0  0  0
 57 58  2  0  0  0
 57131  1  0  0  0
 58132  1  0  0  0
 59 60  1  0  0  0
 59 61  1  0  0  0
 59 62  1  0  0  0
 60133  1  0  0  0
 60134  1  0  0  0
 60135  1  0  0  0
 61136  1  0  0  0
 61137  1  0  0  0
 61138  1  0  0  0
 62139  1  0  0  0
 62140  1  0  0  0
 62141  1  0  0  0
 63 65  1  0  0  0
 63142  1  0  0  0
 63143  1  0  0  0
 63144  1  0  0  0
 64145  1  0  0  0
 65146  1  0  0  0
 68 83  1  0  0  0
 71 72  2  0  0  0
 71 74  1  0  0  0
 71147  1  0  0  0
 72 75  1  0  0  0
 72148  1  0  0  0
 73 75  2  0  0  0
 73 76  1  0  0  0
 73149  1  0  0  0
 74 76  2  0  0  0
 74 82  1  0  0  0
 75 84  1  0  0  0
 76 87  1  0  0  0
 77 78  1  0  0  0
 77 84  1  0  0  0
 77 86  2  0  0  0
 78 79  1  0  0  0
 78150  1  0  0  0
 78151  1  0  0  0
 79 81  1  0  0  0
 79152  1  0  0  0
 79153  1  0  0  0
 80 81  1  0  0  0
 80 84  1  0  0  0
 80154  1  0  0  0
 80155  1  0  0  0
 81 83  1  0  0  0
 81156  1  0  0  0
 82 85  1  0  0  0
 82157  1  0  0  0
 82158  1  0  0  0
 83159  1  0  0  0
 83160  1  0  0  0
 85161  1  0  0  0
M  ISO  4   1 100  68 101  83 101  85 100
M  END
> <chiral flag>
0

> <version>
0

> <s_m_source_file>
/data/baiqing/PycharmProjects/Reinvent-master-3.2/result/LINK_invent/BTK/process_docking_weight1_custom_product_contain_oxygen_bond_distance_aromatic_linkinvent_7_9_3/rearranged_h_0094.sdf

> <i_m_source_file_index>
81

> <r_mmod_Potential_Energy-OPLS-2005>
21.5137138366699

> <r_mmod_Stretch_Energy-OPLS-2005>
44.8761177062988

> <r_mmod_Bend_Energy-OPLS-2005>
101.825149536133

> <r_mmod_Torsional_Energy-OPLS-2005>
283.707122802734

> <r_mmod_Improper_Torsional_Energy-OPLS-2005>
3.44061326980591

> <r_mmod_Van_der_Waal_Energy-OPLS-2005>
162.084838867188

> <r_mmod_Electrostatic_Energy-OPLS-2005>
-368.351837158203

> <r_mmod_Solvation_Energy-OPLS-2005>
-217.905822753906

> <b_mmod_Minimization_Converged-OPLS-2005>
0

> <r_mmod_RMS_Derivative-OPLS-2005>
2.02339506149292

$$$$
81
                    3D
 Structure written by MMmdl.
155164  0  0  1  0            999 V2000
  -30.4702  -15.0907   20.3964 C   0  0  0  0  0  0
  -30.4431  -12.6893   19.5227 C   0  0  0  0  0  0
  -29.5336  -12.5724   18.2747 C   0  0  0  0  0  0
  -28.0675  -12.3345   18.6801 C   0  0  0  0  0  0
  -27.6204  -13.2708   19.8332 C   0  0  2  0  0  0
  -28.6537  -13.3418   20.9772 C   0  0  0  0  0  0
  -25.2393  -13.8257   20.5681 C   0  0  0  0  0  0
  -24.1735  -13.0460   20.9224 C   0  0  0  0  0  0
  -24.6377  -11.6950   20.8743 C   0  0  0  0  0  0
  -23.9070  -10.4310   21.0421 C   0  0  0  0  0  0
  -24.3635   -9.4203   21.9176 C   0  0  0  0  0  0
  -23.6292   -8.2245   22.0748 C   0  0  0  0  0  0
  -22.4271   -8.0297   21.3538 C   0  0  0  0  0  0
  -21.9903   -9.0282   20.4645 C   0  0  0  0  0  0
  -22.7250  -10.2153   20.3051 C   0  0  0  0  0  0
  -21.6864   -6.0733   22.5274 C   0  0  0  0  0  0
  -21.4019   -6.5639   23.8207 C   0  0  0  0  0  0
  -21.3645   -5.6788   24.9173 C   0  0  0  0  0  0
  -21.6041   -4.3052   24.7214 C   0  0  0  0  0  0
  -21.8811   -3.8138   23.4333 C   0  0  0  0  0  0
  -21.9189   -4.6954   22.3387 C   0  0  0  0  0  0
  -22.7749  -13.5217   21.1890 C   0  0  0  0  0  0
  -22.1653   -4.2139   21.0966 F   0  0  0  0  0  0
  -21.5617   -3.4530   25.7717 F   0  0  0  0  0  0
  -29.9203  -13.7982   20.3837 N   0  0  0  0  0  0
  -26.2833  -12.9526   20.3208 N   0  0  0  0  0  0
  -25.9324  -11.6635   20.5721 N   0  0  0  0  0  0
  -22.0394  -12.8238   22.0477 N   0  0  0  0  0  0
  -25.4066  -15.1989   20.4082 N   0  0  0  0  0  0
  -31.6718  -15.1554   20.0977 O   0  0  0  0  0  0
  -21.6633   -6.8893   21.4249 O   0  0  0  0  0  0
  -22.3428  -14.5501   20.6698 O   0  0  0  0  0  0
  -24.6527  -31.8366   23.1819 C   0  0  0  0  0  0
  -25.9256  -32.4650   23.8252 C   0  0  1  0  0  0
  -27.2003  -27.0367   20.1604 C   0  0  0  0  0  0
  -25.5950  -33.8451   24.2130 N   0  0  0  0  0  0
  -23.4614  -30.4568   21.5289 C   0  0  2  0  0  0
  -24.9084  -28.8707   20.1094 C   0  0  0  0  0  0
  -22.7610  -29.4526   22.4804 C   0  0  0  0  0  0
  -18.0316  -28.1411   22.8476 C   0  0  0  0  0  0
  -24.1485  -36.7228   23.2645 C   0  0  0  0  0  0
  -26.0257  -30.6760   21.4001 C   0  0  0  0  0  0
  -26.0914  -29.2799   20.7389 C   0  0  0  0  0  0
  -27.2375  -28.3809   20.7462 C   0  0  0  0  0  0
  -25.9954  -26.7653   19.4762 C   0  0  0  0  0  0
  -24.8779  -27.6280   19.4632 C   0  0  0  0  0  0
  -23.6930  -29.7881   20.1491 C   0  0  0  0  0  0
  -25.4116  -36.2988   24.0306 C   0  0  1  0  0  0
  -20.5933  -28.3745   23.1205 C   0  0  2  0  0  0
  -20.6799  -26.9437   22.5397 C   0  0  0  0  0  0
  -19.5769  -26.6383   21.5218 C   0  0  0  0  0  0
  -18.1951  -26.7944   22.1629 C   0  0  0  0  0  0
  -19.1571  -28.8896   23.2834 C   0  0  0  0  0  0
  -18.9486  -30.1486   23.8869 C   0  0  0  0  0  0
  -17.6483  -30.6603   24.0571 C   0  0  0  0  0  0
  -25.9087  -34.9377   23.5035 C   0  0  0  0  0  0
  -16.5375  -29.9098   23.6335 C   0  0  0  0  0  0
  -16.7305  -28.6516   23.0360 C   0  0  0  0  0  0
  -26.4519  -31.6562   25.0750 C   0  0  0  0  0  0
  -25.3653  -31.3811   26.1410 C   0  0  0  0  0  0
  -27.0415  -30.2940   24.6452 C   0  0  0  0  0  0
  -27.6016  -32.4360   25.7540 C   0  0  0  0  0  0
  -27.5581  -37.1743   24.8441 C   0  0  0  0  0  0
  -21.4291  -29.3061   22.3554 N   0  0  0  0  0  0
  -26.4265  -37.3722   23.9437 N   0  0  0  0  0  0
  -24.7341  -31.0132   22.0910 N   0  0  0  0  0  0
  -23.4205  -28.8092   23.3004 O   0  0  0  0  0  0
  -28.2080  -25.9710   20.2013 O   0  0  0  0  0  0
  -26.5701  -34.8901   22.4631 O   0  0  0  0  0  0
  -23.5622  -32.1282   23.6973 O   0  0  0  0  0  0
  -30.3097  -20.1538   19.4854 C   0  0  0  0  0  0
  -28.8684  -18.8325   20.7401 C   0  0  0  0  0  0
  -29.1990  -20.2817   20.2880 C   0  0  0  0  0  0
  -29.7289  -17.7221   20.3598 C   0  0  0  0  0  0
  -28.7456  -23.0417   20.0329 C   0  0  0  0  0  0
  -26.6988  -22.8702   22.0089 C   0  0  0  0  0  0
  -27.3073  -24.2636   21.8304 C   0  0  0  0  0  0
  -27.7201  -21.7252   21.8264 C   0  0  0  0  0  0
  -27.8195  -24.4272   20.3986 C   0  0  1  0  0  0
  -27.6551  -18.4582   21.5427 C   0  0  0  0  0  0
  -28.5461  -21.7063   20.5978 N   0  0  0  0  0  0
  -29.6611  -16.2721   20.6050 N   0  0  0  0  0  0
  -29.6076  -23.1999   19.1638 O   0  0  0  0  0  0
  -30.9610  -18.4910   19.3679 S   0  0  0  0  0  0
  -31.4704  -12.8758   19.2013 H   0  0  0  0  0  0
  -30.4739  -11.7552   20.0834 H   0  0  0  0  0  0
  -29.8796  -11.7702   17.6223 H   0  0  0  0  0  0
  -29.6046  -13.4938   17.6926 H   0  0  0  0  0  0
  -27.9733  -11.2939   18.9901 H   0  0  0  0  0  0
  -27.4176  -12.4619   17.8135 H   0  0  0  0  0  0
  -27.5627  -14.2666   19.3900 H   0  0  0  0  0  0
  -28.7640  -12.3718   21.4625 H   0  0  0  0  0  0
  -28.3201  -14.0394   21.7494 H   0  0  0  0  0  0
  -25.2792   -9.5643   22.4756 H   0  0  0  0  0  0
  -23.9976   -7.4621   22.7478 H   0  0  0  0  0  0
  -21.0804   -8.8827   19.8967 H   0  0  0  0  0  0
  -22.3724  -10.9701   19.6148 H   0  0  0  0  0  0
  -21.2037   -7.6151   23.9720 H   0  0  0  0  0  0
  -21.1472   -6.0518   25.9083 H   0  0  0  0  0  0
  -22.0603   -2.7598   23.2846 H   0  0  0  0  0  0
  -22.4010  -11.9928   22.4909 H   0  0  0  0  0  0
  -21.1008  -13.1280   22.2670 H   0  0  0  0  0  0
  -24.6309  -15.8487   20.4782 H   0  0  0  0  0  0
  -26.2385  -15.6243   20.0200 H   0  0  0  0  0  0
  -26.7345  -32.5208   23.0993 H   0  0  0  0  0  0
  -25.0009  -33.9544   25.0222 H   0  0  0  0  0  0
  -22.7686  -31.2856   21.3705 H   0  0  0  0  0  0
  -23.3748  -35.9558   23.3246 H   0  0  0  0  0  0
  -24.3582  -36.8928   22.2073 H   0  0  0  0  0  0
  -23.7233  -37.6401   23.6726 H   0  0  0  0  0  0
  -26.2009  -31.4284   20.6293 H   0  0  0  0  0  0
  -26.8871  -30.7185   22.0558 H   0  0  0  0  0  0
  -28.1328  -28.6890   21.2675 H   0  0  0  0  0  0
  -25.8802  -25.8375   18.9385 H   0  0  0  0  0  0
  -23.9804  -27.3110   18.9492 H   0  0  0  0  0  0
  -23.8421  -30.5639   19.3967 H   0  0  0  0  0  0
  -22.8024  -29.2439   19.8299 H   0  0  0  0  0  0
  -25.1295  -36.1790   25.0797 H   0  0  0  0  0  0
  -21.0031  -28.3355   24.1328 H   0  0  0  0  0  0
  -20.5677  -26.2378   23.3637 H   0  0  0  0  0  0
  -21.6668  -26.7428   22.1204 H   0  0  0  0  0  0
  -19.6926  -25.6284   21.1280 H   0  0  0  0  0  0
  -19.6703  -27.3176   20.6736 H   0  0  0  0  0  0
  -17.4212  -26.6676   21.4047 H   0  0  0  0  0  0
  -18.0356  -26.0110   22.9047 H   0  0  0  0  0  0
  -19.7954  -30.7311   24.2235 H   0  0  0  0  0  0
  -17.5032  -31.6274   24.5187 H   0  0  0  0  0  0
  -15.5380  -30.3000   23.7672 H   0  0  0  0  0  0
  -15.8700  -28.0847   22.7084 H   0  0  0  0  0  0
  -24.5821  -30.7185   25.7714 H   0  0  0  0  0  0
  -24.8869  -32.3028   26.4731 H   0  0  0  0  0  0
  -25.7875  -30.9028   27.0254 H   0  0  0  0  0  0
  -26.3099  -29.6623   24.1412 H   0  0  0  0  0  0
  -27.3911  -29.7294   25.5101 H   0  0  0  0  0  0
  -27.9039  -30.4139   23.9895 H   0  0  0  0  0  0
  -27.2572  -33.3661   26.2069 H   0  0  0  0  0  0
  -28.3843  -32.6924   25.0389 H   0  0  0  0  0  0
  -28.0671  -31.8538   26.5498 H   0  0  0  0  0  0
  -28.2497  -38.0137   24.7586 H   0  0  0  0  0  0
  -28.1167  -36.2659   24.6107 H   0  0  0  0  0  0
  -27.2324  -37.1199   25.8848 H   0  0  0  0  0  0
  -20.9516  -29.8766   21.6715 H   0  0  0  0  0  0
  -26.0093  -38.2769   24.1503 H   0  0  0  0  0  0
  -30.8284  -20.9458   18.9575 H   0  0  0  0  0  0
  -25.8699  -22.7447   21.3090 H   0  0  0  0  0  0
  -26.2591  -22.7937   23.0049 H   0  0  0  0  0  0
  -28.1162  -24.4233   22.5456 H   0  0  0  0  0  0
  -26.5488  -25.0156   22.0447 H   0  0  0  0  0  0
  -27.1272  -20.8276   21.8951 H   0  0  0  0  0  0
  -28.4088  -21.7162   22.6734 H   0  0  0  0  0  0
  -26.9696  -24.2645   19.7409 H   0  0  0  0  0  0
  -26.7441  -18.8630   21.1045 H   0  0  0  0  0  0
  -27.7321  -18.7918   22.5767 H   0  0  0  0  0  0
  -27.5026  -17.3805   21.5756 H   0  0  0  0  0  0
  -28.7679  -15.9946   20.9822 H   0  0  0  0  0  0
  1 25  1  0  0  0
  1 30  2  0  0  0
  1 82  1  0  0  0
  2  3  1  0  0  0
  2 25  1  0  0  0
  2 85  1  0  0  0
  2 86  1  0  0  0
  3  4  1  0  0  0
  3 87  1  0  0  0
  3 88  1  0  0  0
  4  5  1  0  0  0
  4 89  1  0  0  0
  4 90  1  0  0  0
  5  6  1  0  0  0
  5 26  1  0  0  0
  5 91  1  0  0  0
  6 25  1  0  0  0
  6 92  1  0  0  0
  6 93  1  0  0  0
  7  8  2  0  0  0
  7 26  1  0  0  0
  7 29  1  0  0  0
  8  9  1  0  0  0
  8 22  1  0  0  0
  9 10  1  0  0  0
  9 27  2  0  0  0
 10 11  2  0  0  0
 10 15  1  0  0  0
 11 12  1  0  0  0
 11 94  1  0  0  0
 12 13  2  0  0  0
 12 95  1  0  0  0
 13 14  1  0  0  0
 13 31  1  0  0  0
 14 15  2  0  0  0
 14 96  1  0  0  0
 15 97  1  0  0  0
 16 17  2  0  0  0
 16 21  1  0  0  0
 16 31  1  0  0  0
 17 18  1  0  0  0
 17 98  1  0  0  0
 18 19  2  0  0  0
 18 99  1  0  0  0
 19 20  1  0  0  0
 19 24  1  0  0  0
 20 21  2  0  0  0
 20100  1  0  0  0
 21 23  1  0  0  0
 22 28  1  0  0  0
 22 32  2  0  0  0
 26 27  1  0  0  0
 28101  1  0  0  0
 28102  1  0  0  0
 29103  1  0  0  0
 29104  1  0  0  0
 33 34  1  0  0  0
 33 66  1  0  0  0
 33 70  2  0  0  0
 34 36  1  0  0  0
 34 59  1  0  0  0
 34105  1  0  0  0
 35 44  2  0  0  0
 35 45  1  0  0  0
 35 68  1  0  0  0
 36 56  1  0  0  0
 36106  1  0  0  0
 37 39  1  0  0  0
 37 47  1  0  0  0
 37 66  1  0  0  0
 37107  1  0  0  0
 38 43  2  0  0  0
 38 46  1  0  0  0
 38 47  1  0  0  0
 39 64  1  0  0  0
 39 67  2  0  0  0
 40 52  1  0  0  0
 40 53  2  0  0  0
 40 58  1  0  0  0
 41108  1  0  0  0
 41109  1  0  0  0
 41110  1  0  0  0
 41 48  1  0  0  0
 42 43  1  0  0  0
 42 66  1  0  0  0
 42111  1  0  0  0
 42112  1  0  0  0
 43 44  1  0  0  0
 44113  1  0  0  0
 45 46  2  0  0  0
 45114  1  0  0  0
 46115  1  0  0  0
 47116  1  0  0  0
 47117  1  0  0  0
 48 56  1  0  0  0
 48 65  1  0  0  0
 48118  1  0  0  0
 49 50  1  0  0  0
 49 53  1  0  0  0
 49 64  1  0  0  0
 49119  1  0  0  0
 50 51  1  0  0  0
 50120  1  0  0  0
 50121  1  0  0  0
 51 52  1  0  0  0
 51122  1  0  0  0
 51123  1  0  0  0
 52124  1  0  0  0
 52125  1  0  0  0
 53 54  1  0  0  0
 54 55  2  0  0  0
 54126  1  0  0  0
 55 57  1  0  0  0
 55127  1  0  0  0
 56 69  2  0  0  0
 57 58  2  0  0  0
 57128  1  0  0  0
 58129  1  0  0  0
 59 60  1  0  0  0
 59 61  1  0  0  0
 59 62  1  0  0  0
 60130  1  0  0  0
 60131  1  0  0  0
 60132  1  0  0  0
 61133  1  0  0  0
 61134  1  0  0  0
 61135  1  0  0  0
 62136  1  0  0  0
 62137  1  0  0  0
 62138  1  0  0  0
 63 65  1  0  0  0
 63139  1  0  0  0
 63140  1  0  0  0
 63141  1  0  0  0
 64142  1  0  0  0
 65143  1  0  0  0
 68 79  1  0  0  0
 71 73  2  0  0  0
 71 84  1  0  0  0
 71144  1  0  0  0
 72 73  1  0  0  0
 72 74  2  0  0  0
 72 80  1  0  0  0
 73 81  1  0  0  0
 74 82  1  0  0  0
 74 84  1  0  0  0
 75 79  1  0  0  0
 75 81  1  0  0  0
 75 83  2  0  0  0
 76 77  1  0  0  0
 76 78  1  0  0  0
 76145  1  0  0  0
 76146  1  0  0  0
 77 79  1  0  0  0
 77147  1  0  0  0
 77148  1  0  0  0
 78 81  1  0  0  0
 78149  1  0  0  0
 78150  1  0  0  0
 79151  1  0  0  0
 80152  1  0  0  0
 80153  1  0  0  0
 80154  1  0  0  0
 82155  1  0  0  0
M  ISO  4   1 100  68 101  79 101  82 100
M  END
> <chiral flag>
0

> <version>
0

> <s_m_source_file>
/data/baiqing/PycharmProjects/Reinvent-master-3.2/result/LINK_invent/BTK/process_docking_weight1_custom_product_contain_oxygen_bond_distance_aromatic_linkinvent_7_9_3/rearranged_h_0094.sdf

> <i_m_source_file_index>
82

> <r_mmod_Potential_Energy-OPLS-2005>
806.837463378906

> <r_mmod_Stretch_Energy-OPLS-2005>
373.344085693359

> <r_mmod_Bend_Energy-OPLS-2005>
316.665649414062

> <r_mmod_Torsional_Energy-OPLS-2005>
253.893417358398

> <r_mmod_Improper_Torsional_Energy-OPLS-2005>
4.0254487991333

> <r_mmod_Van_der_Waal_Energy-OPLS-2005>
123.159149169922

> <r_mmod_Electrostatic_Energy-OPLS-2005>
-338.007934570312

> <r_mmod_Solvation_Energy-OPLS-2005>
-230.409194946289

> <b_mmod_Minimization_Converged-OPLS-2005>
0

> <r_mmod_RMS_Derivative-OPLS-2005>
4.24892568588257

$$$$
82
                    3D
 Structure written by MMmdl.
161170  0  0  1  0            999 V2000
  -30.6884  -14.5166   20.4952 C   0  0  0  0  0  0
  -30.4158  -12.3032   19.4506 C   0  0  0  0  0  0
  -29.4989  -12.4237   18.2160 C   0  0  0  0  0  0
  -28.0126  -12.3289   18.6163 C   0  0  0  0  0  0
  -27.6481  -13.2050   19.8472 C   0  0  2  0  0  0
  -28.6923  -13.0488   20.9798 C   0  0  0  0  0  0
  -25.2549  -13.8174   20.5610 C   0  0  0  0  0  0
  -24.1821  -13.0427   20.9239 C   0  0  0  0  0  0
  -24.6396  -11.6917   20.8823 C   0  0  0  0  0  0
  -23.9087  -10.4289   21.0491 C   0  0  0  0  0  0
  -24.3640   -9.4185   21.9227 C   0  0  0  0  0  0
  -23.6264   -8.2266   22.0813 C   0  0  0  0  0  0
  -22.4241   -8.0340   21.3608 C   0  0  0  0  0  0
  -21.9902   -9.0317   20.4695 C   0  0  0  0  0  0
  -22.7301  -10.2167   20.3086 C   0  0  0  0  0  0
  -21.6805   -6.0787   22.5303 C   0  0  0  0  0  0
  -21.3994   -6.5691   23.8246 C   0  0  0  0  0  0
  -21.3652   -5.6845   24.9193 C   0  0  0  0  0  0
  -21.6020   -4.3108   24.7258 C   0  0  0  0  0  0
  -21.8769   -3.8208   23.4371 C   0  0  0  0  0  0
  -21.9159   -4.7006   22.3437 C   0  0  0  0  0  0
  -22.7836  -13.5260   21.1850 C   0  0  0  0  0  0
  -22.1615   -4.2195   21.0998 F   0  0  0  0  0  0
  -21.5630   -3.4575   25.7761 F   0  0  0  0  0  0
  -30.0114  -13.3398   20.4094 N   0  0  0  0  0  0
  -26.2937  -12.9310   20.3256 N   0  0  0  0  0  0
  -25.9305  -11.6497   20.5890 N   0  0  0  0  0  0
  -22.0371  -12.8319   22.0385 N   0  0  0  0  0  0
  -25.4193  -15.1861   20.3777 N   0  0  0  0  0  0
  -31.8747  -14.6126   20.1666 O   0  0  0  0  0  0
  -21.6609   -6.8933   21.4268 O   0  0  0  0  0  0
  -22.3578  -14.5588   20.6699 O   0  0  0  0  0  0
  -24.6176  -31.8729   23.2140 C   0  0  0  0  0  0
  -25.9057  -32.4860   23.8457 C   0  0  1  0  0  0
  -27.2082  -27.4191   20.0719 C   0  0  0  0  0  0
  -25.5887  -33.8664   24.2351 N   0  0  0  0  0  0
  -23.4047  -30.5014   21.5590 C   0  0  2  0  0  0
  -24.8406  -28.9779   20.1115 C   0  0  0  0  0  0
  -22.7417  -29.4715   22.5032 C   0  0  0  0  0  0
  -18.0259  -28.1430   22.8512 C   0  0  0  0  0  0
  -24.1475  -36.7333   23.2645 C   0  0  0  0  0  0
  -25.9399  -30.8342   21.3668 C   0  0  0  0  0  0
  -26.0122  -29.4725   20.7000 C   0  0  0  0  0  0
  -27.2026  -28.7055   20.6670 C   0  0  0  0  0  0
  -26.0170  -26.9596   19.4585 C   0  0  0  0  0  0
  -24.8410  -27.7256   19.4822 C   0  0  0  0  0  0
  -23.6094  -29.8512   20.1681 C   0  0  0  0  0  0
  -25.4095  -36.3156   24.0349 C   0  0  1  0  0  0
  -20.5838  -28.3726   23.1329 C   0  0  2  0  0  0
  -20.6761  -26.9475   22.5417 C   0  0  0  0  0  0
  -19.5729  -26.6436   21.5232 C   0  0  0  0  0  0
  -18.1908  -26.7979   22.1648 C   0  0  0  0  0  0
  -19.1509  -28.8880   23.2913 C   0  0  0  0  0  0
  -18.9439  -30.1466   23.8956 C   0  0  0  0  0  0
  -17.6442  -30.6620   24.0594 C   0  0  0  0  0  0
  -25.9045  -34.9513   23.5162 C   0  0  0  0  0  0
  -16.5330  -29.9135   23.6319 C   0  0  0  0  0  0
  -16.7252  -28.6539   23.0371 C   0  0  0  0  0  0
  -26.4462  -31.6641   25.0789 C   0  0  0  0  0  0
  -25.3725  -31.3695   26.1520 C   0  0  0  0  0  0
  -27.0274  -30.3085   24.6176 C   0  0  0  0  0  0
  -27.6042  -32.4388   25.7501 C   0  0  0  0  0  0
  -27.5583  -37.1813   24.8470 C   0  0  0  0  0  0
  -21.4146  -29.3086   22.3751 N   0  0  0  0  0  0
  -26.4287  -37.3820   23.9443 N   0  0  0  0  0  0
  -24.6736  -31.0809   22.1060 N   0  0  0  0  0  0
  -23.4174  -28.8274   23.3102 O   0  0  0  0  0  0
  -28.3549  -26.6398   20.1106 O   0  0  0  0  0  0
  -26.5612  -34.8941   22.4730 O   0  0  0  0  0  0
  -23.5366  -32.1478   23.7517 O   0  0  0  0  0  0
  -28.8368  -18.6544   20.6603 C   0  0  0  0  0  0
  -30.6346  -18.6553   22.2678 C   0  0  0  0  0  0
  -29.0021  -20.0482   20.4723 C   0  0  0  0  0  0
  -30.7483  -20.0528   22.1360 C   0  0  0  0  0  0
  -29.7292  -17.9147   21.4793 C   0  0  0  0  0  0
  -30.0110  -20.7731   21.1635 C   0  0  0  0  0  0
  -29.2371  -23.0293   20.5003 C   0  0  0  0  0  0
  -29.3572  -24.3577   20.2651 C   0  0  0  0  0  0
  -31.5849  -22.6432   20.8665 C   0  0  0  0  0  0
  -29.7551  -16.3934   21.5795 C   0  0  0  0  0  0
  -30.6802  -25.0563   20.4711 C   0  0  0  0  0  0
  -31.8674  -24.0867   20.4259 C   0  0  0  0  0  0
  -29.8353  -16.2202   19.0945 C   0  0  0  0  0  0
  -28.1924  -25.2346   19.8129 C   0  0  0  0  0  0
  -30.2986  -22.1740   20.8870 N   0  0  0  0  0  0
  -29.9215  -15.6382   20.4513 N   0  0  0  0  0  0
  -32.5860  -21.9722   21.1507 O   0  0  0  0  0  0
  -29.7474  -15.9058   22.7166 O   0  0  0  0  0  0
  -31.4663  -12.3678   19.1614 H   0  0  0  0  0  0
  -30.2985  -11.3248   19.9172 H   0  0  0  0  0  0
  -29.7387  -11.6202   17.5199 H   0  0  0  0  0  0
  -29.6798  -13.3508   17.6726 H   0  0  0  0  0  0
  -27.8053  -11.2810   18.8380 H   0  0  0  0  0  0
  -27.3745  -12.5761   17.7644 H   0  0  0  0  0  0
  -27.6659  -14.2383   19.5000 H   0  0  0  0  0  0
  -28.6849  -12.0322   21.3753 H   0  0  0  0  0  0
  -28.4602  -13.7056   21.8172 H   0  0  0  0  0  0
  -25.2811   -9.5597   22.4767 H   0  0  0  0  0  0
  -23.9952   -7.4650   22.7510 H   0  0  0  0  0  0
  -21.0856   -8.8899   19.8967 H   0  0  0  0  0  0
  -22.3886  -10.9730   19.6169 H   0  0  0  0  0  0
  -21.1983   -7.6186   23.9792 H   0  0  0  0  0  0
  -21.1513   -6.0573   25.9100 H   0  0  0  0  0  0
  -22.0529   -2.7652   23.2907 H   0  0  0  0  0  0
  -22.3896  -12.0160   22.5187 H   0  0  0  0  0  0
  -21.0935  -13.1431   22.2311 H   0  0  0  0  0  0
  -24.6202  -15.8094   20.3940 H   0  0  0  0  0  0
  -26.2413  -15.6084   19.9653 H   0  0  0  0  0  0
  -26.7152  -32.5540   23.1234 H   0  0  0  0  0  0
  -24.9983  -33.9854   25.0459 H   0  0  0  0  0  0
  -22.6952  -31.3201   21.4303 H   0  0  0  0  0  0
  -23.3765  -35.9640   23.3306 H   0  0  0  0  0  0
  -24.3570  -36.8957   22.2063 H   0  0  0  0  0  0
  -23.7178  -37.6514   23.6656 H   0  0  0  0  0  0
  -26.0612  -31.6090   20.6088 H   0  0  0  0  0  0
  -26.8248  -30.8746   21.9907 H   0  0  0  0  0  0
  -28.1108  -29.0949   21.1033 H   0  0  0  0  0  0
  -25.9624  -26.0128   18.9420 H   0  0  0  0  0  0
  -23.9455  -27.3466   19.0104 H   0  0  0  0  0  0
  -23.7274  -30.6416   19.4258 H   0  0  0  0  0  0
  -22.7246  -29.2899   19.8625 H   0  0  0  0  0  0
  -25.1257  -36.2040   25.0836 H   0  0  0  0  0  0
  -20.9910  -28.3298   24.1452 H   0  0  0  0  0  0
  -20.5698  -26.2360   23.3618 H   0  0  0  0  0  0
  -21.6636  -26.7544   22.1190 H   0  0  0  0  0  0
  -19.6909  -25.6340   21.1279 H   0  0  0  0  0  0
  -19.6657  -27.3239   20.6754 H   0  0  0  0  0  0
  -17.4170  -26.6734   21.4046 H   0  0  0  0  0  0
  -18.0305  -26.0097   22.9022 H   0  0  0  0  0  0
  -19.7894  -30.7280   24.2399 H   0  0  0  0  0  0
  -17.4976  -31.6300   24.5232 H   0  0  0  0  0  0
  -15.5334  -30.3087   23.7594 H   0  0  0  0  0  0
  -15.8634  -28.0877   22.7108 H   0  0  0  0  0  0
  -24.5935  -30.7007   25.7819 H   0  0  0  0  0  0
  -24.8853  -32.2815   26.4998 H   0  0  0  0  0  0
  -25.8076  -30.8837   27.0269 H   0  0  0  0  0  0
  -26.2802  -29.6864   24.1234 H   0  0  0  0  0  0
  -27.4028  -29.7301   25.4630 H   0  0  0  0  0  0
  -27.8654  -30.4399   23.9326 H   0  0  0  0  0  0
  -27.2683  -33.3704   26.2069 H   0  0  0  0  0  0
  -28.3788  -32.6966   25.0264 H   0  0  0  0  0  0
  -28.0793  -31.8559   26.5393 H   0  0  0  0  0  0
  -28.2593  -38.0120   24.7558 H   0  0  0  0  0  0
  -28.1094  -36.2665   24.6248 H   0  0  0  0  0  0
  -27.2331  -37.1397   25.8878 H   0  0  0  0  0  0
  -20.9351  -29.8776   21.6927 H   0  0  0  0  0  0
  -26.0202  -38.2907   24.1469 H   0  0  0  0  0  0
  -28.0328  -18.1648   20.1310 H   0  0  0  0  0  0
  -31.2814  -18.1448   22.9666 H   0  0  0  0  0  0
  -28.3627  -20.5266   19.7444 H   0  0  0  0  0  0
  -31.4657  -20.5638   22.7631 H   0  0  0  0  0  0
  -28.2856  -22.5315   20.3941 H   0  0  0  0  0  0
  -30.6493  -25.5559   21.4382 H   0  0  0  0  0  0
  -30.8142  -25.8322   19.7162 H   0  0  0  0  0  0
  -32.2638  -24.0389   19.4127 H   0  0  0  0  0  0
  -32.6641  -24.4744   21.0570 H   0  0  0  0  0  0
  -29.8736  -15.4537   18.3166 H   0  0  0  0  0  0
  -30.6532  -16.9175   18.9051 H   0  0  0  0  0  0
  -28.8880  -16.7207   18.9205 H   0  0  0  0  0  0
  -27.2877  -24.8218   20.2689 H   0  0  0  0  0  0
  -28.1006  -25.1140   18.7319 H   0  0  0  0  0  0
  1 25  1  0  0  0
  1 30  2  0  0  0
  1 86  1  0  0  0
  2  3  1  0  0  0
  2 25  1  0  0  0
  2 89  1  0  0  0
  2 90  1  0  0  0
  3  4  1  0  0  0
  3 91  1  0  0  0
  3 92  1  0  0  0
  4  5  1  0  0  0
  4 93  1  0  0  0
  4 94  1  0  0  0
  5  6  1  0  0  0
  5 26  1  0  0  0
  5 95  1  0  0  0
  6 25  1  0  0  0
  6 96  1  0  0  0
  6 97  1  0  0  0
  7  8  2  0  0  0
  7 26  1  0  0  0
  7 29  1  0  0  0
  8  9  1  0  0  0
  8 22  1  0  0  0
  9 10  1  0  0  0
  9 27  2  0  0  0
 10 11  2  0  0  0
 10 15  1  0  0  0
 11 12  1  0  0  0
 11 98  1  0  0  0
 12 13  2  0  0  0
 12 99  1  0  0  0
 13 14  1  0  0  0
 13 31  1  0  0  0
 14 15  2  0  0  0
 14100  1  0  0  0
 15101  1  0  0  0
 16 17  2  0  0  0
 16 21  1  0  0  0
 16 31  1  0  0  0
 17 18  1  0  0  0
 17102  1  0  0  0
 18 19  2  0  0  0
 18103  1  0  0  0
 19 20  1  0  0  0
 19 24  1  0  0  0
 20 21  2  0  0  0
 20104  1  0  0  0
 21 23  1  0  0  0
 22 28  1  0  0  0
 22 32  2  0  0  0
 26 27  1  0  0  0
 28105  1  0  0  0
 28106  1  0  0  0
 29107  1  0  0  0
 29108  1  0  0  0
 33 34  1  0  0  0
 33 66  1  0  0  0
 33 70  2  0  0  0
 34 36  1  0  0  0
 34 59  1  0  0  0
 34109  1  0  0  0
 35 44  2  0  0  0
 35 45  1  0  0  0
 35 68  1  0  0  0
 36 56  1  0  0  0
 36110  1  0  0  0
 37 39  1  0  0  0
 37 47  1  0  0  0
 37 66  1  0  0  0
 37111  1  0  0  0
 38 43  2  0  0  0
 38 46  1  0  0  0
 38 47  1  0  0  0
 39 64  1  0  0  0
 39 67  2  0  0  0
 40 52  1  0  0  0
 40 53  2  0  0  0
 40 58  1  0  0  0
 41112  1  0  0  0
 41113  1  0  0  0
 41114  1  0  0  0
 41 48  1  0  0  0
 42 43  1  0  0  0
 42 66  1  0  0  0
 42115  1  0  0  0
 42116  1  0  0  0
 43 44  1  0  0  0
 44117  1  0  0  0
 45 46  2  0  0  0
 45118  1  0  0  0
 46119  1  0  0  0
 47120  1  0  0  0
 47121  1  0  0  0
 48 56  1  0  0  0
 48 65  1  0  0  0
 48122  1  0  0  0
 49 50  1  0  0  0
 49 53  1  0  0  0
 49 64  1  0  0  0
 49123  1  0  0  0
 50 51  1  0  0  0
 50124  1  0  0  0
 50125  1  0  0  0
 51 52  1  0  0  0
 51126  1  0  0  0
 51127  1  0  0  0
 52128  1  0  0  0
 52129  1  0  0  0
 53 54  1  0  0  0
 54 55  2  0  0  0
 54130  1  0  0  0
 55 57  1  0  0  0
 55131  1  0  0  0
 56 69  2  0  0  0
 57 58  2  0  0  0
 57132  1  0  0  0
 58133  1  0  0  0
 59 60  1  0  0  0
 59 61  1  0  0  0
 59 62  1  0  0  0
 60134  1  0  0  0
 60135  1  0  0  0
 60136  1  0  0  0
 61137  1  0  0  0
 61138  1  0  0  0
 61139  1  0  0  0
 62140  1  0  0  0
 62141  1  0  0  0
 62142  1  0  0  0
 63 65  1  0  0  0
 63143  1  0  0  0
 63144  1  0  0  0
 63145  1  0  0  0
 64146  1  0  0  0
 65147  1  0  0  0
 68 84  1  0  0  0
 71 73  2  0  0  0
 71 75  1  0  0  0
 71148  1  0  0  0
 72 74  1  0  0  0
 72 75  2  0  0  0
 72149  1  0  0  0
 73 76  1  0  0  0
 73150  1  0  0  0
 74 76  2  0  0  0
 74151  1  0  0  0
 75 80  1  0  0  0
 76 85  1  0  0  0
 77 78  2  0  0  0
 77 85  1  0  0  0
 77152  1  0  0  0
 78 81  1  0  0  0
 78 84  1  0  0  0
 79 82  1  0  0  0
 79 85  1  0  0  0
 79 87  2  0  0  0
 80 86  1  0  0  0
 80 88  2  0  0  0
 81 82  1  0  0  0
 81153  1  0  0  0
 81154  1  0  0  0
 82155  1  0  0  0
 82156  1  0  0  0
 83 86  1  0  0  0
 83157  1  0  0  0
 83158  1  0  0  0
 83159  1  0  0  0
 84160  1  0  0  0
 84161  1  0  0  0
M  ISO  4   1 100  68 101  84 101  86 100
M  END
> <chiral flag>
0

> <version>
0

> <s_m_source_file>
/data/baiqing/PycharmProjects/Reinvent-master-3.2/result/LINK_invent/BTK/process_docking_weight1_custom_product_contain_oxygen_bond_distance_aromatic_linkinvent_7_9_3/rearranged_h_0094.sdf

> <i_m_source_file_index>
83

> <r_mmod_Potential_Energy-OPLS-2005>
306.631164550781

> <r_mmod_Stretch_Energy-OPLS-2005>
51.2505989074707

> <r_mmod_Bend_Energy-OPLS-2005>
115.750885009766

> <r_mmod_Torsional_Energy-OPLS-2005>
375.766632080078

> <r_mmod_Improper_Torsional_Energy-OPLS-2005>
19.6506366729736

> <r_mmod_Van_der_Waal_Energy-OPLS-2005>
199.67854309082

> <r_mmod_Electrostatic_Energy-OPLS-2005>
-274.436157226562

> <r_mmod_Solvation_Energy-OPLS-2005>
-206.977386474609

> <b_mmod_Minimization_Converged-OPLS-2005>
0

> <r_mmod_RMS_Derivative-OPLS-2005>
6.02554035186768

$$$$
83
                    3D
 Structure written by MMmdl.
150158  0  0  1  0            999 V2000
  -30.6108  -14.6777   20.4828 C   0  0  0  0  0  0
  -30.4398  -12.4129   19.4591 C   0  0  0  0  0  0
  -29.5096  -12.5077   18.2287 C   0  0  0  0  0  0
  -28.0330  -12.3414   18.6411 C   0  0  0  0  0  0
  -27.6506  -13.2208   19.8615 C   0  0  2  0  0  0
  -28.6967  -13.0969   20.9924 C   0  0  0  0  0  0
  -25.2544  -13.8174   20.5693 C   0  0  0  0  0  0
  -24.1813  -13.0430   20.9173 C   0  0  0  0  0  0
  -24.6395  -11.6906   20.8730 C   0  0  0  0  0  0
  -23.9067  -10.4288   21.0400 C   0  0  0  0  0  0
  -24.3617   -9.4206   21.9181 C   0  0  0  0  0  0
  -23.6291   -8.2243   22.0753 C   0  0  0  0  0  0
  -22.4273   -8.0280   21.3544 C   0  0  0  0  0  0
  -21.9908   -9.0253   20.4646 C   0  0  0  0  0  0
  -22.7237  -10.2131   20.3052 C   0  0  0  0  0  0
  -21.6853   -6.0735   22.5279 C   0  0  0  0  0  0
  -21.4015   -6.5639   23.8212 C   0  0  0  0  0  0
  -21.3659   -5.6792   24.9174 C   0  0  0  0  0  0
  -21.6044   -4.3054   24.7225 C   0  0  0  0  0  0
  -21.8819   -3.8146   23.4346 C   0  0  0  0  0  0
  -21.9193   -4.6963   22.3402 C   0  0  0  0  0  0
  -22.7837  -13.5221   21.1846 C   0  0  0  0  0  0
  -22.1661   -4.2148   21.0980 F   0  0  0  0  0  0
  -21.5628   -3.4538   25.7738 F   0  0  0  0  0  0
  -30.0079  -13.4454   20.4239 N   0  0  0  0  0  0
  -26.2981  -12.9367   20.3328 N   0  0  0  0  0  0
  -25.9328  -11.6516   20.5761 N   0  0  0  0  0  0
  -22.0488  -12.8214   22.0410 N   0  0  0  0  0  0
  -25.4230  -15.1902   20.4167 N   0  0  0  0  0  0
  -31.7825  -14.8246   20.1231 O   0  0  0  0  0  0
  -21.6639   -6.8877   21.4241 O   0  0  0  0  0  0
  -22.3515  -14.5528   20.6701 O   0  0  0  0  0  0
  -24.6279  -31.8582   23.2011 C   0  0  0  0  0  0
  -25.9119  -32.4771   23.8346 C   0  0  1  0  0  0
  -27.2237  -27.3001   20.1186 C   0  0  0  0  0  0
  -25.5927  -33.8572   24.2271 N   0  0  0  0  0  0
  -23.4226  -30.4818   21.5442 C   0  0  2  0  0  0
  -24.8693  -28.9348   20.1105 C   0  0  0  0  0  0
  -22.7484  -29.4617   22.4927 C   0  0  0  0  0  0
  -18.0288  -28.1385   22.8486 C   0  0  0  0  0  0
  -24.1489  -36.7291   23.2639 C   0  0  0  0  0  0
  -25.9657  -30.7832   21.3752 C   0  0  0  0  0  0
  -26.0395  -29.4094   20.7161 C   0  0  0  0  0  0
  -27.2196  -28.6044   20.7090 C   0  0  0  0  0  0
  -26.0288  -26.8844   19.4865 C   0  0  0  0  0  0
  -24.8671  -27.6788   19.4863 C   0  0  0  0  0  0
  -23.6382  -29.8170   20.1596 C   0  0  0  0  0  0
  -25.4115  -36.3079   24.0327 C   0  0  1  0  0  0
  -20.5890  -28.3692   23.1278 C   0  0  2  0  0  0
  -20.6777  -26.9413   22.5409 C   0  0  0  0  0  0
  -19.5751  -26.6383   21.5212 C   0  0  0  0  0  0
  -18.1932  -26.7927   22.1626 C   0  0  0  0  0  0
  -19.1541  -28.8855   23.2877 C   0  0  0  0  0  0
  -18.9463  -30.1457   23.8895 C   0  0  0  0  0  0
  -17.6462  -30.6587   24.0563 C   0  0  0  0  0  0
  -25.9052  -34.9448   23.5100 C   0  0  0  0  0  0
  -16.5354  -29.9085   23.6330 C   0  0  0  0  0  0
  -16.7275  -28.6502   23.0352 C   0  0  0  0  0  0
  -26.4497  -31.6586   25.0724 C   0  0  0  0  0  0
  -25.3726  -31.3730   26.1448 C   0  0  0  0  0  0
  -27.0344  -30.3008   24.6192 C   0  0  0  0  0  0
  -27.6051  -32.4327   25.7497 C   0  0  0  0  0  0
  -27.5579  -37.1802   24.8465 C   0  0  0  0  0  0
  -21.4195  -29.3043   22.3671 N   0  0  0  0  0  0
  -26.4292  -37.3774   23.9407 N   0  0  0  0  0  0
  -24.6910  -31.0579   22.0969 N   0  0  0  0  0  0
  -23.4200  -28.8155   23.3013 O   0  0  0  0  0  0
  -28.3347  -26.4367   20.1750 O   0  0  0  0  0  0
  -26.5623  -34.8917   22.4668 O   0  0  0  0  0  0
  -23.5438  -32.1387   23.7329 O   0  0  0  0  0  0
  -31.1101  -19.3372   20.2412 C   0  0  0  0  0  0
  -31.0833  -17.9091   20.2845 C   0  0  0  0  0  0
  -28.8064  -19.4469   20.8983 C   0  0  0  0  0  0
  -29.9865  -20.1611   20.5574 C   0  0  0  0  0  0
  -29.9127  -17.2005   20.6585 C   0  0  0  0  0  0
  -28.7767  -18.0141   20.9442 C   0  0  0  0  0  0
  -30.1715  -21.6982   20.6967 C   0  0  0  0  0  0
  -29.2983  -24.0227   20.4600 C   0  0  0  0  0  0
  -28.1085  -24.9671   20.0116 C   0  0  0  0  0  0
  -29.7891  -15.7385   20.7825 N   0  0  0  0  0  0
  -29.2078  -22.6361   20.3775 N   0  0  0  0  0  0
  -31.2927  -22.0380   21.0925 O   0  0  0  0  0  0
  -30.3045  -24.6038   20.8861 O   0  0  0  0  0  0
  -27.6228  -17.3970   21.2952 F   0  0  0  0  0  0
  -31.4803  -12.5417   19.1559 H   0  0  0  0  0  0
  -30.3811  -11.4224   19.9130 H   0  0  0  0  0  0
  -29.7792  -11.7492   17.4925 H   0  0  0  0  0  0
  -29.6463  -13.4725   17.7374 H   0  0  0  0  0  0
  -27.8757  -11.2893   18.8816 H   0  0  0  0  0  0
  -27.3776  -12.5604   17.7974 H   0  0  0  0  0  0
  -27.6602  -14.2521   19.5086 H   0  0  0  0  0  0
  -28.7163  -12.0808   21.3891 H   0  0  0  0  0  0
  -28.4394  -13.7410   21.8347 H   0  0  0  0  0  0
  -25.2764   -9.5682   22.4753 H   0  0  0  0  0  0
  -24.0000   -7.4636   22.7474 H   0  0  0  0  0  0
  -21.0838   -8.8772   19.8953 H   0  0  0  0  0  0
  -22.3696  -10.9669   19.6160 H   0  0  0  0  0  0
  -21.2009   -7.6148   23.9715 H   0  0  0  0  0  0
  -21.1480   -6.0522   25.9077 H   0  0  0  0  0  0
  -22.0599   -2.7608   23.2847 H   0  0  0  0  0  0
  -22.4108  -11.9875   22.4794 H   0  0  0  0  0  0
  -21.1109  -13.1242   22.2627 H   0  0  0  0  0  0
  -24.6618  -15.8430   20.5650 H   0  0  0  0  0  0
  -26.2926  -15.6523   20.1826 H   0  0  0  0  0  0
  -26.7186  -32.5434   23.1092 H   0  0  0  0  0  0
  -25.0069  -33.9713   25.0413 H   0  0  0  0  0  0
  -22.7173  -31.3030   21.4006 H   0  0  0  0  0  0
  -23.3749  -35.9626   23.3304 H   0  0  0  0  0  0
  -24.3579  -36.8911   22.2053 H   0  0  0  0  0  0
  -23.7245  -37.6494   23.6661 H   0  0  0  0  0  0
  -26.1003  -31.5465   20.6076 H   0  0  0  0  0  0
  -26.8449  -30.8308   22.0063 H   0  0  0  0  0  0
  -28.1164  -28.9635   21.1943 H   0  0  0  0  0  0
  -25.9613  -25.9265   18.9934 H   0  0  0  0  0  0
  -23.9707  -27.3105   19.0063 H   0  0  0  0  0  0
  -23.7591  -30.5938   19.4036 H   0  0  0  0  0  0
  -22.7576  -29.2480   19.8561 H   0  0  0  0  0  0
  -25.1296  -36.1930   25.0820 H   0  0  0  0  0  0
  -20.9983  -28.3268   24.1398 H   0  0  0  0  0  0
  -20.5678  -26.2301   23.3610 H   0  0  0  0  0  0
  -21.6645  -26.7440   22.1202 H   0  0  0  0  0  0
  -19.6913  -25.6294   21.1242 H   0  0  0  0  0  0
  -19.6687  -27.3193   20.6742 H   0  0  0  0  0  0
  -17.4200  -26.6671   21.4031 H   0  0  0  0  0  0
  -18.0336  -26.0071   22.9025 H   0  0  0  0  0  0
  -19.7939  -30.7274   24.2263 H   0  0  0  0  0  0
  -17.5017  -31.6267   24.5165 H   0  0  0  0  0  0
  -15.5354  -30.2986   23.7654 H   0  0  0  0  0  0
  -15.8676  -28.0821   22.7068 H   0  0  0  0  0  0
  -24.5899  -30.7081   25.7776 H   0  0  0  0  0  0
  -24.8920  -32.2899   26.4871 H   0  0  0  0  0  0
  -25.8046  -30.8907   27.0225 H   0  0  0  0  0  0
  -26.2925  -29.6756   24.1211 H   0  0  0  0  0  0
  -27.4031  -29.7268   25.4703 H   0  0  0  0  0  0
  -27.8798  -30.4290   23.9427 H   0  0  0  0  0  0
  -27.2655  -33.3626   26.2071 H   0  0  0  0  0  0
  -28.3863  -32.6891   25.0328 H   0  0  0  0  0  0
  -28.0717  -31.8457   26.5418 H   0  0  0  0  0  0
  -28.2597  -38.0098   24.7509 H   0  0  0  0  0  0
  -28.1074  -36.2629   24.6295 H   0  0  0  0  0  0
  -27.2296  -37.1455   25.8868 H   0  0  0  0  0  0
  -20.9374  -29.8769   21.6883 H   0  0  0  0  0  0
  -26.0173  -38.2849   24.1405 H   0  0  0  0  0  0
  -32.0487  -19.8141   19.9924 H   0  0  0  0  0  0
  -31.9899  -17.3703   20.0503 H   0  0  0  0  0  0
  -27.9173  -19.9922   21.1786 H   0  0  0  0  0  0
  -27.2313  -24.6657   20.5856 H   0  0  0  0  0  0
  -27.9017  -24.7520   18.9629 H   0  0  0  0  0  0
  -28.8665  -15.4476   21.0683 H   0  0  0  0  0  0
  -28.3389  -22.2659   20.0265 H   0  0  0  0  0  0
  1 25  1  0  0  0
  1 30  2  0  0  0
  1 80  1  0  0  0
  2  3  1  0  0  0
  2 25  1  0  0  0
  2 85  1  0  0  0
  2 86  1  0  0  0
  3  4  1  0  0  0
  3 87  1  0  0  0
  3 88  1  0  0  0
  4  5  1  0  0  0
  4 89  1  0  0  0
  4 90  1  0  0  0
  5  6  1  0  0  0
  5 26  1  0  0  0
  5 91  1  0  0  0
  6 25  1  0  0  0
  6 92  1  0  0  0
  6 93  1  0  0  0
  7  8  2  0  0  0
  7 26  1  0  0  0
  7 29  1  0  0  0
  8  9  1  0  0  0
  8 22  1  0  0  0
  9 10  1  0  0  0
  9 27  2  0  0  0
 10 11  2  0  0  0
 10 15  1  0  0  0
 11 12  1  0  0  0
 11 94  1  0  0  0
 12 13  2  0  0  0
 12 95  1  0  0  0
 13 14  1  0  0  0
 13 31  1  0  0  0
 14 15  2  0  0  0
 14 96  1  0  0  0
 15 97  1  0  0  0
 16 17  2  0  0  0
 16 21  1  0  0  0
 16 31  1  0  0  0
 17 18  1  0  0  0
 17 98  1  0  0  0
 18 19  2  0  0  0
 18 99  1  0  0  0
 19 20  1  0  0  0
 19 24  1  0  0  0
 20 21  2  0  0  0
 20100  1  0  0  0
 21 23  1  0  0  0
 22 28  1  0  0  0
 22 32  2  0  0  0
 26 27  1  0  0  0
 28101  1  0  0  0
 28102  1  0  0  0
 29103  1  0  0  0
 29104  1  0  0  0
 33 34  1  0  0  0
 33 66  1  0  0  0
 33 70  2  0  0  0
 34 36  1  0  0  0
 34 59  1  0  0  0
 34105  1  0  0  0
 35 44  2  0  0  0
 35 45  1  0  0  0
 35 68  1  0  0  0
 36 56  1  0  0  0
 36106  1  0  0  0
 37 39  1  0  0  0
 37 47  1  0  0  0
 37 66  1  0  0  0
 37107  1  0  0  0
 38 43  2  0  0  0
 38 46  1  0  0  0
 38 47  1  0  0  0
 39 64  1  0  0  0
 39 67  2  0  0  0
 40 52  1  0  0  0
 40 53  2  0  0  0
 40 58  1  0  0  0
 41108  1  0  0  0
 41109  1  0  0  0
 41110  1  0  0  0
 41 48  1  0  0  0
 42 43  1  0  0  0
 42 66  1  0  0  0
 42111  1  0  0  0
 42112  1  0  0  0
 43 44  1  0  0  0
 44113  1  0  0  0
 45 46  2  0  0  0
 45114  1  0  0  0
 46115  1  0  0  0
 47116  1  0  0  0
 47117  1  0  0  0
 48 56  1  0  0  0
 48 65  1  0  0  0
 48118  1  0  0  0
 49 50  1  0  0  0
 49 53  1  0  0  0
 49 64  1  0  0  0
 49119  1  0  0  0
 50 51  1  0  0  0
 50120  1  0  0  0
 50121  1  0  0  0
 51 52  1  0  0  0
 51122  1  0  0  0
 51123  1  0  0  0
 52124  1  0  0  0
 52125  1  0  0  0
 53 54  1  0  0  0
 54 55  2  0  0  0
 54126  1  0  0  0
 55 57  1  0  0  0
 55127  1  0  0  0
 56 69  2  0  0  0
 57 58  2  0  0  0
 57128  1  0  0  0
 58129  1  0  0  0
 59 60  1  0  0  0
 59 61  1  0  0  0
 59 62  1  0  0  0
 60130  1  0  0  0
 60131  1  0  0  0
 60132  1  0  0  0
 61133  1  0  0  0
 61134  1  0  0  0
 61135  1  0  0  0
 62136  1  0  0  0
 62137  1  0  0  0
 62138  1  0  0  0
 63 65  1  0  0  0
 63139  1  0  0  0
 63140  1  0  0  0
 63141  1  0  0  0
 64142  1  0  0  0
 65143  1  0  0  0
 68 79  1  0  0  0
 71 72  2  0  0  0
 71 74  1  0  0  0
 71144  1  0  0  0
 72 75  1  0  0  0
 72145  1  0  0  0
 73 74  2  0  0  0
 73 76  1  0  0  0
 73146  1  0  0  0
 74 77  1  0  0  0
 75 76  2  0  0  0
 75 80  1  0  0  0
 76 84  1  0  0  0
 77 81  1  0  0  0
 77 82  2  0  0  0
 78 79  1  0  0  0
 78 81  1  0  0  0
 78 83  2  0  0  0
 79147  1  0  0  0
 79148  1  0  0  0
 80149  1  0  0  0
 81150  1  0  0  0
M  ISO  4   1 100  68 101  79 101  80 100
M  END
> <chiral flag>
0

> <version>
0

> <s_m_source_file>
/data/baiqing/PycharmProjects/Reinvent-master-3.2/result/LINK_invent/BTK/process_docking_weight1_custom_product_contain_oxygen_bond_distance_aromatic_linkinvent_7_9_3/rearranged_h_0094.sdf

> <i_m_source_file_index>
84

> <r_mmod_Potential_Energy-OPLS-2005>
-114.081840515137

> <r_mmod_Stretch_Energy-OPLS-2005>
91.3526306152344

> <r_mmod_Bend_Energy-OPLS-2005>
150.067779541016

> <r_mmod_Torsional_Energy-OPLS-2005>
219.889465332031

> <r_mmod_Improper_Torsional_Energy-OPLS-2005>
5.02043676376343

> <r_mmod_Van_der_Waal_Energy-OPLS-2005>
151.793029785156

> <r_mmod_Electrostatic_Energy-OPLS-2005>
-507.714721679688

> <r_mmod_Solvation_Energy-OPLS-2005>
-284.386077880859

> <b_mmod_Minimization_Converged-OPLS-2005>
0

> <r_mmod_RMS_Derivative-OPLS-2005>
0.106859803199768

$$$$
84
                    3D
 Structure written by MMmdl.
157165  0  0  1  0            999 V2000
  -30.7017  -14.4657   20.5941 C   0  0  0  0  0  0
  -30.4175  -12.3039   19.4357 C   0  0  0  0  0  0
  -29.4941  -12.5031   18.2194 C   0  0  0  0  0  0
  -28.0221  -12.3148   18.6358 C   0  0  0  0  0  0
  -27.6548  -13.1879   19.8656 C   0  0  2  0  0  0
  -28.6920  -12.9900   20.9951 C   0  0  0  0  0  0
  -25.2555  -13.8006   20.5669 C   0  0  0  0  0  0
  -24.1823  -13.0367   20.9179 C   0  0  0  0  0  0
  -24.6333  -11.6812   20.8720 C   0  0  0  0  0  0
  -23.9009  -10.4236   21.0363 C   0  0  0  0  0  0
  -24.3568   -9.4180   21.9184 C   0  0  0  0  0  0
  -23.6240   -8.2228   22.0774 C   0  0  0  0  0  0
  -22.4250   -8.0221   21.3533 C   0  0  0  0  0  0
  -21.9848   -9.0201   20.4670 C   0  0  0  0  0  0
  -22.7154  -10.2080   20.3043 C   0  0  0  0  0  0
  -21.6853   -6.0715   22.5296 C   0  0  0  0  0  0
  -21.3999   -6.5620   23.8221 C   0  0  0  0  0  0
  -21.3643   -5.6783   24.9183 C   0  0  0  0  0  0
  -21.6075   -4.3054   24.7242 C   0  0  0  0  0  0
  -21.8808   -3.8128   23.4363 C   0  0  0  0  0  0
  -21.9177   -4.6943   22.3422 C   0  0  0  0  0  0
  -22.7839  -13.5188   21.1870 C   0  0  0  0  0  0
  -22.1661   -4.2115   21.0995 F   0  0  0  0  0  0
  -21.5622   -3.4536   25.7765 F   0  0  0  0  0  0
  -30.0277  -13.2893   20.4503 N   0  0  0  0  0  0
  -26.2990  -12.9210   20.3305 N   0  0  0  0  0  0
  -25.9234  -11.6399   20.5702 N   0  0  0  0  0  0
  -22.0487  -12.8229   22.0407 N   0  0  0  0  0  0
  -25.4320  -15.1733   20.4110 N   0  0  0  0  0  0
  -31.8441  -14.6192   20.1490 O   0  0  0  0  0  0
  -21.6613   -6.8828   21.4230 O   0  0  0  0  0  0
  -22.3562  -14.5552   20.6728 O   0  0  0  0  0  0
  -24.6106  -31.8675   23.2056 C   0  0  0  0  0  0
  -25.9027  -32.4811   23.8351 C   0  0  1  0  0  0
  -27.3196  -27.4918   20.0859 C   0  0  0  0  0  0
  -25.5881  -33.8624   24.2278 N   0  0  0  0  0  0
  -23.4065  -30.4838   21.5449 C   0  0  2  0  0  0
  -24.8751  -28.9511   20.1325 C   0  0  0  0  0  0
  -22.7411  -29.4658   22.5019 C   0  0  0  0  0  0
  -18.0291  -28.1385   22.8486 C   0  0  0  0  0  0
  -24.1494  -36.7343   23.2646 C   0  0  0  0  0  0
  -25.9271  -30.8580   21.3552 C   0  0  0  0  0  0
  -26.0321  -29.4901   20.7081 C   0  0  0  0  0  0
  -27.2597  -28.7795   20.6670 C   0  0  0  0  0  0
  -26.1393  -26.9733   19.5035 C   0  0  0  0  0  0
  -24.9256  -27.6831   19.5383 C   0  0  0  0  0  0
  -23.6220  -29.7919   20.1677 C   0  0  0  0  0  0
  -25.4100  -36.3138   24.0340 C   0  0  1  0  0  0
  -20.5862  -28.3668   23.1325 C   0  0  2  0  0  0
  -20.6774  -26.9421   22.5417 C   0  0  0  0  0  0
  -19.5752  -26.6393   21.5231 C   0  0  0  0  0  0
  -18.1935  -26.7914   22.1623 C   0  0  0  0  0  0
  -19.1517  -28.8835   23.2883 C   0  0  0  0  0  0
  -18.9436  -30.1452   23.8900 C   0  0  0  0  0  0
  -17.6423  -30.6572   24.0574 C   0  0  0  0  0  0
  -25.9018  -34.9508   23.5107 C   0  0  0  0  0  0
  -16.5340  -29.9083   23.6307 C   0  0  0  0  0  0
  -16.7260  -28.6492   23.0334 C   0  0  0  0  0  0
  -26.4507  -31.6587   25.0655 C   0  0  0  0  0  0
  -25.3769  -31.3678   26.1388 C   0  0  0  0  0  0
  -27.0335  -30.3020   24.6032 C   0  0  0  0  0  0
  -27.6107  -32.4295   25.7384 C   0  0  0  0  0  0
  -27.5575  -37.1817   24.8466 C   0  0  0  0  0  0
  -21.4109  -29.3030   22.3701 N   0  0  0  0  0  0
  -26.4263  -37.3789   23.9404 N   0  0  0  0  0  0
  -24.6615  -31.0849   22.0955 N   0  0  0  0  0  0
  -23.4174  -28.8225   23.3058 O   0  0  0  0  0  0
  -28.5222  -26.7790   20.0825 O   0  0  0  0  0  0
  -26.5630  -34.8929   22.4697 O   0  0  0  0  0  0
  -23.5311  -32.1411   23.7484 O   0  0  0  0  0  0
  -30.4235  -19.8686   19.7791 C   0  0  0  0  0  0
  -28.9381  -20.1794   21.6840 C   0  0  0  0  0  0
  -30.5234  -21.2712   19.6301 C   0  0  0  0  0  0
  -29.0672  -21.5835   21.5448 C   0  0  0  0  0  0
  -29.5697  -19.2959   20.7589 C   0  0  0  0  0  0
  -29.8045  -22.1401   20.4657 C   0  0  0  0  0  0
  -27.4311  -17.2969   18.8739 C   0  0  0  0  0  0
  -28.7011  -17.4924   19.2582 C   0  0  0  0  0  0
  -29.6647  -24.6130   20.7964 C   0  0  0  0  0  0
  -30.2923  -16.7926   21.1031 C   0  0  0  0  0  0
  -28.3875  -25.4670   20.6418 C   0  0  0  0  0  0
  -29.1850  -17.7942   20.6736 C   0  0  1  0  0  0
  -29.6414  -23.4970   20.0533 N   0  0  0  0  0  0
  -29.9508  -15.4839   21.0582 N   0  0  0  0  0  0
  -30.5681  -24.9171   21.5985 O   0  0  0  0  0  0
  -31.4196  -17.1973   21.3978 O   0  0  0  0  0  0
  -31.4601  -12.3878   19.1435 H   0  0  0  0  0  0
  -30.2998  -11.2939   19.8348 H   0  0  0  0  0  0
  -29.7540  -11.7952   17.4314 H   0  0  0  0  0  0
  -29.6345  -13.4968   17.7986 H   0  0  0  0  0  0
  -27.8900  -11.2577   18.8815 H   0  0  0  0  0  0
  -27.3517  -12.5187   17.7981 H   0  0  0  0  0  0
  -27.6933  -14.2281   19.5397 H   0  0  0  0  0  0
  -28.6634  -11.9590   21.3526 H   0  0  0  0  0  0
  -28.4402  -13.5945   21.8679 H   0  0  0  0  0  0
  -25.2702   -9.5680   22.4752 H   0  0  0  0  0  0
  -23.9958   -7.4619   22.7482 H   0  0  0  0  0  0
  -21.0792   -8.8699   19.8960 H   0  0  0  0  0  0
  -22.3611  -10.9610   19.6160 H   0  0  0  0  0  0
  -21.1992   -7.6139   23.9708 H   0  0  0  0  0  0
  -21.1493   -6.0535   25.9100 H   0  0  0  0  0  0
  -22.0598   -2.7574   23.2896 H   0  0  0  0  0  0
  -22.4045  -11.9833   22.4741 H   0  0  0  0  0  0
  -21.1144  -13.1305   22.2675 H   0  0  0  0  0  0
  -24.6539  -15.8188   20.4774 H   0  0  0  0  0  0
  -26.2699  -15.5880   20.0264 H   0  0  0  0  0  0
  -26.7115  -32.5589   23.1143 H   0  0  0  0  0  0
  -24.9907  -33.9744   25.0354 H   0  0  0  0  0  0
  -22.6928  -31.2975   21.3941 H   0  0  0  0  0  0
  -23.3714  -35.9704   23.3304 H   0  0  0  0  0  0
  -24.3575  -36.8965   22.2055 H   0  0  0  0  0  0
  -23.7280  -37.6556   23.6656 H   0  0  0  0  0  0
  -26.0218  -31.6119   20.5763 H   0  0  0  0  0  0
  -26.8144  -30.9179   21.9669 H   0  0  0  0  0  0
  -28.1295  -29.2233   21.1468 H   0  0  0  0  0  0
  -26.1521  -25.9945   19.0751 H   0  0  0  0  0  0
  -24.0532  -27.2255   19.1075 H   0  0  0  0  0  0
  -23.7130  -30.5581   19.3935 H   0  0  0  0  0  0
  -22.7503  -29.1967   19.8789 H   0  0  0  0  0  0
  -25.1283  -36.1959   25.0809 H   0  0  0  0  0  0
  -20.9945  -28.3255   24.1455 H   0  0  0  0  0  0
  -20.5708  -26.2299   23.3606 H   0  0  0  0  0  0
  -21.6643  -26.7493   22.1209 H   0  0  0  0  0  0
  -19.6924  -25.6308   21.1257 H   0  0  0  0  0  0
  -19.6684  -27.3196   20.6760 H   0  0  0  0  0  0
  -17.4215  -26.6666   21.4046 H   0  0  0  0  0  0
  -18.0336  -26.0088   22.9026 H   0  0  0  0  0  0
  -19.7918  -30.7283   24.2287 H   0  0  0  0  0  0
  -17.4981  -31.6264   24.5176 H   0  0  0  0  0  0
  -15.5316  -30.2976   23.7647 H   0  0  0  0  0  0
  -15.8672  -28.0825   22.7022 H   0  0  0  0  0  0
  -24.5937  -30.7023   25.7699 H   0  0  0  0  0  0
  -24.8972  -32.2829   26.4852 H   0  0  0  0  0  0
  -25.8120  -30.8828   27.0141 H   0  0  0  0  0  0
  -27.8728  -30.4356   23.9179 H   0  0  0  0  0  0
  -27.4127  -29.7264   25.4495 H   0  0  0  0  0  0
  -26.2917  -29.6785   24.1034 H   0  0  0  0  0  0
  -27.2726  -33.3544   26.2048 H   0  0  0  0  0  0
  -28.3806  -32.6953   25.0141 H   0  0  0  0  0  0
  -28.0865  -31.8371   26.5190 H   0  0  0  0  0  0
  -28.2613  -38.0102   24.7483 H   0  0  0  0  0  0
  -28.1047  -36.2642   24.6307 H   0  0  0  0  0  0
  -27.2298  -37.1484   25.8868 H   0  0  0  0  0  0
  -20.9326  -29.8718   21.6861 H   0  0  0  0  0  0
  -26.0188  -38.2846   24.1396 H   0  0  0  0  0  0
  -30.9115  -19.2184   19.0473 H   0  0  0  0  0  0
  -28.2651  -19.7600   22.4359 H   0  0  0  0  0  0
  -31.0771  -21.6574   18.7809 H   0  0  0  0  0  0
  -28.4883  -22.2066   22.2103 H   0  0  0  0  0  0
  -27.2009  -17.0906   17.8336 H   0  0  0  0  0  0
  -26.6104  -17.3450   19.5678 H   0  0  0  0  0  0
  -29.4791  -17.4447   18.5102 H   0  0  0  0  0  0
  -27.7041  -24.9161   20.0282 H   0  0  0  0  0  0
  -27.9171  -25.5629   21.6007 H   0  0  0  0  0  0
  -28.3401  -17.6269   21.3501 H   0  0  0  0  0  0
  -29.0127  -23.5819   19.2719 H   0  0  0  0  0  0
  -28.9719  -15.2738   21.1624 H   0  0  0  0  0  0
  1 25  1  0  0  0
  1 30  2  0  0  0
  1 84  1  0  0  0
  2  3  1  0  0  0
  2 25  1  0  0  0
  2 87  1  0  0  0
  2 88  1  0  0  0
  3  4  1  0  0  0
  3 89  1  0  0  0
  3 90  1  0  0  0
  4  5  1  0  0  0
  4 91  1  0  0  0
  4 92  1  0  0  0
  5  6  1  0  0  0
  5 26  1  0  0  0
  5 93  1  0  0  0
  6 25  1  0  0  0
  6 94  1  0  0  0
  6 95  1  0  0  0
  7  8  2  0  0  0
  7 26  1  0  0  0
  7 29  1  0  0  0
  8  9  1  0  0  0
  8 22  1  0  0  0
  9 10  1  0  0  0
  9 27  2  0  0  0
 10 11  2  0  0  0
 10 15  1  0  0  0
 11 12  1  0  0  0
 11 96  1  0  0  0
 12 13  2  0  0  0
 12 97  1  0  0  0
 13 14  1  0  0  0
 13 31  1  0  0  0
 14 15  2  0  0  0
 14 98  1  0  0  0
 15 99  1  0  0  0
 16 17  2  0  0  0
 16 21  1  0  0  0
 16 31  1  0  0  0
 17 18  1  0  0  0
 17100  1  0  0  0
 18 19  2  0  0  0
 18101  1  0  0  0
 19 20  1  0  0  0
 19 24  1  0  0  0
 20 21  2  0  0  0
 20102  1  0  0  0
 21 23  1  0  0  0
 22 28  1  0  0  0
 22 32  2  0  0  0
 26 27  1  0  0  0
 28103  1  0  0  0
 28104  1  0  0  0
 29105  1  0  0  0
 29106  1  0  0  0
 33 34  1  0  0  0
 33 66  1  0  0  0
 33 70  2  0  0  0
 34 36  1  0  0  0
 34 59  1  0  0  0
 34107  1  0  0  0
 35 44  2  0  0  0
 35 45  1  0  0  0
 35 68  1  0  0  0
 36 56  1  0  0  0
 36108  1  0  0  0
 37 39  1  0  0  0
 37 47  1  0  0  0
 37 66  1  0  0  0
 37109  1  0  0  0
 38 43  2  0  0  0
 38 46  1  0  0  0
 38 47  1  0  0  0
 39 64  1  0  0  0
 39 67  2  0  0  0
 40 52  1  0  0  0
 40 53  2  0  0  0
 40 58  1  0  0  0
 41110  1  0  0  0
 41111  1  0  0  0
 41112  1  0  0  0
 41 48  1  0  0  0
 42 43  1  0  0  0
 42 66  1  0  0  0
 42113  1  0  0  0
 42114  1  0  0  0
 43 44  1  0  0  0
 44115  1  0  0  0
 45 46  2  0  0  0
 45116  1  0  0  0
 46117  1  0  0  0
 47118  1  0  0  0
 47119  1  0  0  0
 48 56  1  0  0  0
 48 65  1  0  0  0
 48120  1  0  0  0
 49 50  1  0  0  0
 49 53  1  0  0  0
 49 64  1  0  0  0
 49121  1  0  0  0
 50 51  1  0  0  0
 50122  1  0  0  0
 50123  1  0  0  0
 51 52  1  0  0  0
 51124  1  0  0  0
 51125  1  0  0  0
 52126  1  0  0  0
 52127  1  0  0  0
 53 54  1  0  0  0
 54 55  2  0  0  0
 54128  1  0  0  0
 55 57  1  0  0  0
 55129  1  0  0  0
 56 69  2  0  0  0
 57 58  2  0  0  0
 57130  1  0  0  0
 58131  1  0  0  0
 59 60  1  0  0  0
 59 61  1  0  0  0
 59 62  1  0  0  0
 60132  1  0  0  0
 60133  1  0  0  0
 60134  1  0  0  0
 61135  1  0  0  0
 61136  1  0  0  0
 61137  1  0  0  0
 62138  1  0  0  0
 62139  1  0  0  0
 62140  1  0  0  0
 63 65  1  0  0  0
 63141  1  0  0  0
 63142  1  0  0  0
 63143  1  0  0  0
 64144  1  0  0  0
 65145  1  0  0  0
 68 81  1  0  0  0
 71 73  2  0  0  0
 71 75  1  0  0  0
 71146  1  0  0  0
 72 74  1  0  0  0
 72 75  2  0  0  0
 72147  1  0  0  0
 73 76  1  0  0  0
 73148  1  0  0  0
 74 76  2  0  0  0
 74149  1  0  0  0
 75 82  1  0  0  0
 76 83  1  0  0  0
 77 78  2  0  0  0
 77150  1  0  0  0
 77151  1  0  0  0
 78152  1  0  0  0
 78 82  1  0  0  0
 79 81  1  0  0  0
 79 83  1  0  0  0
 79 85  2  0  0  0
 80 82  1  0  0  0
 80 84  1  0  0  0
 80 86  2  0  0  0
 81153  1  0  0  0
 81154  1  0  0  0
 82155  1  0  0  0
 83156  1  0  0  0
 84157  1  0  0  0
M  ISO  4   1 100  68 101  81 101  84 100
M  END
> <chiral flag>
0

> <version>
0

> <s_m_source_file>
/data/baiqing/PycharmProjects/Reinvent-master-3.2/result/LINK_invent/BTK/process_docking_weight1_custom_product_contain_oxygen_bond_distance_aromatic_linkinvent_7_9_3/rearranged_h_0094.sdf

> <i_m_source_file_index>
85

> <r_mmod_Potential_Energy-OPLS-2005>
30.5067672729492

> <r_mmod_Stretch_Energy-OPLS-2005>
45.6447830200195

> <r_mmod_Bend_Energy-OPLS-2005>
114.700531005859

> <r_mmod_Torsional_Energy-OPLS-2005>
320.682403564453

> <r_mmod_Improper_Torsional_Energy-OPLS-2005>
12.0159330368042

> <r_mmod_Van_der_Waal_Energy-OPLS-2005>
155.074066162109

> <r_mmod_Electrostatic_Energy-OPLS-2005>
-371.713104248047

> <r_mmod_Solvation_Energy-OPLS-2005>
-261.440765380859

> <b_mmod_Minimization_Converged-OPLS-2005>
0

> <r_mmod_RMS_Derivative-OPLS-2005>
18.087760925293

$$$$
85
                    3D
 Structure written by MMmdl.
148156  0  0  1  0            999 V2000
  -30.3810  -15.3460   20.3525 C   0  0  0  0  0  0
  -30.4471  -12.8585   19.5432 C   0  0  0  0  0  0
  -29.5480  -12.6004   18.3032 C   0  0  0  0  0  0
  -28.0965  -12.3054   18.7223 C   0  0  0  0  0  0
  -27.6123  -13.2782   19.8246 C   0  0  2  0  0  0
  -28.6411  -13.4580   20.9592 C   0  0  0  0  0  0
  -25.2404  -13.8240   20.5766 C   0  0  0  0  0  0
  -24.1733  -13.0427   20.9202 C   0  0  0  0  0  0
  -24.6397  -11.6926   20.8719 C   0  0  0  0  0  0
  -23.9092  -10.4288   21.0384 C   0  0  0  0  0  0
  -24.3636   -9.4208   21.9172 C   0  0  0  0  0  0
  -23.6303   -8.2248   22.0752 C   0  0  0  0  0  0
  -22.4284   -8.0283   21.3544 C   0  0  0  0  0  0
  -21.9922   -9.0254   20.4643 C   0  0  0  0  0  0
  -22.7258  -10.2127   20.3042 C   0  0  0  0  0  0
  -21.6857   -6.0738   22.5280 C   0  0  0  0  0  0
  -21.4017   -6.5641   23.8213 C   0  0  0  0  0  0
  -21.3660   -5.6793   24.9175 C   0  0  0  0  0  0
  -21.6044   -4.3055   24.7225 C   0  0  0  0  0  0
  -21.8819   -3.8148   23.4346 C   0  0  0  0  0  0
  -21.9194   -4.6965   22.3402 C   0  0  0  0  0  0
  -22.7757  -13.5183   21.1879 C   0  0  0  0  0  0
  -22.1662   -4.2150   21.0980 F   0  0  0  0  0  0
  -21.5628   -3.4539   25.7737 F   0  0  0  0  0  0
  -29.8694  -14.0026   20.3503 N   0  0  0  0  0  0
  -26.2829  -12.9517   20.3231 N   0  0  0  0  0  0
  -25.9340  -11.6614   20.5691 N   0  0  0  0  0  0
  -22.0430  -12.8162   22.0445 N   0  0  0  0  0  0
  -25.4119  -15.1970   20.4359 N   0  0  0  0  0  0
  -31.6020  -15.3677   20.1200 O   0  0  0  0  0  0
  -21.6645   -6.8882   21.4243 O   0  0  0  0  0  0
  -22.3424  -14.5488   20.6738 O   0  0  0  0  0  0
  -24.6677  -31.8190   23.1682 C   0  0  0  0  0  0
  -25.9337  -32.4565   23.8161 C   0  0  1  0  0  0
  -27.2199  -26.8758   20.1930 C   0  0  0  0  0  0
  -25.5985  -33.8383   24.2056 N   0  0  0  0  0  0
  -23.4859  -30.4293   21.5181 C   0  0  2  0  0  0
  -24.9429  -28.8097   20.1148 C   0  0  0  0  0  0
  -22.7694  -29.4414   22.4766 C   0  0  0  0  0  0
  -18.0327  -28.1412   22.8463 C   0  0  0  0  0  0
  -24.1495  -36.7196   23.2647 C   0  0  0  0  0  0
  -26.0589  -30.6063   21.4114 C   0  0  0  0  0  0
  -26.1268  -29.1900   20.7598 C   0  0  0  0  0  0
  -27.2574  -28.2438   20.7796 C   0  0  0  0  0  0
  -26.0134  -26.6753   19.4804 C   0  0  0  0  0  0
  -24.9143  -27.5727   19.4542 C   0  0  0  0  0  0
  -23.7311  -29.7433   20.1460 C   0  0  0  0  0  0
  -25.4137  -36.2954   24.0295 C   0  0  1  0  0  0
  -20.5955  -28.3762   23.1174 C   0  0  2  0  0  0
  -20.6802  -26.9437   22.5400 C   0  0  0  0  0  0
  -19.5775  -26.6376   21.5214 C   0  0  0  0  0  0
  -18.1958  -26.7943   22.1621 C   0  0  0  0  0  0
  -19.1590  -28.8909   23.2804 C   0  0  0  0  0  0
  -18.9499  -30.1496   23.8843 C   0  0  0  0  0  0
  -17.6491  -30.6599   24.0554 C   0  0  0  0  0  0
  -25.9106  -34.9337   23.4999 C   0  0  0  0  0  0
  -16.5381  -29.9084   23.6346 C   0  0  0  0  0  0
  -16.7309  -28.6506   23.0364 C   0  0  0  0  0  0
  -26.4570  -31.6530   25.0710 C   0  0  0  0  0  0
  -25.3679  -31.3798   26.1353 C   0  0  0  0  0  0
  -27.0479  -30.2887   24.6494 C   0  0  0  0  0  0
  -27.6049  -32.4355   25.7516 C   0  0  0  0  0  0
  -27.5569  -37.1756   24.8466 C   0  0  0  0  0  0
  -21.4358  -29.3042   22.3515 N   0  0  0  0  0  0
  -26.4279  -37.3694   23.9407 N   0  0  0  0  0  0
  -24.7590  -30.9799   22.0855 N   0  0  0  0  0  0
  -23.4215  -28.7986   23.3030 O   0  0  0  0  0  0
  -28.1836  -25.7126   20.2389 O   0  0  0  0  0  0
  -26.5721  -34.8879   22.4599 O   0  0  0  0  0  0
  -23.5733  -32.1189   23.6736 O   0  0  0  0  0  0
  -28.8005  -19.8409   20.4193 C   0  0  0  0  0  0
  -30.4975  -21.5046   20.0890 C   0  0  0  0  0  0
  -31.0327  -19.0213   20.1302 C   0  0  0  0  0  0
  -29.1079  -21.3622   20.2998 C   0  0  0  0  0  0
  -29.7077  -18.5769   20.3466 C   0  0  0  0  0  0
  -31.4029  -20.3986   20.0107 C   0  0  0  0  0  0
  -28.1162  -22.7629   20.3775 C   0  0  0  0  0  0
  -27.7688  -24.2278   20.3595 C   0  0  0  0  0  0
  -29.3989  -16.8669   20.4749 C   0  0  0  0  0  0
  -28.1684  -16.6597   20.6858 N   0  0  0  0  0  0
  -32.7509  -20.6849   19.7993 N   0  0  0  0  0  0
  -31.4613  -13.0813   19.2099 H   0  0  0  0  0  0
  -30.5354  -11.9569   20.1516 H   0  0  0  0  0  0
  -29.9441  -11.7755   17.7097 H   0  0  0  0  0  0
  -29.5669  -13.4799   17.6578 H   0  0  0  0  0  0
  -28.0614  -11.2819   19.0974 H   0  0  0  0  0  0
  -27.4319  -12.3394   17.8582 H   0  0  0  0  0  0
  -27.5231  -14.2431   19.3243 H   0  0  0  0  0  0
  -28.8241  -12.5181   21.4820 H   0  0  0  0  0  0
  -28.2633  -14.1520   21.7106 H   0  0  0  0  0  0
  -25.2779   -9.5687   22.4748 H   0  0  0  0  0  0
  -24.0009   -7.4643   22.7477 H   0  0  0  0  0  0
  -21.0851   -8.8775   19.8952 H   0  0  0  0  0  0
  -22.3715  -10.9664   19.6150 H   0  0  0  0  0  0
  -21.2012   -7.6149   23.9717 H   0  0  0  0  0  0
  -21.1482   -6.0523   25.9078 H   0  0  0  0  0  0
  -22.0597   -2.7610   23.2846 H   0  0  0  0  0  0
  -22.4071  -11.9828   22.4823 H   0  0  0  0  0  0
  -21.1047  -13.1169   22.2669 H   0  0  0  0  0  0
  -24.6737  -15.8637   20.6297 H   0  0  0  0  0  0
  -26.3286  -15.6318   20.3385 H   0  0  0  0  0  0
  -26.7409  -32.5090   23.0874 H   0  0  0  0  0  0
  -25.0073  -33.9455   25.0167 H   0  0  0  0  0  0
  -22.8019  -31.2624   21.3435 H   0  0  0  0  0  0
  -23.3769  -35.9513   23.3276 H   0  0  0  0  0  0
  -24.3569  -36.8879   22.2068 H   0  0  0  0  0  0
  -23.7240  -37.6369   23.6729 H   0  0  0  0  0  0
  -26.2461  -31.3423   20.6283 H   0  0  0  0  0  0
  -26.9163  -30.6666   22.0695 H   0  0  0  0  0  0
  -28.1494  -28.5321   21.3176 H   0  0  0  0  0  0
  -25.8833  -25.7387   18.9576 H   0  0  0  0  0  0
  -24.0210  -27.2778   18.9207 H   0  0  0  0  0  0
  -23.8920  -30.5111   19.3885 H   0  0  0  0  0  0
  -22.8401  -29.2008   19.8250 H   0  0  0  0  0  0
  -25.1338  -36.1744   25.0786 H   0  0  0  0  0  0
  -21.0042  -28.3373   24.1298 H   0  0  0  0  0  0
  -20.5679  -26.2382   23.3646 H   0  0  0  0  0  0
  -21.6664  -26.7405   22.1209 H   0  0  0  0  0  0
  -19.6934  -25.6272   21.1279 H   0  0  0  0  0  0
  -19.6714  -27.3156   20.6719 H   0  0  0  0  0  0
  -17.4226  -26.6685   21.4026 H   0  0  0  0  0  0
  -18.0353  -26.0099   22.9031 H   0  0  0  0  0  0
  -19.7974  -30.7327   24.2188 H   0  0  0  0  0  0
  -17.5041  -31.6274   24.5166 H   0  0  0  0  0  0
  -15.5379  -30.2968   23.7701 H   0  0  0  0  0  0
  -15.8710  -28.0805   22.7110 H   0  0  0  0  0  0
  -24.5882  -30.7125   25.7660 H   0  0  0  0  0  0
  -24.8845  -32.3003   26.4632 H   0  0  0  0  0  0
  -25.7895  -30.9062   27.0228 H   0  0  0  0  0  0
  -26.3164  -29.6544   24.1476 H   0  0  0  0  0  0
  -27.3955  -29.7276   25.5179 H   0  0  0  0  0  0
  -27.9129  -30.4049   23.9962 H   0  0  0  0  0  0
  -27.2609  -33.3707   26.1945 H   0  0  0  0  0  0
  -28.3937  -32.6833   25.0400 H   0  0  0  0  0  0
  -28.0633  -31.8582   26.5556 H   0  0  0  0  0  0
  -28.2565  -38.0072   24.7513 H   0  0  0  0  0  0
  -28.1087  -36.2597   24.6296 H   0  0  0  0  0  0
  -27.2283  -37.1399   25.8868 H   0  0  0  0  0  0
  -20.9625  -29.8726   21.6631 H   0  0  0  0  0  0
  -26.0122  -38.2750   24.1414 H   0  0  0  0  0  0
  -27.7560  -19.6190   20.5835 H   0  0  0  0  0  0
  -30.8832  -22.5091   19.9822 H   0  0  0  0  0  0
  -31.8016  -18.2650   20.0520 H   0  0  0  0  0  0
  -27.1501  -22.3040   20.5391 H   0  0  0  0  0  0
  -26.7029  -24.3046   20.5240 H   0  0  0  0  0  0
  -27.6684  -17.5380   20.7439 H   0  0  0  0  0  0
  -33.0889  -21.6277   19.9700 H   0  0  0  0  0  0
  -33.4472  -19.9725   19.9995 H   0  0  0  0  0  0
  1 25  1  0  0  0
  1 30  2  0  0  0
  1 79  1  0  0  0
  2  3  1  0  0  0
  2 25  1  0  0  0
  2 82  1  0  0  0
  2 83  1  0  0  0
  3  4  1  0  0  0
  3 84  1  0  0  0
  3 85  1  0  0  0
  4  5  1  0  0  0
  4 86  1  0  0  0
  4 87  1  0  0  0
  5  6  1  0  0  0
  5 26  1  0  0  0
  5 88  1  0  0  0
  6 25  1  0  0  0
  6 89  1  0  0  0
  6 90  1  0  0  0
  7  8  2  0  0  0
  7 26  1  0  0  0
  7 29  1  0  0  0
  8  9  1  0  0  0
  8 22  1  0  0  0
  9 10  1  0  0  0
  9 27  2  0  0  0
 10 11  2  0  0  0
 10 15  1  0  0  0
 11 12  1  0  0  0
 11 91  1  0  0  0
 12 13  2  0  0  0
 12 92  1  0  0  0
 13 14  1  0  0  0
 13 31  1  0  0  0
 14 15  2  0  0  0
 14 93  1  0  0  0
 15 94  1  0  0  0
 16 17  2  0  0  0
 16 21  1  0  0  0
 16 31  1  0  0  0
 17 18  1  0  0  0
 17 95  1  0  0  0
 18 19  2  0  0  0
 18 96  1  0  0  0
 19 20  1  0  0  0
 19 24  1  0  0  0
 20 21  2  0  0  0
 20 97  1  0  0  0
 21 23  1  0  0  0
 22 28  1  0  0  0
 22 32  2  0  0  0
 26 27  1  0  0  0
 28 98  1  0  0  0
 28 99  1  0  0  0
 29100  1  0  0  0
 29101  1  0  0  0
 33 34  1  0  0  0
 33 66  1  0  0  0
 33 70  2  0  0  0
 34 36  1  0  0  0
 34 59  1  0  0  0
 34102  1  0  0  0
 35 44  2  0  0  0
 35 45  1  0  0  0
 35 68  1  0  0  0
 36 56  1  0  0  0
 36103  1  0  0  0
 37 39  1  0  0  0
 37 47  1  0  0  0
 37 66  1  0  0  0
 37104  1  0  0  0
 38 43  2  0  0  0
 38 46  1  0  0  0
 38 47  1  0  0  0
 39 64  1  0  0  0
 39 67  2  0  0  0
 40 52  1  0  0  0
 40 53  2  0  0  0
 40 58  1  0  0  0
 41105  1  0  0  0
 41106  1  0  0  0
 41107  1  0  0  0
 41 48  1  0  0  0
 42 43  1  0  0  0
 42 66  1  0  0  0
 42108  1  0  0  0
 42109  1  0  0  0
 43 44  1  0  0  0
 44110  1  0  0  0
 45 46  2  0  0  0
 45111  1  0  0  0
 46112  1  0  0  0
 47113  1  0  0  0
 47114  1  0  0  0
 48 56  1  0  0  0
 48 65  1  0  0  0
 48115  1  0  0  0
 49 50  1  0  0  0
 49 53  1  0  0  0
 49 64  1  0  0  0
 49116  1  0  0  0
 50 51  1  0  0  0
 50117  1  0  0  0
 50118  1  0  0  0
 51 52  1  0  0  0
 51119  1  0  0  0
 51120  1  0  0  0
 52121  1  0  0  0
 52122  1  0  0  0
 53 54  1  0  0  0
 54 55  2  0  0  0
 54123  1  0  0  0
 55 57  1  0  0  0
 55124  1  0  0  0
 56 69  2  0  0  0
 57 58  2  0  0  0
 57125  1  0  0  0
 58126  1  0  0  0
 59 60  1  0  0  0
 59 61  1  0  0  0
 59 62  1  0  0  0
 60127  1  0  0  0
 60128  1  0  0  0
 60129  1  0  0  0
 61130  1  0  0  0
 61131  1  0  0  0
 61132  1  0  0  0
 62133  1  0  0  0
 62134  1  0  0  0
 62135  1  0  0  0
 63 65  1  0  0  0
 63136  1  0  0  0
 63137  1  0  0  0
 63138  1  0  0  0
 64139  1  0  0  0
 65140  1  0  0  0
 68 78  1  0  0  0
 71 74  2  0  0  0
 71 75  1  0  0  0
 71141  1  0  0  0
 72 74  1  0  0  0
 72 76  2  0  0  0
 72142  1  0  0  0
 73 75  2  0  0  0
 73 76  1  0  0  0
 73143  1  0  0  0
 74 77  1  0  0  0
 75 79  1  0  0  0
 76 81  1  0  0  0
 77 78  2  0  0  0
 77144  1  0  0  0
 78145  1  0  0  0
 79 80  2  0  0  0
 80146  1  0  0  0
 81147  1  0  0  0
 81148  1  0  0  0
M  ISO  4   1 100  68 101  78 101  79 100
M  END
> <chiral flag>
0

> <version>
0

> <s_m_source_file>
/data/baiqing/PycharmProjects/Reinvent-master-3.2/result/LINK_invent/BTK/process_docking_weight1_custom_product_contain_oxygen_bond_distance_aromatic_linkinvent_7_9_3/rearranged_h_0094.sdf

> <i_m_source_file_index>
86

> <r_mmod_Potential_Energy-OPLS-2005>
1624.18884277344

> <r_mmod_Stretch_Energy-OPLS-2005>
670.189819335938

> <r_mmod_Bend_Energy-OPLS-2005>
549.406799316406

> <r_mmod_Torsional_Energy-OPLS-2005>
186.433334350586

> <r_mmod_Improper_Torsional_Energy-OPLS-2005>
6.06489610671997

> <r_mmod_Van_der_Waal_Energy-OPLS-2005>
128.425262451172

> <r_mmod_Electrostatic_Energy-OPLS-2005>
-259.253448486328

> <r_mmod_Solvation_Energy-OPLS-2005>
-204.954544067383

> <b_mmod_Minimization_Converged-OPLS-2005>
1

> <r_mmod_RMS_Derivative-OPLS-2005>
0.0387273281812668

$$$$
86
                    3D
 Structure written by MMmdl.
157166  0  0  1  0            999 V2000
  -30.6664  -14.8448   20.4913 C   0  0  0  0  0  0
  -30.4155  -12.5336   19.5067 C   0  0  0  0  0  0
  -29.5153  -12.5454   18.2567 C   0  0  0  0  0  0
  -28.0512  -12.3305   18.6700 C   0  0  0  0  0  0
  -27.6335  -13.2546   19.8420 C   0  0  2  0  0  0
  -28.6693  -13.2760   20.9908 C   0  0  0  0  0  0
  -25.2287  -13.8064   20.5329 C   0  0  0  0  0  0
  -24.1726  -13.0346   20.9185 C   0  0  0  0  0  0
  -24.6420  -11.6875   20.8864 C   0  0  0  0  0  0
  -23.9093  -10.4258   21.0490 C   0  0  0  0  0  0
  -24.3630   -9.4163   21.9250 C   0  0  0  0  0  0
  -23.6269   -8.2206   22.0776 C   0  0  0  0  0  0
  -22.4249   -8.0272   21.3568 C   0  0  0  0  0  0
  -21.9911   -9.0255   20.4674 C   0  0  0  0  0  0
  -22.7272  -10.2109   20.3112 C   0  0  0  0  0  0
  -21.6844   -6.0728   22.5282 C   0  0  0  0  0  0
  -21.4001   -6.5612   23.8212 C   0  0  0  0  0  0
  -21.3674   -5.6764   24.9176 C   0  0  0  0  0  0
  -21.6034   -4.3032   24.7211 C   0  0  0  0  0  0
  -21.8828   -3.8124   23.4329 C   0  0  0  0  0  0
  -21.9187   -4.6958   22.3398 C   0  0  0  0  0  0
  -22.7737  -13.5170   21.1816 C   0  0  0  0  0  0
  -22.1681   -4.2156   21.0970 F   0  0  0  0  0  0
  -21.5625   -3.4511   25.7724 F   0  0  0  0  0  0
  -29.9726  -13.6381   20.4121 N   0  0  0  0  0  0
  -26.2879  -12.9447   20.3192 N   0  0  0  0  0  0
  -25.9385  -11.6564   20.5844 N   0  0  0  0  0  0
  -22.0384  -12.8230   22.0407 N   0  0  0  0  0  0
  -25.3473  -15.1625   20.2905 N   0  0  0  0  0  0
  -31.8072  -14.8646   20.0125 O   0  0  0  0  0  0
  -21.6611   -6.8871   21.4238 O   0  0  0  0  0  0
  -22.3473  -14.5480   20.6621 O   0  0  0  0  0  0
  -24.6380  -31.8486   23.1906 C   0  0  0  0  0  0
  -25.9178  -32.4722   23.8297 C   0  0  1  0  0  0
  -27.2308  -27.1925   20.1406 C   0  0  0  0  0  0
  -25.5948  -33.8525   24.2227 N   0  0  0  0  0  0
  -23.4401  -30.4705   21.5325 C   0  0  2  0  0  0
  -24.8928  -28.9004   20.1151 C   0  0  0  0  0  0
  -22.7564  -29.4577   22.4869 C   0  0  0  0  0  0
  -18.0312  -28.1382   22.8463 C   0  0  0  0  0  0
  -24.1506  -36.7260   23.2637 C   0  0  0  0  0  0
  -25.9914  -30.7424   21.3789 C   0  0  0  0  0  0
  -26.0679  -29.3552   20.7259 C   0  0  0  0  0  0
  -27.2387  -28.5164   20.7225 C   0  0  0  0  0  0
  -26.0287  -26.8277   19.4915 C   0  0  0  0  0  0
  -24.8809  -27.6456   19.4897 C   0  0  0  0  0  0
  -23.6651  -29.7938   20.1532 C   0  0  0  0  0  0
  -25.4122  -36.3033   24.0323 C   0  0  1  0  0  0
  -20.5918  -28.3702   23.1241 C   0  0  2  0  0  0
  -20.6789  -26.9424   22.5411 C   0  0  0  0  0  0
  -19.5771  -26.6371   21.5201 C   0  0  0  0  0  0
  -18.1945  -26.7919   22.1611 C   0  0  0  0  0  0
  -19.1567  -28.8862   23.2841 C   0  0  0  0  0  0
  -18.9480  -30.1452   23.8870 C   0  0  0  0  0  0
  -17.6473  -30.6572   24.0552 C   0  0  0  0  0  0
  -25.9054  -34.9416   23.5073 C   0  0  0  0  0  0
  -16.5365  -29.9058   23.6321 C   0  0  0  0  0  0
  -16.7289  -28.6482   23.0326 C   0  0  0  0  0  0
  -26.4498  -31.6551   25.0711 C   0  0  0  0  0  0
  -25.3729  -31.3738   26.1448 C   0  0  0  0  0  0
  -27.0292  -30.2919   24.6240 C   0  0  0  0  0  0
  -27.6034  -32.4303   25.7481 C   0  0  0  0  0  0
  -27.5593  -37.1784   24.8456 C   0  0  0  0  0  0
  -21.4253  -29.3051   22.3634 N   0  0  0  0  0  0
  -26.4280  -37.3753   23.9423 N   0  0  0  0  0  0
  -24.7089  -31.0433   22.0887 N   0  0  0  0  0  0
  -23.4255  -28.8122   23.2983 O   0  0  0  0  0  0
  -28.3147  -26.2567   20.1636 O   0  0  0  0  0  0
  -26.5631  -34.8917   22.4651 O   0  0  0  0  0  0
  -23.5517  -32.1337   23.7166 O   0  0  0  0  0  0
  -27.6848  -19.5131   20.4971 C   0  0  0  0  0  0
  -29.9116  -18.6213   20.5535 C   0  0  0  0  0  0
  -28.0388  -17.0913   20.7620 C   0  0  0  0  0  0
  -29.0626  -19.8362   20.4335 C   0  0  0  0  0  0
  -27.1806  -18.2054   20.6486 C   0  0  0  0  0  0
  -29.4372  -17.2265   20.7174 C   0  0  0  0  0  0
  -29.3588  -22.4045   21.2313 C   0  0  0  0  0  0
  -28.6640  -22.1635   19.3218 C   0  0  0  0  0  0
  -29.0770  -23.4933   20.0850 C   0  0  1  0  0  0
  -31.0690  -16.3325   22.3134 C   0  0  0  0  0  0
  -28.0641  -24.7591   20.4203 C   0  0  0  0  0  0
  -29.3895  -21.3137   20.3087 N   0  0  0  0  0  0
  -25.8023  -18.0252   20.7400 N   0  0  0  0  0  0
  -30.2166  -16.0076   21.1667 N   0  0  0  0  0  0
  -29.4050  -22.4085   22.4430 O   0  0  0  0  0  0
  -31.4631  -12.6145   19.2056 H   0  0  0  0  0  0
  -30.3390  -11.5762   20.0168 H   0  0  0  0  0  0
  -29.8261  -11.7728   17.5515 H   0  0  0  0  0  0
  -29.6209  -13.4940   17.7343 H   0  0  0  0  0  0
  -27.9412  -11.2860   18.9592 H   0  0  0  0  0  0
  -27.3920  -12.4820   17.8156 H   0  0  0  0  0  0
  -27.6058  -14.2606   19.4201 H   0  0  0  0  0  0
  -28.7229  -12.3103   21.4916 H   0  0  0  0  0  0
  -28.3747  -13.9997   21.7533 H   0  0  0  0  0  0
  -25.2808   -9.5588   22.4809 H   0  0  0  0  0  0
  -23.9990   -7.4571   22.7455 H   0  0  0  0  0  0
  -21.0867   -8.8792   19.8956 H   0  0  0  0  0  0
  -22.3795  -10.9650   19.6201 H   0  0  0  0  0  0
  -21.2000   -7.6121   23.9710 H   0  0  0  0  0  0
  -21.1494   -6.0496   25.9074 H   0  0  0  0  0  0
  -22.0594   -2.7585   23.2812 H   0  0  0  0  0  0
  -22.3992  -11.9928   22.4877 H   0  0  0  0  0  0
  -21.1015  -13.1277   22.2618 H   0  0  0  0  0  0
  -24.4351  -15.5788   20.1201 H   0  0  0  0  0  0
  -26.0021  -15.3937   19.5528 H   0  0  0  0  0  0
  -26.7253  -32.5349   23.1041 H   0  0  0  0  0  0
  -25.0117  -33.9661   25.0389 H   0  0  0  0  0  0
  -22.7365  -31.2883   21.3749 H   0  0  0  0  0  0
  -23.3780  -35.9574   23.3250 H   0  0  0  0  0  0
  -24.3631  -36.8939   22.2064 H   0  0  0  0  0  0
  -23.7244  -37.6450   23.6682 H   0  0  0  0  0  0
  -26.1421  -31.5022   20.6101 H   0  0  0  0  0  0
  -26.8631  -30.7948   22.0181 H   0  0  0  0  0  0
  -28.1371  -28.8634   21.2134 H   0  0  0  0  0  0
  -25.9490  -25.8814   18.9763 H   0  0  0  0  0  0
  -23.9797  -27.2920   19.0057 H   0  0  0  0  0  0
  -23.7974  -30.5587   19.3876 H   0  0  0  0  0  0
  -22.7831  -29.2249   19.8528 H   0  0  0  0  0  0
  -25.1301  -36.1856   25.0810 H   0  0  0  0  0  0
  -21.0003  -28.3289   24.1369 H   0  0  0  0  0  0
  -20.5664  -26.2328   23.3626 H   0  0  0  0  0  0
  -21.6663  -26.7425   22.1219 H   0  0  0  0  0  0
  -19.6936  -25.6278   21.1251 H   0  0  0  0  0  0
  -19.6688  -27.3163   20.6718 H   0  0  0  0  0  0
  -17.4227  -26.6657   21.3995 H   0  0  0  0  0  0
  -18.0334  -26.0064   22.9001 H   0  0  0  0  0  0
  -19.7957  -30.7267   24.2226 H   0  0  0  0  0  0
  -17.5025  -31.6239   24.5158 H   0  0  0  0  0  0
  -15.5352  -30.2937   23.7659 H   0  0  0  0  0  0
  -15.8692  -28.0779   22.7044 H   0  0  0  0  0  0
  -24.5895  -30.7070   25.7836 H   0  0  0  0  0  0
  -24.8906  -32.2907   26.4842 H   0  0  0  0  0  0
  -25.8071  -30.8977   27.0244 H   0  0  0  0  0  0
  -26.2830  -29.6713   24.1252 H   0  0  0  0  0  0
  -27.3892  -29.7171   25.4781 H   0  0  0  0  0  0
  -27.8768  -30.4135   23.9498 H   0  0  0  0  0  0
  -27.2609  -33.3624   26.1998 H   0  0  0  0  0  0
  -28.3848  -32.6853   25.0313 H   0  0  0  0  0  0
  -28.0669  -31.8464   26.5457 H   0  0  0  0  0  0
  -28.2560  -38.0128   24.7561 H   0  0  0  0  0  0
  -28.1132  -36.2669   24.6168 H   0  0  0  0  0  0
  -27.2340  -37.1320   25.8864 H   0  0  0  0  0  0
  -20.9473  -29.8779   21.6823 H   0  0  0  0  0  0
  -26.0151  -38.2815   24.1435 H   0  0  0  0  0  0
  -26.9687  -20.3198   20.4776 H   0  0  0  0  0  0
  -30.9796  -18.7799   20.5587 H   0  0  0  0  0  0
  -27.6202  -16.1225   20.9782 H   0  0  0  0  0  0
  -29.0729  -22.0841   18.3128 H   0  0  0  0  0  0
  -27.5814  -22.0202   19.2970 H   0  0  0  0  0  0
  -30.0090  -23.8637   19.6569 H   0  0  0  0  0  0
  -31.9120  -16.9528   21.9999 H   0  0  0  0  0  0
  -31.4656  -15.4461   22.8130 H   0  0  0  0  0  0
  -30.4958  -16.8901   23.0598 H   0  0  0  0  0  0
  -27.8923  -24.7295   21.4964 H   0  0  0  0  0  0
  -27.0943  -24.4773   20.0175 H   0  0  0  0  0  0
  -25.2113  -18.5810   20.1266 H   0  0  0  0  0  0
  -25.4859  -17.0527   20.7775 H   0  0  0  0  0  0
  1 25  1  0  0  0
  1 30  2  0  0  0
  1 84  1  0  0  0
  2  3  1  0  0  0
  2 25  1  0  0  0
  2 86  1  0  0  0
  2 87  1  0  0  0
  3  4  1  0  0  0
  3 88  1  0  0  0
  3 89  1  0  0  0
  4  5  1  0  0  0
  4 90  1  0  0  0
  4 91  1  0  0  0
  5  6  1  0  0  0
  5 26  1  0  0  0
  5 92  1  0  0  0
  6 25  1  0  0  0
  6 93  1  0  0  0
  6 94  1  0  0  0
  7  8  2  0  0  0
  7 26  1  0  0  0
  7 29  1  0  0  0
  8  9  1  0  0  0
  8 22  1  0  0  0
  9 10  1  0  0  0
  9 27  2  0  0  0
 10 11  2  0  0  0
 10 15  1  0  0  0
 11 12  1  0  0  0
 11 95  1  0  0  0
 12 13  2  0  0  0
 12 96  1  0  0  0
 13 14  1  0  0  0
 13 31  1  0  0  0
 14 15  2  0  0  0
 14 97  1  0  0  0
 15 98  1  0  0  0
 16 17  2  0  0  0
 16 21  1  0  0  0
 16 31  1  0  0  0
 17 18  1  0  0  0
 17 99  1  0  0  0
 18 19  2  0  0  0
 18100  1  0  0  0
 19 20  1  0  0  0
 19 24  1  0  0  0
 20 21  2  0  0  0
 20101  1  0  0  0
 21 23  1  0  0  0
 22 28  1  0  0  0
 22 32  2  0  0  0
 26 27  1  0  0  0
 28102  1  0  0  0
 28103  1  0  0  0
 29104  1  0  0  0
 29105  1  0  0  0
 33 34  1  0  0  0
 33 66  1  0  0  0
 33 70  2  0  0  0
 34 36  1  0  0  0
 34 59  1  0  0  0
 34106  1  0  0  0
 35 44  2  0  0  0
 35 45  1  0  0  0
 35 68  1  0  0  0
 36 56  1  0  0  0
 36107  1  0  0  0
 37 39  1  0  0  0
 37 47  1  0  0  0
 37 66  1  0  0  0
 37108  1  0  0  0
 38 43  2  0  0  0
 38 46  1  0  0  0
 38 47  1  0  0  0
 39 64  1  0  0  0
 39 67  2  0  0  0
 40 52  1  0  0  0
 40 53  2  0  0  0
 40 58  1  0  0  0
 41109  1  0  0  0
 41110  1  0  0  0
 41111  1  0  0  0
 41 48  1  0  0  0
 42 43  1  0  0  0
 42 66  1  0  0  0
 42112  1  0  0  0
 42113  1  0  0  0
 43 44  1  0  0  0
 44114  1  0  0  0
 45 46  2  0  0  0
 45115  1  0  0  0
 46116  1  0  0  0
 47117  1  0  0  0
 47118  1  0  0  0
 48 56  1  0  0  0
 48 65  1  0  0  0
 48119  1  0  0  0
 49 50  1  0  0  0
 49 53  1  0  0  0
 49 64  1  0  0  0
 49120  1  0  0  0
 50 51  1  0  0  0
 50121  1  0  0  0
 50122  1  0  0  0
 51 52  1  0  0  0
 51123  1  0  0  0
 51124  1  0  0  0
 52125  1  0  0  0
 52126  1  0  0  0
 53 54  1  0  0  0
 54 55  2  0  0  0
 54127  1  0  0  0
 55 57  1  0  0  0
 55128  1  0  0  0
 56 69  2  0  0  0
 57 58  2  0  0  0
 57129  1  0  0  0
 58130  1  0  0  0
 59 60  1  0  0  0
 59 61  1  0  0  0
 59 62  1  0  0  0
 60131  1  0  0  0
 60132  1  0  0  0
 60133  1  0  0  0
 61134  1  0  0  0
 61135  1  0  0  0
 61136  1  0  0  0
 62137  1  0  0  0
 62138  1  0  0  0
 62139  1  0  0  0
 63 65  1  0  0  0
 63140  1  0  0  0
 63141  1  0  0  0
 63142  1  0  0  0
 64143  1  0  0  0
 65144  1  0  0  0
 68 81  1  0  0  0
 71 74  2  0  0  0
 71 75  1  0  0  0
 71145  1  0  0  0
 72 74  1  0  0  0
 72 76  2  0  0  0
 72146  1  0  0  0
 73 75  2  0  0  0
 73 76  1  0  0  0
 73147  1  0  0  0
 74 82  1  0  0  0
 75 83  1  0  0  0
 76 84  1  0  0  0
 77 79  1  0  0  0
 77 82  1  0  0  0
 77 85  2  0  0  0
 78 79  1  0  0  0
 78 82  1  0  0  0
 78148  1  0  0  0
 78149  1  0  0  0
 79 81  1  0  0  0
 79150  1  0  0  0
 80 84  1  0  0  0
 80151  1  0  0  0
 80152  1  0  0  0
 80153  1  0  0  0
 81154  1  0  0  0
 81155  1  0  0  0
 83156  1  0  0  0
 83157  1  0  0  0
M  ISO  4   1 100  68 101  81 101  84 100
M  END
> <chiral flag>
0

> <version>
0

> <s_m_source_file>
/data/baiqing/PycharmProjects/Reinvent-master-3.2/result/LINK_invent/BTK/process_docking_weight1_custom_product_contain_oxygen_bond_distance_aromatic_linkinvent_7_9_3/rearranged_h_0094.sdf

> <i_m_source_file_index>
87

> <r_mmod_Potential_Energy-OPLS-2005>
596.312377929688

> <r_mmod_Stretch_Energy-OPLS-2005>
195.615158081055

> <r_mmod_Bend_Energy-OPLS-2005>
248.30143737793

> <r_mmod_Torsional_Energy-OPLS-2005>
357.228942871094

> <r_mmod_Improper_Torsional_Energy-OPLS-2005>
22.3241710662842

> <r_mmod_Van_der_Waal_Energy-OPLS-2005>
138.874893188477

> <r_mmod_Electrostatic_Energy-OPLS-2005>
-285.782623291016

> <r_mmod_Solvation_Energy-OPLS-2005>
-214.37760925293

> <b_mmod_Minimization_Converged-OPLS-2005>
0

> <r_mmod_RMS_Derivative-OPLS-2005>
5.50029563903809

$$$$
87
                    3D
 Structure written by MMmdl.
157166  0  0  1  0            999 V2000
  -29.0407  -17.9579   20.2600 C   0  0  0  0  0  0
  -29.9265  -14.8750   19.4840 C   0  0  0  0  0  0
  -29.4950  -13.5834   18.5286 C   0  0  0  0  0  0
  -28.3712  -12.7084   19.0738 C   0  0  0  0  0  0
  -27.5229  -13.6953   19.8695 C   0  0  2  0  0  0
  -28.2616  -14.8363   20.7954 C   0  0  0  0  0  0
  -25.1595  -13.8960   20.6076 C   0  0  0  0  0  0
  -24.1477  -13.0549   20.9396 C   0  0  0  0  0  0
  -24.6764  -11.7285   20.8671 C   0  0  0  0  0  0
  -23.9562  -10.4426   21.0211 C   0  0  0  0  0  0
  -24.3949   -9.4314   21.9066 C   0  0  0  0  0  0
  -23.6491   -8.2395   22.0736 C   0  0  0  0  0  0
  -22.4451   -8.0415   21.3560 C   0  0  0  0  0  0
  -22.0199   -9.0393   20.4605 C   0  0  0  0  0  0
  -22.7659  -10.2217   20.2923 C   0  0  0  0  0  0
  -21.6950   -6.0804   22.5264 C   0  0  0  0  0  0
  -21.4091   -6.5676   23.8201 C   0  0  0  0  0  0
  -21.3679   -5.6816   24.9152 C   0  0  0  0  0  0
  -21.6050   -4.3077   24.7208 C   0  0  0  0  0  0
  -21.8802   -3.8177   23.4321 C   0  0  0  0  0  0
  -21.9222   -4.7009   22.3382 C   0  0  0  0  0  0
  -22.7387  -13.4908   21.1958 C   0  0  0  0  0  0
  -22.1663   -4.2172   21.0962 F   0  0  0  0  0  0
  -21.5613   -3.4550   25.7715 F   0  0  0  0  0  0
  -28.9113  -16.1552   20.0686 N   0  0  0  0  0  0
  -26.2707  -13.1226   20.3949 N   0  0  0  0  0  0
  -25.9895  -11.7847   20.5678 N   0  0  0  0  0  0
  -22.0250  -12.7772   22.0556 N   0  0  0  0  0  0
  -25.2171  -15.2739   20.4273 N   0  0  0  0  0  0
  -30.3106  -17.5864   20.3234 O   0  0  0  0  0  0
  -21.6767   -6.9014   21.4257 O   0  0  0  0  0  0
  -22.2897  -14.5177   20.6843 O   0  0  0  0  0  0
  -24.7580  -31.5234   22.9609 C   0  0  0  0  0  0
  -25.9521  -32.3064   23.6625 C   0  0  1  0  0  0
  -28.6762  -25.8725   19.5739 C   0  0  0  0  0  0
  -25.5605  -33.7065   24.0521 N   0  0  0  0  0  0
  -23.6430  -29.7484   21.4831 C   0  0  2  0  0  0
  -24.8826  -27.0917   20.6090 C   0  0  0  0  0  0
  -22.7598  -29.2748   22.6099 C   0  0  0  0  0  0
  -18.0140  -28.1443   22.8390 C   0  0  0  0  0  0
  -24.1496  -36.6701   23.2726 C   0  0  0  0  0  0
  -26.1642  -29.7705   21.4580 C   0  0  0  0  0  0
  -26.3959  -28.1224   21.0880 C   0  0  0  0  0  0
  -28.2010  -27.6349   20.7056 C   0  0  0  0  0  0
  -27.0392  -24.8088   18.3860 C   0  0  0  0  0  0
  -24.9576  -25.3938   19.3318 C   0  0  0  0  0  0
  -23.7486  -28.3783   20.5426 C   0  0  0  0  0  0
  -25.4168  -36.2127   24.0137 C   0  0  1  0  0  0
  -20.5598  -28.3594   23.1583 C   0  0  2  0  0  0
  -20.6463  -26.9255   22.5808 C   0  0  0  0  0  0
  -19.5732  -26.6370   21.5289 C   0  0  0  0  0  0
  -18.1820  -26.8005   22.1458 C   0  0  0  0  0  0
  -19.1350  -28.8886   23.2879 C   0  0  0  0  0  0
  -18.9352  -30.1479   23.8903 C   0  0  0  0  0  0
  -17.6369  -30.6644   24.0531 C   0  0  0  0  0  0
  -25.9138  -34.8546   23.4420 C   0  0  0  0  0  0
  -16.5261  -29.9167   23.6245 C   0  0  0  0  0  0
  -16.7153  -28.6585   23.0254 C   0  0  0  0  0  0
  -26.4644  -31.5828   24.9825 C   0  0  0  0  0  0
  -25.3543  -31.3322   26.0336 C   0  0  0  0  0  0
  -27.0886  -30.2177   24.6426 C   0  0  0  0  0  0
  -27.5908  -32.3950   25.6633 C   0  0  0  0  0  0
  -27.5500  -37.1404   24.8427 C   0  0  0  0  0  0
  -21.4329  -29.2636   22.4166 N   0  0  0  0  0  0
  -26.4152  -37.3105   23.9423 N   0  0  0  0  0  0
  -24.8835  -30.4365   22.0189 N   0  0  0  0  0  0
  -23.3122  -28.7540   23.5735 O   0  0  0  0  0  0
  -29.3771  -25.3749   20.5386 O   0  0  0  0  0  0
  -26.6202  -34.8598   22.4353 O   0  0  0  0  0  0
  -23.6447  -31.9351   23.3515 O   0  0  0  0  0  0
  -26.1839  -24.7949   21.5796 C   0  0  0  0  0  0
  -26.2413  -26.9952   17.6834 C   0  0  0  0  0  0
  -26.7915  -24.4125   20.4675 C   0  0  0  0  0  0
  -26.9456  -25.7235   20.8467 C   0  0  0  0  0  0
  -26.9723  -27.0336   18.8973 C   0  0  0  0  0  0
  -26.5172  -26.8375   19.0431 C   0  0  0  0  0  0
  -29.0891  -27.3997   17.1226 C   0  0  0  0  0  0
  -27.4365  -21.9873   20.1500 C   0  0  0  0  0  0
  -30.2258  -28.3434   16.8080 C   0  0  0  0  0  0
  -30.1515  -29.2907   18.0065 C   0  0  0  0  0  0
  -28.6423  -29.2986   18.3109 C   0  0  0  0  0  0
  -28.4718  -25.4798   21.6339 C   0  0  0  0  0  0
  -28.2488  -27.9064   18.0776 N   0  0  0  0  0  0
  -28.1554  -19.9382   20.1872 N   0  0  0  0  0  0
  -29.0350  -26.2844   16.5940 O   0  0  0  0  0  0
  -26.7708  -21.8284   19.1244 O   0  0  0  0  0  0
  -25.4640  -28.2389   18.8461 F   0  0  0  0  0  0
  -30.6445  -15.4108   18.8598 H   0  0  0  0  0  0
  -30.5825  -14.5093   20.2812 H   0  0  0  0  0  0
  -30.3637  -12.9600   18.3129 H   0  0  0  0  0  0
  -29.1673  -13.9708   17.5616 H   0  0  0  0  0  0
  -28.7815  -11.9467   19.7381 H   0  0  0  0  0  0
  -27.8123  -12.2099   18.2794 H   0  0  0  0  0  0
  -27.1495  -14.3113   19.0485 H   0  0  0  0  0  0
  -28.9137  -14.3689   21.5383 H   0  0  0  0  0  0
  -27.5105  -15.2714   21.4499 H   0  0  0  0  0  0
  -25.3067   -9.5765   22.4702 H   0  0  0  0  0  0
  -24.0129   -7.4827   22.7545 H   0  0  0  0  0  0
  -21.1105   -8.8975   19.8923 H   0  0  0  0  0  0
  -22.4107  -10.9732   19.6014 H   0  0  0  0  0  0
  -21.2117   -7.6184   23.9718 H   0  0  0  0  0  0
  -21.1508   -6.0538   25.9062 H   0  0  0  0  0  0
  -22.0562   -2.7631   23.2818 H   0  0  0  0  0  0
  -22.4120  -11.9518   22.4875 H   0  0  0  0  0  0
  -21.0778  -13.0512   22.2791 H   0  0  0  0  0  0
  -24.3951  -15.8647   20.5152 H   0  0  0  0  0  0
  -26.0353  -15.7743   20.1139 H   0  0  0  0  0  0
  -26.7699  -32.3568   22.9381 H   0  0  0  0  0  0
  -24.9438  -33.7733   24.8460 H   0  0  0  0  0  0
  -23.0944  -30.4978   20.9119 H   0  0  0  0  0  0
  -23.3749  -35.9048   23.3089 H   0  0  0  0  0  0
  -24.3525  -36.8815   22.2226 H   0  0  0  0  0  0
  -23.7328  -37.5719   23.7193 H   0  0  0  0  0  0
  -26.4193  -30.3078   20.5425 H   0  0  0  0  0  0
  -26.9935  -29.9962   22.1067 H   0  0  0  0  0  0
  -29.0077  -28.2260   21.1163 H   0  0  0  0  0  0
  -27.1830  -23.9288   17.7679 H   0  0  0  0  0  0
  -24.0481  -24.9515   18.9594 H   0  0  0  0  0  0
  -23.5516  -28.7328   19.5303 H   0  0  0  0  0  0
  -22.8332  -27.8039   20.6521 H   0  0  0  0  0  0
  -25.1505  -36.0578   25.0611 H   0  0  0  0  0  0
  -20.9302  -28.3120   24.1856 H   0  0  0  0  0  0
  -20.4892  -26.2279   23.4037 H   0  0  0  0  0  0
  -21.6430  -26.6924   22.2054 H   0  0  0  0  0  0
  -19.6940  -25.6291   21.1329 H   0  0  0  0  0  0
  -19.6916  -27.3194   20.6866 H   0  0  0  0  0  0
  -17.4240  -26.6862   21.3715 H   0  0  0  0  0  0
  -18.0029  -26.0085   22.8736 H   0  0  0  0  0  0
  -19.7847  -30.7208   24.2384 H   0  0  0  0  0  0
  -17.4927  -31.6297   24.5194 H   0  0  0  0  0  0
  -15.5280  -30.3094   23.7503 H   0  0  0  0  0  0
  -15.8552  -28.0904   22.6964 H   0  0  0  0  0  0
  -24.5822  -30.6610   25.6538 H   0  0  0  0  0  0
  -24.8614  -32.2550   26.3362 H   0  0  0  0  0  0
  -25.7586  -30.8646   26.9321 H   0  0  0  0  0  0
  -26.3524  -29.5011   24.2724 H   0  0  0  0  0  0
  -27.5507  -29.7518   25.5137 H   0  0  0  0  0  0
  -27.8980  -30.3260   23.9233 H   0  0  0  0  0  0
  -27.2238  -33.3162   26.1128 H   0  0  0  0  0  0
  -28.3676  -32.6602   24.9446 H   0  0  0  0  0  0
  -28.0713  -31.8181   26.4542 H   0  0  0  0  0  0
  -28.2256  -37.9905   24.7502 H   0  0  0  0  0  0
  -28.1204  -36.2398   24.6160 H   0  0  0  0  0  0
  -27.2218  -37.0896   25.8809 H   0  0  0  0  0  0
  -21.0510  -29.7265   21.6013 H   0  0  0  0  0  0
  -25.9782  -38.2043   24.1547 H   0  0  0  0  0  0
  -26.3911  -24.1978   22.4554 H   0  0  0  0  0  0
  -26.2132  -27.8555   17.0231 H   0  0  0  0  0  0
  -29.9687  -28.8437   15.8760 H   0  0  0  0  0  0
  -31.1804  -27.8199   16.6880 H   0  0  0  0  0  0
  -30.5593  -30.2847   17.8189 H   0  0  0  0  0  0
  -30.7110  -28.8516   18.8423 H   0  0  0  0  0  0
  -28.1171  -29.9105   17.5722 H   0  0  0  0  0  0
  -28.3976  -29.7083   19.2873 H   0  0  0  0  0  0
  -28.5529  -24.5159   22.1457 H   0  0  0  0  0  0
  -28.7670  -26.1660   22.4348 H   0  0  0  0  0  0
  -27.3571  -19.6109   19.6589 H   0  0  0  0  0  0
  1 25  1  0  0  0
  1 30  2  0  0  0
  1 84  1  0  0  0
  2  3  1  0  0  0
  2 25  1  0  0  0
  2 88  1  0  0  0
  2 89  1  0  0  0
  3  4  1  0  0  0
  3 90  1  0  0  0
  3 91  1  0  0  0
  4  5  1  0  0  0
  4 92  1  0  0  0
  4 93  1  0  0  0
  5  6  1  0  0  0
  5 26  1  0  0  0
  5 94  1  0  0  0
  6 25  1  0  0  0
  6 95  1  0  0  0
  6 96  1  0  0  0
  7  8  2  0  0  0
  7 26  1  0  0  0
  7 29  1  0  0  0
  8  9  1  0  0  0
  8 22  1  0  0  0
  9 10  1  0  0  0
  9 27  2  0  0  0
 10 11  2  0  0  0
 10 15  1  0  0  0
 11 12  1  0  0  0
 11 97  1  0  0  0
 12 13  2  0  0  0
 12 98  1  0  0  0
 13 14  1  0  0  0
 13 31  1  0  0  0
 14 15  2  0  0  0
 14 99  1  0  0  0
 15100  1  0  0  0
 16 17  2  0  0  0
 16 21  1  0  0  0
 16 31  1  0  0  0
 17 18  1  0  0  0
 17101  1  0  0  0
 18 19  2  0  0  0
 18102  1  0  0  0
 19 20  1  0  0  0
 19 24  1  0  0  0
 20 21  2  0  0  0
 20103  1  0  0  0
 21 23  1  0  0  0
 22 28  1  0  0  0
 22 32  2  0  0  0
 26 27  1  0  0  0
 28104  1  0  0  0
 28105  1  0  0  0
 29106  1  0  0  0
 29107  1  0  0  0
 33 34  1  0  0  0
 33 66  1  0  0  0
 33 70  2  0  0  0
 34 36  1  0  0  0
 34 59  1  0  0  0
 34108  1  0  0  0
 35 44  2  0  0  0
 35 45  1  0  0  0
 35 68  1  0  0  0
 36 56  1  0  0  0
 36109  1  0  0  0
 37 39  1  0  0  0
 37 47  1  0  0  0
 37 66  1  0  0  0
 37110  1  0  0  0
 38 43  2  0  0  0
 38 46  1  0  0  0
 38 47  1  0  0  0
 39 64  1  0  0  0
 39 67  2  0  0  0
 40 52  1  0  0  0
 40 53  2  0  0  0
 40 58  1  0  0  0
 41111  1  0  0  0
 41112  1  0  0  0
 41113  1  0  0  0
 41 48  1  0  0  0
 42 43  1  0  0  0
 42 66  1  0  0  0
 42114  1  0  0  0
 42115  1  0  0  0
 43 44  1  0  0  0
 44116  1  0  0  0
 45 46  2  0  0  0
 45117  1  0  0  0
 46118  1  0  0  0
 47119  1  0  0  0
 47120  1  0  0  0
 48 56  1  0  0  0
 48 65  1  0  0  0
 48121  1  0  0  0
 49 50  1  0  0  0
 49 53  1  0  0  0
 49 64  1  0  0  0
 49122  1  0  0  0
 50 51  1  0  0  0
 50123  1  0  0  0
 50124  1  0  0  0
 51 52  1  0  0  0
 51125  1  0  0  0
 51126  1  0  0  0
 52127  1  0  0  0
 52128  1  0  0  0
 53 54  1  0  0  0
 54 55  2  0  0  0
 54129  1  0  0  0
 55 57  1  0  0  0
 55130  1  0  0  0
 56 69  2  0  0  0
 57 58  2  0  0  0
 57131  1  0  0  0
 58132  1  0  0  0
 59 60  1  0  0  0
 59 61  1  0  0  0
 59 62  1  0  0  0
 60133  1  0  0  0
 60134  1  0  0  0
 60135  1  0  0  0
 61136  1  0  0  0
 61137  1  0  0  0
 61138  1  0  0  0
 62139  1  0  0  0
 62140  1  0  0  0
 62141  1  0  0  0
 63 65  1  0  0  0
 63142  1  0  0  0
 63143  1  0  0  0
 63144  1  0  0  0
 64145  1  0  0  0
 65146  1  0  0  0
 68 82  1  0  0  0
 71 73  2  0  0  0
 71 74  1  0  0  0
 71147  1  0  0  0
 72 75  1  0  0  0
 72 76  2  0  0  0
 72148  1  0  0  0
 73 76  1  0  0  0
 73 78  1  0  0  0
 74 75  2  0  0  0
 74 82  1  0  0  0
 75 83  1  0  0  0
 76 87  1  0  0  0
 77 79  1  0  0  0
 77 83  1  0  0  0
 77 85  2  0  0  0
 78 84  1  0  0  0
 78 86  2  0  0  0
 79 80  1  0  0  0
 79149  1  0  0  0
 79150  1  0  0  0
 80 81  1  0  0  0
 80151  1  0  0  0
 80152  1  0  0  0
 81 83  1  0  0  0
 81153  1  0  0  0
 81154  1  0  0  0
 82155  1  0  0  0
 82156  1  0  0  0
 84157  1  0  0  0
M  ISO  4   1 100  68 101  82 101  84 100
M  END
> <chiral flag>
0

> <version>
0

> <s_m_source_file>
/data/baiqing/PycharmProjects/Reinvent-master-3.2/result/LINK_invent/BTK/process_docking_weight1_custom_product_contain_oxygen_bond_distance_aromatic_linkinvent_7_9_3/rearranged_h_0094.sdf

> <i_m_source_file_index>
88

> <r_mmod_Potential_Energy-OPLS-2005>
35391.76171875

> <r_mmod_Stretch_Energy-OPLS-2005>
18365.892578125

> <r_mmod_Bend_Energy-OPLS-2005>
3448.01098632812

> <r_mmod_Torsional_Energy-OPLS-2005>
773.175598144531

> <r_mmod_Improper_Torsional_Energy-OPLS-2005>
89.4290161132812

> <r_mmod_Van_der_Waal_Energy-OPLS-2005>
4943.20849609375

> <r_mmod_Electrostatic_Energy-OPLS-2005>
-387.773590087891

> <r_mmod_Solvation_Energy-OPLS-2005>
-236.562271118164

> <b_mmod_Minimization_Converged-OPLS-2005>
0

> <r_mmod_RMS_Derivative-OPLS-2005>
13.5380897521973

$$$$
88
                    3D
 Structure written by MMmdl.
159168  0  0  1  0            999 V2000
  -30.6279  -14.8334   20.4003 C   0  0  0  0  0  0
  -30.4333  -12.5116   19.4647 C   0  0  0  0  0  0
  -29.4993  -12.4645   18.2411 C   0  0  0  0  0  0
  -28.0406  -12.2674   18.6804 C   0  0  0  0  0  0
  -27.6291  -13.2284   19.8229 C   0  0  2  0  0  0
  -28.6759  -13.2857   20.9535 C   0  0  0  0  0  0
  -25.2512  -13.8190   20.5682 C   0  0  0  0  0  0
  -24.1797  -13.0450   20.9179 C   0  0  0  0  0  0
  -24.6393  -11.6911   20.8768 C   0  0  0  0  0  0
  -23.9059  -10.4313   21.0446 C   0  0  0  0  0  0
  -24.3613   -9.4204   21.9207 C   0  0  0  0  0  0
  -23.6284   -8.2246   22.0755 C   0  0  0  0  0  0
  -22.4270   -8.0292   21.3558 C   0  0  0  0  0  0
  -21.9909   -9.0251   20.4664 C   0  0  0  0  0  0
  -22.7244  -10.2136   20.3080 C   0  0  0  0  0  0
  -21.6828   -6.0761   22.5315 C   0  0  0  0  0  0
  -21.4034   -6.5670   23.8242 C   0  0  0  0  0  0
  -21.3628   -5.6808   24.9194 C   0  0  0  0  0  0
  -21.6024   -4.3076   24.7243 C   0  0  0  0  0  0
  -21.8791   -3.8166   23.4367 C   0  0  0  0  0  0
  -21.9176   -4.6984   22.3435 C   0  0  0  0  0  0
  -22.7823  -13.5232   21.1879 C   0  0  0  0  0  0
  -22.1641   -4.2167   21.0989 F   0  0  0  0  0  0
  -21.5591   -3.4558   25.7752 F   0  0  0  0  0  0
  -29.9651  -13.6214   20.3341 N   0  0  0  0  0  0
  -26.2912  -12.9384   20.3220 N   0  0  0  0  0  0
  -25.9322  -11.6541   20.5768 N   0  0  0  0  0  0
  -22.0461  -12.8240   22.0445 N   0  0  0  0  0  0
  -25.4262  -15.1913   20.4154 N   0  0  0  0  0  0
  -31.8543  -14.8284   20.2762 O   0  0  0  0  0  0
  -21.6605   -6.8912   21.4283 O   0  0  0  0  0  0
  -22.3488  -14.5506   20.6677 O   0  0  0  0  0  0
  -24.6360  -31.8569   23.2013 C   0  0  0  0  0  0
  -25.9161  -32.4780   23.8368 C   0  0  1  0  0  0
  -27.2047  -27.2346   20.1263 C   0  0  0  0  0  0
  -25.5954  -33.8583   24.2315 N   0  0  0  0  0  0
  -23.4317  -30.4862   21.5466 C   0  0  2  0  0  0
  -24.8769  -28.9369   20.1116 C   0  0  0  0  0  0
  -22.7532  -29.4638   22.4920 C   0  0  0  0  0  0
  -18.0297  -28.1396   22.8472 C   0  0  0  0  0  0
  -24.1478  -36.7285   23.2640 C   0  0  0  0  0  0
  -25.9836  -30.7610   21.3885 C   0  0  0  0  0  0
  -26.0554  -29.3817   20.7301 C   0  0  0  0  0  0
  -27.2206  -28.5412   20.7335 C   0  0  0  0  0  0
  -26.0121  -26.8947   19.4445 C   0  0  0  0  0  0
  -24.8679  -27.7065   19.4519 C   0  0  0  0  0  0
  -23.6512  -29.8272   20.1623 C   0  0  0  0  0  0
  -25.4120  -36.3120   24.0350 C   0  0  1  0  0  0
  -20.5906  -28.3720   23.1251 C   0  0  2  0  0  0
  -20.6794  -26.9445   22.5386 C   0  0  0  0  0  0
  -19.5768  -26.6408   21.5184 C   0  0  0  0  0  0
  -18.1950  -26.7946   22.1603 C   0  0  0  0  0  0
  -19.1550  -28.8871   23.2866 C   0  0  0  0  0  0
  -18.9477  -30.1464   23.8902 C   0  0  0  0  0  0
  -17.6477  -30.6595   24.0568 C   0  0  0  0  0  0
  -25.9053  -34.9468   23.5136 C   0  0  0  0  0  0
  -16.5369  -29.9089   23.6324 C   0  0  0  0  0  0
  -16.7293  -28.6503   23.0360 C   0  0  0  0  0  0
  -26.4526  -31.6590   25.0734 C   0  0  0  0  0  0
  -25.3703  -31.3721   26.1411 C   0  0  0  0  0  0
  -27.0361  -30.3019   24.6182 C   0  0  0  0  0  0
  -27.6122  -32.4283   25.7483 C   0  0  0  0  0  0
  -27.5600  -37.1829   24.8498 C   0  0  0  0  0  0
  -21.4227  -29.3053   22.3641 N   0  0  0  0  0  0
  -26.4332  -37.3802   23.9398 N   0  0  0  0  0  0
  -24.7024  -31.0531   22.1005 N   0  0  0  0  0  0
  -23.4217  -28.8156   23.3034 O   0  0  0  0  0  0
  -28.2500  -26.2683   20.2087 O   0  0  0  0  0  0
  -26.5620  -34.8933   22.4694 O   0  0  0  0  0  0
  -23.5503  -32.1403   23.7293 O   0  0  0  0  0  0
  -28.7226  -18.2348   22.8449 C   0  0  0  0  0  0
  -28.8225  -19.5516   22.3473 C   0  0  0  0  0  0
  -29.1433  -17.1141   22.1001 C   0  0  0  0  0  0
  -30.1574  -23.3881   20.3464 C   0  0  0  0  0  0
  -29.7544  -18.6408   20.3020 C   0  0  0  0  0  0
  -28.7349  -23.5205   20.3683 C   0  0  0  0  0  0
  -29.3251  -19.8168   21.0554 C   0  0  0  0  0  0
  -29.6689  -17.2563   20.8014 C   0  0  0  0  0  0
  -28.3028  -22.1892   20.5128 C   0  0  0  0  0  0
  -30.4986  -22.0598   20.5017 C   0  0  0  0  0  0
  -26.9016  -21.6711   20.4817 C   0  0  0  0  0  0
  -30.0825  -16.2908   18.5770 C   0  0  0  0  0  0
  -27.8122  -24.8168   20.1703 C   0  0  0  0  0  0
  -29.3740  -21.2588   20.6687 N   0  0  0  0  0  0
  -29.9459  -16.0097   20.0148 N   0  0  0  0  0  0
  -31.7376  -21.5007   20.5149 O   0  0  0  0  0  0
  -31.4595  -12.6574   19.1220 H   0  0  0  0  0  0
  -30.4225  -11.5663   20.0064 H   0  0  0  0  0  0
  -29.7991  -11.6699   17.5604 H   0  0  0  0  0  0
  -29.5812  -13.3808   17.6644 H   0  0  0  0  0  0
  -27.9469  -11.2344   19.0168 H   0  0  0  0  0  0
  -27.3622  -12.3700   17.8315 H   0  0  0  0  0  0
  -27.5955  -14.2188   19.3664 H   0  0  0  0  0  0
  -28.7317  -12.3491   21.5069 H   0  0  0  0  0  0
  -28.3929  -14.0603   21.6680 H   0  0  0  0  0  0
  -25.2779   -9.5622   22.4779 H   0  0  0  0  0  0
  -23.9965   -7.4608   22.7475 H   0  0  0  0  0  0
  -21.0823   -8.8775   19.8978 H   0  0  0  0  0  0
  -22.3719  -10.9656   19.6168 H   0  0  0  0  0  0
  -21.2076   -7.6178   23.9766 H   0  0  0  0  0  0
  -21.1458   -6.0548   25.9092 H   0  0  0  0  0  0
  -22.0599   -2.7636   23.2868 H   0  0  0  0  0  0
  -22.4029  -11.9905   22.4856 H   0  0  0  0  0  0
  -21.1093  -13.1292   22.2644 H   0  0  0  0  0  0
  -24.6704  -15.8527   20.5574 H   0  0  0  0  0  0
  -26.3021  -15.6415   20.1716 H   0  0  0  0  0  0
  -26.7236  -32.5468   23.1120 H   0  0  0  0  0  0
  -25.0119  -33.9707   25.0487 H   0  0  0  0  0  0
  -22.7298  -31.3107   21.4029 H   0  0  0  0  0  0
  -23.3760  -35.9605   23.3353 H   0  0  0  0  0  0
  -24.3559  -36.8822   22.2045 H   0  0  0  0  0  0
  -23.7200  -37.6500   23.6593 H   0  0  0  0  0  0
  -26.1309  -31.5153   20.6155 H   0  0  0  0  0  0
  -26.8613  -30.8121   22.0211 H   0  0  0  0  0  0
  -28.1129  -28.8682   21.2472 H   0  0  0  0  0  0
  -25.9062  -25.9781   18.8884 H   0  0  0  0  0  0
  -23.9756  -27.3709   18.9384 H   0  0  0  0  0  0
  -23.7877  -30.6043   19.4124 H   0  0  0  0  0  0
  -22.7655  -29.2698   19.8488 H   0  0  0  0  0  0
  -25.1295  -36.2011   25.0859 H   0  0  0  0  0  0
  -21.0024  -28.3318   24.1366 H   0  0  0  0  0  0
  -20.5676  -26.2354   23.3602 H   0  0  0  0  0  0
  -21.6669  -26.7470   22.1189 H   0  0  0  0  0  0
  -19.6942  -25.6309   21.1227 H   0  0  0  0  0  0
  -19.6697  -27.3203   20.6705 H   0  0  0  0  0  0
  -17.4221  -26.6685   21.4017 H   0  0  0  0  0  0
  -18.0380  -26.0083   22.9000 H   0  0  0  0  0  0
  -19.7953  -30.7267   24.2312 H   0  0  0  0  0  0
  -17.5029  -31.6278   24.5163 H   0  0  0  0  0  0
  -15.5368  -30.2996   23.7648 H   0  0  0  0  0  0
  -15.8696  -28.0811   22.7105 H   0  0  0  0  0  0
  -24.5940  -30.7011   25.7707 H   0  0  0  0  0  0
  -24.8798  -32.2856   26.4783 H   0  0  0  0  0  0
  -25.7976  -30.8938   27.0225 H   0  0  0  0  0  0
  -26.2935  -29.6765   24.1203 H   0  0  0  0  0  0
  -27.4071  -29.7288   25.4689 H   0  0  0  0  0  0
  -27.8813  -30.4339   23.9416 H   0  0  0  0  0  0
  -27.2830  -33.3628   26.2043 H   0  0  0  0  0  0
  -28.3945  -32.6744   25.0282 H   0  0  0  0  0  0
  -28.0763  -31.8365   26.5386 H   0  0  0  0  0  0
  -28.2697  -38.0054   24.7493 H   0  0  0  0  0  0
  -28.1006  -36.2592   24.6403 H   0  0  0  0  0  0
  -27.2287  -37.1579   25.8893 H   0  0  0  0  0  0
  -20.9441  -29.8815   21.6845 H   0  0  0  0  0  0
  -26.0229  -38.2902   24.1316 H   0  0  0  0  0  0
  -28.2901  -18.0712   23.8218 H   0  0  0  0  0  0
  -28.4986  -20.3776   22.9710 H   0  0  0  0  0  0
  -29.0075  -16.1334   22.5343 H   0  0  0  0  0  0
  -30.8606  -24.2012   20.2313 H   0  0  0  0  0  0
  -30.1431  -18.8324   19.3135 H   0  0  0  0  0  0
  -26.2100  -22.4269   20.1043 H   0  0  0  0  0  0
  -26.5595  -21.3523   21.4671 H   0  0  0  0  0  0
  -26.8339  -20.8198   19.8059 H   0  0  0  0  0  0
  -29.3443  -17.0174   18.2307 H   0  0  0  0  0  0
  -29.9387  -15.4101   17.9565 H   0  0  0  0  0  0
  -31.0736  -16.6924   18.3706 H   0  0  0  0  0  0
  -26.9904  -24.7108   20.8838 H   0  0  0  0  0  0
  -27.3890  -24.6167   19.1871 H   0  0  0  0  0  0
  -32.3311  -22.1000   20.0660 H   0  0  0  0  0  0
  1 25  1  0  0  0
  1 30  2  0  0  0
  1 85  1  0  0  0
  2  3  1  0  0  0
  2 25  1  0  0  0
  2 87  1  0  0  0
  2 88  1  0  0  0
  3  4  1  0  0  0
  3 89  1  0  0  0
  3 90  1  0  0  0
  4  5  1  0  0  0
  4 91  1  0  0  0
  4 92  1  0  0  0
  5  6  1  0  0  0
  5 26  1  0  0  0
  5 93  1  0  0  0
  6 25  1  0  0  0
  6 94  1  0  0  0
  6 95  1  0  0  0
  7  8  2  0  0  0
  7 26  1  0  0  0
  7 29  1  0  0  0
  8  9  1  0  0  0
  8 22  1  0  0  0
  9 10  1  0  0  0
  9 27  2  0  0  0
 10 11  2  0  0  0
 10 15  1  0  0  0
 11 12  1  0  0  0
 11 96  1  0  0  0
 12 13  2  0  0  0
 12 97  1  0  0  0
 13 14  1  0  0  0
 13 31  1  0  0  0
 14 15  2  0  0  0
 14 98  1  0  0  0
 15 99  1  0  0  0
 16 17  2  0  0  0
 16 21  1  0  0  0
 16 31  1  0  0  0
 17 18  1  0  0  0
 17100  1  0  0  0
 18 19  2  0  0  0
 18101  1  0  0  0
 19 20  1  0  0  0
 19 24  1  0  0  0
 20 21  2  0  0  0
 20102  1  0  0  0
 21 23  1  0  0  0
 22 28  1  0  0  0
 22 32  2  0  0  0
 26 27  1  0  0  0
 28103  1  0  0  0
 28104  1  0  0  0
 29105  1  0  0  0
 29106  1  0  0  0
 33 34  1  0  0  0
 33 66  1  0  0  0
 33 70  2  0  0  0
 34 36  1  0  0  0
 34 59  1  0  0  0
 34107  1  0  0  0
 35 44  2  0  0  0
 35 45  1  0  0  0
 35 68  1  0  0  0
 36 56  1  0  0  0
 36108  1  0  0  0
 37 39  1  0  0  0
 37 47  1  0  0  0
 37 66  1  0  0  0
 37109  1  0  0  0
 38 43  2  0  0  0
 38 46  1  0  0  0
 38 47  1  0  0  0
 39 64  1  0  0  0
 39 67  2  0  0  0
 40 52  1  0  0  0
 40 53  2  0  0  0
 40 58  1  0  0  0
 41110  1  0  0  0
 41111  1  0  0  0
 41112  1  0  0  0
 41 48  1  0  0  0
 42 43  1  0  0  0
 42 66  1  0  0  0
 42113  1  0  0  0
 42114  1  0  0  0
 43 44  1  0  0  0
 44115  1  0  0  0
 45 46  2  0  0  0
 45116  1  0  0  0
 46117  1  0  0  0
 47118  1  0  0  0
 47119  1  0  0  0
 48 56  1  0  0  0
 48 65  1  0  0  0
 48120  1  0  0  0
 49 50  1  0  0  0
 49 53  1  0  0  0
 49 64  1  0  0  0
 49121  1  0  0  0
 50 51  1  0  0  0
 50122  1  0  0  0
 50123  1  0  0  0
 51 52  1  0  0  0
 51124  1  0  0  0
 51125  1  0  0  0
 52126  1  0  0  0
 52127  1  0  0  0
 53 54  1  0  0  0
 54 55  2  0  0  0
 54128  1  0  0  0
 55 57  1  0  0  0
 55129  1  0  0  0
 56 69  2  0  0  0
 57 58  2  0  0  0
 57130  1  0  0  0
 58131  1  0  0  0
 59 60  1  0  0  0
 59 61  1  0  0  0
 59 62  1  0  0  0
 60132  1  0  0  0
 60133  1  0  0  0
 60134  1  0  0  0
 61135  1  0  0  0
 61136  1  0  0  0
 61137  1  0  0  0
 62138  1  0  0  0
 62139  1  0  0  0
 62140  1  0  0  0
 63 65  1  0  0  0
 63141  1  0  0  0
 63142  1  0  0  0
 63143  1  0  0  0
 64144  1  0  0  0
 65145  1  0  0  0
 68 83  1  0  0  0
 71 72  2  0  0  0
 71 73  1  0  0  0
 71146  1  0  0  0
 72 77  1  0  0  0
 72147  1  0  0  0
 73 78  2  0  0  0
 73148  1  0  0  0
 74 76  1  0  0  0
 74 80  2  0  0  0
 74149  1  0  0  0
 75 77  2  0  0  0
 75 78  1  0  0  0
 75150  1  0  0  0
 76 79  2  0  0  0
 76 83  1  0  0  0
 77 84  1  0  0  0
 78 85  1  0  0  0
 79 81  1  0  0  0
 79 84  1  0  0  0
 80 84  1  0  0  0
 80 86  1  0  0  0
 81151  1  0  0  0
 81152  1  0  0  0
 81153  1  0  0  0
 82 85  1  0  0  0
 82154  1  0  0  0
 82155  1  0  0  0
 82156  1  0  0  0
 83157  1  0  0  0
 83158  1  0  0  0
 86159  1  0  0  0
M  ISO  4   1 100  68 101  83 101  85 100
M  END
> <chiral flag>
0

> <version>
0

> <s_m_source_file>
/data/baiqing/PycharmProjects/Reinvent-master-3.2/result/LINK_invent/BTK/process_docking_weight1_custom_product_contain_oxygen_bond_distance_aromatic_linkinvent_7_9_3/rearranged_h_0094.sdf

> <i_m_source_file_index>
89

> <r_mmod_Potential_Energy-OPLS-2005>
449.669403076172

> <r_mmod_Stretch_Energy-OPLS-2005>
142.752059936523

> <r_mmod_Bend_Energy-OPLS-2005>
188.170196533203

> <r_mmod_Torsional_Energy-OPLS-2005>
321.572326660156

> <r_mmod_Improper_Torsional_Energy-OPLS-2005>
23.4230995178223

> <r_mmod_Van_der_Waal_Energy-OPLS-2005>
139.070388793945

> <r_mmod_Electrostatic_Energy-OPLS-2005>
-289.400573730469

> <r_mmod_Solvation_Energy-OPLS-2005>
-210.73046875

> <b_mmod_Minimization_Converged-OPLS-2005>
0

> <r_mmod_RMS_Derivative-OPLS-2005>
5.76023292541504

$$$$
89
                    3D
 Structure written by MMmdl.
155163  0  0  1  0            999 V2000
  -30.6656  -14.4938   20.6240 C   0  0  0  0  0  0
  -30.4395  -12.3331   19.4081 C   0  0  0  0  0  0
  -29.4980  -12.5235   18.1998 C   0  0  0  0  0  0
  -28.0191  -12.3661   18.6124 C   0  0  0  0  0  0
  -27.6651  -13.1943   19.8754 C   0  0  2  0  0  0
  -28.7106  -12.9508   20.9885 C   0  0  0  0  0  0
  -25.2623  -13.8122   20.5686 C   0  0  0  0  0  0
  -24.1866  -13.0417   20.9182 C   0  0  0  0  0  0
  -24.6404  -11.6878   20.8728 C   0  0  0  0  0  0
  -23.9065  -10.4276   21.0401 C   0  0  0  0  0  0
  -24.3615   -9.4195   21.9187 C   0  0  0  0  0  0
  -23.6290   -8.2231   22.0756 C   0  0  0  0  0  0
  -22.4269   -8.0276   21.3543 C   0  0  0  0  0  0
  -21.9907   -9.0249   20.4639 C   0  0  0  0  0  0
  -22.7238  -10.2128   20.3048 C   0  0  0  0  0  0
  -21.6837   -6.0742   22.5284 C   0  0  0  0  0  0
  -21.4013   -6.5646   23.8222 C   0  0  0  0  0  0
  -21.3662   -5.6796   24.9184 C   0  0  0  0  0  0
  -21.6046   -4.3061   24.7231 C   0  0  0  0  0  0
  -21.8826   -3.8156   23.4349 C   0  0  0  0  0  0
  -21.9191   -4.6973   22.3404 C   0  0  0  0  0  0
  -22.7889  -13.5218   21.1853 C   0  0  0  0  0  0
  -22.1658   -4.2155   21.0980 F   0  0  0  0  0  0
  -21.5624   -3.4551   25.7750 F   0  0  0  0  0  0
  -30.0357  -13.2951   20.4464 N   0  0  0  0  0  0
  -26.3049  -12.9268   20.3363 N   0  0  0  0  0  0
  -25.9329  -11.6441   20.5747 N   0  0  0  0  0  0
  -22.0513  -12.8205   22.0388 N   0  0  0  0  0  0
  -25.4357  -15.1846   20.4090 N   0  0  0  0  0  0
  -31.7631  -14.7332   20.1054 O   0  0  0  0  0  0
  -21.6623   -6.8882   21.4244 O   0  0  0  0  0  0
  -22.3589  -14.5538   20.6711 O   0  0  0  0  0  0
  -24.6156  -31.8677   23.2106 C   0  0  0  0  0  0
  -25.9045  -32.4826   23.8410 C   0  0  1  0  0  0
  -27.2393  -27.4233   20.1064 C   0  0  0  0  0  0
  -25.5903  -33.8626   24.2337 N   0  0  0  0  0  0
  -23.4059  -30.4885   21.5499 C   0  0  2  0  0  0
  -24.8566  -28.9469   20.1232 C   0  0  0  0  0  0
  -22.7420  -29.4662   22.4996 C   0  0  0  0  0  0
  -18.0272  -28.1388   22.8488 C   0  0  0  0  0  0
  -24.1486  -36.7307   23.2635 C   0  0  0  0  0  0
  -25.9364  -30.8268   21.3694 C   0  0  0  0  0  0
  -26.0155  -29.4566   20.7249 C   0  0  0  0  0  0
  -27.2119  -28.6994   20.7201 C   0  0  0  0  0  0
  -26.0692  -26.9315   19.4968 C   0  0  0  0  0  0
  -24.8772  -27.6813   19.5101 C   0  0  0  0  0  0
  -23.6191  -29.8161   20.1666 C   0  0  0  0  0  0
  -25.4103  -36.3113   24.0342 C   0  0  1  0  0  0
  -20.5864  -28.3682   23.1313 C   0  0  2  0  0  0
  -20.6763  -26.9418   22.5418 C   0  0  0  0  0  0
  -19.5739  -26.6391   21.5213 C   0  0  0  0  0  0
  -18.1919  -26.7934   22.1617 C   0  0  0  0  0  0
  -19.1521  -28.8850   23.2897 C   0  0  0  0  0  0
  -18.9447  -30.1455   23.8908 C   0  0  0  0  0  0
  -17.6448  -30.6589   24.0570 C   0  0  0  0  0  0
  -25.9038  -34.9477   23.5134 C   0  0  0  0  0  0
  -16.5343  -29.9088   23.6336 C   0  0  0  0  0  0
  -16.7264  -28.6510   23.0350 C   0  0  0  0  0  0
  -26.4480  -31.6607   25.0737 C   0  0  0  0  0  0
  -25.3749  -31.3693   26.1483 C   0  0  0  0  0  0
  -27.0321  -30.3051   24.6119 C   0  0  0  0  0  0
  -27.6058  -32.4325   25.7497 C   0  0  0  0  0  0
  -27.5592  -37.1793   24.8456 C   0  0  0  0  0  0
  -21.4146  -29.3041   22.3724 N   0  0  0  0  0  0
  -26.4286  -37.3798   23.9427 N   0  0  0  0  0  0
  -24.6706  -31.0769   22.1012 N   0  0  0  0  0  0
  -23.4186  -28.8214   23.3054 O   0  0  0  0  0  0
  -28.3858  -26.6615   20.0298 O   0  0  0  0  0  0
  -26.5594  -34.8929   22.4692 O   0  0  0  0  0  0
  -23.5340  -32.1441   23.7486 O   0  0  0  0  0  0
  -29.3942  -21.4414   21.7812 C   0  0  0  0  0  0
  -29.5193  -20.0301   21.7630 C   0  0  0  0  0  0
  -29.6807  -21.4985   19.3659 C   0  0  0  0  0  0
  -29.4664  -22.1924   20.5804 C   0  0  0  0  0  0
  -29.7041  -19.3463   20.5397 C   0  0  0  0  0  0
  -29.7762  -20.0865   19.3405 C   0  0  0  0  0  0
  -30.4022  -17.0522   21.2818 C   0  0  0  0  0  0
  -28.4622  -24.4208   21.1090 C   0  0  0  0  0  0
  -29.9367  -15.6037   21.4424 C   0  0  0  0  0  0
  -28.7543  -25.9407   21.2175 C   0  0  0  0  0  0
  -31.4444  -17.5027   22.0142 N   0  0  0  0  0  0
  -29.4191  -23.6256   20.5832 N   0  0  0  0  0  0
  -29.6906  -17.8895   20.4753 N   0  3  0  0  0  0
  -27.3805  -23.9764   21.5053 O   0  0  0  0  0  0
  -29.9253  -19.4409   18.1576 F   0  0  0  0  0  0
  -31.4797  -12.4622   19.1044 H   0  0  0  0  0  0
  -30.3695  -11.3131   19.7913 H   0  0  0  0  0  0
  -29.7467  -11.8097   17.4134 H   0  0  0  0  0  0
  -29.6548  -13.5149   17.7711 H   0  0  0  0  0  0
  -27.8353  -11.3077   18.8010 H   0  0  0  0  0  0
  -27.3666  -12.6427   17.7830 H   0  0  0  0  0  0
  -27.7119  -14.2435   19.5858 H   0  0  0  0  0  0
  -28.7021  -11.9003   21.2857 H   0  0  0  0  0  0
  -28.4624  -13.4983   21.8968 H   0  0  0  0  0  0
  -25.2759   -9.5672   22.4766 H   0  0  0  0  0  0
  -24.0007   -7.4625   22.7477 H   0  0  0  0  0  0
  -21.0841   -8.8771   19.8936 H   0  0  0  0  0  0
  -22.3703  -10.9675   19.6159 H   0  0  0  0  0  0
  -21.2008   -7.6155   23.9736 H   0  0  0  0  0  0
  -21.1476   -6.0518   25.9088 H   0  0  0  0  0  0
  -22.0604   -2.7620   23.2847 H   0  0  0  0  0  0
  -22.4099  -11.9846   22.4760 H   0  0  0  0  0  0
  -21.1141  -13.1252   22.2597 H   0  0  0  0  0  0
  -24.6676  -15.8372   20.5194 H   0  0  0  0  0  0
  -26.2795  -15.6254   20.0676 H   0  0  0  0  0  0
  -26.7118  -32.5552   23.1183 H   0  0  0  0  0  0
  -25.0095  -33.9800   25.0509 H   0  0  0  0  0  0
  -22.6946  -31.3048   21.4055 H   0  0  0  0  0  0
  -23.3777  -35.9607   23.3249 H   0  0  0  0  0  0
  -24.3592  -36.8972   22.2062 H   0  0  0  0  0  0
  -23.7207  -37.6479   23.6684 H   0  0  0  0  0  0
  -26.0496  -31.5900   20.5986 H   0  0  0  0  0  0
  -26.8234  -30.8846   21.9886 H   0  0  0  0  0  0
  -28.1096  -29.0933   21.1754 H   0  0  0  0  0  0
  -26.0848  -25.9645   19.0137 H   0  0  0  0  0  0
  -23.9867  -27.2814   19.0455 H   0  0  0  0  0  0
  -23.7345  -30.5879   19.4044 H   0  0  0  0  0  0
  -22.7440  -29.2355   19.8692 H   0  0  0  0  0  0
  -25.1279  -36.1975   25.0834 H   0  0  0  0  0  0
  -20.9949  -28.3248   24.1435 H   0  0  0  0  0  0
  -20.5684  -26.2291   23.3598 H   0  0  0  0  0  0
  -21.6640  -26.7461   22.1215 H   0  0  0  0  0  0
  -19.6908  -25.6307   21.1238 H   0  0  0  0  0  0
  -19.6676  -27.3208   20.6753 H   0  0  0  0  0  0
  -17.4198  -26.6699   21.4009 H   0  0  0  0  0  0
  -18.0297  -26.0071   22.9004 H   0  0  0  0  0  0
  -19.7928  -30.7269   24.2271 H   0  0  0  0  0  0
  -17.5010  -31.6267   24.5180 H   0  0  0  0  0  0
  -15.5347  -30.2993   23.7641 H   0  0  0  0  0  0
  -15.8667  -28.0834   22.7047 H   0  0  0  0  0  0
  -24.5913  -30.7056   25.7814 H   0  0  0  0  0  0
  -24.8955  -32.2838   26.4973 H   0  0  0  0  0  0
  -25.8108  -30.8827   27.0214 H   0  0  0  0  0  0
  -26.2860  -29.6800   24.1196 H   0  0  0  0  0  0
  -27.4116  -29.7306   25.4582 H   0  0  0  0  0  0
  -27.8689  -30.4378   23.9258 H   0  0  0  0  0  0
  -27.2694  -33.3638   26.2063 H   0  0  0  0  0  0
  -28.3862  -32.6850   25.0311 H   0  0  0  0  0  0
  -28.0722  -31.8454   26.5418 H   0  0  0  0  0  0
  -28.2566  -38.0136   24.7587 H   0  0  0  0  0  0
  -28.1130  -36.2671   24.6175 H   0  0  0  0  0  0
  -27.2323  -37.1337   25.8859 H   0  0  0  0  0  0
  -20.9312  -29.8755   21.6936 H   0  0  0  0  0  0
  -26.0178  -38.2863   24.1474 H   0  0  0  0  0  0
  -29.2495  -21.9443   22.7270 H   0  0  0  0  0  0
  -29.4375  -19.4747   22.6863 H   0  0  0  0  0  0
  -29.7508  -22.0425   18.4365 H   0  0  0  0  0  0
  -28.8771  -15.5890   21.1920 H   0  0  0  0  0  0
  -29.9941  -15.3333   22.4959 H   0  0  0  0  0  0
  -29.8222  -26.0811   21.3858 H   0  0  0  0  0  0
  -28.2544  -26.3388   22.1027 H   0  0  0  0  0  0
  -31.9578  -16.8864   22.6327 H   0  0  0  0  0  0
  -31.7998  -18.4447   21.9306 H   0  0  0  0  0  0
  -30.1919  -24.1082   20.1426 H   0  0  0  0  0  0
  -29.3007  -17.4687   19.6422 H   0  0  0  0  0  0
  1 25  1  0  0  0
  1 30  2  0  0  0
  1 79  1  0  0  0
  2  3  1  0  0  0
  2 25  1  0  0  0
  2 86  1  0  0  0
  2 87  1  0  0  0
  3  4  1  0  0  0
  3 88  1  0  0  0
  3 89  1  0  0  0
  4  5  1  0  0  0
  4 90  1  0  0  0
  4 91  1  0  0  0
  5  6  1  0  0  0
  5 26  1  0  0  0
  5 92  1  0  0  0
  6 25  1  0  0  0
  6 93  1  0  0  0
  6 94  1  0  0  0
  7  8  2  0  0  0
  7 26  1  0  0  0
  7 29  1  0  0  0
  8  9  1  0  0  0
  8 22  1  0  0  0
  9 10  1  0  0  0
  9 27  2  0  0  0
 10 11  2  0  0  0
 10 15  1  0  0  0
 11 12  1  0  0  0
 11 95  1  0  0  0
 12 13  2  0  0  0
 12 96  1  0  0  0
 13 14  1  0  0  0
 13 31  1  0  0  0
 14 15  2  0  0  0
 14 97  1  0  0  0
 15 98  1  0  0  0
 16 17  2  0  0  0
 16 21  1  0  0  0
 16 31  1  0  0  0
 17 18  1  0  0  0
 17 99  1  0  0  0
 18 19  2  0  0  0
 18100  1  0  0  0
 19 20  1  0  0  0
 19 24  1  0  0  0
 20 21  2  0  0  0
 20101  1  0  0  0
 21 23  1  0  0  0
 22 28  1  0  0  0
 22 32  2  0  0  0
 26 27  1  0  0  0
 28102  1  0  0  0
 28103  1  0  0  0
 29104  1  0  0  0
 29105  1  0  0  0
 33 34  1  0  0  0
 33 66  1  0  0  0
 33 70  2  0  0  0
 34 36  1  0  0  0
 34 59  1  0  0  0
 34106  1  0  0  0
 35 44  2  0  0  0
 35 45  1  0  0  0
 35 68  1  0  0  0
 36 56  1  0  0  0
 36107  1  0  0  0
 37 39  1  0  0  0
 37 47  1  0  0  0
 37 66  1  0  0  0
 37108  1  0  0  0
 38 43  2  0  0  0
 38 46  1  0  0  0
 38 47  1  0  0  0
 39 64  1  0  0  0
 39 67  2  0  0  0
 40 52  1  0  0  0
 40 53  2  0  0  0
 40 58  1  0  0  0
 41109  1  0  0  0
 41110  1  0  0  0
 41111  1  0  0  0
 41 48  1  0  0  0
 42 43  1  0  0  0
 42 66  1  0  0  0
 42112  1  0  0  0
 42113  1  0  0  0
 43 44  1  0  0  0
 44114  1  0  0  0
 45 46  2  0  0  0
 45115  1  0  0  0
 46116  1  0  0  0
 47117  1  0  0  0
 47118  1  0  0  0
 48 56  1  0  0  0
 48 65  1  0  0  0
 48119  1  0  0  0
 49 50  1  0  0  0
 49 53  1  0  0  0
 49 64  1  0  0  0
 49120  1  0  0  0
 50 51  1  0  0  0
 50121  1  0  0  0
 50122  1  0  0  0
 51 52  1  0  0  0
 51123  1  0  0  0
 51124  1  0  0  0
 52125  1  0  0  0
 52126  1  0  0  0
 53 54  1  0  0  0
 54 55  2  0  0  0
 54127  1  0  0  0
 55 57  1  0  0  0
 55128  1  0  0  0
 56 69  2  0  0  0
 57 58  2  0  0  0
 57129  1  0  0  0
 58130  1  0  0  0
 59 60  1  0  0  0
 59 61  1  0  0  0
 59 62  1  0  0  0
 60131  1  0  0  0
 60132  1  0  0  0
 60133  1  0  0  0
 61134  1  0  0  0
 61135  1  0  0  0
 61136  1  0  0  0
 62137  1  0  0  0
 62138  1  0  0  0
 62139  1  0  0  0
 63 65  1  0  0  0
 63140  1  0  0  0
 63141  1  0  0  0
 63142  1  0  0  0
 64143  1  0  0  0
 65144  1  0  0  0
 68 80  1  0  0  0
 71 72  2  0  0  0
 71 74  1  0  0  0
 71145  1  0  0  0
 72 75  1  0  0  0
 72146  1  0  0  0
 73 74  2  0  0  0
 73 76  1  0  0  0
 73147  1  0  0  0
 74 82  1  0  0  0
 75 76  2  0  0  0
 75 83  1  0  0  0
 76 85  1  0  0  0
 77 79  1  0  0  0
 77 81  1  0  0  0
 77 83  2  0  0  0
 78 80  1  0  0  0
 78 82  1  0  0  0
 78 84  2  0  0  0
 79148  1  0  0  0
 79149  1  0  0  0
 80150  1  0  0  0
 80151  1  0  0  0
 81152  1  0  0  0
 81153  1  0  0  0
 82154  1  0  0  0
 83155  1  0  0  0
M  CHG  1  83   1
M  ISO  4   1 100  68 101  79 100  80 101
M  END
> <chiral flag>
0

> <version>
0

> <s_m_source_file>
/data/baiqing/PycharmProjects/Reinvent-master-3.2/result/LINK_invent/BTK/process_docking_weight1_custom_product_contain_oxygen_bond_distance_aromatic_linkinvent_7_9_3/rearranged_h_0094.sdf

> <i_m_source_file_index>
90

> <r_mmod_Potential_Energy-OPLS-2005>
-36.6246795654297

> <r_mmod_Stretch_Energy-OPLS-2005>
44.0140266418457

> <r_mmod_Bend_Energy-OPLS-2005>
106.516090393066

> <r_mmod_Torsional_Energy-OPLS-2005>
233.888153076172

> <r_mmod_Improper_Torsional_Energy-OPLS-2005>
3.98480105400085

> <r_mmod_Van_der_Waal_Energy-OPLS-2005>
140.639617919922

> <r_mmod_Electrostatic_Energy-OPLS-2005>
-115.412353515625

> <r_mmod_Solvation_Energy-OPLS-2005>
-463.666107177734

> <b_mmod_Minimization_Converged-OPLS-2005>
0

> <r_mmod_RMS_Derivative-OPLS-2005>
1.64564144611359

$$$$
90
                    3D
 Structure written by MMmdl.
158167  0  0  1  0            999 V2000
  -30.6261  -14.6423   20.5164 C   0  0  0  0  0  0
  -30.4388  -12.3961   19.4628 C   0  0  0  0  0  0
  -29.5120  -12.5132   18.2319 C   0  0  0  0  0  0
  -28.0342  -12.3511   18.6403 C   0  0  0  0  0  0
  -27.6566  -13.2198   19.8700 C   0  0  2  0  0  0
  -28.6986  -13.0709   21.0019 C   0  0  0  0  0  0
  -25.2564  -13.8174   20.5693 C   0  0  0  0  0  0
  -24.1829  -13.0435   20.9182 C   0  0  0  0  0  0
  -24.6402  -11.6910   20.8733 C   0  0  0  0  0  0
  -23.9068  -10.4293   21.0403 C   0  0  0  0  0  0
  -24.3619   -9.4208   21.9181 C   0  0  0  0  0  0
  -23.6294   -8.2244   22.0754 C   0  0  0  0  0  0
  -22.4276   -8.0281   21.3547 C   0  0  0  0  0  0
  -21.9909   -9.0255   20.4646 C   0  0  0  0  0  0
  -22.7240  -10.2132   20.3053 C   0  0  0  0  0  0
  -21.6849   -6.0735   22.5282 C   0  0  0  0  0  0
  -21.4013   -6.5639   23.8216 C   0  0  0  0  0  0
  -21.3658   -5.6788   24.9176 C   0  0  0  0  0  0
  -21.6045   -4.3052   24.7223 C   0  0  0  0  0  0
  -21.8816   -3.8146   23.4343 C   0  0  0  0  0  0
  -21.9194   -4.6964   22.3399 C   0  0  0  0  0  0
  -22.7851  -13.5222   21.1848 C   0  0  0  0  0  0
  -22.1661   -4.2153   21.0975 F   0  0  0  0  0  0
  -21.5628   -3.4528   25.7734 F   0  0  0  0  0  0
  -30.0164  -13.4155   20.4462 N   0  0  0  0  0  0
  -26.3007  -12.9365   20.3350 N   0  0  0  0  0  0
  -25.9336  -11.6513   20.5763 N   0  0  0  0  0  0
  -22.0492  -12.8218   22.0404 N   0  0  0  0  0  0
  -25.4260  -15.1895   20.4120 N   0  0  0  0  0  0
  -31.7724  -14.8077   20.0853 O   0  0  0  0  0  0
  -21.6637   -6.8883   21.4245 O   0  0  0  0  0  0
  -22.3535  -14.5528   20.6701 O   0  0  0  0  0  0
  -24.6258  -31.8604   23.2030 C   0  0  0  0  0  0
  -25.9106  -32.4784   23.8356 C   0  0  1  0  0  0
  -27.2178  -27.3162   20.1223 C   0  0  0  0  0  0
  -25.5928  -33.8582   24.2283 N   0  0  0  0  0  0
  -23.4198  -30.4852   21.5455 C   0  0  2  0  0  0
  -24.8657  -28.9445   20.1077 C   0  0  0  0  0  0
  -22.7478  -29.4630   22.4932 C   0  0  0  0  0  0
  -18.0288  -28.1381   22.8495 C   0  0  0  0  0  0
  -24.1490  -36.7286   23.2637 C   0  0  0  0  0  0
  -25.9615  -30.7910   21.3754 C   0  0  0  0  0  0
  -26.0345  -29.4197   20.7154 C   0  0  0  0  0  0
  -27.2146  -28.6177   20.7126 C   0  0  0  0  0  0
  -26.0288  -26.9026   19.4764 C   0  0  0  0  0  0
  -24.8650  -27.6921   19.4777 C   0  0  0  0  0  0
  -23.6335  -29.8238   20.1595 C   0  0  0  0  0  0
  -25.4114  -36.3087   24.0333 C   0  0  1  0  0  0
  -20.5891  -28.3684   23.1281 C   0  0  2  0  0  0
  -20.6776  -26.9402   22.5422 C   0  0  0  0  0  0
  -19.5752  -26.6382   21.5220 C   0  0  0  0  0  0
  -18.1930  -26.7934   22.1623 C   0  0  0  0  0  0
  -19.1544  -28.8849   23.2887 C   0  0  0  0  0  0
  -18.9468  -30.1455   23.8896 C   0  0  0  0  0  0
  -17.6466  -30.6582   24.0570 C   0  0  0  0  0  0
  -25.9055  -34.9460   23.5108 C   0  0  0  0  0  0
  -16.5354  -29.9084   23.6334 C   0  0  0  0  0  0
  -16.7275  -28.6505   23.0351 C   0  0  0  0  0  0
  -26.4489  -31.6591   25.0725 C   0  0  0  0  0  0
  -25.3724  -31.3742   26.1457 C   0  0  0  0  0  0
  -27.0323  -30.3017   24.6170 C   0  0  0  0  0  0
  -27.6055  -32.4321   25.7483 C   0  0  0  0  0  0
  -27.5593  -37.1779   24.8448 C   0  0  0  0  0  0
  -21.4192  -29.3036   22.3675 N   0  0  0  0  0  0
  -26.4284  -37.3788   23.9428 N   0  0  0  0  0  0
  -24.6877  -31.0625   22.0979 N   0  0  0  0  0  0
  -23.4207  -28.8172   23.3008 O   0  0  0  0  0  0
  -28.3214  -26.4486   20.1974 O   0  0  0  0  0  0
  -26.5622  -34.8926   22.4674 O   0  0  0  0  0  0
  -23.5421  -32.1397   23.7358 O   0  0  0  0  0  0
  -30.2657  -19.2361   19.5083 C   0  0  0  0  0  0
  -29.2649  -19.3844   21.6860 C   0  0  0  0  0  0
  -29.7184  -20.0760   20.5264 C   0  0  0  0  0  0
  -30.3716  -17.8152   19.6298 C   0  0  0  0  0  0
  -29.3656  -17.9636   21.8219 C   0  0  0  0  0  0
  -29.9231  -17.1377   20.8026 C   0  0  0  0  0  0
  -30.7022  -22.2895   19.8910 C   0  0  0  0  0  0
  -28.7070  -22.4274   20.7936 C   0  0  0  0  0  0
  -30.4141  -23.7950   19.8716 C   0  0  0  0  0  0
  -29.1141  -23.9402   20.6637 C   0  0  1  0  0  0
  -28.0603  -24.9883   20.0905 C   0  0  0  0  0  0
  -29.6881  -21.5588   20.4023 N   0  0  0  0  0  0
  -30.9051  -17.0979   18.5592 N   0  0  0  0  0  0
  -28.9141  -17.3622   23.0005 N   0  0  0  0  0  0
  -29.8640  -15.6805   20.9775 N   0  0  0  0  0  0
  -31.7835  -21.8463   19.4864 O   0  0  0  0  0  0
  -27.5968  -22.0889   21.2202 O   0  0  0  0  0  0
  -31.4817  -12.5165   19.1649 H   0  0  0  0  0  0
  -30.3690  -11.3996   19.9012 H   0  0  0  0  0  0
  -29.7798  -11.7623   17.4873 H   0  0  0  0  0  0
  -29.6563  -13.4831   17.7527 H   0  0  0  0  0  0
  -27.8697  -11.2979   18.8690 H   0  0  0  0  0  0
  -27.3807  -12.5826   17.7983 H   0  0  0  0  0  0
  -27.6776  -14.2573   19.5345 H   0  0  0  0  0  0
  -28.7098  -12.0480   21.3801 H   0  0  0  0  0  0
  -28.4391  -13.6986   21.8558 H   0  0  0  0  0  0
  -25.2766   -9.5677   22.4751 H   0  0  0  0  0  0
  -24.0004   -7.4627   22.7466 H   0  0  0  0  0  0
  -21.0842   -8.8767   19.8948 H   0  0  0  0  0  0
  -22.3699  -10.9667   19.6156 H   0  0  0  0  0  0
  -21.2001   -7.6149   23.9720 H   0  0  0  0  0  0
  -21.1480   -6.0518   25.9081 H   0  0  0  0  0  0
  -22.0596   -2.7610   23.2835 H   0  0  0  0  0  0
  -22.4100  -11.9870   22.4784 H   0  0  0  0  0  0
  -21.1115  -13.1252   22.2611 H   0  0  0  0  0  0
  -24.6638  -15.8467   20.5368 H   0  0  0  0  0  0
  -26.2882  -15.6339   20.1219 H   0  0  0  0  0  0
  -26.7173  -32.5448   23.1101 H   0  0  0  0  0  0
  -25.0097  -33.9730   25.0446 H   0  0  0  0  0  0
  -22.7141  -31.3067   21.4049 H   0  0  0  0  0  0
  -23.3779  -35.9587   23.3264 H   0  0  0  0  0  0
  -24.3604  -36.8938   22.2061 H   0  0  0  0  0  0
  -23.7198  -37.6460   23.6674 H   0  0  0  0  0  0
  -26.0980  -31.5559   20.6101 H   0  0  0  0  0  0
  -26.8402  -30.8344   22.0071 H   0  0  0  0  0  0
  -28.1089  -28.9755   21.2038 H   0  0  0  0  0  0
  -25.9661  -25.9490   18.9749 H   0  0  0  0  0  0
  -23.9710  -27.3252   18.9927 H   0  0  0  0  0  0
  -23.7518  -30.6017   19.4040 H   0  0  0  0  0  0
  -22.7527  -29.2539   19.8577 H   0  0  0  0  0  0
  -25.1287  -36.1933   25.0822 H   0  0  0  0  0  0
  -20.9990  -28.3250   24.1397 H   0  0  0  0  0  0
  -20.5671  -26.2293   23.3626 H   0  0  0  0  0  0
  -21.6643  -26.7419   22.1211 H   0  0  0  0  0  0
  -19.6913  -25.6297   21.1238 H   0  0  0  0  0  0
  -19.6696  -27.3206   20.6761 H   0  0  0  0  0  0
  -17.4213  -26.6704   21.4011 H   0  0  0  0  0  0
  -18.0309  -26.0067   22.9002 H   0  0  0  0  0  0
  -19.7944  -30.7278   24.2252 H   0  0  0  0  0  0
  -17.5021  -31.6259   24.5180 H   0  0  0  0  0  0
  -15.5356  -30.2983   23.7661 H   0  0  0  0  0  0
  -15.8681  -28.0826   22.7043 H   0  0  0  0  0  0
  -24.5905  -30.7073   25.7805 H   0  0  0  0  0  0
  -24.8907  -32.2917   26.4848 H   0  0  0  0  0  0
  -25.8059  -30.8959   27.0250 H   0  0  0  0  0  0
  -26.2893  -29.6775   24.1196 H   0  0  0  0  0  0
  -27.4034  -29.7256   25.4655 H   0  0  0  0  0  0
  -27.8758  -30.4312   23.9386 H   0  0  0  0  0  0
  -27.2675  -33.3630   26.2043 H   0  0  0  0  0  0
  -28.3867  -32.6860   25.0307 H   0  0  0  0  0  0
  -28.0723  -31.8458   26.5408 H   0  0  0  0  0  0
  -28.2552  -38.0135   24.7586 H   0  0  0  0  0  0
  -28.1148  -36.2674   24.6150 H   0  0  0  0  0  0
  -27.2341  -37.1266   25.8853 H   0  0  0  0  0  0
  -20.9371  -29.8784   21.6909 H   0  0  0  0  0  0
  -26.0167  -38.2848   24.1492 H   0  0  0  0  0  0
  -30.6181  -19.6976   18.5960 H   0  0  0  0  0  0
  -28.8468  -19.9579   22.5019 H   0  0  0  0  0  0
  -30.2973  -24.1256   18.8396 H   0  0  0  0  0  0
  -31.2321  -24.3541   20.3251 H   0  0  0  0  0  0
  -29.3595  -24.2545   21.6786 H   0  0  0  0  0  0
  -27.1226  -24.7797   20.6090 H   0  0  0  0  0  0
  -27.8821  -24.7514   19.0408 H   0  0  0  0  0  0
  -31.4959  -17.6159   17.9183 H   0  0  0  0  0  0
  -31.3427  -16.2172   18.8346 H   0  0  0  0  0  0
  -28.7558  -17.9712   23.7963 H   0  0  0  0  0  0
  -29.3968  -16.5145   23.2794 H   0  0  0  0  0  0
  -29.0375  -15.3855   21.4729 H   0  0  0  0  0  0
  1 25  1  0  0  0
  1 30  2  0  0  0
  1 85  1  0  0  0
  2  3  1  0  0  0
  2 25  1  0  0  0
  2 88  1  0  0  0
  2 89  1  0  0  0
  3  4  1  0  0  0
  3 90  1  0  0  0
  3 91  1  0  0  0
  4  5  1  0  0  0
  4 92  1  0  0  0
  4 93  1  0  0  0
  5  6  1  0  0  0
  5 26  1  0  0  0
  5 94  1  0  0  0
  6 25  1  0  0  0
  6 95  1  0  0  0
  6 96  1  0  0  0
  7  8  2  0  0  0
  7 26  1  0  0  0
  7 29  1  0  0  0
  8  9  1  0  0  0
  8 22  1  0  0  0
  9 10  1  0  0  0
  9 27  2  0  0  0
 10 11  2  0  0  0
 10 15  1  0  0  0
 11 12  1  0  0  0
 11 97  1  0  0  0
 12 13  2  0  0  0
 12 98  1  0  0  0
 13 14  1  0  0  0
 13 31  1  0  0  0
 14 15  2  0  0  0
 14 99  1  0  0  0
 15100  1  0  0  0
 16 17  2  0  0  0
 16 21  1  0  0  0
 16 31  1  0  0  0
 17 18  1  0  0  0
 17101  1  0  0  0
 18 19  2  0  0  0
 18102  1  0  0  0
 19 20  1  0  0  0
 19 24  1  0  0  0
 20 21  2  0  0  0
 20103  1  0  0  0
 21 23  1  0  0  0
 22 28  1  0  0  0
 22 32  2  0  0  0
 26 27  1  0  0  0
 28104  1  0  0  0
 28105  1  0  0  0
 29106  1  0  0  0
 29107  1  0  0  0
 33 34  1  0  0  0
 33 66  1  0  0  0
 33 70  2  0  0  0
 34 36  1  0  0  0
 34 59  1  0  0  0
 34108  1  0  0  0
 35 44  2  0  0  0
 35 45  1  0  0  0
 35 68  1  0  0  0
 36 56  1  0  0  0
 36109  1  0  0  0
 37 39  1  0  0  0
 37 47  1  0  0  0
 37 66  1  0  0  0
 37110  1  0  0  0
 38 43  2  0  0  0
 38 46  1  0  0  0
 38 47  1  0  0  0
 39 64  1  0  0  0
 39 67  2  0  0  0
 40 52  1  0  0  0
 40 53  2  0  0  0
 40 58  1  0  0  0
 41111  1  0  0  0
 41112  1  0  0  0
 41113  1  0  0  0
 41 48  1  0  0  0
 42 43  1  0  0  0
 42 66  1  0  0  0
 42114  1  0  0  0
 42115  1  0  0  0
 43 44  1  0  0  0
 44116  1  0  0  0
 45 46  2  0  0  0
 45117  1  0  0  0
 46118  1  0  0  0
 47119  1  0  0  0
 47120  1  0  0  0
 48 56  1  0  0  0
 48 65  1  0  0  0
 48121  1  0  0  0
 49 50  1  0  0  0
 49 53  1  0  0  0
 49 64  1  0  0  0
 49122  1  0  0  0
 50 51  1  0  0  0
 50123  1  0  0  0
 50124  1  0  0  0
 51 52  1  0  0  0
 51125  1  0  0  0
 51126  1  0  0  0
 52127  1  0  0  0
 52128  1  0  0  0
 53 54  1  0  0  0
 54 55  2  0  0  0
 54129  1  0  0  0
 55 57  1  0  0  0
 55130  1  0  0  0
 56 69  2  0  0  0
 57 58  2  0  0  0
 57131  1  0  0  0
 58132  1  0  0  0
 59 60  1  0  0  0
 59 61  1  0  0  0
 59 62  1  0  0  0
 60133  1  0  0  0
 60134  1  0  0  0
 60135  1  0  0  0
 61136  1  0  0  0
 61137  1  0  0  0
 61138  1  0  0  0
 62139  1  0  0  0
 62140  1  0  0  0
 62141  1  0  0  0
 63 65  1  0  0  0
 63142  1  0  0  0
 63143  1  0  0  0
 63144  1  0  0  0
 64145  1  0  0  0
 65146  1  0  0  0
 68 81  1  0  0  0
 71 73  2  0  0  0
 71 74  1  0  0  0
 71147  1  0  0  0
 72 73  1  0  0  0
 72 75  2  0  0  0
 72148  1  0  0  0
 73 82  1  0  0  0
 74 76  2  0  0  0
 74 83  1  0  0  0
 75 76  1  0  0  0
 75 84  1  0  0  0
 76 85  1  0  0  0
 77 79  1  0  0  0
 77 82  1  0  0  0
 77 86  2  0  0  0
 78 80  1  0  0  0
 78 82  1  0  0  0
 78 87  2  0  0  0
 79 80  1  0  0  0
 79149  1  0  0  0
 79150  1  0  0  0
 80 81  1  0  0  0
 80151  1  0  0  0
 81152  1  0  0  0
 81153  1  0  0  0
 83154  1  0  0  0
 83155  1  0  0  0
 84156  1  0  0  0
 84157  1  0  0  0
 85158  1  0  0  0
M  ISO  4   1 100  68 101  81 101  85 100
M  END
> <chiral flag>
0

> <version>
0

> <s_m_source_file>
/data/baiqing/PycharmProjects/Reinvent-master-3.2/result/LINK_invent/BTK/process_docking_weight1_custom_product_contain_oxygen_bond_distance_aromatic_linkinvent_7_9_3/rearranged_h_0094.sdf

> <i_m_source_file_index>
91

> <r_mmod_Potential_Energy-OPLS-2005>
-43.8115463256836

> <r_mmod_Stretch_Energy-OPLS-2005>
85.5594024658203

> <r_mmod_Bend_Energy-OPLS-2005>
169.558288574219

> <r_mmod_Torsional_Energy-OPLS-2005>
279.523681640625

> <r_mmod_Improper_Torsional_Energy-OPLS-2005>
12.5445413589478

> <r_mmod_Van_der_Waal_Energy-OPLS-2005>
153.368591308594

> <r_mmod_Electrostatic_Energy-OPLS-2005>
-549.950012207031

> <r_mmod_Solvation_Energy-OPLS-2005>
-245.48876953125

> <b_mmod_Minimization_Converged-OPLS-2005>
0

> <r_mmod_RMS_Derivative-OPLS-2005>
1.13002133369446

$$$$
91
                    3D
 Structure written by MMmdl.
163172  0  0  1  0            999 V2000
  -30.6680  -14.6867   20.3815 C   0  0  0  0  0  0
  -30.4273  -12.3928   19.4683 C   0  0  0  0  0  0
  -29.5028  -12.4195   18.2318 C   0  0  0  0  0  0
  -28.0246  -12.3049   18.6563 C   0  0  0  0  0  0
  -27.6398  -13.2219   19.8525 C   0  0  2  0  0  0
  -28.6990  -13.1874   20.9743 C   0  0  0  0  0  0
  -25.2518  -13.8171   20.5768 C   0  0  0  0  0  0
  -24.1792  -13.0427   20.9225 C   0  0  0  0  0  0
  -24.6364  -11.6897   20.8772 C   0  0  0  0  0  0
  -23.9045  -10.4279   21.0424 C   0  0  0  0  0  0
  -24.3596   -9.4198   21.9204 C   0  0  0  0  0  0
  -23.6277   -8.2232   22.0770 C   0  0  0  0  0  0
  -22.4257   -8.0268   21.3560 C   0  0  0  0  0  0
  -21.9897   -9.0237   20.4663 C   0  0  0  0  0  0
  -22.7216  -10.2128   20.3078 C   0  0  0  0  0  0
  -21.6849   -6.0718   22.5285 C   0  0  0  0  0  0
  -21.4014   -6.5640   23.8207 C   0  0  0  0  0  0
  -21.3636   -5.6810   24.9182 C   0  0  0  0  0  0
  -21.6027   -4.3067   24.7236 C   0  0  0  0  0  0
  -21.8822   -3.8150   23.4362 C   0  0  0  0  0  0
  -21.9188   -4.6952   22.3417 C   0  0  0  0  0  0
  -22.7826  -13.5232   21.1876 C   0  0  0  0  0  0
  -22.1659   -4.2141   21.0998 F   0  0  0  0  0  0
  -21.5618   -3.4549   25.7736 F   0  0  0  0  0  0
  -29.9950  -13.4904   20.3555 N   0  0  0  0  0  0
  -26.2960  -12.9359   20.3425 N   0  0  0  0  0  0
  -25.9309  -11.6508   20.5848 N   0  0  0  0  0  0
  -22.0466  -12.8230   22.0447 N   0  0  0  0  0  0
  -25.4204  -15.1890   20.4193 N   0  0  0  0  0  0
  -31.8952  -14.6924   20.2512 O   0  0  0  0  0  0
  -21.6630   -6.8859   21.4241 O   0  0  0  0  0  0
  -22.3520  -14.5544   20.6715 O   0  0  0  0  0  0
  -24.6236  -31.8639   23.2035 C   0  0  0  0  0  0
  -25.9071  -32.4824   23.8365 C   0  0  1  0  0  0
  -27.2280  -27.3395   20.1144 C   0  0  0  0  0  0
  -25.5911  -33.8626   24.2308 N   0  0  0  0  0  0
  -23.4171  -30.4863   21.5468 C   0  0  2  0  0  0
  -24.8629  -28.9452   20.1107 C   0  0  0  0  0  0
  -22.7467  -29.4646   22.4965 C   0  0  0  0  0  0
  -18.0283  -28.1385   22.8508 C   0  0  0  0  0  0
  -24.1478  -36.7274   23.2643 C   0  0  0  0  0  0
  -25.9561  -30.8019   21.3686 C   0  0  0  0  0  0
  -26.0314  -29.4306   20.7117 C   0  0  0  0  0  0
  -27.2163  -28.6404   20.6993 C   0  0  0  0  0  0
  -26.0349  -26.9064   19.4870 C   0  0  0  0  0  0
  -24.8655  -27.6877   19.4888 C   0  0  0  0  0  0
  -23.6281  -29.8182   20.1628 C   0  0  0  0  0  0
  -25.4109  -36.3122   24.0347 C   0  0  1  0  0  0
  -20.5877  -28.3676   23.1308 C   0  0  2  0  0  0
  -20.6770  -26.9411   22.5415 C   0  0  0  0  0  0
  -19.5745  -26.6396   21.5219 C   0  0  0  0  0  0
  -18.1924  -26.7943   22.1621 C   0  0  0  0  0  0
  -19.1533  -28.8847   23.2907 C   0  0  0  0  0  0
  -18.9450  -30.1452   23.8925 C   0  0  0  0  0  0
  -17.6451  -30.6595   24.0570 C   0  0  0  0  0  0
  -25.9050  -34.9490   23.5126 C   0  0  0  0  0  0
  -16.5341  -29.9088   23.6345 C   0  0  0  0  0  0
  -16.7267  -28.6497   23.0378 C   0  0  0  0  0  0
  -26.4460  -31.6630   25.0723 C   0  0  0  0  0  0
  -25.3700  -31.3722   26.1440 C   0  0  0  0  0  0
  -27.0302  -30.3089   24.6116 C   0  0  0  0  0  0
  -27.6036  -32.4353   25.7467 C   0  0  0  0  0  0
  -27.5577  -37.1793   24.8477 C   0  0  0  0  0  0
  -21.4182  -29.3037   22.3701 N   0  0  0  0  0  0
  -26.4291  -37.3806   23.9426 N   0  0  0  0  0  0
  -24.6849  -31.0664   22.0969 N   0  0  0  0  0  0
  -23.4214  -28.8202   23.3036 O   0  0  0  0  0  0
  -28.3518  -26.5028   20.1695 O   0  0  0  0  0  0
  -26.5607  -34.8943   22.4688 O   0  0  0  0  0  0
  -23.5391  -32.1410   23.7376 O   0  0  0  0  0  0
  -28.7155  -19.3114   20.8553 C   0  0  0  0  0  0
  -28.7661  -17.9003   20.6349 C   0  0  0  0  0  0
  -31.1144  -19.3624   20.8624 C   0  0  0  0  0  0
  -29.8965  -20.0914   20.9767 C   0  0  0  0  0  0
  -29.9877  -17.1751   20.5074 C   0  0  0  0  0  0
  -31.1733  -17.9605   20.6253 C   0  0  0  0  0  0
  -30.7092  -22.0421   22.2095 C   0  0  0  0  0  0
  -31.0318  -23.5441   22.2583 C   0  0  0  0  0  0
  -29.8463  -24.4450   21.9125 C   0  0  0  0  0  0
  -28.9248  -22.4934   20.5631 C   0  0  0  0  0  0
  -29.2772  -24.0557   20.5500 C   0  0  1  0  0  0
  -29.7743  -15.8705   18.4978 C   0  0  0  0  0  0
  -28.1161  -25.0457   20.1209 C   0  0  0  0  0  0
  -29.9050  -21.5501   21.2232 N   0  0  0  0  0  0
  -32.4359  -17.4018   20.4299 N   0  0  0  0  0  0
  -29.9586  -15.8067   19.9617 N   0  0  0  0  0  0
  -31.2255  -21.3350   23.0823 O   0  0  0  0  0  0
  -31.4716  -12.4867   19.1637 H   0  0  0  0  0  0
  -30.3536  -11.4369   19.9896 H   0  0  0  0  0  0
  -29.7630  -11.6030   17.5565 H   0  0  0  0  0  0
  -29.6550  -13.3258   17.6520 H   0  0  0  0  0  0
  -27.8595  -11.2631   18.9355 H   0  0  0  0  0  0
  -27.3689  -12.4987   17.8062 H   0  0  0  0  0  0
  -27.6122  -14.2370   19.4673 H   0  0  0  0  0  0
  -28.7283  -12.2093   21.4552 H   0  0  0  0  0  0
  -28.4610  -13.9172   21.7514 H   0  0  0  0  0  0
  -25.2738   -9.5671   22.4793 H   0  0  0  0  0  0
  -23.9961   -7.4635   22.7518 H   0  0  0  0  0  0
  -21.0821   -8.8752   19.8988 H   0  0  0  0  0  0
  -22.3668  -10.9663   19.6188 H   0  0  0  0  0  0
  -21.2026   -7.6153   23.9709 H   0  0  0  0  0  0
  -21.1456   -6.0548   25.9082 H   0  0  0  0  0  0
  -22.0622   -2.7618   23.2865 H   0  0  0  0  0  0
  -22.4038  -11.9853   22.4815 H   0  0  0  0  0  0
  -21.1121  -13.1304   22.2712 H   0  0  0  0  0  0
  -24.6452  -15.8358   20.5130 H   0  0  0  0  0  0
  -26.2791  -15.6385   20.1295 H   0  0  0  0  0  0
  -26.7132  -32.5509   23.1114 H   0  0  0  0  0  0
  -25.0121  -33.9782   25.0486 H   0  0  0  0  0  0
  -22.7101  -31.3055   21.4055 H   0  0  0  0  0  0
  -23.3783  -35.9564   23.3322 H   0  0  0  0  0  0
  -24.3596  -36.8869   22.2061 H   0  0  0  0  0  0
  -23.7154  -37.6454   23.6632 H   0  0  0  0  0  0
  -26.0795  -31.5658   20.5994 H   0  0  0  0  0  0
  -26.8399  -30.8566   21.9908 H   0  0  0  0  0  0
  -28.1141  -29.0099   21.1740 H   0  0  0  0  0  0
  -25.9770  -25.9492   18.9935 H   0  0  0  0  0  0
  -23.9688  -27.3117   19.0134 H   0  0  0  0  0  0
  -23.7338  -30.5925   19.4017 H   0  0  0  0  0  0
  -22.7524  -29.2378   19.8703 H   0  0  0  0  0  0
  -25.1286  -36.1995   25.0838 H   0  0  0  0  0  0
  -20.9975  -28.3221   24.1422 H   0  0  0  0  0  0
  -20.5694  -26.2279   23.3596 H   0  0  0  0  0  0
  -21.6631  -26.7472   22.1177 H   0  0  0  0  0  0
  -19.6909  -25.6314   21.1230 H   0  0  0  0  0  0
  -19.6686  -27.3217   20.6760 H   0  0  0  0  0  0
  -17.4204  -26.6718   21.4007 H   0  0  0  0  0  0
  -18.0312  -26.0075   22.9000 H   0  0  0  0  0  0
  -19.7924  -30.7264   24.2305 H   0  0  0  0  0  0
  -17.5005  -31.6289   24.5145 H   0  0  0  0  0  0
  -15.5341  -30.2991   23.7672 H   0  0  0  0  0  0
  -15.8664  -28.0819   22.7094 H   0  0  0  0  0  0
  -24.5895  -30.7062   25.7733 H   0  0  0  0  0  0
  -24.8839  -32.2866   26.4866 H   0  0  0  0  0  0
  -25.8018  -30.8891   27.0217 H   0  0  0  0  0  0
  -26.2850  -29.6862   24.1150 H   0  0  0  0  0  0
  -27.4071  -29.7323   25.4570 H   0  0  0  0  0  0
  -27.8696  -30.4447   23.9290 H   0  0  0  0  0  0
  -27.2687  -33.3686   26.2005 H   0  0  0  0  0  0
  -28.3841  -32.6864   25.0271 H   0  0  0  0  0  0
  -28.0706  -31.8503   26.5400 H   0  0  0  0  0  0
  -28.2601  -38.0086   24.7576 H   0  0  0  0  0  0
  -28.1067  -36.2632   24.6254 H   0  0  0  0  0  0
  -27.2321  -37.1383   25.8884 H   0  0  0  0  0  0
  -20.9347  -29.8759   21.6916 H   0  0  0  0  0  0
  -26.0197  -38.2891   24.1444 H   0  0  0  0  0  0
  -27.7496  -19.7922   20.9310 H   0  0  0  0  0  0
  -27.8303  -17.3752   20.4999 H   0  0  0  0  0  0
  -32.0440  -19.9099   20.9297 H   0  0  0  0  0  0
  -31.8474  -23.7275   21.5571 H   0  0  0  0  0  0
  -31.4157  -23.8048   23.2447 H   0  0  0  0  0  0
  -30.1797  -25.4852   21.8940 H   0  0  0  0  0  0
  -29.0807  -24.3781   22.6864 H   0  0  0  0  0  0
  -28.7582  -22.1609   19.5380 H   0  0  0  0  0  0
  -27.9715  -22.3584   21.0751 H   0  0  0  0  0  0
  -30.0808  -24.1965   19.8249 H   0  0  0  0  0  0
  -28.8176  -15.4581   18.1855 H   0  0  0  0  0  0
  -30.5687  -15.3544   17.9535 H   0  0  0  0  0  0
  -29.8032  -16.8955   18.1234 H   0  0  0  0  0  0
  -27.2500  -24.8193   20.7443 H   0  0  0  0  0  0
  -27.8335  -24.7846   19.1009 H   0  0  0  0  0  0
  -32.4983  -16.3811   20.4001 H   0  0  0  0  0  0
  -33.2589  -17.8538   20.8139 H   0  0  0  0  0  0
  1 25  1  0  0  0
  1 30  2  0  0  0
  1 86  1  0  0  0
  2  3  1  0  0  0
  2 25  1  0  0  0
  2 88  1  0  0  0
  2 89  1  0  0  0
  3  4  1  0  0  0
  3 90  1  0  0  0
  3 91  1  0  0  0
  4  5  1  0  0  0
  4 92  1  0  0  0
  4 93  1  0  0  0
  5  6  1  0  0  0
  5 26  1  0  0  0
  5 94  1  0  0  0
  6 25  1  0  0  0
  6 95  1  0  0  0
  6 96  1  0  0  0
  7  8  2  0  0  0
  7 26  1  0  0  0
  7 29  1  0  0  0
  8  9  1  0  0  0
  8 22  1  0  0  0
  9 10  1  0  0  0
  9 27  2  0  0  0
 10 11  2  0  0  0
 10 15  1  0  0  0
 11 12  1  0  0  0
 11 97  1  0  0  0
 12 13  2  0  0  0
 12 98  1  0  0  0
 13 14  1  0  0  0
 13 31  1  0  0  0
 14 15  2  0  0  0
 14 99  1  0  0  0
 15100  1  0  0  0
 16 17  2  0  0  0
 16 21  1  0  0  0
 16 31  1  0  0  0
 17 18  1  0  0  0
 17101  1  0  0  0
 18 19  2  0  0  0
 18102  1  0  0  0
 19 20  1  0  0  0
 19 24  1  0  0  0
 20 21  2  0  0  0
 20103  1  0  0  0
 21 23  1  0  0  0
 22 28  1  0  0  0
 22 32  2  0  0  0
 26 27  1  0  0  0
 28104  1  0  0  0
 28105  1  0  0  0
 29106  1  0  0  0
 29107  1  0  0  0
 33 34  1  0  0  0
 33 66  1  0  0  0
 33 70  2  0  0  0
 34 36  1  0  0  0
 34 59  1  0  0  0
 34108  1  0  0  0
 35 44  2  0  0  0
 35 45  1  0  0  0
 35 68  1  0  0  0
 36 56  1  0  0  0
 36109  1  0  0  0
 37 39  1  0  0  0
 37 47  1  0  0  0
 37 66  1  0  0  0
 37110  1  0  0  0
 38 43  2  0  0  0
 38 46  1  0  0  0
 38 47  1  0  0  0
 39 64  1  0  0  0
 39 67  2  0  0  0
 40 52  1  0  0  0
 40 53  2  0  0  0
 40 58  1  0  0  0
 41111  1  0  0  0
 41112  1  0  0  0
 41113  1  0  0  0
 41 48  1  0  0  0
 42 43  1  0  0  0
 42 66  1  0  0  0
 42114  1  0  0  0
 42115  1  0  0  0
 43 44  1  0  0  0
 44116  1  0  0  0
 45 46  2  0  0  0
 45117  1  0  0  0
 46118  1  0  0  0
 47119  1  0  0  0
 47120  1  0  0  0
 48 56  1  0  0  0
 48 65  1  0  0  0
 48121  1  0  0  0
 49 50  1  0  0  0
 49 53  1  0  0  0
 49 64  1  0  0  0
 49122  1  0  0  0
 50 51  1  0  0  0
 50123  1  0  0  0
 50124  1  0  0  0
 51 52  1  0  0  0
 51125  1  0  0  0
 51126  1  0  0  0
 52127  1  0  0  0
 52128  1  0  0  0
 53 54  1  0  0  0
 54 55  2  0  0  0
 54129  1  0  0  0
 55 57  1  0  0  0
 55130  1  0  0  0
 56 69  2  0  0  0
 57 58  2  0  0  0
 57131  1  0  0  0
 58132  1  0  0  0
 59 60  1  0  0  0
 59 61  1  0  0  0
 59 62  1  0  0  0
 60133  1  0  0  0
 60134  1  0  0  0
 60135  1  0  0  0
 61136  1  0  0  0
 61137  1  0  0  0
 61138  1  0  0  0
 62139  1  0  0  0
 62140  1  0  0  0
 62141  1  0  0  0
 63 65  1  0  0  0
 63142  1  0  0  0
 63143  1  0  0  0
 63144  1  0  0  0
 64145  1  0  0  0
 65146  1  0  0  0
 68 83  1  0  0  0
 71 72  2  0  0  0
 71 74  1  0  0  0
 71147  1  0  0  0
 72 75  1  0  0  0
 72148  1  0  0  0
 73 74  2  0  0  0
 73 76  1  0  0  0
 73149  1  0  0  0
 74 84  1  0  0  0
 75 76  2  0  0  0
 75 86  1  0  0  0
 76 85  1  0  0  0
 77 78  1  0  0  0
 77 84  1  0  0  0
 77 87  2  0  0  0
 78 79  1  0  0  0
 78150  1  0  0  0
 78151  1  0  0  0
 79 81  1  0  0  0
 79152  1  0  0  0
 79153  1  0  0  0
 80 81  1  0  0  0
 80 84  1  0  0  0
 80154  1  0  0  0
 80155  1  0  0  0
 81 83  1  0  0  0
 81156  1  0  0  0
 82 86  1  0  0  0
 82157  1  0  0  0
 82158  1  0  0  0
 82159  1  0  0  0
 83160  1  0  0  0
 83161  1  0  0  0
 85162  1  0  0  0
 85163  1  0  0  0
M  ISO  4   1 100  68 101  83 101  86 100
M  END
> <chiral flag>
0

> <version>
0

> <s_m_source_file>
/data/baiqing/PycharmProjects/Reinvent-master-3.2/result/LINK_invent/BTK/process_docking_weight1_custom_product_contain_oxygen_bond_distance_aromatic_linkinvent_7_9_3/rearranged_h_0094.sdf

> <i_m_source_file_index>
92

> <r_mmod_Potential_Energy-OPLS-2005>
337.807098388672

> <r_mmod_Stretch_Energy-OPLS-2005>
90.7452239990234

> <r_mmod_Bend_Energy-OPLS-2005>
151.481536865234

> <r_mmod_Torsional_Energy-OPLS-2005>
394.317535400391

> <r_mmod_Improper_Torsional_Energy-OPLS-2005>
28.6119594573975

> <r_mmod_Van_der_Waal_Energy-OPLS-2005>
167.928314208984

> <r_mmod_Electrostatic_Energy-OPLS-2005>
-352.623840332031

> <r_mmod_Solvation_Energy-OPLS-2005>
-209.025329589844

> <b_mmod_Minimization_Converged-OPLS-2005>
0

> <r_mmod_RMS_Derivative-OPLS-2005>
3.50634622573853

$$$$
92
                    3D
 Structure written by MMmdl.
156165  0  0  1  0            999 V2000
  -30.6174  -14.6438   20.5608 C   0  0  0  0  0  0
  -30.4475  -12.4080   19.4469 C   0  0  0  0  0  0
  -29.5122  -12.5327   18.2234 C   0  0  0  0  0  0
  -28.0341  -12.3608   18.6321 C   0  0  0  0  0  0
  -27.6585  -13.2156   19.8719 C   0  0  2  0  0  0
  -28.7027  -13.0409   20.9951 C   0  0  0  0  0  0
  -25.2588  -13.8164   20.5702 C   0  0  0  0  0  0
  -24.1832  -13.0429   20.9146 C   0  0  0  0  0  0
  -24.6396  -11.6900   20.8702 C   0  0  0  0  0  0
  -23.9063  -10.4287   21.0389 C   0  0  0  0  0  0
  -24.3618   -9.4211   21.9174 C   0  0  0  0  0  0
  -23.6287   -8.2253   22.0753 C   0  0  0  0  0  0
  -22.4271   -8.0289   21.3545 C   0  0  0  0  0  0
  -21.9902   -9.0257   20.4642 C   0  0  0  0  0  0
  -22.7235  -10.2129   20.3042 C   0  0  0  0  0  0
  -21.6850   -6.0736   22.5280 C   0  0  0  0  0  0
  -21.4015   -6.5639   23.8213 C   0  0  0  0  0  0
  -21.3661   -5.6794   24.9178 C   0  0  0  0  0  0
  -21.6042   -4.3056   24.7227 C   0  0  0  0  0  0
  -21.8821   -3.8151   23.4350 C   0  0  0  0  0  0
  -21.9193   -4.6963   22.3403 C   0  0  0  0  0  0
  -22.7858  -13.5228   21.1837 C   0  0  0  0  0  0
  -22.1658   -4.2154   21.0979 F   0  0  0  0  0  0
  -21.5632   -3.4540   25.7741 F   0  0  0  0  0  0
  -30.0191  -13.4116   20.4430 N   0  0  0  0  0  0
  -26.3020  -12.9338   20.3355 N   0  0  0  0  0  0
  -25.9326  -11.6486   20.5732 N   0  0  0  0  0  0
  -22.0512  -12.8215   22.0396 N   0  0  0  0  0  0
  -25.4335  -15.1887   20.4214 N   0  0  0  0  0  0
  -31.7341  -14.8320   20.0745 O   0  0  0  0  0  0
  -21.6637   -6.8881   21.4242 O   0  0  0  0  0  0
  -22.3531  -14.5540   20.6707 O   0  0  0  0  0  0
  -24.6293  -31.8600   23.2025 C   0  0  0  0  0  0
  -25.9129  -32.4785   23.8359 C   0  0  1  0  0  0
  -27.2221  -27.3039   20.1107 C   0  0  0  0  0  0
  -25.5938  -33.8585   24.2285 N   0  0  0  0  0  0
  -23.4229  -30.4855   21.5469 C   0  0  2  0  0  0
  -24.8689  -28.9440   20.1105 C   0  0  0  0  0  0
  -22.7488  -29.4629   22.4933 C   0  0  0  0  0  0
  -18.0290  -28.1386   22.8494 C   0  0  0  0  0  0
  -24.1489  -36.7288   23.2632 C   0  0  0  0  0  0
  -25.9677  -30.7858   21.3772 C   0  0  0  0  0  0
  -26.0413  -29.4129   20.7169 C   0  0  0  0  0  0
  -27.2207  -28.6051   20.7084 C   0  0  0  0  0  0
  -26.0227  -26.9018   19.4728 C   0  0  0  0  0  0
  -24.8629  -27.6942   19.4795 C   0  0  0  0  0  0
  -23.6388  -29.8256   20.1609 C   0  0  0  0  0  0
  -25.4111  -36.3086   24.0329 C   0  0  1  0  0  0
  -20.5895  -28.3699   23.1281 C   0  0  2  0  0  0
  -20.6783  -26.9421   22.5408 C   0  0  0  0  0  0
  -19.5750  -26.6386   21.5218 C   0  0  0  0  0  0
  -18.1929  -26.7931   22.1628 C   0  0  0  0  0  0
  -19.1543  -28.8858   23.2887 C   0  0  0  0  0  0
  -18.9461  -30.1456   23.8910 C   0  0  0  0  0  0
  -17.6460  -30.6593   24.0556 C   0  0  0  0  0  0
  -25.9056  -34.9458   23.5109 C   0  0  0  0  0  0
  -16.5352  -29.9088   23.6327 C   0  0  0  0  0  0
  -16.7272  -28.6496   23.0365 C   0  0  0  0  0  0
  -26.4497  -31.6591   25.0732 C   0  0  0  0  0  0
  -25.3725  -31.3733   26.1458 C   0  0  0  0  0  0
  -27.0326  -30.3012   24.6183 C   0  0  0  0  0  0
  -27.6059  -32.4323   25.7507 C   0  0  0  0  0  0
  -27.5594  -37.1783   24.8449 C   0  0  0  0  0  0
  -21.4199  -29.3056   22.3678 N   0  0  0  0  0  0
  -26.4279  -37.3793   23.9432 N   0  0  0  0  0  0
  -24.6923  -31.0599   22.0987 N   0  0  0  0  0  0
  -23.4203  -28.8163   23.3017 O   0  0  0  0  0  0
  -28.3234  -26.4223   20.1685 O   0  0  0  0  0  0
  -26.5623  -34.8922   22.4676 O   0  0  0  0  0  0
  -23.5449  -32.1403   23.7342 O   0  0  0  0  0  0
  -30.3494  -24.1574   20.6679 C   0  0  0  0  0  0
  -30.9475  -21.8277   20.8557 C   0  0  0  0  0  0
  -30.5829  -17.8270   19.9812 C   0  0  0  0  0  0
  -29.0823  -23.8614   20.3126 C   0  0  0  0  0  0
  -31.3178  -23.1175   20.9592 C   0  0  0  0  0  0
  -29.7918  -16.9240   20.9451 C   0  0  0  0  0  0
  -28.6865  -22.4057   20.2203 C   0  0  0  0  0  0
  -29.0875  -19.3185   21.8184 C   0  0  0  0  0  0
  -28.8026  -17.7839   21.7638 C   0  0  1  0  0  0
  -29.3778  -19.9229   20.4244 C   0  0  2  0  0  0
  -28.0271  -24.9745   19.9730 C   0  0  0  0  0  0
  -30.4612  -19.1138   19.7908 N   0  0  0  0  0  0
  -29.8093  -15.6304   21.1758 N   0  0  0  0  0  0
  -29.6512  -21.4288   20.4737 N   0  0  0  0  0  0
  -27.5309  -22.0789   19.9291 O   0  0  0  0  0  0
  -32.5654  -23.4269   21.3265 O   0  0  0  0  0  0
  -27.5558  -17.5922   21.3214 F   0  0  0  0  0  0
  -31.4868  -12.5428   19.1420 H   0  0  0  0  0  0
  -30.3907  -11.4035   19.8711 H   0  0  0  0  0  0
  -29.7789  -11.7956   17.4651 H   0  0  0  0  0  0
  -29.6514  -13.5106   17.7598 H   0  0  0  0  0  0
  -27.8694  -11.3044   18.8491 H   0  0  0  0  0  0
  -27.3801  -12.6036   17.7938 H   0  0  0  0  0  0
  -27.6867  -14.2588   19.5561 H   0  0  0  0  0  0
  -28.7172  -12.0059   21.3403 H   0  0  0  0  0  0
  -28.4328  -13.6335   21.8708 H   0  0  0  0  0  0
  -25.2764   -9.5690   22.4742 H   0  0  0  0  0  0
  -23.9999   -7.4645   22.7470 H   0  0  0  0  0  0
  -21.0834   -8.8766   19.8945 H   0  0  0  0  0  0
  -22.3693  -10.9662   19.6145 H   0  0  0  0  0  0
  -21.2003   -7.6146   23.9724 H   0  0  0  0  0  0
  -21.1478   -6.0520   25.9080 H   0  0  0  0  0  0
  -22.0598   -2.7613   23.2853 H   0  0  0  0  0  0
  -22.4125  -11.9846   22.4734 H   0  0  0  0  0  0
  -21.1145  -13.1258   22.2645 H   0  0  0  0  0  0
  -24.6882  -15.8556   20.5866 H   0  0  0  0  0  0
  -26.3283  -15.6316   20.2511 H   0  0  0  0  0  0
  -26.7203  -32.5448   23.1112 H   0  0  0  0  0  0
  -25.0085  -33.9728   25.0429 H   0  0  0  0  0  0
  -22.7184  -31.3077   21.4050 H   0  0  0  0  0  0
  -23.3778  -35.9590   23.3234 H   0  0  0  0  0  0
  -24.3605  -36.8971   22.2061 H   0  0  0  0  0  0
  -23.7195  -37.6452   23.6692 H   0  0  0  0  0  0
  -26.1023  -31.5499   20.6100 H   0  0  0  0  0  0
  -26.8473  -30.8346   22.0072 H   0  0  0  0  0  0
  -28.1172  -28.9599   21.1978 H   0  0  0  0  0  0
  -25.9366  -25.9530   18.9664 H   0  0  0  0  0  0
  -23.9664  -27.3305   18.9968 H   0  0  0  0  0  0
  -23.7611  -30.6049   19.4075 H   0  0  0  0  0  0
  -22.7577  -29.2587   19.8550 H   0  0  0  0  0  0
  -25.1284  -36.1931   25.0818 H   0  0  0  0  0  0
  -20.9984  -28.3269   24.1401 H   0  0  0  0  0  0
  -20.5699  -26.2305   23.3609 H   0  0  0  0  0  0
  -21.6649  -26.7461   22.1190 H   0  0  0  0  0  0
  -19.6914  -25.6294   21.1252 H   0  0  0  0  0  0
  -19.6684  -27.3193   20.6744 H   0  0  0  0  0  0
  -17.4205  -26.6690   21.4024 H   0  0  0  0  0  0
  -18.0319  -26.0065   22.9014 H   0  0  0  0  0  0
  -19.7936  -30.7270   24.2288 H   0  0  0  0  0  0
  -17.5011  -31.6280   24.5147 H   0  0  0  0  0  0
  -15.5352  -30.2996   23.7635 H   0  0  0  0  0  0
  -15.8671  -28.0806   22.7099 H   0  0  0  0  0  0
  -24.5891  -30.7097   25.7777 H   0  0  0  0  0  0
  -24.8929  -32.2904   26.4893 H   0  0  0  0  0  0
  -25.8043  -30.8895   27.0227 H   0  0  0  0  0  0
  -26.2891  -29.6783   24.1194 H   0  0  0  0  0  0
  -27.4006  -29.7254   25.4683 H   0  0  0  0  0  0
  -27.8775  -30.4297   23.9414 H   0  0  0  0  0  0
  -27.2668  -33.3620   26.2091 H   0  0  0  0  0  0
  -28.3863  -32.6891   25.0332 H   0  0  0  0  0  0
  -28.0728  -31.8443   26.5418 H   0  0  0  0  0  0
  -28.2546  -38.0149   24.7612 H   0  0  0  0  0  0
  -28.1163  -36.2690   24.6126 H   0  0  0  0  0  0
  -27.2338  -37.1247   25.8853 H   0  0  0  0  0  0
  -20.9376  -29.8792   21.6899 H   0  0  0  0  0  0
  -26.0156  -38.2853   24.1500 H   0  0  0  0  0  0
  -30.6425  -25.1968   20.7240 H   0  0  0  0  0  0
  -31.6213  -21.0091   21.0668 H   0  0  0  0  0  0
  -31.3543  -17.2860   19.4282 H   0  0  0  0  0  0
  -29.9412  -19.4987   22.4738 H   0  0  0  0  0  0
  -28.2443  -19.8313   22.2821 H   0  0  0  0  0  0
  -28.7979  -17.4050   22.7861 H   0  0  0  0  0  0
  -28.4796  -19.7795   19.8193 H   0  0  0  0  0  0
  -27.1411  -24.7275   20.5610 H   0  0  0  0  0  0
  -27.7715  -24.8185   18.9245 H   0  0  0  0  0  0
  -32.6412  -24.3735   21.3403 H   0  0  0  0  0  0
  1 25  1  0  0  0
  1 30  2  0  0  0
  1 83  1  0  0  0
  2  3  1  0  0  0
  2 25  1  0  0  0
  2 88  1  0  0  0
  2 89  1  0  0  0
  3  4  1  0  0  0
  3 90  1  0  0  0
  3 91  1  0  0  0
  4  5  1  0  0  0
  4 92  1  0  0  0
  4 93  1  0  0  0
  5  6  1  0  0  0
  5 26  1  0  0  0
  5 94  1  0  0  0
  6 25  1  0  0  0
  6 95  1  0  0  0
  6 96  1  0  0  0
  7  8  2  0  0  0
  7 26  1  0  0  0
  7 29  1  0  0  0
  8  9  1  0  0  0
  8 22  1  0  0  0
  9 10  1  0  0  0
  9 27  2  0  0  0
 10 11  2  0  0  0
 10 15  1  0  0  0
 11 12  1  0  0  0
 11 97  1  0  0  0
 12 13  2  0  0  0
 12 98  1  0  0  0
 13 14  1  0  0  0
 13 31  1  0  0  0
 14 15  2  0  0  0
 14 99  1  0  0  0
 15100  1  0  0  0
 16 17  2  0  0  0
 16 21  1  0  0  0
 16 31  1  0  0  0
 17 18  1  0  0  0
 17101  1  0  0  0
 18 19  2  0  0  0
 18102  1  0  0  0
 19 20  1  0  0  0
 19 24  1  0  0  0
 20 21  2  0  0  0
 20103  1  0  0  0
 21 23  1  0  0  0
 22 28  1  0  0  0
 22 32  2  0  0  0
 26 27  1  0  0  0
 28104  1  0  0  0
 28105  1  0  0  0
 29106  1  0  0  0
 29107  1  0  0  0
 33 34  1  0  0  0
 33 66  1  0  0  0
 33 70  2  0  0  0
 34 36  1  0  0  0
 34 59  1  0  0  0
 34108  1  0  0  0
 35 44  2  0  0  0
 35 45  1  0  0  0
 35 68  1  0  0  0
 36 56  1  0  0  0
 36109  1  0  0  0
 37 39  1  0  0  0
 37 47  1  0  0  0
 37 66  1  0  0  0
 37110  1  0  0  0
 38 43  2  0  0  0
 38 46  1  0  0  0
 38 47  1  0  0  0
 39 64  1  0  0  0
 39 67  2  0  0  0
 40 52  1  0  0  0
 40 53  2  0  0  0
 40 58  1  0  0  0
 41111  1  0  0  0
 41112  1  0  0  0
 41113  1  0  0  0
 41 48  1  0  0  0
 42 43  1  0  0  0
 42 66  1  0  0  0
 42114  1  0  0  0
 42115  1  0  0  0
 43 44  1  0  0  0
 44116  1  0  0  0
 45 46  2  0  0  0
 45117  1  0  0  0
 46118  1  0  0  0
 47119  1  0  0  0
 47120  1  0  0  0
 48 56  1  0  0  0
 48 65  1  0  0  0
 48121  1  0  0  0
 49 50  1  0  0  0
 49 53  1  0  0  0
 49 64  1  0  0  0
 49122  1  0  0  0
 50 51  1  0  0  0
 50123  1  0  0  0
 50124  1  0  0  0
 51 52  1  0  0  0
 51125  1  0  0  0
 51126  1  0  0  0
 52127  1  0  0  0
 52128  1  0  0  0
 53 54  1  0  0  0
 54 55  2  0  0  0
 54129  1  0  0  0
 55 57  1  0  0  0
 55130  1  0  0  0
 56 69  2  0  0  0
 57 58  2  0  0  0
 57131  1  0  0  0
 58132  1  0  0  0
 59 60  1  0  0  0
 59 61  1  0  0  0
 59 62  1  0  0  0
 60133  1  0  0  0
 60134  1  0  0  0
 60135  1  0  0  0
 61136  1  0  0  0
 61137  1  0  0  0
 61138  1  0  0  0
 62139  1  0  0  0
 62140  1  0  0  0
 62141  1  0  0  0
 63 65  1  0  0  0
 63142  1  0  0  0
 63143  1  0  0  0
 63144  1  0  0  0
 64145  1  0  0  0
 65146  1  0  0  0
 68 81  1  0  0  0
 71 74  2  0  0  0
 71 75  1  0  0  0
 71147  1  0  0  0
 72 75  2  0  0  0
 72 84  1  0  0  0
 72148  1  0  0  0
 73 76  1  0  0  0
 73 82  2  0  0  0
 73149  1  0  0  0
 74 77  1  0  0  0
 74 81  1  0  0  0
 75 86  1  0  0  0
 76 79  1  0  0  0
 76 83  2  0  0  0
 77 84  1  0  0  0
 77 85  2  0  0  0
 78 79  1  0  0  0
 78 80  1  0  0  0
 78150  1  0  0  0
 78151  1  0  0  0
 79 87  1  0  0  0
 79152  1  0  0  0
 80 82  1  0  0  0
 80 84  1  0  0  0
 80153  1  0  0  0
 81154  1  0  0  0
 81155  1  0  0  0
 86156  1  0  0  0
M  ISO  4   1 100  68 101  81 101  83 100
M  END
> <chiral flag>
0

> <version>
0

> <s_m_source_file>
/data/baiqing/PycharmProjects/Reinvent-master-3.2/result/LINK_invent/BTK/process_docking_weight1_custom_product_contain_oxygen_bond_distance_aromatic_linkinvent_7_9_3/rearranged_h_0094.sdf

> <i_m_source_file_index>
93

> <r_mmod_Potential_Energy-OPLS-2005>
111.567337036133

> <r_mmod_Stretch_Energy-OPLS-2005>
106.650238037109

> <r_mmod_Bend_Energy-OPLS-2005>
173.104354858398

> <r_mmod_Torsional_Energy-OPLS-2005>
157.445419311523

> <r_mmod_Improper_Torsional_Energy-OPLS-2005>
2.58225440979004

> <r_mmod_Van_der_Waal_Energy-OPLS-2005>
175.952178955078

> <r_mmod_Electrostatic_Energy-OPLS-2005>
-346.420135498047

> <r_mmod_Solvation_Energy-OPLS-2005>
-210.294769287109

> <b_mmod_Minimization_Converged-OPLS-2005>
0

> <r_mmod_RMS_Derivative-OPLS-2005>
1.10410833358765

$$$$
93
                    3D
 Structure written by MMmdl.
147155  0  0  1  0            999 V2000
  -30.4117  -15.2457   20.3773 C   0  0  0  0  0  0
  -30.4491  -12.7917   19.5251 C   0  0  0  0  0  0
  -29.5400  -12.5783   18.2869 C   0  0  0  0  0  0
  -28.0855  -12.3044   18.7106 C   0  0  0  0  0  0
  -27.6175  -13.2693   19.8281 C   0  0  2  0  0  0
  -28.6526  -13.4127   20.9646 C   0  0  0  0  0  0
  -25.2413  -13.8236   20.5730 C   0  0  0  0  0  0
  -24.1760  -13.0435   20.9257 C   0  0  0  0  0  0
  -24.6405  -11.6929   20.8761 C   0  0  0  0  0  0
  -23.9094  -10.4292   21.0407 C   0  0  0  0  0  0
  -24.3637   -9.4205   21.9185 C   0  0  0  0  0  0
  -23.6303   -8.2244   22.0755 C   0  0  0  0  0  0
  -22.4285   -8.0284   21.3545 C   0  0  0  0  0  0
  -21.9927   -9.0260   20.4646 C   0  0  0  0  0  0
  -22.7264  -10.2135   20.3056 C   0  0  0  0  0  0
  -21.6856   -6.0739   22.5279 C   0  0  0  0  0  0
  -21.4017   -6.5641   23.8212 C   0  0  0  0  0  0
  -21.3660   -5.6793   24.9174 C   0  0  0  0  0  0
  -21.6043   -4.3056   24.7224 C   0  0  0  0  0  0
  -21.8819   -3.8149   23.4345 C   0  0  0  0  0  0
  -21.9193   -4.6966   22.3402 C   0  0  0  0  0  0
  -22.7776  -13.5193   21.1902 C   0  0  0  0  0  0
  -22.1662   -4.2152   21.0979 F   0  0  0  0  0  0
  -21.5627   -3.4539   25.7737 F   0  0  0  0  0  0
  -29.8899  -13.9222   20.3498 N   0  0  0  0  0  0
  -26.2840  -12.9499   20.3216 N   0  0  0  0  0  0
  -25.9341  -11.6611   20.5719 N   0  0  0  0  0  0
  -22.0430  -12.8176   22.0454 N   0  0  0  0  0  0
  -25.4039  -15.1970   20.4133 N   0  0  0  0  0  0
  -31.6269  -15.2999   20.1351 O   0  0  0  0  0  0
  -21.6644   -6.8884   21.4242 O   0  0  0  0  0  0
  -22.3457  -14.5494   20.6739 O   0  0  0  0  0  0
  -24.6616  -31.8249   23.1724 C   0  0  0  0  0  0
  -25.9304  -32.4595   23.8182 C   0  0  1  0  0  0
  -27.2199  -26.9362   20.1867 C   0  0  0  0  0  0
  -25.5976  -33.8409   24.2084 N   0  0  0  0  0  0
  -23.4765  -30.4366   21.5212 C   0  0  2  0  0  0
  -24.9313  -28.8253   20.1146 C   0  0  0  0  0  0
  -22.7663  -29.4444   22.4789 C   0  0  0  0  0  0
  -18.0322  -28.1408   22.8467 C   0  0  0  0  0  0
  -24.1494  -36.7210   23.2646 C   0  0  0  0  0  0
  -26.0452  -30.6322   21.4047 C   0  0  0  0  0  0
  -26.1133  -29.2216   20.7533 C   0  0  0  0  0  0
  -27.2513  -28.2963   20.7699 C   0  0  0  0  0  0
  -26.0139  -26.6984   19.4881 C   0  0  0  0  0  0
  -24.9058  -27.5828   19.4627 C   0  0  0  0  0  0
  -23.7172  -29.7524   20.1475 C   0  0  0  0  0  0
  -25.4134  -36.2971   24.0300 C   0  0  1  0  0  0
  -20.5946  -28.3752   23.1190 C   0  0  2  0  0  0
  -20.6798  -26.9434   22.5402 C   0  0  0  0  0  0
  -19.5771  -26.6377   21.5214 C   0  0  0  0  0  0
  -18.1954  -26.7941   22.1624 C   0  0  0  0  0  0
  -19.1583  -28.8901   23.2815 C   0  0  0  0  0  0
  -18.9493  -30.1491   23.8850 C   0  0  0  0  0  0
  -17.6486  -30.6598   24.0555 C   0  0  0  0  0  0
  -25.9098  -34.9353   23.5013 C   0  0  0  0  0  0
  -16.5376  -29.9084   23.6343 C   0  0  0  0  0  0
  -16.7304  -28.6505   23.0361 C   0  0  0  0  0  0
  -26.4558  -31.6538   25.0708 C   0  0  0  0  0  0
  -25.3685  -31.3786   26.1364 C   0  0  0  0  0  0
  -27.0458  -30.2905   24.6443 C   0  0  0  0  0  0
  -27.6048  -32.4349   25.7510 C   0  0  0  0  0  0
  -27.5571  -37.1761   24.8465 C   0  0  0  0  0  0
  -21.4334  -29.3042   22.3539 N   0  0  0  0  0  0
  -26.4279  -37.3707   23.9409 N   0  0  0  0  0  0
  -24.7488  -30.9916   22.0862 N   0  0  0  0  0  0
  -23.4213  -28.8013   23.3028 O   0  0  0  0  0  0
  -28.2218  -25.8298   20.2270 O   0  0  0  0  0  0
  -26.5708  -34.8886   22.4608 O   0  0  0  0  0  0
  -23.5687  -32.1219   23.6818 O   0  0  0  0  0  0
  -27.9818  -20.2682   20.5616 C   0  0  0  0  0  0
  -28.2207  -18.8019   20.6062 C   0  0  0  0  0  0
  -30.4441  -19.1274   20.1886 C   0  0  0  0  0  0
  -28.9402  -21.3456   20.3254 C   0  0  0  0  0  0
  -29.4676  -18.0640   20.4253 C   0  0  0  0  0  0
  -30.2042  -20.6104   20.1454 C   0  0  0  0  0  0
  -28.6810  -23.0454   20.2755 C   0  0  0  0  0  0
  -27.9265  -24.3283   20.3130 C   0  0  0  0  0  0
  -31.3216  -21.4075   19.9008 N   0  0  0  0  0  0
  -29.5506  -16.4422   20.5015 N   0  0  0  0  0  0
  -31.4663  -13.0072   19.1952 H   0  0  0  0  0  0
  -30.5204  -11.8775   20.1167 H   0  0  0  0  0  0
  -29.9151  -11.7565   17.6755 H   0  0  0  0  0  0
  -29.5732  -13.4688   17.6573 H   0  0  0  0  0  0
  -28.0350  -11.2763   19.0712 H   0  0  0  0  0  0
  -27.4185  -12.3603   17.8495 H   0  0  0  0  0  0
  -27.5418  -14.2436   19.3440 H   0  0  0  0  0  0
  -28.8139  -12.4643   21.4794 H   0  0  0  0  0  0
  -28.2958  -14.1162   21.7184 H   0  0  0  0  0  0
  -25.2779   -9.5679   22.4766 H   0  0  0  0  0  0
  -24.0008   -7.4635   22.7476 H   0  0  0  0  0  0
  -21.0858   -8.8785   19.8951 H   0  0  0  0  0  0
  -22.3724  -10.9677   19.6167 H   0  0  0  0  0  0
  -21.2011   -7.6150   23.9717 H   0  0  0  0  0  0
  -21.1481   -6.0523   25.9077 H   0  0  0  0  0  0
  -22.0597   -2.7611   23.2845 H   0  0  0  0  0  0
  -22.4061  -11.9846   22.4847 H   0  0  0  0  0  0
  -21.1041  -13.1184   22.2653 H   0  0  0  0  0  0
  -24.6240  -15.8383   20.5105 H   0  0  0  0  0  0
  -26.2231  -15.6317   20.0110 H   0  0  0  0  0  0
  -26.7373  -32.5138   23.0898 H   0  0  0  0  0  0
  -25.0070  -33.9491   25.0199 H   0  0  0  0  0  0
  -22.7893  -31.2679   21.3506 H   0  0  0  0  0  0
  -23.3770  -35.9526   23.3270 H   0  0  0  0  0  0
  -24.3573  -36.8895   22.2068 H   0  0  0  0  0  0
  -23.7235  -37.6381   23.6726 H   0  0  0  0  0  0
  -26.2246  -31.3717   20.6232 H   0  0  0  0  0  0
  -26.9058  -30.6909   22.0590 H   0  0  0  0  0  0
  -28.1465  -28.5970   21.2957 H   0  0  0  0  0  0
  -25.8979  -25.7547   18.9749 H   0  0  0  0  0  0
  -24.0110  -27.2760   18.9386 H   0  0  0  0  0  0
  -23.8730  -30.5208   19.3895 H   0  0  0  0  0  0
  -22.8274  -29.2063   19.8294 H   0  0  0  0  0  0
  -25.1331  -36.1768   25.0790 H   0  0  0  0  0  0
  -21.0033  -28.3357   24.1313 H   0  0  0  0  0  0
  -20.5680  -26.2370   23.3641 H   0  0  0  0  0  0
  -21.6661  -26.7411   22.1207 H   0  0  0  0  0  0
  -19.6929  -25.6276   21.1274 H   0  0  0  0  0  0
  -19.6708  -27.3161   20.6723 H   0  0  0  0  0  0
  -17.4222  -26.6682   21.4029 H   0  0  0  0  0  0
  -18.0351  -26.0095   22.9033 H   0  0  0  0  0  0
  -19.7968  -30.7322   24.2197 H   0  0  0  0  0  0
  -17.5036  -31.6273   24.5166 H   0  0  0  0  0  0
  -15.5374  -30.2970   23.7695 H   0  0  0  0  0  0
  -15.8705  -28.0807   22.7103 H   0  0  0  0  0  0
  -24.5881  -30.7122   25.7673 H   0  0  0  0  0  0
  -24.8859  -32.2987   26.4670 H   0  0  0  0  0  0
  -25.7917  -30.9032   27.0221 H   0  0  0  0  0  0
  -26.3128  -29.6577   24.1427 H   0  0  0  0  0  0
  -27.3965  -29.7273   25.5102 H   0  0  0  0  0  0
  -27.9079  -30.4086   23.9876 H   0  0  0  0  0  0
  -27.2614  -33.3692   26.1964 H   0  0  0  0  0  0
  -28.3924  -32.6843   25.0387 H   0  0  0  0  0  0
  -28.0645  -31.8560   26.5531 H   0  0  0  0  0  0
  -28.2564  -38.0081   24.7522 H   0  0  0  0  0  0
  -28.1093  -36.2607   24.6279 H   0  0  0  0  0  0
  -27.2288  -37.1387   25.8866 H   0  0  0  0  0  0
  -20.9588  -29.8731   21.6667 H   0  0  0  0  0  0
  -26.0127  -38.2764   24.1423 H   0  0  0  0  0  0
  -26.9576  -20.5694   20.7286 H   0  0  0  0  0  0
  -27.3424  -18.2020   20.7996 H   0  0  0  0  0  0
  -31.4581  -18.7909   20.0249 H   0  0  0  0  0  0
  -27.6823  -22.6618   20.3881 H   0  0  0  0  0  0
  -26.8488  -24.2798   20.4498 H   0  0  0  0  0  0
  -32.2438  -21.0306   20.0963 H   0  0  0  0  0  0
  -31.2448  -22.3982   20.1118 H   0  0  0  0  0  0
  -28.6282  -16.0777   20.6849 H   0  0  0  0  0  0
  1 25  1  0  0  0
  1 30  2  0  0  0
  1 80  1  0  0  0
  2  3  1  0  0  0
  2 25  1  0  0  0
  2 81  1  0  0  0
  2 82  1  0  0  0
  3  4  1  0  0  0
  3 83  1  0  0  0
  3 84  1  0  0  0
  4  5  1  0  0  0
  4 85  1  0  0  0
  4 86  1  0  0  0
  5  6  1  0  0  0
  5 26  1  0  0  0
  5 87  1  0  0  0
  6 25  1  0  0  0
  6 88  1  0  0  0
  6 89  1  0  0  0
  7  8  2  0  0  0
  7 26  1  0  0  0
  7 29  1  0  0  0
  8  9  1  0  0  0
  8 22  1  0  0  0
  9 10  1  0  0  0
  9 27  2  0  0  0
 10 11  2  0  0  0
 10 15  1  0  0  0
 11 12  1  0  0  0
 11 90  1  0  0  0
 12 13  2  0  0  0
 12 91  1  0  0  0
 13 14  1  0  0  0
 13 31  1  0  0  0
 14 15  2  0  0  0
 14 92  1  0  0  0
 15 93  1  0  0  0
 16 17  2  0  0  0
 16 21  1  0  0  0
 16 31  1  0  0  0
 17 18  1  0  0  0
 17 94  1  0  0  0
 18 19  2  0  0  0
 18 95  1  0  0  0
 19 20  1  0  0  0
 19 24  1  0  0  0
 20 21  2  0  0  0
 20 96  1  0  0  0
 21 23  1  0  0  0
 22 28  1  0  0  0
 22 32  2  0  0  0
 26 27  1  0  0  0
 28 97  1  0  0  0
 28 98  1  0  0  0
 29 99  1  0  0  0
 29100  1  0  0  0
 33 34  1  0  0  0
 33 66  1  0  0  0
 33 70  2  0  0  0
 34 36  1  0  0  0
 34 59  1  0  0  0
 34101  1  0  0  0
 35 44  2  0  0  0
 35 45  1  0  0  0
 35 68  1  0  0  0
 36 56  1  0  0  0
 36102  1  0  0  0
 37 39  1  0  0  0
 37 47  1  0  0  0
 37 66  1  0  0  0
 37103  1  0  0  0
 38 43  2  0  0  0
 38 46  1  0  0  0
 38 47  1  0  0  0
 39 64  1  0  0  0
 39 67  2  0  0  0
 40 52  1  0  0  0
 40 53  2  0  0  0
 40 58  1  0  0  0
 41104  1  0  0  0
 41105  1  0  0  0
 41106  1  0  0  0
 41 48  1  0  0  0
 42 43  1  0  0  0
 42 66  1  0  0  0
 42107  1  0  0  0
 42108  1  0  0  0
 43 44  1  0  0  0
 44109  1  0  0  0
 45 46  2  0  0  0
 45110  1  0  0  0
 46111  1  0  0  0
 47112  1  0  0  0
 47113  1  0  0  0
 48 56  1  0  0  0
 48 65  1  0  0  0
 48114  1  0  0  0
 49 50  1  0  0  0
 49 53  1  0  0  0
 49 64  1  0  0  0
 49115  1  0  0  0
 50 51  1  0  0  0
 50116  1  0  0  0
 50117  1  0  0  0
 51 52  1  0  0  0
 51118  1  0  0  0
 51119  1  0  0  0
 52120  1  0  0  0
 52121  1  0  0  0
 53 54  1  0  0  0
 54 55  2  0  0  0
 54122  1  0  0  0
 55 57  1  0  0  0
 55123  1  0  0  0
 56 69  2  0  0  0
 57 58  2  0  0  0
 57124  1  0  0  0
 58125  1  0  0  0
 59 60  1  0  0  0
 59 61  1  0  0  0
 59 62  1  0  0  0
 60126  1  0  0  0
 60127  1  0  0  0
 60128  1  0  0  0
 61129  1  0  0  0
 61130  1  0  0  0
 61131  1  0  0  0
 62132  1  0  0  0
 62133  1  0  0  0
 62134  1  0  0  0
 63 65  1  0  0  0
 63135  1  0  0  0
 63136  1  0  0  0
 63137  1  0  0  0
 64138  1  0  0  0
 65139  1  0  0  0
 68 78  1  0  0  0
 71 72  2  0  0  0
 71 74  1  0  0  0
 71140  1  0  0  0
 72 75  1  0  0  0
 72141  1  0  0  0
 73 75  2  0  0  0
 73 76  1  0  0  0
 73142  1  0  0  0
 74 76  2  0  0  0
 74 77  1  0  0  0
 75 80  1  0  0  0
 76 79  1  0  0  0
 77 78  2  0  0  0
 77143  1  0  0  0
 78144  1  0  0  0
 79145  1  0  0  0
 79146  1  0  0  0
 80147  1  0  0  0
M  ISO  4   1 100  68 101  78 101  80 100
M  END
> <chiral flag>
0

> <version>
0

> <s_m_source_file>
/data/baiqing/PycharmProjects/Reinvent-master-3.2/result/LINK_invent/BTK/process_docking_weight1_custom_product_contain_oxygen_bond_distance_aromatic_linkinvent_7_9_3/rearranged_h_0094.sdf

> <i_m_source_file_index>
94

> <r_mmod_Potential_Energy-OPLS-2005>
1323.73449707031

> <r_mmod_Stretch_Energy-OPLS-2005>
490.884948730469

> <r_mmod_Bend_Energy-OPLS-2005>
610.426391601562

> <r_mmod_Torsional_Energy-OPLS-2005>
213.046569824219

> <r_mmod_Improper_Torsional_Energy-OPLS-2005>
6.95474052429199

> <r_mmod_Van_der_Waal_Energy-OPLS-2005>
139.128952026367

> <r_mmod_Electrostatic_Energy-OPLS-2005>
-356.296569824219

> <r_mmod_Solvation_Energy-OPLS-2005>
-223.466461181641

> <b_mmod_Minimization_Converged-OPLS-2005>
0

> <r_mmod_RMS_Derivative-OPLS-2005>
0.0894782170653343

$$$$
94
                    3D
 Structure written by MMmdl.
158166  0  0  1  0            999 V2000
  -29.0620  -17.9100   20.3781 C   0  0  0  0  0  0
  -29.9312  -14.8527   19.5632 C   0  0  0  0  0  0
  -29.5047  -13.5866   18.5791 C   0  0  0  0  0  0
  -28.3651  -12.7095   19.0915 C   0  0  0  0  0  0
  -27.5178  -13.6897   19.8945 C   0  0  2  0  0  0
  -28.2510  -14.7978   20.8606 C   0  0  0  0  0  0
  -25.1561  -13.8944   20.6102 C   0  0  0  0  0  0
  -24.1420  -13.0541   20.9403 C   0  0  0  0  0  0
  -24.6707  -11.7260   20.8718 C   0  0  0  0  0  0
  -23.9504  -10.4389   21.0236 C   0  0  0  0  0  0
  -24.3891   -9.4286   21.9095 C   0  0  0  0  0  0
  -23.6459   -8.2360   22.0734 C   0  0  0  0  0  0
  -22.4430   -8.0385   21.3537 C   0  0  0  0  0  0
  -22.0155   -9.0370   20.4608 C   0  0  0  0  0  0
  -22.7598  -10.2194   20.2956 C   0  0  0  0  0  0
  -21.6918   -6.0796   22.5272 C   0  0  0  0  0  0
  -21.4066   -6.5675   23.8213 C   0  0  0  0  0  0
  -21.3683   -5.6813   24.9166 C   0  0  0  0  0  0
  -21.6043   -4.3074   24.7207 C   0  0  0  0  0  0
  -21.8811   -3.8177   23.4325 C   0  0  0  0  0  0
  -21.9209   -4.7007   22.3387 C   0  0  0  0  0  0
  -22.7333  -13.4906   21.1965 C   0  0  0  0  0  0
  -22.1661   -4.2189   21.0963 F   0  0  0  0  0  0
  -21.5622   -3.4551   25.7712 F   0  0  0  0  0  0
  -28.9197  -16.1191   20.1722 N   0  0  0  0  0  0
  -26.2635  -13.1167   20.3979 N   0  0  0  0  0  0
  -25.9834  -11.7791   20.5719 N   0  0  0  0  0  0
  -22.0166  -12.7792   22.0561 N   0  0  0  0  0  0
  -25.2265  -15.2727   20.4315 N   0  0  0  0  0  0
  -30.3337  -17.5343   20.3717 O   0  0  0  0  0  0
  -21.6742   -6.8993   21.4254 O   0  0  0  0  0  0
  -22.2853  -14.5150   20.6812 O   0  0  0  0  0  0
  -24.7515  -31.5125   23.0408 C   0  0  0  0  0  0
  -25.9491  -32.3112   23.7107 C   0  0  1  0  0  0
  -28.1462  -26.5659   19.5884 C   0  0  0  0  0  0
  -25.5549  -33.7161   24.0731 N   0  0  0  0  0  0
  -23.6623  -29.7101   21.6269 C   0  0  2  0  0  0
  -25.0117  -26.9190   20.6748 C   0  0  0  0  0  0
  -22.7468  -29.2386   22.7016 C   0  0  0  0  0  0
  -18.0002  -28.1405   22.8399 C   0  0  0  0  0  0
  -24.1470  -36.6668   23.2728 C   0  0  0  0  0  0
  -26.0934  -29.5976   21.6384 C   0  0  0  0  0  0
  -26.1969  -27.8811   21.3622 C   0  0  0  0  0  0
  -27.6616  -27.4724   20.8791 C   0  0  0  0  0  0
  -27.3171  -25.8987   18.4014 C   0  0  0  0  0  0
  -25.7506  -25.6569   18.6204 C   0  0  0  0  0  0
  -23.8926  -28.3557   20.7218 C   0  0  0  0  0  0
  -25.4177  -36.2198   24.0164 C   0  0  1  0  0  0
  -20.5396  -28.3350   23.1731 C   0  0  2  0  0  0
  -20.6309  -26.9101   22.5743 C   0  0  0  0  0  0
  -19.5535  -26.6326   21.5264 C   0  0  0  0  0  0
  -18.1647  -26.7961   22.1495 C   0  0  0  0  0  0
  -19.1221  -28.8810   23.2898 C   0  0  0  0  0  0
  -18.9254  -30.1424   23.8908 C   0  0  0  0  0  0
  -17.6285  -30.6621   24.0534 C   0  0  0  0  0  0
  -25.9163  -34.8574   23.4540 C   0  0  0  0  0  0
  -16.5161  -29.9153   23.6266 C   0  0  0  0  0  0
  -16.7026  -28.6575   23.0251 C   0  0  0  0  0  0
  -26.4706  -31.6185   25.0375 C   0  0  0  0  0  0
  -25.3623  -31.3838   26.0940 C   0  0  0  0  0  0
  -27.1078  -30.2526   24.7297 C   0  0  0  0  0  0
  -27.5848  -32.4632   25.7073 C   0  0  0  0  0  0
  -27.5478  -37.1432   24.8467 C   0  0  0  0  0  0
  -21.4315  -29.2352   22.4581 N   0  0  0  0  0  0
  -26.4188  -37.3133   23.9376 N   0  0  0  0  0  0
  -24.8751  -30.3895   22.1597 N   0  0  0  0  0  0
  -23.2726  -28.7163   23.6759 O   0  0  0  0  0  0
  -28.9127  -25.4218   19.7446 O   0  0  0  0  0  0
  -26.6256  -34.8519   22.4473 O   0  0  0  0  0  0
  -23.6386  -31.9436   23.4080 O   0  0  0  0  0  0
  -26.1183  -27.6936   19.0242 C   0  0  0  0  0  0
  -25.0269  -24.4866   20.6932 C   0  0  0  0  0  0
  -26.5071  -25.0779   20.5519 C   0  0  0  0  0  0
  -24.4868  -27.5728   18.3758 C   0  0  0  0  0  0
  -23.8350  -24.8114   19.6906 C   0  0  0  0  0  0
  -23.4657  -26.2435   18.8135 C   0  0  0  0  0  0
  -25.4855  -22.8384   18.6147 C   0  0  0  0  0  0
  -27.5454  -22.4441   20.7706 C   0  0  0  0  0  0
  -27.1151  -23.2823   18.2360 C   0  0  0  0  0  0
  -28.6053  -24.0153   18.9682 C   0  0  0  0  0  0
  -24.0102  -28.5161   17.4611 N   0  0  0  0  0  0
  -22.2507  -26.2217   18.1367 N   0  0  0  0  0  0
  -24.2289  -23.5520   18.8790 N   0  0  0  0  0  0
  -28.2117  -19.8918   20.4827 N   0  0  0  0  0  0
  -25.3306  -21.6164   18.6051 O   0  0  0  0  0  0
  -30.6531  -15.3991   18.9561 H   0  0  0  0  0  0
  -30.5787  -14.4744   20.3587 H   0  0  0  0  0  0
  -30.3772  -12.9696   18.3579 H   0  0  0  0  0  0
  -29.1991  -14.0097   17.6215 H   0  0  0  0  0  0
  -28.7490  -11.9284   19.7492 H   0  0  0  0  0  0
  -27.8108  -12.2311   18.2822 H   0  0  0  0  0  0
  -27.1581  -14.3263   19.0833 H   0  0  0  0  0  0
  -28.8891  -14.3088   21.6019 H   0  0  0  0  0  0
  -27.4998  -15.2287   21.5184 H   0  0  0  0  0  0
  -25.2999   -9.5741   22.4738 H   0  0  0  0  0  0
  -24.0107   -7.4777   22.7513 H   0  0  0  0  0  0
  -21.1079   -8.8940   19.8921 H   0  0  0  0  0  0
  -22.4047  -10.9719   19.6057 H   0  0  0  0  0  0
  -21.2080   -7.6187   23.9734 H   0  0  0  0  0  0
  -21.1510   -6.0536   25.9074 H   0  0  0  0  0  0
  -22.0559   -2.7638   23.2814 H   0  0  0  0  0  0
  -22.3974  -11.9550   22.4971 H   0  0  0  0  0  0
  -21.0721  -13.0612   22.2767 H   0  0  0  0  0  0
  -24.4167  -15.8782   20.5084 H   0  0  0  0  0  0
  -26.0621  -15.7550   20.1263 H   0  0  0  0  0  0
  -26.7631  -32.3410   22.9841 H   0  0  0  0  0  0
  -24.9141  -33.7967   24.8490 H   0  0  0  0  0  0
  -23.1140  -30.4546   21.0430 H   0  0  0  0  0  0
  -23.3741  -35.8984   23.3236 H   0  0  0  0  0  0
  -24.3458  -36.8595   22.2176 H   0  0  0  0  0  0
  -23.7260  -37.5740   23.7067 H   0  0  0  0  0  0
  -26.2908  -30.0423   20.6626 H   0  0  0  0  0  0
  -26.9778  -29.8815   22.1929 H   0  0  0  0  0  0
  -28.4733  -27.9417   21.4160 H   0  0  0  0  0  0
  -27.7831  -25.6706   17.4513 H   0  0  0  0  0  0
  -25.2673  -25.3650   17.6865 H   0  0  0  0  0  0
  -24.1552  -29.0752   19.9554 H   0  0  0  0  0  0
  -22.8929  -27.9909   20.4843 H   0  0  0  0  0  0
  -25.1492  -36.0738   25.0650 H   0  0  0  0  0  0
  -20.8816  -28.2666   24.2088 H   0  0  0  0  0  0
  -20.4866  -26.1919   23.3837 H   0  0  0  0  0  0
  -21.6232  -26.6930   22.1777 H   0  0  0  0  0  0
  -19.6668  -25.6261   21.1220 H   0  0  0  0  0  0
  -19.6719  -27.3221   20.6894 H   0  0  0  0  0  0
  -17.4032  -26.6824   21.3771 H   0  0  0  0  0  0
  -17.9860  -26.0068   22.8807 H   0  0  0  0  0  0
  -19.7749  -30.7138   24.2394 H   0  0  0  0  0  0
  -17.4856  -31.6289   24.5171 H   0  0  0  0  0  0
  -15.5169  -30.3089   23.7572 H   0  0  0  0  0  0
  -15.8408  -28.0937   22.6939 H   0  0  0  0  0  0
  -24.5932  -30.6977   25.7376 H   0  0  0  0  0  0
  -24.8665  -32.3138   26.3729 H   0  0  0  0  0  0
  -25.7688  -30.9520   27.0097 H   0  0  0  0  0  0
  -26.3902  -29.5307   24.3422 H   0  0  0  0  0  0
  -27.5110  -29.8010   25.6373 H   0  0  0  0  0  0
  -27.9487  -30.3444   24.0426 H   0  0  0  0  0  0
  -27.2114  -33.4142   26.0889 H   0  0  0  0  0  0
  -28.3883  -32.6883   25.0049 H   0  0  0  0  0  0
  -28.0327  -31.9437   26.5559 H   0  0  0  0  0  0
  -28.2402  -37.9796   24.7427 H   0  0  0  0  0  0
  -28.1048  -36.2280   24.6405 H   0  0  0  0  0  0
  -27.2160  -37.1159   25.8859 H   0  0  0  0  0  0
  -21.0778  -29.6782   21.6214 H   0  0  0  0  0  0
  -25.9869  -38.2126   24.1326 H   0  0  0  0  0  0
  -26.8309  -28.4129   18.6319 H   0  0  0  0  0  0
  -24.9944  -23.5113   21.1608 H   0  0  0  0  0  0
  -26.8251  -22.1884   21.5461 H   0  0  0  0  0  0
  -28.4310  -22.7141   21.3479 H   0  0  0  0  0  0
  -27.0176  -23.6763   17.2247 H   0  0  0  0  0  0
  -27.5202  -22.3004   17.9881 H   0  0  0  0  0  0
  -29.2149  -24.1634   18.0747 H   0  0  0  0  0  0
  -29.2650  -23.2639   19.3968 H   0  0  0  0  0  0
  -24.4903  -29.4061   17.4031 H   0  0  0  0  0  0
  -23.0094  -28.6058   17.3551 H   0  0  0  0  0  0
  -21.9765  -27.0803   17.6801 H   0  0  0  0  0  0
  -21.4804  -25.7466   18.5916 H   0  0  0  0  0  0
  -23.4319  -22.9501   18.7268 H   0  0  0  0  0  0
  -29.1818  -20.1771   20.5481 H   0  0  0  0  0  0
  1 25  1  0  0  0
  1 30  2  0  0  0
  1 84  1  0  0  0
  2  3  1  0  0  0
  2 25  1  0  0  0
  2 86  1  0  0  0
  2 87  1  0  0  0
  3  4  1  0  0  0
  3 88  1  0  0  0
  3 89  1  0  0  0
  4  5  1  0  0  0
  4 90  1  0  0  0
  4 91  1  0  0  0
  5  6  1  0  0  0
  5 26  1  0  0  0
  5 92  1  0  0  0
  6 25  1  0  0  0
  6 93  1  0  0  0
  6 94  1  0  0  0
  7  8  2  0  0  0
  7 26  1  0  0  0
  7 29  1  0  0  0
  8  9  1  0  0  0
  8 22  1  0  0  0
  9 10  1  0  0  0
  9 27  2  0  0  0
 10 11  2  0  0  0
 10 15  1  0  0  0
 11 12  1  0  0  0
 11 95  1  0  0  0
 12 13  2  0  0  0
 12 96  1  0  0  0
 13 14  1  0  0  0
 13 31  1  0  0  0
 14 15  2  0  0  0
 14 97  1  0  0  0
 15 98  1  0  0  0
 16 17  2  0  0  0
 16 21  1  0  0  0
 16 31  1  0  0  0
 17 18  1  0  0  0
 17 99  1  0  0  0
 18 19  2  0  0  0
 18100  1  0  0  0
 19 20  1  0  0  0
 19 24  1  0  0  0
 20 21  2  0  0  0
 20101  1  0  0  0
 21 23  1  0  0  0
 22 28  1  0  0  0
 22 32  2  0  0  0
 26 27  1  0  0  0
 28102  1  0  0  0
 28103  1  0  0  0
 29104  1  0  0  0
 29105  1  0  0  0
 33 34  1  0  0  0
 33 66  1  0  0  0
 33 70  2  0  0  0
 34 36  1  0  0  0
 34 59  1  0  0  0
 34106  1  0  0  0
 35 44  2  0  0  0
 35 45  1  0  0  0
 35 68  1  0  0  0
 36 56  1  0  0  0
 36107  1  0  0  0
 37 39  1  0  0  0
 37 47  1  0  0  0
 37 66  1  0  0  0
 37108  1  0  0  0
 38 43  2  0  0  0
 38 46  1  0  0  0
 38 47  1  0  0  0
 39 64  1  0  0  0
 39 67  2  0  0  0
 40 52  1  0  0  0
 40 53  2  0  0  0
 40 58  1  0  0  0
 41109  1  0  0  0
 41110  1  0  0  0
 41111  1  0  0  0
 41 48  1  0  0  0
 42 43  1  0  0  0
 42 66  1  0  0  0
 42112  1  0  0  0
 42113  1  0  0  0
 43 44  1  0  0  0
 44114  1  0  0  0
 45 46  2  0  0  0
 45115  1  0  0  0
 46116  1  0  0  0
 47117  1  0  0  0
 47118  1  0  0  0
 48 56  1  0  0  0
 48 65  1  0  0  0
 48119  1  0  0  0
 49 50  1  0  0  0
 49 53  1  0  0  0
 49 64  1  0  0  0
 49120  1  0  0  0
 50 51  1  0  0  0
 50121  1  0  0  0
 50122  1  0  0  0
 51 52  1  0  0  0
 51123  1  0  0  0
 51124  1  0  0  0
 52125  1  0  0  0
 52126  1  0  0  0
 53 54  1  0  0  0
 54 55  2  0  0  0
 54127  1  0  0  0
 55 57  1  0  0  0
 55128  1  0  0  0
 56 69  2  0  0  0
 57 58  2  0  0  0
 57129  1  0  0  0
 58130  1  0  0  0
 59 60  1  0  0  0
 59 61  1  0  0  0
 59 62  1  0  0  0
 60131  1  0  0  0
 60132  1  0  0  0
 60133  1  0  0  0
 61134  1  0  0  0
 61135  1  0  0  0
 61136  1  0  0  0
 62137  1  0  0  0
 62138  1  0  0  0
 62139  1  0  0  0
 63 65  1  0  0  0
 63140  1  0  0  0
 63141  1  0  0  0
 63142  1  0  0  0
 64143  1  0  0  0
 65144  1  0  0  0
 68 80  1  0  0  0
 71 73  2  0  0  0
 71 74  1  0  0  0
 71145  1  0  0  0
 72 73  1  0  0  0
 72 75  2  0  0  0
 72146  1  0  0  0
 73 78  1  0  0  0
 74 76  2  0  0  0
 74 81  1  0  0  0
 75 76  1  0  0  0
 75 83  1  0  0  0
 76 82  1  0  0  0
 77 79  1  0  0  0
 77 83  1  0  0  0
 77 85  2  0  0  0
 78 84  1  0  0  0
 78147  1  0  0  0
 78148  1  0  0  0
 79 80  1  0  0  0
 79149  1  0  0  0
 79150  1  0  0  0
 80151  1  0  0  0
 80152  1  0  0  0
 81153  1  0  0  0
 81154  1  0  0  0
 82155  1  0  0  0
 82156  1  0  0  0
 83157  1  0  0  0
 84158  1  0  0  0
M  ISO  4   1 100  68 101  80 101  84 100
M  END
> <chiral flag>
0

> <version>
0

> <s_m_source_file>
/data/baiqing/PycharmProjects/Reinvent-master-3.2/result/LINK_invent/BTK/process_docking_weight1_custom_product_contain_oxygen_bond_distance_aromatic_linkinvent_7_9_3/rearranged_h_0094.sdf

> <i_m_source_file_index>
95

> <r_mmod_Potential_Energy-OPLS-2005>
30181.552734375

> <r_mmod_Stretch_Energy-OPLS-2005>
16183.76953125

> <r_mmod_Bend_Energy-OPLS-2005>
2236.75512695312

> <r_mmod_Torsional_Energy-OPLS-2005>
743.098022460938

> <r_mmod_Improper_Torsional_Energy-OPLS-2005>
114.891983032227

> <r_mmod_Van_der_Waal_Energy-OPLS-2005>
3944.69262695312

> <r_mmod_Electrostatic_Energy-OPLS-2005>
-576.155029296875

> <r_mmod_Solvation_Energy-OPLS-2005>
-273.141510009766

> <b_mmod_Minimization_Converged-OPLS-2005>
0

> <r_mmod_RMS_Derivative-OPLS-2005>
3.54948997497559

$$$$
95
                    3D
 Structure written by MMmdl.
151159  0  0  1  0            999 V2000
  -30.2929  -15.6476   20.3592 C   0  0  0  0  0  0
  -30.4274  -13.0858   19.5790 C   0  0  0  0  0  0
  -29.5621  -12.6810   18.3480 C   0  0  0  0  0  0
  -28.1320  -12.3165   18.7690 C   0  0  0  0  0  0
  -27.6012  -13.3081   19.8255 C   0  0  2  0  0  0
  -28.6087  -13.6040   20.9604 C   0  0  0  0  0  0
  -25.2289  -13.8230   20.5685 C   0  0  0  0  0  0
  -24.1696  -13.0403   20.9265 C   0  0  0  0  0  0
  -24.6415  -11.6924   20.8777 C   0  0  0  0  0  0
  -23.9122  -10.4277   21.0409 C   0  0  0  0  0  0
  -24.3657   -9.4184   21.9184 C   0  0  0  0  0  0
  -23.6319   -8.2228   22.0751 C   0  0  0  0  0  0
  -22.4294   -8.0281   21.3542 C   0  0  0  0  0  0
  -21.9928   -9.0261   20.4657 C   0  0  0  0  0  0
  -22.7285  -10.2128   20.3068 C   0  0  0  0  0  0
  -21.6850   -6.0741   22.5275 C   0  0  0  0  0  0
  -21.4012   -6.5649   23.8200 C   0  0  0  0  0  0
  -21.3660   -5.6809   24.9167 C   0  0  0  0  0  0
  -21.6036   -4.3065   24.7219 C   0  0  0  0  0  0
  -21.8814   -3.8154   23.4345 C   0  0  0  0  0  0
  -21.9189   -4.6970   22.3399 C   0  0  0  0  0  0
  -22.7724  -13.5165   21.1925 C   0  0  0  0  0  0
  -22.1665   -4.2155   21.0981 F   0  0  0  0  0  0
  -21.5631   -3.4551   25.7732 F   0  0  0  0  0  0
  -29.7927  -14.2605   20.3455 N   0  0  0  0  0  0
  -26.2771  -12.9585   20.3211 N   0  0  0  0  0  0
  -25.9366  -11.6662   20.5705 N   0  0  0  0  0  0
  -22.0385  -12.8153   22.0496 N   0  0  0  0  0  0
  -25.3810  -15.1919   20.3962 N   0  0  0  0  0  0
  -31.5071  -15.5826   20.0804 O   0  0  0  0  0  0
  -21.6644   -6.8880   21.4237 O   0  0  0  0  0  0
  -22.3392  -14.5469   20.6777 O   0  0  0  0  0  0
  -24.6857  -31.8009   23.1515 C   0  0  0  0  0  0
  -25.9440  -32.4471   23.8060 C   0  0  1  0  0  0
  -27.2301  -26.6991   20.2249 C   0  0  0  0  0  0
  -25.6023  -33.8298   24.1958 N   0  0  0  0  0  0
  -23.5111  -30.4018   21.5055 C   0  0  2  0  0  0
  -24.9690  -28.7399   20.1217 C   0  0  0  0  0  0
  -22.7772  -29.4332   22.4718 C   0  0  0  0  0  0
  -18.0349  -28.1447   22.8452 C   0  0  0  0  0  0
  -24.1484  -36.7141   23.2649 C   0  0  0  0  0  0
  -26.0921  -30.5330   21.4163 C   0  0  0  0  0  0
  -26.1584  -29.0969   20.7685 C   0  0  0  0  0  0
  -27.2737  -28.1063   20.7837 C   0  0  0  0  0  0
  -26.0058  -26.5508   19.5230 C   0  0  0  0  0  0
  -24.9328  -27.4929   19.4742 C   0  0  0  0  0  0
  -23.7656  -29.6956   20.1426 C   0  0  0  0  0  0
  -25.4137  -36.2897   24.0281 C   0  0  1  0  0  0
  -20.5979  -28.3810   23.1142 C   0  0  2  0  0  0
  -20.6821  -26.9468   22.5405 C   0  0  0  0  0  0
  -19.5794  -26.6389   21.5226 C   0  0  0  0  0  0
  -18.1976  -26.7975   22.1618 C   0  0  0  0  0  0
  -19.1611  -28.8954   23.2774 C   0  0  0  0  0  0
  -18.9515  -30.1535   23.8821 C   0  0  0  0  0  0
  -17.6502  -30.6623   24.0559 C   0  0  0  0  0  0
  -25.9124  -34.9290   23.4950 C   0  0  0  0  0  0
  -16.5392  -29.9105   23.6360 C   0  0  0  0  0  0
  -16.7324  -28.6530   23.0366 C   0  0  0  0  0  0
  -26.4611  -31.6507   25.0672 C   0  0  0  0  0  0
  -25.3666  -31.3836   26.1274 C   0  0  0  0  0  0
  -27.0558  -30.2845   24.6593 C   0  0  0  0  0  0
  -27.6054  -32.4370   25.7494 C   0  0  0  0  0  0
  -27.5554  -37.1732   24.8472 C   0  0  0  0  0  0
  -21.4425  -29.3041   22.3445 N   0  0  0  0  0  0
  -26.4264  -37.3656   23.9408 N   0  0  0  0  0  0
  -24.7864  -30.9451   22.0770 N   0  0  0  0  0  0
  -23.4203  -28.7954   23.3084 O   0  0  0  0  0  0
  -28.2098  -25.4921   20.2797 O   0  0  0  0  0  0
  -26.5744  -34.8866   22.4552 O   0  0  0  0  0  0
  -23.5872  -32.1079   23.6471 O   0  0  0  0  0  0
  -27.2502  -17.4545   21.5910 C   0  0  0  0  0  0
  -28.5911  -16.9453   21.6564 C   0  0  0  0  0  0
  -26.5716  -17.3119   22.7829 C   0  0  0  0  0  0
  -28.8905  -16.4535   22.9022 C   0  0  0  0  0  0
  -29.7370  -18.5182   20.2047 C   0  0  0  0  0  0
  -28.8214  -20.1343   20.4874 C   0  0  0  0  0  0
  -29.0198  -22.0592   20.2432 C   0  0  0  0  0  0
  -28.0246  -23.7362   20.3088 C   0  0  0  0  0  0
  -25.2729  -17.7019   23.0897 N   0  0  0  0  0  0
  -29.5449  -17.0159   20.5946 N   0  0  0  0  0  0
  -30.7454  -18.7289   19.5258 O   0  0  0  0  0  0
  -30.0900  -15.9408   23.2654 F   0  0  0  0  0  0
  -27.5559  -16.5439   24.0102 S   0  0  0  0  0  0
  -31.4237  -13.3441   19.2216 H   0  0  0  0  0  0
  -30.5877  -12.2300   20.2367 H   0  0  0  0  0  0
  -30.0230  -11.8519   17.8099 H   0  0  0  0  0  0
  -29.5295  -13.5189   17.6494 H   0  0  0  0  0  0
  -28.1518  -11.3118   19.1922 H   0  0  0  0  0  0
  -27.4708  -12.2805   17.9032 H   0  0  0  0  0  0
  -27.4758  -14.2436   19.2789 H   0  0  0  0  0  0
  -28.8668  -12.6991   21.5135 H   0  0  0  0  0  0
  -28.1425  -14.2631   21.6882 H   0  0  0  0  0  0
  -25.2786   -9.5661   22.4774 H   0  0  0  0  0  0
  -24.0031   -7.4619   22.7466 H   0  0  0  0  0  0
  -21.0848   -8.8821   19.8965 H   0  0  0  0  0  0
  -22.3748  -10.9690   19.6204 H   0  0  0  0  0  0
  -21.2010   -7.6158   23.9709 H   0  0  0  0  0  0
  -21.1486   -6.0543   25.9078 H   0  0  0  0  0  0
  -22.0588   -2.7615   23.2852 H   0  0  0  0  0  0
  -22.3996  -11.9776   22.4812 H   0  0  0  0  0  0
  -21.1032  -13.1215   22.2796 H   0  0  0  0  0  0
  -24.6314  -15.8453   20.5958 H   0  0  0  0  0  0
  -26.2301  -15.6403   20.0848 H   0  0  0  0  0  0
  -26.7518  -32.4955   23.0767 H   0  0  0  0  0  0
  -25.0143  -33.9330   25.0096 H   0  0  0  0  0  0
  -22.8369  -31.2399   21.3151 H   0  0  0  0  0  0
  -23.3766  -35.9449   23.3278 H   0  0  0  0  0  0
  -24.3545  -36.8830   22.2069 H   0  0  0  0  0  0
  -23.7219  -37.6304   23.6738 H   0  0  0  0  0  0
  -26.2954  -31.2560   20.6254 H   0  0  0  0  0  0
  -26.9425  -30.6024   22.0824 H   0  0  0  0  0  0
  -28.1717  -28.3897   21.3151 H   0  0  0  0  0  0
  -25.8403  -25.6075   19.0218 H   0  0  0  0  0  0
  -24.0369  -27.2116   18.9371 H   0  0  0  0  0  0
  -23.9397  -30.4531   19.3781 H   0  0  0  0  0  0
  -22.8705  -29.1609   19.8213 H   0  0  0  0  0  0
  -25.1347  -36.1659   25.0770 H   0  0  0  0  0  0
  -21.0061  -28.3448   24.1266 H   0  0  0  0  0  0
  -20.5733  -26.2429   23.3670 H   0  0  0  0  0  0
  -21.6688  -26.7449   22.1200 H   0  0  0  0  0  0
  -19.6958  -25.6281   21.1311 H   0  0  0  0  0  0
  -19.6746  -27.3154   20.6720 H   0  0  0  0  0  0
  -17.4255  -26.6728   21.4008 H   0  0  0  0  0  0
  -18.0353  -26.0139   22.9032 H   0  0  0  0  0  0
  -19.7985  -30.7376   24.2154 H   0  0  0  0  0  0
  -17.5052  -31.6297   24.5178 H   0  0  0  0  0  0
  -15.5389  -30.2983   23.7740 H   0  0  0  0  0  0
  -15.8719  -28.0831   22.7117 H   0  0  0  0  0  0
  -24.5872  -30.7168   25.7566 H   0  0  0  0  0  0
  -24.8835  -32.3072   26.4484 H   0  0  0  0  0  0
  -25.7824  -30.9137   27.0194 H   0  0  0  0  0  0
  -26.3302  -29.6440   24.1574 H   0  0  0  0  0  0
  -27.3971  -29.7307   25.5350 H   0  0  0  0  0  0
  -27.9273  -30.3971   24.0135 H   0  0  0  0  0  0
  -27.2597  -33.3747   26.1855 H   0  0  0  0  0  0
  -28.3972  -32.6818   25.0400 H   0  0  0  0  0  0
  -28.0601  -31.8650   26.5592 H   0  0  0  0  0  0
  -28.2564  -38.0033   24.7499 H   0  0  0  0  0  0
  -28.1055  -36.2559   24.6328 H   0  0  0  0  0  0
  -27.2265  -37.1405   25.8872 H   0  0  0  0  0  0
  -20.9752  -29.8621   21.6440 H   0  0  0  0  0  0
  -26.0090  -38.2700   24.1428 H   0  0  0  0  0  0
  -26.8375  -17.9039   20.6997 H   0  0  0  0  0  0
  -28.5195  -20.0460   21.5304 H   0  0  0  0  0  0
  -27.9028  -19.9316   19.9376 H   0  0  0  0  0  0
  -29.4870  -22.1142   19.2591 H   0  0  0  0  0  0
  -29.8478  -22.2742   20.9186 H   0  0  0  0  0  0
  -27.4517  -23.6240   21.2298 H   0  0  0  0  0  0
  -27.2738  -23.5929   19.5320 H   0  0  0  0  0  0
  -24.6607  -18.2200   22.4671 H   0  0  0  0  0  0
  -24.8356  -17.5210   23.9903 H   0  0  0  0  0  0
  1 25  1  0  0  0
  1 30  2  0  0  0
  1 80  1  0  0  0
  2  3  1  0  0  0
  2 25  1  0  0  0
  2 84  1  0  0  0
  2 85  1  0  0  0
  3  4  1  0  0  0
  3 86  1  0  0  0
  3 87  1  0  0  0
  4  5  1  0  0  0
  4 88  1  0  0  0
  4 89  1  0  0  0
  5  6  1  0  0  0
  5 26  1  0  0  0
  5 90  1  0  0  0
  6 25  1  0  0  0
  6 91  1  0  0  0
  6 92  1  0  0  0
  7  8  2  0  0  0
  7 26  1  0  0  0
  7 29  1  0  0  0
  8  9  1  0  0  0
  8 22  1  0  0  0
  9 10  1  0  0  0
  9 27  2  0  0  0
 10 11  2  0  0  0
 10 15  1  0  0  0
 11 12  1  0  0  0
 11 93  1  0  0  0
 12 13  2  0  0  0
 12 94  1  0  0  0
 13 14  1  0  0  0
 13 31  1  0  0  0
 14 15  2  0  0  0
 14 95  1  0  0  0
 15 96  1  0  0  0
 16 17  2  0  0  0
 16 21  1  0  0  0
 16 31  1  0  0  0
 17 18  1  0  0  0
 17 97  1  0  0  0
 18 19  2  0  0  0
 18 98  1  0  0  0
 19 20  1  0  0  0
 19 24  1  0  0  0
 20 21  2  0  0  0
 20 99  1  0  0  0
 21 23  1  0  0  0
 22 28  1  0  0  0
 22 32  2  0  0  0
 26 27  1  0  0  0
 28100  1  0  0  0
 28101  1  0  0  0
 29102  1  0  0  0
 29103  1  0  0  0
 33 34  1  0  0  0
 33 66  1  0  0  0
 33 70  2  0  0  0
 34 36  1  0  0  0
 34 59  1  0  0  0
 34104  1  0  0  0
 35 44  2  0  0  0
 35 45  1  0  0  0
 35 68  1  0  0  0
 36 56  1  0  0  0
 36105  1  0  0  0
 37 39  1  0  0  0
 37 47  1  0  0  0
 37 66  1  0  0  0
 37106  1  0  0  0
 38 43  2  0  0  0
 38 46  1  0  0  0
 38 47  1  0  0  0
 39 64  1  0  0  0
 39 67  2  0  0  0
 40 52  1  0  0  0
 40 53  2  0  0  0
 40 58  1  0  0  0
 41107  1  0  0  0
 41108  1  0  0  0
 41109  1  0  0  0
 41 48  1  0  0  0
 42 43  1  0  0  0
 42 66  1  0  0  0
 42110  1  0  0  0
 42111  1  0  0  0
 43 44  1  0  0  0
 44112  1  0  0  0
 45 46  2  0  0  0
 45113  1  0  0  0
 46114  1  0  0  0
 47115  1  0  0  0
 47116  1  0  0  0
 48 56  1  0  0  0
 48 65  1  0  0  0
 48117  1  0  0  0
 49 50  1  0  0  0
 49 53  1  0  0  0
 49 64  1  0  0  0
 49118  1  0  0  0
 50 51  1  0  0  0
 50119  1  0  0  0
 50120  1  0  0  0
 51 52  1  0  0  0
 51121  1  0  0  0
 51122  1  0  0  0
 52123  1  0  0  0
 52124  1  0  0  0
 53 54  1  0  0  0
 54 55  2  0  0  0
 54125  1  0  0  0
 55 57  1  0  0  0
 55126  1  0  0  0
 56 69  2  0  0  0
 57 58  2  0  0  0
 57127  1  0  0  0
 58128  1  0  0  0
 59 60  1  0  0  0
 59 61  1  0  0  0
 59 62  1  0  0  0
 60129  1  0  0  0
 60130  1  0  0  0
 60131  1  0  0  0
 61132  1  0  0  0
 61133  1  0  0  0
 61134  1  0  0  0
 62135  1  0  0  0
 62136  1  0  0  0
 62137  1  0  0  0
 63 65  1  0  0  0
 63138  1  0  0  0
 63139  1  0  0  0
 63140  1  0  0  0
 64141  1  0  0  0
 65142  1  0  0  0
 68 78  1  0  0  0
 71 72  1  0  0  0
 71 73  2  0  0  0
 71143  1  0  0  0
 72 74  2  0  0  0
 72 80  1  0  0  0
 73 79  1  0  0  0
 73 83  1  0  0  0
 74 82  1  0  0  0
 74 83  1  0  0  0
 75 76  1  0  0  0
 75 80  1  0  0  0
 75 81  2  0  0  0
 76 77  1  0  0  0
 76144  1  0  0  0
 76145  1  0  0  0
 77 78  1  0  0  0
 77146  1  0  0  0
 77147  1  0  0  0
 78148  1  0  0  0
 78149  1  0  0  0
 79150  1  0  0  0
 79151  1  0  0  0
M  ISO  4   1 100  68 101  78 101  80 100
M  END
> <chiral flag>
0

> <version>
0

> <s_m_source_file>
/data/baiqing/PycharmProjects/Reinvent-master-3.2/result/LINK_invent/BTK/process_docking_weight1_custom_product_contain_oxygen_bond_distance_aromatic_linkinvent_7_9_3/rearranged_h_0094.sdf

> <i_m_source_file_index>
96

> <r_mmod_Potential_Energy-OPLS-2005>
2548.11376953125

> <r_mmod_Stretch_Energy-OPLS-2005>
1176.68359375

> <r_mmod_Bend_Energy-OPLS-2005>
654.022033691406

> <r_mmod_Torsional_Energy-OPLS-2005>
268.150146484375

> <r_mmod_Improper_Torsional_Energy-OPLS-2005>
2.38826322555542

> <r_mmod_Van_der_Waal_Energy-OPLS-2005>
104.028274536133

> <r_mmod_Electrostatic_Energy-OPLS-2005>
-332.809387207031

> <r_mmod_Solvation_Energy-OPLS-2005>
-223.319534301758

> <b_mmod_Minimization_Converged-OPLS-2005>
0

> <r_mmod_RMS_Derivative-OPLS-2005>
2.11192512512207

$$$$
96
                    3D
 Structure written by MMmdl.
159168  0  0  1  0            999 V2000
  -30.7015  -14.5014   20.5760 C   0  0  0  0  0  0
  -30.4208  -12.3297   19.4292 C   0  0  0  0  0  0
  -29.4912  -12.5002   18.2102 C   0  0  0  0  0  0
  -28.0149  -12.3563   18.6242 C   0  0  0  0  0  0
  -27.6562  -13.2108   19.8696 C   0  0  2  0  0  0
  -28.6959  -13.0223   20.9951 C   0  0  0  0  0  0
  -25.2578  -13.8180   20.5674 C   0  0  0  0  0  0
  -24.1843  -13.0448   20.9177 C   0  0  0  0  0  0
  -24.6412  -11.6913   20.8757 C   0  0  0  0  0  0
  -23.9087  -10.4293   21.0416 C   0  0  0  0  0  0
  -24.3625   -9.4209   21.9199 C   0  0  0  0  0  0
  -23.6294   -8.2251   22.0761 C   0  0  0  0  0  0
  -22.4287   -8.0283   21.3547 C   0  0  0  0  0  0
  -21.9933   -9.0257   20.4645 C   0  0  0  0  0  0
  -22.7262  -10.2133   20.3060 C   0  0  0  0  0  0
  -21.6860   -6.0738   22.5279 C   0  0  0  0  0  0
  -21.4008   -6.5637   23.8199 C   0  0  0  0  0  0
  -21.3662   -5.6799   24.9167 C   0  0  0  0  0  0
  -21.6037   -4.3057   24.7230 C   0  0  0  0  0  0
  -21.8820   -3.8156   23.4353 C   0  0  0  0  0  0
  -21.9185   -4.6969   22.3408 C   0  0  0  0  0  0
  -22.7851  -13.5232   21.1850 C   0  0  0  0  0  0
  -22.1658   -4.2156   21.0989 F   0  0  0  0  0  0
  -21.5641   -3.4545   25.7755 F   0  0  0  0  0  0
  -30.0216  -13.3303   20.4352 N   0  0  0  0  0  0
  -26.2999  -12.9353   20.3352 N   0  0  0  0  0  0
  -25.9333  -11.6507   20.5778 N   0  0  0  0  0  0
  -22.0500  -12.8194   22.0371 N   0  0  0  0  0  0
  -25.4309  -15.1904   20.4090 N   0  0  0  0  0  0
  -31.8332  -14.6621   20.1130 O   0  0  0  0  0  0
  -21.6646   -6.8887   21.4243 O   0  0  0  0  0  0
  -22.3548  -14.5565   20.6712 O   0  0  0  0  0  0
  -24.6198  -31.8661   23.2083 C   0  0  0  0  0  0
  -25.9081  -32.4801   23.8386 C   0  0  1  0  0  0
  -27.2284  -27.4101   20.0823 C   0  0  0  0  0  0
  -25.5957  -33.8609   24.2302 N   0  0  0  0  0  0
  -23.4045  -30.4930   21.5504 C   0  0  2  0  0  0
  -24.8465  -28.9568   20.1115 C   0  0  0  0  0  0
  -22.7417  -29.4658   22.4965 C   0  0  0  0  0  0
  -18.0278  -28.1388   22.8477 C   0  0  0  0  0  0
  -24.1481  -36.7282   23.2638 C   0  0  0  0  0  0
  -25.9361  -30.8201   21.3678 C   0  0  0  0  0  0
  -26.0073  -29.4525   20.7167 C   0  0  0  0  0  0
  -27.1946  -28.6798   20.7130 C   0  0  0  0  0  0
  -26.0433  -26.9374   19.4779 C   0  0  0  0  0  0
  -24.8584  -27.6965   19.4936 C   0  0  0  0  0  0
  -23.6117  -29.8287   20.1631 C   0  0  0  0  0  0
  -25.4103  -36.3080   24.0340 C   0  0  1  0  0  0
  -20.5866  -28.3666   23.1305 C   0  0  2  0  0  0
  -20.6749  -26.9382   22.5453 C   0  0  0  0  0  0
  -19.5757  -26.6375   21.5212 C   0  0  0  0  0  0
  -18.1898  -26.7947   22.1543 C   0  0  0  0  0  0
  -19.1530  -28.8841   23.2899 C   0  0  0  0  0  0
  -18.9466  -30.1434   23.8937 C   0  0  0  0  0  0
  -17.6467  -30.6579   24.0574 C   0  0  0  0  0  0
  -25.9050  -34.9458   23.5096 C   0  0  0  0  0  0
  -16.5356  -29.9084   23.6342 C   0  0  0  0  0  0
  -16.7267  -28.6502   23.0365 C   0  0  0  0  0  0
  -26.4493  -31.6628   25.0753 C   0  0  0  0  0  0
  -25.3727  -31.3767   26.1487 C   0  0  0  0  0  0
  -27.0303  -30.3052   24.6169 C   0  0  0  0  0  0
  -27.6060  -32.4374   25.7499 C   0  0  0  0  0  0
  -27.5586  -37.1780   24.8429 C   0  0  0  0  0  0
  -21.4138  -29.3045   22.3720 N   0  0  0  0  0  0
  -26.4263  -37.3787   23.9437 N   0  0  0  0  0  0
  -24.6718  -31.0759   22.0992 N   0  0  0  0  0  0
  -23.4175  -28.8203   23.3019 O   0  0  0  0  0  0
  -28.3961  -26.6616   20.0934 O   0  0  0  0  0  0
  -26.5597  -34.8929   22.4650 O   0  0  0  0  0  0
  -23.5395  -32.1434   23.7473 O   0  0  0  0  0  0
  -28.6521  -18.4588   21.2206 C   0  0  0  0  0  0
  -30.8323  -19.0615   20.3530 C   0  0  0  0  0  0
  -28.1607  -19.7368   20.8483 C   0  0  0  0  0  0
  -30.3353  -20.3276   19.9619 C   0  0  0  0  0  0
  -27.1443  -23.5442   18.8814 C   0  0  0  0  0  0
  -30.0050  -18.1121   20.9967 C   0  0  0  0  0  0
  -28.3113  -24.2244   19.3272 C   0  0  0  0  0  0
  -28.9945  -20.7002   20.2203 C   0  0  0  0  0  0
  -29.0985  -23.2637   19.9378 C   0  0  0  0  0  0
  -27.2786  -22.2223   19.1800 C   0  0  0  0  0  0
  -30.4271  -23.4722   20.5993 C   0  0  0  0  0  0
  -30.6296  -16.8151   21.5502 C   0  0  0  0  0  0
  -28.6421  -25.7006   19.0436 C   0  0  0  0  0  0
  -28.4896  -21.9941   19.8194 N   0  0  0  0  0  0
  -30.0372  -15.5186   21.1679 N   0  0  0  0  0  0
  -26.4196  -21.2106   18.8799 O   0  0  0  0  0  0
  -31.4647  -12.4294   19.1255 H   0  0  0  0  0  0
  -30.3308  -11.3259   19.8460 H   0  0  0  0  0  0
  -29.7380  -11.7604   17.4481 H   0  0  0  0  0  0
  -29.6506  -13.4778   17.7528 H   0  0  0  0  0  0
  -27.8370  -11.3005   18.8352 H   0  0  0  0  0  0
  -27.3616  -12.6142   17.7915 H   0  0  0  0  0  0
  -27.6912  -14.2544   19.5566 H   0  0  0  0  0  0
  -28.6801  -11.9947   21.3610 H   0  0  0  0  0  0
  -28.4507  -13.6436   21.8576 H   0  0  0  0  0  0
  -25.2768   -9.5683   22.4779 H   0  0  0  0  0  0
  -24.0002   -7.4642   22.7483 H   0  0  0  0  0  0
  -21.0876   -8.8765   19.8950 H   0  0  0  0  0  0
  -22.3730  -10.9669   19.6167 H   0  0  0  0  0  0
  -21.1984   -7.6143   23.9715 H   0  0  0  0  0  0
  -21.1490   -6.0529   25.9068 H   0  0  0  0  0  0
  -22.0598   -2.7620   23.2862 H   0  0  0  0  0  0
  -22.4109  -11.9817   22.4694 H   0  0  0  0  0  0
  -21.1121  -13.1200   22.2589 H   0  0  0  0  0  0
  -24.6637  -15.8468   20.5054 H   0  0  0  0  0  0
  -26.2810  -15.6259   20.0750 H   0  0  0  0  0  0
  -26.7161  -32.5472   23.1156 H   0  0  0  0  0  0
  -25.0227  -33.9800   25.0527 H   0  0  0  0  0  0
  -22.6944  -31.3104   21.4125 H   0  0  0  0  0  0
  -23.3750  -35.9600   23.3249 H   0  0  0  0  0  0
  -24.3586  -36.8960   22.2066 H   0  0  0  0  0  0
  -23.7205  -37.6458   23.6701 H   0  0  0  0  0  0
  -26.0596  -31.5820   20.5973 H   0  0  0  0  0  0
  -26.8187  -30.8682   21.9918 H   0  0  0  0  0  0
  -28.0885  -29.0590   21.1887 H   0  0  0  0  0  0
  -26.0091  -25.9750   18.9999 H   0  0  0  0  0  0
  -23.9657  -27.3051   19.0272 H   0  0  0  0  0  0
  -23.7184  -30.6071   19.4047 H   0  0  0  0  0  0
  -22.7330  -29.2566   19.8624 H   0  0  0  0  0  0
  -25.1279  -36.1912   25.0821 H   0  0  0  0  0  0
  -20.9987  -28.3264   24.1414 H   0  0  0  0  0  0
  -20.5548  -26.2312   23.3674 H   0  0  0  0  0  0
  -21.6647  -26.7354   22.1319 H   0  0  0  0  0  0
  -19.6911  -25.6267   21.1268 H   0  0  0  0  0  0
  -19.6756  -27.3186   20.6737 H   0  0  0  0  0  0
  -17.4229  -26.6844   21.3853 H   0  0  0  0  0  0
  -18.0156  -26.0024   22.8837 H   0  0  0  0  0  0
  -19.7938  -30.7247   24.2332 H   0  0  0  0  0  0
  -17.5006  -31.6263   24.5162 H   0  0  0  0  0  0
  -15.5358  -30.3007   23.7629 H   0  0  0  0  0  0
  -15.8656  -28.0822   22.7078 H   0  0  0  0  0  0
  -24.6219  -30.6677   25.7991 H   0  0  0  0  0  0
  -24.8512  -32.2853   26.4507 H   0  0  0  0  0  0
  -25.8122  -30.9476   27.0499 H   0  0  0  0  0  0
  -26.2850  -29.6843   24.1179 H   0  0  0  0  0  0
  -27.4000  -29.7292   25.4659 H   0  0  0  0  0  0
  -27.8725  -30.4355   23.9359 H   0  0  0  0  0  0
  -27.2688  -33.3712   26.2022 H   0  0  0  0  0  0
  -28.3896  -32.6882   25.0327 H   0  0  0  0  0  0
  -28.0704  -31.8534   26.5468 H   0  0  0  0  0  0
  -28.2565  -38.0115   24.7532 H   0  0  0  0  0  0
  -28.1124  -36.2657   24.6135 H   0  0  0  0  0  0
  -27.2349  -37.1304   25.8842 H   0  0  0  0  0  0
  -20.9295  -29.8841   21.7011 H   0  0  0  0  0  0
  -26.0121  -38.2842   24.1523 H   0  0  0  0  0  0
  -27.9888  -17.7594   21.7113 H   0  0  0  0  0  0
  -31.8733  -18.8322   20.1738 H   0  0  0  0  0  0
  -27.1260  -19.9750   21.0479 H   0  0  0  0  0  0
  -31.0013  -21.0206   19.4689 H   0  0  0  0  0  0
  -26.3100  -23.9682   18.3430 H   0  0  0  0  0  0
  -30.4136  -24.3717   21.2154 H   0  0  0  0  0  0
  -31.2115  -23.5960   19.8525 H   0  0  0  0  0  0
  -30.7024  -22.6476   21.2568 H   0  0  0  0  0  0
  -30.5739  -16.8782   22.6374 H   0  0  0  0  0  0
  -31.6977  -16.8261   21.3298 H   0  0  0  0  0  0
  -28.1614  -26.0059   18.1100 H   0  0  0  0  0  0
  -29.7078  -25.7567   18.8193 H   0  0  0  0  0  0
  -29.1040  -15.3234   21.4951 H   0  0  0  0  0  0
  -25.6859  -21.5888   18.4072 H   0  0  0  0  0  0
  1 25  1  0  0  0
  1 30  2  0  0  0
  1 85  1  0  0  0
  2  3  1  0  0  0
  2 25  1  0  0  0
  2 87  1  0  0  0
  2 88  1  0  0  0
  3  4  1  0  0  0
  3 89  1  0  0  0
  3 90  1  0  0  0
  4  5  1  0  0  0
  4 91  1  0  0  0
  4 92  1  0  0  0
  5  6  1  0  0  0
  5 26  1  0  0  0
  5 93  1  0  0  0
  6 25  1  0  0  0
  6 94  1  0  0  0
  6 95  1  0  0  0
  7  8  2  0  0  0
  7 26  1  0  0  0
  7 29  1  0  0  0
  8  9  1  0  0  0
  8 22  1  0  0  0
  9 10  1  0  0  0
  9 27  2  0  0  0
 10 11  2  0  0  0
 10 15  1  0  0  0
 11 12  1  0  0  0
 11 96  1  0  0  0
 12 13  2  0  0  0
 12 97  1  0  0  0
 13 14  1  0  0  0
 13 31  1  0  0  0
 14 15  2  0  0  0
 14 98  1  0  0  0
 15 99  1  0  0  0
 16 17  2  0  0  0
 16 21  1  0  0  0
 16 31  1  0  0  0
 17 18  1  0  0  0
 17100  1  0  0  0
 18 19  2  0  0  0
 18101  1  0  0  0
 19 20  1  0  0  0
 19 24  1  0  0  0
 20 21  2  0  0  0
 20102  1  0  0  0
 21 23  1  0  0  0
 22 28  1  0  0  0
 22 32  2  0  0  0
 26 27  1  0  0  0
 28103  1  0  0  0
 28104  1  0  0  0
 29105  1  0  0  0
 29106  1  0  0  0
 33 34  1  0  0  0
 33 66  1  0  0  0
 33 70  2  0  0  0
 34 36  1  0  0  0
 34 59  1  0  0  0
 34107  1  0  0  0
 35 44  2  0  0  0
 35 45  1  0  0  0
 35 68  1  0  0  0
 36 56  1  0  0  0
 36108  1  0  0  0
 37 39  1  0  0  0
 37 47  1  0  0  0
 37 66  1  0  0  0
 37109  1  0  0  0
 38 43  2  0  0  0
 38 46  1  0  0  0
 38 47  1  0  0  0
 39 64  1  0  0  0
 39 67  2  0  0  0
 40 52  1  0  0  0
 40 53  2  0  0  0
 40 58  1  0  0  0
 41110  1  0  0  0
 41111  1  0  0  0
 41112  1  0  0  0
 41 48  1  0  0  0
 42 43  1  0  0  0
 42 66  1  0  0  0
 42113  1  0  0  0
 42114  1  0  0  0
 43 44  1  0  0  0
 44115  1  0  0  0
 45 46  2  0  0  0
 45116  1  0  0  0
 46117  1  0  0  0
 47118  1  0  0  0
 47119  1  0  0  0
 48 56  1  0  0  0
 48 65  1  0  0  0
 48120  1  0  0  0
 49 50  1  0  0  0
 49 53  1  0  0  0
 49 64  1  0  0  0
 49121  1  0  0  0
 50 51  1  0  0  0
 50122  1  0  0  0
 50123  1  0  0  0
 51 52  1  0  0  0
 51124  1  0  0  0
 51125  1  0  0  0
 52126  1  0  0  0
 52127  1  0  0  0
 53 54  1  0  0  0
 54 55  2  0  0  0
 54128  1  0  0  0
 55 57  1  0  0  0
 55129  1  0  0  0
 56 69  2  0  0  0
 57 58  2  0  0  0
 57130  1  0  0  0
 58131  1  0  0  0
 59 60  1  0  0  0
 59 61  1  0  0  0
 59 62  1  0  0  0
 60132  1  0  0  0
 60133  1  0  0  0
 60134  1  0  0  0
 61135  1  0  0  0
 61136  1  0  0  0
 61137  1  0  0  0
 62138  1  0  0  0
 62139  1  0  0  0
 62140  1  0  0  0
 63 65  1  0  0  0
 63141  1  0  0  0
 63142  1  0  0  0
 63143  1  0  0  0
 64144  1  0  0  0
 65145  1  0  0  0
 68 83  1  0  0  0
 71 73  2  0  0  0
 71 76  1  0  0  0
 71146  1  0  0  0
 72 74  1  0  0  0
 72 76  2  0  0  0
 72147  1  0  0  0
 73 78  1  0  0  0
 73148  1  0  0  0
 74 78  2  0  0  0
 74149  1  0  0  0
 75 77  1  0  0  0
 75 80  2  0  0  0
 75150  1  0  0  0
 76 82  1  0  0  0
 77 79  2  0  0  0
 77 83  1  0  0  0
 78 84  1  0  0  0
 79 81  1  0  0  0
 79 84  1  0  0  0
 80 84  1  0  0  0
 80 86  1  0  0  0
 81151  1  0  0  0
 81152  1  0  0  0
 81153  1  0  0  0
 82 85  1  0  0  0
 82154  1  0  0  0
 82155  1  0  0  0
 83156  1  0  0  0
 83157  1  0  0  0
 85158  1  0  0  0
 86159  1  0  0  0
M  ISO  4   1 100  68 101  83 101  85 100
M  END
> <chiral flag>
0

> <version>
0

> <s_m_source_file>
/data/baiqing/PycharmProjects/Reinvent-master-3.2/result/LINK_invent/BTK/process_docking_weight1_custom_product_contain_oxygen_bond_distance_aromatic_linkinvent_7_9_3/rearranged_h_0094.sdf

> <i_m_source_file_index>
97

> <r_mmod_Potential_Energy-OPLS-2005>
-79.614013671875

> <r_mmod_Stretch_Energy-OPLS-2005>
45.7939224243164

> <r_mmod_Bend_Energy-OPLS-2005>
111.998794555664

> <r_mmod_Torsional_Energy-OPLS-2005>
218.076904296875

> <r_mmod_Improper_Torsional_Energy-OPLS-2005>
3.59140157699585

> <r_mmod_Van_der_Waal_Energy-OPLS-2005>
150.131210327148

> <r_mmod_Electrostatic_Energy-OPLS-2005>
-403.732391357422

> <r_mmod_Solvation_Energy-OPLS-2005>
-222.554412841797

> <b_mmod_Minimization_Converged-OPLS-2005>
0

> <r_mmod_RMS_Derivative-OPLS-2005>
3.37297129631042

$$$$
97
                    3D
 Structure written by MMmdl.
149157  0  0  1  0            999 V2000
  -30.6036  -14.6838   20.4791 C   0  0  0  0  0  0
  -30.4427  -12.4165   19.4572 C   0  0  0  0  0  0
  -29.5102  -12.5082   18.2278 C   0  0  0  0  0  0
  -28.0333  -12.3419   18.6405 C   0  0  0  0  0  0
  -27.6503  -13.2209   19.8610 C   0  0  2  0  0  0
  -28.6978  -13.0949   20.9905 C   0  0  0  0  0  0
  -25.2533  -13.8165   20.5693 C   0  0  0  0  0  0
  -24.1808  -13.0417   20.9169 C   0  0  0  0  0  0
  -24.6395  -11.6897   20.8726 C   0  0  0  0  0  0
  -23.9067  -10.4282   21.0397 C   0  0  0  0  0  0
  -24.3618   -9.4201   21.9180 C   0  0  0  0  0  0
  -23.6289   -8.2240   22.0753 C   0  0  0  0  0  0
  -22.4272   -8.0278   21.3543 C   0  0  0  0  0  0
  -21.9905   -9.0251   20.4645 C   0  0  0  0  0  0
  -22.7236  -10.2128   20.3050 C   0  0  0  0  0  0
  -21.6853   -6.0734   22.5279 C   0  0  0  0  0  0
  -21.4015   -6.5638   23.8212 C   0  0  0  0  0  0
  -21.3658   -5.6791   24.9174 C   0  0  0  0  0  0
  -21.6044   -4.3054   24.7224 C   0  0  0  0  0  0
  -21.8820   -3.8144   23.4346 C   0  0  0  0  0  0
  -21.9192   -4.6961   22.3402 C   0  0  0  0  0  0
  -22.7831  -13.5210   21.1844 C   0  0  0  0  0  0
  -22.1660   -4.2146   21.0979 F   0  0  0  0  0  0
  -21.5628   -3.4538   25.7737 F   0  0  0  0  0  0
  -30.0086  -13.4472   20.4221 N   0  0  0  0  0  0
  -26.2979  -12.9365   20.3329 N   0  0  0  0  0  0
  -25.9330  -11.6512   20.5761 N   0  0  0  0  0  0
  -22.0485  -12.8207   22.0415 N   0  0  0  0  0  0
  -25.4168  -15.1893   20.4186 N   0  0  0  0  0  0
  -31.7770  -14.8416   20.1293 O   0  0  0  0  0  0
  -21.6637   -6.8875   21.4240 O   0  0  0  0  0  0
  -22.3506  -14.5516   20.6702 O   0  0  0  0  0  0
  -24.6277  -31.8580   23.2007 C   0  0  0  0  0  0
  -25.9115  -32.4770   23.8348 C   0  0  1  0  0  0
  -27.2255  -27.3010   20.1270 C   0  0  0  0  0  0
  -25.5921  -33.8571   24.2272 N   0  0  0  0  0  0
  -23.4233  -30.4800   21.5435 C   0  0  2  0  0  0
  -24.8719  -28.9307   20.1127 C   0  0  0  0  0  0
  -22.7486  -29.4612   22.4929 C   0  0  0  0  0  0
  -18.0289  -28.1385   22.8486 C   0  0  0  0  0  0
  -24.1490  -36.7293   23.2642 C   0  0  0  0  0  0
  -25.9658  -30.7831   21.3751 C   0  0  0  0  0  0
  -26.0415  -29.4080   20.7192 C   0  0  0  0  0  0
  -27.2238  -28.6059   20.7141 C   0  0  0  0  0  0
  -26.0379  -26.8839   19.4880 C   0  0  0  0  0  0
  -24.8728  -27.6745   19.4868 C   0  0  0  0  0  0
  -23.6401  -29.8127   20.1599 C   0  0  0  0  0  0
  -25.4116  -36.3079   24.0328 C   0  0  1  0  0  0
  -20.5890  -28.3693   23.1279 C   0  0  2  0  0  0
  -20.6777  -26.9414   22.5408 C   0  0  0  0  0  0
  -19.5751  -26.6383   21.5212 C   0  0  0  0  0  0
  -18.1933  -26.7926   22.1629 C   0  0  0  0  0  0
  -19.1542  -28.8856   23.2877 C   0  0  0  0  0  0
  -18.9464  -30.1457   23.8894 C   0  0  0  0  0  0
  -17.6463  -30.6586   24.0563 C   0  0  0  0  0  0
  -25.9050  -34.9446   23.5102 C   0  0  0  0  0  0
  -16.5354  -29.9085   23.6329 C   0  0  0  0  0  0
  -16.7276  -28.6503   23.0351 C   0  0  0  0  0  0
  -26.4494  -31.6586   25.0724 C   0  0  0  0  0  0
  -25.3725  -31.3728   26.1451 C   0  0  0  0  0  0
  -27.0341  -30.3008   24.6190 C   0  0  0  0  0  0
  -27.6050  -32.4326   25.7495 C   0  0  0  0  0  0
  -27.5572  -37.1813   24.8474 C   0  0  0  0  0  0
  -21.4197  -29.3042   22.3671 N   0  0  0  0  0  0
  -26.4300  -37.3767   23.9394 N   0  0  0  0  0  0
  -24.6911  -31.0574   22.0966 N   0  0  0  0  0  0
  -23.4199  -28.8155   23.3020 O   0  0  0  0  0  0
  -28.3290  -26.4301   20.1460 O   0  0  0  0  0  0
  -26.5623  -34.8915   22.4671 O   0  0  0  0  0  0
  -23.5434  -32.1388   23.7320 O   0  0  0  0  0  0
  -30.9687  -19.3938   20.2929 C   0  0  0  0  0  0
  -31.0211  -17.9741   20.4792 C   0  0  0  0  0  0
  -28.5702  -19.3370   20.2740 C   0  0  0  0  0  0
  -29.7471  -20.1239   20.1712 C   0  0  0  0  0  0
  -29.8389  -17.1910   20.5600 C   0  0  0  0  0  0
  -28.6194  -17.9201   20.4678 C   0  0  0  0  0  0
  -28.9655  -23.8451   20.0539 C   0  0  0  0  0  0
  -29.7444  -21.6235   19.7701 C   0  0  0  0  0  0
  -28.0957  -25.0365   20.6306 C   0  0  0  0  0  0
  -28.9065  -22.5787   20.4162 N   0  0  0  0  0  0
  -29.7654  -15.7353   20.7612 N   0  0  0  0  0  0
  -30.5574  -21.9152   18.8886 O   0  0  0  0  0  0
  -27.4567  -17.2295   20.5396 F   0  0  0  0  0  0
  -31.4819  -12.5514   19.1525 H   0  0  0  0  0  0
  -30.3893  -11.4256   19.9111 H   0  0  0  0  0  0
  -29.7796  -11.7480   17.4930 H   0  0  0  0  0  0
  -29.6461  -13.4717   17.7343 H   0  0  0  0  0  0
  -27.8758  -11.2898   18.8806 H   0  0  0  0  0  0
  -27.3782  -12.5614   17.7968 H   0  0  0  0  0  0
  -27.6578  -14.2524   19.5085 H   0  0  0  0  0  0
  -28.7188  -12.0773   21.3835 H   0  0  0  0  0  0
  -28.4403  -13.7356   21.8354 H   0  0  0  0  0  0
  -25.2764   -9.5677   22.4752 H   0  0  0  0  0  0
  -23.9996   -7.4633   22.7475 H   0  0  0  0  0  0
  -21.0834   -8.8772   19.8954 H   0  0  0  0  0  0
  -22.3695  -10.9667   19.6159 H   0  0  0  0  0  0
  -21.2010   -7.6147   23.9715 H   0  0  0  0  0  0
  -21.1478   -6.0521   25.9077 H   0  0  0  0  0  0
  -22.0601   -2.7606   23.2849 H   0  0  0  0  0  0
  -22.4107  -11.9871   22.4802 H   0  0  0  0  0  0
  -21.1108  -13.1240   22.2634 H   0  0  0  0  0  0
  -24.6492  -15.8342   20.5656 H   0  0  0  0  0  0
  -26.2837  -15.6683   20.1993 H   0  0  0  0  0  0
  -26.7185  -32.5436   23.1098 H   0  0  0  0  0  0
  -25.0061  -33.9713   25.0412 H   0  0  0  0  0  0
  -22.7181  -31.3007   21.3981 H   0  0  0  0  0  0
  -23.3734  -35.9648   23.3344 H   0  0  0  0  0  0
  -24.3569  -36.8871   22.2048 H   0  0  0  0  0  0
  -23.7272  -37.6519   23.6639 H   0  0  0  0  0  0
  -26.0992  -31.5448   20.6056 H   0  0  0  0  0  0
  -26.8452  -30.8332   22.0056 H   0  0  0  0  0  0
  -28.1218  -28.9674   21.1954 H   0  0  0  0  0  0
  -25.9993  -25.9267   18.9880 H   0  0  0  0  0  0
  -23.9796  -27.3057   19.0015 H   0  0  0  0  0  0
  -23.7610  -30.5884   19.4029 H   0  0  0  0  0  0
  -22.7601  -29.2426   19.8567 H   0  0  0  0  0  0
  -25.1302  -36.1939   25.0823 H   0  0  0  0  0  0
  -20.9982  -28.3268   24.1400 H   0  0  0  0  0  0
  -20.5678  -26.2302   23.3609 H   0  0  0  0  0  0
  -21.6644  -26.7440   22.1202 H   0  0  0  0  0  0
  -19.6911  -25.6293   21.1243 H   0  0  0  0  0  0
  -19.6685  -27.3192   20.6741 H   0  0  0  0  0  0
  -17.4198  -26.6669   21.4037 H   0  0  0  0  0  0
  -18.0340  -26.0072   22.9030 H   0  0  0  0  0  0
  -19.7939  -30.7275   24.2262 H   0  0  0  0  0  0
  -17.5017  -31.6265   24.5167 H   0  0  0  0  0  0
  -15.5355  -30.2987   23.7651 H   0  0  0  0  0  0
  -15.8678  -28.0820   22.7069 H   0  0  0  0  0  0
  -24.5896  -30.7083   25.7778 H   0  0  0  0  0  0
  -24.8923  -32.2897   26.4880 H   0  0  0  0  0  0
  -25.8047  -30.8901   27.0225 H   0  0  0  0  0  0
  -26.2923  -29.6756   24.1208 H   0  0  0  0  0  0
  -27.4028  -29.7266   25.4701 H   0  0  0  0  0  0
  -27.8795  -30.4291   23.9427 H   0  0  0  0  0  0
  -27.2655  -33.3623   26.2074 H   0  0  0  0  0  0
  -28.3858  -32.6893   25.0324 H   0  0  0  0  0  0
  -28.0722  -31.8454   26.5412 H   0  0  0  0  0  0
  -28.2628  -38.0070   24.7456 H   0  0  0  0  0  0
  -28.1028  -36.2598   24.6387 H   0  0  0  0  0  0
  -27.2277  -37.1566   25.8876 H   0  0  0  0  0  0
  -20.9380  -29.8766   21.6878 H   0  0  0  0  0  0
  -26.0183  -38.2852   24.1351 H   0  0  0  0  0  0
  -31.9043  -19.9293   20.2035 H   0  0  0  0  0  0
  -31.9865  -17.4936   20.5515 H   0  0  0  0  0  0
  -27.6069  -19.8145   20.1681 H   0  0  0  0  0  0
  -29.6536  -24.1922   19.2773 H   0  0  0  0  0  0
  -28.2632  -25.0596   21.7075 H   0  0  0  0  0  0
  -27.0529  -24.7426   20.5227 H   0  0  0  0  0  0
  -28.8342  -15.4248   20.9928 H   0  0  0  0  0  0
  1 25  1  0  0  0
  1 30  2  0  0  0
  1 81  1  0  0  0
  2  3  1  0  0  0
  2 25  1  0  0  0
  2 84  1  0  0  0
  2 85  1  0  0  0
  3  4  1  0  0  0
  3 86  1  0  0  0
  3 87  1  0  0  0
  4  5  1  0  0  0
  4 88  1  0  0  0
  4 89  1  0  0  0
  5  6  1  0  0  0
  5 26  1  0  0  0
  5 90  1  0  0  0
  6 25  1  0  0  0
  6 91  1  0  0  0
  6 92  1  0  0  0
  7  8  2  0  0  0
  7 26  1  0  0  0
  7 29  1  0  0  0
  8  9  1  0  0  0
  8 22  1  0  0  0
  9 10  1  0  0  0
  9 27  2  0  0  0
 10 11  2  0  0  0
 10 15  1  0  0  0
 11 12  1  0  0  0
 11 93  1  0  0  0
 12 13  2  0  0  0
 12 94  1  0  0  0
 13 14  1  0  0  0
 13 31  1  0  0  0
 14 15  2  0  0  0
 14 95  1  0  0  0
 15 96  1  0  0  0
 16 17  2  0  0  0
 16 21  1  0  0  0
 16 31  1  0  0  0
 17 18  1  0  0  0
 17 97  1  0  0  0
 18 19  2  0  0  0
 18 98  1  0  0  0
 19 20  1  0  0  0
 19 24  1  0  0  0
 20 21  2  0  0  0
 20 99  1  0  0  0
 21 23  1  0  0  0
 22 28  1  0  0  0
 22 32  2  0  0  0
 26 27  1  0  0  0
 28100  1  0  0  0
 28101  1  0  0  0
 29102  1  0  0  0
 29103  1  0  0  0
 33 34  1  0  0  0
 33 66  1  0  0  0
 33 70  2  0  0  0
 34 36  1  0  0  0
 34 59  1  0  0  0
 34104  1  0  0  0
 35 44  2  0  0  0
 35 45  1  0  0  0
 35 68  1  0  0  0
 36 56  1  0  0  0
 36105  1  0  0  0
 37 39  1  0  0  0
 37 47  1  0  0  0
 37 66  1  0  0  0
 37106  1  0  0  0
 38 43  2  0  0  0
 38 46  1  0  0  0
 38 47  1  0  0  0
 39 64  1  0  0  0
 39 67  2  0  0  0
 40 52  1  0  0  0
 40 53  2  0  0  0
 40 58  1  0  0  0
 41107  1  0  0  0
 41108  1  0  0  0
 41109  1  0  0  0
 41 48  1  0  0  0
 42 43  1  0  0  0
 42 66  1  0  0  0
 42110  1  0  0  0
 42111  1  0  0  0
 43 44  1  0  0  0
 44112  1  0  0  0
 45 46  2  0  0  0
 45113  1  0  0  0
 46114  1  0  0  0
 47115  1  0  0  0
 47116  1  0  0  0
 48 56  1  0  0  0
 48 65  1  0  0  0
 48117  1  0  0  0
 49 50  1  0  0  0
 49 53  1  0  0  0
 49 64  1  0  0  0
 49118  1  0  0  0
 50 51  1  0  0  0
 50119  1  0  0  0
 50120  1  0  0  0
 51 52  1  0  0  0
 51121  1  0  0  0
 51122  1  0  0  0
 52123  1  0  0  0
 52124  1  0  0  0
 53 54  1  0  0  0
 54 55  2  0  0  0
 54125  1  0  0  0
 55 57  1  0  0  0
 55126  1  0  0  0
 56 69  2  0  0  0
 57 58  2  0  0  0
 57127  1  0  0  0
 58128  1  0  0  0
 59 60  1  0  0  0
 59 61  1  0  0  0
 59 62  1  0  0  0
 60129  1  0  0  0
 60130  1  0  0  0
 60131  1  0  0  0
 61132  1  0  0  0
 61133  1  0  0  0
 61134  1  0  0  0
 62135  1  0  0  0
 62136  1  0  0  0
 62137  1  0  0  0
 63 65  1  0  0  0
 63138  1  0  0  0
 63139  1  0  0  0
 63140  1  0  0  0
 64141  1  0  0  0
 65142  1  0  0  0
 68 79  1  0  0  0
 71 72  2  0  0  0
 71 74  1  0  0  0
 71143  1  0  0  0
 72 75  1  0  0  0
 72144  1  0  0  0
 73 74  2  0  0  0
 73 76  1  0  0  0
 73145  1  0  0  0
 74 78  1  0  0  0
 75 76  2  0  0  0
 75 81  1  0  0  0
 76 83  1  0  0  0
 77 79  1  0  0  0
 77 80  2  0  0  0
 77146  1  0  0  0
 78 80  1  0  0  0
 78 82  2  0  0  0
 79147  1  0  0  0
 79148  1  0  0  0
 81149  1  0  0  0
M  ISO  4   1 100  68 101  79 101  81 100
M  END
> <chiral flag>
0

> <version>
0

> <s_m_source_file>
/data/baiqing/PycharmProjects/Reinvent-master-3.2/result/LINK_invent/BTK/process_docking_weight1_custom_product_contain_oxygen_bond_distance_aromatic_linkinvent_7_9_3/rearranged_h_0094.sdf

> <i_m_source_file_index>
98

> <r_mmod_Potential_Energy-OPLS-2005>
36.1921653747559

> <r_mmod_Stretch_Energy-OPLS-2005>
92.0756759643555

> <r_mmod_Bend_Energy-OPLS-2005>
144.19580078125

> <r_mmod_Torsional_Energy-OPLS-2005>
229.915496826172

> <r_mmod_Improper_Torsional_Energy-OPLS-2005>
5.46865367889404

> <r_mmod_Van_der_Waal_Energy-OPLS-2005>
148.327819824219

> <r_mmod_Electrostatic_Energy-OPLS-2005>
-447.751495361328

> <r_mmod_Solvation_Energy-OPLS-2005>
-196.921340942383

> <b_mmod_Minimization_Converged-OPLS-2005>
0

> <r_mmod_RMS_Derivative-OPLS-2005>
0.346518635749817

$$$$
98
                    3D
 Structure written by MMmdl.
161170  0  0  1  0            999 V2000
  -30.5614  -14.7670   20.3736 C   0  0  0  0  0  0
  -30.4265  -12.4284   19.4830 C   0  0  0  0  0  0
  -29.5006  -12.4312   18.2491 C   0  0  0  0  0  0
  -28.0203  -12.3085   18.6585 C   0  0  0  0  0  0
  -27.6389  -13.2256   19.8547 C   0  0  2  0  0  0
  -28.6867  -13.1498   20.9833 C   0  0  0  0  0  0
  -25.2472  -13.8224   20.5704 C   0  0  0  0  0  0
  -24.1765  -13.0491   20.9240 C   0  0  0  0  0  0
  -24.6352  -11.6956   20.8846 C   0  0  0  0  0  0
  -23.9064  -10.4315   21.0453 C   0  0  0  0  0  0
  -24.3632   -9.4227   21.9216 C   0  0  0  0  0  0
  -23.6304   -8.2259   22.0759 C   0  0  0  0  0  0
  -22.4289   -8.0279   21.3537 C   0  0  0  0  0  0
  -21.9936   -9.0263   20.4645 C   0  0  0  0  0  0
  -22.7256  -10.2149   20.3072 C   0  0  0  0  0  0
  -21.6844   -6.0732   22.5297 C   0  0  0  0  0  0
  -21.3988   -6.5625   23.8236 C   0  0  0  0  0  0
  -21.3691   -5.6771   24.9199 C   0  0  0  0  0  0
  -21.6074   -4.3044   24.7252 C   0  0  0  0  0  0
  -21.8812   -3.8144   23.4361 C   0  0  0  0  0  0
  -21.9183   -4.6959   22.3413 C   0  0  0  0  0  0
  -22.7763  -13.5260   21.1846 C   0  0  0  0  0  0
  -22.1624   -4.2147   21.0985 F   0  0  0  0  0  0
  -21.5690   -3.4516   25.7762 F   0  0  0  0  0  0
  -29.9791  -13.5144   20.3918 N   0  0  0  0  0  0
  -26.2901  -12.9429   20.3374 N   0  0  0  0  0  0
  -25.9292  -11.6589   20.5932 N   0  0  0  0  0  0
  -22.0338  -12.8310   22.0393 N   0  0  0  0  0  0
  -25.4211  -15.1951   20.4034 N   0  0  0  0  0  0
  -31.7547  -14.8715   20.0691 O   0  0  0  0  0  0
  -21.6647   -6.8877   21.4249 O   0  0  0  0  0  0
  -22.3480  -14.5548   20.6627 O   0  0  0  0  0  0
  -24.6285  -31.8539   23.1868 C   0  0  0  0  0  0
  -25.9119  -32.4720   23.8222 C   0  0  1  0  0  0
  -27.2365  -27.2670   20.1282 C   0  0  0  0  0  0
  -25.5896  -33.8513   24.2169 N   0  0  0  0  0  0
  -23.4251  -30.4676   21.5345 C   0  0  2  0  0  0
  -24.8751  -28.9078   20.1138 C   0  0  0  0  0  0
  -22.7482  -29.4612   22.4950 C   0  0  0  0  0  0
  -18.0301  -28.1355   22.8498 C   0  0  0  0  0  0
  -24.1518  -36.7277   23.2645 C   0  0  0  0  0  0
  -25.9678  -30.7699   21.3643 C   0  0  0  0  0  0
  -26.0448  -29.3904   20.7113 C   0  0  0  0  0  0
  -27.2239  -28.5828   20.7072 C   0  0  0  0  0  0
  -26.0355  -26.8384   19.5241 C   0  0  0  0  0  0
  -24.8755  -27.6393   19.5110 C   0  0  0  0  0  0
  -23.6372  -29.7791   20.1596 C   0  0  0  0  0  0
  -25.4148  -36.3046   24.0322 C   0  0  1  0  0  0
  -20.5904  -28.3669   23.1284 C   0  0  2  0  0  0
  -20.6795  -26.9380   22.5420 C   0  0  0  0  0  0
  -19.5766  -26.6350   21.5220 C   0  0  0  0  0  0
  -18.1939  -26.7899   22.1620 C   0  0  0  0  0  0
  -19.1558  -28.8832   23.2872 C   0  0  0  0  0  0
  -18.9480  -30.1460   23.8850 C   0  0  0  0  0  0
  -17.6470  -30.6569   24.0545 C   0  0  0  0  0  0
  -25.9079  -34.9419   23.5075 C   0  0  0  0  0  0
  -16.5363  -29.9049   23.6352 C   0  0  0  0  0  0
  -16.7284  -28.6474   23.0363 C   0  0  0  0  0  0
  -26.4461  -31.6522   25.0613 C   0  0  0  0  0  0
  -25.3657  -31.3674   26.1309 C   0  0  0  0  0  0
  -27.0314  -30.2926   24.6115 C   0  0  0  0  0  0
  -27.5990  -32.4269   25.7407 C   0  0  0  0  0  0
  -27.5614  -37.1798   24.8466 C   0  0  0  0  0  0
  -21.4207  -29.3003   22.3669 N   0  0  0  0  0  0
  -26.4327  -37.3751   23.9395 N   0  0  0  0  0  0
  -24.6925  -31.0523   22.0814 N   0  0  0  0  0  0
  -23.4181  -28.8219   23.3098 O   0  0  0  0  0  0
  -28.3643  -26.4188   20.2104 O   0  0  0  0  0  0
  -26.5703  -34.8924   22.4671 O   0  0  0  0  0  0
  -23.5458  -32.1345   23.7193 O   0  0  0  0  0  0
  -29.2798  -19.6420   18.2941 C   0  0  0  0  0  0
  -29.4614  -18.5112   20.4365 C   0  0  0  0  0  0
  -29.6971  -17.2077   18.3743 C   0  0  0  0  0  0
  -29.2550  -19.7632   19.6978 C   0  0  0  0  0  0
  -29.5065  -18.4169   17.6505 C   0  0  0  0  0  0
  -29.6879  -17.2022   19.8078 C   0  0  0  0  0  0
  -29.5611  -21.7087   21.3217 C   0  0  0  0  0  0
  -30.7731  -15.5836   16.8197 C   0  0  0  0  0  0
  -29.7316  -15.9705   17.5788 C   0  0  0  0  0  0
  -29.3762  -23.2495   21.3926 C   0  0  0  0  0  0
  -28.4743  -22.3155   19.4125 C   0  0  0  0  0  0
  -28.3466  -23.6239   20.3081 C   0  0  2  0  0  0
  -28.4764  -25.0675   19.5654 C   0  0  0  0  0  0
  -29.0270  -21.1553   20.2120 N   0  0  0  0  0  0
  -29.5078  -18.4242   16.2503 N   0  0  0  0  0  0
  -29.7540  -15.8928   20.5516 N   0  0  0  0  0  0
  -30.1589  -21.0928   22.2105 O   0  0  0  0  0  0
  -31.4643  -12.5525   19.1724 H   0  0  0  0  0  0
  -30.3791  -11.4588   19.9824 H   0  0  0  0  0  0
  -29.7674  -11.6156   17.5782 H   0  0  0  0  0  0
  -29.6457  -13.3360   17.6771 H   0  0  0  0  0  0
  -27.8498  -11.2649   18.9293 H   0  0  0  0  0  0
  -27.3678  -12.5036   17.8075 H   0  0  0  0  0  0
  -27.6343  -14.2490   19.4782 H   0  0  0  0  0  0
  -28.7244  -12.1396   21.3973 H   0  0  0  0  0  0
  -28.4268  -13.8111   21.8096 H   0  0  0  0  0  0
  -25.2764   -9.5694   22.4817 H   0  0  0  0  0  0
  -24.0006   -7.4646   22.7486 H   0  0  0  0  0  0
  -21.0880   -8.8805   19.8936 H   0  0  0  0  0  0
  -22.3735  -10.9709   19.6190 H   0  0  0  0  0  0
  -21.1917   -7.6125   23.9735 H   0  0  0  0  0  0
  -21.1532   -6.0498   25.9107 H   0  0  0  0  0  0
  -22.0561   -2.7595   23.2875 H   0  0  0  0  0  0
  -22.3847  -11.9993   22.4889 H   0  0  0  0  0  0
  -21.0950  -13.1407   22.2490 H   0  0  0  0  0  0
  -24.6553  -15.8572   20.4756 H   0  0  0  0  0  0
  -26.2827  -15.6260   20.0960 H   0  0  0  0  0  0
  -26.7189  -32.5391   23.0964 H   0  0  0  0  0  0
  -24.9905  -33.9590   25.0224 H   0  0  0  0  0  0
  -22.7222  -31.2875   21.3757 H   0  0  0  0  0  0
  -23.3788  -35.9606   23.3275 H   0  0  0  0  0  0
  -24.3616  -36.8934   22.2069 H   0  0  0  0  0  0
  -23.7265  -37.6465   23.6691 H   0  0  0  0  0  0
  -26.1132  -31.5299   20.5960 H   0  0  0  0  0  0
  -26.8405  -30.8167   22.0025 H   0  0  0  0  0  0
  -28.1220  -28.9539   21.1810 H   0  0  0  0  0  0
  -25.9533  -25.8521   19.0958 H   0  0  0  0  0  0
  -23.9731  -27.2495   19.0611 H   0  0  0  0  0  0
  -23.7354  -30.5320   19.3780 H   0  0  0  0  0  0
  -22.7644  -29.1831   19.8852 H   0  0  0  0  0  0
  -25.1351  -36.1877   25.0824 H   0  0  0  0  0  0
  -21.0006  -28.3234   24.1403 H   0  0  0  0  0  0
  -20.5704  -26.2254   23.3627 H   0  0  0  0  0  0
  -21.6660  -26.7401   22.1186 H   0  0  0  0  0  0
  -19.6908  -25.6251   21.1260 H   0  0  0  0  0  0
  -19.6713  -27.3170   20.6763 H   0  0  0  0  0  0
  -17.4223  -26.6693   21.3993 H   0  0  0  0  0  0
  -18.0299  -26.0009   22.8987 H   0  0  0  0  0  0
  -19.7963  -30.7321   24.2125 H   0  0  0  0  0  0
  -17.5025  -31.6262   24.5126 H   0  0  0  0  0  0
  -15.5353  -30.2927   23.7708 H   0  0  0  0  0  0
  -15.8692  -28.0785   22.7069 H   0  0  0  0  0  0
  -24.5843  -30.7018   25.7602 H   0  0  0  0  0  0
  -24.8832  -32.2852   26.4686 H   0  0  0  0  0  0
  -25.7934  -30.8848   27.0104 H   0  0  0  0  0  0
  -26.2893  -29.6634   24.1177 H   0  0  0  0  0  0
  -27.4024  -29.7208   25.4629 H   0  0  0  0  0  0
  -27.8750  -30.4157   23.9319 H   0  0  0  0  0  0
  -27.2545  -33.3570   26.1939 H   0  0  0  0  0  0
  -28.3809  -32.6817   25.0238 H   0  0  0  0  0  0
  -28.0625  -31.8408   26.5350 H   0  0  0  0  0  0
  -28.2598  -38.0129   24.7558 H   0  0  0  0  0  0
  -28.1151  -36.2662   24.6249 H   0  0  0  0  0  0
  -27.2328  -37.1385   25.8866 H   0  0  0  0  0  0
  -20.9396  -29.8662   21.6830 H   0  0  0  0  0  0
  -26.0208  -38.2839   24.1350 H   0  0  0  0  0  0
  -29.1313  -20.5130   17.6737 H   0  0  0  0  0  0
  -29.4212  -18.5520   21.5155 H   0  0  0  0  0  0
  -30.7289  -14.6850   16.2195 H   0  0  0  0  0  0
  -31.6850  -16.1632   16.7846 H   0  0  0  0  0  0
  -28.8245  -15.3819   17.5879 H   0  0  0  0  0  0
  -30.3429  -23.7180   21.2001 H   0  0  0  0  0  0
  -29.0400  -23.5523   22.3837 H   0  0  0  0  0  0
  -29.1608  -22.5360   18.5925 H   0  0  0  0  0  0
  -27.5128  -22.0558   18.9638 H   0  0  0  0  0  0
  -27.3651  -23.5986   20.7832 H   0  0  0  0  0  0
  -27.8459  -25.0515   18.6789 H   0  0  0  0  0  0
  -29.4755  -25.0690   19.1284 H   0  0  0  0  0  0
  -29.7728  -19.2810   15.7747 H   0  0  0  0  0  0
  -29.9111  -17.6013   15.8123 H   0  0  0  0  0  0
  -28.9232  -15.6899   21.0900 H   0  0  0  0  0  0
  1 25  1  0  0  0
  1 30  2  0  0  0
  1 86  1  0  0  0
  2  3  1  0  0  0
  2 25  1  0  0  0
  2 88  1  0  0  0
  2 89  1  0  0  0
  3  4  1  0  0  0
  3 90  1  0  0  0
  3 91  1  0  0  0
  4  5  1  0  0  0
  4 92  1  0  0  0
  4 93  1  0  0  0
  5  6  1  0  0  0
  5 26  1  0  0  0
  5 94  1  0  0  0
  6 25  1  0  0  0
  6 95  1  0  0  0
  6 96  1  0  0  0
  7  8  2  0  0  0
  7 26  1  0  0  0
  7 29  1  0  0  0
  8  9  1  0  0  0
  8 22  1  0  0  0
  9 10  1  0  0  0
  9 27  2  0  0  0
 10 11  2  0  0  0
 10 15  1  0  0  0
 11 12  1  0  0  0
 11 97  1  0  0  0
 12 13  2  0  0  0
 12 98  1  0  0  0
 13 14  1  0  0  0
 13 31  1  0  0  0
 14 15  2  0  0  0
 14 99  1  0  0  0
 15100  1  0  0  0
 16 17  2  0  0  0
 16 21  1  0  0  0
 16 31  1  0  0  0
 17 18  1  0  0  0
 17101  1  0  0  0
 18 19  2  0  0  0
 18102  1  0  0  0
 19 20  1  0  0  0
 19 24  1  0  0  0
 20 21  2  0  0  0
 20103  1  0  0  0
 21 23  1  0  0  0
 22 28  1  0  0  0
 22 32  2  0  0  0
 26 27  1  0  0  0
 28104  1  0  0  0
 28105  1  0  0  0
 29106  1  0  0  0
 29107  1  0  0  0
 33 34  1  0  0  0
 33 66  1  0  0  0
 33 70  2  0  0  0
 34 36  1  0  0  0
 34 59  1  0  0  0
 34108  1  0  0  0
 35 44  2  0  0  0
 35 45  1  0  0  0
 35 68  1  0  0  0
 36 56  1  0  0  0
 36109  1  0  0  0
 37 39  1  0  0  0
 37 47  1  0  0  0
 37 66  1  0  0  0
 37110  1  0  0  0
 38 43  2  0  0  0
 38 46  1  0  0  0
 38 47  1  0  0  0
 39 64  1  0  0  0
 39 67  2  0  0  0
 40 52  1  0  0  0
 40 53  2  0  0  0
 40 58  1  0  0  0
 41111  1  0  0  0
 41112  1  0  0  0
 41113  1  0  0  0
 41 48  1  0  0  0
 42 43  1  0  0  0
 42 66  1  0  0  0
 42114  1  0  0  0
 42115  1  0  0  0
 43 44  1  0  0  0
 44116  1  0  0  0
 45 46  2  0  0  0
 45117  1  0  0  0
 46118  1  0  0  0
 47119  1  0  0  0
 47120  1  0  0  0
 48 56  1  0  0  0
 48 65  1  0  0  0
 48121  1  0  0  0
 49 50  1  0  0  0
 49 53  1  0  0  0
 49 64  1  0  0  0
 49122  1  0  0  0
 50 51  1  0  0  0
 50123  1  0  0  0
 50124  1  0  0  0
 51 52  1  0  0  0
 51125  1  0  0  0
 51126  1  0  0  0
 52127  1  0  0  0
 52128  1  0  0  0
 53 54  1  0  0  0
 54 55  2  0  0  0
 54129  1  0  0  0
 55 57  1  0  0  0
 55130  1  0  0  0
 56 69  2  0  0  0
 57 58  2  0  0  0
 57131  1  0  0  0
 58132  1  0  0  0
 59 60  1  0  0  0
 59 61  1  0  0  0
 59 62  1  0  0  0
 60133  1  0  0  0
 60134  1  0  0  0
 60135  1  0  0  0
 61136  1  0  0  0
 61137  1  0  0  0
 61138  1  0  0  0
 62139  1  0  0  0
 62140  1  0  0  0
 62141  1  0  0  0
 63 65  1  0  0  0
 63142  1  0  0  0
 63143  1  0  0  0
 63144  1  0  0  0
 64145  1  0  0  0
 65146  1  0  0  0
 68 83  1  0  0  0
 71 74  2  0  0  0
 71 75  1  0  0  0
 71147  1  0  0  0
 72 74  1  0  0  0
 72 76  2  0  0  0
 72148  1  0  0  0
 73 75  2  0  0  0
 73 76  1  0  0  0
 73 79  1  0  0  0
 74 84  1  0  0  0
 75 85  1  0  0  0
 76 86  1  0  0  0
 77 80  1  0  0  0
 77 84  1  0  0  0
 77 87  2  0  0  0
 78 79  2  0  0  0
 78149  1  0  0  0
 78150  1  0  0  0
 79151  1  0  0  0
 80 82  1  0  0  0
 80152  1  0  0  0
 80153  1  0  0  0
 81 82  1  0  0  0
 81 84  1  0  0  0
 81154  1  0  0  0
 81155  1  0  0  0
 82 83  1  0  0  0
 82156  1  0  0  0
 83157  1  0  0  0
 83158  1  0  0  0
 85159  1  0  0  0
 85160  1  0  0  0
 86161  1  0  0  0
M  ISO  4   1 100  68 101  83 101  86 100
M  END
> <chiral flag>
0

> <version>
0

> <s_m_source_file>
/data/baiqing/PycharmProjects/Reinvent-master-3.2/result/LINK_invent/BTK/process_docking_weight1_custom_product_contain_oxygen_bond_distance_aromatic_linkinvent_7_9_3/rearranged_h_0094.sdf

> <i_m_source_file_index>
99

> <r_mmod_Potential_Energy-OPLS-2005>
331.762176513672

> <r_mmod_Stretch_Energy-OPLS-2005>
138.982574462891

> <r_mmod_Bend_Energy-OPLS-2005>
215.673202514648

> <r_mmod_Torsional_Energy-OPLS-2005>
328.257476806641

> <r_mmod_Improper_Torsional_Energy-OPLS-2005>
10.479528427124

> <r_mmod_Van_der_Waal_Energy-OPLS-2005>
141.203750610352

> <r_mmod_Electrostatic_Energy-OPLS-2005>
-355.912139892578

> <r_mmod_Solvation_Energy-OPLS-2005>
-237.374450683594

> <b_mmod_Minimization_Converged-OPLS-2005>
0

> <r_mmod_RMS_Derivative-OPLS-2005>
5.07363700866699

$$$$
